
     RDKit          3D

 39 42  0  0  0  0  0  0  0  0999 V2000
    7.7795    2.8620   21.9244 C   0  0  0  0  0  0  0  0  0  0  0  0
    9.1239    2.4866   22.4588 C   0  0  0  0  0  0  0  0  0  0  0  0
    9.6528    3.0669   23.5053 N   0  0  0  0  0  0  0  0  0  0  0  0
   10.8486    2.4220   23.7374 O   0  0  0  0  0  0  0  0  0  0  0  0
   11.0011    1.4550   22.8262 C   0  0  0  0  0  0  0  0  0  0  0  0
    9.9593    1.4315   21.9596 C   0  0  0  0  0  0  0  0  0  0  0  0
    9.6323    0.3850   20.9015 C   0  0  0  0  0  0  0  0  0  0  0  0
    8.6181   -0.6200   21.3594 C   0  0  0  0  0  0  0  0  0  0  0  0
    8.8272   -1.4870   22.3220 N   0  0  0  0  0  0  0  0  0  0  0  0
    7.6074   -2.0679   22.5035 C   0  0  0  0  0  0  0  0  0  0  0  0
    7.3961   -3.0781   23.5601 C   0  0  0  0  0  0  0  0  0  0  0  0
    8.3821   -3.2454   24.5633 C   0  0  0  0  0  0  0  0  0  0  0  0
    8.2263   -4.1767   25.5901 C   0  0  0  0  0  0  0  0  0  0  0  0
    7.0741   -4.9711   25.6389 C   0  0  0  0  0  0  0  0  0  0  0  0
    6.0903   -4.8278   24.6583 C   0  0  0  0  0  0  0  0  0  0  0  0
    6.2459   -3.8952   23.6276 C   0  0  0  0  0  0  0  0  0  0  0  0
    4.9569   -3.8343   22.4567 Cl  0  0  0  0  0  0  0  0  0  0  0  0
    5.1844   -5.4244   24.6699 H   0  0  0  0  0  0  0  0  0  0  0  0
    6.9390   -5.6999   26.4358 H   0  0  0  0  0  0  0  0  0  0  0  0
    8.9993   -4.2860   26.3491 H   0  0  0  0  0  0  0  0  0  0  0  0
    9.2786   -2.6282   24.5184 H   0  0  0  0  0  0  0  0  0  0  0  0
    6.6679   -1.6142   21.6895 N   0  0  0  0  0  0  0  0  0  0  0  0
    7.3262   -0.7110   20.9295 N   0  0  0  0  0  0  0  0  0  0  0  0
    6.6464   -0.0194   19.8849 C   0  0  0  0  0  0  0  0  0  0  0  0
    5.4371    0.6270   20.1503 C   0  0  0  0  0  0  0  0  0  0  0  0
    4.8037    1.3108   19.1052 C   0  0  0  0  0  0  0  0  0  0  0  0
    5.3945    1.2992   17.8362 C   0  0  0  0  0  0  0  0  0  0  0  0
    6.5440    0.6605   17.5689 N   0  0  0  0  0  0  0  0  0  0  0  0
    7.1550    0.0279   18.5780 C   0  0  0  0  0  0  0  0  0  0  0  0
    8.0979   -0.4605   18.3366 H   0  0  0  0  0  0  0  0  0  0  0  0
    4.9314    1.8184   16.9991 H   0  0  0  0  0  0  0  0  0  0  0  0
    3.8701    1.8490   19.2556 H   0  0  0  0  0  0  0  0  0  0  0  0
    5.0149    0.5719   21.1545 H   0  0  0  0  0  0  0  0  0  0  0  0
   10.5236   -0.1950   20.6489 H   0  0  0  0  0  0  0  0  0  0  0  0
    9.2719    0.8383   19.9756 H   0  0  0  0  0  0  0  0  0  0  0  0
   11.8768    0.8272   22.9503 H   0  0  0  0  0  0  0  0  0  0  0  0
    7.5194    3.9023   22.1311 H   0  0  0  0  0  0  0  0  0  0  0  0
    7.7730    2.6896   20.8459 H   0  0  0  0  0  0  0  0  0  0  0  0
    7.0026    2.2227   22.3629 H   0  0  0  0  0  0  0  0  0  0  0  0
  1  2  1  0
  2  3  2  0
  3  4  1  0
  4  5  1  0
  5  6  2  0
  6  7  1  0
  7  8  1  0
  8  9  2  0
  9 10  1  0
 10 11  1  0
 11 12  2  0
 12 13  1  0
 13 14  2  0
 14 15  1  0
 15 16  2  0
 16 17  1  0
 15 18  1  0
 14 19  1  0
 13 20  1  0
 12 21  1  0
 10 22  2  0
 22 23  1  0
 23 24  1  0
 24 25  2  0
 25 26  1  0
 26 27  2  0
 27 28  1  0
 28 29  2  0
 29 30  1  0
 27 31  1  0
 26 32  1  0
 25 33  1  0
  7 34  1  0
  7 35  1  0
  5 36  1  0
  1 37  1  0
  1 38  1  0
  1 39  1  0
  6  2  1  0
 23  8  1  0
 29 24  1  0
 16 11  1  0
M  END
>  <cnnaffinity>  (1) 
-6.18047

>  <filename>  (1) 
Cc1nocc1Cc1nc(-c2ccccc2Cl)nn1-c1cccnc1

$$$$
