
     RDKit          3D

 40 43  0  0  0  0  0  0  0  0999 V2000
    8.2556    4.2334   24.2322 C   0  0  0  0  0  0  0  0  0  0  0  0
    8.4991    3.3477   23.0689 C   0  0  0  0  0  0  0  0  0  0  0  0
    9.2213    2.2547   23.0801 N   0  0  0  0  0  0  0  0  0  0  0  0
    9.1212    1.7438   21.8155 C   0  0  0  0  0  0  0  0  0  0  0  0
    9.6966    0.4307   21.4439 C   0  0  0  0  0  0  0  0  0  0  0  0
    8.6888   -0.6482   21.6604 C   0  0  0  0  0  0  0  0  0  0  0  0
    8.8079   -1.5185   22.6163 N   0  0  0  0  0  0  0  0  0  0  0  0
    7.6105   -2.1711   22.6335 C   0  0  0  0  0  0  0  0  0  0  0  0
    7.3584   -3.1674   23.6982 C   0  0  0  0  0  0  0  0  0  0  0  0
    8.2969   -3.2177   24.7513 C   0  0  0  0  0  0  0  0  0  0  0  0
    8.1806   -4.1154   25.8023 C   0  0  0  0  0  0  0  0  0  0  0  0
    7.1012   -5.0035   25.8313 C   0  0  0  0  0  0  0  0  0  0  0  0
    6.1448   -4.9703   24.8129 C   0  0  0  0  0  0  0  0  0  0  0  0
    6.2609   -4.0545   23.7545 C   0  0  0  0  0  0  0  0  0  0  0  0
    5.0097   -4.0770   22.5453 Cl  0  0  0  0  0  0  0  0  0  0  0  0
    5.2988   -5.6520   24.8377 H   0  0  0  0  0  0  0  0  0  0  0  0
    7.0114   -5.7112   26.6532 H   0  0  0  0  0  0  0  0  0  0  0  0
    8.9349   -4.1119   26.5852 H   0  0  0  0  0  0  0  0  0  0  0  0
    9.1318   -2.5218   24.7148 H   0  0  0  0  0  0  0  0  0  0  0  0
    6.7665   -1.7664   21.7079 N   0  0  0  0  0  0  0  0  0  0  0  0
    7.4669   -0.7982   21.0513 N   0  0  0  0  0  0  0  0  0  0  0  0
    6.8230   -0.0891   19.9880 C   0  0  0  0  0  0  0  0  0  0  0  0
    5.6102    0.5688   20.2337 C   0  0  0  0  0  0  0  0  0  0  0  0
    4.9887    1.2369   19.1768 C   0  0  0  0  0  0  0  0  0  0  0  0
    5.5988    1.2327   17.9182 C   0  0  0  0  0  0  0  0  0  0  0  0
    6.7554    0.5958   17.6737 N   0  0  0  0  0  0  0  0  0  0  0  0
    7.3423   -0.0571   18.6844 C   0  0  0  0  0  0  0  0  0  0  0  0
    8.2559   -0.5947   18.4326 H   0  0  0  0  0  0  0  0  0  0  0  0
    5.1461    1.7609   17.0817 H   0  0  0  0  0  0  0  0  0  0  0  0
    4.0472    1.7566   19.3190 H   0  0  0  0  0  0  0  0  0  0  0  0
    5.1797    0.5282   21.2344 H   0  0  0  0  0  0  0  0  0  0  0  0
   10.5627    0.2193   22.0741 H   0  0  0  0  0  0  0  0  0  0  0  0
   10.0006    0.4161   20.4015 H   0  0  0  0  0  0  0  0  0  0  0  0
    8.3245    2.5148   21.0387 C   0  0  0  0  0  0  0  0  0  0  0  0
    7.9338    3.5603   21.8493 N   0  0  0  0  0  0  0  0  0  0  0  0
    7.2881    4.3040   21.6264 H   0  0  0  0  0  0  0  0  0  0  0  0
    8.0122    2.3329   20.0223 H   0  0  0  0  0  0  0  0  0  0  0  0
    8.8908    3.9190   25.0584 H   0  0  0  0  0  0  0  0  0  0  0  0
    7.2119    4.1498   24.5438 H   0  0  0  0  0  0  0  0  0  0  0  0
    8.4627    5.2800   23.9967 H   0  0  0  0  0  0  0  0  0  0  0  0
  1  2  1  0
  2  3  2  0
  3  4  1  0
  4  5  1  0
  5  6  1  0
  6  7  2  0
  7  8  1  0
  8  9  1  0
  9 10  2  0
 10 11  1  0
 11 12  2  0
 12 13  1  0
 13 14  2  0
 14 15  1  0
 13 16  1  0
 12 17  1  0
 11 18  1  0
 10 19  1  0
  8 20  2  0
 20 21  1  0
 21 22  1  0
 22 23  2  0
 23 24  1  0
 24 25  2  0
 25 26  1  0
 26 27  2  0
 27 28  1  0
 25 29  1  0
 24 30  1  0
 23 31  1  0
  5 32  1  0
  5 33  1  0
  4 34  2  0
 34 35  1  0
 35 36  1  0
 34 37  1  0
  1 38  1  0
  1 39  1  0
  1 40  1  0
 35  2  1  0
 21  6  1  0
 27 22  1  0
 14  9  1  0
M  END
>  <cnnaffinity>  (1) 
-6.11258

>  <filename>  (1) 
Cc1nc(Cc2nc(-c3ccccc3Cl)nn2-c2cccnc2)c[nH]1

$$$$
