
     RDKit          3D

 41 45  0  0  0  0  0  0  0  0999 V2000
   11.3657    2.1975   21.5119 C   0  0  0  0  0  0  0  0  0  0  0  0
   10.1565    2.0895   22.4822 C   0  0  0  0  0  0  0  0  0  0  0  0
   10.0385    1.8864   23.6777 N   0  0  0  0  0  0  0  0  0  0  0  0
    7.6245    2.3902   22.2045 C   0  0  0  0  0  0  0  0  0  0  0  0
    7.1765    1.2827   23.0502 C   0  0  0  0  0  0  0  0  0  0  0  0
    7.5890    0.0351   22.4002 C   0  0  0  0  0  0  0  0  0  0  0  0
    8.1314   -0.9403   23.0966 N   0  0  0  0  0  0  0  0  0  0  0  0
    8.3272   -1.9264   22.1938 C   0  0  0  0  0  0  0  0  0  0  0  0
    8.9727   -3.2304   22.4846 C   0  0  0  0  0  0  0  0  0  0  0  0
    8.1424   -4.5213   22.3865 C   0  0  0  0  0  0  0  0  0  0  0  0
    8.6750   -4.0379   23.7013 C   0  0  0  0  0  0  0  0  0  0  0  0
    8.2663   -3.7627   25.1053 C   0  0  0  0  0  0  0  0  0  0  0  0
    9.5000   -4.6191   24.7853 C   0  0  0  0  0  0  0  0  0  0  0  0
    9.4109   -5.6946   24.9315 H   0  0  0  0  0  0  0  0  0  0  0  0
   10.4951   -4.2077   24.9576 H   0  0  0  0  0  0  0  0  0  0  0  0
    7.3827   -4.2657   25.4937 H   0  0  0  0  0  0  0  0  0  0  0  0
    8.4149   -2.7348   25.4373 H   0  0  0  0  0  0  0  0  0  0  0  0
    8.5839   -5.4245   21.9633 H   0  0  0  0  0  0  0  0  0  0  0  0
    7.0707   -4.4214   22.2137 H   0  0  0  0  0  0  0  0  0  0  0  0
   10.0150   -3.2356   22.1732 H   0  0  0  0  0  0  0  0  0  0  0  0
    7.9345   -1.6366   20.9680 N   0  0  0  0  0  0  0  0  0  0  0  0
    7.4169   -0.3814   21.0939 N   0  0  0  0  0  0  0  0  0  0  0  0
    6.8218    0.2058   19.9296 C   0  0  0  0  0  0  0  0  0  0  0  0
    5.7033    1.0542   19.9759 C   0  0  0  0  0  0  0  0  0  0  0  0
    5.2640    1.6430   18.7860 C   0  0  0  0  0  0  0  0  0  0  0  0
    5.9327    1.3574   17.5951 C   0  0  0  0  0  0  0  0  0  0  0  0
    6.9505    0.4857   17.5271 N   0  0  0  0  0  0  0  0  0  0  0  0
    7.3558   -0.1012   18.6587 C   0  0  0  0  0  0  0  0  0  0  0  0
    8.1316   -0.8596   18.5489 H   0  0  0  0  0  0  0  0  0  0  0  0
    5.6458    1.8452   16.6669 H   0  0  0  0  0  0  0  0  0  0  0  0
    4.4156    2.3213   18.7641 H   0  0  0  0  0  0  0  0  0  0  0  0
    5.2180    1.2860   20.9256 H   0  0  0  0  0  0  0  0  0  0  0  0
    7.6492    1.2979   24.0164 H   0  0  0  0  0  0  0  0  0  0  0  0
    6.0926    1.2430   23.1937 H   0  0  0  0  0  0  0  0  0  0  0  0
    7.6836    2.7638   22.3932 C   0  0  0  0  0  0  0  0  0  0  0  0
    8.9886    2.3387   21.6004 N   0  0  0  0  0  0  0  0  0  0  0  0
    9.2222    3.1282   21.0360 H   0  0  0  0  0  0  0  0  0  0  0  0
    7.9611    3.3901   23.2185 H   0  0  0  0  0  0  0  0  0  0  0  0
   11.5004    3.2378   21.1811 H   0  0  0  0  0  0  0  0  0  0  0  0
   12.3198    1.8799   21.9567 H   0  0  0  0  0  0  0  0  0  0  0  0
   11.1843    1.5802   20.6299 H   0  0  0  0  0  0  0  0  0  0  0  0
  1  2  1  0
  2  3  2  0
  3  4  1  0
  4  5  1  0
  5  6  1  0
  6  7  2  0
  7  8  1  0
  8  9  1  0
  9 10  1  0
 10 11  1  0
 11 12  1  0
 12 13  1  0
 13 14  1  0
 13 15  1  0
 12 16  1  0
 12 17  1  0
 10 18  1  0
 10 19  1  0
  9 20  1  0
  8 21  2  0
 21 22  1  0
 22 23  1  0
 23 24  2  0
 24 25  1  0
 25 26  2  0
 26 27  1  0
 27 28  2  0
 28 29  1  0
 26 30  1  0
 25 31  1  0
 24 32  1  0
  5 33  1  0
  5 34  1  0
  4 35  2  0
 35 36  1  0
 36 37  1  0
 35 38  1  0
  1 39  1  0
  1 40  1  0
  1 41  1  0
 36  2  1  0
 22  6  1  0
 28 23  1  0
 11  9  1  0
 13 11  1  0
M  END
>  <cnnaffinity>  (1) 
-5.92967

>  <filename>  (1) 
Cc1nc(Cc2nc(C3CC34CC4)nn2-c2cccnc2)c[nH]1

$$$$
