
     RDKit          3D

 43 46  0  0  0  0  0  0  0  0999 V2000
    6.5633   -5.9946   26.4230 C   0  0  0  0  0  0  0  0  0  0  0  0
    6.3532   -4.7687   25.6040 C   0  0  0  0  0  0  0  0  0  0  0  0
    6.9398   -3.6122   25.8002 N   0  0  0  0  0  0  0  0  0  0  0  0
    6.5132   -2.7966   24.7871 C   0  0  0  0  0  0  0  0  0  0  0  0
    7.1270   -1.4437   24.5974 C   0  0  0  0  0  0  0  0  0  0  0  0
    7.3549   -1.1392   23.1589 C   0  0  0  0  0  0  0  0  0  0  0  0
    6.4874   -0.4884   22.4143 N   0  0  0  0  0  0  0  0  0  0  0  0
    7.0784   -0.4431   21.1972 C   0  0  0  0  0  0  0  0  0  0  0  0
    6.4704    0.1656   20.0200 C   0  0  0  0  0  0  0  0  0  0  0  0
    5.2487    0.8589   20.0341 C   0  0  0  0  0  0  0  0  0  0  0  0
    4.8015    1.4031   18.8313 C   0  0  0  0  0  0  0  0  0  0  0  0
    5.5736    1.2258   17.6761 C   0  0  0  0  0  0  0  0  0  0  0  0
    6.7299    0.5477   17.6521 N   0  0  0  0  0  0  0  0  0  0  0  0
    7.1621    0.0405   18.8078 C   0  0  0  0  0  0  0  0  0  0  0  0
    8.1104   -0.4929   18.7862 H   0  0  0  0  0  0  0  0  0  0  0  0
    5.2558    1.6436   16.7244 H   0  0  0  0  0  0  0  0  0  0  0  0
    3.8799    1.9731   18.7694 H   0  0  0  0  0  0  0  0  0  0  0  0
    4.6754    0.9699   20.9574 H   0  0  0  0  0  0  0  0  0  0  0  0
    8.2584   -1.0306   21.1536 N   0  0  0  0  0  0  0  0  0  0  0  0
    8.4273   -1.4962   22.4139 N   0  0  0  0  0  0  0  0  0  0  0  0
    9.5631   -2.3791   22.6446 C   0  0  0  0  0  0  0  0  0  0  0  0
    9.2098   -3.7477   23.1947 C   0  0  0  0  0  0  0  0  0  0  0  0
    9.8351   -4.2139   24.3617 C   0  0  0  0  0  0  0  0  0  0  0  0
    9.8224   -5.5679   24.6931 C   0  0  0  0  0  0  0  0  0  0  0  0
    9.1993   -6.4745   23.8322 C   0  0  0  0  0  0  0  0  0  0  0  0
    8.4230   -6.0221   22.7640 C   0  0  0  0  0  0  0  0  0  0  0  0
    8.3917   -4.6519   22.4888 C   0  0  0  0  0  0  0  0  0  0  0  0
    7.3943   -4.1539   21.1584 Cl  0  0  0  0  0  0  0  0  0  0  0  0
    7.8873   -6.7097   22.1148 H   0  0  0  0  0  0  0  0  0  0  0  0
    9.6111   -7.4731   23.7955 H   0  0  0  0  0  0  0  0  0  0  0  0
   10.3479   -5.9341   25.5749 H   0  0  0  0  0  0  0  0  0  0  0  0
   10.2976   -3.4957   25.0294 H   0  0  0  0  0  0  0  0  0  0  0  0
   10.3042   -1.8859   23.2797 H   0  0  0  0  0  0  0  0  0  0  0  0
   10.0316   -2.4952   21.6608 H   0  0  0  0  0  0  0  0  0  0  0  0
    6.4543   -0.6736   24.9823 H   0  0  0  0  0  0  0  0  0  0  0  0
    8.0627   -1.4020   25.1639 H   0  0  0  0  0  0  0  0  0  0  0  0
    5.5832   -3.4339   24.0154 C   0  0  0  0  0  0  0  0  0  0  0  0
    5.5142   -4.7127   24.5316 N   0  0  0  0  0  0  0  0  0  0  0  0
    4.9580   -5.4790   24.1962 H   0  0  0  0  0  0  0  0  0  0  0  0
    4.9942   -3.0747   23.1819 H   0  0  0  0  0  0  0  0  0  0  0  0
    5.8013   -6.7531   26.2291 H   0  0  0  0  0  0  0  0  0  0  0  0
    6.5503   -5.7141   27.4770 H   0  0  0  0  0  0  0  0  0  0  0  0
    7.5462   -6.4219   26.2060 H   0  0  0  0  0  0  0  0  0  0  0  0
  1  2  1  0
  2  3  2  0
  3  4  1  0
  4  5  1  0
  5  6  1  0
  6  7  2  0
  7  8  1  0
  8  9  1  0
  9 10  2  0
 10 11  1  0
 11 12  2  0
 12 13  1  0
 13 14  2  0
 14 15  1  0
 12 16  1  0
 11 17  1  0
 10 18  1  0
  8 19  2  0
 19 20  1  0
 20 21  1  0
 21 22  1  0
 22 23  2  0
 23 24  1  0
 24 25  2  0
 25 26  1  0
 26 27  2  0
 27 28  1  0
 26 29  1  0
 25 30  1  0
 24 31  1  0
 23 32  1  0
 21 33  1  0
 21 34  1  0
  5 35  1  0
  5 36  1  0
  4 37  2  0
 37 38  1  0
 38 39  1  0
 37 40  1  0
  1 41  1  0
  1 42  1  0
  1 43  1  0
 38  2  1  0
 20  6  1  0
 27 22  1  0
 14  9  1  0
M  END
>  <cnnaffinity>  (1) 
-6.45886

>  <filename>  (1) 
Cc1nc(Cc2nc(-c3cccnc3)nn2Cc2ccccc2Cl)c[nH]1

$$$$
