
     RDKit          3D

 39 42  0  0  0  0  0  0  0  0999 V2000
    7.6410   -5.0527   21.1715 C   0  0  0  0  0  0  0  0  0  0  0  0
    8.2969   -5.0254   22.5176 C   0  0  0  0  0  0  0  0  0  0  0  0
    8.0284   -5.9701   23.3876 N   0  0  0  0  0  0  0  0  0  0  0  0
    8.7949   -5.6993   24.4988 O   0  0  0  0  0  0  0  0  0  0  0  0
    9.4900   -4.5824   24.2768 C   0  0  0  0  0  0  0  0  0  0  0  0
    9.2343   -4.0720   23.0436 C   0  0  0  0  0  0  0  0  0  0  0  0
    9.7430   -2.7592   22.4402 C   0  0  0  0  0  0  0  0  0  0  0  0
    8.6752   -1.7928   21.9931 C   0  0  0  0  0  0  0  0  0  0  0  0
    8.4521   -1.3115   20.7865 N   0  0  0  0  0  0  0  0  0  0  0  0
    7.2994   -0.5998   20.9453 C   0  0  0  0  0  0  0  0  0  0  0  0
    6.5995    0.0851   19.8603 C   0  0  0  0  0  0  0  0  0  0  0  0
    5.3713    0.7499   20.0493 C   0  0  0  0  0  0  0  0  0  0  0  0
    4.7901    1.3763   18.9499 C   0  0  0  0  0  0  0  0  0  0  0  0
    5.4482    1.3187   17.7144 C   0  0  0  0  0  0  0  0  0  0  0  0
    6.6083    0.6723   17.5249 N   0  0  0  0  0  0  0  0  0  0  0  0
    7.1649    0.0697   18.5812 C   0  0  0  0  0  0  0  0  0  0  0  0
    8.1023   -0.4534   18.3985 H   0  0  0  0  0  0  0  0  0  0  0  0
    5.0195    1.8013   16.8378 H   0  0  0  0  0  0  0  0  0  0  0  0
    3.8482    1.9105   19.0305 H   0  0  0  0  0  0  0  0  0  0  0  0
    4.8912    0.7728   21.0312 H   0  0  0  0  0  0  0  0  0  0  0  0
    6.8146   -0.6138   22.1716 N   0  0  0  0  0  0  0  0  0  0  0  0
    7.7244   -1.3441   22.8525 N   0  0  0  0  0  0  0  0  0  0  0  0
    7.5515   -1.7084   24.2182 C   0  0  0  0  0  0  0  0  0  0  0  0
    6.3895   -2.3901   24.5911 C   0  0  0  0  0  0  0  0  0  0  0  0
    6.3523   -2.9721   25.8481 C   0  0  0  0  0  0  0  0  0  0  0  0
    5.2883   -3.7133   26.1880 F   0  0  0  0  0  0  0  0  0  0  0  0
    7.3876   -2.8487   26.7691 C   0  0  0  0  0  0  0  0  0  0  0  0
    8.4744   -2.0701   26.3925 C   0  0  0  0  0  0  0  0  0  0  0  0
    9.4736   -1.8973   27.2651 F   0  0  0  0  0  0  0  0  0  0  0  0
    8.5863   -1.4903   25.1372 C   0  0  0  0  0  0  0  0  0  0  0  0
    9.4556   -0.8930   24.8932 H   0  0  0  0  0  0  0  0  0  0  0  0
    7.3533   -3.3673   27.7159 H   0  0  0  0  0  0  0  0  0  0  0  0
    5.5429   -2.4732   23.9173 H   0  0  0  0  0  0  0  0  0  0  0  0
   10.3983   -2.9035   21.5802 H   0  0  0  0  0  0  0  0  0  0  0  0
   10.3638   -2.2671   23.1962 H   0  0  0  0  0  0  0  0  0  0  0  0
   10.1400   -4.2859   25.0946 H   0  0  0  0  0  0  0  0  0  0  0  0
    8.3875   -5.0624   20.3743 H   0  0  0  0  0  0  0  0  0  0  0  0
    7.0030   -4.1746   21.0269 H   0  0  0  0  0  0  0  0  0  0  0  0
    7.0185   -5.9460   21.0855 H   0  0  0  0  0  0  0  0  0  0  0  0
  1  2  1  0
  2  3  2  0
  3  4  1  0
  4  5  1  0
  5  6  2  0
  6  7  1  0
  7  8  1  0
  8  9  2  0
  9 10  1  0
 10 11  1  0
 11 12  2  0
 12 13  1  0
 13 14  2  0
 14 15  1  0
 15 16  2  0
 16 17  1  0
 14 18  1  0
 13 19  1  0
 12 20  1  0
 10 21  2  0
 21 22  1  0
 22 23  1  0
 23 24  2  0
 24 25  1  0
 25 26  1  0
 25 27  2  0
 27 28  1  0
 28 29  1  0
 28 30  2  0
 30 31  1  0
 27 32  1  0
 24 33  1  0
  7 34  1  0
  7 35  1  0
  5 36  1  0
  1 37  1  0
  1 38  1  0
  1 39  1  0
  6  2  1  0
 22  8  1  0
 30 23  1  0
 16 11  1  0
M  END
>  <cnnaffinity>  (1) 
-6.27202

>  <filename>  (1) 
Cc1nocc1Cc1nc(-c2cccnc2)nn1-c1cc(F)cc(F)c1

$$$$
