
     RDKit          3D

 45 48  0  0  0  0  0  0  0  0999 V2000
    3.4710    0.7170   26.1041 C   0  0  0  0  0  0  0  0  0  0  0  0
    4.4656    1.1444   25.0710 C   0  0  0  0  0  0  0  0  0  0  0  0
    4.3048    2.1996   24.3364 N   0  0  0  0  0  0  0  0  0  0  0  0
    5.3813    2.3982   23.4974 C   0  0  0  0  0  0  0  0  0  0  0  0
    5.4293    3.6158   22.6314 C   0  0  0  0  0  0  0  0  0  0  0  0
    5.2790    3.3512   21.5779 H   0  0  0  0  0  0  0  0  0  0  0  0
    4.6525    4.3168   22.9383 H   0  0  0  0  0  0  0  0  0  0  0  0
    6.4048    4.1101   22.7066 H   0  0  0  0  0  0  0  0  0  0  0  0
    6.3455    1.4394   23.5428 C   0  0  0  0  0  0  0  0  0  0  0  0
    7.6021    1.2991   22.7021 C   0  0  0  0  0  0  0  0  0  0  0  0
    7.8071   -0.0797   22.1423 C   0  0  0  0  0  0  0  0  0  0  0  0
    8.4078   -1.0427   22.8086 N   0  0  0  0  0  0  0  0  0  0  0  0
    8.2294   -2.1303   22.0159 C   0  0  0  0  0  0  0  0  0  0  0  0
    8.6939   -3.5002   22.4228 C   0  0  0  0  0  0  0  0  0  0  0  0
    8.6919   -3.7954   23.9377 C   0  0  0  0  0  0  0  0  0  0  0  0
    8.6072   -5.3334   24.0800 C   0  0  0  0  0  0  0  0  0  0  0  0
    8.2559   -5.8883   22.6815 C   0  0  0  0  0  0  0  0  0  0  0  0
    7.8622   -4.6658   21.8459 C   0  0  0  0  0  0  0  0  0  0  0  0
    8.0107   -4.8169   20.7739 H   0  0  0  0  0  0  0  0  0  0  0  0
    6.7975   -4.4315   21.9908 H   0  0  0  0  0  0  0  0  0  0  0  0
    7.4479   -6.6293   22.7044 H   0  0  0  0  0  0  0  0  0  0  0  0
    9.1239   -6.3920   22.2421 H   0  0  0  0  0  0  0  0  0  0  0  0
    7.8439   -5.6003   24.8172 H   0  0  0  0  0  0  0  0  0  0  0  0
    9.5438   -5.7658   24.4472 H   0  0  0  0  0  0  0  0  0  0  0  0
    7.8039   -3.3310   24.3795 H   0  0  0  0  0  0  0  0  0  0  0  0
    9.5768   -3.3918   24.4416 H   0  0  0  0  0  0  0  0  0  0  0  0
    9.7388   -3.5118   22.1090 H   0  0  0  0  0  0  0  0  0  0  0  0
    7.6469   -1.8765   20.8567 N   0  0  0  0  0  0  0  0  0  0  0  0
    7.3334   -0.5571   20.9537 N   0  0  0  0  0  0  0  0  0  0  0  0
    6.6184    0.0782   19.8981 C   0  0  0  0  0  0  0  0  0  0  0  0
    5.4325    0.7836   20.1252 C   0  0  0  0  0  0  0  0  0  0  0  0
    4.8111    1.4068   19.0366 C   0  0  0  0  0  0  0  0  0  0  0  0
    5.4099    1.3295   17.7750 C   0  0  0  0  0  0  0  0  0  0  0  0
    6.5302    0.6242   17.5444 N   0  0  0  0  0  0  0  0  0  0  0  0
    7.0993   -0.0073   18.5767 C   0  0  0  0  0  0  0  0  0  0  0  0
    7.9795   -0.6042   18.3546 H   0  0  0  0  0  0  0  0  0  0  0  0
    4.9692    1.8405   16.9187 H   0  0  0  0  0  0  0  0  0  0  0  0
    3.8741    1.9404   19.1489 H   0  0  0  0  0  0  0  0  0  0  0  0
    5.0015    0.8356   21.1280 H   0  0  0  0  0  0  0  0  0  0  0  0
    7.5981    2.0453   21.9009 H   0  0  0  0  0  0  0  0  0  0  0  0
    8.4814    1.5203   23.3185 H   0  0  0  0  0  0  0  0  0  0  0  0
    5.9418    0.2775   24.7645 S   0  0  0  0  0  0  0  0  0  0  0  0
    2.9701    1.6083   26.4908 H   0  0  0  0  0  0  0  0  0  0  0  0
    2.7037    0.0777   25.6513 H   0  0  0  0  0  0  0  0  0  0  0  0
    3.9425    0.1704   26.9252 H   0  0  0  0  0  0  0  0  0  0  0  0
  1  2  1  0
  2  3  2  0
  3  4  1  0
  4  5  1  0
  5  6  1  0
  5  7  1  0
  5  8  1  0
  4  9  2  0
  9 10  1  0
 10 11  1  0
 11 12  2  0
 12 13  1  0
 13 14  1  0
 14 15  1  0
 15 16  1  0
 16 17  1  0
 17 18  1  0
 18 19  1  0
 18 20  1  0
 17 21  1  0
 17 22  1  0
 16 23  1  0
 16 24  1  0
 15 25  1  0
 15 26  1  0
 14 27  1  0
 13 28  2  0
 28 29  1  0
 29 30  1  0
 30 31  2  0
 31 32  1  0
 32 33  2  0
 33 34  1  0
 34 35  2  0
 35 36  1  0
 33 37  1  0
 32 38  1  0
 31 39  1  0
 10 40  1  0
 10 41  1  0
  9 42  1  0
  1 43  1  0
  1 44  1  0
  1 45  1  0
 42  2  1  0
 29 11  1  0
 35 30  1  0
 18 14  1  0
M  END
>  <cnnaffinity>  (1) 
-5.93551

>  <filename>  (1) 
Cc1nc(C)c(Cc2nc(C3CCCC3)nn2-c2cccnc2)s1

$$$$
