
     RDKit          3D

 43 46  0  0  0  0  0  0  0  0999 V2000
   12.2445   -1.2648   21.2009 C   0  0  0  0  0  0  0  0  0  0  0  0
   11.9208    0.0221   21.9092 C   0  0  0  0  0  0  0  0  0  0  0  0
   12.7991    0.4333   22.8348 N   0  0  0  0  0  0  0  0  0  0  0  0
   12.5202    1.5278   23.5555 C   0  0  0  0  0  0  0  0  0  0  0  0
   11.3568    2.2785   23.3844 C   0  0  0  0  0  0  0  0  0  0  0  0
   10.4470    1.8620   22.4041 C   0  0  0  0  0  0  0  0  0  0  0  0
   10.7258    0.7321   21.6364 C   0  0  0  0  0  0  0  0  0  0  0  0
    9.6708    0.2172   20.6783 C   0  0  0  0  0  0  0  0  0  0  0  0
    8.6325   -0.6305   21.3373 C   0  0  0  0  0  0  0  0  0  0  0  0
    8.8461   -1.5081   22.2948 N   0  0  0  0  0  0  0  0  0  0  0  0
    7.6089   -2.0285   22.5118 C   0  0  0  0  0  0  0  0  0  0  0  0
    7.3869   -2.9293   23.6941 C   0  0  0  0  0  0  0  0  0  0  0  0
    6.9116   -2.1631   24.9663 C   0  0  0  0  0  0  0  0  0  0  0  0
    5.9901   -3.1813   25.6567 C   0  0  0  0  0  0  0  0  0  0  0  0
    5.4560   -4.0144   24.4839 C   0  0  0  0  0  0  0  0  0  0  0  0
    6.4218   -3.9373   23.4430 O   0  0  0  0  0  0  0  0  0  0  0  0
    4.4924   -3.6389   24.1125 H   0  0  0  0  0  0  0  0  0  0  0  0
    5.3227   -5.0754   24.7224 H   0  0  0  0  0  0  0  0  0  0  0  0
    5.1827   -2.7126   26.2328 H   0  0  0  0  0  0  0  0  0  0  0  0
    6.5530   -3.8154   26.3514 H   0  0  0  0  0  0  0  0  0  0  0  0
    6.3585   -1.2581   24.6756 H   0  0  0  0  0  0  0  0  0  0  0  0
    7.7581   -1.8310   25.5820 H   0  0  0  0  0  0  0  0  0  0  0  0
    8.3690   -3.3977   23.8540 H   0  0  0  0  0  0  0  0  0  0  0  0
    6.6579   -1.5577   21.7296 N   0  0  0  0  0  0  0  0  0  0  0  0
    7.3252   -0.6720   20.9501 N   0  0  0  0  0  0  0  0  0  0  0  0
    6.6562    0.0076   19.8966 C   0  0  0  0  0  0  0  0  0  0  0  0
    5.4378    0.6431   20.1512 C   0  0  0  0  0  0  0  0  0  0  0  0
    4.8019    1.3126   19.1020 C   0  0  0  0  0  0  0  0  0  0  0  0
    5.3955    1.2970   17.8320 C   0  0  0  0  0  0  0  0  0  0  0  0
    6.5479    0.6620   17.5717 N   0  0  0  0  0  0  0  0  0  0  0  0
    7.1616    0.0403   18.5835 C   0  0  0  0  0  0  0  0  0  0  0  0
    8.1035   -0.4481   18.3394 H   0  0  0  0  0  0  0  0  0  0  0  0
    4.9323    1.8117   16.9925 H   0  0  0  0  0  0  0  0  0  0  0  0
    3.8681    1.8492   19.2512 H   0  0  0  0  0  0  0  0  0  0  0  0
    5.0175    0.5957   21.1546 H   0  0  0  0  0  0  0  0  0  0  0  0
   10.0867   -0.4271   19.8943 H   0  0  0  0  0  0  0  0  0  0  0  0
    9.1773    1.0662   20.2012 H   0  0  0  0  0  0  0  0  0  0  0  0
    9.5034    2.3873   22.2505 H   0  0  0  0  0  0  0  0  0  0  0  0
   11.1670    3.1382   24.0155 H   0  0  0  0  0  0  0  0  0  0  0  0
   13.2608    1.8019   24.3083 H   0  0  0  0  0  0  0  0  0  0  0  0
   11.4043   -1.9597   21.3291 H   0  0  0  0  0  0  0  0  0  0  0  0
   12.4130   -1.1038   20.1293 H   0  0  0  0  0  0  0  0  0  0  0  0
   13.1539   -1.7013   21.6206 H   0  0  0  0  0  0  0  0  0  0  0  0
  1  2  1  0
  2  3  2  0
  3  4  1  0
  4  5  2  0
  5  6  1  0
  6  7  2  0
  7  8  1  0
  8  9  1  0
  9 10  2  0
 10 11  1  0
 11 12  1  0
 12 13  1  0
 13 14  1  0
 14 15  1  0
 15 16  1  0
 15 17  1  0
 15 18  1  0
 14 19  1  0
 14 20  1  0
 13 21  1  0
 13 22  1  0
 12 23  1  0
 11 24  2  0
 24 25  1  0
 25 26  1  0
 26 27  2  0
 27 28  1  0
 28 29  2  0
 29 30  1  0
 30 31  2  0
 31 32  1  0
 29 33  1  0
 28 34  1  0
 27 35  1  0
  8 36  1  0
  8 37  1  0
  6 38  1  0
  5 39  1  0
  4 40  1  0
  1 41  1  0
  1 42  1  0
  1 43  1  0
  7  2  1  0
 25  9  1  0
 31 26  1  0
 16 12  1  0
M  END
>  <cnnaffinity>  (1) 
-6.28693

>  <filename>  (1) 
Cc1ncccc1Cc1nc(C2CCCO2)nn1-c1cccnc1

$$$$
