
     RDKit          3D

 44 47  0  0  0  0  0  0  0  0999 V2000
   12.0833    0.4551   22.9890 C   0  0  0  0  0  0  0  0  0  0  0  0
   10.9926    1.4680   22.9280 C   0  0  0  0  0  0  0  0  0  0  0  0
   10.8354    2.4317   23.8232 N   0  0  0  0  0  0  0  0  0  0  0  0
    9.6726    3.0232   23.4734 N   0  0  0  0  0  0  0  0  0  0  0  0
    9.0832    2.4667   22.3813 C   0  0  0  0  0  0  0  0  0  0  0  0
    7.7377    2.8575   21.8425 C   0  0  0  0  0  0  0  0  0  0  0  0
    7.5347    3.9330   21.9086 H   0  0  0  0  0  0  0  0  0  0  0  0
    6.9424    2.3100   22.3636 H   0  0  0  0  0  0  0  0  0  0  0  0
    7.6752    2.5558   20.7921 H   0  0  0  0  0  0  0  0  0  0  0  0
    9.9344    1.4611   21.9835 C   0  0  0  0  0  0  0  0  0  0  0  0
    9.6508    0.4143   20.9338 C   0  0  0  0  0  0  0  0  0  0  0  0
    8.6120   -0.5714   21.3742 C   0  0  0  0  0  0  0  0  0  0  0  0
    8.8100   -1.4339   22.3518 N   0  0  0  0  0  0  0  0  0  0  0  0
    7.6020   -2.0446   22.4924 C   0  0  0  0  0  0  0  0  0  0  0  0
    7.4432   -3.1533   23.5122 C   0  0  0  0  0  0  0  0  0  0  0  0
    7.4881   -4.5694   22.8829 C   0  0  0  0  0  0  0  0  0  0  0  0
    5.9996   -4.8964   22.7244 C   0  0  0  0  0  0  0  0  0  0  0  0
    5.3630   -4.1848   23.9190 C   0  0  0  0  0  0  0  0  0  0  0  0
    6.2307   -3.1068   24.2505 O   0  0  0  0  0  0  0  0  0  0  0  0
    5.2671   -4.8421   24.7952 H   0  0  0  0  0  0  0  0  0  0  0  0
    4.3760   -3.7636   23.6923 H   0  0  0  0  0  0  0  0  0  0  0  0
    5.7894   -5.9693   22.7211 H   0  0  0  0  0  0  0  0  0  0  0  0
    5.6221   -4.4609   21.7941 H   0  0  0  0  0  0  0  0  0  0  0  0
    8.0405   -4.5866   21.9376 H   0  0  0  0  0  0  0  0  0  0  0  0
    7.9842   -5.2614   23.5754 H   0  0  0  0  0  0  0  0  0  0  0  0
    8.2655   -2.9833   24.2105 H   0  0  0  0  0  0  0  0  0  0  0  0
    6.6853   -1.6522   21.6271 N   0  0  0  0  0  0  0  0  0  0  0  0
    7.3358   -0.7011   20.8995 N   0  0  0  0  0  0  0  0  0  0  0  0
    6.6508   -0.0128   19.8599 C   0  0  0  0  0  0  0  0  0  0  0  0
    5.4325    0.6199   20.1298 C   0  0  0  0  0  0  0  0  0  0  0  0
    4.8017    1.3091   19.0910 C   0  0  0  0  0  0  0  0  0  0  0  0
    5.3940    1.3120   17.8238 C   0  0  0  0  0  0  0  0  0  0  0  0
    6.5400    0.6712   17.5454 N   0  0  0  0  0  0  0  0  0  0  0  0
    7.1558    0.0306   18.5487 C   0  0  0  0  0  0  0  0  0  0  0  0
    8.0857   -0.4834   18.2994 H   0  0  0  0  0  0  0  0  0  0  0  0
    4.9261    1.8479   17.0022 H   0  0  0  0  0  0  0  0  0  0  0  0
    3.8746    1.8462   19.2567 H   0  0  0  0  0  0  0  0  0  0  0  0
    5.0065    0.5520   21.1319 H   0  0  0  0  0  0  0  0  0  0  0  0
    9.3498    0.8788   19.9946 H   0  0  0  0  0  0  0  0  0  0  0  0
   10.5620   -0.1516   20.7157 H   0  0  0  0  0  0  0  0  0  0  0  0
    9.3628    3.8106   24.0148 H   0  0  0  0  0  0  0  0  0  0  0  0
   12.6744    0.4278   22.0693 H   0  0  0  0  0  0  0  0  0  0  0  0
   12.7583    0.6359   23.8216 H   0  0  0  0  0  0  0  0  0  0  0  0
   11.6357   -0.5361   23.1160 H   0  0  0  0  0  0  0  0  0  0  0  0
  1  2  1  0
  2  3  2  0
  3  4  1  0
  4  5  1  0
  5  6  1  0
  6  7  1  0
  6  8  1  0
  6  9  1  0
  5 10  2  0
 10 11  1  0
 11 12  1  0
 12 13  2  0
 13 14  1  0
 14 15  1  0
 15 16  1  0
 16 17  1  0
 17 18  1  0
 18 19  1  0
 18 20  1  0
 18 21  1  0
 17 22  1  0
 17 23  1  0
 16 24  1  0
 16 25  1  0
 15 26  1  0
 14 27  2  0
 27 28  1  0
 28 29  1  0
 29 30  2  0
 30 31  1  0
 31 32  2  0
 32 33  1  0
 33 34  2  0
 34 35  1  0
 32 36  1  0
 31 37  1  0
 30 38  1  0
 11 39  1  0
 11 40  1  0
  4 41  1  0
  1 42  1  0
  1 43  1  0
  1 44  1  0
 10  2  1  0
 28 12  1  0
 34 29  1  0
 19 15  1  0
M  END
>  <cnnaffinity>  (1) 
-5.94372

>  <filename>  (1) 
Cc1n[nH]c(C)c1Cc1nc(C2CCCO2)nn1-c1cccnc1

$$$$
