
     RDKit          3D

 42 45  0  0  0  0  0  0  0  0999 V2000
   11.1858   -1.5522   21.7218 C   0  0  0  0  0  0  0  0  0  0  0  0
   11.7951   -0.2008   21.8603 C   0  0  0  0  0  0  0  0  0  0  0  0
   12.9824   -0.0684   22.3927 N   0  0  0  0  0  0  0  0  0  0  0  0
   13.2353    1.2859   22.4374 O   0  0  0  0  0  0  0  0  0  0  0  0
   12.1849    1.9324   21.9235 C   0  0  0  0  0  0  0  0  0  0  0  0
   11.2198    1.0680   21.5211 C   0  0  0  0  0  0  0  0  0  0  0  0
    9.8169    1.3853   21.0360 C   0  0  0  0  0  0  0  0  0  0  0  0
    8.7647    1.1684   22.0775 C   0  0  0  0  0  0  0  0  0  0  0  0
    8.7122    1.8881   23.1768 N   0  0  0  0  0  0  0  0  0  0  0  0
    7.6638    1.3543   23.8526 C   0  0  0  0  0  0  0  0  0  0  0  0
    7.2291    1.8805   25.1574 C   0  0  0  0  0  0  0  0  0  0  0  0
    6.0930    1.3597   25.8034 C   0  0  0  0  0  0  0  0  0  0  0  0
    5.7027    1.8558   27.0451 C   0  0  0  0  0  0  0  0  0  0  0  0
    6.4488    2.8775   27.6403 C   0  0  0  0  0  0  0  0  0  0  0  0
    5.9638    3.4962   29.1896 Cl  0  0  0  0  0  0  0  0  0  0  0  0
    7.5775    3.4127   27.0131 C   0  0  0  0  0  0  0  0  0  0  0  0
    7.9638    2.9109   25.7734 C   0  0  0  0  0  0  0  0  0  0  0  0
    8.8431    3.3038   25.2675 H   0  0  0  0  0  0  0  0  0  0  0  0
    8.1401    4.2071   27.4916 H   0  0  0  0  0  0  0  0  0  0  0  0
    4.8320    1.4553   27.5531 H   0  0  0  0  0  0  0  0  0  0  0  0
    5.5323    0.5586   25.3256 H   0  0  0  0  0  0  0  0  0  0  0  0
    7.0742    0.3496   23.2227 N   0  0  0  0  0  0  0  0  0  0  0  0
    7.7958    0.2238   22.0861 N   0  0  0  0  0  0  0  0  0  0  0  0
    7.3668   -0.6970   21.0289 C   0  0  0  0  0  0  0  0  0  0  0  0
    6.6475   -0.0073   19.8785 C   0  0  0  0  0  0  0  0  0  0  0  0
    5.4353    0.6537   20.1242 C   0  0  0  0  0  0  0  0  0  0  0  0
    4.8025    1.3135   19.0699 C   0  0  0  0  0  0  0  0  0  0  0  0
    5.4064    1.2971   17.8106 C   0  0  0  0  0  0  0  0  0  0  0  0
    6.5553    0.6580   17.5482 N   0  0  0  0  0  0  0  0  0  0  0  0
    7.1519    0.0253   18.5678 C   0  0  0  0  0  0  0  0  0  0  0  0
    8.0912   -0.4744   18.3166 H   0  0  0  0  0  0  0  0  0  0  0  0
    4.9462    1.8214   16.9762 H   0  0  0  0  0  0  0  0  0  0  0  0
    3.8697    1.8479   19.2111 H   0  0  0  0  0  0  0  0  0  0  0  0
    5.0130    0.6711   21.1318 H   0  0  0  0  0  0  0  0  0  0  0  0
    8.2419   -1.2615   20.6845 H   0  0  0  0  0  0  0  0  0  0  0  0
    6.7033   -1.4148   21.5227 H   0  0  0  0  0  0  0  0  0  0  0  0
    9.7550    2.4479   20.7786 H   0  0  0  0  0  0  0  0  0  0  0  0
    9.5565    0.8176   20.1376 H   0  0  0  0  0  0  0  0  0  0  0  0
   12.2444    3.0110   21.9051 H   0  0  0  0  0  0  0  0  0  0  0  0
   10.6275   -1.6251   20.7875 H   0  0  0  0  0  0  0  0  0  0  0  0
   10.4988   -1.7335   22.5541 H   0  0  0  0  0  0  0  0  0  0  0  0
   11.9465   -2.3332   21.7334 H   0  0  0  0  0  0  0  0  0  0  0  0
  1  2  1  0
  2  3  2  0
  3  4  1  0
  4  5  1  0
  5  6  2  0
  6  7  1  0
  7  8  1  0
  8  9  2  0
  9 10  1  0
 10 11  1  0
 11 12  2  0
 12 13  1  0
 13 14  2  0
 14 15  1  0
 14 16  1  0
 16 17  2  0
 17 18  1  0
 16 19  1  0
 13 20  1  0
 12 21  1  0
 10 22  2  0
 22 23  1  0
 23 24  1  0
 24 25  1  0
 25 26  2  0
 26 27  1  0
 27 28  2  0
 28 29  1  0
 29 30  2  0
 30 31  1  0
 28 32  1  0
 27 33  1  0
 26 34  1  0
 24 35  1  0
 24 36  1  0
  7 37  1  0
  7 38  1  0
  5 39  1  0
  1 40  1  0
  1 41  1  0
  1 42  1  0
  6  2  1  0
 23  8  1  0
 30 25  1  0
 17 11  1  0
M  END
>  <cnnaffinity>  (1) 
-5.94001

>  <filename>  (1) 
Cc1nocc1Cc1nc(-c2ccc(Cl)cc2)nn1Cc1cccnc1

$$$$
