
     RDKit          3D

 43 46  0  0  0  0  0  0  0  0999 V2000
    5.1977   -1.0427   26.6143 C   0  0  0  0  0  0  0  0  0  0  0  0
    5.9157    0.0301   25.8694 C   0  0  0  0  0  0  0  0  0  0  0  0
    5.7401    0.3534   24.6118 N   0  0  0  0  0  0  0  0  0  0  0  0
    6.6492    1.3416   24.3411 C   0  0  0  0  0  0  0  0  0  0  0  0
    6.8145    1.8254   22.9373 C   0  0  0  0  0  0  0  0  0  0  0  0
    7.8351    0.9534   22.2924 C   0  0  0  0  0  0  0  0  0  0  0  0
    9.1184    1.1190   22.4924 N   0  0  0  0  0  0  0  0  0  0  0  0
    9.6632   -0.0291   22.0027 C   0  0  0  0  0  0  0  0  0  0  0  0
   11.1212   -0.2757   22.1016 C   0  0  0  0  0  0  0  0  0  0  0  0
   11.7587   -1.3018   21.3774 C   0  0  0  0  0  0  0  0  0  0  0  0
   13.1445   -1.3925   21.4446 C   0  0  0  0  0  0  0  0  0  0  0  0
   13.7785   -2.2655   20.6525 F   0  0  0  0  0  0  0  0  0  0  0  0
   13.9088   -0.5840   22.2759 C   0  0  0  0  0  0  0  0  0  0  0  0
   13.2461    0.3896   23.0123 C   0  0  0  0  0  0  0  0  0  0  0  0
   13.9482    1.1981   23.8141 F   0  0  0  0  0  0  0  0  0  0  0  0
   11.8782    0.5714   22.9321 C   0  0  0  0  0  0  0  0  0  0  0  0
   11.4074    1.3796   23.4865 H   0  0  0  0  0  0  0  0  0  0  0  0
   14.9731   -0.7161   22.3459 H   0  0  0  0  0  0  0  0  0  0  0  0
   11.2080   -2.0276   20.7954 H   0  0  0  0  0  0  0  0  0  0  0  0
    8.7801   -0.8719   21.4956 N   0  0  0  0  0  0  0  0  0  0  0  0
    7.6032   -0.2313   21.6961 N   0  0  0  0  0  0  0  0  0  0  0  0
    6.3571   -0.7265   21.1236 C   0  0  0  0  0  0  0  0  0  0  0  0
    5.9435    0.0162   19.8675 C   0  0  0  0  0  0  0  0  0  0  0  0
    4.7605    0.7552   19.7557 C   0  0  0  0  0  0  0  0  0  0  0  0
    4.5272    1.4810   18.5827 C   0  0  0  0  0  0  0  0  0  0  0  0
    5.4742    1.4217   17.5577 C   0  0  0  0  0  0  0  0  0  0  0  0
    6.5866    0.6753   17.6214 N   0  0  0  0  0  0  0  0  0  0  0  0
    6.8007   -0.0066   18.7528 C   0  0  0  0  0  0  0  0  0  0  0  0
    7.7004   -0.6185   18.7785 H   0  0  0  0  0  0  0  0  0  0  0  0
    5.3234    1.9754   16.6326 H   0  0  0  0  0  0  0  0  0  0  0  0
    3.6455    2.1007   18.4588 H   0  0  0  0  0  0  0  0  0  0  0  0
    4.0247    0.7590   20.5630 H   0  0  0  0  0  0  0  0  0  0  0  0
    6.5068   -1.7926   20.9325 H   0  0  0  0  0  0  0  0  0  0  0  0
    5.6033   -0.6282   21.9055 H   0  0  0  0  0  0  0  0  0  0  0  0
    7.1918    2.8487   22.9161 H   0  0  0  0  0  0  0  0  0  0  0  0
    5.8587    1.7719   22.4125 H   0  0  0  0  0  0  0  0  0  0  0  0
    7.4007    1.6128   25.4440 C   0  0  0  0  0  0  0  0  0  0  0  0
    6.9173    0.7681   26.4248 N   0  0  0  0  0  0  0  0  0  0  0  0
    7.2853    0.6149   27.3508 H   0  0  0  0  0  0  0  0  0  0  0  0
    8.2455    2.2755   25.5711 H   0  0  0  0  0  0  0  0  0  0  0  0
    4.7659   -0.6676   27.5478 H   0  0  0  0  0  0  0  0  0  0  0  0
    5.8843   -1.8623   26.8577 H   0  0  0  0  0  0  0  0  0  0  0  0
    4.3960   -1.4368   25.9867 H   0  0  0  0  0  0  0  0  0  0  0  0
  1  2  1  0
  2  3  2  0
  3  4  1  0
  4  5  1  0
  5  6  1  0
  6  7  2  0
  7  8  1  0
  8  9  1  0
  9 10  2  0
 10 11  1  0
 11 12  1  0
 11 13  2  0
 13 14  1  0
 14 15  1  0
 14 16  2  0
 16 17  1  0
 13 18  1  0
 10 19  1  0
  8 20  2  0
 20 21  1  0
 21 22  1  0
 22 23  1  0
 23 24  2  0
 24 25  1  0
 25 26  2  0
 26 27  1  0
 27 28  2  0
 28 29  1  0
 26 30  1  0
 25 31  1  0
 24 32  1  0
 22 33  1  0
 22 34  1  0
  5 35  1  0
  5 36  1  0
  4 37  2  0
 37 38  1  0
 38 39  1  0
 37 40  1  0
  1 41  1  0
  1 42  1  0
  1 43  1  0
 38  2  1  0
 21  6  1  0
 28 23  1  0
 16  9  1  0
M  END
>  <cnnaffinity>  (1) 
-6.59208

>  <filename>  (1) 
Cc1nc(Cc2nc(-c3cc(F)cc(F)c3)nn2Cc2cccnc2)c[nH]1

$$$$
