
     RDKit          3D

 48 51  0  0  0  0  0  0  0  0999 V2000
   11.2015   -1.5210   21.6577 C   0  0  0  0  0  0  0  0  0  0  0  0
   11.8114   -0.1682   21.8615 C   0  0  0  0  0  0  0  0  0  0  0  0
   13.0099   -0.0129   22.4197 N   0  0  0  0  0  0  0  0  0  0  0  0
   13.1651    1.3219   22.5156 N   0  0  0  0  0  0  0  0  0  0  0  0
   12.1154    2.0255   22.0330 C   0  0  0  0  0  0  0  0  0  0  0  0
   11.9859    3.5096   22.0947 C   0  0  0  0  0  0  0  0  0  0  0  0
   11.0564    3.7457   22.6284 H   0  0  0  0  0  0  0  0  0  0  0  0
   12.8285    3.9865   22.6069 H   0  0  0  0  0  0  0  0  0  0  0  0
   11.9062    3.9274   21.0856 H   0  0  0  0  0  0  0  0  0  0  0  0
   11.2191    1.0890   21.5706 C   0  0  0  0  0  0  0  0  0  0  0  0
    9.8249    1.3973   21.0720 C   0  0  0  0  0  0  0  0  0  0  0  0
    8.7720    1.1837   22.1085 C   0  0  0  0  0  0  0  0  0  0  0  0
    8.7118    1.8903   23.2155 N   0  0  0  0  0  0  0  0  0  0  0  0
    7.6608    1.3449   23.8807 C   0  0  0  0  0  0  0  0  0  0  0  0
    7.2236    1.8520   25.1806 C   0  0  0  0  0  0  0  0  0  0  0  0
    7.9457    2.8885   25.8043 C   0  0  0  0  0  0  0  0  0  0  0  0
    7.5554    3.3737   27.0427 C   0  0  0  0  0  0  0  0  0  0  0  0
    6.4286    2.8266   27.6799 C   0  0  0  0  0  0  0  0  0  0  0  0
    6.0218    3.3061   28.8865 N   0  0  0  0  0  0  0  0  0  0  0  0
    6.5480    4.0133   29.3575 H   0  0  0  0  0  0  0  0  0  0  0  0
    5.2532    2.8738   29.3586 H   0  0  0  0  0  0  0  0  0  0  0  0
    5.7021    1.7921   27.0640 C   0  0  0  0  0  0  0  0  0  0  0  0
    6.0926    1.3115   25.8240 C   0  0  0  0  0  0  0  0  0  0  0  0
    5.5348    0.5078   25.3463 H   0  0  0  0  0  0  0  0  0  0  0  0
    4.8399    1.3850   27.5821 H   0  0  0  0  0  0  0  0  0  0  0  0
    8.1015    4.1708   27.5365 H   0  0  0  0  0  0  0  0  0  0  0  0
    8.8201    3.3008   25.3054 H   0  0  0  0  0  0  0  0  0  0  0  0
    7.0733    0.3495   23.2356 N   0  0  0  0  0  0  0  0  0  0  0  0
    7.7960    0.2441   22.0990 N   0  0  0  0  0  0  0  0  0  0  0  0
    7.3777   -0.6790   21.0424 C   0  0  0  0  0  0  0  0  0  0  0  0
    6.6586    0.0036   19.8879 C   0  0  0  0  0  0  0  0  0  0  0  0
    5.4416    0.6593   20.1299 C   0  0  0  0  0  0  0  0  0  0  0  0
    4.8067    1.3116   19.0731 C   0  0  0  0  0  0  0  0  0  0  0  0
    5.4104    1.2938   17.8137 C   0  0  0  0  0  0  0  0  0  0  0  0
    6.5603    0.6549   17.5522 N   0  0  0  0  0  0  0  0  0  0  0  0
    7.1593    0.0300   18.5753 C   0  0  0  0  0  0  0  0  0  0  0  0
    8.0939   -0.4772   18.3218 H   0  0  0  0  0  0  0  0  0  0  0  0
    4.9492    1.8159   16.9787 H   0  0  0  0  0  0  0  0  0  0  0  0
    3.8710    1.8428   19.2119 H   0  0  0  0  0  0  0  0  0  0  0  0
    5.0125    0.6718   21.1342 H   0  0  0  0  0  0  0  0  0  0  0  0
    8.2556   -1.2406   20.7017 H   0  0  0  0  0  0  0  0  0  0  0  0
    6.7145   -1.4003   21.5325 H   0  0  0  0  0  0  0  0  0  0  0  0
    9.7589    2.4572   20.7871 H   0  0  0  0  0  0  0  0  0  0  0  0
    9.5776    0.8125   20.1844 H   0  0  0  0  0  0  0  0  0  0  0  0
   14.0340    1.6906   22.8716 H   0  0  0  0  0  0  0  0  0  0  0  0
   10.5521   -1.5406   20.7766 H   0  0  0  0  0  0  0  0  0  0  0  0
   11.9640   -2.2879   21.5372 H   0  0  0  0  0  0  0  0  0  0  0  0
   10.5756   -1.7834   22.5181 H   0  0  0  0  0  0  0  0  0  0  0  0
  1  2  1  0
  2  3  2  0
  3  4  1  0
  4  5  1  0
  5  6  1  0
  6  7  1  0
  6  8  1  0
  6  9  1  0
  5 10  2  0
 10 11  1  0
 11 12  1  0
 12 13  2  0
 13 14  1  0
 14 15  1  0
 15 16  2  0
 16 17  1  0
 17 18  2  0
 18 19  1  0
 19 20  1  0
 19 21  1  0
 18 22  1  0
 22 23  2  0
 23 24  1  0
 22 25  1  0
 17 26  1  0
 16 27  1  0
 14 28  2  0
 28 29  1  0
 29 30  1  0
 30 31  1  0
 31 32  2  0
 32 33  1  0
 33 34  2  0
 34 35  1  0
 35 36  2  0
 36 37  1  0
 34 38  1  0
 33 39  1  0
 32 40  1  0
 30 41  1  0
 30 42  1  0
 11 43  1  0
 11 44  1  0
  4 45  1  0
  1 46  1  0
  1 47  1  0
  1 48  1  0
 10  2  1  0
 29 12  1  0
 36 31  1  0
 23 15  1  0
M  END
>  <cnnaffinity>  (1) 
-6.29742

>  <filename>  (1) 
Cc1n[nH]c(C)c1Cc1nc(-c2ccc(N)cc2)nn1Cc1cccnc1

$$$$
