
     RDKit          3D

 35 37  0  0  0  0  0  0  0  0999 V2000
    8.6688   -3.5384   22.2561 C   0  0  0  0  0  0  0  0  0  0  0  0
    8.1967   -2.1543   21.9872 C   0  0  0  0  0  0  0  0  0  0  0  0
    7.6974   -1.8364   20.8119 N   0  0  0  0  0  0  0  0  0  0  0  0
    7.3288   -0.5461   20.9773 N   0  0  0  0  0  0  0  0  0  0  0  0
    6.6399    0.0907   19.9205 C   0  0  0  0  0  0  0  0  0  0  0  0
    5.4102    0.7151   20.1399 C   0  0  0  0  0  0  0  0  0  0  0  0
    4.7908    1.3303   19.0503 C   0  0  0  0  0  0  0  0  0  0  0  0
    5.4196    1.2926   17.8013 C   0  0  0  0  0  0  0  0  0  0  0  0
    6.5648    0.6238   17.5723 N   0  0  0  0  0  0  0  0  0  0  0  0
    7.1497    0.0173   18.6096 C   0  0  0  0  0  0  0  0  0  0  0  0
    8.0498   -0.5602   18.3978 H   0  0  0  0  0  0  0  0  0  0  0  0
    4.9973    1.8259   16.9537 H   0  0  0  0  0  0  0  0  0  0  0  0
    3.8503    1.8522   19.1714 H   0  0  0  0  0  0  0  0  0  0  0  0
    4.9514    0.6746   21.1305 H   0  0  0  0  0  0  0  0  0  0  0  0
    7.6638   -0.1397   22.2454 C   0  0  0  0  0  0  0  0  0  0  0  0
    7.4689    1.2143   22.8423 C   0  0  0  0  0  0  0  0  0  0  0  0
    8.7767    1.7167   23.3935 C   0  0  0  0  0  0  0  0  0  0  0  0
    8.9277    1.6637   24.7179 N   0  0  0  0  0  0  0  0  0  0  0  0
   10.0963    2.0785   25.2279 C   0  0  0  0  0  0  0  0  0  0  0  0
   11.1335    2.5973   24.4535 C   0  0  0  0  0  0  0  0  0  0  0  0
   10.9692    2.6544   23.0701 C   0  0  0  0  0  0  0  0  0  0  0  0
    9.7878    2.1757   22.5124 C   0  0  0  0  0  0  0  0  0  0  0  0
    9.6313    2.1647   21.0233 C   0  0  0  0  0  0  0  0  0  0  0  0
    9.4493    1.1587   20.6306 H   0  0  0  0  0  0  0  0  0  0  0  0
   10.5266    2.5450   20.5264 H   0  0  0  0  0  0  0  0  0  0  0  0
    8.7940    2.7882   20.7000 H   0  0  0  0  0  0  0  0  0  0  0  0
   11.7354    3.0607   22.4061 H   0  0  0  0  0  0  0  0  0  0  0  0
   12.0402    2.9533   24.9129 H   0  0  0  0  0  0  0  0  0  0  0  0
   10.1972    1.9941   26.3049 H   0  0  0  0  0  0  0  0  0  0  0  0
    7.0648    1.9118   22.1074 H   0  0  0  0  0  0  0  0  0  0  0  0
    6.7643    1.1408   23.6695 H   0  0  0  0  0  0  0  0  0  0  0  0
    8.2173   -1.1401   22.8930 N   0  0  0  0  0  0  0  0  0  0  0  0
    9.6659   -3.5127   22.7012 H   0  0  0  0  0  0  0  0  0  0  0  0
    7.9744   -4.0344   22.9394 H   0  0  0  0  0  0  0  0  0  0  0  0
    8.6745   -4.0890   21.3149 H   0  0  0  0  0  0  0  0  0  0  0  0
  1  2  1  0
  2  3  2  0
  3  4  1  0
  4  5  1  0
  5  6  2  0
  6  7  1  0
  7  8  2  0
  8  9  1  0
  9 10  2  0
 10 11  1  0
  8 12  1  0
  7 13  1  0
  6 14  1  0
  4 15  1  0
 15 16  1  0
 16 17  1  0
 17 18  2  0
 18 19  1  0
 19 20  2  0
 20 21  1  0
 21 22  2  0
 22 23  1  0
 23 24  1  0
 23 25  1  0
 23 26  1  0
 21 27  1  0
 20 28  1  0
 19 29  1  0
 16 30  1  0
 16 31  1  0
 15 32  2  0
  1 33  1  0
  1 34  1  0
  1 35  1  0
 32  2  1  0
 10  5  1  0
 22 17  1  0
M  END
>  <cnnaffinity>  (1) 
-5.44716

>  <filename>  (1) 
Cc1nc(Cc2ncccc2C)n(-c2cccnc2)n1

$$$$
