
     RDKit          3D

 44 47  0  0  0  0  0  0  0  0999 V2000
    8.6066    2.7502   22.1213 C   0  0  0  0  0  0  0  0  0  0  0  0
    9.9475    2.1803   22.4727 C   0  0  0  0  0  0  0  0  0  0  0  0
   10.6048    2.7732   23.4721 N   0  0  0  0  0  0  0  0  0  0  0  0
   11.7681    2.2326   23.8189 C   0  0  0  0  0  0  0  0  0  0  0  0
   12.3355    1.1561   23.2897 N   0  0  0  0  0  0  0  0  0  0  0  0
   11.6528    0.5418   22.3202 C   0  0  0  0  0  0  0  0  0  0  0  0
   12.1802   -0.7888   21.8562 C   0  0  0  0  0  0  0  0  0  0  0  0
   13.1825   -0.9500   22.2643 H   0  0  0  0  0  0  0  0  0  0  0  0
   11.4896   -1.5639   22.2208 H   0  0  0  0  0  0  0  0  0  0  0  0
   12.2025   -0.8736   20.7589 H   0  0  0  0  0  0  0  0  0  0  0  0
   10.4556    1.0572   21.8084 C   0  0  0  0  0  0  0  0  0  0  0  0
    9.6256    0.2992   20.7812 C   0  0  0  0  0  0  0  0  0  0  0  0
    8.5907   -0.6122   21.3683 C   0  0  0  0  0  0  0  0  0  0  0  0
    8.8135   -1.4648   22.3424 N   0  0  0  0  0  0  0  0  0  0  0  0
    7.6039   -2.0459   22.5392 C   0  0  0  0  0  0  0  0  0  0  0  0
    7.3970   -3.0488   23.6003 C   0  0  0  0  0  0  0  0  0  0  0  0
    8.4616   -3.4373   24.4404 C   0  0  0  0  0  0  0  0  0  0  0  0
    8.2281   -4.3804   25.4385 C   0  0  0  0  0  0  0  0  0  0  0  0
    9.5354   -4.8665   26.4811 Cl  0  0  0  0  0  0  0  0  0  0  0  0
    6.9621   -4.9431   25.6196 C   0  0  0  0  0  0  0  0  0  0  0  0
    5.9077   -4.5457   24.7895 C   0  0  0  0  0  0  0  0  0  0  0  0
    6.1165   -3.6000   23.7857 C   0  0  0  0  0  0  0  0  0  0  0  0
    5.3049   -3.2642   23.1427 H   0  0  0  0  0  0  0  0  0  0  0  0
    4.9170   -4.9695   24.9238 H   0  0  0  0  0  0  0  0  0  0  0  0
    6.8208   -5.6766   26.4061 H   0  0  0  0  0  0  0  0  0  0  0  0
    9.4578   -3.0120   24.3346 H   0  0  0  0  0  0  0  0  0  0  0  0
    6.6545   -1.6187   21.7201 N   0  0  0  0  0  0  0  0  0  0  0  0
    7.2993   -0.7108   20.9497 N   0  0  0  0  0  0  0  0  0  0  0  0
    6.6268   -0.0282   19.8946 C   0  0  0  0  0  0  0  0  0  0  0  0
    5.4204    0.6274   20.1522 C   0  0  0  0  0  0  0  0  0  0  0  0
    4.8001    1.3099   19.1019 C   0  0  0  0  0  0  0  0  0  0  0  0
    5.3961    1.2964   17.8343 C   0  0  0  0  0  0  0  0  0  0  0  0
    6.5424    0.6507   17.5719 N   0  0  0  0  0  0  0  0  0  0  0  0
    7.1434    0.0147   18.5844 C   0  0  0  0  0  0  0  0  0  0  0  0
    8.0914   -0.4663   18.3458 H   0  0  0  0  0  0  0  0  0  0  0  0
    4.9372    1.8195   16.9978 H   0  0  0  0  0  0  0  0  0  0  0  0
    3.8732    1.8537   19.2543 H   0  0  0  0  0  0  0  0  0  0  0  0
    5.0028    0.5912   21.1584 H   0  0  0  0  0  0  0  0  0  0  0  0
   10.2502   -0.3776   20.1911 H   0  0  0  0  0  0  0  0  0  0  0  0
    9.1363    0.9948   20.0980 H   0  0  0  0  0  0  0  0  0  0  0  0
   12.2915    2.7015   24.6460 H   0  0  0  0  0  0  0  0  0  0  0  0
    7.8334    1.9770   22.1663 H   0  0  0  0  0  0  0  0  0  0  0  0
    8.6103    3.1530   21.1047 H   0  0  0  0  0  0  0  0  0  0  0  0
    8.3514    3.5468   22.8188 H   0  0  0  0  0  0  0  0  0  0  0  0
  1  2  1  0
  2  3  2  0
  3  4  1  0
  4  5  2  0
  5  6  1  0
  6  7  1  0
  7  8  1  0
  7  9  1  0
  7 10  1  0
  6 11  2  0
 11 12  1  0
 12 13  1  0
 13 14  2  0
 14 15  1  0
 15 16  1  0
 16 17  2  0
 17 18  1  0
 18 19  1  0
 18 20  2  0
 20 21  1  0
 21 22  2  0
 22 23  1  0
 21 24  1  0
 20 25  1  0
 17 26  1  0
 15 27  2  0
 27 28  1  0
 28 29  1  0
 29 30  2  0
 30 31  1  0
 31 32  2  0
 32 33  1  0
 33 34  2  0
 34 35  1  0
 32 36  1  0
 31 37  1  0
 30 38  1  0
 12 39  1  0
 12 40  1  0
  4 41  1  0
  1 42  1  0
  1 43  1  0
  1 44  1  0
 11  2  1  0
 28 13  1  0
 34 29  1  0
 22 16  1  0
M  END
>  <cnnaffinity>  (1) 
-6.60807

>  <filename>  (1) 
Cc1ncnc(C)c1Cc1nc(-c2cccc(Cl)c2)nn1-c1cccnc1

$$$$
