
     RDKit          3D

 50 53  0  0  0  0  0  0  0  0999 V2000
   11.7781    2.8518   23.9955 C   0  0  0  0  0  0  0  0  0  0  0  0
   11.6321    1.7947   22.9519 C   0  0  0  0  0  0  0  0  0  0  0  0
   10.5905    1.7552   22.1380 N   0  0  0  0  0  0  0  0  0  0  0  0
   10.7243    0.6084   21.4411 N   0  0  0  0  0  0  0  0  0  0  0  0
    9.6097    0.1895   20.6152 C   0  0  0  0  0  0  0  0  0  0  0  0
    8.5911   -0.6189   21.3522 C   0  0  0  0  0  0  0  0  0  0  0  0
    8.8069   -1.4326   22.3638 N   0  0  0  0  0  0  0  0  0  0  0  0
    7.5876   -1.9883   22.5839 C   0  0  0  0  0  0  0  0  0  0  0  0
    7.3319   -2.9869   23.6792 C   0  0  0  0  0  0  0  0  0  0  0  0
    6.9509   -4.3844   23.1087 C   0  0  0  0  0  0  0  0  0  0  0  0
    6.4102   -5.3213   24.1609 C   0  0  0  0  0  0  0  0  0  0  0  0
    6.0846   -4.9409   25.3992 C   0  0  0  0  0  0  0  0  0  0  0  0
    6.1229   -3.5038   25.8643 C   0  0  0  0  0  0  0  0  0  0  0  0
    6.2602   -2.5119   24.6951 C   0  0  0  0  0  0  0  0  0  0  0  0
    5.2975   -2.4226   24.1781 H   0  0  0  0  0  0  0  0  0  0  0  0
    6.5061   -1.5158   25.0803 H   0  0  0  0  0  0  0  0  0  0  0  0
    5.2186   -3.2739   26.4454 H   0  0  0  0  0  0  0  0  0  0  0  0
    6.9571   -3.3806   26.5711 H   0  0  0  0  0  0  0  0  0  0  0  0
    5.7797   -5.6859   26.1343 H   0  0  0  0  0  0  0  0  0  0  0  0
    6.2712   -6.3577   23.8563 H   0  0  0  0  0  0  0  0  0  0  0  0
    7.8285   -4.8404   22.6302 H   0  0  0  0  0  0  0  0  0  0  0  0
    6.2022   -4.2797   22.3100 H   0  0  0  0  0  0  0  0  0  0  0  0
    8.2890   -3.0740   24.2093 H   0  0  0  0  0  0  0  0  0  0  0  0
    6.6465   -1.5962   21.7421 N   0  0  0  0  0  0  0  0  0  0  0  0
    7.2966   -0.7262   20.9295 N   0  0  0  0  0  0  0  0  0  0  0  0
    6.6123   -0.0509   19.8824 C   0  0  0  0  0  0  0  0  0  0  0  0
    5.4051    0.6145   20.1320 C   0  0  0  0  0  0  0  0  0  0  0  0
    4.8060    1.3149   19.0816 C   0  0  0  0  0  0  0  0  0  0  0  0
    5.4213    1.3097   17.8243 C   0  0  0  0  0  0  0  0  0  0  0  0
    6.5608    0.6482   17.5695 N   0  0  0  0  0  0  0  0  0  0  0  0
    7.1354   -0.0152   18.5772 C   0  0  0  0  0  0  0  0  0  0  0  0
    8.0582   -0.5420   18.3362 H   0  0  0  0  0  0  0  0  0  0  0  0
    4.9822    1.8508   16.9906 H   0  0  0  0  0  0  0  0  0  0  0  0
    3.8843    1.8697   19.2274 H   0  0  0  0  0  0  0  0  0  0  0  0
    4.9714    0.5778   21.1302 H   0  0  0  0  0  0  0  0  0  0  0  0
    9.9655   -0.4208   19.7806 H   0  0  0  0  0  0  0  0  0  0  0  0
    9.1595    1.1010   20.2233 H   0  0  0  0  0  0  0  0  0  0  0  0
   11.8403   -0.0846   21.8223 C   0  0  0  0  0  0  0  0  0  0  0  0
   12.1841   -1.4284   21.2525 C   0  0  0  0  0  0  0  0  0  0  0  0
   12.9777   -1.8927   21.8435 H   0  0  0  0  0  0  0  0  0  0  0  0
   12.5458   -1.3561   20.2189 H   0  0  0  0  0  0  0  0  0  0  0  0
   11.3123   -2.0953   21.2874 H   0  0  0  0  0  0  0  0  0  0  0  0
   12.4927    0.6881   22.7660 C   0  0  0  0  0  0  0  0  0  0  0  0
   13.7992    0.4723   23.4816 C   0  0  0  0  0  0  0  0  0  0  0  0
   14.4016   -0.3221   23.0300 H   0  0  0  0  0  0  0  0  0  0  0  0
   14.3980    1.3903   23.4636 H   0  0  0  0  0  0  0  0  0  0  0  0
   13.6449    0.2251   24.5406 H   0  0  0  0  0  0  0  0  0  0  0  0
   12.6607    3.4737   23.8092 H   0  0  0  0  0  0  0  0  0  0  0  0
   10.8894    3.4818   24.0326 H   0  0  0  0  0  0  0  0  0  0  0  0
   11.9109    2.3789   24.9758 H   0  0  0  0  0  0  0  0  0  0  0  0
  1  2  1  0
  2  3  2  0
  3  4  1  0
  4  5  1  0
  5  6  1  0
  6  7  2  0
  7  8  1  0
  8  9  1  0
  9 10  1  0
 10 11  1  0
 11 12  2  0
 12 13  1  0
 13 14  1  0
 14 15  1  0
 14 16  1  0
 13 17  1  0
 13 18  1  0
 12 19  1  0
 11 20  1  0
 10 21  1  0
 10 22  1  0
  9 23  1  0
  8 24  2  0
 24 25  1  0
 25 26  1  0
 26 27  2  0
 27 28  1  0
 28 29  2  0
 29 30  1  0
 30 31  2  0
 31 32  1  0
 29 33  1  0
 28 34  1  0
 27 35  1  0
  5 36  1  0
  5 37  1  0
  4 38  1  0
 38 39  1  0
 39 40  1  0
 39 41  1  0
 39 42  1  0
 38 43  2  0
 43 44  1  0
 44 45  1  0
 44 46  1  0
 44 47  1  0
  1 48  1  0
  1 49  1  0
  1 50  1  0
 43  2  1  0
 25  6  1  0
 31 26  1  0
 14  9  1  0
M  END
>  <cnnaffinity>  (1) 
-6.86285

>  <filename>  (1) 
Cc1nn(Cc2nc(C3CC=CCC3)nn2-c2cccnc2)c(C)c1C

$$$$
