
     RDKit          3D

 47 50  0  0  0  0  0  0  0  0999 V2000
   12.0273    0.4231   23.0355 C   0  0  0  0  0  0  0  0  0  0  0  0
   10.9482    1.4518   22.9488 C   0  0  0  0  0  0  0  0  0  0  0  0
   10.7896    2.4131   23.8490 N   0  0  0  0  0  0  0  0  0  0  0  0
    9.6454    3.0292   23.4810 N   0  0  0  0  0  0  0  0  0  0  0  0
    9.0670    2.4906   22.3752 C   0  0  0  0  0  0  0  0  0  0  0  0
    7.7423    2.8867   21.7998 C   0  0  0  0  0  0  0  0  0  0  0  0
    7.7443    2.6166   20.7416 H   0  0  0  0  0  0  0  0  0  0  0  0
    6.9102    2.3345   22.2527 H   0  0  0  0  0  0  0  0  0  0  0  0
    7.5175    3.9511   21.8945 H   0  0  0  0  0  0  0  0  0  0  0  0
    9.9099    1.4739   21.9826 C   0  0  0  0  0  0  0  0  0  0  0  0
    9.6217    0.4313   20.9256 C   0  0  0  0  0  0  0  0  0  0  0  0
    8.6117   -0.5778   21.3745 C   0  0  0  0  0  0  0  0  0  0  0  0
    8.8447   -1.4489   22.3338 N   0  0  0  0  0  0  0  0  0  0  0  0
    7.6381   -2.0527   22.5055 C   0  0  0  0  0  0  0  0  0  0  0  0
    7.4110   -3.0491   23.5943 C   0  0  0  0  0  0  0  0  0  0  0  0
    7.3775   -2.3565   24.9927 C   0  0  0  0  0  0  0  0  0  0  0  0
    7.3807   -3.3600   26.1253 C   0  0  0  0  0  0  0  0  0  0  0  0
    7.7439   -4.6377   25.9770 C   0  0  0  0  0  0  0  0  0  0  0  0
    8.1454   -5.2419   24.6480 C   0  0  0  0  0  0  0  0  0  0  0  0
    8.4788   -4.1718   23.5905 C   0  0  0  0  0  0  0  0  0  0  0  0
    9.4627   -3.7198   23.7903 H   0  0  0  0  0  0  0  0  0  0  0  0
    8.5505   -4.6325   22.5985 H   0  0  0  0  0  0  0  0  0  0  0  0
    8.9920   -5.9260   24.7939 H   0  0  0  0  0  0  0  0  0  0  0  0
    7.3245   -5.8821   24.2860 H   0  0  0  0  0  0  0  0  0  0  0  0
    7.7448   -5.3086   26.8382 H   0  0  0  0  0  0  0  0  0  0  0  0
    7.0769   -2.9876   27.1057 H   0  0  0  0  0  0  0  0  0  0  0  0
    8.2457   -1.6820   25.0968 H   0  0  0  0  0  0  0  0  0  0  0  0
    6.4969   -1.7053   25.0832 H   0  0  0  0  0  0  0  0  0  0  0  0
    6.4204   -3.4762   23.3858 H   0  0  0  0  0  0  0  0  0  0  0  0
    6.6892   -1.6339   21.6930 N   0  0  0  0  0  0  0  0  0  0  0  0
    7.3266   -0.7008   20.9329 N   0  0  0  0  0  0  0  0  0  0  0  0
    6.6395   -0.0183   19.8908 C   0  0  0  0  0  0  0  0  0  0  0  0
    5.4300    0.6320   20.1527 C   0  0  0  0  0  0  0  0  0  0  0  0
    4.8042    1.3147   19.1030 C   0  0  0  0  0  0  0  0  0  0  0  0
    5.3948    1.3028   17.8328 C   0  0  0  0  0  0  0  0  0  0  0  0
    6.5442    0.6630   17.5680 N   0  0  0  0  0  0  0  0  0  0  0  0
    7.1502    0.0319   18.5816 C   0  0  0  0  0  0  0  0  0  0  0  0
    8.0959   -0.4501   18.3457 H   0  0  0  0  0  0  0  0  0  0  0  0
    4.9337    1.8180   16.9924 H   0  0  0  0  0  0  0  0  0  0  0  0
    3.8708    1.8499   19.2502 H   0  0  0  0  0  0  0  0  0  0  0  0
    5.0095    0.5865   21.1591 H   0  0  0  0  0  0  0  0  0  0  0  0
    9.2649    0.8908   20.0032 H   0  0  0  0  0  0  0  0  0  0  0  0
   10.5272   -0.1368   20.6827 H   0  0  0  0  0  0  0  0  0  0  0  0
    9.3264    3.8275   24.0063 H   0  0  0  0  0  0  0  0  0  0  0  0
   12.7175    0.6333   23.8589 H   0  0  0  0  0  0  0  0  0  0  0  0
   12.5790    0.3785   22.0883 H   0  0  0  0  0  0  0  0  0  0  0  0
   11.5531   -0.5570   23.1903 H   0  0  0  0  0  0  0  0  0  0  0  0
  1  2  1  0
  2  3  2  0
  3  4  1  0
  4  5  1  0
  5  6  1  0
  6  7  1  0
  6  8  1  0
  6  9  1  0
  5 10  2  0
 10 11  1  0
 11 12  1  0
 12 13  2  0
 13 14  1  0
 14 15  1  0
 15 16  1  0
 16 17  1  0
 17 18  2  0
 18 19  1  0
 19 20  1  0
 20 21  1  0
 20 22  1  0
 19 23  1  0
 19 24  1  0
 18 25  1  0
 17 26  1  0
 16 27  1  0
 16 28  1  0
 15 29  1  0
 14 30  2  0
 30 31  1  0
 31 32  1  0
 32 33  2  0
 33 34  1  0
 34 35  2  0
 35 36  1  0
 36 37  2  0
 37 38  1  0
 35 39  1  0
 34 40  1  0
 33 41  1  0
 11 42  1  0
 11 43  1  0
  4 44  1  0
  1 45  1  0
  1 46  1  0
  1 47  1  0
 10  2  1  0
 31 12  1  0
 37 32  1  0
 20 15  1  0
M  END
>  <cnnaffinity>  (1) 
-6.4646

>  <filename>  (1) 
Cc1n[nH]c(C)c1Cc1nc(C2CC=CCC2)nn1-c1cccnc1

$$$$
