
     RDKit          3D

 38 40  0  0  0  0  0  0  0  0999 V2000
    7.3812   -2.9968   23.6378 C   0  0  0  0  0  0  0  0  0  0  0  0
    7.5841   -2.0221   22.5424 C   0  0  0  0  0  0  0  0  0  0  0  0
    6.6393   -1.6099   21.7202 N   0  0  0  0  0  0  0  0  0  0  0  0
    7.2876   -0.6945   20.9566 N   0  0  0  0  0  0  0  0  0  0  0  0
    6.6286   -0.0228   19.8910 C   0  0  0  0  0  0  0  0  0  0  0  0
    5.4261    0.6383   20.1463 C   0  0  0  0  0  0  0  0  0  0  0  0
    4.7951    1.3179   19.1002 C   0  0  0  0  0  0  0  0  0  0  0  0
    5.3912    1.2932   17.8325 C   0  0  0  0  0  0  0  0  0  0  0  0
    6.5342    0.6426   17.5706 N   0  0  0  0  0  0  0  0  0  0  0  0
    7.1415    0.0106   18.5798 C   0  0  0  0  0  0  0  0  0  0  0  0
    8.0916   -0.4689   18.3401 H   0  0  0  0  0  0  0  0  0  0  0  0
    4.9399    1.8226   16.9955 H   0  0  0  0  0  0  0  0  0  0  0  0
    3.8686    1.8654   19.2512 H   0  0  0  0  0  0  0  0  0  0  0  0
    5.0235    0.6071   21.1600 H   0  0  0  0  0  0  0  0  0  0  0  0
    8.5742   -0.5875   21.3919 C   0  0  0  0  0  0  0  0  0  0  0  0
    9.6219    0.3147   20.8483 C   0  0  0  0  0  0  0  0  0  0  0  0
   10.2263    1.1751   21.9330 C   0  0  0  0  0  0  0  0  0  0  0  0
   11.4864    0.8385   22.4385 C   0  0  0  0  0  0  0  0  0  0  0  0
   12.0587    1.5468   23.4956 C   0  0  0  0  0  0  0  0  0  0  0  0
   11.3614    2.6162   24.0616 C   0  0  0  0  0  0  0  0  0  0  0  0
   10.1061    2.9787   23.5674 C   0  0  0  0  0  0  0  0  0  0  0  0
    9.5386    2.2541   22.5096 C   0  0  0  0  0  0  0  0  0  0  0  0
    7.9426    2.8317   21.8454 S   0  0  0  0  0  0  0  0  0  0  0  0
    7.9099    4.3244   21.9770 O   0  0  0  0  0  0  0  0  0  0  0  0
    6.8627    2.2947   23.1868 C   0  0  0  0  0  0  0  0  0  0  0  0
    6.8866    1.2106   23.3149 H   0  0  0  0  0  0  0  0  0  0  0  0
    7.1772    2.8182   24.0962 H   0  0  0  0  0  0  0  0  0  0  0  0
    5.8662    2.6467   22.9017 H   0  0  0  0  0  0  0  0  0  0  0  0
    9.5702    3.8375   23.9658 H   0  0  0  0  0  0  0  0  0  0  0  0
   11.8198    3.1988   24.8500 H   0  0  0  0  0  0  0  0  0  0  0  0
   13.0336    1.2643   23.8807 H   0  0  0  0  0  0  0  0  0  0  0  0
   12.0229    0.0185   21.9682 H   0  0  0  0  0  0  0  0  0  0  0  0
   10.3884   -0.3412   20.4274 H   0  0  0  0  0  0  0  0  0  0  0  0
    9.2028    0.9292   20.0519 H   0  0  0  0  0  0  0  0  0  0  0  0
    8.7926   -1.4284   22.3771 N   0  0  0  0  0  0  0  0  0  0  0  0
    6.5849   -3.6947   23.3774 H   0  0  0  0  0  0  0  0  0  0  0  0
    8.3211   -3.5219   23.8226 H   0  0  0  0  0  0  0  0  0  0  0  0
    7.1113   -2.4419   24.5432 H   0  0  0  0  0  0  0  0  0  0  0  0
  1  2  1  0
  2  3  2  0
  3  4  1  0
  4  5  1  0
  5  6  2  0
  6  7  1  0
  7  8  2  0
  8  9  1  0
  9 10  2  0
 10 11  1  0
  8 12  1  0
  7 13  1  0
  6 14  1  0
  4 15  1  0
 15 16  1  0
 16 17  1  0
 17 18  2  0
 18 19  1  0
 19 20  2  0
 20 21  1  0
 21 22  2  0
 22 23  1  0
 23 24  2  0
 23 25  1  0
 25 26  1  0
 25 27  1  0
 25 28  1  0
 21 29  1  0
 20 30  1  0
 19 31  1  0
 18 32  1  0
 16 33  1  0
 16 34  1  0
 15 35  2  0
  1 36  1  0
  1 37  1  0
  1 38  1  0
 35  2  1  0
 10  5  1  0
 22 17  1  0
M  END
>  <cnnaffinity>  (1) 
-5.74989

>  <filename>  (1) 
Cc1nc(Cc2ccccc2S(C)=O)n(-c2cccnc2)n1

$$$$
