
     RDKit          3D

 45 47  0  0  0  0  0  0  0  0999 V2000
    7.7491    2.7599   21.7580 C   0  0  0  0  0  0  0  0  0  0  0  0
    9.1452    2.3916   22.1361 C   0  0  0  0  0  0  0  0  0  0  0  0
    9.7574    3.0720   23.1002 N   0  0  0  0  0  0  0  0  0  0  0  0
   10.8874    2.3898   23.3423 N   0  0  0  0  0  0  0  0  0  0  0  0
   11.8210    2.8422   24.3395 C   0  0  0  0  0  0  0  0  0  0  0  0
   11.7399    2.2403   25.2505 H   0  0  0  0  0  0  0  0  0  0  0  0
   11.6139    3.8877   24.5501 H   0  0  0  0  0  0  0  0  0  0  0  0
   12.8357    2.7340   23.9469 H   0  0  0  0  0  0  0  0  0  0  0  0
   10.9908    1.2598   22.6027 C   0  0  0  0  0  0  0  0  0  0  0  0
   12.0587    0.2262   22.8067 C   0  0  0  0  0  0  0  0  0  0  0  0
   12.9578    0.4420   22.2160 H   0  0  0  0  0  0  0  0  0  0  0  0
   11.6902   -0.7577   22.5044 H   0  0  0  0  0  0  0  0  0  0  0  0
   12.3417    0.1402   23.8622 H   0  0  0  0  0  0  0  0  0  0  0  0
    9.9248    1.2776   21.7269 C   0  0  0  0  0  0  0  0  0  0  0  0
    9.5971    0.1814   20.7406 C   0  0  0  0  0  0  0  0  0  0  0  0
    8.5546   -0.7676   21.2484 C   0  0  0  0  0  0  0  0  0  0  0  0
    8.7648   -1.6047   22.2442 N   0  0  0  0  0  0  0  0  0  0  0  0
    7.5416   -2.1663   22.4454 C   0  0  0  0  0  0  0  0  0  0  0  0
    7.3056   -3.1083   23.5886 C   0  0  0  0  0  0  0  0  0  0  0  0
    6.9244   -2.3937   24.9147 C   0  0  0  0  0  0  0  0  0  0  0  0
    6.6789   -3.3046   26.1061 C   0  0  0  0  0  0  0  0  0  0  0  0
    6.3335   -2.5816   27.1867 F   0  0  0  0  0  0  0  0  0  0  0  0
    7.7727   -4.0172   26.4352 F   0  0  0  0  0  0  0  0  0  0  0  0
    5.6832   -4.1825   25.8771 F   0  0  0  0  0  0  0  0  0  0  0  0
    6.0068   -1.8064   24.7959 H   0  0  0  0  0  0  0  0  0  0  0  0
    7.7223   -1.7071   25.2216 H   0  0  0  0  0  0  0  0  0  0  0  0
    6.5247   -3.8179   23.2981 H   0  0  0  0  0  0  0  0  0  0  0  0
    8.2362   -3.6686   23.7271 H   0  0  0  0  0  0  0  0  0  0  0  0
    6.6009   -1.7452   21.6258 N   0  0  0  0  0  0  0  0  0  0  0  0
    7.2558   -0.8577   20.8276 N   0  0  0  0  0  0  0  0  0  0  0  0
    6.5626   -0.1448   19.8003 C   0  0  0  0  0  0  0  0  0  0  0  0
    5.3695    0.5354   20.0826 C   0  0  0  0  0  0  0  0  0  0  0  0
    4.7939    1.3106   19.0720 C   0  0  0  0  0  0  0  0  0  0  0  0
    5.3930    1.3471   17.8079 C   0  0  0  0  0  0  0  0  0  0  0  0
    6.4984    0.6451   17.5084 N   0  0  0  0  0  0  0  0  0  0  0  0
    7.0572   -0.0817   18.4832 C   0  0  0  0  0  0  0  0  0  0  0  0
    7.9479   -0.6457   18.2059 H   0  0  0  0  0  0  0  0  0  0  0  0
    4.9665    1.9402   17.0018 H   0  0  0  0  0  0  0  0  0  0  0  0
    3.8930    1.8907   19.2487 H   0  0  0  0  0  0  0  0  0  0  0  0
    4.9229    0.4584   21.0756 H   0  0  0  0  0  0  0  0  0  0  0  0
   10.4861   -0.4368   20.5648 H   0  0  0  0  0  0  0  0  0  0  0  0
    9.3216    0.5956   19.7678 H   0  0  0  0  0  0  0  0  0  0  0  0
    7.0579    2.4073   22.5412 H   0  0  0  0  0  0  0  0  0  0  0  0
    7.6536    3.8434   21.6676 H   0  0  0  0  0  0  0  0  0  0  0  0
    7.4545    2.2799   20.8219 H   0  0  0  0  0  0  0  0  0  0  0  0
  1  2  1  0
  2  3  2  0
  3  4  1  0
  4  5  1  0
  5  6  1  0
  5  7  1  0
  5  8  1  0
  4  9  1  0
  9 10  1  0
 10 11  1  0
 10 12  1  0
 10 13  1  0
  9 14  2  0
 14 15  1  0
 15 16  1  0
 16 17  2  0
 17 18  1  0
 18 19  1  0
 19 20  1  0
 20 21  1  0
 21 22  1  0
 21 23  1  0
 21 24  1  0
 20 25  1  0
 20 26  1  0
 19 27  1  0
 19 28  1  0
 18 29  2  0
 29 30  1  0
 30 31  1  0
 31 32  2  0
 32 33  1  0
 33 34  2  0
 34 35  1  0
 35 36  2  0
 36 37  1  0
 34 38  1  0
 33 39  1  0
 32 40  1  0
 15 41  1  0
 15 42  1  0
  1 43  1  0
  1 44  1  0
  1 45  1  0
 14  2  1  0
 30 16  1  0
 36 31  1  0
M  END
>  <cnnaffinity>  (1) 
-6.41004

>  <filename>  (1) 
Cc1nn(C)c(C)c1Cc1nc(CCC(F)(F)F)nn1-c1cccnc1

$$$$
