
     RDKit          3D

 48 51  0  0  0  0  0  0  0  0999 V2000
   11.5934    2.6551   23.1221 C   0  0  0  0  0  0  0  0  0  0  0  0
   10.3055    2.2588   23.7847 C   0  0  0  0  0  0  0  0  0  0  0  0
    9.1547    2.0269   23.0629 C   0  0  0  0  0  0  0  0  0  0  0  0
    9.1102    2.0019   21.5602 C   0  0  0  0  0  0  0  0  0  0  0  0
    9.5221    0.6249   20.9715 C   0  0  0  0  0  0  0  0  0  0  0  0
    8.6322   -0.4883   21.4125 C   0  0  0  0  0  0  0  0  0  0  0  0
    8.8734   -1.3291   22.4006 N   0  0  0  0  0  0  0  0  0  0  0  0
    7.6798   -1.9532   22.5691 C   0  0  0  0  0  0  0  0  0  0  0  0
    7.4056   -2.8531   23.7390 C   0  0  0  0  0  0  0  0  0  0  0  0
    6.5150   -4.0629   23.4028 C   0  0  0  0  0  0  0  0  0  0  0  0
    5.8747   -4.4791   24.7384 C   0  0  0  0  0  0  0  0  0  0  0  0
    5.8996   -3.2295   25.6581 C   0  0  0  0  0  0  0  0  0  0  0  0
    6.6602   -2.1252   24.8933 C   0  0  0  0  0  0  0  0  0  0  0  0
    7.3558   -1.5664   25.5324 H   0  0  0  0  0  0  0  0  0  0  0  0
    5.9526   -1.3943   24.4766 H   0  0  0  0  0  0  0  0  0  0  0  0
    6.3895   -3.4671   26.6095 H   0  0  0  0  0  0  0  0  0  0  0  0
    4.8880   -2.8937   25.9114 H   0  0  0  0  0  0  0  0  0  0  0  0
    4.8566   -4.8537   24.5860 H   0  0  0  0  0  0  0  0  0  0  0  0
    6.4382   -5.2998   25.1993 H   0  0  0  0  0  0  0  0  0  0  0  0
    7.0918   -4.8723   22.9389 H   0  0  0  0  0  0  0  0  0  0  0  0
    5.7493   -3.7537   22.6799 H   0  0  0  0  0  0  0  0  0  0  0  0
    8.3852   -3.1862   24.1002 H   0  0  0  0  0  0  0  0  0  0  0  0
    6.7446   -1.5945   21.7072 N   0  0  0  0  0  0  0  0  0  0  0  0
    7.3657   -0.6639   20.9430 N   0  0  0  0  0  0  0  0  0  0  0  0
    6.6572    0.0025   19.9026 C   0  0  0  0  0  0  0  0  0  0  0  0
    5.4432    0.6415   20.1698 C   0  0  0  0  0  0  0  0  0  0  0  0
    4.8120    1.3067   19.1119 C   0  0  0  0  0  0  0  0  0  0  0  0
    5.3978    1.2925   17.8424 C   0  0  0  0  0  0  0  0  0  0  0  0
    6.5562    0.6688   17.5814 N   0  0  0  0  0  0  0  0  0  0  0  0
    7.1663    0.0449   18.5939 C   0  0  0  0  0  0  0  0  0  0  0  0
    8.1142   -0.4408   18.3637 H   0  0  0  0  0  0  0  0  0  0  0  0
    4.9232    1.7876   16.9980 H   0  0  0  0  0  0  0  0  0  0  0  0
    3.8816    1.8379   19.2607 H   0  0  0  0  0  0  0  0  0  0  0  0
    5.0316    0.6220   21.1811 H   0  0  0  0  0  0  0  0  0  0  0  0
    9.5217    0.6780   19.8824 H   0  0  0  0  0  0  0  0  0  0  0  0
   10.5372    0.3619   21.2833 H   0  0  0  0  0  0  0  0  0  0  0  0
    9.7654    2.7747   21.1344 H   0  0  0  0  0  0  0  0  0  0  0  0
    8.0906    2.2375   21.2347 H   0  0  0  0  0  0  0  0  0  0  0  0
    7.9577    1.6544   23.7942 C   0  0  0  0  0  0  0  0  0  0  0  0
    6.8460    1.3880   23.3588 O   0  0  0  0  0  0  0  0  0  0  0  0
    8.0985    1.5848   25.1710 N   0  0  0  0  0  0  0  0  0  0  0  0
    9.2619    1.8438   25.7888 C   0  0  0  0  0  0  0  0  0  0  0  0
   10.3410    2.1592   25.1589 N   0  0  0  0  0  0  0  0  0  0  0  0
    9.2379    1.7888   26.8757 H   0  0  0  0  0  0  0  0  0  0  0  0
    7.2292    1.3548   25.6172 H   0  0  0  0  0  0  0  0  0  0  0  0
   12.3924    2.7651   23.8586 H   0  0  0  0  0  0  0  0  0  0  0  0
   11.8984    1.9096   22.3792 H   0  0  0  0  0  0  0  0  0  0  0  0
   11.4667    3.6022   22.5860 H   0  0  0  0  0  0  0  0  0  0  0  0
  1  2  1  0
  2  3  2  0
  3  4  1  0
  4  5  1  0
  5  6  1  0
  6  7  2  0
  7  8  1  0
  8  9  1  0
  9 10  1  0
 10 11  1  0
 11 12  1  0
 12 13  1  0
 13 14  1  0
 13 15  1  0
 12 16  1  0
 12 17  1  0
 11 18  1  0
 11 19  1  0
 10 20  1  0
 10 21  1  0
  9 22  1  0
  8 23  2  0
 23 24  1  0
 24 25  1  0
 25 26  2  0
 26 27  1  0
 27 28  2  0
 28 29  1  0
 29 30  2  0
 30 31  1  0
 28 32  1  0
 27 33  1  0
 26 34  1  0
  5 35  1  0
  5 36  1  0
  4 37  1  0
  4 38  1  0
  3 39  1  0
 39 40  2  0
 39 41  1  0
 41 42  1  0
 42 43  2  0
 42 44  1  0
 41 45  1  0
  1 46  1  0
  1 47  1  0
  1 48  1  0
 43  2  1  0
 24  6  1  0
 30 25  1  0
 13  9  1  0
M  END
>  <cnnaffinity>  (1) 
-6.30685

>  <filename>  (1) 
Cc1nc[nH]c(=O)c1CCc1nc(C2CCCC2)nn1-c1cccnc1

$$$$
