
     RDKit          3D

 44 47  0  0  0  0  0  0  0  0999 V2000
   12.0245    0.4260   23.0394 C   0  0  0  0  0  0  0  0  0  0  0  0
   10.9421    1.4523   22.9540 C   0  0  0  0  0  0  0  0  0  0  0  0
   10.7852    2.4201   23.8477 N   0  0  0  0  0  0  0  0  0  0  0  0
    9.6416    3.0329   23.4755 N   0  0  0  0  0  0  0  0  0  0  0  0
    9.0628    2.4898   22.3739 C   0  0  0  0  0  0  0  0  0  0  0  0
    7.7430    2.8878   21.7921 C   0  0  0  0  0  0  0  0  0  0  0  0
    6.9114    2.3401   22.2511 H   0  0  0  0  0  0  0  0  0  0  0  0
    7.5243    3.9537   21.8809 H   0  0  0  0  0  0  0  0  0  0  0  0
    7.7433    2.6176   20.7338 H   0  0  0  0  0  0  0  0  0  0  0  0
    9.9035    1.4680   21.9893 C   0  0  0  0  0  0  0  0  0  0  0  0
    9.6191    0.4260   20.9308 C   0  0  0  0  0  0  0  0  0  0  0  0
    8.6023   -0.5778   21.3765 C   0  0  0  0  0  0  0  0  0  0  0  0
    8.8237   -1.4450   22.3444 N   0  0  0  0  0  0  0  0  0  0  0  0
    7.6161   -2.0475   22.5016 C   0  0  0  0  0  0  0  0  0  0  0  0
    7.4022   -3.0716   23.5599 C   0  0  0  0  0  0  0  0  0  0  0  0
    8.3952   -4.2616   23.5246 C   0  0  0  0  0  0  0  0  0  0  0  0
    8.4494   -4.7085   24.9937 C   0  0  0  0  0  0  0  0  0  0  0  0
    8.0020   -3.6115   25.7770 O   0  0  0  0  0  0  0  0  0  0  0  0
    7.6272   -2.5068   24.9787 C   0  0  0  0  0  0  0  0  0  0  0  0
    8.4054   -1.7222   24.9972 H   0  0  0  0  0  0  0  0  0  0  0  0
    6.7233   -2.0679   25.4200 H   0  0  0  0  0  0  0  0  0  0  0  0
    7.8051   -5.5769   25.1922 H   0  0  0  0  0  0  0  0  0  0  0  0
    9.4582   -4.9885   25.3246 H   0  0  0  0  0  0  0  0  0  0  0  0
    8.0901   -5.0612   22.8389 H   0  0  0  0  0  0  0  0  0  0  0  0
    9.3833   -3.9127   23.1955 H   0  0  0  0  0  0  0  0  0  0  0  0
    6.3619   -3.4027   23.4577 H   0  0  0  0  0  0  0  0  0  0  0  0
    6.6726   -1.6269   21.6900 N   0  0  0  0  0  0  0  0  0  0  0  0
    7.3190   -0.6959   20.9326 N   0  0  0  0  0  0  0  0  0  0  0  0
    6.6390   -0.0133   19.8866 C   0  0  0  0  0  0  0  0  0  0  0  0
    5.4292    0.6349   20.1489 C   0  0  0  0  0  0  0  0  0  0  0  0
    4.8017    1.3166   19.1006 C   0  0  0  0  0  0  0  0  0  0  0  0
    5.3949    1.3035   17.8321 C   0  0  0  0  0  0  0  0  0  0  0  0
    6.5449    0.6650   17.5673 N   0  0  0  0  0  0  0  0  0  0  0  0
    7.1525    0.0344   18.5798 C   0  0  0  0  0  0  0  0  0  0  0  0
    8.0976   -0.4513   18.3440 H   0  0  0  0  0  0  0  0  0  0  0  0
    4.9325    1.8186   16.9924 H   0  0  0  0  0  0  0  0  0  0  0  0
    3.8683    1.8519   19.2500 H   0  0  0  0  0  0  0  0  0  0  0  0
    5.0093    0.5866   21.1554 H   0  0  0  0  0  0  0  0  0  0  0  0
   10.5249   -0.1427   20.6888 H   0  0  0  0  0  0  0  0  0  0  0  0
    9.2652    0.8866   20.0075 H   0  0  0  0  0  0  0  0  0  0  0  0
    9.3236    3.8336   24.0014 H   0  0  0  0  0  0  0  0  0  0  0  0
   11.5555   -0.5553   23.1990 H   0  0  0  0  0  0  0  0  0  0  0  0
   12.7129    0.6378   23.8625 H   0  0  0  0  0  0  0  0  0  0  0  0
   12.5805    0.3793   22.0944 H   0  0  0  0  0  0  0  0  0  0  0  0
  1  2  1  0
  2  3  2  0
  3  4  1  0
  4  5  1  0
  5  6  1  0
  6  7  1  0
  6  8  1  0
  6  9  1  0
  5 10  2  0
 10 11  1  0
 11 12  1  0
 12 13  2  0
 13 14  1  0
 14 15  1  0
 15 16  1  0
 16 17  1  0
 17 18  1  0
 18 19  1  0
 19 20  1  0
 19 21  1  0
 17 22  1  0
 17 23  1  0
 16 24  1  0
 16 25  1  0
 15 26  1  0
 14 27  2  0
 27 28  1  0
 28 29  1  0
 29 30  2  0
 30 31  1  0
 31 32  2  0
 32 33  1  0
 33 34  2  0
 34 35  1  0
 32 36  1  0
 31 37  1  0
 30 38  1  0
 11 39  1  0
 11 40  1  0
  4 41  1  0
  1 42  1  0
  1 43  1  0
  1 44  1  0
 10  2  1  0
 28 12  1  0
 34 29  1  0
 19 15  1  0
M  END
>  <cnnaffinity>  (1) 
-5.98627

>  <filename>  (1) 
Cc1n[nH]c(C)c1Cc1nc(C2CCOC2)nn1-c1cccnc1

$$$$
