
     RDKit          3D

 39 41  0  0  0  0  0  0  0  0999 V2000
    8.9653   -3.3828   22.3595 C   0  0  0  0  0  0  0  0  0  0  0  0
    8.2328   -2.1445   21.9963 C   0  0  0  0  0  0  0  0  0  0  0  0
    7.7786   -1.8826   20.7878 N   0  0  0  0  0  0  0  0  0  0  0  0
    7.2681   -0.6342   20.9330 N   0  0  0  0  0  0  0  0  0  0  0  0
    6.5881    0.0006   19.8661 C   0  0  0  0  0  0  0  0  0  0  0  0
    5.3782    0.6665   20.0874 C   0  0  0  0  0  0  0  0  0  0  0  0
    4.7886    1.3299   19.0088 C   0  0  0  0  0  0  0  0  0  0  0  0
    5.4317    1.3091   17.7674 C   0  0  0  0  0  0  0  0  0  0  0  0
    6.5739    0.6381   17.5435 N   0  0  0  0  0  0  0  0  0  0  0  0
    7.1291   -0.0148   18.5685 C   0  0  0  0  0  0  0  0  0  0  0  0
    8.0450   -0.5664   18.3702 H   0  0  0  0  0  0  0  0  0  0  0  0
    5.0092    1.8469   16.9205 H   0  0  0  0  0  0  0  0  0  0  0  0
    3.8546    1.8637   19.1326 H   0  0  0  0  0  0  0  0  0  0  0  0
    4.9223    0.6622   21.0777 H   0  0  0  0  0  0  0  0  0  0  0  0
    7.5067   -0.1864   22.2043 C   0  0  0  0  0  0  0  0  0  0  0  0
    7.2754    1.2162   22.7210 C   0  0  0  0  0  0  0  0  0  0  0  0
    8.5136    1.7403   23.4440 C   0  0  0  0  0  0  0  0  0  0  0  0
    9.6197    2.2165   22.6974 C   0  0  0  0  0  0  0  0  0  0  0  0
    9.5429    2.3415   21.1941 C   0  0  0  0  0  0  0  0  0  0  0  0
    9.3089    1.3765   20.7275 H   0  0  0  0  0  0  0  0  0  0  0  0
   10.4880    2.6831   20.7674 H   0  0  0  0  0  0  0  0  0  0  0  0
    8.7623    3.0457   20.8887 H   0  0  0  0  0  0  0  0  0  0  0  0
   10.8298    2.4820   23.3591 C   0  0  0  0  0  0  0  0  0  0  0  0
   10.9672    2.2108   24.7190 C   0  0  0  0  0  0  0  0  0  0  0  0
    9.8848    1.7070   25.4400 C   0  0  0  0  0  0  0  0  0  0  0  0
    8.6509    1.4755   24.8259 C   0  0  0  0  0  0  0  0  0  0  0  0
    7.5433    0.8275   25.6315 C   0  0  0  0  0  0  0  0  0  0  0  0
    7.3123   -0.1552   25.2058 H   0  0  0  0  0  0  0  0  0  0  0  0
    6.6188    1.4144   25.6288 H   0  0  0  0  0  0  0  0  0  0  0  0
    7.8413    0.6820   26.6738 H   0  0  0  0  0  0  0  0  0  0  0  0
   10.0091    1.4439   26.4813 H   0  0  0  0  0  0  0  0  0  0  0  0
   11.9331    2.3315   25.2013 H   0  0  0  0  0  0  0  0  0  0  0  0
   11.6779    2.8632   22.7978 H   0  0  0  0  0  0  0  0  0  0  0  0
    6.4218    1.1657   23.4073 H   0  0  0  0  0  0  0  0  0  0  0  0
    6.9941    1.8852   21.9065 H   0  0  0  0  0  0  0  0  0  0  0  0
    8.0733   -1.1495   22.8992 N   0  0  0  0  0  0  0  0  0  0  0  0
    8.7086   -4.1796   21.6625 H   0  0  0  0  0  0  0  0  0  0  0  0
    8.7201   -3.6809   23.3798 H   0  0  0  0  0  0  0  0  0  0  0  0
   10.0381   -3.1640   22.3320 H   0  0  0  0  0  0  0  0  0  0  0  0
  1  2  1  0
  2  3  2  0
  3  4  1  0
  4  5  1  0
  5  6  2  0
  6  7  1  0
  7  8  2  0
  8  9  1  0
  9 10  2  0
 10 11  1  0
  8 12  1  0
  7 13  1  0
  6 14  1  0
  4 15  1  0
 15 16  1  0
 16 17  1  0
 17 18  2  0
 18 19  1  0
 19 20  1  0
 19 21  1  0
 19 22  1  0
 18 23  1  0
 23 24  2  0
 24 25  1  0
 25 26  2  0
 26 27  1  0
 27 28  1  0
 27 29  1  0
 27 30  1  0
 25 31  1  0
 24 32  1  0
 23 33  1  0
 16 34  1  0
 16 35  1  0
 15 36  2  0
  1 37  1  0
  1 38  1  0
  1 39  1  0
 36  2  1  0
 10  5  1  0
 26 17  1  0
M  END
>  <cnnaffinity>  (1) 
-5.41126

>  <filename>  (1) 
Cc1nc(Cc2c(C)cccc2C)n(-c2cccnc2)n1

$$$$
