
     RDKit          3D

 43 46  0  0  0  0  0  0  0  0999 V2000
   12.2274   -1.2906   21.2817 C   0  0  0  0  0  0  0  0  0  0  0  0
   11.9179    0.0147   21.9390 C   0  0  0  0  0  0  0  0  0  0  0  0
   12.8025    0.4473   22.8468 N   0  0  0  0  0  0  0  0  0  0  0  0
   12.5231    1.5625   23.5284 C   0  0  0  0  0  0  0  0  0  0  0  0
   11.3612    2.3073   23.3206 C   0  0  0  0  0  0  0  0  0  0  0  0
   11.0497    3.7430   24.2368 Cl  0  0  0  0  0  0  0  0  0  0  0  0
   10.4370    1.8675   22.3696 C   0  0  0  0  0  0  0  0  0  0  0  0
   10.7171    0.7127   21.6436 C   0  0  0  0  0  0  0  0  0  0  0  0
    9.6676    0.1791   20.6791 C   0  0  0  0  0  0  0  0  0  0  0  0
    8.6055   -0.6555   21.3256 C   0  0  0  0  0  0  0  0  0  0  0  0
    8.7992   -1.5127   22.3034 N   0  0  0  0  0  0  0  0  0  0  0  0
    7.5610   -2.0375   22.5150 C   0  0  0  0  0  0  0  0  0  0  0  0
    7.3636   -2.9488   23.7032 C   0  0  0  0  0  0  0  0  0  0  0  0
    6.8878   -2.1809   24.9717 C   0  0  0  0  0  0  0  0  0  0  0  0
    5.9919   -3.2011   25.6802 C   0  0  0  0  0  0  0  0  0  0  0  0
    5.4376   -4.0213   24.5154 C   0  0  0  0  0  0  0  0  0  0  0  0
    6.4425   -4.0116   23.5065 O   0  0  0  0  0  0  0  0  0  0  0  0
    4.5114   -3.5828   24.1133 H   0  0  0  0  0  0  0  0  0  0  0  0
    5.2473   -5.0682   24.7753 H   0  0  0  0  0  0  0  0  0  0  0  0
    6.5730   -3.8357   26.3576 H   0  0  0  0  0  0  0  0  0  0  0  0
    5.1932   -2.7353   26.2641 H   0  0  0  0  0  0  0  0  0  0  0  0
    6.3084   -1.2954   24.6783 H   0  0  0  0  0  0  0  0  0  0  0  0
    7.7336   -1.8405   25.5783 H   0  0  0  0  0  0  0  0  0  0  0  0
    8.3612   -3.3817   23.8525 H   0  0  0  0  0  0  0  0  0  0  0  0
    6.6174   -1.5623   21.7231 N   0  0  0  0  0  0  0  0  0  0  0  0
    7.2999   -0.6999   20.9262 N   0  0  0  0  0  0  0  0  0  0  0  0
    6.6342   -0.0033   19.8770 C   0  0  0  0  0  0  0  0  0  0  0  0
    5.4235    0.6430   20.1356 C   0  0  0  0  0  0  0  0  0  0  0  0
    4.8002    1.3194   19.0867 C   0  0  0  0  0  0  0  0  0  0  0  0
    5.3988    1.3069   17.8214 C   0  0  0  0  0  0  0  0  0  0  0  0
    6.5444    0.6602   17.5566 N   0  0  0  0  0  0  0  0  0  0  0  0
    7.1498    0.0260   18.5674 C   0  0  0  0  0  0  0  0  0  0  0  0
    8.0833   -0.4829   18.3214 H   0  0  0  0  0  0  0  0  0  0  0  0
    4.9415    1.8378   16.9923 H   0  0  0  0  0  0  0  0  0  0  0  0
    3.8689    1.8514   19.2417 H   0  0  0  0  0  0  0  0  0  0  0  0
    4.9995    0.5894   21.1387 H   0  0  0  0  0  0  0  0  0  0  0  0
   10.1115   -0.4627   19.9107 H   0  0  0  0  0  0  0  0  0  0  0  0
    9.1818    1.0119   20.1677 H   0  0  0  0  0  0  0  0  0  0  0  0
    9.5025    2.4090   22.2196 H   0  0  0  0  0  0  0  0  0  0  0  0
   13.2297    1.8375   24.3072 H   0  0  0  0  0  0  0  0  0  0  0  0
   13.1442   -1.7102   21.6874 H   0  0  0  0  0  0  0  0  0  0  0  0
   11.4036   -1.9869   21.4600 H   0  0  0  0  0  0  0  0  0  0  0  0
   12.3673   -1.1799   20.2059 H   0  0  0  0  0  0  0  0  0  0  0  0
  1  2  1  0
  2  3  2  0
  3  4  1  0
  4  5  2  0
  5  6  1  0
  5  7  1  0
  7  8  2  0
  8  9  1  0
  9 10  1  0
 10 11  2  0
 11 12  1  0
 12 13  1  0
 13 14  1  0
 14 15  1  0
 15 16  1  0
 16 17  1  0
 16 18  1  0
 16 19  1  0
 15 20  1  0
 15 21  1  0
 14 22  1  0
 14 23  1  0
 13 24  1  0
 12 25  2  0
 25 26  1  0
 26 27  1  0
 27 28  2  0
 28 29  1  0
 29 30  2  0
 30 31  1  0
 31 32  2  0
 32 33  1  0
 30 34  1  0
 29 35  1  0
 28 36  1  0
  9 37  1  0
  9 38  1  0
  7 39  1  0
  4 40  1  0
  1 41  1  0
  1 42  1  0
  1 43  1  0
  8  2  1  0
 26 10  1  0
 32 27  1  0
 17 13  1  0
M  END
>  <cnnaffinity>  (1) 
-6.4401

>  <filename>  (1) 
Cc1ncc(Cl)cc1Cc1nc(C2CCCO2)nn1-c1cccnc1

$$$$
