
     RDKit          3D

 32 34  0  0  0  0  0  0  0  0999 V2000
    8.6589   -3.5670   22.2249 C   0  0  0  0  0  0  0  0  0  0  0  0
    8.1606   -2.1966   21.9604 C   0  0  0  0  0  0  0  0  0  0  0  0
    7.7108   -1.8488   20.7758 N   0  0  0  0  0  0  0  0  0  0  0  0
    7.3229   -0.5666   20.9612 N   0  0  0  0  0  0  0  0  0  0  0  0
    6.6389    0.0833   19.9078 C   0  0  0  0  0  0  0  0  0  0  0  0
    5.4052    0.7021   20.1273 C   0  0  0  0  0  0  0  0  0  0  0  0
    4.7860    1.3245   19.0415 C   0  0  0  0  0  0  0  0  0  0  0  0
    5.4165    1.2925   17.7948 C   0  0  0  0  0  0  0  0  0  0  0  0
    6.5671    0.6292   17.5651 N   0  0  0  0  0  0  0  0  0  0  0  0
    7.1541    0.0237   18.6011 C   0  0  0  0  0  0  0  0  0  0  0  0
    8.0730   -0.5313   18.4021 H   0  0  0  0  0  0  0  0  0  0  0  0
    4.9916    1.8277   16.9490 H   0  0  0  0  0  0  0  0  0  0  0  0
    3.8510    1.8576   19.1720 H   0  0  0  0  0  0  0  0  0  0  0  0
    4.9473    0.6630   21.1152 H   0  0  0  0  0  0  0  0  0  0  0  0
    7.6033   -0.1898   22.2505 C   0  0  0  0  0  0  0  0  0  0  0  0
    7.3656    1.1541   22.8800 C   0  0  0  0  0  0  0  0  0  0  0  0
    8.6202    1.7293   23.5141 C   0  0  0  0  0  0  0  0  0  0  0  0
    9.6410    2.2861   22.7245 C   0  0  0  0  0  0  0  0  0  0  0  0
    9.4093    2.4515   21.0277 Cl  0  0  0  0  0  0  0  0  0  0  0  0
   10.8693    2.6684   23.2783 C   0  0  0  0  0  0  0  0  0  0  0  0
   11.1406    2.5202   24.5776 N   0  0  0  0  0  0  0  0  0  0  0  0
   10.1802    2.0025   25.3542 C   0  0  0  0  0  0  0  0  0  0  0  0
    8.9217    1.6297   24.8749 C   0  0  0  0  0  0  0  0  0  0  0  0
    8.0160    1.1625   25.7512 F   0  0  0  0  0  0  0  0  0  0  0  0
   10.4045    1.8797   26.4028 H   0  0  0  0  0  0  0  0  0  0  0  0
   11.6567    3.0885   22.6564 H   0  0  0  0  0  0  0  0  0  0  0  0
    7.0041    1.8632   22.1330 H   0  0  0  0  0  0  0  0  0  0  0  0
    6.5802    1.0399   23.6297 H   0  0  0  0  0  0  0  0  0  0  0  0
    8.1273   -1.2130   22.8972 N   0  0  0  0  0  0  0  0  0  0  0  0
    8.6951   -4.1020   21.2793 H   0  0  0  0  0  0  0  0  0  0  0  0
    9.6479   -3.5171   22.6868 H   0  0  0  0  0  0  0  0  0  0  0  0
    7.9691   -4.0959   22.8869 H   0  0  0  0  0  0  0  0  0  0  0  0
  1  2  1  0
  2  3  2  0
  3  4  1  0
  4  5  1  0
  5  6  2  0
  6  7  1  0
  7  8  2  0
  8  9  1  0
  9 10  2  0
 10 11  1  0
  8 12  1  0
  7 13  1  0
  6 14  1  0
  4 15  1  0
 15 16  1  0
 16 17  1  0
 17 18  2  0
 18 19  1  0
 18 20  1  0
 20 21  2  0
 21 22  1  0
 22 23  2  0
 23 24  1  0
 22 25  1  0
 20 26  1  0
 16 27  1  0
 16 28  1  0
 15 29  2  0
  1 30  1  0
  1 31  1  0
  1 32  1  0
 29  2  1  0
 10  5  1  0
 23 17  1  0
M  END
>  <cnnaffinity>  (1) 
-6.06473

>  <filename>  (1) 
Cc1nc(Cc2c(F)cncc2Cl)n(-c2cccnc2)n1

$$$$
