
     RDKit          3D

 43 46  0  0  0  0  0  0  0  0999 V2000
   12.1454    2.1751   24.5942 C   0  0  0  0  0  0  0  0  0  0  0  0
   11.1019    2.0186   23.5763 C   0  0  0  0  0  0  0  0  0  0  0  0
   11.1277    1.1510   22.5884 N   0  0  0  0  0  0  0  0  0  0  0  0
    9.9852    1.3625   21.9150 N   0  0  0  0  0  0  0  0  0  0  0  0
    9.6039    0.4318   20.8833 C   0  0  0  0  0  0  0  0  0  0  0  0
    8.6235   -0.5592   21.3862 C   0  0  0  0  0  0  0  0  0  0  0  0
    8.8592   -1.4197   22.3456 N   0  0  0  0  0  0  0  0  0  0  0  0
    7.6557   -2.0290   22.5235 C   0  0  0  0  0  0  0  0  0  0  0  0
    7.4243   -3.0499   23.5735 C   0  0  0  0  0  0  0  0  0  0  0  0
    6.1525   -3.6435   23.7087 C   0  0  0  0  0  0  0  0  0  0  0  0
    5.9596   -4.5982   24.6987 C   0  0  0  0  0  0  0  0  0  0  0  0
    4.7486   -5.1614   24.8164 F   0  0  0  0  0  0  0  0  0  0  0  0
    6.9720   -4.9937   25.5706 C   0  0  0  0  0  0  0  0  0  0  0  0
    8.2300   -4.3965   25.4353 C   0  0  0  0  0  0  0  0  0  0  0  0
    8.4646   -3.4320   24.4507 C   0  0  0  0  0  0  0  0  0  0  0  0
    9.4468   -2.9718   24.3592 H   0  0  0  0  0  0  0  0  0  0  0  0
    9.0321   -4.6904   26.1075 H   0  0  0  0  0  0  0  0  0  0  0  0
    6.7605   -5.7454   26.3256 H   0  0  0  0  0  0  0  0  0  0  0  0
    5.3234   -3.3644   23.0603 H   0  0  0  0  0  0  0  0  0  0  0  0
    6.7070   -1.6074   21.6972 N   0  0  0  0  0  0  0  0  0  0  0  0
    7.3448   -0.6904   20.9349 N   0  0  0  0  0  0  0  0  0  0  0  0
    6.6519   -0.0015   19.9001 C   0  0  0  0  0  0  0  0  0  0  0  0
    5.4392    0.6405   20.1651 C   0  0  0  0  0  0  0  0  0  0  0  0
    4.8117    1.3109   19.1092 C   0  0  0  0  0  0  0  0  0  0  0  0
    5.3988    1.2959   17.8382 C   0  0  0  0  0  0  0  0  0  0  0  0
    6.5558    0.6696   17.5753 N   0  0  0  0  0  0  0  0  0  0  0  0
    7.1646    0.0471   18.5918 C   0  0  0  0  0  0  0  0  0  0  0  0
    8.1125   -0.4364   18.3630 H   0  0  0  0  0  0  0  0  0  0  0  0
    4.9214    1.7888   16.9938 H   0  0  0  0  0  0  0  0  0  0  0  0
    3.8790    1.8407   19.2594 H   0  0  0  0  0  0  0  0  0  0  0  0
    5.0127    0.6053   21.1715 H   0  0  0  0  0  0  0  0  0  0  0  0
   10.5057   -0.1005   20.6005 H   0  0  0  0  0  0  0  0  0  0  0  0
    9.2097    1.0029   20.0491 H   0  0  0  0  0  0  0  0  0  0  0  0
    9.2089    2.3357   22.4653 C   0  0  0  0  0  0  0  0  0  0  0  0
    7.8404    2.7147   22.0262 C   0  0  0  0  0  0  0  0  0  0  0  0
    7.7589    2.7140   20.9406 H   0  0  0  0  0  0  0  0  0  0  0  0
    7.5989    3.7046   22.4169 H   0  0  0  0  0  0  0  0  0  0  0  0
    7.1012    2.0063   22.4147 H   0  0  0  0  0  0  0  0  0  0  0  0
    9.9260    2.7896   23.5404 C   0  0  0  0  0  0  0  0  0  0  0  0
    9.4644    4.0454   24.6312 Cl  0  0  0  0  0  0  0  0  0  0  0  0
   13.1011    1.7422   24.3060 H   0  0  0  0  0  0  0  0  0  0  0  0
   12.2015    3.2518   24.7448 H   0  0  0  0  0  0  0  0  0  0  0  0
   11.7833    1.7237   25.5135 H   0  0  0  0  0  0  0  0  0  0  0  0
  1  2  1  0
  2  3  2  0
  3  4  1  0
  4  5  1  0
  5  6  1  0
  6  7  2  0
  7  8  1  0
  8  9  1  0
  9 10  2  0
 10 11  1  0
 11 12  1  0
 11 13  2  0
 13 14  1  0
 14 15  2  0
 15 16  1  0
 14 17  1  0
 13 18  1  0
 10 19  1  0
  8 20  2  0
 20 21  1  0
 21 22  1  0
 22 23  2  0
 23 24  1  0
 24 25  2  0
 25 26  1  0
 26 27  2  0
 27 28  1  0
 25 29  1  0
 24 30  1  0
 23 31  1  0
  5 32  1  0
  5 33  1  0
  4 34  1  0
 34 35  1  0
 35 36  1  0
 35 37  1  0
 35 38  1  0
 34 39  2  0
 39 40  1  0
  1 41  1  0
  1 42  1  0
  1 43  1  0
 39  2  1  0
 21  6  1  0
 27 22  1  0
 15  9  1  0
M  END
>  <cnnaffinity>  (1) 
-6.30214

>  <filename>  (1) 
Cc1nn(Cc2nc(-c3cccc(F)c3)nn2-c2cccnc2)c(C)c1Cl

$$$$
