
     RDKit          3D

 46 49  0  0  0  0  0  0  0  0999 V2000
    7.7612    2.7819   21.7288 C   0  0  0  0  0  0  0  0  0  0  0  0
    9.1421    2.4188   22.1778 C   0  0  0  0  0  0  0  0  0  0  0  0
    9.7327    3.0768   23.1742 N   0  0  0  0  0  0  0  0  0  0  0  0
   10.8687    2.3954   23.4062 N   0  0  0  0  0  0  0  0  0  0  0  0
   11.8000    2.8044   24.4219 C   0  0  0  0  0  0  0  0  0  0  0  0
   11.6729    2.2048   25.3291 H   0  0  0  0  0  0  0  0  0  0  0  0
   12.8117    2.6547   24.0331 H   0  0  0  0  0  0  0  0  0  0  0  0
   11.6331    3.8565   24.6462 H   0  0  0  0  0  0  0  0  0  0  0  0
   10.9885    1.2863   22.6396 C   0  0  0  0  0  0  0  0  0  0  0  0
   12.0405    0.2373   22.8633 C   0  0  0  0  0  0  0  0  0  0  0  0
   12.3370    0.1877   23.9210 H   0  0  0  0  0  0  0  0  0  0  0  0
   11.6563   -0.7494   22.5704 H   0  0  0  0  0  0  0  0  0  0  0  0
   12.9350    0.4584   22.2688 H   0  0  0  0  0  0  0  0  0  0  0  0
    9.9251    1.3125   21.7700 C   0  0  0  0  0  0  0  0  0  0  0  0
    9.6181    0.2249   20.7742 C   0  0  0  0  0  0  0  0  0  0  0  0
    8.5817   -0.7341   21.2660 C   0  0  0  0  0  0  0  0  0  0  0  0
    8.7955   -1.5821   22.2462 N   0  0  0  0  0  0  0  0  0  0  0  0
    7.5739   -2.1489   22.4548 C   0  0  0  0  0  0  0  0  0  0  0  0
    7.3464   -3.1543   23.5207 C   0  0  0  0  0  0  0  0  0  0  0  0
    6.0834   -3.7606   23.6987 C   0  0  0  0  0  0  0  0  0  0  0  0
    5.9018   -4.7251   24.6930 C   0  0  0  0  0  0  0  0  0  0  0  0
    6.9632   -5.0874   25.5311 C   0  0  0  0  0  0  0  0  0  0  0  0
    8.2117   -4.4745   25.3773 C   0  0  0  0  0  0  0  0  0  0  0  0
    8.4049   -3.5164   24.3805 C   0  0  0  0  0  0  0  0  0  0  0  0
    9.3759   -3.0389   24.2644 H   0  0  0  0  0  0  0  0  0  0  0  0
    9.0364   -4.7405   26.0357 H   0  0  0  0  0  0  0  0  0  0  0  0
    6.8197   -5.8422   26.3011 H   0  0  0  0  0  0  0  0  0  0  0  0
    4.9286   -5.1942   24.8186 H   0  0  0  0  0  0  0  0  0  0  0  0
    5.2487   -3.4656   23.0644 H   0  0  0  0  0  0  0  0  0  0  0  0
    6.6299   -1.7107   21.6366 N   0  0  0  0  0  0  0  0  0  0  0  0
    7.2841   -0.8176   20.8554 N   0  0  0  0  0  0  0  0  0  0  0  0
    6.5831   -0.1093   19.8395 C   0  0  0  0  0  0  0  0  0  0  0  0
    5.3836    0.5526   20.1215 C   0  0  0  0  0  0  0  0  0  0  0  0
    4.7965    1.3013   19.0968 C   0  0  0  0  0  0  0  0  0  0  0  0
    5.3985    1.3238   17.8336 C   0  0  0  0  0  0  0  0  0  0  0  0
    6.5182    0.6439   17.5439 N   0  0  0  0  0  0  0  0  0  0  0  0
    7.0871   -0.0590   18.5305 C   0  0  0  0  0  0  0  0  0  0  0  0
    7.9869   -0.6187   18.2778 H   0  0  0  0  0  0  0  0  0  0  0  0
    4.9582    1.8969   17.0201 H   0  0  0  0  0  0  0  0  0  0  0  0
    3.8862    1.8661   19.2670 H   0  0  0  0  0  0  0  0  0  0  0  0
    4.9384    0.4825   21.1161 H   0  0  0  0  0  0  0  0  0  0  0  0
    9.3480    0.6685   19.8178 H   0  0  0  0  0  0  0  0  0  0  0  0
   10.5219   -0.3675   20.5952 H   0  0  0  0  0  0  0  0  0  0  0  0
    7.0506    2.4146   22.4759 H   0  0  0  0  0  0  0  0  0  0  0  0
    7.5001    2.3195   20.7687 H   0  0  0  0  0  0  0  0  0  0  0  0
    7.6400    3.8648   21.6583 H   0  0  0  0  0  0  0  0  0  0  0  0
  1  2  1  0
  2  3  2  0
  3  4  1  0
  4  5  1  0
  5  6  1  0
  5  7  1  0
  5  8  1  0
  4  9  1  0
  9 10  1  0
 10 11  1  0
 10 12  1  0
 10 13  1  0
  9 14  2  0
 14 15  1  0
 15 16  1  0
 16 17  2  0
 17 18  1  0
 18 19  1  0
 19 20  2  0
 20 21  1  0
 21 22  2  0
 22 23  1  0
 23 24  2  0
 24 25  1  0
 23 26  1  0
 22 27  1  0
 21 28  1  0
 20 29  1  0
 18 30  2  0
 30 31  1  0
 31 32  1  0
 32 33  2  0
 33 34  1  0
 34 35  2  0
 35 36  1  0
 36 37  2  0
 37 38  1  0
 35 39  1  0
 34 40  1  0
 33 41  1  0
 15 42  1  0
 15 43  1  0
  1 44  1  0
  1 45  1  0
  1 46  1  0
 14  2  1  0
 31 16  1  0
 37 32  1  0
 24 19  1  0
M  END
>  <cnnaffinity>  (1) 
-6.13595

>  <filename>  (1) 
Cc1nn(C)c(C)c1Cc1nc(-c2ccccc2)nn1-c1cccnc1

$$$$
