
     RDKit          3D

 45 48  0  0  0  0  0  0  0  0999 V2000
   10.4805    3.6342   24.0222 C   0  0  0  0  0  0  0  0  0  0  0  0
    9.3547    4.3346   23.3196 C   0  0  0  0  0  0  0  0  0  0  0  0
    8.5164    3.7765   22.3909 C   0  0  0  0  0  0  0  0  0  0  0  0
    8.4763    2.3831   21.8292 C   0  0  0  0  0  0  0  0  0  0  0  0
    7.5748    1.4272   22.6512 C   0  0  0  0  0  0  0  0  0  0  0  0
    7.6362   -0.0022   22.2199 C   0  0  0  0  0  0  0  0  0  0  0  0
    8.1019   -0.9858   22.9633 N   0  0  0  0  0  0  0  0  0  0  0  0
    8.0573   -2.0646   22.1377 C   0  0  0  0  0  0  0  0  0  0  0  0
    8.5201   -3.4414   22.5516 C   0  0  0  0  0  0  0  0  0  0  0  0
    7.6480   -4.6019   22.0233 C   0  0  0  0  0  0  0  0  0  0  0  0
    8.0192   -5.8113   22.8908 C   0  0  0  0  0  0  0  0  0  0  0  0
    8.4353   -5.2229   24.2615 C   0  0  0  0  0  0  0  0  0  0  0  0
    8.6024   -3.6931   24.0753 C   0  0  0  0  0  0  0  0  0  0  0  0
    9.5513   -3.3311   24.4858 H   0  0  0  0  0  0  0  0  0  0  0  0
    7.8197   -3.1385   24.6062 H   0  0  0  0  0  0  0  0  0  0  0  0
    9.3621   -5.6891   24.6103 H   0  0  0  0  0  0  0  0  0  0  0  0
    7.6830   -5.4384   25.0294 H   0  0  0  0  0  0  0  0  0  0  0  0
    8.8447   -6.3670   22.4264 H   0  0  0  0  0  0  0  0  0  0  0  0
    7.1924   -6.5260   22.9909 H   0  0  0  0  0  0  0  0  0  0  0  0
    7.7977   -4.7757   20.9527 H   0  0  0  0  0  0  0  0  0  0  0  0
    6.5950   -4.3357   22.1695 H   0  0  0  0  0  0  0  0  0  0  0  0
    9.5346   -3.5336   22.1474 H   0  0  0  0  0  0  0  0  0  0  0  0
    7.6100   -1.8047   20.9209 N   0  0  0  0  0  0  0  0  0  0  0  0
    7.3008   -0.4817   20.9850 N   0  0  0  0  0  0  0  0  0  0  0  0
    6.6261    0.1318   19.8942 C   0  0  0  0  0  0  0  0  0  0  0  0
    5.4316    0.8384   20.0776 C   0  0  0  0  0  0  0  0  0  0  0  0
    4.8389    1.4315   18.9587 C   0  0  0  0  0  0  0  0  0  0  0  0
    5.4605    1.2999   17.7124 C   0  0  0  0  0  0  0  0  0  0  0  0
    6.5855    0.5864   17.5247 N   0  0  0  0  0  0  0  0  0  0  0  0
    7.1419    0.0023   18.5913 C   0  0  0  0  0  0  0  0  0  0  0  0
    8.0353   -0.5907   18.4107 H   0  0  0  0  0  0  0  0  0  0  0  0
    5.0433    1.7772   16.8283 H   0  0  0  0  0  0  0  0  0  0  0  0
    3.9205    2.0022   19.0526 H   0  0  0  0  0  0  0  0  0  0  0  0
    4.9708    0.8927   21.0652 H   0  0  0  0  0  0  0  0  0  0  0  0
    7.8808    1.4399   23.7038 H   0  0  0  0  0  0  0  0  0  0  0  0
    6.5368    1.7758   22.6226 H   0  0  0  0  0  0  0  0  0  0  0  0
    8.1175    2.4139   20.7929 H   0  0  0  0  0  0  0  0  0  0  0  0
    9.5009    1.9835   21.7967 H   0  0  0  0  0  0  0  0  0  0  0  0
    7.3457    4.9586   21.9075 S   0  0  0  0  0  0  0  0  0  0  0  0
    8.0772    6.0981   22.9694 C   0  0  0  0  0  0  0  0  0  0  0  0
    9.0958    5.6544   23.6371 N   0  0  0  0  0  0  0  0  0  0  0  0
    7.7033    7.1140   23.0537 H   0  0  0  0  0  0  0  0  0  0  0  0
   11.1992    3.2109   23.3096 H   0  0  0  0  0  0  0  0  0  0  0  0
   10.0963    2.8101   24.6367 H   0  0  0  0  0  0  0  0  0  0  0  0
   11.0074    4.3338   24.6756 H   0  0  0  0  0  0  0  0  0  0  0  0
  1  2  1  0
  2  3  2  0
  3  4  1  0
  4  5  1  0
  5  6  1  0
  6  7  2  0
  7  8  1  0
  8  9  1  0
  9 10  1  0
 10 11  1  0
 11 12  1  0
 12 13  1  0
 13 14  1  0
 13 15  1  0
 12 16  1  0
 12 17  1  0
 11 18  1  0
 11 19  1  0
 10 20  1  0
 10 21  1  0
  9 22  1  0
  8 23  2  0
 23 24  1  0
 24 25  1  0
 25 26  2  0
 26 27  1  0
 27 28  2  0
 28 29  1  0
 29 30  2  0
 30 31  1  0
 28 32  1  0
 27 33  1  0
 26 34  1  0
  5 35  1  0
  5 36  1  0
  4 37  1  0
  4 38  1  0
  3 39  1  0
 39 40  1  0
 40 41  2  0
 40 42  1  0
  1 43  1  0
  1 44  1  0
  1 45  1  0
 41  2  1  0
 24  6  1  0
 30 25  1  0
 13  9  1  0
M  END
>  <cnnaffinity>  (1) 
-6.07906

>  <filename>  (1) 
Cc1ncsc1CCc1nc(C2CCCC2)nn1-c1cccnc1

$$$$
