
     RDKit          3D

 43 46  0  0  0  0  0  0  0  0999 V2000
    6.8470    1.7488   23.8050 C   0  0  0  0  0  0  0  0  0  0  0  0
    8.3084    1.7308   24.1039 C   0  0  0  0  0  0  0  0  0  0  0  0
    8.8192    1.5758   25.3032 N   0  0  0  0  0  0  0  0  0  0  0  0
   10.1812    1.5923   25.1330 C   0  0  0  0  0  0  0  0  0  0  0  0
   10.4958    1.7647   23.8174 C   0  0  0  0  0  0  0  0  0  0  0  0
    9.2856    1.8807   23.1517 N   0  0  0  0  0  0  0  0  0  0  0  0
    9.1382    1.9615   21.7020 C   0  0  0  0  0  0  0  0  0  0  0  0
    9.4960    0.6371   20.9969 C   0  0  0  0  0  0  0  0  0  0  0  0
    8.6079   -0.4848   21.4198 C   0  0  0  0  0  0  0  0  0  0  0  0
    8.8303   -1.3022   22.4234 N   0  0  0  0  0  0  0  0  0  0  0  0
    7.6479   -1.9632   22.5584 C   0  0  0  0  0  0  0  0  0  0  0  0
    7.4027   -2.9054   23.6841 C   0  0  0  0  0  0  0  0  0  0  0  0
    8.6166   -3.7622   24.1474 C   0  0  0  0  0  0  0  0  0  0  0  0
    8.5792   -3.0677   25.5277 C   0  0  0  0  0  0  0  0  0  0  0  0
    7.3511   -2.2353   25.0964 C   0  0  0  0  0  0  0  0  0  0  0  0
    7.5075   -1.1502   25.0798 H   0  0  0  0  0  0  0  0  0  0  0  0
    6.4360   -2.4304   25.6592 H   0  0  0  0  0  0  0  0  0  0  0  0
    8.4106   -3.7318   26.3802 H   0  0  0  0  0  0  0  0  0  0  0  0
    9.4673   -2.4714   25.7528 H   0  0  0  0  0  0  0  0  0  0  0  0
    8.4233   -4.8373   24.1735 H   0  0  0  0  0  0  0  0  0  0  0  0
    9.5312   -3.5964   23.5696 H   0  0  0  0  0  0  0  0  0  0  0  0
    6.5110   -3.4840   23.4376 H   0  0  0  0  0  0  0  0  0  0  0  0
    6.7199   -1.6232   21.6856 N   0  0  0  0  0  0  0  0  0  0  0  0
    7.3468   -0.6813   20.9277 N   0  0  0  0  0  0  0  0  0  0  0  0
    6.6528    0.0046   19.8961 C   0  0  0  0  0  0  0  0  0  0  0  0
    5.4378    0.6451   20.1615 C   0  0  0  0  0  0  0  0  0  0  0  0
    4.8109    1.3130   19.1068 C   0  0  0  0  0  0  0  0  0  0  0  0
    5.4000    1.2975   17.8359 C   0  0  0  0  0  0  0  0  0  0  0  0
    6.5581    0.6727   17.5738 N   0  0  0  0  0  0  0  0  0  0  0  0
    7.1663    0.0505   18.5881 C   0  0  0  0  0  0  0  0  0  0  0  0
    8.1131   -0.4361   18.3662 H   0  0  0  0  0  0  0  0  0  0  0  0
    4.9185    1.7864   16.9918 H   0  0  0  0  0  0  0  0  0  0  0  0
    3.8778    1.8409   19.2619 H   0  0  0  0  0  0  0  0  0  0  0  0
    5.0073    0.6074   21.1664 H   0  0  0  0  0  0  0  0  0  0  0  0
   10.5257    0.3635   21.2369 H   0  0  0  0  0  0  0  0  0  0  0  0
    9.4504    0.7725   19.9147 H   0  0  0  0  0  0  0  0  0  0  0  0
    8.1139    2.2545   21.4522 H   0  0  0  0  0  0  0  0  0  0  0  0
    9.7849    2.7677   21.3444 H   0  0  0  0  0  0  0  0  0  0  0  0
   11.4430    1.7959   23.2950 H   0  0  0  0  0  0  0  0  0  0  0  0
   10.8566    1.4881   25.9736 H   0  0  0  0  0  0  0  0  0  0  0  0
    6.5573    2.6779   23.3019 H   0  0  0  0  0  0  0  0  0  0  0  0
    6.5627    0.9042   23.1657 H   0  0  0  0  0  0  0  0  0  0  0  0
    6.3006    1.6760   24.7481 H   0  0  0  0  0  0  0  0  0  0  0  0
  1  2  1  0
  2  3  2  0
  3  4  1  0
  4  5  2  0
  5  6  1  0
  6  7  1  0
  7  8  1  0
  8  9  1  0
  9 10  2  0
 10 11  1  0
 11 12  1  0
 12 13  1  0
 13 14  1  0
 14 15  1  0
 15 16  1  0
 15 17  1  0
 14 18  1  0
 14 19  1  0
 13 20  1  0
 13 21  1  0
 12 22  1  0
 11 23  2  0
 23 24  1  0
 24 25  1  0
 25 26  2  0
 26 27  1  0
 27 28  2  0
 28 29  1  0
 29 30  2  0
 30 31  1  0
 28 32  1  0
 27 33  1  0
 26 34  1  0
  8 35  1  0
  8 36  1  0
  7 37  1  0
  7 38  1  0
  5 39  1  0
  4 40  1  0
  1 41  1  0
  1 42  1  0
  1 43  1  0
  6  2  1  0
 24  9  1  0
 30 25  1  0
 15 12  1  0
M  END
>  <cnnaffinity>  (1) 
-6.0237

>  <filename>  (1) 
Cc1nccn1CCc1nc(C2CCC2)nn1-c1cccnc1

$$$$
