
     RDKit          3D

 49 52  0  0  0  0  0  0  0  0999 V2000
    4.5757    0.0707   25.4187 C   0  0  0  0  0  0  0  0  0  0  0  0
    5.9355    0.4975   24.9650 C   0  0  0  0  0  0  0  0  0  0  0  0
    6.1049    1.0530   23.7711 N   0  0  0  0  0  0  0  0  0  0  0  0
    7.4084    1.3669   23.7044 N   0  0  0  0  0  0  0  0  0  0  0  0
    7.9026    2.0429   22.5174 C   0  0  0  0  0  0  0  0  0  0  0  0
    8.9280    1.2167   21.8351 C   0  0  0  0  0  0  0  0  0  0  0  0
   10.2020    1.5708   21.7325 N   0  0  0  0  0  0  0  0  0  0  0  0
   10.7756    0.5047   21.1812 C   0  0  0  0  0  0  0  0  0  0  0  0
   11.1148   -0.7863   21.6044 C   0  0  0  0  0  0  0  0  0  0  0  0
   13.0805    0.6900   22.5226 C   0  0  0  0  0  0  0  0  0  0  0  0
   14.1669    0.2246   22.0261 C   0  0  0  0  0  0  0  0  0  0  0  0
   15.3371    0.9316   22.1499 F   0  0  0  0  0  0  0  0  0  0  0  0
   14.3363   -0.9967   21.1452 C   0  0  0  0  0  0  0  0  0  0  0  0
   13.3188   -1.8127   20.9115 C   0  0  0  0  0  0  0  0  0  0  0  0
   13.5573   -2.7785   20.0093 F   0  0  0  0  0  0  0  0  0  0  0  0
   11.9880   -1.8112   21.4693 C   0  0  0  0  0  0  0  0  0  0  0  0
   11.6397   -2.7884   21.7949 H   0  0  0  0  0  0  0  0  0  0  0  0
   15.1825   -1.1886   20.5059 H   0  0  0  0  0  0  0  0  0  0  0  0
   12.6426    1.5239   23.0356 H   0  0  0  0  0  0  0  0  0  0  0  0
    9.8487   -0.4980   20.8001 N   0  0  0  0  0  0  0  0  0  0  0  0
    8.6977   -0.0529   21.4453 N   0  0  0  0  0  0  0  0  0  0  0  0
    7.4902   -0.7475   21.0373 C   0  0  0  0  0  0  0  0  0  0  0  0
    6.7619   -0.0367   19.9337 C   0  0  0  0  0  0  0  0  0  0  0  0
    5.5532    0.6115   20.1880 C   0  0  0  0  0  0  0  0  0  0  0  0
    4.9100    1.2618   19.1351 C   0  0  0  0  0  0  0  0  0  0  0  0
    5.5176    1.2525   17.8754 C   0  0  0  0  0  0  0  0  0  0  0  0
    6.6953    0.6606   17.6236 N   0  0  0  0  0  0  0  0  0  0  0  0
    7.3056    0.0444   18.6442 C   0  0  0  0  0  0  0  0  0  0  0  0
    8.2767   -0.4072   18.4326 H   0  0  0  0  0  0  0  0  0  0  0  0
    5.0400    1.7414   17.0283 H   0  0  0  0  0  0  0  0  0  0  0  0
    3.9705    1.7802   19.2800 H   0  0  0  0  0  0  0  0  0  0  0  0
    5.1637    0.6271   21.2092 H   0  0  0  0  0  0  0  0  0  0  0  0
    6.8418   -0.8547   21.9111 H   0  0  0  0  0  0  0  0  0  0  0  0
    7.8133   -1.7470   20.7301 H   0  0  0  0  0  0  0  0  0  0  0  0
    7.0444    2.2201   21.8674 H   0  0  0  0  0  0  0  0  0  0  0  0
    8.3490    3.0070   22.7739 H   0  0  0  0  0  0  0  0  0  0  0  0
    8.0857    1.0006   24.8291 C   0  0  0  0  0  0  0  0  0  0  0  0
    9.5643    1.1955   25.0308 C   0  0  0  0  0  0  0  0  0  0  0  0
   10.1422    0.3813   24.5767 H   0  0  0  0  0  0  0  0  0  0  0  0
    9.8016    1.2117   26.0998 H   0  0  0  0  0  0  0  0  0  0  0  0
    9.9136    2.1327   24.5857 H   0  0  0  0  0  0  0  0  0  0  0  0
    7.1547    0.4267   25.6760 C   0  0  0  0  0  0  0  0  0  0  0  0
    7.3694   -0.1012   27.0683 C   0  0  0  0  0  0  0  0  0  0  0  0
    7.4325    0.7041   27.8132 H   0  0  0  0  0  0  0  0  0  0  0  0
    8.2953   -0.6835   27.1434 H   0  0  0  0  0  0  0  0  0  0  0  0
    6.5487   -0.7575   27.3787 H   0  0  0  0  0  0  0  0  0  0  0  0
    4.3334    0.5077   26.3939 H   0  0  0  0  0  0  0  0  0  0  0  0
    3.8282    0.4020   24.6965 H   0  0  0  0  0  0  0  0  0  0  0  0
    4.5112   -1.0197   25.5156 H   0  0  0  0  0  0  0  0  0  0  0  0
  1  2  1  0
  2  3  2  0
  3  4  1  0
  4  5  1  0
  5  6  1  0
  6  7  2  0
  7  8  1  0
  8  9  1  0
  9 10  2  0
 10 11  1  0
 11 12  1  0
 11 13  2  0
 13 14  1  0
 14 15  1  0
 14 16  2  0
 16 17  1  0
 13 18  1  0
 10 19  1  0
  8 20  2  0
 20 21  1  0
 21 22  1  0
 22 23  1  0
 23 24  2  0
 24 25  1  0
 25 26  2  0
 26 27  1  0
 27 28  2  0
 28 29  1  0
 26 30  1  0
 25 31  1  0
 24 32  1  0
 22 33  1  0
 22 34  1  0
  5 35  1  0
  5 36  1  0
  4 37  1  0
 37 38  1  0
 38 39  1  0
 38 40  1  0
 38 41  1  0
 37 42  2  0
 42 43  1  0
 43 44  1  0
 43 45  1  0
 43 46  1  0
  1 47  1  0
  1 48  1  0
  1 49  1  0
 42  2  1  0
 21  6  1  0
 28 23  1  0
 16  9  1  0
M  END
>  <cnnaffinity>  (1) 
-6.89446

>  <filename>  (1) 
Cc1nn(Cc2nc(-c3cc(F)cc(F)c3)nn2Cc2cccnc2)c(C)c1C

$$$$
