
     RDKit          3D

 43 46  0  0  0  0  0  0  0  0999 V2000
   11.1891   -1.5352   21.7268 C   0  0  0  0  0  0  0  0  0  0  0  0
   11.7998   -0.1855   21.8747 C   0  0  0  0  0  0  0  0  0  0  0  0
   13.0008   -0.0252   22.4241 N   0  0  0  0  0  0  0  0  0  0  0  0
   13.1897    1.3046   22.4501 N   0  0  0  0  0  0  0  0  0  0  0  0
   12.1472    1.9906   21.9293 C   0  0  0  0  0  0  0  0  0  0  0  0
   11.2181    1.0655   21.5280 C   0  0  0  0  0  0  0  0  0  0  0  0
    9.8201    1.3872   21.0385 C   0  0  0  0  0  0  0  0  0  0  0  0
    8.7727    1.1661   22.0823 C   0  0  0  0  0  0  0  0  0  0  0  0
    8.7198    1.8718   23.1913 N   0  0  0  0  0  0  0  0  0  0  0  0
    7.6734    1.3257   23.8627 C   0  0  0  0  0  0  0  0  0  0  0  0
    7.2237    1.8515   25.1714 C   0  0  0  0  0  0  0  0  0  0  0  0
    6.0932    1.3076   25.8147 C   0  0  0  0  0  0  0  0  0  0  0  0
    5.7223    1.8281   27.0491 C   0  0  0  0  0  0  0  0  0  0  0  0
    4.6576    1.3043   27.6702 F   0  0  0  0  0  0  0  0  0  0  0  0
    6.3981    2.8818   27.6616 C   0  0  0  0  0  0  0  0  0  0  0  0
    7.4770    3.4303   26.9716 C   0  0  0  0  0  0  0  0  0  0  0  0
    8.0935    4.5023   27.4858 F   0  0  0  0  0  0  0  0  0  0  0  0
    7.9293    2.9200   25.7614 C   0  0  0  0  0  0  0  0  0  0  0  0
    8.8201    3.3332   25.2939 H   0  0  0  0  0  0  0  0  0  0  0  0
    6.1026    3.2506   28.6359 H   0  0  0  0  0  0  0  0  0  0  0  0
    5.5094    0.5075   25.3645 H   0  0  0  0  0  0  0  0  0  0  0  0
    7.0848    0.3262   23.2226 N   0  0  0  0  0  0  0  0  0  0  0  0
    7.8029    0.2190   22.0814 N   0  0  0  0  0  0  0  0  0  0  0  0
    7.3753   -0.7019   21.0225 C   0  0  0  0  0  0  0  0  0  0  0  0
    6.6521   -0.0107   19.8739 C   0  0  0  0  0  0  0  0  0  0  0  0
    5.4399    0.6523   20.1212 C   0  0  0  0  0  0  0  0  0  0  0  0
    4.8041    1.3126   19.0683 C   0  0  0  0  0  0  0  0  0  0  0  0
    5.4059    1.2976   17.8089 C   0  0  0  0  0  0  0  0  0  0  0  0
    6.5549    0.6589   17.5446 N   0  0  0  0  0  0  0  0  0  0  0  0
    7.1534    0.0240   18.5621 C   0  0  0  0  0  0  0  0  0  0  0  0
    8.0924   -0.4749   18.3076 H   0  0  0  0  0  0  0  0  0  0  0  0
    4.9461    1.8248   16.9756 H   0  0  0  0  0  0  0  0  0  0  0  0
    3.8703    1.8464   19.2096 H   0  0  0  0  0  0  0  0  0  0  0  0
    5.0174    0.6710   21.1280 H   0  0  0  0  0  0  0  0  0  0  0  0
    6.7131   -1.4224   21.5159 H   0  0  0  0  0  0  0  0  0  0  0  0
    8.2459   -1.2708   20.6692 H   0  0  0  0  0  0  0  0  0  0  0  0
    9.7610    2.4519   20.7829 H   0  0  0  0  0  0  0  0  0  0  0  0
    9.5617    0.8304   20.1334 H   0  0  0  0  0  0  0  0  0  0  0  0
   12.1124    3.0713   21.8822 H   0  0  0  0  0  0  0  0  0  0  0  0
   14.0624    1.6780   22.7860 H   0  0  0  0  0  0  0  0  0  0  0  0
   10.6107   -1.6102   20.8031 H   0  0  0  0  0  0  0  0  0  0  0  0
   11.9541   -2.3076   21.7137 H   0  0  0  0  0  0  0  0  0  0  0  0
   10.5123   -1.7408   22.5652 H   0  0  0  0  0  0  0  0  0  0  0  0
  1  2  1  0
  2  3  2  0
  3  4  1  0
  4  5  1  0
  5  6  2  0
  6  7  1  0
  7  8  1  0
  8  9  2  0
  9 10  1  0
 10 11  1  0
 11 12  2  0
 12 13  1  0
 13 14  1  0
 13 15  2  0
 15 16  1  0
 16 17  1  0
 16 18  2  0
 18 19  1  0
 15 20  1  0
 12 21  1  0
 10 22  2  0
 22 23  1  0
 23 24  1  0
 24 25  1  0
 25 26  2  0
 26 27  1  0
 27 28  2  0
 28 29  1  0
 29 30  2  0
 30 31  1  0
 28 32  1  0
 27 33  1  0
 26 34  1  0
 24 35  1  0
 24 36  1  0
  7 37  1  0
  7 38  1  0
  5 39  1  0
  4 40  1  0
  1 41  1  0
  1 42  1  0
  1 43  1  0
  6  2  1  0
 23  8  1  0
 30 25  1  0
 18 11  1  0
M  END
>  <cnnaffinity>  (1) 
-6.41528

>  <filename>  (1) 
Cc1n[nH]cc1Cc1nc(-c2cc(F)cc(F)c2)nn1Cc1cccnc1

$$$$
