
     RDKit          3D

 55 58  0  0  0  0  0  0  0  0999 V2000
   11.3012    2.1993   23.7530 C   0  0  0  0  0  0  0  0  0  0  0  0
    9.8284    2.0651   23.9635 C   0  0  0  0  0  0  0  0  0  0  0  0
    9.2962    1.9187   25.1737 N   0  0  0  0  0  0  0  0  0  0  0  0
    7.9814    1.7521   24.9568 N   0  0  0  0  0  0  0  0  0  0  0  0
    7.0617    1.5951   26.0548 C   0  0  0  0  0  0  0  0  0  0  0  0
    7.4848    0.9196   26.8012 H   0  0  0  0  0  0  0  0  0  0  0  0
    6.8359    2.5557   26.5256 H   0  0  0  0  0  0  0  0  0  0  0  0
    6.1352    1.1682   25.6644 H   0  0  0  0  0  0  0  0  0  0  0  0
    7.6701    1.8339   23.6451 C   0  0  0  0  0  0  0  0  0  0  0  0
    8.8378    2.0424   22.9509 C   0  0  0  0  0  0  0  0  0  0  0  0
    9.0318    2.0208   21.4597 C   0  0  0  0  0  0  0  0  0  0  0  0
    9.5095    0.6346   20.9521 C   0  0  0  0  0  0  0  0  0  0  0  0
    8.6319   -0.4863   21.4030 C   0  0  0  0  0  0  0  0  0  0  0  0
    8.8623   -1.3003   22.4120 N   0  0  0  0  0  0  0  0  0  0  0  0
    7.6604   -1.9131   22.5953 C   0  0  0  0  0  0  0  0  0  0  0  0
    7.3993   -2.8050   23.7702 C   0  0  0  0  0  0  0  0  0  0  0  0
    7.1312   -1.9683   25.0492 C   0  0  0  0  0  0  0  0  0  0  0  0
    6.8805   -2.8610   26.2673 C   0  0  0  0  0  0  0  0  0  0  0  0
    8.0199   -3.8725   26.4920 C   0  0  0  0  0  0  0  0  0  0  0  0
    7.7452   -4.7971   27.6801 C   0  0  0  0  0  0  0  0  0  0  0  0
    7.6005   -4.2502   28.6065 H   0  0  0  0  0  0  0  0  0  0  0  0
    8.5738   -5.4911   27.8631 H   0  0  0  0  0  0  0  0  0  0  0  0
    6.8293   -5.3800   27.5180 H   0  0  0  0  0  0  0  0  0  0  0  0
    8.2803   -4.6933   25.2181 C   0  0  0  0  0  0  0  0  0  0  0  0
    8.5487   -3.8111   23.9971 C   0  0  0  0  0  0  0  0  0  0  0  0
    8.6945   -4.4302   23.1050 H   0  0  0  0  0  0  0  0  0  0  0  0
    9.4857   -3.2551   24.1401 H   0  0  0  0  0  0  0  0  0  0  0  0
    9.1209   -5.3778   25.3879 H   0  0  0  0  0  0  0  0  0  0  0  0
    7.4048   -5.3341   25.0312 H   0  0  0  0  0  0  0  0  0  0  0  0
    8.9321   -3.2905   26.7027 H   0  0  0  0  0  0  0  0  0  0  0  0
    5.9394   -3.4143   26.1284 H   0  0  0  0  0  0  0  0  0  0  0  0
    6.7393   -2.2465   27.1662 H   0  0  0  0  0  0  0  0  0  0  0  0
    8.0109   -1.3321   25.2345 H   0  0  0  0  0  0  0  0  0  0  0  0
    6.2833   -1.2874   24.8891 H   0  0  0  0  0  0  0  0  0  0  0  0
    6.4858   -3.3573   23.5247 H   0  0  0  0  0  0  0  0  0  0  0  0
    6.7258   -1.5707   21.7326 N   0  0  0  0  0  0  0  0  0  0  0  0
    7.3588   -0.6626   20.9386 N   0  0  0  0  0  0  0  0  0  0  0  0
    6.6570    0.0063   19.8999 C   0  0  0  0  0  0  0  0  0  0  0  0
    5.4387    0.6429   20.1605 C   0  0  0  0  0  0  0  0  0  0  0  0
    4.8126    1.3107   19.1054 C   0  0  0  0  0  0  0  0  0  0  0  0
    5.3992    1.2973   17.8343 C   0  0  0  0  0  0  0  0  0  0  0  0
    6.5576    0.6713   17.5728 N   0  0  0  0  0  0  0  0  0  0  0  0
    7.1669    0.0512   18.5912 C   0  0  0  0  0  0  0  0  0  0  0  0
    8.1124   -0.4350   18.3651 H   0  0  0  0  0  0  0  0  0  0  0  0
    4.9236    1.7896   16.9899 H   0  0  0  0  0  0  0  0  0  0  0  0
    3.8814    1.8383   19.2585 H   0  0  0  0  0  0  0  0  0  0  0  0
    5.0138    0.6041   21.1672 H   0  0  0  0  0  0  0  0  0  0  0  0
    9.5720    0.6400   19.8630 H   0  0  0  0  0  0  0  0  0  0  0  0
   10.5138    0.4287   21.3318 H   0  0  0  0  0  0  0  0  0  0  0  0
    8.0876    2.2757   20.9633 H   0  0  0  0  0  0  0  0  0  0  0  0
    9.7498    2.7897   21.1472 H   0  0  0  0  0  0  0  0  0  0  0  0
    6.6519    1.6762   23.3076 H   0  0  0  0  0  0  0  0  0  0  0  0
   11.7447    1.2418   23.4541 H   0  0  0  0  0  0  0  0  0  0  0  0
   11.5164    2.8956   22.9370 H   0  0  0  0  0  0  0  0  0  0  0  0
   11.8163    2.5369   24.6517 H   0  0  0  0  0  0  0  0  0  0  0  0
  1  2  1  0
  2  3  2  0
  3  4  1  0
  4  5  1  0
  5  6  1  0
  5  7  1  0
  5  8  1  0
  4  9  1  0
  9 10  2  0
 10 11  1  0
 11 12  1  0
 12 13  1  0
 13 14  2  0
 14 15  1  0
 15 16  1  0
 16 17  1  0
 17 18  1  0
 18 19  1  0
 19 20  1  0
 20 21  1  0
 20 22  1  0
 20 23  1  0
 19 24  1  0
 24 25  1  0
 25 26  1  0
 25 27  1  0
 24 28  1  0
 24 29  1  0
 19 30  1  0
 18 31  1  0
 18 32  1  0
 17 33  1  0
 17 34  1  0
 16 35  1  0
 15 36  2  0
 36 37  1  0
 37 38  1  0
 38 39  2  0
 39 40  1  0
 40 41  2  0
 41 42  1  0
 42 43  2  0
 43 44  1  0
 41 45  1  0
 40 46  1  0
 39 47  1  0
 12 48  1  0
 12 49  1  0
 11 50  1  0
 11 51  1  0
  9 52  1  0
  1 53  1  0
  1 54  1  0
  1 55  1  0
 10  2  1  0
 37 13  1  0
 43 38  1  0
 25 16  1  0
M  END
>  <cnnaffinity>  (1) 
-6.53681

>  <filename>  (1) 
Cc1nn(C)cc1CCc1nc(C2CCC(C)CC2)nn1-c1cccnc1

$$$$
