
     RDKit          3D

 46 49  0  0  0  0  0  0  0  0999 V2000
   11.1213    0.1542   24.5513 C   0  0  0  0  0  0  0  0  0  0  0  0
   11.5313    1.4799   24.0096 C   0  0  0  0  0  0  0  0  0  0  0  0
   12.7469    1.9621   24.0986 N   0  0  0  0  0  0  0  0  0  0  0  0
   12.7147    3.1732   23.4556 C   0  0  0  0  0  0  0  0  0  0  0  0
   11.4651    3.4285   22.9791 C   0  0  0  0  0  0  0  0  0  0  0  0
   10.6947    2.3367   23.3380 N   0  0  0  0  0  0  0  0  0  0  0  0
    9.2862    2.1829   22.9803 C   0  0  0  0  0  0  0  0  0  0  0  0
    9.0646    1.9944   21.4758 C   0  0  0  0  0  0  0  0  0  0  0  0
    9.5173    0.6152   20.9619 C   0  0  0  0  0  0  0  0  0  0  0  0
    8.6299   -0.4909   21.4213 C   0  0  0  0  0  0  0  0  0  0  0  0
    8.8485   -1.3237   22.4154 N   0  0  0  0  0  0  0  0  0  0  0  0
    7.6719   -1.9948   22.5432 C   0  0  0  0  0  0  0  0  0  0  0  0
    7.4586   -3.0255   23.5890 C   0  0  0  0  0  0  0  0  0  0  0  0
    6.2313   -3.7165   23.6537 C   0  0  0  0  0  0  0  0  0  0  0  0
    6.0547   -4.6781   24.6424 C   0  0  0  0  0  0  0  0  0  0  0  0
    4.8849   -5.3314   24.6961 F   0  0  0  0  0  0  0  0  0  0  0  0
    7.0415   -4.9887   25.5760 C   0  0  0  0  0  0  0  0  0  0  0  0
    8.2547   -4.2977   25.5064 C   0  0  0  0  0  0  0  0  0  0  0  0
    8.4683   -3.3259   24.5268 C   0  0  0  0  0  0  0  0  0  0  0  0
    9.4237   -2.8086   24.4926 H   0  0  0  0  0  0  0  0  0  0  0  0
    9.0387   -4.5230   26.2242 H   0  0  0  0  0  0  0  0  0  0  0  0
    6.8486   -5.7496   26.3277 H   0  0  0  0  0  0  0  0  0  0  0  0
    5.4252   -3.5057   22.9530 H   0  0  0  0  0  0  0  0  0  0  0  0
    6.7471   -1.6288   21.6720 N   0  0  0  0  0  0  0  0  0  0  0  0
    7.3644   -0.6723   20.9406 N   0  0  0  0  0  0  0  0  0  0  0  0
    6.6606    0.0074   19.9035 C   0  0  0  0  0  0  0  0  0  0  0  0
    5.4412    0.6421   20.1675 C   0  0  0  0  0  0  0  0  0  0  0  0
    4.8130    1.3093   19.1106 C   0  0  0  0  0  0  0  0  0  0  0  0
    5.4016    1.2954   17.8388 C   0  0  0  0  0  0  0  0  0  0  0  0
    6.5609    0.6729   17.5769 N   0  0  0  0  0  0  0  0  0  0  0  0
    7.1689    0.0527   18.5936 C   0  0  0  0  0  0  0  0  0  0  0  0
    8.1139   -0.4361   18.3702 H   0  0  0  0  0  0  0  0  0  0  0  0
    4.9185    1.7843   16.9950 H   0  0  0  0  0  0  0  0  0  0  0  0
    3.8798    1.8397   19.2618 H   0  0  0  0  0  0  0  0  0  0  0  0
    5.0157    0.6109   21.1738 H   0  0  0  0  0  0  0  0  0  0  0  0
   10.5298    0.3931   21.3096 H   0  0  0  0  0  0  0  0  0  0  0  0
    9.5545    0.6246   19.8699 H   0  0  0  0  0  0  0  0  0  0  0  0
    8.0037    2.1472   21.2396 H   0  0  0  0  0  0  0  0  0  0  0  0
    9.6103    2.7807   20.9474 H   0  0  0  0  0  0  0  0  0  0  0  0
    8.7497    3.0706   23.3266 H   0  0  0  0  0  0  0  0  0  0  0  0
    8.8743    1.3359   23.5327 H   0  0  0  0  0  0  0  0  0  0  0  0
   11.0593    4.2630   22.4232 H   0  0  0  0  0  0  0  0  0  0  0  0
   13.5938    3.8023   23.3919 H   0  0  0  0  0  0  0  0  0  0  0  0
   10.1634    0.2084   25.0770 H   0  0  0  0  0  0  0  0  0  0  0  0
   11.8884   -0.2036   25.2427 H   0  0  0  0  0  0  0  0  0  0  0  0
   11.0074   -0.5704   23.7385 H   0  0  0  0  0  0  0  0  0  0  0  0
  1  2  1  0
  2  3  2  0
  3  4  1  0
  4  5  2  0
  5  6  1  0
  6  7  1  0
  7  8  1  0
  8  9  1  0
  9 10  1  0
 10 11  2  0
 11 12  1  0
 12 13  1  0
 13 14  2  0
 14 15  1  0
 15 16  1  0
 15 17  2  0
 17 18  1  0
 18 19  2  0
 19 20  1  0
 18 21  1  0
 17 22  1  0
 14 23  1  0
 12 24  2  0
 24 25  1  0
 25 26  1  0
 26 27  2  0
 27 28  1  0
 28 29  2  0
 29 30  1  0
 30 31  2  0
 31 32  1  0
 29 33  1  0
 28 34  1  0
 27 35  1  0
  9 36  1  0
  9 37  1  0
  8 38  1  0
  8 39  1  0
  7 40  1  0
  7 41  1  0
  5 42  1  0
  4 43  1  0
  1 44  1  0
  1 45  1  0
  1 46  1  0
  6  2  1  0
 25 10  1  0
 31 26  1  0
 19 13  1  0
M  END
>  <cnnaffinity>  (1) 
-6.2111

>  <filename>  (1) 
Cc1nccn1CCCc1nc(-c2cccc(F)c2)nn1-c1cccnc1

$$$$
