
     RDKit          3D

 42 45  0  0  0  0  0  0  0  0999 V2000
    5.5031   -1.1875   26.6173 C   0  0  0  0  0  0  0  0  0  0  0  0
    6.1895   -0.0579   25.9400 C   0  0  0  0  0  0  0  0  0  0  0  0
    6.0833    0.3163   24.7071 N   0  0  0  0  0  0  0  0  0  0  0  0
    6.9740    1.3719   24.5756 C   0  0  0  0  0  0  0  0  0  0  0  0
    7.2117    1.9253   23.2036 C   0  0  0  0  0  0  0  0  0  0  0  0
    8.1571    1.0165   22.4945 C   0  0  0  0  0  0  0  0  0  0  0  0
    9.4608    1.1017   22.6052 N   0  0  0  0  0  0  0  0  0  0  0  0
    9.8960   -0.0484   22.0239 C   0  0  0  0  0  0  0  0  0  0  0  0
   11.3124   -0.4035   21.8706 C   0  0  0  0  0  0  0  0  0  0  0  0
   12.3244    0.4500   22.3487 C   0  0  0  0  0  0  0  0  0  0  0  0
   13.6613    0.0671   22.2294 C   0  0  0  0  0  0  0  0  0  0  0  0
   13.9831   -1.1064   21.5395 C   0  0  0  0  0  0  0  0  0  0  0  0
   12.9873   -1.8759   20.9432 C   0  0  0  0  0  0  0  0  0  0  0  0
   11.6546   -1.5799   21.1858 C   0  0  0  0  0  0  0  0  0  0  0  0
   10.8662   -2.2518   20.8613 H   0  0  0  0  0  0  0  0  0  0  0  0
   13.2722   -2.6814   20.2727 H   0  0  0  0  0  0  0  0  0  0  0  0
   14.9952   -1.4460   21.4358 H   0  0  0  0  0  0  0  0  0  0  0  0
   14.4526    0.6825   22.6500 H   0  0  0  0  0  0  0  0  0  0  0  0
   12.0254    1.3972   22.7948 H   0  0  0  0  0  0  0  0  0  0  0  0
    8.9209   -0.8180   21.5569 N   0  0  0  0  0  0  0  0  0  0  0  0
    7.8066   -0.1212   21.8628 N   0  0  0  0  0  0  0  0  0  0  0  0
    6.4956   -0.5438   21.3796 C   0  0  0  0  0  0  0  0  0  0  0  0
    6.0818    0.1430   20.0922 C   0  0  0  0  0  0  0  0  0  0  0  0
    4.8903    0.8588   19.9377 C   0  0  0  0  0  0  0  0  0  0  0  0
    4.6489    1.5146   18.7271 C   0  0  0  0  0  0  0  0  0  0  0  0
    5.5970    1.4142   17.7073 C   0  0  0  0  0  0  0  0  0  0  0  0
    6.7279    0.7014   17.8190 N   0  0  0  0  0  0  0  0  0  0  0  0
    6.9500    0.0925   18.9867 C   0  0  0  0  0  0  0  0  0  0  0  0
    7.8768   -0.4714   19.0683 H   0  0  0  0  0  0  0  0  0  0  0  0
    5.4501    1.9286   16.7602 H   0  0  0  0  0  0  0  0  0  0  0  0
    3.7578    2.1125   18.5679 H   0  0  0  0  0  0  0  0  0  0  0  0
    4.1545    0.9043   20.7431 H   0  0  0  0  0  0  0  0  0  0  0  0
    6.5705   -1.6272   21.2506 H   0  0  0  0  0  0  0  0  0  0  0  0
    5.7910   -0.3438   22.1903 H   0  0  0  0  0  0  0  0  0  0  0  0
    7.6657    2.9169   23.2256 H   0  0  0  0  0  0  0  0  0  0  0  0
    6.2596    1.9839   22.6700 H   0  0  0  0  0  0  0  0  0  0  0  0
    7.5851    1.5713   25.7636 C   0  0  0  0  0  0  0  0  0  0  0  0
    7.0947    0.6494   26.6490 O   0  0  0  0  0  0  0  0  0  0  0  0
    8.3160    2.2733   26.1440 H   0  0  0  0  0  0  0  0  0  0  0  0
    6.0581   -2.1081   26.4120 H   0  0  0  0  0  0  0  0  0  0  0  0
    5.4578   -1.0375   27.6960 H   0  0  0  0  0  0  0  0  0  0  0  0
    4.4995   -1.2952   26.2081 H   0  0  0  0  0  0  0  0  0  0  0  0
  1  2  1  0
  2  3  2  0
  3  4  1  0
  4  5  1  0
  5  6  1  0
  6  7  2  0
  7  8  1  0
  8  9  1  0
  9 10  2  0
 10 11  1  0
 11 12  2  0
 12 13  1  0
 13 14  2  0
 14 15  1  0
 13 16  1  0
 12 17  1  0
 11 18  1  0
 10 19  1  0
  8 20  2  0
 20 21  1  0
 21 22  1  0
 22 23  1  0
 23 24  2  0
 24 25  1  0
 25 26  2  0
 26 27  1  0
 27 28  2  0
 28 29  1  0
 26 30  1  0
 25 31  1  0
 24 32  1  0
 22 33  1  0
 22 34  1  0
  5 35  1  0
  5 36  1  0
  4 37  2  0
 37 38  1  0
 37 39  1  0
  1 40  1  0
  1 41  1  0
  1 42  1  0
 38  2  1  0
 21  6  1  0
 28 23  1  0
 14  9  1  0
M  END
>  <cnnaffinity>  (1) 
-6.29618

>  <filename>  (1) 
Cc1nc(Cc2nc(-c3ccccc3)nn2Cc2cccnc2)co1

$$$$
