
     RDKit          3D

 46 49  0  0  0  0  0  0  0  0999 V2000
   12.1068    2.1418   24.4978 C   0  0  0  0  0  0  0  0  0  0  0  0
   11.0366    2.0288   23.4773 C   0  0  0  0  0  0  0  0  0  0  0  0
   11.0793    1.1885   22.4645 N   0  0  0  0  0  0  0  0  0  0  0  0
    9.9048    1.3277   21.8159 N   0  0  0  0  0  0  0  0  0  0  0  0
    9.5829    0.3071   20.8253 C   0  0  0  0  0  0  0  0  0  0  0  0
    8.5405   -0.6259   21.3407 C   0  0  0  0  0  0  0  0  0  0  0  0
    8.7270   -1.4186   22.3759 N   0  0  0  0  0  0  0  0  0  0  0  0
    7.5244   -2.0280   22.5325 C   0  0  0  0  0  0  0  0  0  0  0  0
    7.2902   -3.0021   23.6611 C   0  0  0  0  0  0  0  0  0  0  0  0
    6.5507   -4.2778   23.2291 C   0  0  0  0  0  0  0  0  0  0  0  0
    7.1214   -4.8128   22.4609 H   0  0  0  0  0  0  0  0  0  0  0  0
    6.4328   -4.9479   24.0884 H   0  0  0  0  0  0  0  0  0  0  0  0
    5.5602   -4.0320   22.8262 H   0  0  0  0  0  0  0  0  0  0  0  0
    6.6065   -2.2927   24.8332 C   0  0  0  0  0  0  0  0  0  0  0  0
    6.8913   -2.6722   26.2591 C   0  0  0  0  0  0  0  0  0  0  0  0
    7.4189   -1.3783   25.7046 C   0  0  0  0  0  0  0  0  0  0  0  0
    6.9705   -0.4458   26.0335 H   0  0  0  0  0  0  0  0  0  0  0  0
    8.4896   -1.3198   25.5058 H   0  0  0  0  0  0  0  0  0  0  0  0
    6.0585   -2.6234   26.9535 H   0  0  0  0  0  0  0  0  0  0  0  0
    7.6086   -3.4623   26.4730 H   0  0  0  0  0  0  0  0  0  0  0  0
    5.5801   -1.9781   24.6262 H   0  0  0  0  0  0  0  0  0  0  0  0
    8.3035   -3.2774   23.9810 H   0  0  0  0  0  0  0  0  0  0  0  0
    6.6063   -1.6578   21.6561 N   0  0  0  0  0  0  0  0  0  0  0  0
    7.2770   -0.7842   20.8551 N   0  0  0  0  0  0  0  0  0  0  0  0
    6.5927   -0.0865   19.8203 C   0  0  0  0  0  0  0  0  0  0  0  0
    5.3976    0.5866   20.0937 C   0  0  0  0  0  0  0  0  0  0  0  0
    4.8025    1.3130   19.0576 C   0  0  0  0  0  0  0  0  0  0  0  0
    5.4015    1.3269   17.7918 C   0  0  0  0  0  0  0  0  0  0  0  0
    6.5294    0.6561   17.5132 N   0  0  0  0  0  0  0  0  0  0  0  0
    7.1010   -0.0314   18.5104 C   0  0  0  0  0  0  0  0  0  0  0  0
    8.0168   -0.5654   18.2692 H   0  0  0  0  0  0  0  0  0  0  0  0
    4.9522    1.8764   16.9656 H   0  0  0  0  0  0  0  0  0  0  0  0
    3.8842    1.8657   19.2171 H   0  0  0  0  0  0  0  0  0  0  0  0
    4.9593    0.5395   21.0937 H   0  0  0  0  0  0  0  0  0  0  0  0
    9.3198    0.7619   19.8694 H   0  0  0  0  0  0  0  0  0  0  0  0
   10.4860   -0.2895   20.6903 H   0  0  0  0  0  0  0  0  0  0  0  0
    9.0766    2.2399   22.4225 C   0  0  0  0  0  0  0  0  0  0  0  0
    7.6947    2.6482   22.0181 C   0  0  0  0  0  0  0  0  0  0  0  0
    7.5954    2.6644   20.9317 H   0  0  0  0  0  0  0  0  0  0  0  0
    6.9204    1.9770   22.4144 H   0  0  0  0  0  0  0  0  0  0  0  0
    7.4860    3.6452   22.4214 H   0  0  0  0  0  0  0  0  0  0  0  0
    9.8064    2.7068   23.4951 C   0  0  0  0  0  0  0  0  0  0  0  0
    9.3406    3.9087   24.6424 Cl  0  0  0  0  0  0  0  0  0  0  0  0
   11.8727    1.4796   25.3386 H   0  0  0  0  0  0  0  0  0  0  0  0
   12.0886    3.1709   24.8625 H   0  0  0  0  0  0  0  0  0  0  0  0
   13.0877    1.8745   24.0949 H   0  0  0  0  0  0  0  0  0  0  0  0
  1  2  1  0
  2  3  2  0
  3  4  1  0
  4  5  1  0
  5  6  1  0
  6  7  2  0
  7  8  1  0
  8  9  1  0
  9 10  1  0
 10 11  1  0
 10 12  1  0
 10 13  1  0
  9 14  1  0
 14 15  1  0
 15 16  1  0
 16 17  1  0
 16 18  1  0
 15 19  1  0
 15 20  1  0
 14 21  1  0
  9 22  1  0
  8 23  2  0
 23 24  1  0
 24 25  1  0
 25 26  2  0
 26 27  1  0
 27 28  2  0
 28 29  1  0
 29 30  2  0
 30 31  1  0
 28 32  1  0
 27 33  1  0
 26 34  1  0
  5 35  1  0
  5 36  1  0
  4 37  1  0
 37 38  1  0
 38 39  1  0
 38 40  1  0
 38 41  1  0
 37 42  2  0
 42 43  1  0
  1 44  1  0
  1 45  1  0
  1 46  1  0
 42  2  1  0
 24  6  1  0
 30 25  1  0
 16 14  1  0
M  END
>  <cnnaffinity>  (1) 
-6.23645

>  <filename>  (1) 
Cc1nn(Cc2nc(C(C)C3CC3)nn2-c2cccnc2)c(C)c1Cl

$$$$
