
     RDKit          3D

 42 45  0  0  0  0  0  0  0  0999 V2000
    5.5113   -0.7475   26.3286 C   0  0  0  0  0  0  0  0  0  0  0  0
    6.5279    0.0449   25.5913 C   0  0  0  0  0  0  0  0  0  0  0  0
    7.7476    0.2457   26.0484 N   0  0  0  0  0  0  0  0  0  0  0  0
    8.2993    1.0130   25.0740 N   0  0  0  0  0  0  0  0  0  0  0  0
    7.4100    1.2120   24.0836 C   0  0  0  0  0  0  0  0  0  0  0  0
    7.7657    1.8536   22.7792 C   0  0  0  0  0  0  0  0  0  0  0  0
    8.7683    0.9690   22.1358 C   0  0  0  0  0  0  0  0  0  0  0  0
   10.0502    1.0099   22.4469 N   0  0  0  0  0  0  0  0  0  0  0  0
   10.5251   -0.1552   21.9408 C   0  0  0  0  0  0  0  0  0  0  0  0
   11.9370   -0.5845   21.8910 C   0  0  0  0  0  0  0  0  0  0  0  0
   12.1674   -1.7712   21.1694 C   0  0  0  0  0  0  0  0  0  0  0  0
   13.4029   -2.0558   20.6251 C   0  0  0  0  0  0  0  0  0  0  0  0
   14.4095   -1.1318   20.8117 C   0  0  0  0  0  0  0  0  0  0  0  0
   15.4102   -1.1710   19.9205 F   0  0  0  0  0  0  0  0  0  0  0  0
   14.3068   -0.1038   21.7641 C   0  0  0  0  0  0  0  0  0  0  0  0
   13.0507    0.1721   22.3168 C   0  0  0  0  0  0  0  0  0  0  0  0
   12.9635    1.0119   23.0085 H   0  0  0  0  0  0  0  0  0  0  0  0
   15.1431    0.5697   21.9326 H   0  0  0  0  0  0  0  0  0  0  0  0
   13.6024   -2.9192   19.9985 H   0  0  0  0  0  0  0  0  0  0  0  0
   11.2966   -2.3732   20.9465 H   0  0  0  0  0  0  0  0  0  0  0  0
    9.5879   -0.9071   21.3681 N   0  0  0  0  0  0  0  0  0  0  0  0
    8.4653   -0.1799   21.4993 N   0  0  0  0  0  0  0  0  0  0  0  0
    7.1726   -0.7145   21.0745 C   0  0  0  0  0  0  0  0  0  0  0  0
    6.5210    0.0474   19.9389 C   0  0  0  0  0  0  0  0  0  0  0  0
    5.2949    0.7052   20.0873 C   0  0  0  0  0  0  0  0  0  0  0  0
    4.7410    1.3632   18.9866 C   0  0  0  0  0  0  0  0  0  0  0  0
    5.4369    1.3424   17.7755 C   0  0  0  0  0  0  0  0  0  0  0  0
    6.6132    0.7177   17.6120 N   0  0  0  0  0  0  0  0  0  0  0  0
    7.1358    0.0962   18.6758 C   0  0  0  0  0  0  0  0  0  0  0  0
    8.0933   -0.3992   18.5145 H   0  0  0  0  0  0  0  0  0  0  0  0
    5.0344    1.8426   16.8965 H   0  0  0  0  0  0  0  0  0  0  0  0
    3.8008    1.8968   19.0586 H   0  0  0  0  0  0  0  0  0  0  0  0
    4.7844    0.7055   21.0544 H   0  0  0  0  0  0  0  0  0  0  0  0
    6.5123   -0.7275   21.9510 H   0  0  0  0  0  0  0  0  0  0  0  0
    7.3682   -1.7531   20.7872 H   0  0  0  0  0  0  0  0  0  0  0  0
    6.8597    1.9504   22.1823 H   0  0  0  0  0  0  0  0  0  0  0  0
    8.2202    2.8306   22.9375 H   0  0  0  0  0  0  0  0  0  0  0  0
    6.2764    0.6225   24.3746 N   0  0  0  0  0  0  0  0  0  0  0  0
    9.3015    1.1338   25.0004 H   0  0  0  0  0  0  0  0  0  0  0  0
    4.8767   -0.0832   26.9199 H   0  0  0  0  0  0  0  0  0  0  0  0
    4.8805   -1.2882   25.6230 H   0  0  0  0  0  0  0  0  0  0  0  0
    5.9995   -1.4530   27.0011 H   0  0  0  0  0  0  0  0  0  0  0  0
  1  2  1  0
  2  3  2  0
  3  4  1  0
  4  5  1  0
  5  6  1  0
  6  7  1  0
  7  8  2  0
  8  9  1  0
  9 10  1  0
 10 11  2  0
 11 12  1  0
 12 13  2  0
 13 14  1  0
 13 15  1  0
 15 16  2  0
 16 17  1  0
 15 18  1  0
 12 19  1  0
 11 20  1  0
  9 21  2  0
 21 22  1  0
 22 23  1  0
 23 24  1  0
 24 25  2  0
 25 26  1  0
 26 27  2  0
 27 28  1  0
 28 29  2  0
 29 30  1  0
 27 31  1  0
 26 32  1  0
 25 33  1  0
 23 34  1  0
 23 35  1  0
  6 36  1  0
  6 37  1  0
  5 38  2  0
  4 39  1  0
  1 40  1  0
  1 41  1  0
  1 42  1  0
 38  2  1  0
 22  7  1  0
 29 24  1  0
 16 10  1  0
M  END
>  <cnnaffinity>  (1) 
-6.46253

>  <filename>  (1) 
Cc1n[nH]c(Cc2nc(-c3ccc(F)cc3)nn2Cc2cccnc2)n1

$$$$
