
     RDKit          3D

 45 49  0  0  0  0  0  0  0  0999 V2000
   11.9519   -1.1733   21.7507 C   0  0  0  0  0  0  0  0  0  0  0  0
   11.5872    0.2003   22.2311 C   0  0  0  0  0  0  0  0  0  0  0  0
   12.4289    0.7622   23.1032 N   0  0  0  0  0  0  0  0  0  0  0  0
   12.0784    1.9468   23.5889 C   0  0  0  0  0  0  0  0  0  0  0  0
   10.9659    2.6182   23.3076 N   0  0  0  0  0  0  0  0  0  0  0  0
   10.1347    2.0659   22.4184 C   0  0  0  0  0  0  0  0  0  0  0  0
    8.8627    2.8144   22.1253 C   0  0  0  0  0  0  0  0  0  0  0  0
    8.8423    3.1522   21.0824 H   0  0  0  0  0  0  0  0  0  0  0  0
    8.7857    3.6892   22.7746 H   0  0  0  0  0  0  0  0  0  0  0  0
    7.9852    2.1755   22.2823 H   0  0  0  0  0  0  0  0  0  0  0  0
   10.4206    0.8476   21.7898 C   0  0  0  0  0  0  0  0  0  0  0  0
    9.4671    0.2167   20.7772 C   0  0  0  0  0  0  0  0  0  0  0  0
    8.3324   -0.5935   21.3623 C   0  0  0  0  0  0  0  0  0  0  0  0
    8.4788   -1.4355   22.3626 N   0  0  0  0  0  0  0  0  0  0  0  0
    7.2529   -2.0105   22.4851 C   0  0  0  0  0  0  0  0  0  0  0  0
    7.0932   -3.0476   23.5209 C   0  0  0  0  0  0  0  0  0  0  0  0
    5.8100   -3.7907   23.8443 C   0  0  0  0  0  0  0  0  0  0  0  0
    6.9497   -4.4914   23.1464 C   0  0  0  0  0  0  0  0  0  0  0  0
    7.2772   -5.2305   21.9027 C   0  0  0  0  0  0  0  0  0  0  0  0
    7.9428   -5.5905   23.2338 C   0  0  0  0  0  0  0  0  0  0  0  0
    7.6873   -6.5441   23.6774 H   0  0  0  0  0  0  0  0  0  0  0  0
    8.9761   -5.2726   23.3919 H   0  0  0  0  0  0  0  0  0  0  0  0
    6.5344   -5.9250   21.5112 H   0  0  0  0  0  0  0  0  0  0  0  0
    7.8436   -4.6587   21.1695 H   0  0  0  0  0  0  0  0  0  0  0  0
    5.6451   -4.0461   24.8939 H   0  0  0  0  0  0  0  0  0  0  0  0
    4.9183   -3.5708   23.2589 H   0  0  0  0  0  0  0  0  0  0  0  0
    7.7784   -2.8744   24.3501 H   0  0  0  0  0  0  0  0  0  0  0  0
    6.3506   -1.5730   21.6283 N   0  0  0  0  0  0  0  0  0  0  0  0
    7.0486   -0.6604   20.8881 N   0  0  0  0  0  0  0  0  0  0  0  0
    6.4430    0.0286   19.7866 C   0  0  0  0  0  0  0  0  0  0  0  0
    5.2589    0.7590   19.9425 C   0  0  0  0  0  0  0  0  0  0  0  0
    4.7531    1.4449   18.8294 C   0  0  0  0  0  0  0  0  0  0  0  0
    5.4280    1.3575   17.6064 C   0  0  0  0  0  0  0  0  0  0  0  0
    6.5389    0.6269   17.4351 N   0  0  0  0  0  0  0  0  0  0  0  0
    7.0274   -0.0162   18.5044 C   0  0  0  0  0  0  0  0  0  0  0  0
    7.9312   -0.6010   18.3466 H   0  0  0  0  0  0  0  0  0  0  0  0
    5.0642    1.8936   16.7310 H   0  0  0  0  0  0  0  0  0  0  0  0
    3.8531    2.0468   18.8939 H   0  0  0  0  0  0  0  0  0  0  0  0
    4.7413    0.7668   20.9013 H   0  0  0  0  0  0  0  0  0  0  0  0
    9.0511    0.9905   20.1278 H   0  0  0  0  0  0  0  0  0  0  0  0
   10.0252   -0.4746   20.1316 H   0  0  0  0  0  0  0  0  0  0  0  0
   12.7702    2.4008   24.2953 H   0  0  0  0  0  0  0  0  0  0  0  0
   12.8832   -1.5007   22.2174 H   0  0  0  0  0  0  0  0  0  0  0  0
   11.1525   -1.8825   21.9924 H   0  0  0  0  0  0  0  0  0  0  0  0
   12.0846   -1.1921   20.6647 H   0  0  0  0  0  0  0  0  0  0  0  0
  1  2  1  0
  2  3  2  0
  3  4  1  0
  4  5  2  0
  5  6  1  0
  6  7  1  0
  7  8  1  0
  7  9  1  0
  7 10  1  0
  6 11  2  0
 11 12  1  0
 12 13  1  0
 13 14  2  0
 14 15  1  0
 15 16  1  0
 16 17  1  0
 17 18  1  0
 18 19  1  0
 19 20  1  0
 20 21  1  0
 20 22  1  0
 19 23  1  0
 19 24  1  0
 17 25  1  0
 17 26  1  0
 16 27  1  0
 15 28  2  0
 28 29  1  0
 29 30  1  0
 30 31  2  0
 31 32  1  0
 32 33  2  0
 33 34  1  0
 34 35  2  0
 35 36  1  0
 33 37  1  0
 32 38  1  0
 31 39  1  0
 12 40  1  0
 12 41  1  0
  4 42  1  0
  1 43  1  0
  1 44  1  0
  1 45  1  0
 11  2  1  0
 29 13  1  0
 35 30  1  0
 18 16  1  0
 20 18  1  0
M  END
>  <cnnaffinity>  (1) 
-6.47644

>  <filename>  (1) 
Cc1ncnc(C)c1Cc1nc(C2CC23CC3)nn1-c1cccnc1

$$$$
