
     RDKit          3D

 44 47  0  0  0  0  0  0  0  0999 V2000
    8.7264    2.7303   22.1337 C   0  0  0  0  0  0  0  0  0  0  0  0
   10.0521    2.1074   22.4575 C   0  0  0  0  0  0  0  0  0  0  0  0
   10.7841    2.7021   23.3991 N   0  0  0  0  0  0  0  0  0  0  0  0
   11.9115    2.1007   23.7562 C   0  0  0  0  0  0  0  0  0  0  0  0
   12.3930    0.9640   23.2660 N   0  0  0  0  0  0  0  0  0  0  0  0
   11.6699    0.3841   22.3037 C   0  0  0  0  0  0  0  0  0  0  0  0
   12.1760   -0.9311   21.7933 C   0  0  0  0  0  0  0  0  0  0  0  0
   12.1865   -0.9885   20.7032 H   0  0  0  0  0  0  0  0  0  0  0  0
   11.5063   -1.7252   22.1326 H   0  0  0  0  0  0  0  0  0  0  0  0
   13.1845   -1.1376   22.1477 H   0  0  0  0  0  0  0  0  0  0  0  0
   10.4710    0.9301   21.8259 C   0  0  0  0  0  0  0  0  0  0  0  0
    9.5960    0.2026   20.8139 C   0  0  0  0  0  0  0  0  0  0  0  0
    8.5317   -0.6932   21.3930 C   0  0  0  0  0  0  0  0  0  0  0  0
    8.7307   -1.5670   22.3501 N   0  0  0  0  0  0  0  0  0  0  0  0
    7.5126   -2.1630   22.5154 C   0  0  0  0  0  0  0  0  0  0  0  0
    7.3571   -3.2162   23.5411 C   0  0  0  0  0  0  0  0  0  0  0  0
    8.5130   -3.6409   24.2326 C   0  0  0  0  0  0  0  0  0  0  0  0
    8.4412   -4.5416   25.2887 C   0  0  0  0  0  0  0  0  0  0  0  0
    7.1966   -5.0090   25.7183 C   0  0  0  0  0  0  0  0  0  0  0  0
    6.0421   -4.6314   25.0345 C   0  0  0  0  0  0  0  0  0  0  0  0
    6.1255   -3.7954   23.9131 C   0  0  0  0  0  0  0  0  0  0  0  0
    4.6788   -3.5732   22.9772 Cl  0  0  0  0  0  0  0  0  0  0  0  0
    5.0649   -4.9665   25.3647 H   0  0  0  0  0  0  0  0  0  0  0  0
    7.1261   -5.6551   26.5915 H   0  0  0  0  0  0  0  0  0  0  0  0
    9.3476   -4.8715   25.7858 H   0  0  0  0  0  0  0  0  0  0  0  0
    9.4814   -3.2316   23.9455 H   0  0  0  0  0  0  0  0  0  0  0  0
    6.5801   -1.7047   21.7024 N   0  0  0  0  0  0  0  0  0  0  0  0
    7.2408   -0.7890   20.9535 N   0  0  0  0  0  0  0  0  0  0  0  0
    6.5743   -0.0911   19.9036 C   0  0  0  0  0  0  0  0  0  0  0  0
    5.3701    0.5738   20.1531 C   0  0  0  0  0  0  0  0  0  0  0  0
    4.7893    1.2934   19.1047 C   0  0  0  0  0  0  0  0  0  0  0  0
    5.4069    1.2962   17.8483 C   0  0  0  0  0  0  0  0  0  0  0  0
    6.5404    0.6262   17.5912 N   0  0  0  0  0  0  0  0  0  0  0  0
    7.1041   -0.0476   18.6007 C   0  0  0  0  0  0  0  0  0  0  0  0
    8.0317   -0.5719   18.3757 H   0  0  0  0  0  0  0  0  0  0  0  0
    4.9742    1.8450   17.0143 H   0  0  0  0  0  0  0  0  0  0  0  0
    3.8758    1.8577   19.2505 H   0  0  0  0  0  0  0  0  0  0  0  0
    4.9223    0.5210   21.1463 H   0  0  0  0  0  0  0  0  0  0  0  0
    9.1388    0.9333   20.1447 H   0  0  0  0  0  0  0  0  0  0  0  0
   10.2119   -0.4631   20.2002 H   0  0  0  0  0  0  0  0  0  0  0  0
   12.4772    2.5871   24.5448 H   0  0  0  0  0  0  0  0  0  0  0  0
    8.5041    3.5449   22.8269 H   0  0  0  0  0  0  0  0  0  0  0  0
    7.9303    1.9798   22.1865 H   0  0  0  0  0  0  0  0  0  0  0  0
    8.7385    3.1246   21.1138 H   0  0  0  0  0  0  0  0  0  0  0  0
  1  2  1  0
  2  3  2  0
  3  4  1  0
  4  5  2  0
  5  6  1  0
  6  7  1  0
  7  8  1  0
  7  9  1  0
  7 10  1  0
  6 11  2  0
 11 12  1  0
 12 13  1  0
 13 14  2  0
 14 15  1  0
 15 16  1  0
 16 17  2  0
 17 18  1  0
 18 19  2  0
 19 20  1  0
 20 21  2  0
 21 22  1  0
 20 23  1  0
 19 24  1  0
 18 25  1  0
 17 26  1  0
 15 27  2  0
 27 28  1  0
 28 29  1  0
 29 30  2  0
 30 31  1  0
 31 32  2  0
 32 33  1  0
 33 34  2  0
 34 35  1  0
 32 36  1  0
 31 37  1  0
 30 38  1  0
 12 39  1  0
 12 40  1  0
  4 41  1  0
  1 42  1  0
  1 43  1  0
  1 44  1  0
 11  2  1  0
 28 13  1  0
 34 29  1  0
 21 16  1  0
M  END
>  <cnnaffinity>  (1) 
-6.5924

>  <filename>  (1) 
Cc1ncnc(C)c1Cc1nc(-c2ccccc2Cl)nn1-c1cccnc1

$$$$
