
     RDKit          3D

 46 49  0  0  0  0  0  0  0  0999 V2000
   12.2806   -1.5751   21.5269 C   0  0  0  0  0  0  0  0  0  0  0  0
   11.7832   -0.2149   21.8721 C   0  0  0  0  0  0  0  0  0  0  0  0
   12.4145    0.5160   22.7822 N   0  0  0  0  0  0  0  0  0  0  0  0
   11.7106    1.6532   22.8776 N   0  0  0  0  0  0  0  0  0  0  0  0
   12.0067    2.5635   23.9625 C   0  0  0  0  0  0  0  0  0  0  0  0
   11.7436    2.0870   24.9166 H   0  0  0  0  0  0  0  0  0  0  0  0
   11.4096    3.4687   23.8283 H   0  0  0  0  0  0  0  0  0  0  0  0
   13.0714    2.7932   23.9380 H   0  0  0  0  0  0  0  0  0  0  0  0
   10.6362    1.6544   22.0542 C   0  0  0  0  0  0  0  0  0  0  0  0
   10.6270    0.4580   21.3818 C   0  0  0  0  0  0  0  0  0  0  0  0
    9.5088   -0.0373   20.4963 C   0  0  0  0  0  0  0  0  0  0  0  0
    8.4547   -0.8656   21.1824 C   0  0  0  0  0  0  0  0  0  0  0  0
    8.6538   -1.6945   22.1898 N   0  0  0  0  0  0  0  0  0  0  0  0
    7.4163   -2.1763   22.4622 C   0  0  0  0  0  0  0  0  0  0  0  0
    7.1945   -3.1280   23.6040 C   0  0  0  0  0  0  0  0  0  0  0  0
    6.5333   -4.4564   23.1823 C   0  0  0  0  0  0  0  0  0  0  0  0
    6.0090   -5.0757   24.4906 C   0  0  0  0  0  0  0  0  0  0  0  0
    5.7836   -3.8953   25.4722 C   0  0  0  0  0  0  0  0  0  0  0  0
    6.2892   -2.6198   24.7569 C   0  0  0  0  0  0  0  0  0  0  0  0
    5.4446   -2.0540   24.3487 H   0  0  0  0  0  0  0  0  0  0  0  0
    6.8280   -1.9500   25.4400 H   0  0  0  0  0  0  0  0  0  0  0  0
    4.7285   -3.7932   25.7514 H   0  0  0  0  0  0  0  0  0  0  0  0
    6.3317   -4.0726   26.4063 H   0  0  0  0  0  0  0  0  0  0  0  0
    6.7446   -5.7752   24.9086 H   0  0  0  0  0  0  0  0  0  0  0  0
    5.0923   -5.6515   24.3208 H   0  0  0  0  0  0  0  0  0  0  0  0
    5.7056   -4.2297   22.4955 H   0  0  0  0  0  0  0  0  0  0  0  0
    7.2422   -5.1090   22.6565 H   0  0  0  0  0  0  0  0  0  0  0  0
    8.1963   -3.3227   24.0117 H   0  0  0  0  0  0  0  0  0  0  0  0
    6.4667   -1.7349   21.6531 N   0  0  0  0  0  0  0  0  0  0  0  0
    7.1351   -0.9075   20.8088 N   0  0  0  0  0  0  0  0  0  0  0  0
    6.4357   -0.2110   19.7778 C   0  0  0  0  0  0  0  0  0  0  0  0
    5.2763    0.5222   20.0603 C   0  0  0  0  0  0  0  0  0  0  0  0
    4.7387    1.3167   19.0405 C   0  0  0  0  0  0  0  0  0  0  0  0
    5.3347    1.3145   17.7743 C   0  0  0  0  0  0  0  0  0  0  0  0
    6.3859    0.5407   17.4711 N   0  0  0  0  0  0  0  0  0  0  0  0
    6.9060   -0.2091   18.4501 C   0  0  0  0  0  0  0  0  0  0  0  0
    7.7497   -0.8328   18.1694 H   0  0  0  0  0  0  0  0  0  0  0  0
    4.9551    1.9473   16.9731 H   0  0  0  0  0  0  0  0  0  0  0  0
    3.8776    1.9502   19.2122 H   0  0  0  0  0  0  0  0  0  0  0  0
    4.8177    0.4676   21.0475 H   0  0  0  0  0  0  0  0  0  0  0  0
    9.0153    0.8212   20.0291 H   0  0  0  0  0  0  0  0  0  0  0  0
    9.8999   -0.6469   19.6750 H   0  0  0  0  0  0  0  0  0  0  0  0
    9.9643    2.5009   21.9862 H   0  0  0  0  0  0  0  0  0  0  0  0
   13.2594   -1.7427   21.9843 H   0  0  0  0  0  0  0  0  0  0  0  0
   12.3728   -1.6940   20.4454 H   0  0  0  0  0  0  0  0  0  0  0  0
   11.5725   -2.3349   21.8826 H   0  0  0  0  0  0  0  0  0  0  0  0
  1  2  1  0
  2  3  2  0
  3  4  1  0
  4  5  1  0
  5  6  1  0
  5  7  1  0
  5  8  1  0
  4  9  1  0
  9 10  2  0
 10 11  1  0
 11 12  1  0
 12 13  2  0
 13 14  1  0
 14 15  1  0
 15 16  1  0
 16 17  1  0
 17 18  1  0
 18 19  1  0
 19 20  1  0
 19 21  1  0
 18 22  1  0
 18 23  1  0
 17 24  1  0
 17 25  1  0
 16 26  1  0
 16 27  1  0
 15 28  1  0
 14 29  2  0
 29 30  1  0
 30 31  1  0
 31 32  2  0
 32 33  1  0
 33 34  2  0
 34 35  1  0
 35 36  2  0
 36 37  1  0
 34 38  1  0
 33 39  1  0
 32 40  1  0
 11 41  1  0
 11 42  1  0
  9 43  1  0
  1 44  1  0
  1 45  1  0
  1 46  1  0
 10  2  1  0
 30 12  1  0
 36 31  1  0
 19 15  1  0
M  END
>  <cnnaffinity>  (1) 
-6.32651

>  <filename>  (1) 
Cc1nn(C)cc1Cc1nc(C2CCCC2)nn1-c1cccnc1

$$$$
