
     RDKit          3D

 43 46  0  0  0  0  0  0  0  0999 V2000
   13.6393    0.3267   23.3537 C   0  0  0  0  0  0  0  0  0  0  0  0
   12.3320    0.5954   22.6517 C   0  0  0  0  0  0  0  0  0  0  0  0
   11.7859   -0.1119   21.6776 N   0  0  0  0  0  0  0  0  0  0  0  0
   10.6119    0.5193   21.3781 N   0  0  0  0  0  0  0  0  0  0  0  0
    9.5788    0.0238   20.4714 C   0  0  0  0  0  0  0  0  0  0  0  0
    8.5711   -0.7488   21.2426 C   0  0  0  0  0  0  0  0  0  0  0  0
    8.8203   -1.4975   22.2747 N   0  0  0  0  0  0  0  0  0  0  0  0
    7.5656   -1.9844   22.5938 C   0  0  0  0  0  0  0  0  0  0  0  0
    7.3742   -2.9681   23.7150 C   0  0  0  0  0  0  0  0  0  0  0  0
    6.4339   -2.4396   24.7940 C   0  0  0  0  0  0  0  0  0  0  0  0
    5.7936   -3.6731   25.4178 C   0  0  0  0  0  0  0  0  0  0  0  0
    6.0143   -4.8374   24.4474 C   0  0  0  0  0  0  0  0  0  0  0  0
    6.7387   -4.2719   23.2330 C   0  0  0  0  0  0  0  0  0  0  0  0
    7.4950   -4.9702   22.8556 H   0  0  0  0  0  0  0  0  0  0  0  0
    6.0151   -4.0720   22.4320 H   0  0  0  0  0  0  0  0  0  0  0  0
    6.6285   -5.6083   24.9265 H   0  0  0  0  0  0  0  0  0  0  0  0
    5.0630   -5.2886   24.1470 H   0  0  0  0  0  0  0  0  0  0  0  0
    4.7255   -3.4984   25.5840 H   0  0  0  0  0  0  0  0  0  0  0  0
    6.2646   -3.8954   26.3817 H   0  0  0  0  0  0  0  0  0  0  0  0
    5.6554   -1.8136   24.3456 H   0  0  0  0  0  0  0  0  0  0  0  0
    6.9749   -1.8436   25.5389 H   0  0  0  0  0  0  0  0  0  0  0  0
    8.3462   -3.1910   24.1672 H   0  0  0  0  0  0  0  0  0  0  0  0
    6.5886   -1.5521   21.8300 N   0  0  0  0  0  0  0  0  0  0  0  0
    7.2207   -0.7616   20.9442 N   0  0  0  0  0  0  0  0  0  0  0  0
    6.5908   -0.0559   19.9145 C   0  0  0  0  0  0  0  0  0  0  0  0
    5.3772    0.5963   20.1342 C   0  0  0  0  0  0  0  0  0  0  0  0
    4.8134    1.2895   19.0638 C   0  0  0  0  0  0  0  0  0  0  0  0
    5.4622    1.3160   17.8227 C   0  0  0  0  0  0  0  0  0  0  0  0
    6.6353    0.6958   17.6134 N   0  0  0  0  0  0  0  0  0  0  0  0
    7.1835    0.0271   18.6441 C   0  0  0  0  0  0  0  0  0  0  0  0
    8.1343   -0.4721   18.4833 H   0  0  0  0  0  0  0  0  0  0  0  0
    5.0075    1.8542   16.9965 H   0  0  0  0  0  0  0  0  0  0  0  0
    3.8788    1.8206   19.1830 H   0  0  0  0  0  0  0  0  0  0  0  0
    4.9032    0.5792   21.1177 H   0  0  0  0  0  0  0  0  0  0  0  0
   10.0085   -0.6235   19.7126 H   0  0  0  0  0  0  0  0  0  0  0  0
    9.0901    0.8615   19.9724 H   0  0  0  0  0  0  0  0  0  0  0  0
   10.3916    1.6045   22.1984 C   0  0  0  0  0  0  0  0  0  0  0  0
   11.4666    1.6950   23.0123 C   0  0  0  0  0  0  0  0  0  0  0  0
   11.7572    3.0318   24.3340 Br  0  0  0  0  0  0  0  0  0  0  0  0
    9.5139    2.2391   22.2031 H   0  0  0  0  0  0  0  0  0  0  0  0
   14.0709   -0.6079   22.9830 H   0  0  0  0  0  0  0  0  0  0  0  0
   13.4824    0.2549   24.4344 H   0  0  0  0  0  0  0  0  0  0  0  0
   14.3667    1.1270   23.1717 H   0  0  0  0  0  0  0  0  0  0  0  0
  1  2  1  0
  2  3  2  0
  3  4  1  0
  4  5  1  0
  5  6  1  0
  6  7  2  0
  7  8  1  0
  8  9  1  0
  9 10  1  0
 10 11  1  0
 11 12  1  0
 12 13  1  0
 13 14  1  0
 13 15  1  0
 12 16  1  0
 12 17  1  0
 11 18  1  0
 11 19  1  0
 10 20  1  0
 10 21  1  0
  9 22  1  0
  8 23  2  0
 23 24  1  0
 24 25  1  0
 25 26  2  0
 26 27  1  0
 27 28  2  0
 28 29  1  0
 29 30  2  0
 30 31  1  0
 28 32  1  0
 27 33  1  0
 26 34  1  0
  5 35  1  0
  5 36  1  0
  4 37  1  0
 37 38  2  0
 38 39  1  0
 37 40  1  0
  1 41  1  0
  1 42  1  0
  1 43  1  0
 38  2  1  0
 24  6  1  0
 30 25  1  0
 13  9  1  0
M  END
>  <cnnaffinity>  (1) 
-6.56303

>  <filename>  (1) 
Cc1nn(Cc2nc(C3CCCC3)nn2-c2cccnc2)cc1Br

$$$$
