
     RDKit          3D

 44 47  0  0  0  0  0  0  0  0999 V2000
   12.4212   -1.2349   21.5245 C   0  0  0  0  0  0  0  0  0  0  0  0
   11.8926    0.0660   22.0392 C   0  0  0  0  0  0  0  0  0  0  0  0
   12.4629    0.7212   23.0432 N   0  0  0  0  0  0  0  0  0  0  0  0
   11.6672    1.7821   23.2661 N   0  0  0  0  0  0  0  0  0  0  0  0
   10.6011    1.8169   22.4328 C   0  0  0  0  0  0  0  0  0  0  0  0
   10.7069    0.7206   21.6110 C   0  0  0  0  0  0  0  0  0  0  0  0
    9.6508    0.2012   20.6707 C   0  0  0  0  0  0  0  0  0  0  0  0
    8.6143   -0.6376   21.3407 C   0  0  0  0  0  0  0  0  0  0  0  0
    8.8384   -1.4983   22.3081 N   0  0  0  0  0  0  0  0  0  0  0  0
    7.6065   -2.0166   22.5484 C   0  0  0  0  0  0  0  0  0  0  0  0
    7.3805   -2.9802   23.6666 C   0  0  0  0  0  0  0  0  0  0  0  0
    7.5455   -2.2863   25.0528 C   0  0  0  0  0  0  0  0  0  0  0  0
    7.5425   -3.2815   26.1904 C   0  0  0  0  0  0  0  0  0  0  0  0
    7.7690   -4.5884   26.0240 C   0  0  0  0  0  0  0  0  0  0  0  0
    7.9856   -5.2290   24.6701 C   0  0  0  0  0  0  0  0  0  0  0  0
    8.3297   -4.2012   23.5772 C   0  0  0  0  0  0  0  0  0  0  0  0
    9.3688   -3.8516   23.6856 H   0  0  0  0  0  0  0  0  0  0  0  0
    8.2641   -4.6681   22.5870 H   0  0  0  0  0  0  0  0  0  0  0  0
    7.0722   -5.7776   24.3886 H   0  0  0  0  0  0  0  0  0  0  0  0
    8.7687   -5.9945   24.7409 H   0  0  0  0  0  0  0  0  0  0  0  0
    7.7807   -5.2526   26.8894 H   0  0  0  0  0  0  0  0  0  0  0  0
    7.3635   -2.8806   27.1888 H   0  0  0  0  0  0  0  0  0  0  0  0
    6.7522   -1.5425   25.2101 H   0  0  0  0  0  0  0  0  0  0  0  0
    8.4892   -1.7140   25.0735 H   0  0  0  0  0  0  0  0  0  0  0  0
    6.3394   -3.3107   23.5518 H   0  0  0  0  0  0  0  0  0  0  0  0
    6.6537   -1.5680   21.7595 N   0  0  0  0  0  0  0  0  0  0  0  0
    7.3107   -0.6984   20.9478 N   0  0  0  0  0  0  0  0  0  0  0  0
    6.6406   -0.0108   19.9005 C   0  0  0  0  0  0  0  0  0  0  0  0
    5.4313    0.6409   20.1589 C   0  0  0  0  0  0  0  0  0  0  0  0
    4.8071    1.3135   19.1048 C   0  0  0  0  0  0  0  0  0  0  0  0
    5.3969    1.2966   17.8343 C   0  0  0  0  0  0  0  0  0  0  0  0
    6.5510    0.6649   17.5757 N   0  0  0  0  0  0  0  0  0  0  0  0
    7.1557    0.0379   18.5896 C   0  0  0  0  0  0  0  0  0  0  0  0
    8.1049   -0.4382   18.3506 H   0  0  0  0  0  0  0  0  0  0  0  0
    4.9306    1.8006   16.9901 H   0  0  0  0  0  0  0  0  0  0  0  0
    3.8747    1.8469   19.2528 H   0  0  0  0  0  0  0  0  0  0  0  0
    5.0152    0.6030   21.1653 H   0  0  0  0  0  0  0  0  0  0  0  0
    9.1662    1.0455   20.1805 H   0  0  0  0  0  0  0  0  0  0  0  0
   10.0661   -0.4510   19.8918 H   0  0  0  0  0  0  0  0  0  0  0  0
    9.8298    2.5732   22.5081 H   0  0  0  0  0  0  0  0  0  0  0  0
   11.9133    2.4326   24.0006 H   0  0  0  0  0  0  0  0  0  0  0  0
   11.6727   -2.0160   21.7098 H   0  0  0  0  0  0  0  0  0  0  0  0
   12.5727   -1.2052   20.4401 H   0  0  0  0  0  0  0  0  0  0  0  0
   13.3654   -1.5068   22.0075 H   0  0  0  0  0  0  0  0  0  0  0  0
  1  2  1  0
  2  3  2  0
  3  4  1  0
  4  5  1  0
  5  6  2  0
  6  7  1  0
  7  8  1  0
  8  9  2  0
  9 10  1  0
 10 11  1  0
 11 12  1  0
 12 13  1  0
 13 14  2  0
 14 15  1  0
 15 16  1  0
 16 17  1  0
 16 18  1  0
 15 19  1  0
 15 20  1  0
 14 21  1  0
 13 22  1  0
 12 23  1  0
 12 24  1  0
 11 25  1  0
 10 26  2  0
 26 27  1  0
 27 28  1  0
 28 29  2  0
 29 30  1  0
 30 31  2  0
 31 32  1  0
 32 33  2  0
 33 34  1  0
 31 35  1  0
 30 36  1  0
 29 37  1  0
  7 38  1  0
  7 39  1  0
  5 40  1  0
  4 41  1  0
  1 42  1  0
  1 43  1  0
  1 44  1  0
  6  2  1  0
 27  8  1  0
 33 28  1  0
 16 11  1  0
M  END
>  <cnnaffinity>  (1) 
-6.49691

>  <filename>  (1) 
Cc1n[nH]cc1Cc1nc(C2CC=CCC2)nn1-c1cccnc1

$$$$
