
     RDKit          3D

 47 50  0  0  0  0  0  0  0  0999 V2000
   11.2233    2.2205   23.6457 C   0  0  0  0  0  0  0  0  0  0  0  0
    9.7419    2.1279   23.8497 C   0  0  0  0  0  0  0  0  0  0  0  0
    9.1763    2.0572   25.0308 N   0  0  0  0  0  0  0  0  0  0  0  0
    7.8216    1.9769   24.8048 C   0  0  0  0  0  0  0  0  0  0  0  0
    7.5722    2.0120   23.4631 C   0  0  0  0  0  0  0  0  0  0  0  0
    8.8077    2.1154   22.8418 N   0  0  0  0  0  0  0  0  0  0  0  0
    9.0359    1.9661   21.4070 C   0  0  0  0  0  0  0  0  0  0  0  0
    9.5028    0.5478   21.0038 C   0  0  0  0  0  0  0  0  0  0  0  0
    8.5835   -0.5309   21.4694 C   0  0  0  0  0  0  0  0  0  0  0  0
    8.8006   -1.3423   22.4820 N   0  0  0  0  0  0  0  0  0  0  0  0
    7.5980   -1.9479   22.6694 C   0  0  0  0  0  0  0  0  0  0  0  0
    7.4614   -2.9383   23.8025 C   0  0  0  0  0  0  0  0  0  0  0  0
    6.4099   -4.0443   23.5421 C   0  0  0  0  0  0  0  0  0  0  0  0
    5.0145   -3.7140   24.0292 C   0  0  0  0  0  0  0  0  0  0  0  0
    4.7430   -2.6987   24.8566 C   0  0  0  0  0  0  0  0  0  0  0  0
    5.7800   -1.6613   25.2416 C   0  0  0  0  0  0  0  0  0  0  0  0
    7.2065   -2.2314   25.1632 C   0  0  0  0  0  0  0  0  0  0  0  0
    7.3438   -2.9650   25.9697 H   0  0  0  0  0  0  0  0  0  0  0  0
    7.9636   -1.4538   25.3284 H   0  0  0  0  0  0  0  0  0  0  0  0
    5.6721   -0.7932   24.5762 H   0  0  0  0  0  0  0  0  0  0  0  0
    5.5721   -1.2879   26.2536 H   0  0  0  0  0  0  0  0  0  0  0  0
    3.7522   -2.6188   25.3075 H   0  0  0  0  0  0  0  0  0  0  0  0
    4.2156   -4.4014   23.7413 H   0  0  0  0  0  0  0  0  0  0  0  0
    6.4051   -4.3146   22.4780 H   0  0  0  0  0  0  0  0  0  0  0  0
    6.7221   -4.9552   24.0738 H   0  0  0  0  0  0  0  0  0  0  0  0
    8.4540   -3.4009   23.8431 H   0  0  0  0  0  0  0  0  0  0  0  0
    6.6609   -1.5862   21.8113 N   0  0  0  0  0  0  0  0  0  0  0  0
    7.3106   -0.6998   21.0022 N   0  0  0  0  0  0  0  0  0  0  0  0
    6.6311   -0.0464   19.9349 C   0  0  0  0  0  0  0  0  0  0  0  0
    5.4224    0.6190   20.1711 C   0  0  0  0  0  0  0  0  0  0  0  0
    4.8260    1.3130   19.1131 C   0  0  0  0  0  0  0  0  0  0  0  0
    5.4488    1.2973   17.8594 C   0  0  0  0  0  0  0  0  0  0  0  0
    6.5864    0.6281   17.6131 N   0  0  0  0  0  0  0  0  0  0  0  0
    7.1566   -0.0300   18.6297 C   0  0  0  0  0  0  0  0  0  0  0  0
    8.0730   -0.5730   18.3974 H   0  0  0  0  0  0  0  0  0  0  0  0
    5.0235    1.8363   17.0170 H   0  0  0  0  0  0  0  0  0  0  0  0
    3.9028    1.8690   19.2481 H   0  0  0  0  0  0  0  0  0  0  0  0
    4.9774    0.5793   21.1658 H   0  0  0  0  0  0  0  0  0  0  0  0
    9.5925    0.5007   19.9174 H   0  0  0  0  0  0  0  0  0  0  0  0
   10.4891    0.3285   21.4251 H   0  0  0  0  0  0  0  0  0  0  0  0
    8.0945    2.2170   20.9029 H   0  0  0  0  0  0  0  0  0  0  0  0
    9.7748    2.7067   21.0824 H   0  0  0  0  0  0  0  0  0  0  0  0
    6.6603    1.9606   22.8871 H   0  0  0  0  0  0  0  0  0  0  0  0
    7.1253    1.8973   25.6330 H   0  0  0  0  0  0  0  0  0  0  0  0
   11.6952    2.4668   24.5999 H   0  0  0  0  0  0  0  0  0  0  0  0
   11.4948    2.9848   22.9102 H   0  0  0  0  0  0  0  0  0  0  0  0
   11.6470    1.2650   23.3128 H   0  0  0  0  0  0  0  0  0  0  0  0
  1  2  1  0
  2  3  2  0
  3  4  1  0
  4  5  2  0
  5  6  1  0
  6  7  1  0
  7  8  1  0
  8  9  1  0
  9 10  2  0
 10 11  1  0
 11 12  1  0
 12 13  1  0
 13 14  1  0
 14 15  2  0
 15 16  1  0
 16 17  1  0
 17 18  1  0
 17 19  1  0
 16 20  1  0
 16 21  1  0
 15 22  1  0
 14 23  1  0
 13 24  1  0
 13 25  1  0
 12 26  1  0
 11 27  2  0
 27 28  1  0
 28 29  1  0
 29 30  2  0
 30 31  1  0
 31 32  2  0
 32 33  1  0
 33 34  2  0
 34 35  1  0
 32 36  1  0
 31 37  1  0
 30 38  1  0
  8 39  1  0
  8 40  1  0
  7 41  1  0
  7 42  1  0
  5 43  1  0
  4 44  1  0
  1 45  1  0
  1 46  1  0
  1 47  1  0
  6  2  1  0
 28  9  1  0
 34 29  1  0
 17 12  1  0
M  END
>  <cnnaffinity>  (1) 
-6.24834

>  <filename>  (1) 
Cc1nccn1CCc1nc(C2CC=CCC2)nn1-c1cccnc1

$$$$
