
     RDKit          3D

 44 47  0  0  0  0  0  0  0  0999 V2000
   12.0430   -0.9554   22.1138 C   0  0  0  0  0  0  0  0  0  0  0  0
   11.5406    0.4095   22.4760 C   0  0  0  0  0  0  0  0  0  0  0  0
   12.2381    1.0770   23.4038 N   0  0  0  0  0  0  0  0  0  0  0  0
   11.7513    2.2500   23.7850 C   0  0  0  0  0  0  0  0  0  0  0  0
   10.6242    2.8171   23.3634 N   0  0  0  0  0  0  0  0  0  0  0  0
    9.9209    2.1428   22.4502 C   0  0  0  0  0  0  0  0  0  0  0  0
    8.5951    2.7290   22.0499 C   0  0  0  0  0  0  0  0  0  0  0  0
    8.3209    3.5512   22.7117 H   0  0  0  0  0  0  0  0  0  0  0  0
    8.6305    3.1158   21.0268 H   0  0  0  0  0  0  0  0  0  0  0  0
    7.8121    1.9651   22.0859 H   0  0  0  0  0  0  0  0  0  0  0  0
   10.3849    0.9478   21.8896 C   0  0  0  0  0  0  0  0  0  0  0  0
    9.5990    0.2057   20.8125 C   0  0  0  0  0  0  0  0  0  0  0  0
    8.5368   -0.7054   21.3570 C   0  0  0  0  0  0  0  0  0  0  0  0
    8.7241   -1.5452   22.3483 N   0  0  0  0  0  0  0  0  0  0  0  0
    7.5107   -2.1230   22.5239 C   0  0  0  0  0  0  0  0  0  0  0  0
    7.3110   -3.1272   23.5950 C   0  0  0  0  0  0  0  0  0  0  0  0
    8.3954   -3.5156   24.4133 C   0  0  0  0  0  0  0  0  0  0  0  0
    8.1864   -4.4411   25.4257 C   0  0  0  0  0  0  0  0  0  0  0  0
    9.2203   -4.7955   26.2066 F   0  0  0  0  0  0  0  0  0  0  0  0
    6.9351   -5.0082   25.6609 C   0  0  0  0  0  0  0  0  0  0  0  0
    5.8618   -4.6173   24.8510 C   0  0  0  0  0  0  0  0  0  0  0  0
    6.0388   -3.6867   23.8265 C   0  0  0  0  0  0  0  0  0  0  0  0
    5.1978   -3.3748   23.2100 H   0  0  0  0  0  0  0  0  0  0  0  0
    4.8767   -5.0419   25.0259 H   0  0  0  0  0  0  0  0  0  0  0  0
    6.8268   -5.7315   26.4602 H   0  0  0  0  0  0  0  0  0  0  0  0
    9.3921   -3.0976   24.2865 H   0  0  0  0  0  0  0  0  0  0  0  0
    6.5839   -1.6982   21.6781 N   0  0  0  0  0  0  0  0  0  0  0  0
    7.2553   -0.8083   20.9062 N   0  0  0  0  0  0  0  0  0  0  0  0
    6.5900   -0.1029   19.8653 C   0  0  0  0  0  0  0  0  0  0  0  0
    5.4015    0.5843   20.1299 C   0  0  0  0  0  0  0  0  0  0  0  0
    4.8200    1.3085   19.0864 C   0  0  0  0  0  0  0  0  0  0  0  0
    5.4284    1.3000   17.8262 C   0  0  0  0  0  0  0  0  0  0  0  0
    6.5485    0.6125   17.5568 N   0  0  0  0  0  0  0  0  0  0  0  0
    7.1108   -0.0713   18.5599 C   0  0  0  0  0  0  0  0  0  0  0  0
    8.0254   -0.6165   18.3260 H   0  0  0  0  0  0  0  0  0  0  0  0
    4.9986    1.8560   16.9965 H   0  0  0  0  0  0  0  0  0  0  0  0
    3.9176    1.8882   19.2424 H   0  0  0  0  0  0  0  0  0  0  0  0
    4.9671    0.5442   21.1292 H   0  0  0  0  0  0  0  0  0  0  0  0
    9.1596    0.9262   20.1178 H   0  0  0  0  0  0  0  0  0  0  0  0
   10.2581   -0.4423   20.2242 H   0  0  0  0  0  0  0  0  0  0  0  0
   12.3102    2.8014   24.5375 H   0  0  0  0  0  0  0  0  0  0  0  0
   13.0134   -1.1356   22.5777 H   0  0  0  0  0  0  0  0  0  0  0  0
   12.1401   -1.1002   21.0360 H   0  0  0  0  0  0  0  0  0  0  0  0
   11.3249   -1.7056   22.4563 H   0  0  0  0  0  0  0  0  0  0  0  0
  1  2  1  0
  2  3  2  0
  3  4  1  0
  4  5  2  0
  5  6  1  0
  6  7  1  0
  7  8  1  0
  7  9  1  0
  7 10  1  0
  6 11  2  0
 11 12  1  0
 12 13  1  0
 13 14  2  0
 14 15  1  0
 15 16  1  0
 16 17  2  0
 17 18  1  0
 18 19  1  0
 18 20  2  0
 20 21  1  0
 21 22  2  0
 22 23  1  0
 21 24  1  0
 20 25  1  0
 17 26  1  0
 15 27  2  0
 27 28  1  0
 28 29  1  0
 29 30  2  0
 30 31  1  0
 31 32  2  0
 32 33  1  0
 33 34  2  0
 34 35  1  0
 32 36  1  0
 31 37  1  0
 30 38  1  0
 12 39  1  0
 12 40  1  0
  4 41  1  0
  1 42  1  0
  1 43  1  0
  1 44  1  0
 11  2  1  0
 28 13  1  0
 34 29  1  0
 22 16  1  0
M  END
>  <cnnaffinity>  (1) 
-6.45836

>  <filename>  (1) 
Cc1ncnc(C)c1Cc1nc(-c2cccc(F)c2)nn1-c1cccnc1

$$$$
