
     RDKit          3D

 42 45  0  0  0  0  0  0  0  0999 V2000
    8.7811    1.2957   25.5294 C   0  0  0  0  0  0  0  0  0  0  0  0
    7.3194    0.9853   25.5180 C   0  0  0  0  0  0  0  0  0  0  0  0
    6.7558    0.5109   26.6009 N   0  0  0  0  0  0  0  0  0  0  0  0
    5.4356    0.2891   26.2859 O   0  0  0  0  0  0  0  0  0  0  0  0
    5.2315    0.6411   25.0110 C   0  0  0  0  0  0  0  0  0  0  0  0
    6.3719    1.0881   24.4332 C   0  0  0  0  0  0  0  0  0  0  0  0
    6.6351    1.5716   23.0088 C   0  0  0  0  0  0  0  0  0  0  0  0
    7.7192    0.8097   22.2951 C   0  0  0  0  0  0  0  0  0  0  0  0
    9.0090    1.0546   22.4334 N   0  0  0  0  0  0  0  0  0  0  0  0
    9.6093   -0.0673   21.9404 C   0  0  0  0  0  0  0  0  0  0  0  0
   11.0779   -0.2422   22.0627 C   0  0  0  0  0  0  0  0  0  0  0  0
   11.7799   -1.2746   21.4082 C   0  0  0  0  0  0  0  0  0  0  0  0
   13.1562   -1.3662   21.6030 C   0  0  0  0  0  0  0  0  0  0  0  0
   13.8573   -2.3123   20.9663 F   0  0  0  0  0  0  0  0  0  0  0  0
   13.8619   -0.4855   22.4130 C   0  0  0  0  0  0  0  0  0  0  0  0
   13.1479    0.5415   23.0187 C   0  0  0  0  0  0  0  0  0  0  0  0
   13.8112    1.4331   23.7619 F   0  0  0  0  0  0  0  0  0  0  0  0
   11.7738    0.6777   22.8676 C   0  0  0  0  0  0  0  0  0  0  0  0
   11.2303    1.4828   23.3546 H   0  0  0  0  0  0  0  0  0  0  0  0
   14.9305   -0.5903   22.5314 H   0  0  0  0  0  0  0  0  0  0  0  0
   11.2791   -2.0015   20.7839 H   0  0  0  0  0  0  0  0  0  0  0  0
    8.7627   -0.9387   21.4243 N   0  0  0  0  0  0  0  0  0  0  0  0
    7.5524   -0.3683   21.6504 N   0  0  0  0  0  0  0  0  0  0  0  0
    6.3668   -0.8943   20.9797 C   0  0  0  0  0  0  0  0  0  0  0  0
    5.9576   -0.0694   19.7752 C   0  0  0  0  0  0  0  0  0  0  0  0
    4.7815    0.6841   19.7137 C   0  0  0  0  0  0  0  0  0  0  0  0
    4.5545    1.4975   18.5984 C   0  0  0  0  0  0  0  0  0  0  0  0
    5.5006    1.5051   17.5725 C   0  0  0  0  0  0  0  0  0  0  0  0
    6.6136    0.7589   17.5920 N   0  0  0  0  0  0  0  0  0  0  0  0
    6.8255    0.0034   18.6749 C   0  0  0  0  0  0  0  0  0  0  0  0
    7.7398   -0.5855   18.6697 H   0  0  0  0  0  0  0  0  0  0  0  0
    5.3616    2.1275   16.6893 H   0  0  0  0  0  0  0  0  0  0  0  0
    3.6827    2.1368   18.5170 H   0  0  0  0  0  0  0  0  0  0  0  0
    4.0487    0.6388   20.5195 H   0  0  0  0  0  0  0  0  0  0  0  0
    6.6147   -1.9222   20.6934 H   0  0  0  0  0  0  0  0  0  0  0  0
    5.5601   -0.9411   21.7105 H   0  0  0  0  0  0  0  0  0  0  0  0
    5.7161    1.5649   22.4127 H   0  0  0  0  0  0  0  0  0  0  0  0
    6.9658    2.6151   23.0338 H   0  0  0  0  0  0  0  0  0  0  0  0
    4.2142    0.5148   24.6679 H   0  0  0  0  0  0  0  0  0  0  0  0
    9.3382    0.4249   25.1678 H   0  0  0  0  0  0  0  0  0  0  0  0
    9.1331    1.5231   26.5370 H   0  0  0  0  0  0  0  0  0  0  0  0
    9.0127    2.1263   24.8590 H   0  0  0  0  0  0  0  0  0  0  0  0
  1  2  1  0
  2  3  2  0
  3  4  1  0
  4  5  1  0
  5  6  2  0
  6  7  1  0
  7  8  1  0
  8  9  2  0
  9 10  1  0
 10 11  1  0
 11 12  2  0
 12 13  1  0
 13 14  1  0
 13 15  2  0
 15 16  1  0
 16 17  1  0
 16 18  2  0
 18 19  1  0
 15 20  1  0
 12 21  1  0
 10 22  2  0
 22 23  1  0
 23 24  1  0
 24 25  1  0
 25 26  2  0
 26 27  1  0
 27 28  2  0
 28 29  1  0
 29 30  2  0
 30 31  1  0
 28 32  1  0
 27 33  1  0
 26 34  1  0
 24 35  1  0
 24 36  1  0
  7 37  1  0
  7 38  1  0
  5 39  1  0
  1 40  1  0
  1 41  1  0
  1 42  1  0
  6  2  1  0
 23  8  1  0
 30 25  1  0
 18 11  1  0
M  END
>  <cnnaffinity>  (1) 
-6.3511

>  <filename>  (1) 
Cc1nocc1Cc1nc(-c2cc(F)cc(F)c2)nn1Cc1cccnc1

$$$$
