
     RDKit          3D

 49 52  0  0  0  0  0  0  0  0999 V2000
    4.8781    1.7384   23.9876 C   0  0  0  0  0  0  0  0  0  0  0  0
    6.2345    1.6047   24.5930 C   0  0  0  0  0  0  0  0  0  0  0  0
    6.3458    1.4827   25.9060 N   0  0  0  0  0  0  0  0  0  0  0  0
    7.6648    1.3360   26.1418 N   0  0  0  0  0  0  0  0  0  0  0  0
    8.0636    1.0503   27.5051 C   0  0  0  0  0  0  0  0  0  0  0  0
    8.9655    0.4341   27.5055 H   0  0  0  0  0  0  0  0  0  0  0  0
    8.2147    1.9682   28.0823 H   0  0  0  0  0  0  0  0  0  0  0  0
    7.2609    0.4719   27.9649 H   0  0  0  0  0  0  0  0  0  0  0  0
    8.4032    1.3958   24.9952 C   0  0  0  0  0  0  0  0  0  0  0  0
    9.8898    1.2143   24.8962 C   0  0  0  0  0  0  0  0  0  0  0  0
   10.0844    0.1754   24.6095 H   0  0  0  0  0  0  0  0  0  0  0  0
   10.2940    1.8398   24.0884 H   0  0  0  0  0  0  0  0  0  0  0  0
   10.4465    1.4365   25.8152 H   0  0  0  0  0  0  0  0  0  0  0  0
    7.4971    1.5567   23.9569 C   0  0  0  0  0  0  0  0  0  0  0  0
    7.7939    1.3814   22.4796 C   0  0  0  0  0  0  0  0  0  0  0  0
    7.8371   -0.0627   22.0497 C   0  0  0  0  0  0  0  0  0  0  0  0
    8.4660   -1.0202   22.7060 N   0  0  0  0  0  0  0  0  0  0  0  0
    8.2009   -2.1351   21.9880 C   0  0  0  0  0  0  0  0  0  0  0  0
    8.7160   -3.4768   22.4276 C   0  0  0  0  0  0  0  0  0  0  0  0
    8.7308   -3.7599   23.9566 C   0  0  0  0  0  0  0  0  0  0  0  0
    8.6446   -5.3010   24.1022 C   0  0  0  0  0  0  0  0  0  0  0  0
    8.3135   -5.8720   22.7037 C   0  0  0  0  0  0  0  0  0  0  0  0
    7.9526   -4.6701   21.8246 C   0  0  0  0  0  0  0  0  0  0  0  0
    6.8796   -4.4549   21.9011 H   0  0  0  0  0  0  0  0  0  0  0  0
    8.1816   -4.8264   20.7639 H   0  0  0  0  0  0  0  0  0  0  0  0
    9.1535   -6.4222   22.2698 H   0  0  0  0  0  0  0  0  0  0  0  0
    7.4874   -6.5884   22.7659 H   0  0  0  0  0  0  0  0  0  0  0  0
    9.5767   -5.7232   24.5000 H   0  0  0  0  0  0  0  0  0  0  0  0
    7.8482   -5.5958   24.7978 H   0  0  0  0  0  0  0  0  0  0  0  0
    7.8919   -3.2827   24.4755 H   0  0  0  0  0  0  0  0  0  0  0  0
    9.6407   -3.3635   24.4211 H   0  0  0  0  0  0  0  0  0  0  0  0
    9.7647   -3.4561   22.1144 H   0  0  0  0  0  0  0  0  0  0  0  0
    7.5228   -1.9176   20.8718 N   0  0  0  0  0  0  0  0  0  0  0  0
    7.2719   -0.5844   20.9201 N   0  0  0  0  0  0  0  0  0  0  0  0
    6.5649    0.0359   19.8500 C   0  0  0  0  0  0  0  0  0  0  0  0
    5.3665    0.7292   20.0619 C   0  0  0  0  0  0  0  0  0  0  0  0
    4.7744    1.3763   18.9696 C   0  0  0  0  0  0  0  0  0  0  0  0
    5.4021    1.3083   17.7232 C   0  0  0  0  0  0  0  0  0  0  0  0
    6.5249    0.6001   17.5040 N   0  0  0  0  0  0  0  0  0  0  0  0
    7.0750   -0.0380   18.5410 C   0  0  0  0  0  0  0  0  0  0  0  0
    7.9711   -0.6191   18.3325 H   0  0  0  0  0  0  0  0  0  0  0  0
    4.9856    1.8296   16.8636 H   0  0  0  0  0  0  0  0  0  0  0  0
    3.8569    1.9424   19.0835 H   0  0  0  0  0  0  0  0  0  0  0  0
    4.9114    0.7569   21.0535 H   0  0  0  0  0  0  0  0  0  0  0  0
    7.0520    1.9134   21.8768 H   0  0  0  0  0  0  0  0  0  0  0  0
    8.7738    1.8170   22.2372 H   0  0  0  0  0  0  0  0  0  0  0  0
    4.7408    1.0362   23.1580 H   0  0  0  0  0  0  0  0  0  0  0  0
    4.7390    2.7517   23.6063 H   0  0  0  0  0  0  0  0  0  0  0  0
    4.1115    1.5372   24.7393 H   0  0  0  0  0  0  0  0  0  0  0  0
  1  2  1  0
  2  3  2  0
  3  4  1  0
  4  5  1  0
  5  6  1  0
  5  7  1  0
  5  8  1  0
  4  9  1  0
  9 10  1  0
 10 11  1  0
 10 12  1  0
 10 13  1  0
  9 14  2  0
 14 15  1  0
 15 16  1  0
 16 17  2  0
 17 18  1  0
 18 19  1  0
 19 20  1  0
 20 21  1  0
 21 22  1  0
 22 23  1  0
 23 24  1  0
 23 25  1  0
 22 26  1  0
 22 27  1  0
 21 28  1  0
 21 29  1  0
 20 30  1  0
 20 31  1  0
 19 32  1  0
 18 33  2  0
 33 34  1  0
 34 35  1  0
 35 36  2  0
 36 37  1  0
 37 38  2  0
 38 39  1  0
 39 40  2  0
 40 41  1  0
 38 42  1  0
 37 43  1  0
 36 44  1  0
 15 45  1  0
 15 46  1  0
  1 47  1  0
  1 48  1  0
  1 49  1  0
 14  2  1  0
 34 16  1  0
 40 35  1  0
 23 19  1  0
M  END
>  <cnnaffinity>  (1) 
-6.40359

>  <filename>  (1) 
Cc1nn(C)c(C)c1Cc1nc(C2CCCC2)nn1-c1cccnc1

$$$$
