
     RDKit          3D

 40 43  0  0  0  0  0  0  0  0999 V2000
    8.3814   -0.3235   27.2377 C   0  0  0  0  0  0  0  0  0  0  0  0
    7.7605    0.2187   25.9985 C   0  0  0  0  0  0  0  0  0  0  0  0
    8.3932    0.9220   25.0989 N   0  0  0  0  0  0  0  0  0  0  0  0
    7.5152    1.1193   24.0652 C   0  0  0  0  0  0  0  0  0  0  0  0
    7.9857    1.7971   22.8168 C   0  0  0  0  0  0  0  0  0  0  0  0
    8.9860    0.9405   22.1091 C   0  0  0  0  0  0  0  0  0  0  0  0
   10.2874    1.0231   22.2562 N   0  0  0  0  0  0  0  0  0  0  0  0
   10.7392   -0.1187   21.6849 C   0  0  0  0  0  0  0  0  0  0  0  0
   12.1608   -0.4354   21.6751 C   0  0  0  0  0  0  0  0  0  0  0  0
   12.7490   -1.5212   21.0892 C   0  0  0  0  0  0  0  0  0  0  0  0
   14.1391   -1.3464   20.8455 C   0  0  0  0  0  0  0  0  0  0  0  0
   14.5669   -0.1157   21.2417 C   0  0  0  0  0  0  0  0  0  0  0  0
   16.1212    0.4518   19.8442 Cl  0  0  0  0  0  0  0  0  0  0  0  0
   13.3350    0.7554   22.1501 S   0  0  0  0  0  0  0  0  0  0  0  0
   14.7713   -2.0465   20.3109 H   0  0  0  0  0  0  0  0  0  0  0  0
   12.1512   -2.3730   20.8093 H   0  0  0  0  0  0  0  0  0  0  0  0
    9.7935   -0.8704   21.1398 N   0  0  0  0  0  0  0  0  0  0  0  0
    8.6669   -0.1738   21.4064 N   0  0  0  0  0  0  0  0  0  0  0  0
    7.3642   -0.7048   21.0252 C   0  0  0  0  0  0  0  0  0  0  0  0
    6.6540    0.0584   19.9257 C   0  0  0  0  0  0  0  0  0  0  0  0
    5.4224    0.6933   20.1215 C   0  0  0  0  0  0  0  0  0  0  0  0
    4.8060    1.3298   19.0423 C   0  0  0  0  0  0  0  0  0  0  0  0
    5.4489    1.3116   17.8016 C   0  0  0  0  0  0  0  0  0  0  0  0
    6.6287    0.7072   17.5897 N   0  0  0  0  0  0  0  0  0  0  0  0
    7.2103    0.1078   18.6354 C   0  0  0  0  0  0  0  0  0  0  0  0
    8.1643   -0.3794   18.4358 H   0  0  0  0  0  0  0  0  0  0  0  0
    4.9973    1.8003   16.9402 H   0  0  0  0  0  0  0  0  0  0  0  0
    3.8571    1.8428   19.1506 H   0  0  0  0  0  0  0  0  0  0  0  0
    4.9456    0.6909   21.1047 H   0  0  0  0  0  0  0  0  0  0  0  0
    6.7351   -0.7478   21.9210 H   0  0  0  0  0  0  0  0  0  0  0  0
    7.5600   -1.7353   20.7171 H   0  0  0  0  0  0  0  0  0  0  0  0
    7.1460    2.0135   22.1548 H   0  0  0  0  0  0  0  0  0  0  0  0
    8.4664    2.7394   23.0860 H   0  0  0  0  0  0  0  0  0  0  0  0
    6.3128    0.5419   24.3587 C   0  0  0  0  0  0  0  0  0  0  0  0
    6.4814   -0.0334   25.6066 N   0  0  0  0  0  0  0  0  0  0  0  0
    5.8177   -0.5695   26.1377 H   0  0  0  0  0  0  0  0  0  0  0  0
    5.3872    0.4980   23.8032 H   0  0  0  0  0  0  0  0  0  0  0  0
    9.3240    0.1996   27.3968 H   0  0  0  0  0  0  0  0  0  0  0  0
    7.7407   -0.1921   28.1127 H   0  0  0  0  0  0  0  0  0  0  0  0
    8.6071   -1.3892   27.1232 H   0  0  0  0  0  0  0  0  0  0  0  0
  1  2  1  0
  2  3  2  0
  3  4  1  0
  4  5  1  0
  5  6  1  0
  6  7  2  0
  7  8  1  0
  8  9  1  0
  9 10  2  0
 10 11  1  0
 11 12  2  0
 12 13  1  0
 12 14  1  0
 11 15  1  0
 10 16  1  0
  8 17  2  0
 17 18  1  0
 18 19  1  0
 19 20  1  0
 20 21  2  0
 21 22  1  0
 22 23  2  0
 23 24  1  0
 24 25  2  0
 25 26  1  0
 23 27  1  0
 22 28  1  0
 21 29  1  0
 19 30  1  0
 19 31  1  0
  5 32  1  0
  5 33  1  0
  4 34  2  0
 34 35  1  0
 35 36  1  0
 34 37  1  0
  1 38  1  0
  1 39  1  0
  1 40  1  0
 35  2  1  0
 18  6  1  0
 25 20  1  0
 14  9  1  0
M  END
>  <cnnaffinity>  (1) 
-6.56281

>  <filename>  (1) 
Cc1nc(Cc2nc(-c3ccc(Cl)s3)nn2Cc2cccnc2)c[nH]1

$$$$
