
     RDKit          3D

 39 42  0  0  0  0  0  0  0  0999 V2000
   13.5930    0.9426   23.2304 C   0  0  0  0  0  0  0  0  0  0  0  0
   12.2368    1.1627   22.6442 C   0  0  0  0  0  0  0  0  0  0  0  0
   11.8096    0.4482   21.6464 N   0  0  0  0  0  0  0  0  0  0  0  0
   10.5553    0.8391   21.2852 C   0  0  0  0  0  0  0  0  0  0  0  0
    9.9700    1.8495   21.9846 C   0  0  0  0  0  0  0  0  0  0  0  0
    8.5306    2.2607   21.8626 C   0  0  0  0  0  0  0  0  0  0  0  0
    7.5817    1.3100   22.6482 C   0  0  0  0  0  0  0  0  0  0  0  0
    7.6488   -0.1261   22.2221 C   0  0  0  0  0  0  0  0  0  0  0  0
    8.2001   -1.0914   22.9285 N   0  0  0  0  0  0  0  0  0  0  0  0
    8.2963   -2.1105   22.0346 C   0  0  0  0  0  0  0  0  0  0  0  0
    8.9611   -3.3890   22.3671 C   0  0  0  0  0  0  0  0  0  0  0  0
    8.2490   -4.7068   22.2013 C   0  0  0  0  0  0  0  0  0  0  0  0
    8.5875   -4.2060   23.5755 C   0  0  0  0  0  0  0  0  0  0  0  0
    9.4172   -4.6939   24.0861 H   0  0  0  0  0  0  0  0  0  0  0  0
    7.7807   -3.8593   24.2197 H   0  0  0  0  0  0  0  0  0  0  0  0
    8.7877   -5.5652   21.8071 H   0  0  0  0  0  0  0  0  0  0  0  0
    7.2095   -4.6488   21.8886 H   0  0  0  0  0  0  0  0  0  0  0  0
   10.0269   -3.3215   22.1830 H   0  0  0  0  0  0  0  0  0  0  0  0
    7.8148   -1.8495   20.8326 N   0  0  0  0  0  0  0  0  0  0  0  0
    7.3572   -0.5756   20.9635 N   0  0  0  0  0  0  0  0  0  0  0  0
    6.6388    0.0466   19.9020 C   0  0  0  0  0  0  0  0  0  0  0  0
    5.4211    0.6991   20.1333 C   0  0  0  0  0  0  0  0  0  0  0  0
    4.8008    1.3372   19.0555 C   0  0  0  0  0  0  0  0  0  0  0  0
    5.4135    1.3067   17.7990 C   0  0  0  0  0  0  0  0  0  0  0  0
    6.5563    0.6412   17.5597 N   0  0  0  0  0  0  0  0  0  0  0  0
    7.1389    0.0096   18.5856 C   0  0  0  0  0  0  0  0  0  0  0  0
    8.0412   -0.5517   18.3529 H   0  0  0  0  0  0  0  0  0  0  0  0
    4.9625    1.8241   16.9538 H   0  0  0  0  0  0  0  0  0  0  0  0
    3.8629    1.8636   19.1885 H   0  0  0  0  0  0  0  0  0  0  0  0
    4.9654    0.6898   21.1252 H   0  0  0  0  0  0  0  0  0  0  0  0
    7.8458    1.3273   23.7099 H   0  0  0  0  0  0  0  0  0  0  0  0
    6.5536    1.6693   22.5762 H   0  0  0  0  0  0  0  0  0  0  0  0
    8.3670    3.2875   22.2099 H   0  0  0  0  0  0  0  0  0  0  0  0
    8.2581    2.2453   20.7962 H   0  0  0  0  0  0  0  0  0  0  0  0
   11.1189    2.3943   23.1702 S   0  0  0  0  0  0  0  0  0  0  0  0
   10.0558    0.3131   20.4878 H   0  0  0  0  0  0  0  0  0  0  0  0
   14.2714    0.6982   22.4079 H   0  0  0  0  0  0  0  0  0  0  0  0
   13.9596    1.8141   23.7687 H   0  0  0  0  0  0  0  0  0  0  0  0
   13.5962    0.0849   23.9119 H   0  0  0  0  0  0  0  0  0  0  0  0
  1  2  1  0
  2  3  2  0
  3  4  1  0
  4  5  2  0
  5  6  1  0
  6  7  1  0
  7  8  1  0
  8  9  2  0
  9 10  1  0
 10 11  1  0
 11 12  1  0
 12 13  1  0
 13 14  1  0
 13 15  1  0
 12 16  1  0
 12 17  1  0
 11 18  1  0
 10 19  2  0
 19 20  1  0
 20 21  1  0
 21 22  2  0
 22 23  1  0
 23 24  2  0
 24 25  1  0
 25 26  2  0
 26 27  1  0
 24 28  1  0
 23 29  1  0
 22 30  1  0
  7 31  1  0
  7 32  1  0
  6 33  1  0
  6 34  1  0
  5 35  1  0
  4 36  1  0
  1 37  1  0
  1 38  1  0
  1 39  1  0
 35  2  1  0
 20  8  1  0
 26 21  1  0
 13 11  1  0
M  END
>  <cnnaffinity>  (1) 
-5.78663

>  <filename>  (1) 
Cc1ncc(CCc2nc(C3CC3)nn2-c2cccnc2)s1

$$$$
