
     RDKit          3D

 42 45  0  0  0  0  0  0  0  0999 V2000
    5.7040   -1.2832   26.4731 C   0  0  0  0  0  0  0  0  0  0  0  0
    6.4020   -0.1679   25.7750 C   0  0  0  0  0  0  0  0  0  0  0  0
    6.0748    0.3430   24.6103 N   0  0  0  0  0  0  0  0  0  0  0  0
    7.0220    1.2939   24.3372 C   0  0  0  0  0  0  0  0  0  0  0  0
    7.1146    1.9206   22.9829 C   0  0  0  0  0  0  0  0  0  0  0  0
    8.1586    1.1532   22.2388 C   0  0  0  0  0  0  0  0  0  0  0  0
    9.4499    1.3666   22.3542 N   0  0  0  0  0  0  0  0  0  0  0  0
    9.9989    0.2326   21.8278 C   0  0  0  0  0  0  0  0  0  0  0  0
   11.4480   -0.0409   21.8521 C   0  0  0  0  0  0  0  0  0  0  0  0
   12.3147    0.9058   22.3648 C   0  0  0  0  0  0  0  0  0  0  0  0
   13.6673    0.7526   22.3593 C   0  0  0  0  0  0  0  0  0  0  0  0
   14.8294    0.4970   22.1984 N   0  0  0  0  0  0  0  0  0  0  0  0
   13.3804   -1.3975   21.3678 C   0  0  0  0  0  0  0  0  0  0  0  0
   14.3298   -2.5439   20.5813 Cl  0  0  0  0  0  0  0  0  0  0  0  0
   12.0444   -1.2739   21.3192 C   0  0  0  0  0  0  0  0  0  0  0  0
   11.3887   -2.0340   20.8830 H   0  0  0  0  0  0  0  0  0  0  0  0
   15.6428    1.0857   22.2340 H   0  0  0  0  0  0  0  0  0  0  0  0
   11.9247    1.8376   22.7617 H   0  0  0  0  0  0  0  0  0  0  0  0
    9.1147   -0.6262   21.3577 N   0  0  0  0  0  0  0  0  0  0  0  0
    7.9355   -0.0462   21.6642 N   0  0  0  0  0  0  0  0  0  0  0  0
    6.6882   -0.6457   21.2067 C   0  0  0  0  0  0  0  0  0  0  0  0
    6.1612    0.0506   19.9725 C   0  0  0  0  0  0  0  0  0  0  0  0
    4.9454    0.7373   19.9262 C   0  0  0  0  0  0  0  0  0  0  0  0
    4.6054    1.4128   18.7511 C   0  0  0  0  0  0  0  0  0  0  0  0
    5.4925    1.3815   17.6735 C   0  0  0  0  0  0  0  0  0  0  0  0
    6.6533    0.7102   17.6918 N   0  0  0  0  0  0  0  0  0  0  0  0
    6.9690    0.0683   18.8191 C   0  0  0  0  0  0  0  0  0  0  0  0
    7.9211   -0.4660   18.8230 H   0  0  0  0  0  0  0  0  0  0  0  0
    5.2683    1.9097   16.7498 H   0  0  0  0  0  0  0  0  0  0  0  0
    3.6816    1.9691   18.6644 H   0  0  0  0  0  0  0  0  0  0  0  0
    4.2724    0.7489   20.7877 H   0  0  0  0  0  0  0  0  0  0  0  0
    6.9263   -1.6986   21.0200 H   0  0  0  0  0  0  0  0  0  0  0  0
    5.9873   -0.6126   22.0474 H   0  0  0  0  0  0  0  0  0  0  0  0
    7.4265    2.9669   23.0352 H   0  0  0  0  0  0  0  0  0  0  0  0
    6.1554    1.8340   22.4702 H   0  0  0  0  0  0  0  0  0  0  0  0
    7.9420    1.3573   25.3410 C   0  0  0  0  0  0  0  0  0  0  0  0
    7.5303    0.4190   26.2648 N   0  0  0  0  0  0  0  0  0  0  0  0
    8.0011    0.1405   27.1101 H   0  0  0  0  0  0  0  0  0  0  0  0
    8.8826    1.8872   25.3502 H   0  0  0  0  0  0  0  0  0  0  0  0
    5.6066   -1.0697   27.5416 H   0  0  0  0  0  0  0  0  0  0  0  0
    4.7112   -1.4167   26.0393 H   0  0  0  0  0  0  0  0  0  0  0  0
    6.2557   -2.2244   26.3614 H   0  0  0  0  0  0  0  0  0  0  0  0
  1  2  1  0
  2  3  2  0
  3  4  1  0
  4  5  1  0
  5  6  1  0
  6  7  2  0
  7  8  1  0
  8  9  1  0
  9 10  2  0
 10 11  1  0
 11 12  2  0
 12 13  1  0
 13 14  1  0
 13 15  2  0
 15 16  1  0
 11 17  1  0
 10 18  1  0
  8 19  2  0
 19 20  1  0
 20 21  1  0
 21 22  1  0
 22 23  2  0
 23 24  1  0
 24 25  2  0
 25 26  1  0
 26 27  2  0
 27 28  1  0
 25 29  1  0
 24 30  1  0
 23 31  1  0
 21 32  1  0
 21 33  1  0
  5 34  1  0
  5 35  1  0
  4 36  2  0
 36 37  1  0
 37 38  1  0
 36 39  1  0
  1 40  1  0
  1 41  1  0
  1 42  1  0
 37  2  1  0
 20  6  1  0
 27 22  1  0
 15  9  1  0
M  END
>  <cnnaffinity>  (1) 
-6.78867

>  <filename>  (1) 
Cc1nc(Cc2nc(-c3ccnc(Cl)c3)nn2Cc2cccnc2)c[nH]1

$$$$
