
     RDKit          3D

 45 48  0  0  0  0  0  0  0  0999 V2000
    5.5256   -0.7373   26.3224 C   0  0  0  0  0  0  0  0  0  0  0  0
    6.5495    0.0355   25.5700 C   0  0  0  0  0  0  0  0  0  0  0  0
    7.7697    0.2319   26.0353 N   0  0  0  0  0  0  0  0  0  0  0  0
    8.3361    0.9713   25.0511 N   0  0  0  0  0  0  0  0  0  0  0  0
    7.4597    1.1772   24.0569 C   0  0  0  0  0  0  0  0  0  0  0  0
    7.8407    1.8152   22.7578 C   0  0  0  0  0  0  0  0  0  0  0  0
    8.8678    0.9387   22.1239 C   0  0  0  0  0  0  0  0  0  0  0  0
   10.1570    0.9910   22.3947 N   0  0  0  0  0  0  0  0  0  0  0  0
   10.6459   -0.1589   21.8430 C   0  0  0  0  0  0  0  0  0  0  0  0
   12.0999   -0.5109   21.7421 C   0  0  0  0  0  0  0  0  0  0  0  0
   13.1509    0.3144   22.2102 C   0  0  0  0  0  0  0  0  0  0  0  0
   14.4280    0.1259   21.6795 C   0  0  0  0  0  0  0  0  0  0  0  0
   14.7092   -0.7618   20.5744 C   0  0  0  0  0  0  0  0  0  0  0  0
   16.0063   -0.3239   19.6622 C   0  0  0  0  0  0  0  0  0  0  0  0
   15.9247    0.1070   18.6546 H   0  0  0  0  0  0  0  0  0  0  0  0
   16.3923    0.5634   20.1468 H   0  0  0  0  0  0  0  0  0  0  0  0
   16.8155   -1.0540   19.6611 H   0  0  0  0  0  0  0  0  0  0  0  0
   13.7655   -1.7840   20.4572 C   0  0  0  0  0  0  0  0  0  0  0  0
   14.0886   -2.9442   19.8697 F   0  0  0  0  0  0  0  0  0  0  0  0
   12.4796   -1.6446   21.0021 C   0  0  0  0  0  0  0  0  0  0  0  0
   11.7264   -2.3917   20.8342 H   0  0  0  0  0  0  0  0  0  0  0  0
   15.2183    0.7939   22.0285 H   0  0  0  0  0  0  0  0  0  0  0  0
   12.9985    1.1353   22.9088 H   0  0  0  0  0  0  0  0  0  0  0  0
    9.7051   -0.9089   21.2767 N   0  0  0  0  0  0  0  0  0  0  0  0
    8.5732   -0.1889   21.4488 N   0  0  0  0  0  0  0  0  0  0  0  0
    7.2655   -0.7097   21.0510 C   0  0  0  0  0  0  0  0  0  0  0  0
    6.5712    0.0526   19.9312 C   0  0  0  0  0  0  0  0  0  0  0  0
    5.3361    0.6958   20.1006 C   0  0  0  0  0  0  0  0  0  0  0  0
    4.7538    1.3477   19.0085 C   0  0  0  0  0  0  0  0  0  0  0  0
    5.4249    1.3302   17.7823 C   0  0  0  0  0  0  0  0  0  0  0  0
    6.6017    0.7120   17.5936 N   0  0  0  0  0  0  0  0  0  0  0  0
    7.1510    0.0996   18.6503 C   0  0  0  0  0  0  0  0  0  0  0  0
    8.1000   -0.4030   18.4685 H   0  0  0  0  0  0  0  0  0  0  0  0
    5.0038    1.8393   16.9162 H   0  0  0  0  0  0  0  0  0  0  0  0
    3.8103    1.8768   19.0974 H   0  0  0  0  0  0  0  0  0  0  0  0
    4.8303    0.6865   21.0714 H   0  0  0  0  0  0  0  0  0  0  0  0
    6.6301   -0.7148   21.9479 H   0  0  0  0  0  0  0  0  0  0  0  0
    7.4568   -1.7458   20.7541 H   0  0  0  0  0  0  0  0  0  0  0  0
    6.9394    1.9087   22.1481 H   0  0  0  0  0  0  0  0  0  0  0  0
    8.2723    2.8003   22.9333 H   0  0  0  0  0  0  0  0  0  0  0  0
    6.3185    0.5987   24.3418 N   0  0  0  0  0  0  0  0  0  0  0  0
    9.3374    1.1119   24.9941 H   0  0  0  0  0  0  0  0  0  0  0  0
    4.8783   -1.2745   25.6270 H   0  0  0  0  0  0  0  0  0  0  0  0
    4.9092   -0.0594   26.9210 H   0  0  0  0  0  0  0  0  0  0  0  0
    6.0157   -1.4458   26.9934 H   0  0  0  0  0  0  0  0  0  0  0  0
  1  2  1  0
  2  3  2  0
  3  4  1  0
  4  5  1  0
  5  6  1  0
  6  7  1  0
  7  8  2  0
  8  9  1  0
  9 10  1  0
 10 11  2  0
 11 12  1  0
 12 13  2  0
 13 14  1  0
 14 15  1  0
 14 16  1  0
 14 17  1  0
 13 18  1  0
 18 19  1  0
 18 20  2  0
 20 21  1  0
 12 22  1  0
 11 23  1  0
  9 24  2  0
 24 25  1  0
 25 26  1  0
 26 27  1  0
 27 28  2  0
 28 29  1  0
 29 30  2  0
 30 31  1  0
 31 32  2  0
 32 33  1  0
 30 34  1  0
 29 35  1  0
 28 36  1  0
 26 37  1  0
 26 38  1  0
  6 39  1  0
  6 40  1  0
  5 41  2  0
  4 42  1  0
  1 43  1  0
  1 44  1  0
  1 45  1  0
 41  2  1  0
 25  7  1  0
 32 27  1  0
 20 10  1  0
M  END
>  <cnnaffinity>  (1) 
-6.53548

>  <filename>  (1) 
Cc1n[nH]c(Cc2nc(-c3ccc(C)c(F)c3)nn2Cc2cccnc2)n1

$$$$
