
     RDKit          3D

 49 52  0  0  0  0  0  0  0  0999 V2000
   13.5915    3.3330   22.6760 C   0  0  0  0  0  0  0  0  0  0  0  0
   12.6400    2.2859   22.1908 C   0  0  0  0  0  0  0  0  0  0  0  0
   11.4717    2.6322   21.6821 N   0  0  0  0  0  0  0  0  0  0  0  0
   10.8272    1.4803   21.4267 N   0  0  0  0  0  0  0  0  0  0  0  0
    9.4426    1.5434   20.9959 C   0  0  0  0  0  0  0  0  0  0  0  0
    8.5256    1.1925   22.1167 C   0  0  0  0  0  0  0  0  0  0  0  0
    8.4695    1.8648   23.2379 N   0  0  0  0  0  0  0  0  0  0  0  0
    7.5283    1.2070   23.9665 C   0  0  0  0  0  0  0  0  0  0  0  0
    7.1582    1.6932   25.3180 C   0  0  0  0  0  0  0  0  0  0  0  0
    6.0715    1.1489   26.0271 C   0  0  0  0  0  0  0  0  0  0  0  0
    5.7046    1.6786   27.2657 C   0  0  0  0  0  0  0  0  0  0  0  0
    6.4240    2.7410   27.8240 C   0  0  0  0  0  0  0  0  0  0  0  0
    7.5183    3.2765   27.1374 C   0  0  0  0  0  0  0  0  0  0  0  0
    7.8883    2.7542   25.8991 C   0  0  0  0  0  0  0  0  0  0  0  0
    8.7378    3.1713   25.3617 H   0  0  0  0  0  0  0  0  0  0  0  0
    8.0709    4.1143   27.5566 H   0  0  0  0  0  0  0  0  0  0  0  0
    6.1266    3.1574   28.7825 H   0  0  0  0  0  0  0  0  0  0  0  0
    4.8445    1.2706   27.7893 H   0  0  0  0  0  0  0  0  0  0  0  0
    5.5199    0.3181   25.5909 H   0  0  0  0  0  0  0  0  0  0  0  0
    7.0090    0.1588   23.3389 N   0  0  0  0  0  0  0  0  0  0  0  0
    7.6488    0.1641   22.1451 N   0  0  0  0  0  0  0  0  0  0  0  0
    7.2834   -0.7369   21.0548 C   0  0  0  0  0  0  0  0  0  0  0  0
    6.6355   -0.0250   19.8802 C   0  0  0  0  0  0  0  0  0  0  0  0
    5.4541    0.6961   20.0853 C   0  0  0  0  0  0  0  0  0  0  0  0
    4.8801    1.3555   18.9968 C   0  0  0  0  0  0  0  0  0  0  0  0
    5.4997    1.2740   17.7452 C   0  0  0  0  0  0  0  0  0  0  0  0
    6.6275    0.5823   17.5288 N   0  0  0  0  0  0  0  0  0  0  0  0
    7.1718   -0.0430   18.5816 C   0  0  0  0  0  0  0  0  0  0  0  0
    8.0894   -0.5940   18.3648 H   0  0  0  0  0  0  0  0  0  0  0  0
    5.0739    1.7831   16.8804 H   0  0  0  0  0  0  0  0  0  0  0  0
    3.9682    1.9307   19.1034 H   0  0  0  0  0  0  0  0  0  0  0  0
    5.0001    0.7284   21.0805 H   0  0  0  0  0  0  0  0  0  0  0  0
    8.1713   -1.2818   20.7149 H   0  0  0  0  0  0  0  0  0  0  0  0
    6.6094   -1.4806   21.4863 H   0  0  0  0  0  0  0  0  0  0  0  0
    9.2598    2.5892   20.7339 H   0  0  0  0  0  0  0  0  0  0  0  0
    9.2824    0.9133   20.1134 H   0  0  0  0  0  0  0  0  0  0  0  0
   11.5616    0.3903   21.8009 C   0  0  0  0  0  0  0  0  0  0  0  0
   11.0733   -1.0337   21.7471 C   0  0  0  0  0  0  0  0  0  0  0  0
   10.5519   -1.3029   22.6755 H   0  0  0  0  0  0  0  0  0  0  0  0
   10.3772   -1.1948   20.9162 H   0  0  0  0  0  0  0  0  0  0  0  0
   11.9017   -1.7428   21.6241 H   0  0  0  0  0  0  0  0  0  0  0  0
   12.7793    0.8792   22.2474 C   0  0  0  0  0  0  0  0  0  0  0  0
   14.0305    0.1206   22.5812 C   0  0  0  0  0  0  0  0  0  0  0  0
   14.1534   -0.7657   21.9436 H   0  0  0  0  0  0  0  0  0  0  0  0
   14.9154    0.7507   22.4342 H   0  0  0  0  0  0  0  0  0  0  0  0
   14.0597   -0.2090   23.6253 H   0  0  0  0  0  0  0  0  0  0  0  0
   13.5386    3.4059   23.7656 H   0  0  0  0  0  0  0  0  0  0  0  0
   14.6266    3.0967   22.4079 H   0  0  0  0  0  0  0  0  0  0  0  0
   13.3169    4.2988   22.2477 H   0  0  0  0  0  0  0  0  0  0  0  0
  1  2  1  0
  2  3  2  0
  3  4  1  0
  4  5  1  0
  5  6  1  0
  6  7  2  0
  7  8  1  0
  8  9  1  0
  9 10  2  0
 10 11  1  0
 11 12  2  0
 12 13  1  0
 13 14  2  0
 14 15  1  0
 13 16  1  0
 12 17  1  0
 11 18  1  0
 10 19  1  0
  8 20  2  0
 20 21  1  0
 21 22  1  0
 22 23  1  0
 23 24  2  0
 24 25  1  0
 25 26  2  0
 26 27  1  0
 27 28  2  0
 28 29  1  0
 26 30  1  0
 25 31  1  0
 24 32  1  0
 22 33  1  0
 22 34  1  0
  5 35  1  0
  5 36  1  0
  4 37  1  0
 37 38  1  0
 38 39  1  0
 38 40  1  0
 38 41  1  0
 37 42  2  0
 42 43  1  0
 43 44  1  0
 43 45  1  0
 43 46  1  0
  1 47  1  0
  1 48  1  0
  1 49  1  0
 42  2  1  0
 21  6  1  0
 28 23  1  0
 14  9  1  0
M  END
>  <cnnaffinity>  (1) 
-6.57021

>  <filename>  (1) 
Cc1nn(Cc2nc(-c3ccccc3)nn2Cc2cccnc2)c(C)c1C

$$$$
