
     RDKit          3D

 43 47  0  0  0  0  0  0  0  0999 V2000
    9.5135    2.4322   21.6868 C   0  0  0  0  0  0  0  0  0  0  0  0
    9.6293    1.6845   22.9832 C   0  0  0  0  0  0  0  0  0  0  0  0
   10.8426    1.6418   23.5544 N   0  0  0  0  0  0  0  0  0  0  0  0
   10.9847    1.0372   24.7431 C   0  0  0  0  0  0  0  0  0  0  0  0
    9.9095    0.4521   25.4143 C   0  0  0  0  0  0  0  0  0  0  0  0
   10.1294   -0.3859   26.9166 Cl  0  0  0  0  0  0  0  0  0  0  0  0
    8.6362    0.5067   24.8452 C   0  0  0  0  0  0  0  0  0  0  0  0
    8.4919    1.0820   23.5784 C   0  0  0  0  0  0  0  0  0  0  0  0
    7.1611    0.8775   22.8472 C   0  0  0  0  0  0  0  0  0  0  0  0
    7.0493   -0.5085   22.2674 C   0  0  0  0  0  0  0  0  0  0  0  0
    7.4328   -1.5782   22.9324 N   0  0  0  0  0  0  0  0  0  0  0  0
    7.4707   -2.5509   21.9937 C   0  0  0  0  0  0  0  0  0  0  0  0
    8.2565   -3.7913   22.2094 C   0  0  0  0  0  0  0  0  0  0  0  0
    7.7145   -5.2133   22.3120 C   0  0  0  0  0  0  0  0  0  0  0  0
    8.3202   -4.5245   23.5124 C   0  0  0  0  0  0  0  0  0  0  0  0
    9.3629   -4.6878   24.5627 C   0  0  0  0  0  0  0  0  0  0  0  0
    7.9569   -4.1899   24.9175 C   0  0  0  0  0  0  0  0  0  0  0  0
    7.3154   -4.9013   25.4425 H   0  0  0  0  0  0  0  0  0  0  0  0
    7.7907   -3.1309   25.1400 H   0  0  0  0  0  0  0  0  0  0  0  0
   10.1933   -3.9784   24.5590 H   0  0  0  0  0  0  0  0  0  0  0  0
    9.6210   -5.6905   24.8988 H   0  0  0  0  0  0  0  0  0  0  0  0
    8.2825   -5.9948   21.8066 H   0  0  0  0  0  0  0  0  0  0  0  0
    6.6333   -5.3636   22.3425 H   0  0  0  0  0  0  0  0  0  0  0  0
    9.2348   -3.6454   21.7562 H   0  0  0  0  0  0  0  0  0  0  0  0
    7.0490   -2.1756   20.7976 N   0  0  0  0  0  0  0  0  0  0  0  0
    6.7272   -0.8605   20.9840 N   0  0  0  0  0  0  0  0  0  0  0  0
    6.3100   -0.0654   19.8794 C   0  0  0  0  0  0  0  0  0  0  0  0
    5.3809    0.9798   20.0027 C   0  0  0  0  0  0  0  0  0  0  0  0
    5.0380    1.6950   18.8496 C   0  0  0  0  0  0  0  0  0  0  0  0
    5.6372    1.3616   17.6324 C   0  0  0  0  0  0  0  0  0  0  0  0
    6.5318    0.3629   17.5099 N   0  0  0  0  0  0  0  0  0  0  0  0
    6.8468   -0.3309   18.6052 C   0  0  0  0  0  0  0  0  0  0  0  0
    7.5757   -1.1323   18.4965 H   0  0  0  0  0  0  0  0  0  0  0  0
    5.4063    1.9099   16.7217 H   0  0  0  0  0  0  0  0  0  0  0  0
    4.3271    2.5147   18.8872 H   0  0  0  0  0  0  0  0  0  0  0  0
    4.9411    1.2352   20.9682 H   0  0  0  0  0  0  0  0  0  0  0  0
    6.9969    1.6241   22.0670 H   0  0  0  0  0  0  0  0  0  0  0  0
    6.3465    0.9771   23.5730 H   0  0  0  0  0  0  0  0  0  0  0  0
    7.7875    0.0525   25.3562 H   0  0  0  0  0  0  0  0  0  0  0  0
   11.9846    1.0350   25.1783 H   0  0  0  0  0  0  0  0  0  0  0  0
    8.8876    3.3235   21.8226 H   0  0  0  0  0  0  0  0  0  0  0  0
   10.5011    2.7521   21.3496 H   0  0  0  0  0  0  0  0  0  0  0  0
    9.0483    1.8164   20.9090 H   0  0  0  0  0  0  0  0  0  0  0  0
  1  2  1  0
  2  3  2  0
  3  4  1  0
  4  5  2  0
  5  6  1  0
  5  7  1  0
  7  8  2  0
  8  9  1  0
  9 10  1  0
 10 11  2  0
 11 12  1  0
 12 13  1  0
 13 14  1  0
 14 15  1  0
 15 16  1  0
 16 17  1  0
 17 18  1  0
 17 19  1  0
 16 20  1  0
 16 21  1  0
 14 22  1  0
 14 23  1  0
 13 24  1  0
 12 25  2  0
 25 26  1  0
 26 27  1  0
 27 28  2  0
 28 29  1  0
 29 30  2  0
 30 31  1  0
 31 32  2  0
 32 33  1  0
 30 34  1  0
 29 35  1  0
 28 36  1  0
  9 37  1  0
  9 38  1  0
  7 39  1  0
  4 40  1  0
  1 41  1  0
  1 42  1  0
  1 43  1  0
  8  2  1  0
 26 10  1  0
 32 27  1  0
 15 13  1  0
 17 15  1  0
M  END
>  <cnnaffinity>  (1) 
-6.37452

>  <filename>  (1) 
Cc1ncc(Cl)cc1Cc1nc(C2CC23CC3)nn1-c1cccnc1

$$$$
