
     RDKit          3D

 52 55  0  0  0  0  0  0  0  0999 V2000
   11.3968    2.5249   23.5885 C   0  0  0  0  0  0  0  0  0  0  0  0
    9.9596    2.2393   23.8779 C   0  0  0  0  0  0  0  0  0  0  0  0
    9.5296    2.0464   25.1223 N   0  0  0  0  0  0  0  0  0  0  0  0
    8.2247    1.7590   25.0017 N   0  0  0  0  0  0  0  0  0  0  0  0
    7.4278    1.3921   26.1494 C   0  0  0  0  0  0  0  0  0  0  0  0
    6.3727    1.5538   25.9056 H   0  0  0  0  0  0  0  0  0  0  0  0
    7.7223    2.0156   26.9971 H   0  0  0  0  0  0  0  0  0  0  0  0
    7.5858    0.3367   26.4047 H   0  0  0  0  0  0  0  0  0  0  0  0
    7.8213    1.7645   23.7133 C   0  0  0  0  0  0  0  0  0  0  0  0
    8.9127    2.0782   22.9332 C   0  0  0  0  0  0  0  0  0  0  0  0
    9.0327    2.0120   21.4322 C   0  0  0  0  0  0  0  0  0  0  0  0
    9.5243    0.6229   20.9478 C   0  0  0  0  0  0  0  0  0  0  0  0
    8.6424   -0.4997   21.3898 C   0  0  0  0  0  0  0  0  0  0  0  0
    8.8770   -1.3374   22.3851 N   0  0  0  0  0  0  0  0  0  0  0  0
    7.6704   -1.9346   22.5801 C   0  0  0  0  0  0  0  0  0  0  0  0
    7.4234   -2.8716   23.7412 C   0  0  0  0  0  0  0  0  0  0  0  0
    7.0160   -4.2971   23.2305 C   0  0  0  0  0  0  0  0  0  0  0  0
    6.2346   -5.1028   24.2899 C   0  0  0  0  0  0  0  0  0  0  0  0
    4.9244   -4.4135   24.6870 C   0  0  0  0  0  0  0  0  0  0  0  0
    4.6177   -4.7450   25.9787 F   0  0  0  0  0  0  0  0  0  0  0  0
    3.8833   -4.8981   23.9263 F   0  0  0  0  0  0  0  0  0  0  0  0
    4.9752   -2.9025   24.4960 C   0  0  0  0  0  0  0  0  0  0  0  0
    6.3669   -2.2945   24.7596 C   0  0  0  0  0  0  0  0  0  0  0  0
    6.3174   -1.1954   24.6990 H   0  0  0  0  0  0  0  0  0  0  0  0
    6.6915   -2.5122   25.7874 H   0  0  0  0  0  0  0  0  0  0  0  0
    4.1648   -2.4254   25.0580 H   0  0  0  0  0  0  0  0  0  0  0  0
    4.7731   -2.7888   23.4306 H   0  0  0  0  0  0  0  0  0  0  0  0
    5.9863   -6.1103   23.9429 H   0  0  0  0  0  0  0  0  0  0  0  0
    6.8389   -5.1987   25.2020 H   0  0  0  0  0  0  0  0  0  0  0  0
    6.4083   -4.1936   22.3186 H   0  0  0  0  0  0  0  0  0  0  0  0
    7.9199   -4.8372   22.9323 H   0  0  0  0  0  0  0  0  0  0  0  0
    8.3930   -2.9259   24.2489 H   0  0  0  0  0  0  0  0  0  0  0  0
    6.7284   -1.5668   21.7300 N   0  0  0  0  0  0  0  0  0  0  0  0
    7.3638   -0.6574   20.9437 N   0  0  0  0  0  0  0  0  0  0  0  0
    6.6625    0.0003   19.8966 C   0  0  0  0  0  0  0  0  0  0  0  0
    5.4420    0.6343   20.1546 C   0  0  0  0  0  0  0  0  0  0  0  0
    4.8084    1.3062   19.1043 C   0  0  0  0  0  0  0  0  0  0  0  0
    5.4019    1.2933   17.8366 C   0  0  0  0  0  0  0  0  0  0  0  0
    6.5542    0.6621   17.5749 N   0  0  0  0  0  0  0  0  0  0  0  0
    7.1683    0.0394   18.5846 C   0  0  0  0  0  0  0  0  0  0  0  0
    8.1104   -0.4536   18.3468 H   0  0  0  0  0  0  0  0  0  0  0  0
    4.9351    1.8069   16.9970 H   0  0  0  0  0  0  0  0  0  0  0  0
    3.8767    1.8399   19.2566 H   0  0  0  0  0  0  0  0  0  0  0  0
    5.0109    0.5912   21.1533 H   0  0  0  0  0  0  0  0  0  0  0  0
   10.5304    0.4249   21.3344 H   0  0  0  0  0  0  0  0  0  0  0  0
    9.5746    0.6036   19.8591 H   0  0  0  0  0  0  0  0  0  0  0  0
    9.7291    2.7763   21.0688 H   0  0  0  0  0  0  0  0  0  0  0  0
    8.0659    2.2443   20.9695 H   0  0  0  0  0  0  0  0  0  0  0  0
    6.7975    1.4916   23.4808 H   0  0  0  0  0  0  0  0  0  0  0  0
   11.9001    1.6249   23.2054 H   0  0  0  0  0  0  0  0  0  0  0  0
   11.9241    2.8499   24.4890 H   0  0  0  0  0  0  0  0  0  0  0  0
   11.4809    3.2994   22.8171 H   0  0  0  0  0  0  0  0  0  0  0  0
  1  2  1  0
  2  3  2  0
  3  4  1  0
  4  5  1  0
  5  6  1  0
  5  7  1  0
  5  8  1  0
  4  9  1  0
  9 10  2  0
 10 11  1  0
 11 12  1  0
 12 13  1  0
 13 14  2  0
 14 15  1  0
 15 16  1  0
 16 17  1  0
 17 18  1  0
 18 19  1  0
 19 20  1  0
 19 21  1  0
 19 22  1  0
 22 23  1  0
 23 24  1  0
 23 25  1  0
 22 26  1  0
 22 27  1  0
 18 28  1  0
 18 29  1  0
 17 30  1  0
 17 31  1  0
 16 32  1  0
 15 33  2  0
 33 34  1  0
 34 35  1  0
 35 36  2  0
 36 37  1  0
 37 38  2  0
 38 39  1  0
 39 40  2  0
 40 41  1  0
 38 42  1  0
 37 43  1  0
 36 44  1  0
 12 45  1  0
 12 46  1  0
 11 47  1  0
 11 48  1  0
  9 49  1  0
  1 50  1  0
  1 51  1  0
  1 52  1  0
 10  2  1  0
 34 13  1  0
 40 35  1  0
 23 16  1  0
M  END
>  <cnnaffinity>  (1) 
-6.32297

>  <filename>  (1) 
Cc1nn(C)cc1CCc1nc(C2CCC(F)(F)CC2)nn1-c1cccnc1

$$$$
