
     RDKit          3D

 43 46  0  0  0  0  0  0  0  0999 V2000
    5.7287   -1.3152   26.5546 C   0  0  0  0  0  0  0  0  0  0  0  0
    6.3743   -0.1900   25.8261 C   0  0  0  0  0  0  0  0  0  0  0  0
    6.0645    0.2136   24.6152 N   0  0  0  0  0  0  0  0  0  0  0  0
    6.9500    1.2130   24.3115 C   0  0  0  0  0  0  0  0  0  0  0  0
    7.0296    1.7652   22.9243 C   0  0  0  0  0  0  0  0  0  0  0  0
    8.1086    1.0141   22.2241 C   0  0  0  0  0  0  0  0  0  0  0  0
    9.3690    1.3063   22.3837 N   0  0  0  0  0  0  0  0  0  0  0  0
   10.0128    0.1774   21.9689 C   0  0  0  0  0  0  0  0  0  0  0  0
   11.4663    0.0848   22.1910 C   0  0  0  0  0  0  0  0  0  0  0  0
   12.2667   -0.9523   21.6812 C   0  0  0  0  0  0  0  0  0  0  0  0
   13.6456   -0.8411   21.8417 C   0  0  0  0  0  0  0  0  0  0  0  0
   14.4546   -1.7840   21.3413 F   0  0  0  0  0  0  0  0  0  0  0  0
   14.2299    0.2422   22.4908 C   0  0  0  0  0  0  0  0  0  0  0  0
   13.4258    1.2151   23.0753 C   0  0  0  0  0  0  0  0  0  0  0  0
   12.0489    1.1362   22.9309 C   0  0  0  0  0  0  0  0  0  0  0  0
   11.4012    1.8900   23.3653 H   0  0  0  0  0  0  0  0  0  0  0  0
   13.8729    2.0474   23.6120 H   0  0  0  0  0  0  0  0  0  0  0  0
   15.2982    0.3383   22.4695 H   0  0  0  0  0  0  0  0  0  0  0  0
   11.8417   -1.8089   21.1652 H   0  0  0  0  0  0  0  0  0  0  0  0
    9.2114   -0.7553   21.4800 N   0  0  0  0  0  0  0  0  0  0  0  0
    7.9813   -0.2114   21.6854 N   0  0  0  0  0  0  0  0  0  0  0  0
    6.7528   -0.8148   21.1897 C   0  0  0  0  0  0  0  0  0  0  0  0
    6.2072   -0.0682   19.9873 C   0  0  0  0  0  0  0  0  0  0  0  0
    4.9969    0.6358   19.9766 C   0  0  0  0  0  0  0  0  0  0  0  0
    4.6591    1.3725   18.8354 C   0  0  0  0  0  0  0  0  0  0  0  0
    5.5282    1.3600   17.7425 C   0  0  0  0  0  0  0  0  0  0  0  0
    6.6810    0.6755   17.7238 N   0  0  0  0  0  0  0  0  0  0  0  0
    7.0046   -0.0010   18.8310 C   0  0  0  0  0  0  0  0  0  0  0  0
    7.9688   -0.5073   18.8174 H   0  0  0  0  0  0  0  0  0  0  0  0
    5.2926    1.9208   16.8395 H   0  0  0  0  0  0  0  0  0  0  0  0
    3.7537    1.9664   18.7857 H   0  0  0  0  0  0  0  0  0  0  0  0
    4.3237    0.6277   20.8374 H   0  0  0  0  0  0  0  0  0  0  0  0
    6.0350   -0.8246   22.0191 H   0  0  0  0  0  0  0  0  0  0  0  0
    7.0049   -1.8510   20.9559 H   0  0  0  0  0  0  0  0  0  0  0  0
    7.3013    2.8212   22.9296 H   0  0  0  0  0  0  0  0  0  0  0  0
    6.0763    1.6431   22.4156 H   0  0  0  0  0  0  0  0  0  0  0  0
    7.8185    1.4123   25.3446 C   0  0  0  0  0  0  0  0  0  0  0  0
    7.4372    0.5070   26.3178 N   0  0  0  0  0  0  0  0  0  0  0  0
    7.9303    0.2747   27.1632 H   0  0  0  0  0  0  0  0  0  0  0  0
    8.6957    2.0376   25.4068 H   0  0  0  0  0  0  0  0  0  0  0  0
    6.3196   -2.2286   26.4226 H   0  0  0  0  0  0  0  0  0  0  0  0
    5.6371   -1.1134   27.6263 H   0  0  0  0  0  0  0  0  0  0  0  0
    4.7377   -1.4839   26.1291 H   0  0  0  0  0  0  0  0  0  0  0  0
  1  2  1  0
  2  3  2  0
  3  4  1  0
  4  5  1  0
  5  6  1  0
  6  7  2  0
  7  8  1  0
  8  9  1  0
  9 10  2  0
 10 11  1  0
 11 12  1  0
 11 13  2  0
 13 14  1  0
 14 15  2  0
 15 16  1  0
 14 17  1  0
 13 18  1  0
 10 19  1  0
  8 20  2  0
 20 21  1  0
 21 22  1  0
 22 23  1  0
 23 24  2  0
 24 25  1  0
 25 26  2  0
 26 27  1  0
 27 28  2  0
 28 29  1  0
 26 30  1  0
 25 31  1  0
 24 32  1  0
 22 33  1  0
 22 34  1  0
  5 35  1  0
  5 36  1  0
  4 37  2  0
 37 38  1  0
 38 39  1  0
 37 40  1  0
  1 41  1  0
  1 42  1  0
  1 43  1  0
 38  2  1  0
 21  6  1  0
 28 23  1  0
 15  9  1  0
M  END
>  <cnnaffinity>  (1) 
-6.6745

>  <filename>  (1) 
Cc1nc(Cc2nc(-c3cccc(F)c3)nn2Cc2cccnc2)c[nH]1

$$$$
