
     RDKit          3D

 45 48  0  0  0  0  0  0  0  0999 V2000
    9.0061    1.9028   26.2766 C   0  0  0  0  0  0  0  0  0  0  0  0
    8.5737    2.0222   24.8566 C   0  0  0  0  0  0  0  0  0  0  0  0
    7.3529    1.8995   24.4268 N   0  0  0  0  0  0  0  0  0  0  0  0
    7.3349    1.9668   23.0548 C   0  0  0  0  0  0  0  0  0  0  0  0
    8.5284    2.1447   22.4141 C   0  0  0  0  0  0  0  0  0  0  0  0
    8.9157    1.9212   20.9843 C   0  0  0  0  0  0  0  0  0  0  0  0
    9.5066    0.4991   20.7443 C   0  0  0  0  0  0  0  0  0  0  0  0
    8.6381   -0.5900   21.2814 C   0  0  0  0  0  0  0  0  0  0  0  0
    8.8729   -1.3759   22.3150 N   0  0  0  0  0  0  0  0  0  0  0  0
    7.6577   -1.9424   22.5499 C   0  0  0  0  0  0  0  0  0  0  0  0
    7.3724   -2.8056   23.7471 C   0  0  0  0  0  0  0  0  0  0  0  0
    6.4176   -3.9869   23.4746 C   0  0  0  0  0  0  0  0  0  0  0  0
    5.8825   -4.3882   24.8595 C   0  0  0  0  0  0  0  0  0  0  0  0
    5.9477   -3.1118   25.7373 C   0  0  0  0  0  0  0  0  0  0  0  0
    6.6595   -2.0331   24.8921 C   0  0  0  0  0  0  0  0  0  0  0  0
    7.3480   -1.4006   25.4717 H   0  0  0  0  0  0  0  0  0  0  0  0
    5.9131   -1.3596   24.4524 H   0  0  0  0  0  0  0  0  0  0  0  0
    4.9471   -2.7734   26.0286 H   0  0  0  0  0  0  0  0  0  0  0  0
    6.4907   -3.3106   26.6674 H   0  0  0  0  0  0  0  0  0  0  0  0
    6.5025   -5.1810   25.2944 H   0  0  0  0  0  0  0  0  0  0  0  0
    4.8660   -4.7922   24.7950 H   0  0  0  0  0  0  0  0  0  0  0  0
    5.5956   -3.6420   22.8357 H   0  0  0  0  0  0  0  0  0  0  0  0
    6.9112   -4.8138   22.9505 H   0  0  0  0  0  0  0  0  0  0  0  0
    8.3389   -3.1800   24.1060 H   0  0  0  0  0  0  0  0  0  0  0  0
    6.7066   -1.5777   21.7034 N   0  0  0  0  0  0  0  0  0  0  0  0
    7.3522   -0.7394   20.8563 N   0  0  0  0  0  0  0  0  0  0  0  0
    6.6422   -0.0707   19.8244 C   0  0  0  0  0  0  0  0  0  0  0  0
    5.4373    0.5834   20.1071 C   0  0  0  0  0  0  0  0  0  0  0  0
    4.8207    1.3073   19.0821 C   0  0  0  0  0  0  0  0  0  0  0  0
    5.4169    1.3265   17.8149 C   0  0  0  0  0  0  0  0  0  0  0  0
    6.5505    0.6701   17.5273 N   0  0  0  0  0  0  0  0  0  0  0  0
    7.1394   -0.0186   18.5110 C   0  0  0  0  0  0  0  0  0  0  0  0
    8.0584   -0.5456   18.2547 H   0  0  0  0  0  0  0  0  0  0  0  0
    4.9598    1.8762   16.9948 H   0  0  0  0  0  0  0  0  0  0  0  0
    3.8985    1.8511   19.2528 H   0  0  0  0  0  0  0  0  0  0  0  0
    5.0076    0.5141   21.1071 H   0  0  0  0  0  0  0  0  0  0  0  0
   10.4907    0.4032   21.2079 H   0  0  0  0  0  0  0  0  0  0  0  0
    9.6320    0.3281   19.6759 H   0  0  0  0  0  0  0  0  0  0  0  0
    9.6626    2.6636   20.6870 H   0  0  0  0  0  0  0  0  0  0  0  0
    8.0362    2.0733   20.3479 H   0  0  0  0  0  0  0  0  0  0  0  0
    9.7492    2.3362   23.6196 S   0  0  0  0  0  0  0  0  0  0  0  0
    6.3908    1.8445   22.5400 H   0  0  0  0  0  0  0  0  0  0  0  0
    8.8987    2.8718   26.7766 H   0  0  0  0  0  0  0  0  0  0  0  0
   10.0490    1.5795   26.3215 H   0  0  0  0  0  0  0  0  0  0  0  0
    8.3722    1.1803   26.8002 H   0  0  0  0  0  0  0  0  0  0  0  0
  1  2  1  0
  2  3  2  0
  3  4  1  0
  4  5  2  0
  5  6  1  0
  6  7  1  0
  7  8  1  0
  8  9  2  0
  9 10  1  0
 10 11  1  0
 11 12  1  0
 12 13  1  0
 13 14  1  0
 14 15  1  0
 15 16  1  0
 15 17  1  0
 14 18  1  0
 14 19  1  0
 13 20  1  0
 13 21  1  0
 12 22  1  0
 12 23  1  0
 11 24  1  0
 10 25  2  0
 25 26  1  0
 26 27  1  0
 27 28  2  0
 28 29  1  0
 29 30  2  0
 30 31  1  0
 31 32  2  0
 32 33  1  0
 30 34  1  0
 29 35  1  0
 28 36  1  0
  7 37  1  0
  7 38  1  0
  6 39  1  0
  6 40  1  0
  5 41  1  0
  4 42  1  0
  1 43  1  0
  1 44  1  0
  1 45  1  0
 41  2  1  0
 26  8  1  0
 32 27  1  0
 15 11  1  0
M  END
>  <cnnaffinity>  (1) 
-6.16057

>  <filename>  (1) 
Cc1ncc(CCc2nc(C3CCCC3)nn2-c2cccnc2)s1

$$$$
