
     RDKit          3D

 42 45  0  0  0  0  0  0  0  0999 V2000
    7.7544   -0.4520   27.5977 C   0  0  0  0  0  0  0  0  0  0  0  0
    7.2755    0.1971   26.3418 C   0  0  0  0  0  0  0  0  0  0  0  0
    6.1315   -0.0525   25.7803 N   0  0  0  0  0  0  0  0  0  0  0  0
    6.0251    0.6177   24.5852 C   0  0  0  0  0  0  0  0  0  0  0  0
    7.0922    1.3751   24.2087 C   0  0  0  0  0  0  0  0  0  0  0  0
    7.4836    1.8948   22.8407 C   0  0  0  0  0  0  0  0  0  0  0  0
    8.4978    0.9754   22.2195 C   0  0  0  0  0  0  0  0  0  0  0  0
    9.8029    1.0595   22.3922 N   0  0  0  0  0  0  0  0  0  0  0  0
   10.2477   -0.1570   21.9930 C   0  0  0  0  0  0  0  0  0  0  0  0
   11.6716   -0.5598   21.9361 C   0  0  0  0  0  0  0  0  0  0  0  0
   11.9430   -1.7737   21.2857 C   0  0  0  0  0  0  0  0  0  0  0  0
   13.2159   -2.0239   20.7852 C   0  0  0  0  0  0  0  0  0  0  0  0
   14.2619   -1.1824   21.1374 C   0  0  0  0  0  0  0  0  0  0  0  0
   14.0463   -0.0772   21.9806 C   0  0  0  0  0  0  0  0  0  0  0  0
   12.7383    0.2624   22.3530 C   0  0  0  0  0  0  0  0  0  0  0  0
   12.5359    1.1748   22.9149 H   0  0  0  0  0  0  0  0  0  0  0  0
   14.8666    0.5714   22.2716 H   0  0  0  0  0  0  0  0  0  0  0  0
   15.2029   -1.4237   20.6753 H   0  0  0  0  0  0  0  0  0  0  0  0
   13.4223   -2.8370   20.0936 H   0  0  0  0  0  0  0  0  0  0  0  0
   11.1033   -2.4492   21.1653 H   0  0  0  0  0  0  0  0  0  0  0  0
    9.2856   -0.9572   21.5513 N   0  0  0  0  0  0  0  0  0  0  0  0
    8.1683   -0.2164   21.6721 N   0  0  0  0  0  0  0  0  0  0  0  0
    6.9144   -0.7289   21.1146 C   0  0  0  0  0  0  0  0  0  0  0  0
    6.3440    0.0644   19.9543 C   0  0  0  0  0  0  0  0  0  0  0  0
    5.1223    0.7434   20.0231 C   0  0  0  0  0  0  0  0  0  0  0  0
    4.6632    1.4323   18.8971 C   0  0  0  0  0  0  0  0  0  0  0  0
    5.4363    1.4036   17.7341 C   0  0  0  0  0  0  0  0  0  0  0  0
    6.5990    0.7406   17.6369 N   0  0  0  0  0  0  0  0  0  0  0  0
    7.0329    0.0993   18.7287 C   0  0  0  0  0  0  0  0  0  0  0  0
    7.9708   -0.4436   18.6178 H   0  0  0  0  0  0  0  0  0  0  0  0
    5.1052    1.9257   16.8383 H   0  0  0  0  0  0  0  0  0  0  0  0
    3.7338    1.9905   18.9077 H   0  0  0  0  0  0  0  0  0  0  0  0
    4.5257    0.7326   20.9376 H   0  0  0  0  0  0  0  0  0  0  0  0
    6.1811   -0.8221   21.9211 H   0  0  0  0  0  0  0  0  0  0  0  0
    7.1543   -1.7460   20.7903 H   0  0  0  0  0  0  0  0  0  0  0  0
    6.6076    1.9681   22.1894 H   0  0  0  0  0  0  0  0  0  0  0  0
    7.9482    2.8819   22.8989 H   0  0  0  0  0  0  0  0  0  0  0  0
    8.2536    1.3632   25.5005 S   0  0  0  0  0  0  0  0  0  0  0  0
    5.1137    0.5017   24.0101 H   0  0  0  0  0  0  0  0  0  0  0  0
    7.7798    0.2625   28.4275 H   0  0  0  0  0  0  0  0  0  0  0  0
    7.0705   -1.2638   27.8504 H   0  0  0  0  0  0  0  0  0  0  0  0
    8.7634   -0.8601   27.4773 H   0  0  0  0  0  0  0  0  0  0  0  0
  1  2  1  0
  2  3  2  0
  3  4  1  0
  4  5  2  0
  5  6  1  0
  6  7  1  0
  7  8  2  0
  8  9  1  0
  9 10  1  0
 10 11  2  0
 11 12  1  0
 12 13  2  0
 13 14  1  0
 14 15  2  0
 15 16  1  0
 14 17  1  0
 13 18  1  0
 12 19  1  0
 11 20  1  0
  9 21  2  0
 21 22  1  0
 22 23  1  0
 23 24  1  0
 24 25  2  0
 25 26  1  0
 26 27  2  0
 27 28  1  0
 28 29  2  0
 29 30  1  0
 27 31  1  0
 26 32  1  0
 25 33  1  0
 23 34  1  0
 23 35  1  0
  6 36  1  0
  6 37  1  0
  5 38  1  0
  4 39  1  0
  1 40  1  0
  1 41  1  0
  1 42  1  0
 38  2  1  0
 22  7  1  0
 29 24  1  0
 15 10  1  0
M  END
>  <cnnaffinity>  (1) 
-6.53393

>  <filename>  (1) 
Cc1ncc(Cc2nc(-c3ccccc3)nn2Cc2cccnc2)s1

$$$$
