
     RDKit          3D

 43 46  0  0  0  0  0  0  0  0999 V2000
   11.8789    2.6972   24.0297 C   0  0  0  0  0  0  0  0  0  0  0  0
   11.5645    1.7007   22.9770 C   0  0  0  0  0  0  0  0  0  0  0  0
   10.5189    1.6237   22.2245 N   0  0  0  0  0  0  0  0  0  0  0  0
   10.7049    0.4728   21.4689 C   0  0  0  0  0  0  0  0  0  0  0  0
    9.6082    0.0417   20.5579 C   0  0  0  0  0  0  0  0  0  0  0  0
    8.5339   -0.7164   21.2642 C   0  0  0  0  0  0  0  0  0  0  0  0
    8.7343   -1.5104   22.2966 N   0  0  0  0  0  0  0  0  0  0  0  0
    7.5051   -2.0283   22.5379 C   0  0  0  0  0  0  0  0  0  0  0  0
    7.2740   -3.0315   23.6319 C   0  0  0  0  0  0  0  0  0  0  0  0
    6.9221   -4.4295   23.0459 C   0  0  0  0  0  0  0  0  0  0  0  0
    6.3808   -5.3857   24.0810 C   0  0  0  0  0  0  0  0  0  0  0  0
    6.0916   -5.0380   25.3364 C   0  0  0  0  0  0  0  0  0  0  0  0
    6.1214   -3.6083   25.8321 C   0  0  0  0  0  0  0  0  0  0  0  0
    6.2266   -2.5855   24.6826 C   0  0  0  0  0  0  0  0  0  0  0  0
    6.4891   -1.6013   25.0885 H   0  0  0  0  0  0  0  0  0  0  0  0
    5.2487   -2.4800   24.1971 H   0  0  0  0  0  0  0  0  0  0  0  0
    5.2196   -3.3988   26.4244 H   0  0  0  0  0  0  0  0  0  0  0  0
    6.9603   -3.4953   26.5357 H   0  0  0  0  0  0  0  0  0  0  0  0
    5.8105   -5.8034   26.0622 H   0  0  0  0  0  0  0  0  0  0  0  0
    6.2106   -6.4087   23.7436 H   0  0  0  0  0  0  0  0  0  0  0  0
    7.8219   -4.8569   22.5813 H   0  0  0  0  0  0  0  0  0  0  0  0
    6.1882   -4.3328   22.2331 H   0  0  0  0  0  0  0  0  0  0  0  0
    8.2439   -3.1052   24.1390 H   0  0  0  0  0  0  0  0  0  0  0  0
    6.5601   -1.6236   21.7056 N   0  0  0  0  0  0  0  0  0  0  0  0
    7.2246   -0.7870   20.8664 N   0  0  0  0  0  0  0  0  0  0  0  0
    6.5333   -0.0992   19.8276 C   0  0  0  0  0  0  0  0  0  0  0  0
    5.3410    0.5882   20.0860 C   0  0  0  0  0  0  0  0  0  0  0  0
    4.7633    1.3255   19.0469 C   0  0  0  0  0  0  0  0  0  0  0  0
    5.3810    1.3366   17.7901 C   0  0  0  0  0  0  0  0  0  0  0  0
    6.5022    0.6498   17.5238 N   0  0  0  0  0  0  0  0  0  0  0  0
    7.0534   -0.0499   18.5214 C   0  0  0  0  0  0  0  0  0  0  0  0
    7.9680   -0.5892   18.2828 H   0  0  0  0  0  0  0  0  0  0  0  0
    4.9541    1.9013   16.9637 H   0  0  0  0  0  0  0  0  0  0  0  0
    3.8566    1.9015   19.1994 H   0  0  0  0  0  0  0  0  0  0  0  0
    4.8997    0.5534   21.0818 H   0  0  0  0  0  0  0  0  0  0  0  0
    9.1926    0.9583   20.1343 H   0  0  0  0  0  0  0  0  0  0  0  0
    9.9857   -0.6027   19.7580 H   0  0  0  0  0  0  0  0  0  0  0  0
   11.8838   -0.0836   21.8131 C   0  0  0  0  0  0  0  0  0  0  0  0
   12.4566    0.6983   22.7814 O   0  0  0  0  0  0  0  0  0  0  0  0
   12.4312   -0.9666   21.5221 H   0  0  0  0  0  0  0  0  0  0  0  0
   12.9234    3.0024   23.9415 H   0  0  0  0  0  0  0  0  0  0  0  0
   11.2159    3.5600   23.9450 H   0  0  0  0  0  0  0  0  0  0  0  0
   11.7215    2.2313   25.0070 H   0  0  0  0  0  0  0  0  0  0  0  0
  1  2  1  0
  2  3  2  0
  3  4  1  0
  4  5  1  0
  5  6  1  0
  6  7  2  0
  7  8  1  0
  8  9  1  0
  9 10  1  0
 10 11  1  0
 11 12  2  0
 12 13  1  0
 13 14  1  0
 14 15  1  0
 14 16  1  0
 13 17  1  0
 13 18  1  0
 12 19  1  0
 11 20  1  0
 10 21  1  0
 10 22  1  0
  9 23  1  0
  8 24  2  0
 24 25  1  0
 25 26  1  0
 26 27  2  0
 27 28  1  0
 28 29  2  0
 29 30  1  0
 30 31  2  0
 31 32  1  0
 29 33  1  0
 28 34  1  0
 27 35  1  0
  5 36  1  0
  5 37  1  0
  4 38  2  0
 38 39  1  0
 38 40  1  0
  1 41  1  0
  1 42  1  0
  1 43  1  0
 39  2  1  0
 25  6  1  0
 31 26  1  0
 14  9  1  0
M  END
>  <cnnaffinity>  (1) 
-6.32699

>  <filename>  (1) 
Cc1nc(Cc2nc(C3CC=CCC3)nn2-c2cccnc2)co1

$$$$
