
     RDKit          3D

 42 45  0  0  0  0  0  0  0  0999 V2000
    5.9065   -1.1961   26.3797 C   0  0  0  0  0  0  0  0  0  0  0  0
    6.7528   -0.2034   25.6599 C   0  0  0  0  0  0  0  0  0  0  0  0
    6.5081    0.3168   24.4773 N   0  0  0  0  0  0  0  0  0  0  0  0
    7.5591    1.1517   24.2037 C   0  0  0  0  0  0  0  0  0  0  0  0
    7.6881    1.8186   22.8680 C   0  0  0  0  0  0  0  0  0  0  0  0
    8.6994    1.0596   22.0733 C   0  0  0  0  0  0  0  0  0  0  0  0
    9.9943    1.2223   22.2340 N   0  0  0  0  0  0  0  0  0  0  0  0
   10.5299    0.1045   21.6681 C   0  0  0  0  0  0  0  0  0  0  0  0
   11.9697   -0.2664   21.8881 C   0  0  0  0  0  0  0  0  0  0  0  0
   12.5505   -1.4403   21.3630 C   0  0  0  0  0  0  0  0  0  0  0  0
   13.8511   -1.7917   21.7354 C   0  0  0  0  0  0  0  0  0  0  0  0
   14.5972   -1.0659   22.5776 N   0  0  0  0  0  0  0  0  0  0  0  0
   14.0700    0.0749   23.0367 C   0  0  0  0  0  0  0  0  0  0  0  0
   12.7847    0.5182   22.7304 C   0  0  0  0  0  0  0  0  0  0  0  0
   12.4307    1.4554   23.1486 H   0  0  0  0  0  0  0  0  0  0  0  0
   14.7010    0.6712   23.6890 H   0  0  0  0  0  0  0  0  0  0  0  0
   14.3148   -2.6969   21.3424 H   0  0  0  0  0  0  0  0  0  0  0  0
   12.0038   -2.0538   20.6615 H   0  0  0  0  0  0  0  0  0  0  0  0
    9.6300   -0.6917   21.1083 N   0  0  0  0  0  0  0  0  0  0  0  0
    8.4566   -0.0762   21.3912 N   0  0  0  0  0  0  0  0  0  0  0  0
    7.1722   -0.6843   21.0455 C   0  0  0  0  0  0  0  0  0  0  0  0
    6.4558    0.0268   19.9176 C   0  0  0  0  0  0  0  0  0  0  0  0
    5.2315    0.6903   20.0638 C   0  0  0  0  0  0  0  0  0  0  0  0
    4.6951    1.3631   18.9610 C   0  0  0  0  0  0  0  0  0  0  0  0
    5.3995    1.3423   17.7541 C   0  0  0  0  0  0  0  0  0  0  0  0
    6.5609    0.6912   17.5877 N   0  0  0  0  0  0  0  0  0  0  0  0
    7.0662    0.0602   18.6528 C   0  0  0  0  0  0  0  0  0  0  0  0
    8.0146   -0.4555   18.5039 H   0  0  0  0  0  0  0  0  0  0  0  0
    5.0162    1.8642   16.8791 H   0  0  0  0  0  0  0  0  0  0  0  0
    3.7641    1.9148   19.0275 H   0  0  0  0  0  0  0  0  0  0  0  0
    4.7061    0.6955   21.0232 H   0  0  0  0  0  0  0  0  0  0  0  0
    7.4000   -1.7203   20.7770 H   0  0  0  0  0  0  0  0  0  0  0  0
    6.5563   -0.7022   21.9532 H   0  0  0  0  0  0  0  0  0  0  0  0
    6.7119    1.8427   22.3801 H   0  0  0  0  0  0  0  0  0  0  0  0
    8.0551    2.8410   22.9717 H   0  0  0  0  0  0  0  0  0  0  0  0
    8.4714    1.1200   25.2194 C   0  0  0  0  0  0  0  0  0  0  0  0
    7.9417    0.2471   26.1499 N   0  0  0  0  0  0  0  0  0  0  0  0
    8.3612   -0.0576   27.0116 H   0  0  0  0  0  0  0  0  0  0  0  0
    9.4469    1.5795   25.2873 H   0  0  0  0  0  0  0  0  0  0  0  0
    4.8865   -1.1478   25.9958 H   0  0  0  0  0  0  0  0  0  0  0  0
    5.8890   -1.0102   27.4577 H   0  0  0  0  0  0  0  0  0  0  0  0
    6.2850   -2.2106   26.2168 H   0  0  0  0  0  0  0  0  0  0  0  0
  1  2  1  0
  2  3  2  0
  3  4  1  0
  4  5  1  0
  5  6  1  0
  6  7  2  0
  7  8  1  0
  8  9  1  0
  9 10  2  0
 10 11  1  0
 11 12  2  0
 12 13  1  0
 13 14  2  0
 14 15  1  0
 13 16  1  0
 11 17  1  0
 10 18  1  0
  8 19  2  0
 19 20  1  0
 20 21  1  0
 21 22  1  0
 22 23  2  0
 23 24  1  0
 24 25  2  0
 25 26  1  0
 26 27  2  0
 27 28  1  0
 25 29  1  0
 24 30  1  0
 23 31  1  0
 21 32  1  0
 21 33  1  0
  5 34  1  0
  5 35  1  0
  4 36  2  0
 36 37  1  0
 37 38  1  0
 36 39  1  0
  1 40  1  0
  1 41  1  0
  1 42  1  0
 37  2  1  0
 20  6  1  0
 27 22  1  0
 14  9  1  0
M  END
>  <cnnaffinity>  (1) 
-6.50987

>  <filename>  (1) 
Cc1nc(Cc2nc(-c3ccncc3)nn2Cc2cccnc2)c[nH]1

$$$$
