
     RDKit          3D

 43 46  0  0  0  0  0  0  0  0999 V2000
   13.6577    0.6965   23.5397 C   0  0  0  0  0  0  0  0  0  0  0  0
   12.3265    0.9339   22.9219 C   0  0  0  0  0  0  0  0  0  0  0  0
   11.5096    1.8910   23.3178 N   0  0  0  0  0  0  0  0  0  0  0  0
   10.4605    1.7302   22.4804 N   0  0  0  0  0  0  0  0  0  0  0  0
   10.6783    0.6996   21.6507 C   0  0  0  0  0  0  0  0  0  0  0  0
    9.6611    0.2047   20.6891 C   0  0  0  0  0  0  0  0  0  0  0  0
    8.6224   -0.6209   21.3447 C   0  0  0  0  0  0  0  0  0  0  0  0
    8.8436   -1.4650   22.3224 N   0  0  0  0  0  0  0  0  0  0  0  0
    7.6212   -2.0023   22.5433 C   0  0  0  0  0  0  0  0  0  0  0  0
    7.3756   -2.9771   23.6501 C   0  0  0  0  0  0  0  0  0  0  0  0
    6.5513   -2.3217   24.7968 C   0  0  0  0  0  0  0  0  0  0  0  0
    6.0521   -3.3331   25.7995 C   0  0  0  0  0  0  0  0  0  0  0  0
    5.9936   -4.6463   25.5559 C   0  0  0  0  0  0  0  0  0  0  0  0
    6.4946   -5.2778   24.2756 C   0  0  0  0  0  0  0  0  0  0  0  0
    6.6710   -4.2569   23.1391 C   0  0  0  0  0  0  0  0  0  0  0  0
    7.2435   -4.7069   22.3180 H   0  0  0  0  0  0  0  0  0  0  0  0
    5.6973   -3.9625   22.7189 H   0  0  0  0  0  0  0  0  0  0  0  0
    5.8146   -6.0792   23.9620 H   0  0  0  0  0  0  0  0  0  0  0  0
    7.4541   -5.7797   24.4806 H   0  0  0  0  0  0  0  0  0  0  0  0
    5.5902   -5.3201   26.3128 H   0  0  0  0  0  0  0  0  0  0  0  0
    5.7018   -2.9366   26.7525 H   0  0  0  0  0  0  0  0  0  0  0  0
    7.1445   -1.5508   25.3076 H   0  0  0  0  0  0  0  0  0  0  0  0
    5.6920   -1.7851   24.3668 H   0  0  0  0  0  0  0  0  0  0  0  0
    8.3758   -3.2311   24.0282 H   0  0  0  0  0  0  0  0  0  0  0  0
    6.6652   -1.5610   21.7423 N   0  0  0  0  0  0  0  0  0  0  0  0
    7.3243   -0.6924   20.9371 N   0  0  0  0  0  0  0  0  0  0  0  0
    6.6427   -0.0097   19.8981 C   0  0  0  0  0  0  0  0  0  0  0  0
    5.4314    0.6360   20.1624 C   0  0  0  0  0  0  0  0  0  0  0  0
    4.8080    1.3097   19.1085 C   0  0  0  0  0  0  0  0  0  0  0  0
    5.3969    1.2946   17.8377 C   0  0  0  0  0  0  0  0  0  0  0  0
    6.5515    0.6656   17.5780 N   0  0  0  0  0  0  0  0  0  0  0  0
    7.1583    0.0391   18.5896 C   0  0  0  0  0  0  0  0  0  0  0  0
    8.1091   -0.4346   18.3537 H   0  0  0  0  0  0  0  0  0  0  0  0
    4.9309    1.7981   16.9938 H   0  0  0  0  0  0  0  0  0  0  0  0
    3.8774    1.8440   19.2561 H   0  0  0  0  0  0  0  0  0  0  0  0
    5.0155    0.6038   21.1701 H   0  0  0  0  0  0  0  0  0  0  0  0
   10.1530   -0.4656   19.9861 H   0  0  0  0  0  0  0  0  0  0  0  0
    9.1975    1.0413   20.1680 H   0  0  0  0  0  0  0  0  0  0  0  0
   11.8586    0.1807   21.8829 N   0  0  0  0  0  0  0  0  0  0  0  0
    9.6410    2.3218   22.5373 H   0  0  0  0  0  0  0  0  0  0  0  0
   14.4125    1.2754   22.9996 H   0  0  0  0  0  0  0  0  0  0  0  0
   13.9015   -0.3610   23.4424 H   0  0  0  0  0  0  0  0  0  0  0  0
   13.6392    0.9999   24.5886 H   0  0  0  0  0  0  0  0  0  0  0  0
  1  2  1  0
  2  3  2  0
  3  4  1  0
  4  5  1  0
  5  6  1  0
  6  7  1  0
  7  8  2  0
  8  9  1  0
  9 10  1  0
 10 11  1  0
 11 12  1  0
 12 13  2  0
 13 14  1  0
 14 15  1  0
 15 16  1  0
 15 17  1  0
 14 18  1  0
 14 19  1  0
 13 20  1  0
 12 21  1  0
 11 22  1  0
 11 23  1  0
 10 24  1  0
  9 25  2  0
 25 26  1  0
 26 27  1  0
 27 28  2  0
 28 29  1  0
 29 30  2  0
 30 31  1  0
 31 32  2  0
 32 33  1  0
 30 34  1  0
 29 35  1  0
 28 36  1  0
  6 37  1  0
  6 38  1  0
  5 39  2  0
  4 40  1  0
  1 41  1  0
  1 42  1  0
  1 43  1  0
 39  2  1  0
 26  7  1  0
 32 27  1  0
 15 10  1  0
M  END
>  <cnnaffinity>  (1) 
-6.30632

>  <filename>  (1) 
Cc1n[nH]c(Cc2nc(C3CC=CCC3)nn2-c2cccnc2)n1

$$$$
