
     RDKit          3D

 42 45  0  0  0  0  0  0  0  0999 V2000
   11.2553   -0.1975   25.4632 C   0  0  0  0  0  0  0  0  0  0  0  0
   11.2478    0.8720   24.4257 C   0  0  0  0  0  0  0  0  0  0  0  0
   10.7842    0.6729   23.2352 N   0  0  0  0  0  0  0  0  0  0  0  0
   10.6284    1.8499   22.5442 C   0  0  0  0  0  0  0  0  0  0  0  0
    9.7975    1.8437   21.2979 C   0  0  0  0  0  0  0  0  0  0  0  0
    8.3104    2.2242   21.5107 C   0  0  0  0  0  0  0  0  0  0  0  0
    7.5613    1.3289   22.5237 C   0  0  0  0  0  0  0  0  0  0  0  0
    7.5760   -0.1305   22.1805 C   0  0  0  0  0  0  0  0  0  0  0  0
    8.0113   -1.1203   22.9380 N   0  0  0  0  0  0  0  0  0  0  0  0
    8.1653   -2.1400   22.0516 C   0  0  0  0  0  0  0  0  0  0  0  0
    8.8523   -3.4034   22.4067 C   0  0  0  0  0  0  0  0  0  0  0  0
    8.4994   -4.2081   23.6271 C   0  0  0  0  0  0  0  0  0  0  0  0
    8.1839   -4.7462   22.2629 C   0  0  0  0  0  0  0  0  0  0  0  0
    7.1419   -4.7648   21.9558 H   0  0  0  0  0  0  0  0  0  0  0  0
    8.7525   -5.5896   21.8808 H   0  0  0  0  0  0  0  0  0  0  0  0
    7.6777   -3.8613   24.2495 H   0  0  0  0  0  0  0  0  0  0  0  0
    9.3182   -4.6627   24.1801 H   0  0  0  0  0  0  0  0  0  0  0  0
    9.9145   -3.3178   22.1824 H   0  0  0  0  0  0  0  0  0  0  0  0
    7.7848   -1.8707   20.8148 N   0  0  0  0  0  0  0  0  0  0  0  0
    7.3349   -0.5938   20.9169 N   0  0  0  0  0  0  0  0  0  0  0  0
    6.6280    0.0286   19.8510 C   0  0  0  0  0  0  0  0  0  0  0  0
    5.4179    0.6956   20.0861 C   0  0  0  0  0  0  0  0  0  0  0  0
    4.8108    1.3463   19.0115 C   0  0  0  0  0  0  0  0  0  0  0  0
    5.4266    1.3070   17.7569 C   0  0  0  0  0  0  0  0  0  0  0  0
    6.5686    0.6368   17.5187 N   0  0  0  0  0  0  0  0  0  0  0  0
    7.1449   -0.0042   18.5436 C   0  0  0  0  0  0  0  0  0  0  0  0
    8.0646   -0.5461   18.3282 H   0  0  0  0  0  0  0  0  0  0  0  0
    4.9838    1.8256   16.9102 H   0  0  0  0  0  0  0  0  0  0  0  0
    3.8838    1.8923   19.1464 H   0  0  0  0  0  0  0  0  0  0  0  0
    4.9761    0.7049   21.0840 H   0  0  0  0  0  0  0  0  0  0  0  0
    8.0229    1.4159   23.5108 H   0  0  0  0  0  0  0  0  0  0  0  0
    6.5277    1.6757   22.6290 H   0  0  0  0  0  0  0  0  0  0  0  0
    7.7995    2.2074   20.5405 H   0  0  0  0  0  0  0  0  0  0  0  0
    8.2403    3.2621   21.8553 H   0  0  0  0  0  0  0  0  0  0  0  0
    9.8566    0.8426   20.8591 H   0  0  0  0  0  0  0  0  0  0  0  0
   10.2553    2.5469   20.6019 H   0  0  0  0  0  0  0  0  0  0  0  0
   11.1327    2.9459   23.1727 C   0  0  0  0  0  0  0  0  0  0  0  0
   11.7513    2.5008   24.7085 S   0  0  0  0  0  0  0  0  0  0  0  0
   11.1514    3.9676   22.8241 H   0  0  0  0  0  0  0  0  0  0  0  0
   10.4612   -0.9118   25.2193 H   0  0  0  0  0  0  0  0  0  0  0  0
   12.2166   -0.7105   25.4744 H   0  0  0  0  0  0  0  0  0  0  0  0
   11.0895    0.1927   26.4670 H   0  0  0  0  0  0  0  0  0  0  0  0
  1  2  1  0
  2  3  2  0
  3  4  1  0
  4  5  1  0
  5  6  1  0
  6  7  1  0
  7  8  1  0
  8  9  2  0
  9 10  1  0
 10 11  1  0
 11 12  1  0
 12 13  1  0
 13 14  1  0
 13 15  1  0
 12 16  1  0
 12 17  1  0
 11 18  1  0
 10 19  2  0
 19 20  1  0
 20 21  1  0
 21 22  2  0
 22 23  1  0
 23 24  2  0
 24 25  1  0
 25 26  2  0
 26 27  1  0
 24 28  1  0
 23 29  1  0
 22 30  1  0
  7 31  1  0
  7 32  1  0
  6 33  1  0
  6 34  1  0
  5 35  1  0
  5 36  1  0
  4 37  2  0
 37 38  1  0
 37 39  1  0
  1 40  1  0
  1 41  1  0
  1 42  1  0
 38  2  1  0
 20  8  1  0
 26 21  1  0
 13 11  1  0
M  END
>  <cnnaffinity>  (1) 
-5.65794

>  <filename>  (1) 
Cc1nc(CCCc2nc(C3CC3)nn2-c2cccnc2)cs1

$$$$
