
     RDKit          3D

 40 44  0  0  0  0  0  0  0  0999 V2000
   11.5236    2.5101   23.2667 C   0  0  0  0  0  0  0  0  0  0  0  0
   10.1043    2.2497   23.6090 C   0  0  0  0  0  0  0  0  0  0  0  0
    9.1739    1.8210   22.8222 N   0  0  0  0  0  0  0  0  0  0  0  0
    8.0601    1.6733   23.6372 C   0  0  0  0  0  0  0  0  0  0  0  0
    6.7784    1.1723   23.0454 C   0  0  0  0  0  0  0  0  0  0  0  0
    6.9175   -0.2099   22.5003 C   0  0  0  0  0  0  0  0  0  0  0  0
    7.4358   -1.1971   23.2084 N   0  0  0  0  0  0  0  0  0  0  0  0
    7.4897   -2.2280   22.3259 C   0  0  0  0  0  0  0  0  0  0  0  0
    8.3044   -3.4559   22.5440 C   0  0  0  0  0  0  0  0  0  0  0  0
    7.7697   -4.8895   22.4234 C   0  0  0  0  0  0  0  0  0  0  0  0
    8.2053   -4.3238   23.7498 C   0  0  0  0  0  0  0  0  0  0  0  0
    9.1420   -4.6889   24.8435 C   0  0  0  0  0  0  0  0  0  0  0  0
    7.7523   -4.1116   25.1487 C   0  0  0  0  0  0  0  0  0  0  0  0
    7.6679   -3.0665   25.4476 H   0  0  0  0  0  0  0  0  0  0  0  0
    7.0114   -4.7886   25.5682 H   0  0  0  0  0  0  0  0  0  0  0  0
   10.0283   -4.0770   25.0036 H   0  0  0  0  0  0  0  0  0  0  0  0
    9.2889   -5.7547   25.0207 H   0  0  0  0  0  0  0  0  0  0  0  0
    6.7097   -5.0676   22.2376 H   0  0  0  0  0  0  0  0  0  0  0  0
    8.4332   -5.6283   21.9690 H   0  0  0  0  0  0  0  0  0  0  0  0
    9.3350   -3.2734   22.2324 H   0  0  0  0  0  0  0  0  0  0  0  0
    7.0056   -1.9486   21.1286 N   0  0  0  0  0  0  0  0  0  0  0  0
    6.5982   -0.6518   21.2410 N   0  0  0  0  0  0  0  0  0  0  0  0
    6.1906    0.0466   20.0680 C   0  0  0  0  0  0  0  0  0  0  0  0
    5.2460    1.0824   20.0539 C   0  0  0  0  0  0  0  0  0  0  0  0
    4.9937    1.7175   18.8291 C   0  0  0  0  0  0  0  0  0  0  0  0
    5.6736    1.2929   17.6839 C   0  0  0  0  0  0  0  0  0  0  0  0
    6.5542    0.2801   17.6840 N   0  0  0  0  0  0  0  0  0  0  0  0
    6.7852   -0.3322   18.8467 C   0  0  0  0  0  0  0  0  0  0  0  0
    7.4862   -1.1611   18.8510 H   0  0  0  0  0  0  0  0  0  0  0  0
    5.5052    1.7661   16.7197 H   0  0  0  0  0  0  0  0  0  0  0  0
    4.3083    2.5555   18.7559 H   0  0  0  0  0  0  0  0  0  0  0  0
    4.7100    1.3852   20.9567 H   0  0  0  0  0  0  0  0  0  0  0  0
    6.4726    1.8762   22.2672 H   0  0  0  0  0  0  0  0  0  0  0  0
    6.0031    1.1402   23.8144 H   0  0  0  0  0  0  0  0  0  0  0  0
    8.3855    2.0577   24.8914 C   0  0  0  0  0  0  0  0  0  0  0  0
    9.7104    2.4117   24.8931 O   0  0  0  0  0  0  0  0  0  0  0  0
    7.8380    2.1497   25.8188 H   0  0  0  0  0  0  0  0  0  0  0  0
   12.1063    1.6054   23.4636 H   0  0  0  0  0  0  0  0  0  0  0  0
   11.5898    2.7332   22.2037 H   0  0  0  0  0  0  0  0  0  0  0  0
   11.9366    3.3351   23.8488 H   0  0  0  0  0  0  0  0  0  0  0  0
  1  2  1  0
  2  3  2  0
  3  4  1  0
  4  5  1  0
  5  6  1  0
  6  7  2  0
  7  8  1  0
  8  9  1  0
  9 10  1  0
 10 11  1  0
 11 12  1  0
 12 13  1  0
 13 14  1  0
 13 15  1  0
 12 16  1  0
 12 17  1  0
 10 18  1  0
 10 19  1  0
  9 20  1  0
  8 21  2  0
 21 22  1  0
 22 23  1  0
 23 24  2  0
 24 25  1  0
 25 26  2  0
 26 27  1  0
 27 28  2  0
 28 29  1  0
 26 30  1  0
 25 31  1  0
 24 32  1  0
  5 33  1  0
  5 34  1  0
  4 35  2  0
 35 36  1  0
 35 37  1  0
  1 38  1  0
  1 39  1  0
  1 40  1  0
 36  2  1  0
 22  6  1  0
 28 23  1  0
 11  9  1  0
 13 11  1  0
M  END
>  <cnnaffinity>  (1) 
-6.21849

>  <filename>  (1) 
Cc1nc(Cc2nc(C3CC34CC4)nn2-c2cccnc2)co1

$$$$
