
     RDKit          3D

 42 45  0  0  0  0  0  0  0  0999 V2000
    5.2165   -1.1554   26.2263 C   0  0  0  0  0  0  0  0  0  0  0  0
    6.0048    0.0291   25.8257 C   0  0  0  0  0  0  0  0  0  0  0  0
    6.6455    0.8725   26.5631 N   0  0  0  0  0  0  0  0  0  0  0  0
    7.1735    1.7860   25.6582 C   0  0  0  0  0  0  0  0  0  0  0  0
    6.7808    1.4535   24.4076 C   0  0  0  0  0  0  0  0  0  0  0  0
    7.0778    1.8774   23.0163 C   0  0  0  0  0  0  0  0  0  0  0  0
    8.0463    0.9028   22.4458 C   0  0  0  0  0  0  0  0  0  0  0  0
    9.3399    0.9936   22.6277 N   0  0  0  0  0  0  0  0  0  0  0  0
    9.8147   -0.1599   22.0862 C   0  0  0  0  0  0  0  0  0  0  0  0
   11.2585   -0.4399   21.9730 C   0  0  0  0  0  0  0  0  0  0  0  0
   12.2048    0.4679   22.4954 C   0  0  0  0  0  0  0  0  0  0  0  0
   13.5629    0.1564   22.4627 C   0  0  0  0  0  0  0  0  0  0  0  0
   13.9840   -1.0269   21.8582 C   0  0  0  0  0  0  0  0  0  0  0  0
   13.0692   -1.8582   21.2183 C   0  0  0  0  0  0  0  0  0  0  0  0
   11.7045   -1.5900   21.2978 C   0  0  0  0  0  0  0  0  0  0  0  0
   10.9722   -2.2552   20.8479 H   0  0  0  0  0  0  0  0  0  0  0  0
   13.4510   -2.6872   20.6354 H   0  0  0  0  0  0  0  0  0  0  0  0
   15.0143   -1.3372   21.9054 H   0  0  0  0  0  0  0  0  0  0  0  0
   14.2819    0.8480   22.8909 H   0  0  0  0  0  0  0  0  0  0  0  0
   11.8851    1.4201   22.9081 H   0  0  0  0  0  0  0  0  0  0  0  0
    8.8673   -0.9534   21.6031 N   0  0  0  0  0  0  0  0  0  0  0  0
    7.7300   -0.2726   21.8682 N   0  0  0  0  0  0  0  0  0  0  0  0
    6.4553   -0.7033   21.3106 C   0  0  0  0  0  0  0  0  0  0  0  0
    6.0760    0.0553   20.0594 C   0  0  0  0  0  0  0  0  0  0  0  0
    4.8880    0.7797   19.9437 C   0  0  0  0  0  0  0  0  0  0  0  0
    4.6602    1.5130   18.7761 C   0  0  0  0  0  0  0  0  0  0  0  0
    5.6166    1.4715   17.7595 C   0  0  0  0  0  0  0  0  0  0  0  0
    6.7464    0.7519   17.8358 N   0  0  0  0  0  0  0  0  0  0  0  0
    6.9577    0.0673   18.9646 C   0  0  0  0  0  0  0  0  0  0  0  0
    7.8730   -0.5221   19.0110 H   0  0  0  0  0  0  0  0  0  0  0  0
    5.4703    2.0360   16.8404 H   0  0  0  0  0  0  0  0  0  0  0  0
    3.7685    2.1157   18.6504 H   0  0  0  0  0  0  0  0  0  0  0  0
    4.1509    0.7732   20.7493 H   0  0  0  0  0  0  0  0  0  0  0  0
    6.5510   -1.7757   21.1145 H   0  0  0  0  0  0  0  0  0  0  0  0
    5.7111   -0.5605   22.0898 H   0  0  0  0  0  0  0  0  0  0  0  0
    6.1588    1.9283   22.4279 H   0  0  0  0  0  0  0  0  0  0  0  0
    7.5463    2.8573   23.0104 H   0  0  0  0  0  0  0  0  0  0  0  0
    6.0432    0.3138   24.5003 O   0  0  0  0  0  0  0  0  0  0  0  0
    7.8169    2.5957   25.9694 H   0  0  0  0  0  0  0  0  0  0  0  0
    5.4289   -1.4059   27.2665 H   0  0  0  0  0  0  0  0  0  0  0  0
    4.1529   -0.9217   26.1193 H   0  0  0  0  0  0  0  0  0  0  0  0
    5.4492   -2.0052   25.5802 H   0  0  0  0  0  0  0  0  0  0  0  0
  1  2  1  0
  2  3  2  0
  3  4  1  0
  4  5  2  0
  5  6  1  0
  6  7  1  0
  7  8  2  0
  8  9  1  0
  9 10  1  0
 10 11  2  0
 11 12  1  0
 12 13  2  0
 13 14  1  0
 14 15  2  0
 15 16  1  0
 14 17  1  0
 13 18  1  0
 12 19  1  0
 11 20  1  0
  9 21  2  0
 21 22  1  0
 22 23  1  0
 23 24  1  0
 24 25  2  0
 25 26  1  0
 26 27  2  0
 27 28  1  0
 28 29  2  0
 29 30  1  0
 27 31  1  0
 26 32  1  0
 25 33  1  0
 23 34  1  0
 23 35  1  0
  6 36  1  0
  6 37  1  0
  5 38  1  0
  4 39  1  0
  1 40  1  0
  1 41  1  0
  1 42  1  0
 38  2  1  0
 22  7  1  0
 29 24  1  0
 15 10  1  0
M  END
>  <cnnaffinity>  (1) 
-6.24132

>  <filename>  (1) 
Cc1ncc(Cc2nc(-c3ccccc3)nn2Cc2cccnc2)o1

$$$$
