
     RDKit          3D

 43 46  0  0  0  0  0  0  0  0999 V2000
   12.2408    2.2659   24.2477 C   0  0  0  0  0  0  0  0  0  0  0  0
   11.8485    1.5140   23.0289 C   0  0  0  0  0  0  0  0  0  0  0  0
   12.4855    0.4744   22.5840 N   0  0  0  0  0  0  0  0  0  0  0  0
   11.7666   -0.1055   21.5671 C   0  0  0  0  0  0  0  0  0  0  0  0
   10.5906    0.4808   21.2280 C   0  0  0  0  0  0  0  0  0  0  0  0
    9.4769   -0.0481   20.3787 C   0  0  0  0  0  0  0  0  0  0  0  0
    8.4363   -0.8092   21.1545 C   0  0  0  0  0  0  0  0  0  0  0  0
    8.6627   -1.6126   22.1743 N   0  0  0  0  0  0  0  0  0  0  0  0
    7.4300   -2.0847   22.4840 C   0  0  0  0  0  0  0  0  0  0  0  0
    7.2216   -3.0280   23.6423 C   0  0  0  0  0  0  0  0  0  0  0  0
    6.5027   -2.3565   24.8519 C   0  0  0  0  0  0  0  0  0  0  0  0
    6.0124   -3.3552   25.8759 C   0  0  0  0  0  0  0  0  0  0  0  0
    5.9918   -4.6737   25.6801 C   0  0  0  0  0  0  0  0  0  0  0  0
    6.4078   -5.3284   24.3827 C   0  0  0  0  0  0  0  0  0  0  0  0
    6.5118   -4.3340   23.2115 C   0  0  0  0  0  0  0  0  0  0  0  0
    7.0655   -4.7993   22.3875 H   0  0  0  0  0  0  0  0  0  0  0  0
    5.5153   -4.0870   22.8231 H   0  0  0  0  0  0  0  0  0  0  0  0
    5.7062   -6.1337   24.1283 H   0  0  0  0  0  0  0  0  0  0  0  0
    7.3774   -5.8249   24.5400 H   0  0  0  0  0  0  0  0  0  0  0  0
    5.6916   -5.3393   26.4916 H   0  0  0  0  0  0  0  0  0  0  0  0
    5.6384   -2.9403   26.8143 H   0  0  0  0  0  0  0  0  0  0  0  0
    5.6496   -1.7504   24.5197 H   0  0  0  0  0  0  0  0  0  0  0  0
    7.1899   -1.6503   25.3389 H   0  0  0  0  0  0  0  0  0  0  0  0
    8.2344   -3.2917   23.9730 H   0  0  0  0  0  0  0  0  0  0  0  0
    6.4605   -1.6490   21.6965 N   0  0  0  0  0  0  0  0  0  0  0  0
    7.1154   -0.8429   20.8206 N   0  0  0  0  0  0  0  0  0  0  0  0
    6.4378   -0.1383   19.7908 C   0  0  0  0  0  0  0  0  0  0  0  0
    5.2700    0.5853   20.0564 C   0  0  0  0  0  0  0  0  0  0  0  0
    4.7194    1.3517   19.0254 C   0  0  0  0  0  0  0  0  0  0  0  0
    5.3384    1.3502   17.7683 C   0  0  0  0  0  0  0  0  0  0  0  0
    6.4364    0.6286   17.4971 N   0  0  0  0  0  0  0  0  0  0  0  0
    6.9621   -0.1007   18.4833 C   0  0  0  0  0  0  0  0  0  0  0  0
    7.8612   -0.6609   18.2295 H   0  0  0  0  0  0  0  0  0  0  0  0
    4.9375    1.9402   16.9486 H   0  0  0  0  0  0  0  0  0  0  0  0
    3.8328    1.9595   19.1808 H   0  0  0  0  0  0  0  0  0  0  0  0
    4.8319    0.5584   21.0549 H   0  0  0  0  0  0  0  0  0  0  0  0
    9.0136    0.7675   19.8170 H   0  0  0  0  0  0  0  0  0  0  0  0
    9.8734   -0.7359   19.6284 H   0  0  0  0  0  0  0  0  0  0  0  0
   10.4005    1.9178   22.1600 S   0  0  0  0  0  0  0  0  0  0  0  0
   12.1379   -1.0057   21.0948 H   0  0  0  0  0  0  0  0  0  0  0  0
   13.2848    2.0177   24.4485 H   0  0  0  0  0  0  0  0  0  0  0  0
   11.6211    1.9340   25.0910 H   0  0  0  0  0  0  0  0  0  0  0  0
   12.0911    3.3430   24.1235 H   0  0  0  0  0  0  0  0  0  0  0  0
  1  2  1  0
  2  3  2  0
  3  4  1  0
  4  5  2  0
  5  6  1  0
  6  7  1  0
  7  8  2  0
  8  9  1  0
  9 10  1  0
 10 11  1  0
 11 12  1  0
 12 13  2  0
 13 14  1  0
 14 15  1  0
 15 16  1  0
 15 17  1  0
 14 18  1  0
 14 19  1  0
 13 20  1  0
 12 21  1  0
 11 22  1  0
 11 23  1  0
 10 24  1  0
  9 25  2  0
 25 26  1  0
 26 27  1  0
 27 28  2  0
 28 29  1  0
 29 30  2  0
 30 31  1  0
 31 32  2  0
 32 33  1  0
 30 34  1  0
 29 35  1  0
 28 36  1  0
  6 37  1  0
  6 38  1  0
  5 39  1  0
  4 40  1  0
  1 41  1  0
  1 42  1  0
  1 43  1  0
 39  2  1  0
 26  7  1  0
 32 27  1  0
 15 10  1  0
M  END
>  <cnnaffinity>  (1) 
-6.25674

>  <filename>  (1) 
Cc1ncc(Cc2nc(C3CC=CCC3)nn2-c2cccnc2)s1

$$$$
