
     RDKit          3D

 42 45  0  0  0  0  0  0  0  0999 V2000
   11.5293    2.0806   21.5307 C   0  0  0  0  0  0  0  0  0  0  0  0
   10.0682    2.1412   21.7875 C   0  0  0  0  0  0  0  0  0  0  0  0
    9.4771    1.5353   22.7634 N   0  0  0  0  0  0  0  0  0  0  0  0
    8.1309    1.7915   22.5752 C   0  0  0  0  0  0  0  0  0  0  0  0
    7.1188    0.9831   23.3276 C   0  0  0  0  0  0  0  0  0  0  0  0
    7.1469   -0.4030   22.7547 C   0  0  0  0  0  0  0  0  0  0  0  0
    7.6484   -1.4297   23.3981 N   0  0  0  0  0  0  0  0  0  0  0  0
    7.8420   -2.3518   22.4217 C   0  0  0  0  0  0  0  0  0  0  0  0
    8.5347   -3.6603   22.6439 C   0  0  0  0  0  0  0  0  0  0  0  0
    7.8376   -4.8637   21.9673 C   0  0  0  0  0  0  0  0  0  0  0  0
    8.2210   -6.0854   22.8210 C   0  0  0  0  0  0  0  0  0  0  0  0
    8.6533   -5.5573   24.2152 C   0  0  0  0  0  0  0  0  0  0  0  0
    8.7499   -4.0207   24.1270 C   0  0  0  0  0  0  0  0  0  0  0  0
    8.0051   -3.5335   24.7665 H   0  0  0  0  0  0  0  0  0  0  0  0
    9.7308   -3.6501   24.4515 H   0  0  0  0  0  0  0  0  0  0  0  0
    9.6139   -5.9875   24.5205 H   0  0  0  0  0  0  0  0  0  0  0  0
    7.9290   -5.8589   24.9807 H   0  0  0  0  0  0  0  0  0  0  0  0
    9.0307   -6.6530   22.3502 H   0  0  0  0  0  0  0  0  0  0  0  0
    7.3775   -6.7786   22.9058 H   0  0  0  0  0  0  0  0  0  0  0  0
    8.1552   -4.9553   20.9195 H   0  0  0  0  0  0  0  0  0  0  0  0
    6.7477   -4.7261   21.9596 H   0  0  0  0  0  0  0  0  0  0  0  0
    9.5232   -3.5273   22.1912 H   0  0  0  0  0  0  0  0  0  0  0  0
    7.4697   -1.9684   21.2160 N   0  0  0  0  0  0  0  0  0  0  0  0
    6.9903   -0.7152   21.4285 N   0  0  0  0  0  0  0  0  0  0  0  0
    6.4929    0.0177   20.3172 C   0  0  0  0  0  0  0  0  0  0  0  0
    5.3490    0.8197   20.4070 C   0  0  0  0  0  0  0  0  0  0  0  0
    4.8994    1.4518   19.2437 C   0  0  0  0  0  0  0  0  0  0  0  0
    5.6082    1.2758   18.0505 C   0  0  0  0  0  0  0  0  0  0  0  0
    6.7314    0.5433   17.9664 N   0  0  0  0  0  0  0  0  0  0  0  0
    7.1593   -0.0705   19.0747 C   0  0  0  0  0  0  0  0  0  0  0  0
    8.0756   -0.6517   18.9782 H   0  0  0  0  0  0  0  0  0  0  0  0
    5.2640    1.7339   17.1256 H   0  0  0  0  0  0  0  0  0  0  0  0
    4.0056    2.0679   19.2469 H   0  0  0  0  0  0  0  0  0  0  0  0
    4.8040    0.9354   21.3456 H   0  0  0  0  0  0  0  0  0  0  0  0
    6.1167    1.4093   23.2561 H   0  0  0  0  0  0  0  0  0  0  0  0
    7.4195    0.9014   24.3747 H   0  0  0  0  0  0  0  0  0  0  0  0
    7.9859    2.5784   21.4962 C   0  0  0  0  0  0  0  0  0  0  0  0
    9.2264    2.7851   20.9566 O   0  0  0  0  0  0  0  0  0  0  0  0
    7.1145    2.9492   20.9743 H   0  0  0  0  0  0  0  0  0  0  0  0
   11.8441    2.6020   20.6296 H   0  0  0  0  0  0  0  0  0  0  0  0
   11.8105    1.0293   21.4635 H   0  0  0  0  0  0  0  0  0  0  0  0
   12.0458    2.4781   22.4031 H   0  0  0  0  0  0  0  0  0  0  0  0
  1  2  1  0
  2  3  2  0
  3  4  1  0
  4  5  1  0
  5  6  1  0
  6  7  2  0
  7  8  1  0
  8  9  1  0
  9 10  1  0
 10 11  1  0
 11 12  1  0
 12 13  1  0
 13 14  1  0
 13 15  1  0
 12 16  1  0
 12 17  1  0
 11 18  1  0
 11 19  1  0
 10 20  1  0
 10 21  1  0
  9 22  1  0
  8 23  2  0
 23 24  1  0
 24 25  1  0
 25 26  2  0
 26 27  1  0
 27 28  2  0
 28 29  1  0
 29 30  2  0
 30 31  1  0
 28 32  1  0
 27 33  1  0
 26 34  1  0
  5 35  1  0
  5 36  1  0
  4 37  2  0
 37 38  1  0
 37 39  1  0
  1 40  1  0
  1 41  1  0
  1 42  1  0
 38  2  1  0
 24  6  1  0
 30 25  1  0
 13  9  1  0
M  END
>  <cnnaffinity>  (1) 
-6.28158

>  <filename>  (1) 
Cc1nc(Cc2nc(C3CCCC3)nn2-c2cccnc2)co1

$$$$
