
     RDKit          3D

 43 46  0  0  0  0  0  0  0  0999 V2000
   11.1918   -1.5349   21.7281 C   0  0  0  0  0  0  0  0  0  0  0  0
   11.8008   -0.1834   21.8756 C   0  0  0  0  0  0  0  0  0  0  0  0
   13.0026   -0.0201   22.4198 N   0  0  0  0  0  0  0  0  0  0  0  0
   13.1904    1.3102   22.4435 N   0  0  0  0  0  0  0  0  0  0  0  0
   12.1458    1.9939   21.9250 C   0  0  0  0  0  0  0  0  0  0  0  0
   11.2154    1.0669   21.5301 C   0  0  0  0  0  0  0  0  0  0  0  0
    9.8205    1.3898   21.0405 C   0  0  0  0  0  0  0  0  0  0  0  0
    8.7749    1.1740   22.0826 C   0  0  0  0  0  0  0  0  0  0  0  0
    8.7210    1.8869   23.1865 N   0  0  0  0  0  0  0  0  0  0  0  0
    7.6701    1.3510   23.8588 C   0  0  0  0  0  0  0  0  0  0  0  0
    7.2275    1.8768   25.1606 C   0  0  0  0  0  0  0  0  0  0  0  0
    7.9574    2.9111   25.7759 C   0  0  0  0  0  0  0  0  0  0  0  0
    7.5702    3.4110   27.0164 C   0  0  0  0  0  0  0  0  0  0  0  0
    6.4437    2.8716   27.6437 C   0  0  0  0  0  0  0  0  0  0  0  0
    5.9588    3.4875   29.1938 Cl  0  0  0  0  0  0  0  0  0  0  0  0
    5.6997    1.8484   27.0479 C   0  0  0  0  0  0  0  0  0  0  0  0
    6.0910    1.3542   25.8050 C   0  0  0  0  0  0  0  0  0  0  0  0
    5.5324    0.5517   25.3266 H   0  0  0  0  0  0  0  0  0  0  0  0
    4.8309    1.4437   27.5557 H   0  0  0  0  0  0  0  0  0  0  0  0
    8.1327    4.2056   27.4945 H   0  0  0  0  0  0  0  0  0  0  0  0
    8.8349    3.3054   25.2686 H   0  0  0  0  0  0  0  0  0  0  0  0
    7.0813    0.3496   23.2222 N   0  0  0  0  0  0  0  0  0  0  0  0
    7.8013    0.2312   22.0848 N   0  0  0  0  0  0  0  0  0  0  0  0
    7.3737   -0.6921   21.0298 C   0  0  0  0  0  0  0  0  0  0  0  0
    6.6532   -0.0039   19.8800 C   0  0  0  0  0  0  0  0  0  0  0  0
    5.4383    0.6531   20.1250 C   0  0  0  0  0  0  0  0  0  0  0  0
    4.8042    1.3100   19.0710 C   0  0  0  0  0  0  0  0  0  0  0  0
    5.4074    1.2956   17.8116 C   0  0  0  0  0  0  0  0  0  0  0  0
    6.5570    0.6576   17.5482 N   0  0  0  0  0  0  0  0  0  0  0  0
    7.1555    0.0272   18.5682 C   0  0  0  0  0  0  0  0  0  0  0  0
    8.0936   -0.4752   18.3148 H   0  0  0  0  0  0  0  0  0  0  0  0
    4.9467    1.8206   16.9784 H   0  0  0  0  0  0  0  0  0  0  0  0
    3.8699    1.8413   19.2121 H   0  0  0  0  0  0  0  0  0  0  0  0
    5.0121    0.6677   21.1298 H   0  0  0  0  0  0  0  0  0  0  0  0
    8.2485   -1.2582   20.6865 H   0  0  0  0  0  0  0  0  0  0  0  0
    6.7104   -1.4113   21.5240 H   0  0  0  0  0  0  0  0  0  0  0  0
    9.5565    0.8266   20.1424 H   0  0  0  0  0  0  0  0  0  0  0  0
    9.7604    2.4534   20.7802 H   0  0  0  0  0  0  0  0  0  0  0  0
   12.1126    3.0744   21.8719 H   0  0  0  0  0  0  0  0  0  0  0  0
   14.0632    1.6837   22.7788 H   0  0  0  0  0  0  0  0  0  0  0  0
   10.5037   -1.7342   22.5579 H   0  0  0  0  0  0  0  0  0  0  0  0
   10.6260   -1.6164   20.7970 H   0  0  0  0  0  0  0  0  0  0  0  0
   11.9593   -2.3064   21.7315 H   0  0  0  0  0  0  0  0  0  0  0  0
  1  2  1  0
  2  3  2  0
  3  4  1  0
  4  5  1  0
  5  6  2  0
  6  7  1  0
  7  8  1  0
  8  9  2  0
  9 10  1  0
 10 11  1  0
 11 12  2  0
 12 13  1  0
 13 14  2  0
 14 15  1  0
 14 16  1  0
 16 17  2  0
 17 18  1  0
 16 19  1  0
 13 20  1  0
 12 21  1  0
 10 22  2  0
 22 23  1  0
 23 24  1  0
 24 25  1  0
 25 26  2  0
 26 27  1  0
 27 28  2  0
 28 29  1  0
 29 30  2  0
 30 31  1  0
 28 32  1  0
 27 33  1  0
 26 34  1  0
 24 35  1  0
 24 36  1  0
  7 37  1  0
  7 38  1  0
  5 39  1  0
  4 40  1  0
  1 41  1  0
  1 42  1  0
  1 43  1  0
  6  2  1  0
 23  8  1  0
 30 25  1  0
 17 11  1  0
M  END
>  <cnnaffinity>  (1) 
-6.20682

>  <filename>  (1) 
Cc1n[nH]cc1Cc1nc(-c2ccc(Cl)cc2)nn1Cc1cccnc1

$$$$
