
     RDKit          3D

 40 44  0  0  0  0  0  0  0  0999 V2000
    8.3753    2.5700   21.5387 C   0  0  0  0  0  0  0  0  0  0  0  0
    7.2942    2.5102   22.5813 C   0  0  0  0  0  0  0  0  0  0  0  0
    6.9398    3.6736   23.1428 N   0  0  0  0  0  0  0  0  0  0  0  0
    6.0635    3.6759   24.1271 C   0  0  0  0  0  0  0  0  0  0  0  0
    5.6971    5.2178   24.8591 Cl  0  0  0  0  0  0  0  0  0  0  0  0
    5.4423    2.5311   24.6302 C   0  0  0  0  0  0  0  0  0  0  0  0
    5.7784    1.3136   24.0458 C   0  0  0  0  0  0  0  0  0  0  0  0
    6.7062    1.2976   22.9964 C   0  0  0  0  0  0  0  0  0  0  0  0
    7.1924    0.0292   22.4466 C   0  0  0  0  0  0  0  0  0  0  0  0
    7.7696   -0.8783   23.1991 N   0  0  0  0  0  0  0  0  0  0  0  0
    8.1897   -1.8136   22.3078 C   0  0  0  0  0  0  0  0  0  0  0  0
    8.9038   -3.0407   22.7400 C   0  0  0  0  0  0  0  0  0  0  0  0
    8.4702   -3.6265   24.0830 C   0  0  0  0  0  0  0  0  0  0  0  0
    8.0891   -4.2972   22.8009 C   0  0  0  0  0  0  0  0  0  0  0  0
    8.1261   -5.7001   22.3365 C   0  0  0  0  0  0  0  0  0  0  0  0
    6.9828   -4.7608   21.9321 C   0  0  0  0  0  0  0  0  0  0  0  0
    7.0384   -4.3424   20.9267 H   0  0  0  0  0  0  0  0  0  0  0  0
    5.9821   -4.9033   22.3397 H   0  0  0  0  0  0  0  0  0  0  0  0
    7.9140   -6.4498   23.1026 H   0  0  0  0  0  0  0  0  0  0  0  0
    8.8877   -5.9856   21.6131 H   0  0  0  0  0  0  0  0  0  0  0  0
    9.2177   -4.1181   24.7083 H   0  0  0  0  0  0  0  0  0  0  0  0
    7.6873   -3.0864   24.6160 H   0  0  0  0  0  0  0  0  0  0  0  0
    9.9426   -3.1186   22.4152 H   0  0  0  0  0  0  0  0  0  0  0  0
    7.8904   -1.5548   21.0503 N   0  0  0  0  0  0  0  0  0  0  0  0
    7.2140   -0.3692   21.1347 N   0  0  0  0  0  0  0  0  0  0  0  0
    6.6083    0.1775   19.9718 C   0  0  0  0  0  0  0  0  0  0  0  0
    5.4567    0.9748   20.0214 C   0  0  0  0  0  0  0  0  0  0  0  0
    4.9476    1.4629   18.8118 C   0  0  0  0  0  0  0  0  0  0  0  0
    5.5960    1.1415   17.6152 C   0  0  0  0  0  0  0  0  0  0  0  0
    6.7035    0.3836   17.5668 N   0  0  0  0  0  0  0  0  0  0  0  0
    7.1893   -0.0924   18.7180 C   0  0  0  0  0  0  0  0  0  0  0  0
    8.0842   -0.7081   18.6614 H   0  0  0  0  0  0  0  0  0  0  0  0
    5.2086    1.4896   16.6590 H   0  0  0  0  0  0  0  0  0  0  0  0
    4.0587    2.0829   18.7840 H   0  0  0  0  0  0  0  0  0  0  0  0
    4.9775    1.1988   20.9754 H   0  0  0  0  0  0  0  0  0  0  0  0
    5.3219    0.3882   24.4009 H   0  0  0  0  0  0  0  0  0  0  0  0
    4.7506    2.6172   25.4540 H   0  0  0  0  0  0  0  0  0  0  0  0
    9.2294    1.9554   21.8412 H   0  0  0  0  0  0  0  0  0  0  0  0
    8.6947    3.6047   21.4182 H   0  0  0  0  0  0  0  0  0  0  0  0
    8.0198    2.1839   20.5791 H   0  0  0  0  0  0  0  0  0  0  0  0
  1  2  1  0
  2  3  2  0
  3  4  1  0
  4  5  1  0
  4  6  2  0
  6  7  1  0
  7  8  2  0
  8  9  1  0
  9 10  2  0
 10 11  1  0
 11 12  1  0
 12 13  1  0
 13 14  1  0
 14 15  1  0
 15 16  1  0
 16 17  1  0
 16 18  1  0
 15 19  1  0
 15 20  1  0
 13 21  1  0
 13 22  1  0
 12 23  1  0
 11 24  2  0
 24 25  1  0
 25 26  1  0
 26 27  2  0
 27 28  1  0
 28 29  2  0
 29 30  1  0
 30 31  2  0
 31 32  1  0
 29 33  1  0
 28 34  1  0
 27 35  1  0
  7 36  1  0
  6 37  1  0
  1 38  1  0
  1 39  1  0
  1 40  1  0
  8  2  1  0
 25  9  1  0
 31 26  1  0
 14 12  1  0
 16 14  1  0
M  END
>  <cnnaffinity>  (1) 
-5.82549

>  <filename>  (1) 
Cc1nc(Cl)ccc1-c1nc(C2CC23CC3)nn1-c1cccnc1

$$$$
