
     RDKit          3D

 39 42  0  0  0  0  0  0  0  0999 V2000
   12.9045    1.6125   23.9015 C   0  0  0  0  0  0  0  0  0  0  0  0
   11.8252    1.3709   22.9012 C   0  0  0  0  0  0  0  0  0  0  0  0
   10.7585    2.1058   22.8657 N   0  0  0  0  0  0  0  0  0  0  0  0
    9.8910    1.6974   21.8763 C   0  0  0  0  0  0  0  0  0  0  0  0
    8.4911    2.2469   21.8520 C   0  0  0  0  0  0  0  0  0  0  0  0
    7.4888    1.3663   22.6743 C   0  0  0  0  0  0  0  0  0  0  0  0
    7.4942   -0.0967   22.2879 C   0  0  0  0  0  0  0  0  0  0  0  0
    7.9902   -1.0829   23.0193 N   0  0  0  0  0  0  0  0  0  0  0  0
    8.2143   -2.0695   22.1072 C   0  0  0  0  0  0  0  0  0  0  0  0
    8.9138   -3.3450   22.4285 C   0  0  0  0  0  0  0  0  0  0  0  0
    8.2373   -4.6847   22.2301 C   0  0  0  0  0  0  0  0  0  0  0  0
    8.5438   -4.1966   23.6181 C   0  0  0  0  0  0  0  0  0  0  0  0
    7.7230   -3.8626   24.2496 H   0  0  0  0  0  0  0  0  0  0  0  0
    9.3595   -4.6598   24.1735 H   0  0  0  0  0  0  0  0  0  0  0  0
    8.7989   -5.5229   21.8272 H   0  0  0  0  0  0  0  0  0  0  0  0
    7.1989   -4.6875   21.9019 H   0  0  0  0  0  0  0  0  0  0  0  0
    9.9801   -3.2520   22.2077 H   0  0  0  0  0  0  0  0  0  0  0  0
    7.8911   -1.7576   20.8642 N   0  0  0  0  0  0  0  0  0  0  0  0
    7.3440   -0.5211   20.9967 N   0  0  0  0  0  0  0  0  0  0  0  0
    6.6437    0.0809   19.9168 C   0  0  0  0  0  0  0  0  0  0  0  0
    5.4276    0.7412   20.1256 C   0  0  0  0  0  0  0  0  0  0  0  0
    4.8205    1.3575   19.0290 C   0  0  0  0  0  0  0  0  0  0  0  0
    5.4440    1.2946   17.7796 C   0  0  0  0  0  0  0  0  0  0  0  0
    6.5864    0.6183   17.5657 N   0  0  0  0  0  0  0  0  0  0  0  0
    7.1575    0.0062   18.6095 C   0  0  0  0  0  0  0  0  0  0  0  0
    8.0554   -0.5724   18.3918 H   0  0  0  0  0  0  0  0  0  0  0  0
    5.0110    1.7962   16.9179 H   0  0  0  0  0  0  0  0  0  0  0  0
    3.8806    1.8856   19.1397 H   0  0  0  0  0  0  0  0  0  0  0  0
    4.9613    0.7435   21.1115 H   0  0  0  0  0  0  0  0  0  0  0  0
    6.4763    1.7745   22.5918 H   0  0  0  0  0  0  0  0  0  0  0  0
    7.7786    1.4056   23.7283 H   0  0  0  0  0  0  0  0  0  0  0  0
    8.5290    3.2562   22.2757 H   0  0  0  0  0  0  0  0  0  0  0  0
    8.1325    2.3307   20.8216 H   0  0  0  0  0  0  0  0  0  0  0  0
   10.3291    0.6476   21.1361 C   0  0  0  0  0  0  0  0  0  0  0  0
   11.8494    0.0913   21.7243 S   0  0  0  0  0  0  0  0  0  0  0  0
    9.7762    0.1327   20.3578 H   0  0  0  0  0  0  0  0  0  0  0  0
   13.8969    1.6797   23.4458 H   0  0  0  0  0  0  0  0  0  0  0  0
   12.6401    2.5555   24.3736 H   0  0  0  0  0  0  0  0  0  0  0  0
   12.9299    0.8238   24.6611 H   0  0  0  0  0  0  0  0  0  0  0  0
  1  2  1  0
  2  3  2  0
  3  4  1  0
  4  5  1  0
  5  6  1  0
  6  7  1  0
  7  8  2  0
  8  9  1  0
  9 10  1  0
 10 11  1  0
 11 12  1  0
 12 13  1  0
 12 14  1  0
 11 15  1  0
 11 16  1  0
 10 17  1  0
  9 18  2  0
 18 19  1  0
 19 20  1  0
 20 21  2  0
 21 22  1  0
 22 23  2  0
 23 24  1  0
 24 25  2  0
 25 26  1  0
 23 27  1  0
 22 28  1  0
 21 29  1  0
  6 30  1  0
  6 31  1  0
  5 32  1  0
  5 33  1  0
  4 34  2  0
 34 35  1  0
 34 36  1  0
  1 37  1  0
  1 38  1  0
  1 39  1  0
 35  2  1  0
 19  7  1  0
 25 20  1  0
 12 10  1  0
M  END
>  <cnnaffinity>  (1) 
-5.82925

>  <filename>  (1) 
Cc1nc(CCc2nc(C3CC3)nn2-c2cccnc2)cs1

$$$$
