
     RDKit          3D

 44 47  0  0  0  0  0  0  0  0999 V2000
    8.6018    2.7504   22.1217 C   0  0  0  0  0  0  0  0  0  0  0  0
    9.9432    2.1829   22.4727 C   0  0  0  0  0  0  0  0  0  0  0  0
   10.5987    2.7755   23.4726 N   0  0  0  0  0  0  0  0  0  0  0  0
   11.7637    2.2368   23.8204 C   0  0  0  0  0  0  0  0  0  0  0  0
   12.3328    1.1620   23.2914 N   0  0  0  0  0  0  0  0  0  0  0  0
   11.6519    0.5484   22.3212 C   0  0  0  0  0  0  0  0  0  0  0  0
   12.1809   -0.7807   21.8602 C   0  0  0  0  0  0  0  0  0  0  0  0
   13.1834   -0.9413   22.2635 H   0  0  0  0  0  0  0  0  0  0  0  0
   11.4935   -1.5579   22.2234 H   0  0  0  0  0  0  0  0  0  0  0  0
   12.2008   -0.8712   20.7641 H   0  0  0  0  0  0  0  0  0  0  0  0
   10.4544    1.0637   21.8069 C   0  0  0  0  0  0  0  0  0  0  0  0
    9.6273    0.3050   20.7776 C   0  0  0  0  0  0  0  0  0  0  0  0
    8.5918   -0.6064   21.3640 C   0  0  0  0  0  0  0  0  0  0  0  0
    8.8166   -1.4604   22.3363 N   0  0  0  0  0  0  0  0  0  0  0  0
    7.6074   -2.0425   22.5341 C   0  0  0  0  0  0  0  0  0  0  0  0
    7.3979   -3.0505   23.6004 C   0  0  0  0  0  0  0  0  0  0  0  0
    6.1145   -3.6007   23.7822 C   0  0  0  0  0  0  0  0  0  0  0  0
    5.9303   -4.5413   24.7864 C   0  0  0  0  0  0  0  0  0  0  0  0
    4.7104   -5.0692   24.9466 F   0  0  0  0  0  0  0  0  0  0  0  0
    6.9595   -4.9549   25.6260 C   0  0  0  0  0  0  0  0  0  0  0  0
    8.2137   -4.3839   25.4327 C   0  0  0  0  0  0  0  0  0  0  0  0
    9.2219   -4.7569   26.2321 F   0  0  0  0  0  0  0  0  0  0  0  0
    8.4622   -3.4419   24.4421 C   0  0  0  0  0  0  0  0  0  0  0  0
    9.4657   -3.0320   24.3566 H   0  0  0  0  0  0  0  0  0  0  0  0
    6.7920   -5.6889   26.4016 H   0  0  0  0  0  0  0  0  0  0  0  0
    5.2737   -3.2940   23.1656 H   0  0  0  0  0  0  0  0  0  0  0  0
    6.6570   -1.6153   21.7165 N   0  0  0  0  0  0  0  0  0  0  0  0
    7.3004   -0.7058   20.9464 N   0  0  0  0  0  0  0  0  0  0  0  0
    6.6268   -0.0252   19.8916 C   0  0  0  0  0  0  0  0  0  0  0  0
    5.4195    0.6285   20.1512 C   0  0  0  0  0  0  0  0  0  0  0  0
    4.7992    1.3108   19.1005 C   0  0  0  0  0  0  0  0  0  0  0  0
    5.3949    1.2975   17.8333 C   0  0  0  0  0  0  0  0  0  0  0  0
    6.5412    0.6520   17.5693 N   0  0  0  0  0  0  0  0  0  0  0  0
    7.1425    0.0165   18.5818 C   0  0  0  0  0  0  0  0  0  0  0  0
    8.0907   -0.4649   18.3443 H   0  0  0  0  0  0  0  0  0  0  0  0
    4.9362    1.8206   16.9966 H   0  0  0  0  0  0  0  0  0  0  0  0
    3.8721    1.8544   19.2536 H   0  0  0  0  0  0  0  0  0  0  0  0
    5.0026    0.5913   21.1576 H   0  0  0  0  0  0  0  0  0  0  0  0
    9.1387    1.0002   20.0939 H   0  0  0  0  0  0  0  0  0  0  0  0
   10.2534   -0.3741   20.1915 H   0  0  0  0  0  0  0  0  0  0  0  0
   12.2848    2.7079   24.6467 H   0  0  0  0  0  0  0  0  0  0  0  0
    8.3452    3.5468   22.8182 H   0  0  0  0  0  0  0  0  0  0  0  0
    8.6059    3.1517   21.1047 H   0  0  0  0  0  0  0  0  0  0  0  0
    7.8302    1.9757   22.1664 H   0  0  0  0  0  0  0  0  0  0  0  0
  1  2  1  0
  2  3  2  0
  3  4  1  0
  4  5  2  0
  5  6  1  0
  6  7  1  0
  7  8  1  0
  7  9  1  0
  7 10  1  0
  6 11  2  0
 11 12  1  0
 12 13  1  0
 13 14  2  0
 14 15  1  0
 15 16  1  0
 16 17  2  0
 17 18  1  0
 18 19  1  0
 18 20  2  0
 20 21  1  0
 21 22  1  0
 21 23  2  0
 23 24  1  0
 20 25  1  0
 17 26  1  0
 15 27  2  0
 27 28  1  0
 28 29  1  0
 29 30  2  0
 30 31  1  0
 31 32  2  0
 32 33  1  0
 33 34  2  0
 34 35  1  0
 32 36  1  0
 31 37  1  0
 30 38  1  0
 12 39  1  0
 12 40  1  0
  4 41  1  0
  1 42  1  0
  1 43  1  0
  1 44  1  0
 11  2  1  0
 28 13  1  0
 34 29  1  0
 23 16  1  0
M  END
>  <cnnaffinity>  (1) 
-6.52421

>  <filename>  (1) 
Cc1ncnc(C)c1Cc1nc(-c2cc(F)cc(F)c2)nn1-c1cccnc1

$$$$
