
     RDKit          3D

 48 51  0  0  0  0  0  0  0  0999 V2000
    6.8364   -4.9817   21.3824 C   0  0  0  0  0  0  0  0  0  0  0  0
    6.1498   -4.2015   20.3106 C   0  0  0  0  0  0  0  0  0  0  0  0
    5.9242   -4.7333   19.1394 N   0  0  0  0  0  0  0  0  0  0  0  0
    5.4223   -3.7183   18.3429 O   0  0  0  0  0  0  0  0  0  0  0  0
    5.3256   -2.6040   19.0577 C   0  0  0  0  0  0  0  0  0  0  0  0
    5.7017   -2.8400   20.3330 C   0  0  0  0  0  0  0  0  0  0  0  0
    5.6713   -1.9126   21.5120 C   0  0  0  0  0  0  0  0  0  0  0  0
    7.0186   -1.3249   21.7480 C   0  0  0  0  0  0  0  0  0  0  0  0
    7.9429   -1.9082   22.4658 N   0  0  0  0  0  0  0  0  0  0  0  0
    9.0845   -1.2781   22.0811 C   0  0  0  0  0  0  0  0  0  0  0  0
   10.4095   -1.6541   22.7051 C   0  0  0  0  0  0  0  0  0  0  0  0
   11.3042   -0.4022   22.8254 C   0  0  0  0  0  0  0  0  0  0  0  0
   10.6506    0.6135   23.7708 C   0  0  0  0  0  0  0  0  0  0  0  0
   10.3702    0.0296   25.1687 C   0  0  0  0  0  0  0  0  0  0  0  0
    9.6189    1.0553   26.0193 C   0  0  0  0  0  0  0  0  0  0  0  0
   10.2394    1.9330   26.2137 H   0  0  0  0  0  0  0  0  0  0  0  0
    8.7164    1.4035   25.4985 H   0  0  0  0  0  0  0  0  0  0  0  0
    9.3083    0.6409   26.9843 H   0  0  0  0  0  0  0  0  0  0  0  0
    9.5887   -1.2953   25.0922 C   0  0  0  0  0  0  0  0  0  0  0  0
   10.1710   -2.3054   24.0906 C   0  0  0  0  0  0  0  0  0  0  0  0
    9.4847   -3.1510   23.9829 H   0  0  0  0  0  0  0  0  0  0  0  0
   11.0925   -2.7455   24.4768 H   0  0  0  0  0  0  0  0  0  0  0  0
    8.5574   -1.0763   24.7937 H   0  0  0  0  0  0  0  0  0  0  0  0
    9.5221   -1.7468   26.0917 H   0  0  0  0  0  0  0  0  0  0  0  0
   11.3445   -0.1898   25.6334 H   0  0  0  0  0  0  0  0  0  0  0  0
   11.2674    1.5182   23.8526 H   0  0  0  0  0  0  0  0  0  0  0  0
    9.6976    0.9337   23.3246 H   0  0  0  0  0  0  0  0  0  0  0  0
   11.4527    0.0390   21.8342 H   0  0  0  0  0  0  0  0  0  0  0  0
   12.2947   -0.6836   23.1973 H   0  0  0  0  0  0  0  0  0  0  0  0
   10.8704   -2.3924   22.0317 H   0  0  0  0  0  0  0  0  0  0  0  0
    8.9153   -0.3624   21.1336 N   0  0  0  0  0  0  0  0  0  0  0  0
    7.5620   -0.3616   20.9589 N   0  0  0  0  0  0  0  0  0  0  0  0
    6.9268    0.3724   19.9199 C   0  0  0  0  0  0  0  0  0  0  0  0
    5.7139    1.0477   20.1362 C   0  0  0  0  0  0  0  0  0  0  0  0
    5.0085    1.5032   19.0172 C   0  0  0  0  0  0  0  0  0  0  0  0
    5.5711    1.3355   17.7498 C   0  0  0  0  0  0  0  0  0  0  0  0
    6.7792    0.7767   17.5498 N   0  0  0  0  0  0  0  0  0  0  0  0
    7.4537    0.3370   18.6179 C   0  0  0  0  0  0  0  0  0  0  0  0
    8.4454   -0.0777   18.4436 H   0  0  0  0  0  0  0  0  0  0  0  0
    5.0482    1.6747   16.8582 H   0  0  0  0  0  0  0  0  0  0  0  0
    4.0382    1.9819   19.1165 H   0  0  0  0  0  0  0  0  0  0  0  0
    5.3372    1.2214   21.1469 H   0  0  0  0  0  0  0  0  0  0  0  0
    5.3889   -2.4715   22.4106 H   0  0  0  0  0  0  0  0  0  0  0  0
    4.9489   -1.1141   21.3325 H   0  0  0  0  0  0  0  0  0  0  0  0
    5.0095   -1.7113   18.5243 H   0  0  0  0  0  0  0  0  0  0  0  0
    6.2981   -4.9323   22.3327 H   0  0  0  0  0  0  0  0  0  0  0  0
    7.8328   -4.5719   21.5733 H   0  0  0  0  0  0  0  0  0  0  0  0
    6.9459   -6.0242   21.0830 H   0  0  0  0  0  0  0  0  0  0  0  0
  1  2  1  0
  2  3  2  0
  3  4  1  0
  4  5  1  0
  5  6  2  0
  6  7  1  0
  7  8  1  0
  8  9  2  0
  9 10  1  0
 10 11  1  0
 11 12  1  0
 12 13  1  0
 13 14  1  0
 14 15  1  0
 15 16  1  0
 15 17  1  0
 15 18  1  0
 14 19  1  0
 19 20  1  0
 20 21  1  0
 20 22  1  0
 19 23  1  0
 19 24  1  0
 14 25  1  0
 13 26  1  0
 13 27  1  0
 12 28  1  0
 12 29  1  0
 11 30  1  0
 10 31  2  0
 31 32  1  0
 32 33  1  0
 33 34  2  0
 34 35  1  0
 35 36  2  0
 36 37  1  0
 37 38  2  0
 38 39  1  0
 36 40  1  0
 35 41  1  0
 34 42  1  0
  7 43  1  0
  7 44  1  0
  5 45  1  0
  1 46  1  0
  1 47  1  0
  1 48  1  0
  6  2  1  0
 32  8  1  0
 38 33  1  0
 20 11  1  0
M  END
>  <cnnaffinity>  (1) 
-6.07056

>  <filename>  (1) 
Cc1nocc1Cc1nc(C2CCC(C)CC2)nn1-c1cccnc1

$$$$
