
     RDKit          3D

 40 44  0  0  0  0  0  0  0  0999 V2000
    7.8050    2.9146   21.9727 C   0  0  0  0  0  0  0  0  0  0  0  0
    9.1646    2.5916   22.4873 C   0  0  0  0  0  0  0  0  0  0  0  0
    9.8177    3.4353   23.2443 N   0  0  0  0  0  0  0  0  0  0  0  0
   11.0328    2.8381   23.5257 O   0  0  0  0  0  0  0  0  0  0  0  0
   11.0561    1.6460   22.9313 C   0  0  0  0  0  0  0  0  0  0  0  0
   12.4862    0.7345   23.1002 Cl  0  0  0  0  0  0  0  0  0  0  0  0
    9.9004    1.3832   22.2684 C   0  0  0  0  0  0  0  0  0  0  0  0
    9.4805    0.1546   21.4882 C   0  0  0  0  0  0  0  0  0  0  0  0
    8.1752   -0.4957   21.8836 C   0  0  0  0  0  0  0  0  0  0  0  0
    8.0327   -1.1850   23.0019 N   0  0  0  0  0  0  0  0  0  0  0  0
    6.8296   -1.7912   22.8518 C   0  0  0  0  0  0  0  0  0  0  0  0
    6.3924   -2.8586   23.7793 C   0  0  0  0  0  0  0  0  0  0  0  0
    5.4005   -3.8769   23.2499 C   0  0  0  0  0  0  0  0  0  0  0  0
    6.8552   -4.2343   23.3445 C   0  0  0  0  0  0  0  0  0  0  0  0
    7.5800   -5.4804   23.6951 C   0  0  0  0  0  0  0  0  0  0  0  0
    8.0607   -4.5865   22.5517 C   0  0  0  0  0  0  0  0  0  0  0  0
    7.9849   -4.9071   21.5132 H   0  0  0  0  0  0  0  0  0  0  0  0
    8.8892   -3.9136   22.7891 H   0  0  0  0  0  0  0  0  0  0  0  0
    8.1699   -5.5367   24.6064 H   0  0  0  0  0  0  0  0  0  0  0  0
    7.0510   -6.3928   23.4087 H   0  0  0  0  0  0  0  0  0  0  0  0
    4.7288   -4.3423   23.9726 H   0  0  0  0  0  0  0  0  0  0  0  0
    5.0030   -3.6935   22.2527 H   0  0  0  0  0  0  0  0  0  0  0  0
    6.4357   -2.5952   24.8325 H   0  0  0  0  0  0  0  0  0  0  0  0
    6.1956   -1.4871   21.7358 N   0  0  0  0  0  0  0  0  0  0  0  0
    7.0629   -0.6622   21.0874 N   0  0  0  0  0  0  0  0  0  0  0  0
    6.5706    0.0123   19.9163 C   0  0  0  0  0  0  0  0  0  0  0  0
    5.3560    0.7124   19.9873 C   0  0  0  0  0  0  0  0  0  0  0  0
    4.9241    1.4263   18.8665 C   0  0  0  0  0  0  0  0  0  0  0  0
    5.6885    1.3777   17.6965 C   0  0  0  0  0  0  0  0  0  0  0  0
    6.8126    0.6538   17.5922 N   0  0  0  0  0  0  0  0  0  0  0  0
    7.2328   -0.0182   18.6750 C   0  0  0  0  0  0  0  0  0  0  0  0
    8.1238   -0.6291   18.5333 H   0  0  0  0  0  0  0  0  0  0  0  0
    5.3683    1.9129   16.8038 H   0  0  0  0  0  0  0  0  0  0  0  0
    4.0134    2.0189   18.8872 H   0  0  0  0  0  0  0  0  0  0  0  0
    4.7692    0.6825   20.9066 H   0  0  0  0  0  0  0  0  0  0  0  0
    9.4439    0.4016   20.4228 H   0  0  0  0  0  0  0  0  0  0  0  0
   10.2422   -0.6264   21.6081 H   0  0  0  0  0  0  0  0  0  0  0  0
    7.6188    2.3577   21.0505 H   0  0  0  0  0  0  0  0  0  0  0  0
    7.0391    2.6199   22.6937 H   0  0  0  0  0  0  0  0  0  0  0  0
    7.6922    3.9822   21.7805 H   0  0  0  0  0  0  0  0  0  0  0  0
  1  2  1  0
  2  3  2  0
  3  4  1  0
  4  5  1  0
  5  6  1  0
  5  7  2  0
  7  8  1  0
  8  9  1  0
  9 10  2  0
 10 11  1  0
 11 12  1  0
 12 13  1  0
 13 14  1  0
 14 15  1  0
 15 16  1  0
 16 17  1  0
 16 18  1  0
 15 19  1  0
 15 20  1  0
 13 21  1  0
 13 22  1  0
 12 23  1  0
 11 24  2  0
 24 25  1  0
 25 26  1  0
 26 27  2  0
 27 28  1  0
 28 29  2  0
 29 30  1  0
 30 31  2  0
 31 32  1  0
 29 33  1  0
 28 34  1  0
 27 35  1  0
  8 36  1  0
  8 37  1  0
  1 38  1  0
  1 39  1  0
  1 40  1  0
  7  2  1  0
 25  9  1  0
 31 26  1  0
 14 12  1  0
 16 14  1  0
M  END
>  <cnnaffinity>  (1) 
-6.4818

>  <filename>  (1) 
Cc1noc(Cl)c1Cc1nc(C2CC23CC3)nn1-c1cccnc1

$$$$
