
     RDKit          3D

 46 49  0  0  0  0  0  0  0  0999 V2000
   12.0364    0.4406   23.0262 C   0  0  0  0  0  0  0  0  0  0  0  0
   10.9548    1.4679   22.9411 C   0  0  0  0  0  0  0  0  0  0  0  0
   10.7954    2.4334   23.8371 N   0  0  0  0  0  0  0  0  0  0  0  0
    9.6476    3.0408   23.4694 N   0  0  0  0  0  0  0  0  0  0  0  0
    9.0677    2.4968   22.3682 C   0  0  0  0  0  0  0  0  0  0  0  0
    7.7403    2.8846   21.7934 C   0  0  0  0  0  0  0  0  0  0  0  0
    7.7346    2.6099   20.7361 H   0  0  0  0  0  0  0  0  0  0  0  0
    7.5184    3.9500   21.8771 H   0  0  0  0  0  0  0  0  0  0  0  0
    6.9119    2.3373   22.2599 H   0  0  0  0  0  0  0  0  0  0  0  0
    9.9171    1.4843   21.9753 C   0  0  0  0  0  0  0  0  0  0  0  0
    9.6331    0.4376   20.9211 C   0  0  0  0  0  0  0  0  0  0  0  0
    8.6169   -0.5615   21.3803 C   0  0  0  0  0  0  0  0  0  0  0  0
    8.8346   -1.4140   22.3601 N   0  0  0  0  0  0  0  0  0  0  0  0
    7.6292   -2.0188   22.5263 C   0  0  0  0  0  0  0  0  0  0  0  0
    7.3930   -3.0327   23.6105 C   0  0  0  0  0  0  0  0  0  0  0  0
    6.3545   -4.1124   23.2347 C   0  0  0  0  0  0  0  0  0  0  0  0
    6.6533   -5.3153   24.1534 C   0  0  0  0  0  0  0  0  0  0  0  0
    8.1105   -5.1346   24.6669 C   0  0  0  0  0  0  0  0  0  0  0  0
    8.6485   -3.8354   24.0268 C   0  0  0  0  0  0  0  0  0  0  0  0
    9.2971   -3.2634   24.7031 H   0  0  0  0  0  0  0  0  0  0  0  0
    9.2556   -4.0499   23.1374 H   0  0  0  0  0  0  0  0  0  0  0  0
    8.1196   -5.0652   25.7631 H   0  0  0  0  0  0  0  0  0  0  0  0
    8.7493   -5.9928   24.4245 H   0  0  0  0  0  0  0  0  0  0  0  0
    5.9536   -5.3506   24.9983 H   0  0  0  0  0  0  0  0  0  0  0  0
    6.5145   -6.2592   23.6142 H   0  0  0  0  0  0  0  0  0  0  0  0
    6.4919   -4.3797   22.1779 H   0  0  0  0  0  0  0  0  0  0  0  0
    5.3274   -3.7361   23.3238 H   0  0  0  0  0  0  0  0  0  0  0  0
    7.0365   -2.4516   24.4771 H   0  0  0  0  0  0  0  0  0  0  0  0
    6.6856   -1.5987   21.6973 N   0  0  0  0  0  0  0  0  0  0  0  0
    7.3377   -0.6851   20.9297 N   0  0  0  0  0  0  0  0  0  0  0  0
    6.6458   -0.0128   19.8862 C   0  0  0  0  0  0  0  0  0  0  0  0
    5.4332    0.6300   20.1501 C   0  0  0  0  0  0  0  0  0  0  0  0
    4.8036    1.3119   19.1025 C   0  0  0  0  0  0  0  0  0  0  0  0
    5.3938    1.3024   17.8325 C   0  0  0  0  0  0  0  0  0  0  0  0
    6.5428    0.6630   17.5639 N   0  0  0  0  0  0  0  0  0  0  0  0
    7.1521    0.0324   18.5765 C   0  0  0  0  0  0  0  0  0  0  0  0
    8.0968   -0.4537   18.3395 H   0  0  0  0  0  0  0  0  0  0  0  0
    4.9315    1.8215   16.9955 H   0  0  0  0  0  0  0  0  0  0  0  0
    3.8711    1.8488   19.2533 H   0  0  0  0  0  0  0  0  0  0  0  0
    5.0108    0.5864   21.1558 H   0  0  0  0  0  0  0  0  0  0  0  0
    9.2783    0.8928   19.9950 H   0  0  0  0  0  0  0  0  0  0  0  0
   10.5392   -0.1331   20.6842 H   0  0  0  0  0  0  0  0  0  0  0  0
    9.3325    3.8446   23.9931 H   0  0  0  0  0  0  0  0  0  0  0  0
   12.6000    0.4044   22.0854 H   0  0  0  0  0  0  0  0  0  0  0  0
   11.5644   -0.5420   23.1709 H   0  0  0  0  0  0  0  0  0  0  0  0
   12.7186    0.6438   23.8568 H   0  0  0  0  0  0  0  0  0  0  0  0
  1  2  1  0
  2  3  2  0
  3  4  1  0
  4  5  1  0
  5  6  1  0
  6  7  1  0
  6  8  1  0
  6  9  1  0
  5 10  2  0
 10 11  1  0
 11 12  1  0
 12 13  2  0
 13 14  1  0
 14 15  1  0
 15 16  1  0
 16 17  1  0
 17 18  1  0
 18 19  1  0
 19 20  1  0
 19 21  1  0
 18 22  1  0
 18 23  1  0
 17 24  1  0
 17 25  1  0
 16 26  1  0
 16 27  1  0
 15 28  1  0
 14 29  2  0
 29 30  1  0
 30 31  1  0
 31 32  2  0
 32 33  1  0
 33 34  2  0
 34 35  1  0
 35 36  2  0
 36 37  1  0
 34 38  1  0
 33 39  1  0
 32 40  1  0
 11 41  1  0
 11 42  1  0
  4 43  1  0
  1 44  1  0
  1 45  1  0
  1 46  1  0
 10  2  1  0
 30 12  1  0
 36 31  1  0
 19 15  1  0
M  END
>  <cnnaffinity>  (1) 
-6.26169

>  <filename>  (1) 
Cc1n[nH]c(C)c1Cc1nc(C2CCCC2)nn1-c1cccnc1

$$$$
