
     RDKit          3D

 47 50  0  0  0  0  0  0  0  0999 V2000
    7.7823    2.8521   21.9108 C   0  0  0  0  0  0  0  0  0  0  0  0
    9.1278    2.4717   22.4463 C   0  0  0  0  0  0  0  0  0  0  0  0
    9.6521    3.0604   23.5205 N   0  0  0  0  0  0  0  0  0  0  0  0
   10.7964    2.3859   23.7501 N   0  0  0  0  0  0  0  0  0  0  0  0
   11.0178    1.3812   22.8732 C   0  0  0  0  0  0  0  0  0  0  0  0
   12.1310    0.3934   22.9574 C   0  0  0  0  0  0  0  0  0  0  0  0
   11.6962   -0.6047   23.0957 H   0  0  0  0  0  0  0  0  0  0  0  0
   12.6895    0.3755   22.0165 H   0  0  0  0  0  0  0  0  0  0  0  0
   12.8341    0.5985   23.7713 H   0  0  0  0  0  0  0  0  0  0  0  0
    9.9651    1.4215   21.9884 C   0  0  0  0  0  0  0  0  0  0  0  0
    9.6573    0.3850   20.9376 C   0  0  0  0  0  0  0  0  0  0  0  0
    8.6195   -0.5875   21.3989 C   0  0  0  0  0  0  0  0  0  0  0  0
    8.8167   -1.4338   22.3917 N   0  0  0  0  0  0  0  0  0  0  0  0
    7.6095   -2.0300   22.5517 C   0  0  0  0  0  0  0  0  0  0  0  0
    7.4466   -3.0639   23.6486 C   0  0  0  0  0  0  0  0  0  0  0  0
    7.0986   -2.4252   25.0195 C   0  0  0  0  0  0  0  0  0  0  0  0
    5.6529   -1.9292   25.0397 C   0  0  0  0  0  0  0  0  0  0  0  0
    4.7369   -2.9525   24.6659 O   0  0  0  0  0  0  0  0  0  0  0  0
    4.9814   -3.6024   23.4221 C   0  0  0  0  0  0  0  0  0  0  0  0
    6.4055   -4.1589   23.3349 C   0  0  0  0  0  0  0  0  0  0  0  0
    6.5885   -4.6027   22.3469 H   0  0  0  0  0  0  0  0  0  0  0  0
    6.5068   -4.9599   24.0792 H   0  0  0  0  0  0  0  0  0  0  0  0
    4.8016   -2.9360   22.5687 H   0  0  0  0  0  0  0  0  0  0  0  0
    4.2524   -4.4157   23.3734 H   0  0  0  0  0  0  0  0  0  0  0  0
    5.5589   -1.0228   24.4198 H   0  0  0  0  0  0  0  0  0  0  0  0
    5.3711   -1.6507   26.0583 H   0  0  0  0  0  0  0  0  0  0  0  0
    7.7939   -1.6077   25.2509 H   0  0  0  0  0  0  0  0  0  0  0  0
    7.2122   -3.1935   25.7960 H   0  0  0  0  0  0  0  0  0  0  0  0
    8.4374   -3.5210   23.7283 H   0  0  0  0  0  0  0  0  0  0  0  0
    6.6782   -1.6018   21.7129 N   0  0  0  0  0  0  0  0  0  0  0  0
    7.3397   -0.6992   20.9349 N   0  0  0  0  0  0  0  0  0  0  0  0
    6.6464   -0.0329   19.8840 C   0  0  0  0  0  0  0  0  0  0  0  0
    5.4337    0.6118   20.1479 C   0  0  0  0  0  0  0  0  0  0  0  0
    4.8142    1.3036   19.1026 C   0  0  0  0  0  0  0  0  0  0  0  0
    5.4050    1.3047   17.8339 C   0  0  0  0  0  0  0  0  0  0  0  0
    6.5468    0.6540   17.5607 N   0  0  0  0  0  0  0  0  0  0  0  0
    7.1456    0.0015   18.5674 C   0  0  0  0  0  0  0  0  0  0  0  0
    8.0670   -0.5231   18.3213 H   0  0  0  0  0  0  0  0  0  0  0  0
    4.9405    1.8365   17.0061 H   0  0  0  0  0  0  0  0  0  0  0  0
    3.8873    1.8422   19.2599 H   0  0  0  0  0  0  0  0  0  0  0  0
    5.0016    0.5695   21.1493 H   0  0  0  0  0  0  0  0  0  0  0  0
    9.3518    0.8616   20.0064 H   0  0  0  0  0  0  0  0  0  0  0  0
   10.5590   -0.2008   20.7213 H   0  0  0  0  0  0  0  0  0  0  0  0
   11.3666    2.6234   24.5478 H   0  0  0  0  0  0  0  0  0  0  0  0
    7.7106    2.5874   20.8518 H   0  0  0  0  0  0  0  0  0  0  0  0
    7.5877    3.9199   22.0520 H   0  0  0  0  0  0  0  0  0  0  0  0
    6.9938    2.2732   22.4125 H   0  0  0  0  0  0  0  0  0  0  0  0
  1  2  1  0
  2  3  2  0
  3  4  1  0
  4  5  1  0
  5  6  1  0
  6  7  1  0
  6  8  1  0
  6  9  1  0
  5 10  2  0
 10 11  1  0
 11 12  1  0
 12 13  2  0
 13 14  1  0
 14 15  1  0
 15 16  1  0
 16 17  1  0
 17 18  1  0
 18 19  1  0
 19 20  1  0
 20 21  1  0
 20 22  1  0
 19 23  1  0
 19 24  1  0
 17 25  1  0
 17 26  1  0
 16 27  1  0
 16 28  1  0
 15 29  1  0
 14 30  2  0
 30 31  1  0
 31 32  1  0
 32 33  2  0
 33 34  1  0
 34 35  2  0
 35 36  1  0
 36 37  2  0
 37 38  1  0
 35 39  1  0
 34 40  1  0
 33 41  1  0
 11 42  1  0
 11 43  1  0
  4 44  1  0
  1 45  1  0
  1 46  1  0
  1 47  1  0
 10  2  1  0
 31 12  1  0
 37 32  1  0
 20 15  1  0
M  END
>  <cnnaffinity>  (1) 
-6.00522

>  <filename>  (1) 
Cc1n[nH]c(C)c1Cc1nc(C2CCOCC2)nn1-c1cccnc1

$$$$
