
     RDKit          3D

 49 52  0  0  0  0  0  0  0  0999 V2000
    7.7765    2.8933   21.8688 C   0  0  0  0  0  0  0  0  0  0  0  0
    9.1080    2.5202   22.4408 C   0  0  0  0  0  0  0  0  0  0  0  0
    9.6200    3.0915   23.5253 N   0  0  0  0  0  0  0  0  0  0  0  0
   10.7574    2.4050   23.7574 N   0  0  0  0  0  0  0  0  0  0  0  0
   10.9844    1.4073   22.8685 C   0  0  0  0  0  0  0  0  0  0  0  0
   12.0855    0.3983   22.9512 C   0  0  0  0  0  0  0  0  0  0  0  0
   11.6589   -0.6011   23.1050 H   0  0  0  0  0  0  0  0  0  0  0  0
   12.7890    0.6038   23.7611 H   0  0  0  0  0  0  0  0  0  0  0  0
   12.6481    0.3607   22.0129 H   0  0  0  0  0  0  0  0  0  0  0  0
    9.9414    1.4710   21.9714 C   0  0  0  0  0  0  0  0  0  0  0  0
    9.6280    0.4402   20.9104 C   0  0  0  0  0  0  0  0  0  0  0  0
    8.6315   -0.5764   21.3687 C   0  0  0  0  0  0  0  0  0  0  0  0
    8.8577   -1.4474   22.3349 N   0  0  0  0  0  0  0  0  0  0  0  0
    7.6524   -2.0491   22.4952 C   0  0  0  0  0  0  0  0  0  0  0  0
    7.4060   -3.0600   23.5706 C   0  0  0  0  0  0  0  0  0  0  0  0
    6.8518   -4.3827   22.9772 C   0  0  0  0  0  0  0  0  0  0  0  0
    6.5618   -5.4134   24.0786 C   0  0  0  0  0  0  0  0  0  0  0  0
    5.6575   -4.8413   25.1571 C   0  0  0  0  0  0  0  0  0  0  0  0
    5.4885   -5.7723   26.1468 F   0  0  0  0  0  0  0  0  0  0  0  0
    4.4090   -4.6187   24.6180 F   0  0  0  0  0  0  0  0  0  0  0  0
    6.1740   -3.5463   25.7622 C   0  0  0  0  0  0  0  0  0  0  0  0
    6.4643   -2.4957   24.6773 C   0  0  0  0  0  0  0  0  0  0  0  0
    6.9018   -1.5958   25.1307 H   0  0  0  0  0  0  0  0  0  0  0  0
    5.5201   -2.1814   24.2150 H   0  0  0  0  0  0  0  0  0  0  0  0
    7.0857   -3.7925   26.3226 H   0  0  0  0  0  0  0  0  0  0  0  0
    5.4277   -3.1969   26.4836 H   0  0  0  0  0  0  0  0  0  0  0  0
    6.0769   -6.3109   23.6826 H   0  0  0  0  0  0  0  0  0  0  0  0
    7.4919   -5.7246   24.5729 H   0  0  0  0  0  0  0  0  0  0  0  0
    5.9324   -4.1561   22.4179 H   0  0  0  0  0  0  0  0  0  0  0  0
    7.5629   -4.7966   22.2507 H   0  0  0  0  0  0  0  0  0  0  0  0
    8.3953   -3.2404   24.0132 H   0  0  0  0  0  0  0  0  0  0  0  0
    6.7076   -1.6314   21.6699 N   0  0  0  0  0  0  0  0  0  0  0  0
    7.3488   -0.6941   20.9246 N   0  0  0  0  0  0  0  0  0  0  0  0
    6.6515   -0.0126   19.8902 C   0  0  0  0  0  0  0  0  0  0  0  0
    5.4381    0.6282   20.1572 C   0  0  0  0  0  0  0  0  0  0  0  0
    4.8066    1.3065   19.1073 C   0  0  0  0  0  0  0  0  0  0  0  0
    5.3948    1.2969   17.8369 C   0  0  0  0  0  0  0  0  0  0  0  0
    6.5441    0.6585   17.5668 N   0  0  0  0  0  0  0  0  0  0  0  0
    7.1542    0.0299   18.5791 C   0  0  0  0  0  0  0  0  0  0  0  0
    8.0999   -0.4548   18.3443 H   0  0  0  0  0  0  0  0  0  0  0  0
    4.9314    1.8142   16.9996 H   0  0  0  0  0  0  0  0  0  0  0  0
    3.8749    1.8444   19.2575 H   0  0  0  0  0  0  0  0  0  0  0  0
    5.0130    0.5911   21.1618 H   0  0  0  0  0  0  0  0  0  0  0  0
    9.2602    0.9037   19.9929 H   0  0  0  0  0  0  0  0  0  0  0  0
   10.5285   -0.1298   20.6595 H   0  0  0  0  0  0  0  0  0  0  0  0
   11.3224    2.6449   24.5577 H   0  0  0  0  0  0  0  0  0  0  0  0
    7.5209    3.9409   22.0464 H   0  0  0  0  0  0  0  0  0  0  0  0
    7.8038    2.6794   20.7975 H   0  0  0  0  0  0  0  0  0  0  0  0
    6.9807    2.2662   22.2955 H   0  0  0  0  0  0  0  0  0  0  0  0
  1  2  1  0
  2  3  2  0
  3  4  1  0
  4  5  1  0
  5  6  1  0
  6  7  1  0
  6  8  1  0
  6  9  1  0
  5 10  2  0
 10 11  1  0
 11 12  1  0
 12 13  2  0
 13 14  1  0
 14 15  1  0
 15 16  1  0
 16 17  1  0
 17 18  1  0
 18 19  1  0
 18 20  1  0
 18 21  1  0
 21 22  1  0
 22 23  1  0
 22 24  1  0
 21 25  1  0
 21 26  1  0
 17 27  1  0
 17 28  1  0
 16 29  1  0
 16 30  1  0
 15 31  1  0
 14 32  2  0
 32 33  1  0
 33 34  1  0
 34 35  2  0
 35 36  1  0
 36 37  2  0
 37 38  1  0
 38 39  2  0
 39 40  1  0
 37 41  1  0
 36 42  1  0
 35 43  1  0
 11 44  1  0
 11 45  1  0
  4 46  1  0
  1 47  1  0
  1 48  1  0
  1 49  1  0
 10  2  1  0
 33 12  1  0
 39 34  1  0
 22 15  1  0
M  END
>  <cnnaffinity>  (1) 
-6.60609

>  <filename>  (1) 
Cc1n[nH]c(C)c1Cc1nc(C2CCC(F)(F)CC2)nn1-c1cccnc1

$$$$
