
     RDKit          3D

 40 43  0  0  0  0  0  0  0  0999 V2000
    8.2682    4.3329   24.1601 C   0  0  0  0  0  0  0  0  0  0  0  0
    8.4792    3.4076   22.9954 C   0  0  0  0  0  0  0  0  0  0  0  0
    9.2014    2.3167   23.0338 N   0  0  0  0  0  0  0  0  0  0  0  0
    9.1030    1.7441   21.7756 C   0  0  0  0  0  0  0  0  0  0  0  0
    9.6746    0.4468   21.3532 C   0  0  0  0  0  0  0  0  0  0  0  0
    8.6198   -0.5574   21.6364 C   0  0  0  0  0  0  0  0  0  0  0  0
    8.7856   -1.4031   22.5968 N   0  0  0  0  0  0  0  0  0  0  0  0
    7.5846   -2.0922   22.6416 C   0  0  0  0  0  0  0  0  0  0  0  0
    7.3732   -3.1195   23.6735 C   0  0  0  0  0  0  0  0  0  0  0  0
    8.4191   -3.3976   24.5734 C   0  0  0  0  0  0  0  0  0  0  0  0
    8.2758   -4.3467   25.5813 C   0  0  0  0  0  0  0  0  0  0  0  0
    9.7179   -4.6720   26.7912 Br  0  0  0  0  0  0  0  0  0  0  0  0
    7.0719   -5.0405   25.6967 C   0  0  0  0  0  0  0  0  0  0  0  0
    6.0150   -4.7771   24.8181 C   0  0  0  0  0  0  0  0  0  0  0  0
    6.1573   -3.8177   23.8089 C   0  0  0  0  0  0  0  0  0  0  0  0
    5.3189   -3.6147   23.1450 H   0  0  0  0  0  0  0  0  0  0  0  0
    5.0798   -5.3159   24.9293 H   0  0  0  0  0  0  0  0  0  0  0  0
    6.9655   -5.7805   26.4814 H   0  0  0  0  0  0  0  0  0  0  0  0
    9.3621   -2.8618   24.4978 H   0  0  0  0  0  0  0  0  0  0  0  0
    6.7145   -1.7245   21.7282 N   0  0  0  0  0  0  0  0  0  0  0  0
    7.3649   -0.7434   21.0569 N   0  0  0  0  0  0  0  0  0  0  0  0
    6.7696   -0.0256   20.0089 C   0  0  0  0  0  0  0  0  0  0  0  0
    5.5232    0.5808   20.1905 C   0  0  0  0  0  0  0  0  0  0  0  0
    4.9351    1.2395   19.1082 C   0  0  0  0  0  0  0  0  0  0  0  0
    5.5868    1.2693   17.8702 C   0  0  0  0  0  0  0  0  0  0  0  0
    6.7802    0.6673   17.6867 N   0  0  0  0  0  0  0  0  0  0  0  0
    7.3533    0.0378   18.7336 C   0  0  0  0  0  0  0  0  0  0  0  0
    8.3009   -0.4689   18.5683 H   0  0  0  0  0  0  0  0  0  0  0  0
    5.1195    1.8031   17.0444 H   0  0  0  0  0  0  0  0  0  0  0  0
    3.9779    1.7387   19.2165 H   0  0  0  0  0  0  0  0  0  0  0  0
    5.0244    0.5313   21.1581 H   0  0  0  0  0  0  0  0  0  0  0  0
   10.5901    0.2297   21.9115 H   0  0  0  0  0  0  0  0  0  0  0  0
    9.8933    0.4433   20.2913 H   0  0  0  0  0  0  0  0  0  0  0  0
    8.3045    2.4799   20.9699 C   0  0  0  0  0  0  0  0  0  0  0  0
    7.9126    3.5469   21.7475 N   0  0  0  0  0  0  0  0  0  0  0  0
    7.2452    4.2691   21.4783 H   0  0  0  0  0  0  0  0  0  0  0  0
    8.0188    2.2478   19.9497 H   0  0  0  0  0  0  0  0  0  0  0  0
    7.3247    4.8710   24.0316 H   0  0  0  0  0  0  0  0  0  0  0  0
    9.0910    5.0522   24.2278 H   0  0  0  0  0  0  0  0  0  0  0  0
    8.2298    3.7618   25.0969 H   0  0  0  0  0  0  0  0  0  0  0  0
  1  2  1  0
  2  3  2  0
  3  4  1  0
  4  5  1  0
  5  6  1  0
  6  7  2  0
  7  8  1  0
  8  9  1  0
  9 10  2  0
 10 11  1  0
 11 12  1  0
 11 13  2  0
 13 14  1  0
 14 15  2  0
 15 16  1  0
 14 17  1  0
 13 18  1  0
 10 19  1  0
  8 20  2  0
 20 21  1  0
 21 22  1  0
 22 23  2  0
 23 24  1  0
 24 25  2  0
 25 26  1  0
 26 27  2  0
 27 28  1  0
 25 29  1  0
 24 30  1  0
 23 31  1  0
  5 32  1  0
  5 33  1  0
  4 34  2  0
 34 35  1  0
 35 36  1  0
 34 37  1  0
  1 38  1  0
  1 39  1  0
  1 40  1  0
 35  2  1  0
 21  6  1  0
 27 22  1  0
 15  9  1  0
M  END
>  <cnnaffinity>  (1) 
-6.20297

>  <filename>  (1) 
Cc1nc(Cc2nc(-c3cccc(Br)c3)nn2-c2cccnc2)c[nH]1

$$$$
