
     RDKit          3D

 39 42  0  0  0  0  0  0  0  0999 V2000
    7.6547   -5.0596   21.1607 C   0  0  0  0  0  0  0  0  0  0  0  0
    8.2946   -5.0271   22.5126 C   0  0  0  0  0  0  0  0  0  0  0  0
    8.0286   -5.9781   23.3775 N   0  0  0  0  0  0  0  0  0  0  0  0
    8.7884   -5.7051   24.4937 O   0  0  0  0  0  0  0  0  0  0  0  0
    9.4731   -4.5803   24.2774 C   0  0  0  0  0  0  0  0  0  0  0  0
    9.2235   -4.0702   23.0429 C   0  0  0  0  0  0  0  0  0  0  0  0
    9.7451   -2.7632   22.4421 C   0  0  0  0  0  0  0  0  0  0  0  0
    8.6858   -1.7909   21.9950 C   0  0  0  0  0  0  0  0  0  0  0  0
    8.4551   -1.3102   20.7885 N   0  0  0  0  0  0  0  0  0  0  0  0
    7.3024   -0.6004   20.9566 C   0  0  0  0  0  0  0  0  0  0  0  0
    6.5995    0.0814   19.8719 C   0  0  0  0  0  0  0  0  0  0  0  0
    5.3712    0.7447   20.0614 C   0  0  0  0  0  0  0  0  0  0  0  0
    4.7908    1.3697   18.9636 C   0  0  0  0  0  0  0  0  0  0  0  0
    5.4470    1.3135   17.7262 C   0  0  0  0  0  0  0  0  0  0  0  0
    6.6080    0.6661   17.5359 N   0  0  0  0  0  0  0  0  0  0  0  0
    7.1638    0.0658   18.5919 C   0  0  0  0  0  0  0  0  0  0  0  0
    8.1019   -0.4578   18.4126 H   0  0  0  0  0  0  0  0  0  0  0  0
    5.0186    1.7977   16.8515 H   0  0  0  0  0  0  0  0  0  0  0  0
    3.8488    1.9053   19.0454 H   0  0  0  0  0  0  0  0  0  0  0  0
    4.8936    0.7652   21.0455 H   0  0  0  0  0  0  0  0  0  0  0  0
    6.8250   -0.6144   22.1848 N   0  0  0  0  0  0  0  0  0  0  0  0
    7.7415   -1.3412   22.8605 N   0  0  0  0  0  0  0  0  0  0  0  0
    7.5732   -1.7078   24.2283 C   0  0  0  0  0  0  0  0  0  0  0  0
    6.3997   -2.3719   24.6006 C   0  0  0  0  0  0  0  0  0  0  0  0
    6.3533   -2.9584   25.8571 C   0  0  0  0  0  0  0  0  0  0  0  0
    5.2678   -3.6706   26.1999 F   0  0  0  0  0  0  0  0  0  0  0  0
    7.4066   -2.8652   26.7646 C   0  0  0  0  0  0  0  0  0  0  0  0
    8.5327   -2.1141   26.4101 C   0  0  0  0  0  0  0  0  0  0  0  0
    8.6160   -1.5192   25.1495 C   0  0  0  0  0  0  0  0  0  0  0  0
    9.4801   -0.9227   24.8691 H   0  0  0  0  0  0  0  0  0  0  0  0
    9.3629   -2.0206   27.1069 H   0  0  0  0  0  0  0  0  0  0  0  0
    7.3246   -3.3976   27.7039 H   0  0  0  0  0  0  0  0  0  0  0  0
    5.5552   -2.4500   23.9227 H   0  0  0  0  0  0  0  0  0  0  0  0
   10.4003   -2.9091   21.5822 H   0  0  0  0  0  0  0  0  0  0  0  0
   10.3685   -2.2774   23.1999 H   0  0  0  0  0  0  0  0  0  0  0  0
   10.1012   -4.2563   25.1005 H   0  0  0  0  0  0  0  0  0  0  0  0
    8.4125   -5.0707   20.3749 H   0  0  0  0  0  0  0  0  0  0  0  0
    7.0160   -4.1843   21.0042 H   0  0  0  0  0  0  0  0  0  0  0  0
    7.0369   -5.9555   21.0772 H   0  0  0  0  0  0  0  0  0  0  0  0
  1  2  1  0
  2  3  2  0
  3  4  1  0
  4  5  1  0
  5  6  2  0
  6  7  1  0
  7  8  1  0
  8  9  2  0
  9 10  1  0
 10 11  1  0
 11 12  2  0
 12 13  1  0
 13 14  2  0
 14 15  1  0
 15 16  2  0
 16 17  1  0
 14 18  1  0
 13 19  1  0
 12 20  1  0
 10 21  2  0
 21 22  1  0
 22 23  1  0
 23 24  2  0
 24 25  1  0
 25 26  1  0
 25 27  2  0
 27 28  1  0
 28 29  2  0
 29 30  1  0
 28 31  1  0
 27 32  1  0
 24 33  1  0
  7 34  1  0
  7 35  1  0
  5 36  1  0
  1 37  1  0
  1 38  1  0
  1 39  1  0
  6  2  1  0
 22  8  1  0
 29 23  1  0
 16 11  1  0
M  END
>  <cnnaffinity>  (1) 
-6.21573

>  <filename>  (1) 
Cc1nocc1Cc1nc(-c2cccnc2)nn1-c1cccc(F)c1

$$$$
