
     RDKit          3D

 47 50  0  0  0  0  0  0  0  0999 V2000
   12.3770   -1.3455   21.5070 C   0  0  0  0  0  0  0  0  0  0  0  0
   11.7846   -0.0359   21.9031 C   0  0  0  0  0  0  0  0  0  0  0  0
   12.3455    0.6204   22.9087 N   0  0  0  0  0  0  0  0  0  0  0  0
   11.5737    1.6980   23.1173 N   0  0  0  0  0  0  0  0  0  0  0  0
   11.9185    2.5421   24.2341 C   0  0  0  0  0  0  0  0  0  0  0  0
   11.4661    2.1693   25.1602 H   0  0  0  0  0  0  0  0  0  0  0  0
   11.6003    3.5696   24.0488 H   0  0  0  0  0  0  0  0  0  0  0  0
   13.0068    2.4712   24.2948 H   0  0  0  0  0  0  0  0  0  0  0  0
   10.5216    1.7441   22.2720 C   0  0  0  0  0  0  0  0  0  0  0  0
   10.6149    0.6331   21.4591 C   0  0  0  0  0  0  0  0  0  0  0  0
    9.5462    0.0881   20.5559 C   0  0  0  0  0  0  0  0  0  0  0  0
    8.5144   -0.7392   21.2665 C   0  0  0  0  0  0  0  0  0  0  0  0
    8.7321   -1.5593   22.2717 N   0  0  0  0  0  0  0  0  0  0  0  0
    7.4982   -2.0633   22.5453 C   0  0  0  0  0  0  0  0  0  0  0  0
    7.3127   -3.0193   23.6829 C   0  0  0  0  0  0  0  0  0  0  0  0
    7.4990   -2.3024   25.0496 C   0  0  0  0  0  0  0  0  0  0  0  0
    7.5503   -3.2750   26.2040 C   0  0  0  0  0  0  0  0  0  0  0  0
    7.7513   -4.5869   26.0535 C   0  0  0  0  0  0  0  0  0  0  0  0
    7.9877   -5.2408   24.7105 C   0  0  0  0  0  0  0  0  0  0  0  0
    8.2946   -4.2161   23.6047 C   0  0  0  0  0  0  0  0  0  0  0  0
    9.3196   -3.8335   23.7254 H   0  0  0  0  0  0  0  0  0  0  0  0
    8.2526   -4.6945   22.6194 H   0  0  0  0  0  0  0  0  0  0  0  0
    7.1002   -5.8331   24.4402 H   0  0  0  0  0  0  0  0  0  0  0  0
    8.8039   -5.9691   24.7947 H   0  0  0  0  0  0  0  0  0  0  0  0
    7.7194   -5.2416   26.9256 H   0  0  0  0  0  0  0  0  0  0  0  0
    7.4406   -2.8543   27.2030 H   0  0  0  0  0  0  0  0  0  0  0  0
    6.6930   -1.5757   25.2137 H   0  0  0  0  0  0  0  0  0  0  0  0
    8.4310   -1.7155   25.0229 H   0  0  0  0  0  0  0  0  0  0  0  0
    6.2822   -3.3886   23.6181 H   0  0  0  0  0  0  0  0  0  0  0  0
    6.5381   -1.6224   21.7559 N   0  0  0  0  0  0  0  0  0  0  0  0
    7.2022   -0.7971   20.9022 N   0  0  0  0  0  0  0  0  0  0  0  0
    6.5366   -0.0969   19.8613 C   0  0  0  0  0  0  0  0  0  0  0  0
    5.3533    0.5983   20.1223 C   0  0  0  0  0  0  0  0  0  0  0  0
    4.7774    1.3178   19.0716 C   0  0  0  0  0  0  0  0  0  0  0  0
    5.3886    1.3151   17.8113 C   0  0  0  0  0  0  0  0  0  0  0  0
    6.5154    0.6365   17.5516 N   0  0  0  0  0  0  0  0  0  0  0  0
    7.0695   -0.0437   18.5585 C   0  0  0  0  0  0  0  0  0  0  0  0
    8.0048   -0.5497   18.3272 H   0  0  0  0  0  0  0  0  0  0  0  0
    4.9621    1.8734   16.9794 H   0  0  0  0  0  0  0  0  0  0  0  0
    3.8682    1.8867   19.2200 H   0  0  0  0  0  0  0  0  0  0  0  0
    4.9250    0.5802   21.1267 H   0  0  0  0  0  0  0  0  0  0  0  0
    9.0465    0.9072   20.0362 H   0  0  0  0  0  0  0  0  0  0  0  0
    9.9684   -0.5591   19.7782 H   0  0  0  0  0  0  0  0  0  0  0  0
    9.7870    2.5466   22.3065 H   0  0  0  0  0  0  0  0  0  0  0  0
   13.3370   -1.4431   22.0195 H   0  0  0  0  0  0  0  0  0  0  0  0
   11.7189   -2.1691   21.8101 H   0  0  0  0  0  0  0  0  0  0  0  0
   12.5391   -1.4415   20.4316 H   0  0  0  0  0  0  0  0  0  0  0  0
  1  2  1  0
  2  3  2  0
  3  4  1  0
  4  5  1  0
  5  6  1  0
  5  7  1  0
  5  8  1  0
  4  9  1  0
  9 10  2  0
 10 11  1  0
 11 12  1  0
 12 13  2  0
 13 14  1  0
 14 15  1  0
 15 16  1  0
 16 17  1  0
 17 18  2  0
 18 19  1  0
 19 20  1  0
 20 21  1  0
 20 22  1  0
 19 23  1  0
 19 24  1  0
 18 25  1  0
 17 26  1  0
 16 27  1  0
 16 28  1  0
 15 29  1  0
 14 30  2  0
 30 31  1  0
 31 32  1  0
 32 33  2  0
 33 34  1  0
 34 35  2  0
 35 36  1  0
 36 37  2  0
 37 38  1  0
 35 39  1  0
 34 40  1  0
 33 41  1  0
 11 42  1  0
 11 43  1  0
  9 44  1  0
  1 45  1  0
  1 46  1  0
  1 47  1  0
 10  2  1  0
 31 12  1  0
 37 32  1  0
 20 15  1  0
M  END
>  <cnnaffinity>  (1) 
-6.49979

>  <filename>  (1) 
Cc1nn(C)cc1Cc1nc(C2CC=CCC2)nn1-c1cccnc1

$$$$
