
     RDKit          3D

 41 44  0  0  0  0  0  0  0  0999 V2000
    9.6395    2.3602   21.2744 C   0  0  0  0  0  0  0  0  0  0  0  0
    9.6778    2.2543   22.7672 C   0  0  0  0  0  0  0  0  0  0  0  0
   10.8331    2.5702   23.3540 N   0  0  0  0  0  0  0  0  0  0  0  0
   10.9131    2.3664   24.6627 C   0  0  0  0  0  0  0  0  0  0  0  0
    9.9477    1.9034   25.4488 N   0  0  0  0  0  0  0  0  0  0  0  0
    8.7994    1.5795   24.8511 C   0  0  0  0  0  0  0  0  0  0  0  0
    7.7632    0.9076   25.6920 C   0  0  0  0  0  0  0  0  0  0  0  0
    8.1198    0.7854   26.7138 H   0  0  0  0  0  0  0  0  0  0  0  0
    6.8245    1.4676   25.7081 H   0  0  0  0  0  0  0  0  0  0  0  0
    7.5583   -0.0770   25.2574 H   0  0  0  0  0  0  0  0  0  0  0  0
    8.5817    1.7588   23.4779 C   0  0  0  0  0  0  0  0  0  0  0  0
    7.3638    1.1786   22.7532 C   0  0  0  0  0  0  0  0  0  0  0  0
    7.5909   -0.2099   22.2029 C   0  0  0  0  0  0  0  0  0  0  0  0
    8.1551   -1.1853   22.8887 N   0  0  0  0  0  0  0  0  0  0  0  0
    8.2456   -2.1933   21.9880 C   0  0  0  0  0  0  0  0  0  0  0  0
    8.8932   -3.4751   22.3375 C   0  0  0  0  0  0  0  0  0  0  0  0
    8.4376   -4.3337   23.4902 C   0  0  0  0  0  0  0  0  0  0  0  0
    8.1951   -4.7824   22.0755 C   0  0  0  0  0  0  0  0  0  0  0  0
    7.1822   -4.6906   21.6795 H   0  0  0  0  0  0  0  0  0  0  0  0
    8.7586   -5.6288   21.6898 H   0  0  0  0  0  0  0  0  0  0  0  0
    9.2421   -4.8126   24.0505 H   0  0  0  0  0  0  0  0  0  0  0  0
    7.5948   -3.9967   24.0940 H   0  0  0  0  0  0  0  0  0  0  0  0
    9.9736   -3.3918   22.2344 H   0  0  0  0  0  0  0  0  0  0  0  0
    7.7924   -1.9036   20.7814 N   0  0  0  0  0  0  0  0  0  0  0  0
    7.3137   -0.6416   20.9365 N   0  0  0  0  0  0  0  0  0  0  0  0
    6.6162    0.0064   19.8798 C   0  0  0  0  0  0  0  0  0  0  0  0
    5.4023    0.6632   20.1121 C   0  0  0  0  0  0  0  0  0  0  0  0
    4.7924    1.3198   19.0416 C   0  0  0  0  0  0  0  0  0  0  0  0
    5.4137    1.3030   17.7897 C   0  0  0  0  0  0  0  0  0  0  0  0
    6.5628    0.6452   17.5545 N   0  0  0  0  0  0  0  0  0  0  0  0
    7.1400   -0.0004   18.5741 C   0  0  0  0  0  0  0  0  0  0  0  0
    8.0673   -0.5290   18.3619 H   0  0  0  0  0  0  0  0  0  0  0  0
    4.9771    1.8379   16.9486 H   0  0  0  0  0  0  0  0  0  0  0  0
    3.8612    1.8551   19.1775 H   0  0  0  0  0  0  0  0  0  0  0  0
    4.9527    0.6561   21.1061 H   0  0  0  0  0  0  0  0  0  0  0  0
    6.5003    1.1040   23.4224 H   0  0  0  0  0  0  0  0  0  0  0  0
    7.0474    1.8429   21.9465 H   0  0  0  0  0  0  0  0  0  0  0  0
   11.8722    2.5793   25.1296 H   0  0  0  0  0  0  0  0  0  0  0  0
    9.4140    1.3863   20.8317 H   0  0  0  0  0  0  0  0  0  0  0  0
   10.6026    2.7032   20.8995 H   0  0  0  0  0  0  0  0  0  0  0  0
    8.8573    3.0440   20.9368 H   0  0  0  0  0  0  0  0  0  0  0  0
  1  2  1  0
  2  3  2  0
  3  4  1  0
  4  5  2  0
  5  6  1  0
  6  7  1  0
  7  8  1  0
  7  9  1  0
  7 10  1  0
  6 11  2  0
 11 12  1  0
 12 13  1  0
 13 14  2  0
 14 15  1  0
 15 16  1  0
 16 17  1  0
 17 18  1  0
 18 19  1  0
 18 20  1  0
 17 21  1  0
 17 22  1  0
 16 23  1  0
 15 24  2  0
 24 25  1  0
 25 26  1  0
 26 27  2  0
 27 28  1  0
 28 29  2  0
 29 30  1  0
 30 31  2  0
 31 32  1  0
 29 33  1  0
 28 34  1  0
 27 35  1  0
 12 36  1  0
 12 37  1  0
  4 38  1  0
  1 39  1  0
  1 40  1  0
  1 41  1  0
 11  2  1  0
 25 13  1  0
 31 26  1  0
 18 16  1  0
M  END
>  <cnnaffinity>  (1) 
-6.2314

>  <filename>  (1) 
Cc1ncnc(C)c1Cc1nc(C2CC2)nn1-c1cccnc1

$$$$
