
     RDKit          3D

 50 53  0  0  0  0  0  0  0  0999 V2000
   11.9663    0.4584   23.0862 C   0  0  0  0  0  0  0  0  0  0  0  0
   10.8888    1.4829   22.9739 C   0  0  0  0  0  0  0  0  0  0  0  0
   10.6912    2.4419   23.8694 N   0  0  0  0  0  0  0  0  0  0  0  0
    9.5688    3.0701   23.4593 N   0  0  0  0  0  0  0  0  0  0  0  0
    9.0514    4.1903   24.2136 C   0  0  0  0  0  0  0  0  0  0  0  0
    8.0197    3.9823   24.5233 H   0  0  0  0  0  0  0  0  0  0  0  0
    9.0648    5.0967   23.5958 H   0  0  0  0  0  0  0  0  0  0  0  0
    9.6926    4.3156   25.0880 H   0  0  0  0  0  0  0  0  0  0  0  0
    9.0392    2.5210   22.3326 C   0  0  0  0  0  0  0  0  0  0  0  0
    7.7216    2.8964   21.7209 C   0  0  0  0  0  0  0  0  0  0  0  0
    7.5293    3.9751   21.7225 H   0  0  0  0  0  0  0  0  0  0  0  0
    6.8774    2.4091   22.2293 H   0  0  0  0  0  0  0  0  0  0  0  0
    7.7194    2.5431   20.6874 H   0  0  0  0  0  0  0  0  0  0  0  0
    9.8914    1.4976   21.9727 C   0  0  0  0  0  0  0  0  0  0  0  0
    9.6238    0.4404   20.9267 C   0  0  0  0  0  0  0  0  0  0  0  0
    8.6175   -0.5758   21.3695 C   0  0  0  0  0  0  0  0  0  0  0  0
    8.8516   -1.4548   22.3233 N   0  0  0  0  0  0  0  0  0  0  0  0
    7.6410   -2.0505   22.5028 C   0  0  0  0  0  0  0  0  0  0  0  0
    7.4227   -3.0664   23.5775 C   0  0  0  0  0  0  0  0  0  0  0  0
    8.3329   -4.3086   23.3618 C   0  0  0  0  0  0  0  0  0  0  0  0
    8.3053   -5.2483   24.5447 C   0  0  0  0  0  0  0  0  0  0  0  0
    7.8768   -4.8939   25.7596 C   0  0  0  0  0  0  0  0  0  0  0  0
    7.3228   -3.5228   26.0827 C   0  0  0  0  0  0  0  0  0  0  0  0
    7.6636   -2.4798   24.9986 C   0  0  0  0  0  0  0  0  0  0  0  0
    8.7183   -2.1711   25.0776 H   0  0  0  0  0  0  0  0  0  0  0  0
    7.0647   -1.5736   25.1562 H   0  0  0  0  0  0  0  0  0  0  0  0
    6.2287   -3.5986   26.1983 H   0  0  0  0  0  0  0  0  0  0  0  0
    7.6893   -3.1998   27.0669 H   0  0  0  0  0  0  0  0  0  0  0  0
    7.9014   -5.6190   26.5747 H   0  0  0  0  0  0  0  0  0  0  0  0
    8.6749   -6.2600   24.3717 H   0  0  0  0  0  0  0  0  0  0  0  0
    8.0361   -4.8540   22.4556 H   0  0  0  0  0  0  0  0  0  0  0  0
    9.3690   -3.9776   23.1787 H   0  0  0  0  0  0  0  0  0  0  0  0
    6.3666   -3.3591   23.4897 H   0  0  0  0  0  0  0  0  0  0  0  0
    6.6934   -1.6279   21.6919 N   0  0  0  0  0  0  0  0  0  0  0  0
    7.3316   -0.6951   20.9333 N   0  0  0  0  0  0  0  0  0  0  0  0
    6.6421   -0.0152   19.8898 C   0  0  0  0  0  0  0  0  0  0  0  0
    5.4307    0.6320   20.1515 C   0  0  0  0  0  0  0  0  0  0  0  0
    4.8023    1.3158   19.1037 C   0  0  0  0  0  0  0  0  0  0  0  0
    5.3943    1.3039   17.8350 C   0  0  0  0  0  0  0  0  0  0  0  0
    6.5450    0.6664   17.5707 N   0  0  0  0  0  0  0  0  0  0  0  0
    7.1530    0.0353   18.5828 C   0  0  0  0  0  0  0  0  0  0  0  0
    8.0982   -0.4493   18.3450 H   0  0  0  0  0  0  0  0  0  0  0  0
    4.9315    1.8186   16.9947 H   0  0  0  0  0  0  0  0  0  0  0  0
    3.8687    1.8523   19.2513 H   0  0  0  0  0  0  0  0  0  0  0  0
    5.0105    0.5871   21.1576 H   0  0  0  0  0  0  0  0  0  0  0  0
    9.2763    0.8899   19.9966 H   0  0  0  0  0  0  0  0  0  0  0  0
   10.5374   -0.1176   20.7007 H   0  0  0  0  0  0  0  0  0  0  0  0
   12.6559    0.6742   23.9067 H   0  0  0  0  0  0  0  0  0  0  0  0
   11.4936   -0.5197   23.2511 H   0  0  0  0  0  0  0  0  0  0  0  0
   12.5247    0.3922   22.1440 H   0  0  0  0  0  0  0  0  0  0  0  0
  1  2  1  0
  2  3  2  0
  3  4  1  0
  4  5  1  0
  5  6  1  0
  5  7  1  0
  5  8  1  0
  4  9  1  0
  9 10  1  0
 10 11  1  0
 10 12  1  0
 10 13  1  0
  9 14  2  0
 14 15  1  0
 15 16  1  0
 16 17  2  0
 17 18  1  0
 18 19  1  0
 19 20  1  0
 20 21  1  0
 21 22  2  0
 22 23  1  0
 23 24  1  0
 24 25  1  0
 24 26  1  0
 23 27  1  0
 23 28  1  0
 22 29  1  0
 21 30  1  0
 20 31  1  0
 20 32  1  0
 19 33  1  0
 18 34  2  0
 34 35  1  0
 35 36  1  0
 36 37  2  0
 37 38  1  0
 38 39  2  0
 39 40  1  0
 40 41  2  0
 41 42  1  0
 39 43  1  0
 38 44  1  0
 37 45  1  0
 15 46  1  0
 15 47  1  0
  1 48  1  0
  1 49  1  0
  1 50  1  0
 14  2  1  0
 35 16  1  0
 41 36  1  0
 24 19  1  0
M  END
>  <cnnaffinity>  (1) 
-6.58776

>  <filename>  (1) 
Cc1nn(C)c(C)c1Cc1nc(C2CC=CCC2)nn1-c1cccnc1

$$$$
