
     RDKit          3D

 55 58  0  0  0  0  0  0  0  0999 V2000
    7.7499    2.7846   21.7498 C   0  0  0  0  0  0  0  0  0  0  0  0
    9.1349    2.4310   22.1936 C   0  0  0  0  0  0  0  0  0  0  0  0
    9.7279    3.0897   23.1916 N   0  0  0  0  0  0  0  0  0  0  0  0
   10.8746    2.4227   23.4052 N   0  0  0  0  0  0  0  0  0  0  0  0
   11.8087    2.8257   24.4239 C   0  0  0  0  0  0  0  0  0  0  0  0
   11.6318    3.8719   24.6623 H   0  0  0  0  0  0  0  0  0  0  0  0
   11.7053    2.1950   25.3162 H   0  0  0  0  0  0  0  0  0  0  0  0
   12.8177    2.7055   24.0179 H   0  0  0  0  0  0  0  0  0  0  0  0
   11.0033    1.3242   22.6242 C   0  0  0  0  0  0  0  0  0  0  0  0
   12.0565    0.2775   22.8377 C   0  0  0  0  0  0  0  0  0  0  0  0
   11.6735   -0.7088   22.5454 H   0  0  0  0  0  0  0  0  0  0  0  0
   12.3580    0.2207   23.8931 H   0  0  0  0  0  0  0  0  0  0  0  0
   12.9490    0.4933   22.2398 H   0  0  0  0  0  0  0  0  0  0  0  0
    9.9330    1.3430   21.7620 C   0  0  0  0  0  0  0  0  0  0  0  0
    9.6277    0.2539   20.7638 C   0  0  0  0  0  0  0  0  0  0  0  0
    8.5891   -0.7010   21.2541 C   0  0  0  0  0  0  0  0  0  0  0  0
    8.8070   -1.5394   22.2499 N   0  0  0  0  0  0  0  0  0  0  0  0
    7.5901   -2.1013   22.4586 C   0  0  0  0  0  0  0  0  0  0  0  0
    7.3543   -3.1052   23.5559 C   0  0  0  0  0  0  0  0  0  0  0  0
    6.7943   -4.4390   23.0059 C   0  0  0  0  0  0  0  0  0  0  0  0
    6.5252   -5.4489   24.1263 C   0  0  0  0  0  0  0  0  0  0  0  0
    5.5984   -4.8822   25.2149 C   0  0  0  0  0  0  0  0  0  0  0  0
    5.3230   -5.9133   26.3091 C   0  0  0  0  0  0  0  0  0  0  0  0
    4.8833   -6.8237   25.8864 H   0  0  0  0  0  0  0  0  0  0  0  0
    6.2522   -6.1953   26.8210 H   0  0  0  0  0  0  0  0  0  0  0  0
    4.6310   -5.5167   27.0606 H   0  0  0  0  0  0  0  0  0  0  0  0
    6.1894   -3.5809   25.7849 C   0  0  0  0  0  0  0  0  0  0  0  0
    6.4611   -2.5390   24.6918 C   0  0  0  0  0  0  0  0  0  0  0  0
    6.9387   -1.6565   25.1365 H   0  0  0  0  0  0  0  0  0  0  0  0
    5.5057   -2.2063   24.2659 H   0  0  0  0  0  0  0  0  0  0  0  0
    5.5107   -3.1543   26.5371 H   0  0  0  0  0  0  0  0  0  0  0  0
    7.1281   -3.8160   26.3133 H   0  0  0  0  0  0  0  0  0  0  0  0
    4.6372   -4.6280   24.7365 H   0  0  0  0  0  0  0  0  0  0  0  0
    7.4795   -5.7445   24.5938 H   0  0  0  0  0  0  0  0  0  0  0  0
    6.0912   -6.3630   23.6987 H   0  0  0  0  0  0  0  0  0  0  0  0
    7.5032   -4.8692   22.2875 H   0  0  0  0  0  0  0  0  0  0  0  0
    5.8631   -4.2366   22.4574 H   0  0  0  0  0  0  0  0  0  0  0  0
    8.3422   -3.3098   23.9893 H   0  0  0  0  0  0  0  0  0  0  0  0
    6.6403   -1.6791   21.6405 N   0  0  0  0  0  0  0  0  0  0  0  0
    7.2926   -0.7935   20.8380 N   0  0  0  0  0  0  0  0  0  0  0  0
    6.5882   -0.0930   19.8174 C   0  0  0  0  0  0  0  0  0  0  0  0
    5.3874    0.5692   20.1000 C   0  0  0  0  0  0  0  0  0  0  0  0
    4.7900    1.3143   19.0778 C   0  0  0  0  0  0  0  0  0  0  0  0
    5.3858    1.3397   17.8105 C   0  0  0  0  0  0  0  0  0  0  0  0
    6.5096    0.6673   17.5191 N   0  0  0  0  0  0  0  0  0  0  0  0
    7.0866   -0.0336   18.5032 C   0  0  0  0  0  0  0  0  0  0  0  0
    7.9887   -0.5828   18.2403 H   0  0  0  0  0  0  0  0  0  0  0  0
    4.9371    1.9065   16.9977 H   0  0  0  0  0  0  0  0  0  0  0  0
    3.8758    1.8724   19.2499 H   0  0  0  0  0  0  0  0  0  0  0  0
    4.9495    0.5079   21.0977 H   0  0  0  0  0  0  0  0  0  0  0  0
   10.5285   -0.3460   20.5930 H   0  0  0  0  0  0  0  0  0  0  0  0
    9.3651    0.6876   19.8012 H   0  0  0  0  0  0  0  0  0  0  0  0
    7.0336    2.3946   22.4829 H   0  0  0  0  0  0  0  0  0  0  0  0
    7.4982    2.3338   20.7799 H   0  0  0  0  0  0  0  0  0  0  0  0
    7.6168    3.8680   21.6984 H   0  0  0  0  0  0  0  0  0  0  0  0
  1  2  1  0
  2  3  2  0
  3  4  1  0
  4  5  1  0
  5  6  1  0
  5  7  1  0
  5  8  1  0
  4  9  1  0
  9 10  1  0
 10 11  1  0
 10 12  1  0
 10 13  1  0
  9 14  2  0
 14 15  1  0
 15 16  1  0
 16 17  2  0
 17 18  1  0
 18 19  1  0
 19 20  1  0
 20 21  1  0
 21 22  1  0
 22 23  1  0
 23 24  1  0
 23 25  1  0
 23 26  1  0
 22 27  1  0
 27 28  1  0
 28 29  1  0
 28 30  1  0
 27 31  1  0
 27 32  1  0
 22 33  1  0
 21 34  1  0
 21 35  1  0
 20 36  1  0
 20 37  1  0
 19 38  1  0
 18 39  2  0
 39 40  1  0
 40 41  1  0
 41 42  2  0
 42 43  1  0
 43 44  2  0
 44 45  1  0
 45 46  2  0
 46 47  1  0
 44 48  1  0
 43 49  1  0
 42 50  1  0
 15 51  1  0
 15 52  1  0
  1 53  1  0
  1 54  1  0
  1 55  1  0
 14  2  1  0
 40 16  1  0
 46 41  1  0
 28 19  1  0
M  END
>  <cnnaffinity>  (1) 
-6.58289

>  <filename>  (1) 
Cc1nn(C)c(C)c1Cc1nc(C2CCC(C)CC2)nn1-c1cccnc1

$$$$
