
     RDKit          3D

 42 45  0  0  0  0  0  0  0  0999 V2000
    7.7691   -0.4780   27.6035 C   0  0  0  0  0  0  0  0  0  0  0  0
    7.3938    0.1262   26.2919 C   0  0  0  0  0  0  0  0  0  0  0  0
    6.2464   -0.0503   25.7091 N   0  0  0  0  0  0  0  0  0  0  0  0
    6.2187    0.5994   24.4981 C   0  0  0  0  0  0  0  0  0  0  0  0
    7.3463    1.2663   24.1272 C   0  0  0  0  0  0  0  0  0  0  0  0
    7.7624    1.8482   22.7902 C   0  0  0  0  0  0  0  0  0  0  0  0
    8.7822    0.9625   22.1325 C   0  0  0  0  0  0  0  0  0  0  0  0
   10.0844    1.0405   22.3344 N   0  0  0  0  0  0  0  0  0  0  0  0
   10.5317   -0.1579   21.8963 C   0  0  0  0  0  0  0  0  0  0  0  0
   11.9366   -0.5835   21.8397 C   0  0  0  0  0  0  0  0  0  0  0  0
   13.0303    0.1871   22.2680 C   0  0  0  0  0  0  0  0  0  0  0  0
   14.2944   -0.0856   21.7456 C   0  0  0  0  0  0  0  0  0  0  0  0
   14.4098   -1.1069   20.7799 C   0  0  0  0  0  0  0  0  0  0  0  0
   15.4271   -1.1414   19.9116 F   0  0  0  0  0  0  0  0  0  0  0  0
   13.4103   -2.0403   20.5867 C   0  0  0  0  0  0  0  0  0  0  0  0
   12.1707   -1.7731   21.1403 C   0  0  0  0  0  0  0  0  0  0  0  0
   11.3107   -2.4072   20.9800 H   0  0  0  0  0  0  0  0  0  0  0  0
   13.5858   -2.9075   19.9687 H   0  0  0  0  0  0  0  0  0  0  0  0
   15.1387    0.5557   21.9755 H   0  0  0  0  0  0  0  0  0  0  0  0
   12.8720    1.0414   22.9220 H   0  0  0  0  0  0  0  0  0  0  0  0
    9.5769   -0.9432   21.4118 N   0  0  0  0  0  0  0  0  0  0  0  0
    8.4605   -0.2114   21.5445 N   0  0  0  0  0  0  0  0  0  0  0  0
    7.1900   -0.7502   21.0611 C   0  0  0  0  0  0  0  0  0  0  0  0
    6.5418    0.0344   19.9411 C   0  0  0  0  0  0  0  0  0  0  0  0
    5.3163    0.6896   20.0948 C   0  0  0  0  0  0  0  0  0  0  0  0
    4.7593    1.3585   19.0023 C   0  0  0  0  0  0  0  0  0  0  0  0
    5.4511    1.3476   17.7886 C   0  0  0  0  0  0  0  0  0  0  0  0
    6.6259    0.7211   17.6182 N   0  0  0  0  0  0  0  0  0  0  0  0
    7.1521    0.0926   18.6761 C   0  0  0  0  0  0  0  0  0  0  0  0
    8.1079   -0.4026   18.5049 H   0  0  0  0  0  0  0  0  0  0  0  0
    5.0471    1.8588   16.9151 H   0  0  0  0  0  0  0  0  0  0  0  0
    3.8220    1.8951   19.0813 H   0  0  0  0  0  0  0  0  0  0  0  0
    4.8025    0.6764   21.0579 H   0  0  0  0  0  0  0  0  0  0  0  0
    7.4216   -1.7668   20.7249 H   0  0  0  0  0  0  0  0  0  0  0  0
    6.5100   -0.8408   21.9137 H   0  0  0  0  0  0  0  0  0  0  0  0
    6.8956    1.9619   22.1323 H   0  0  0  0  0  0  0  0  0  0  0  0
    8.2352    2.8272   22.9173 H   0  0  0  0  0  0  0  0  0  0  0  0
    8.4973    1.1437   25.4173 S   0  0  0  0  0  0  0  0  0  0  0  0
    5.3197    0.5493   23.8981 H   0  0  0  0  0  0  0  0  0  0  0  0
    7.0591   -1.2732   27.8401 H   0  0  0  0  0  0  0  0  0  0  0  0
    8.7833   -0.8882   27.5787 H   0  0  0  0  0  0  0  0  0  0  0  0
    7.7281    0.2747   28.3991 H   0  0  0  0  0  0  0  0  0  0  0  0
  1  2  1  0
  2  3  2  0
  3  4  1  0
  4  5  2  0
  5  6  1  0
  6  7  1  0
  7  8  2  0
  8  9  1  0
  9 10  1  0
 10 11  2  0
 11 12  1  0
 12 13  2  0
 13 14  1  0
 13 15  1  0
 15 16  2  0
 16 17  1  0
 15 18  1  0
 12 19  1  0
 11 20  1  0
  9 21  2  0
 21 22  1  0
 22 23  1  0
 23 24  1  0
 24 25  2  0
 25 26  1  0
 26 27  2  0
 27 28  1  0
 28 29  2  0
 29 30  1  0
 27 31  1  0
 26 32  1  0
 25 33  1  0
 23 34  1  0
 23 35  1  0
  6 36  1  0
  6 37  1  0
  5 38  1  0
  4 39  1  0
  1 40  1  0
  1 41  1  0
  1 42  1  0
 38  2  1  0
 22  7  1  0
 29 24  1  0
 16 10  1  0
M  END
>  <cnnaffinity>  (1) 
-6.71794

>  <filename>  (1) 
Cc1ncc(Cc2nc(-c3ccc(F)cc3)nn2Cc2cccnc2)s1

$$$$
