
     RDKit          3D

 45 48  0  0  0  0  0  0  0  0999 V2000
   11.2007   -1.5401   21.6383 C   0  0  0  0  0  0  0  0  0  0  0  0
   11.8143   -0.1938   21.8209 C   0  0  0  0  0  0  0  0  0  0  0  0
   13.0081   -0.0164   22.3768 N   0  0  0  0  0  0  0  0  0  0  0  0
   13.1749    1.3170   22.4261 N   0  0  0  0  0  0  0  0  0  0  0  0
   12.1180    1.9919   21.9134 C   0  0  0  0  0  0  0  0  0  0  0  0
   11.2124    1.0484   21.4942 C   0  0  0  0  0  0  0  0  0  0  0  0
    9.8082    1.3253   21.0201 C   0  0  0  0  0  0  0  0  0  0  0  0
    8.7844    1.1367   22.0878 C   0  0  0  0  0  0  0  0  0  0  0  0
    8.7193    1.8847   23.1683 N   0  0  0  0  0  0  0  0  0  0  0  0
    7.6625    1.3676   23.8466 C   0  0  0  0  0  0  0  0  0  0  0  0
    7.2476    1.8889   25.1533 C   0  0  0  0  0  0  0  0  0  0  0  0
    6.1114    1.3525   25.7956 C   0  0  0  0  0  0  0  0  0  0  0  0
    5.7137    1.8355   27.0324 C   0  0  0  0  0  0  0  0  0  0  0  0
    6.4406    2.8618   27.6566 C   0  0  0  0  0  0  0  0  0  0  0  0
    6.0356    3.3341   28.8653 N   0  0  0  0  0  0  0  0  0  0  0  0
    5.2337    2.9237   29.3010 H   0  0  0  0  0  0  0  0  0  0  0  0
    6.5558    4.0600   29.3148 H   0  0  0  0  0  0  0  0  0  0  0  0
    7.5760    3.3995   27.0286 C   0  0  0  0  0  0  0  0  0  0  0  0
    7.9806    2.9184   25.7900 C   0  0  0  0  0  0  0  0  0  0  0  0
    8.8660    3.3370   25.3064 H   0  0  0  0  0  0  0  0  0  0  0  0
    8.1097    4.1955   27.5382 H   0  0  0  0  0  0  0  0  0  0  0  0
    4.8425    1.4380   27.5422 H   0  0  0  0  0  0  0  0  0  0  0  0
    5.5533    0.5513   25.3085 H   0  0  0  0  0  0  0  0  0  0  0  0
    7.0676    0.3573   23.2235 N   0  0  0  0  0  0  0  0  0  0  0  0
    7.7973    0.2181   22.0960 N   0  0  0  0  0  0  0  0  0  0  0  0
    7.3793   -0.6940   21.0365 C   0  0  0  0  0  0  0  0  0  0  0  0
    6.6532   -0.0054   19.8861 C   0  0  0  0  0  0  0  0  0  0  0  0
    5.4410    0.6501   20.1336 C   0  0  0  0  0  0  0  0  0  0  0  0
    4.7986    1.3091   19.0812 C   0  0  0  0  0  0  0  0  0  0  0  0
    5.3924    1.2987   17.8158 C   0  0  0  0  0  0  0  0  0  0  0  0
    6.5498    0.6726   17.5553 N   0  0  0  0  0  0  0  0  0  0  0  0
    7.1556    0.0485   18.5743 C   0  0  0  0  0  0  0  0  0  0  0  0
    8.1015   -0.4331   18.3182 H   0  0  0  0  0  0  0  0  0  0  0  0
    4.9270    1.8142   16.9747 H   0  0  0  0  0  0  0  0  0  0  0  0
    3.8672    1.8471   19.2291 H   0  0  0  0  0  0  0  0  0  0  0  0
    5.0310    0.6467   21.1454 H   0  0  0  0  0  0  0  0  0  0  0  0
    8.2588   -1.2315   20.6637 H   0  0  0  0  0  0  0  0  0  0  0  0
    6.7331   -1.4180   21.5428 H   0  0  0  0  0  0  0  0  0  0  0  0
    9.7374    2.3824   20.7588 H   0  0  0  0  0  0  0  0  0  0  0  0
    9.5367    0.7502   20.1275 H   0  0  0  0  0  0  0  0  0  0  0  0
   12.0408    3.0711   21.9186 H   0  0  0  0  0  0  0  0  0  0  0  0
   14.0330    1.6942   22.8046 H   0  0  0  0  0  0  0  0  0  0  0  0
   10.6993   -1.5682   20.6693 H   0  0  0  0  0  0  0  0  0  0  0  0
   10.4257   -1.7187   22.3926 H   0  0  0  0  0  0  0  0  0  0  0  0
   11.9437   -2.3367   21.7112 H   0  0  0  0  0  0  0  0  0  0  0  0
  1  2  1  0
  2  3  2  0
  3  4  1  0
  4  5  1  0
  5  6  2  0
  6  7  1  0
  7  8  1  0
  8  9  2  0
  9 10  1  0
 10 11  1  0
 11 12  2  0
 12 13  1  0
 13 14  2  0
 14 15  1  0
 15 16  1  0
 15 17  1  0
 14 18  1  0
 18 19  2  0
 19 20  1  0
 18 21  1  0
 13 22  1  0
 12 23  1  0
 10 24  2  0
 24 25  1  0
 25 26  1  0
 26 27  1  0
 27 28  2  0
 28 29  1  0
 29 30  2  0
 30 31  1  0
 31 32  2  0
 32 33  1  0
 30 34  1  0
 29 35  1  0
 28 36  1  0
 26 37  1  0
 26 38  1  0
  7 39  1  0
  7 40  1  0
  5 41  1  0
  4 42  1  0
  1 43  1  0
  1 44  1  0
  1 45  1  0
  6  2  1  0
 25  8  1  0
 32 27  1  0
 19 11  1  0
M  END
>  <cnnaffinity>  (1) 
-6.09261

>  <filename>  (1) 
Cc1n[nH]cc1Cc1nc(-c2ccc(N)cc2)nn1Cc1cccnc1

$$$$
