
     RDKit          3D

 46 49  0  0  0  0  0  0  0  0999 V2000
   12.1042    2.4196   24.2366 C   0  0  0  0  0  0  0  0  0  0  0  0
   10.9245    2.1828   23.3595 C   0  0  0  0  0  0  0  0  0  0  0  0
   10.9959    1.2527   22.4269 N   0  0  0  0  0  0  0  0  0  0  0  0
    9.8119    1.2771   21.7933 N   0  0  0  0  0  0  0  0  0  0  0  0
    9.5709    0.2290   20.8108 C   0  0  0  0  0  0  0  0  0  0  0  0
    8.5289   -0.7163   21.2911 C   0  0  0  0  0  0  0  0  0  0  0  0
    8.7383   -1.5371   22.2892 N   0  0  0  0  0  0  0  0  0  0  0  0
    7.5247   -2.1180   22.4846 C   0  0  0  0  0  0  0  0  0  0  0  0
    7.3010   -3.1098   23.5556 C   0  0  0  0  0  0  0  0  0  0  0  0
    6.0449   -3.7217   23.7500 C   0  0  0  0  0  0  0  0  0  0  0  0
    5.8731   -4.6798   24.7470 C   0  0  0  0  0  0  0  0  0  0  0  0
    6.9602   -5.0134   25.5546 C   0  0  0  0  0  0  0  0  0  0  0  0
    6.7985   -5.9419   26.5076 F   0  0  0  0  0  0  0  0  0  0  0  0
    8.2088   -4.4174   25.4006 C   0  0  0  0  0  0  0  0  0  0  0  0
    8.3730   -3.4667   24.3988 C   0  0  0  0  0  0  0  0  0  0  0  0
    9.3438   -2.9932   24.2608 H   0  0  0  0  0  0  0  0  0  0  0  0
    9.0285   -4.7036   26.0534 H   0  0  0  0  0  0  0  0  0  0  0  0
    4.9201   -5.1728   24.9080 H   0  0  0  0  0  0  0  0  0  0  0  0
    5.1980   -3.4484   23.1207 H   0  0  0  0  0  0  0  0  0  0  0  0
    6.5867   -1.7126   21.6443 N   0  0  0  0  0  0  0  0  0  0  0  0
    7.2430   -0.8265   20.8558 N   0  0  0  0  0  0  0  0  0  0  0  0
    6.5604   -0.1321   19.8283 C   0  0  0  0  0  0  0  0  0  0  0  0
    5.3664    0.5454   20.0953 C   0  0  0  0  0  0  0  0  0  0  0  0
    4.8013    1.3062   19.0698 C   0  0  0  0  0  0  0  0  0  0  0  0
    5.4204    1.3221   17.8150 C   0  0  0  0  0  0  0  0  0  0  0  0
    6.5345    0.6261   17.5377 N   0  0  0  0  0  0  0  0  0  0  0  0
    7.0836   -0.0895   18.5271 C   0  0  0  0  0  0  0  0  0  0  0  0
    7.9711   -0.6706   18.2759 H   0  0  0  0  0  0  0  0  0  0  0  0
    4.9934    1.9001   16.9975 H   0  0  0  0  0  0  0  0  0  0  0  0
    3.8925    1.8756   19.2357 H   0  0  0  0  0  0  0  0  0  0  0  0
    4.9142    0.4647   21.0849 H   0  0  0  0  0  0  0  0  0  0  0  0
    9.3597    0.6706   19.8389 H   0  0  0  0  0  0  0  0  0  0  0  0
   10.5018   -0.3335   20.7438 H   0  0  0  0  0  0  0  0  0  0  0  0
    8.9872    2.2423   22.3025 C   0  0  0  0  0  0  0  0  0  0  0  0
    7.6111    2.5706   21.8003 C   0  0  0  0  0  0  0  0  0  0  0  0
    7.3934    3.6239   22.0049 H   0  0  0  0  0  0  0  0  0  0  0  0
    7.4912    2.3908   20.7292 H   0  0  0  0  0  0  0  0  0  0  0  0
    6.8383    1.9947   22.3228 H   0  0  0  0  0  0  0  0  0  0  0  0
    9.6822    2.8540   23.3357 C   0  0  0  0  0  0  0  0  0  0  0  0
    9.2589    4.0068   24.2105 C   0  0  0  0  0  0  0  0  0  0  0  0
    9.9563    4.1411   25.0467 H   0  0  0  0  0  0  0  0  0  0  0  0
    8.2525    3.8728   24.6313 H   0  0  0  0  0  0  0  0  0  0  0  0
    9.2417    4.9495   23.6475 H   0  0  0  0  0  0  0  0  0  0  0  0
   12.4483    3.4520   24.1408 H   0  0  0  0  0  0  0  0  0  0  0  0
   11.8746    2.2295   25.2871 H   0  0  0  0  0  0  0  0  0  0  0  0
   12.9166    1.7596   23.9306 H   0  0  0  0  0  0  0  0  0  0  0  0
  1  2  1  0
  2  3  2  0
  3  4  1  0
  4  5  1  0
  5  6  1  0
  6  7  2  0
  7  8  1  0
  8  9  1  0
  9 10  2  0
 10 11  1  0
 11 12  2  0
 12 13  1  0
 12 14  1  0
 14 15  2  0
 15 16  1  0
 14 17  1  0
 11 18  1  0
 10 19  1  0
  8 20  2  0
 20 21  1  0
 21 22  1  0
 22 23  2  0
 23 24  1  0
 24 25  2  0
 25 26  1  0
 26 27  2  0
 27 28  1  0
 25 29  1  0
 24 30  1  0
 23 31  1  0
  5 32  1  0
  5 33  1  0
  4 34  1  0
 34 35  1  0
 35 36  1  0
 35 37  1  0
 35 38  1  0
 34 39  2  0
 39 40  1  0
 40 41  1  0
 40 42  1  0
 40 43  1  0
  1 44  1  0
  1 45  1  0
  1 46  1  0
 39  2  1  0
 21  6  1  0
 27 22  1  0
 15  9  1  0
M  END
>  <cnnaffinity>  (1) 
-6.11376

>  <filename>  (1) 
Cc1nn(Cc2nc(-c3ccc(F)cc3)nn2-c2cccnc2)c(C)c1C

$$$$
