
     RDKit          3D

 52 55  0  0  0  0  0  0  0  0999 V2000
    6.8342    1.7299   23.7845 C   0  0  0  0  0  0  0  0  0  0  0  0
    8.2945    1.7223   24.0892 C   0  0  0  0  0  0  0  0  0  0  0  0
    8.8041    1.5723   25.2895 N   0  0  0  0  0  0  0  0  0  0  0  0
   10.1664    1.6054   25.1249 C   0  0  0  0  0  0  0  0  0  0  0  0
   10.4839    1.7808   23.8103 C   0  0  0  0  0  0  0  0  0  0  0  0
    9.2754    1.8852   23.1403 N   0  0  0  0  0  0  0  0  0  0  0  0
    9.1352    1.9564   21.6891 C   0  0  0  0  0  0  0  0  0  0  0  0
    9.5060    0.6324   20.9886 C   0  0  0  0  0  0  0  0  0  0  0  0
    8.6263   -0.4904   21.4147 C   0  0  0  0  0  0  0  0  0  0  0  0
    8.8501   -1.3062   22.4259 N   0  0  0  0  0  0  0  0  0  0  0  0
    7.6616   -1.9420   22.5731 C   0  0  0  0  0  0  0  0  0  0  0  0
    7.3852   -2.8574   23.7292 C   0  0  0  0  0  0  0  0  0  0  0  0
    6.5837   -4.1042   23.3040 C   0  0  0  0  0  0  0  0  0  0  0  0
    6.2707   -5.0047   24.4995 C   0  0  0  0  0  0  0  0  0  0  0  0
    5.5525   -4.2468   25.6279 C   0  0  0  0  0  0  0  0  0  0  0  0
    5.2584   -5.1606   26.8160 C   0  0  0  0  0  0  0  0  0  0  0  0
    4.7194   -4.6288   27.6077 H   0  0  0  0  0  0  0  0  0  0  0  0
    6.1927   -5.5386   27.2483 H   0  0  0  0  0  0  0  0  0  0  0  0
    4.6584   -6.0273   26.5177 H   0  0  0  0  0  0  0  0  0  0  0  0
    6.3578   -3.0078   26.0544 C   0  0  0  0  0  0  0  0  0  0  0  0
    6.6792   -2.0888   24.8751 C   0  0  0  0  0  0  0  0  0  0  0  0
    7.2947   -1.2395   25.1998 H   0  0  0  0  0  0  0  0  0  0  0  0
    5.7451   -1.6624   24.4855 H   0  0  0  0  0  0  0  0  0  0  0  0
    5.8085   -2.4524   26.8256 H   0  0  0  0  0  0  0  0  0  0  0  0
    7.2935   -3.3381   26.5281 H   0  0  0  0  0  0  0  0  0  0  0  0
    4.5947   -3.8880   25.2212 H   0  0  0  0  0  0  0  0  0  0  0  0
    7.2057   -5.4296   24.8941 H   0  0  0  0  0  0  0  0  0  0  0  0
    5.6634   -5.8586   24.1734 H   0  0  0  0  0  0  0  0  0  0  0  0
    7.1331   -4.6628   22.5373 H   0  0  0  0  0  0  0  0  0  0  0  0
    5.6489   -3.7692   22.8358 H   0  0  0  0  0  0  0  0  0  0  0  0
    8.3671   -3.1741   24.0953 H   0  0  0  0  0  0  0  0  0  0  0  0
    6.7302   -1.5912   21.7025 N   0  0  0  0  0  0  0  0  0  0  0  0
    7.3625   -0.6730   20.9297 N   0  0  0  0  0  0  0  0  0  0  0  0
    6.6557    0.0041   19.8983 C   0  0  0  0  0  0  0  0  0  0  0  0
    5.4384    0.6419   20.1640 C   0  0  0  0  0  0  0  0  0  0  0  0
    4.8118    1.3111   19.1083 C   0  0  0  0  0  0  0  0  0  0  0  0
    5.3997    1.2972   17.8368 C   0  0  0  0  0  0  0  0  0  0  0  0
    6.5573    0.6718   17.5744 N   0  0  0  0  0  0  0  0  0  0  0  0
    7.1653    0.0494   18.5888 C   0  0  0  0  0  0  0  0  0  0  0  0
    8.1121   -0.4358   18.3657 H   0  0  0  0  0  0  0  0  0  0  0  0
    4.9194    1.7870   16.9923 H   0  0  0  0  0  0  0  0  0  0  0  0
    3.8792    1.8399   19.2619 H   0  0  0  0  0  0  0  0  0  0  0  0
    5.0067    0.6079   21.1688 H   0  0  0  0  0  0  0  0  0  0  0  0
    9.4613    0.7601   19.9055 H   0  0  0  0  0  0  0  0  0  0  0  0
   10.5313    0.3559   21.2389 H   0  0  0  0  0  0  0  0  0  0  0  0
    9.7785    2.7640   21.3313 H   0  0  0  0  0  0  0  0  0  0  0  0
    8.1099    2.2406   21.4341 H   0  0  0  0  0  0  0  0  0  0  0  0
   11.4309    1.8189   23.2894 H   0  0  0  0  0  0  0  0  0  0  0  0
   10.8380    1.5114   25.9696 H   0  0  0  0  0  0  0  0  0  0  0  0
    6.2839    1.6622   24.7258 H   0  0  0  0  0  0  0  0  0  0  0  0
    6.5386    2.6526   23.2733 H   0  0  0  0  0  0  0  0  0  0  0  0
    6.5579    0.8780   23.1503 H   0  0  0  0  0  0  0  0  0  0  0  0
  1  2  1  0
  2  3  2  0
  3  4  1  0
  4  5  2  0
  5  6  1  0
  6  7  1  0
  7  8  1  0
  8  9  1  0
  9 10  2  0
 10 11  1  0
 11 12  1  0
 12 13  1  0
 13 14  1  0
 14 15  1  0
 15 16  1  0
 16 17  1  0
 16 18  1  0
 16 19  1  0
 15 20  1  0
 20 21  1  0
 21 22  1  0
 21 23  1  0
 20 24  1  0
 20 25  1  0
 15 26  1  0
 14 27  1  0
 14 28  1  0
 13 29  1  0
 13 30  1  0
 12 31  1  0
 11 32  2  0
 32 33  1  0
 33 34  1  0
 34 35  2  0
 35 36  1  0
 36 37  2  0
 37 38  1  0
 38 39  2  0
 39 40  1  0
 37 41  1  0
 36 42  1  0
 35 43  1  0
  8 44  1  0
  8 45  1  0
  7 46  1  0
  7 47  1  0
  5 48  1  0
  4 49  1  0
  1 50  1  0
  1 51  1  0
  1 52  1  0
  6  2  1  0
 33  9  1  0
 39 34  1  0
 21 12  1  0
M  END
>  <cnnaffinity>  (1) 
-6.15742

>  <filename>  (1) 
Cc1nccn1CCc1nc(C2CCC(C)CC2)nn1-c1cccnc1

$$$$
