
     RDKit          3D

 40 44  0  0  0  0  0  0  0  0999 V2000
   11.3875    2.8529   23.2621 C   0  0  0  0  0  0  0  0  0  0  0  0
   10.0699    2.3519   23.7602 C   0  0  0  0  0  0  0  0  0  0  0  0
    9.0833    2.0668   22.9682 N   0  0  0  0  0  0  0  0  0  0  0  0
    7.9773    1.6427   23.6676 C   0  0  0  0  0  0  0  0  0  0  0  0
    6.8031    1.2197   22.8436 C   0  0  0  0  0  0  0  0  0  0  0  0
    7.0088   -0.1701   22.3384 C   0  0  0  0  0  0  0  0  0  0  0  0
    7.5755   -1.1182   23.0595 N   0  0  0  0  0  0  0  0  0  0  0  0
    7.6152   -2.1797   22.2199 C   0  0  0  0  0  0  0  0  0  0  0  0
    8.4288   -3.3918   22.5140 C   0  0  0  0  0  0  0  0  0  0  0  0
    7.8828   -4.8142   22.3628 C   0  0  0  0  0  0  0  0  0  0  0  0
    8.2948   -4.2794   23.7077 C   0  0  0  0  0  0  0  0  0  0  0  0
    9.2164   -4.6822   24.8075 C   0  0  0  0  0  0  0  0  0  0  0  0
    7.7977   -4.1857   25.1059 C   0  0  0  0  0  0  0  0  0  0  0  0
    7.6655   -3.1811   25.5032 H   0  0  0  0  0  0  0  0  0  0  0  0
    7.0505   -4.9104   25.4182 H   0  0  0  0  0  0  0  0  0  0  0  0
   10.0645   -4.0294   25.0224 H   0  0  0  0  0  0  0  0  0  0  0  0
    9.4257   -5.7443   24.9296 H   0  0  0  0  0  0  0  0  0  0  0  0
    6.8162   -4.9538   22.1780 H   0  0  0  0  0  0  0  0  0  0  0  0
    8.5254   -5.5572   21.8871 H   0  0  0  0  0  0  0  0  0  0  0  0
    9.4731   -3.2212   22.2370 H   0  0  0  0  0  0  0  0  0  0  0  0
    7.1082   -1.9510   21.0179 N   0  0  0  0  0  0  0  0  0  0  0  0
    6.6771   -0.6593   21.1005 N   0  0  0  0  0  0  0  0  0  0  0  0
    6.2056    0.0117   19.9371 C   0  0  0  0  0  0  0  0  0  0  0  0
    5.2684    1.0565   19.9761 C   0  0  0  0  0  0  0  0  0  0  0  0
    4.9773    1.7196   18.7763 C   0  0  0  0  0  0  0  0  0  0  0  0
    5.6042    1.3088   17.5985 C   0  0  0  0  0  0  0  0  0  0  0  0
    6.4627    0.2759   17.5455 N   0  0  0  0  0  0  0  0  0  0  0  0
    6.7303   -0.3654   18.6854 C   0  0  0  0  0  0  0  0  0  0  0  0
    7.4091   -1.2119   18.6331 H   0  0  0  0  0  0  0  0  0  0  0  0
    5.4046    1.8075   16.6535 H   0  0  0  0  0  0  0  0  0  0  0  0
    4.2965    2.5653   18.7477 H   0  0  0  0  0  0  0  0  0  0  0  0
    4.7764    1.3493   20.9038 H   0  0  0  0  0  0  0  0  0  0  0  0
    6.7243    1.9424   22.0254 H   0  0  0  0  0  0  0  0  0  0  0  0
    5.8750    1.2355   23.4227 H   0  0  0  0  0  0  0  0  0  0  0  0
    8.1240    1.5959   25.0159 C   0  0  0  0  0  0  0  0  0  0  0  0
    9.7224    2.0894   25.4478 S   0  0  0  0  0  0  0  0  0  0  0  0
    7.4036    1.2808   25.7570 H   0  0  0  0  0  0  0  0  0  0  0  0
   11.4752    3.9347   23.4048 H   0  0  0  0  0  0  0  0  0  0  0  0
   11.4465    2.6505   22.1919 H   0  0  0  0  0  0  0  0  0  0  0  0
   12.2276    2.3750   23.7702 H   0  0  0  0  0  0  0  0  0  0  0  0
  1  2  1  0
  2  3  2  0
  3  4  1  0
  4  5  1  0
  5  6  1  0
  6  7  2  0
  7  8  1  0
  8  9  1  0
  9 10  1  0
 10 11  1  0
 11 12  1  0
 12 13  1  0
 13 14  1  0
 13 15  1  0
 12 16  1  0
 12 17  1  0
 10 18  1  0
 10 19  1  0
  9 20  1  0
  8 21  2  0
 21 22  1  0
 22 23  1  0
 23 24  2  0
 24 25  1  0
 25 26  2  0
 26 27  1  0
 27 28  2  0
 28 29  1  0
 26 30  1  0
 25 31  1  0
 24 32  1  0
  5 33  1  0
  5 34  1  0
  4 35  2  0
 35 36  1  0
 35 37  1  0
  1 38  1  0
  1 39  1  0
  1 40  1  0
 36  2  1  0
 22  6  1  0
 28 23  1  0
 11  9  1  0
 13 11  1  0
M  END
>  <cnnaffinity>  (1) 
-6.36541

>  <filename>  (1) 
Cc1nc(Cc2nc(C3CC34CC4)nn2-c2cccnc2)cs1

$$$$
