
     RDKit          3D

 47 50  0  0  0  0  0  0  0  0999 V2000
   10.4393    1.7010   23.9478 C   0  0  0  0  0  0  0  0  0  0  0  0
    9.1682    1.7451   24.7406 C   0  0  0  0  0  0  0  0  0  0  0  0
    9.2774    1.8156   26.0706 N   0  0  0  0  0  0  0  0  0  0  0  0
    8.1562    1.6757   26.7705 C   0  0  0  0  0  0  0  0  0  0  0  0
    6.9328    1.5096   26.2744 N   0  0  0  0  0  0  0  0  0  0  0  0
    6.8354    1.4594   24.9433 C   0  0  0  0  0  0  0  0  0  0  0  0
    5.4977    1.1432   24.3461 C   0  0  0  0  0  0  0  0  0  0  0  0
    5.0909    2.0157   23.8234 H   0  0  0  0  0  0  0  0  0  0  0  0
    4.7891    0.8170   25.1061 H   0  0  0  0  0  0  0  0  0  0  0  0
    5.6237    0.3449   23.6047 H   0  0  0  0  0  0  0  0  0  0  0  0
    7.9310    1.6353   24.0916 C   0  0  0  0  0  0  0  0  0  0  0  0
    7.8011    1.4338   22.5792 C   0  0  0  0  0  0  0  0  0  0  0  0
    7.8038   -0.0214   22.1483 C   0  0  0  0  0  0  0  0  0  0  0  0
    8.3725   -1.0012   22.8292 N   0  0  0  0  0  0  0  0  0  0  0  0
    8.1903   -2.0966   22.0522 C   0  0  0  0  0  0  0  0  0  0  0  0
    8.7170   -3.4605   22.4443 C   0  0  0  0  0  0  0  0  0  0  0  0
    8.7591   -3.7756   23.9674 C   0  0  0  0  0  0  0  0  0  0  0  0
    8.6691   -5.3182   24.0998 C   0  0  0  0  0  0  0  0  0  0  0  0
    8.3007   -5.8681   22.7050 C   0  0  0  0  0  0  0  0  0  0  0  0
    7.9421   -4.6541   21.8350 C   0  0  0  0  0  0  0  0  0  0  0  0
    6.8654   -4.4457   21.9027 H   0  0  0  0  0  0  0  0  0  0  0  0
    8.1909   -4.8326   20.7820 H   0  0  0  0  0  0  0  0  0  0  0  0
    7.4872   -6.6004   22.7621 H   0  0  0  0  0  0  0  0  0  0  0  0
    9.1457   -6.4113   22.2729 H   0  0  0  0  0  0  0  0  0  0  0  0
    7.9135   -5.6119   24.8375 H   0  0  0  0  0  0  0  0  0  0  0  0
    9.6113   -5.7536   24.4527 H   0  0  0  0  0  0  0  0  0  0  0  0
    7.9202   -3.2982   24.4883 H   0  0  0  0  0  0  0  0  0  0  0  0
    9.6776   -3.3827   24.4166 H   0  0  0  0  0  0  0  0  0  0  0  0
    9.7551   -3.4419   22.0895 H   0  0  0  0  0  0  0  0  0  0  0  0
    7.5716   -1.8484   20.9080 N   0  0  0  0  0  0  0  0  0  0  0  0
    7.2903   -0.5215   20.9811 N   0  0  0  0  0  0  0  0  0  0  0  0
    6.5727    0.0810   19.9013 C   0  0  0  0  0  0  0  0  0  0  0  0
    5.3562    0.7523   20.0865 C   0  0  0  0  0  0  0  0  0  0  0  0
    4.7712    1.3821   18.9821 C   0  0  0  0  0  0  0  0  0  0  0  0
    5.4135    1.3151   17.7444 C   0  0  0  0  0  0  0  0  0  0  0  0
    6.5405    0.6080   17.5438 N   0  0  0  0  0  0  0  0  0  0  0  0
    7.0820   -0.0194   18.5926 C   0  0  0  0  0  0  0  0  0  0  0  0
    7.9671   -0.6189   18.3866 H   0  0  0  0  0  0  0  0  0  0  0  0
    5.0054    1.8299   16.8769 H   0  0  0  0  0  0  0  0  0  0  0  0
    3.8355    1.9219   19.0752 H   0  0  0  0  0  0  0  0  0  0  0  0
    4.8589    0.7622   21.0558 H   0  0  0  0  0  0  0  0  0  0  0  0
    6.8835    1.9024   22.2070 H   0  0  0  0  0  0  0  0  0  0  0  0
    8.6199    1.9315   22.0466 H   0  0  0  0  0  0  0  0  0  0  0  0
    8.2485    1.6608   27.8581 H   0  0  0  0  0  0  0  0  0  0  0  0
   10.4504    0.7780   23.3547 H   0  0  0  0  0  0  0  0  0  0  0  0
   11.3065    1.7062   24.6093 H   0  0  0  0  0  0  0  0  0  0  0  0
   10.5164    2.5445   23.2533 H   0  0  0  0  0  0  0  0  0  0  0  0
  1  2  1  0
  2  3  2  0
  3  4  1  0
  4  5  2  0
  5  6  1  0
  6  7  1  0
  7  8  1  0
  7  9  1  0
  7 10  1  0
  6 11  2  0
 11 12  1  0
 12 13  1  0
 13 14  2  0
 14 15  1  0
 15 16  1  0
 16 17  1  0
 17 18  1  0
 18 19  1  0
 19 20  1  0
 20 21  1  0
 20 22  1  0
 19 23  1  0
 19 24  1  0
 18 25  1  0
 18 26  1  0
 17 27  1  0
 17 28  1  0
 16 29  1  0
 15 30  2  0
 30 31  1  0
 31 32  1  0
 32 33  2  0
 33 34  1  0
 34 35  2  0
 35 36  1  0
 36 37  2  0
 37 38  1  0
 35 39  1  0
 34 40  1  0
 33 41  1  0
 12 42  1  0
 12 43  1  0
  4 44  1  0
  1 45  1  0
  1 46  1  0
  1 47  1  0
 11  2  1  0
 31 13  1  0
 37 32  1  0
 20 16  1  0
M  END
>  <cnnaffinity>  (1) 
-6.60755

>  <filename>  (1) 
Cc1ncnc(C)c1Cc1nc(C2CCCC2)nn1-c1cccnc1

$$$$
