
     RDKit          3D

 30 32  0  0  0  0  0  0  0  0999 V2000
    8.6876   -3.5486   22.1297 C   0  0  0  0  0  0  0  0  0  0  0  0
    8.1415   -2.1814   21.9367 C   0  0  0  0  0  0  0  0  0  0  0  0
    7.8000   -1.7694   20.7361 N   0  0  0  0  0  0  0  0  0  0  0  0
    7.3098   -0.5327   20.9629 N   0  0  0  0  0  0  0  0  0  0  0  0
    6.6127    0.1034   19.9115 C   0  0  0  0  0  0  0  0  0  0  0  0
    5.3867    0.7339   20.1249 C   0  0  0  0  0  0  0  0  0  0  0  0
    4.7841    1.3477   19.0241 C   0  0  0  0  0  0  0  0  0  0  0  0
    5.4226    1.3016   17.7811 C   0  0  0  0  0  0  0  0  0  0  0  0
    6.5747    0.6412   17.5667 N   0  0  0  0  0  0  0  0  0  0  0  0
    7.1392    0.0318   18.6120 C   0  0  0  0  0  0  0  0  0  0  0  0
    8.0419   -0.5512   18.4340 H   0  0  0  0  0  0  0  0  0  0  0  0
    5.0038    1.8140   16.9185 H   0  0  0  0  0  0  0  0  0  0  0  0
    3.8311    1.8489   19.1203 H   0  0  0  0  0  0  0  0  0  0  0  0
    4.9197    0.7129   21.1110 H   0  0  0  0  0  0  0  0  0  0  0  0
    7.4221   -0.2451   22.2993 C   0  0  0  0  0  0  0  0  0  0  0  0
    7.1065    1.0625   22.9165 C   0  0  0  0  0  0  0  0  0  0  0  0
    6.4368    1.1059   24.1511 C   0  0  0  0  0  0  0  0  0  0  0  0
    6.0701    2.3242   24.7216 C   0  0  0  0  0  0  0  0  0  0  0  0
    6.3887    3.5297   24.0916 C   0  0  0  0  0  0  0  0  0  0  0  0
    7.0991    3.5080   22.8899 C   0  0  0  0  0  0  0  0  0  0  0  0
    7.5143    4.9888   22.0944 Cl  0  0  0  0  0  0  0  0  0  0  0  0
    7.4674    2.2840   22.3157 C   0  0  0  0  0  0  0  0  0  0  0  0
    8.1670    2.2797   21.1776 F   0  0  0  0  0  0  0  0  0  0  0  0
    6.1003    4.4878   24.5242 H   0  0  0  0  0  0  0  0  0  0  0  0
    5.5223    2.3400   25.6566 H   0  0  0  0  0  0  0  0  0  0  0  0
    6.1908    0.1733   24.6527 H   0  0  0  0  0  0  0  0  0  0  0  0
    7.9010   -1.2958   22.9376 N   0  0  0  0  0  0  0  0  0  0  0  0
    8.7849   -4.0058   21.1449 H   0  0  0  0  0  0  0  0  0  0  0  0
    8.0171   -4.1593   22.7404 H   0  0  0  0  0  0  0  0  0  0  0  0
    9.6563   -3.4884   22.6291 H   0  0  0  0  0  0  0  0  0  0  0  0
  1  2  1  0
  2  3  2  0
  3  4  1  0
  4  5  1  0
  5  6  2  0
  6  7  1  0
  7  8  2  0
  8  9  1  0
  9 10  2  0
 10 11  1  0
  8 12  1  0
  7 13  1  0
  6 14  1  0
  4 15  1  0
 15 16  1  0
 16 17  2  0
 17 18  1  0
 18 19  2  0
 19 20  1  0
 20 21  1  0
 20 22  2  0
 22 23  1  0
 19 24  1  0
 18 25  1  0
 17 26  1  0
 15 27  2  0
  1 28  1  0
  1 29  1  0
  1 30  1  0
 27  2  1  0
 10  5  1  0
 22 16  1  0
M  END
>  <cnnaffinity>  (1) 
-5.23397

>  <filename>  (1) 
Cc1nc(-c2cccc(Cl)c2F)n(-c2cccnc2)n1

$$$$
