
     RDKit          3D

 45 48  0  0  0  0  0  0  0  0999 V2000
    9.7948    6.2811   24.5650 C   0  0  0  0  0  0  0  0  0  0  0  0
    8.9577    5.5307   23.5735 C   0  0  0  0  0  0  0  0  0  0  0  0
    9.2856    4.3467   23.1657 N   0  0  0  0  0  0  0  0  0  0  0  0
    8.3473    3.8286   22.2936 C   0  0  0  0  0  0  0  0  0  0  0  0
    8.4692    2.4077   21.8132 C   0  0  0  0  0  0  0  0  0  0  0  0
    7.6099    1.4171   22.6504 C   0  0  0  0  0  0  0  0  0  0  0  0
    7.6724   -0.0139   22.2216 C   0  0  0  0  0  0  0  0  0  0  0  0
    8.1354   -0.9978   22.9661 N   0  0  0  0  0  0  0  0  0  0  0  0
    8.0767   -2.0772   22.1412 C   0  0  0  0  0  0  0  0  0  0  0  0
    8.5347   -3.4568   22.5468 C   0  0  0  0  0  0  0  0  0  0  0  0
    8.6475   -3.7236   24.0648 C   0  0  0  0  0  0  0  0  0  0  0  0
    8.4917   -5.2525   24.2497 C   0  0  0  0  0  0  0  0  0  0  0  0
    8.0416   -5.8278   22.8855 C   0  0  0  0  0  0  0  0  0  0  0  0
    7.6677   -4.6200   22.0155 C   0  0  0  0  0  0  0  0  0  0  0  0
    7.8124   -4.8016   20.9459 H   0  0  0  0  0  0  0  0  0  0  0  0
    6.6097   -4.3730   22.1324 H   0  0  0  0  0  0  0  0  0  0  0  0
    8.8446   -6.3941   22.4027 H   0  0  0  0  0  0  0  0  0  0  0  0
    7.2123   -6.5342   23.0064 H   0  0  0  0  0  0  0  0  0  0  0  0
    9.4283   -5.7204   24.5746 H   0  0  0  0  0  0  0  0  0  0  0  0
    7.7531   -5.4673   25.0304 H   0  0  0  0  0  0  0  0  0  0  0  0
    7.8727   -3.1792   24.6111 H   0  0  0  0  0  0  0  0  0  0  0  0
    9.5987   -3.3493   24.4536 H   0  0  0  0  0  0  0  0  0  0  0  0
    9.5434   -3.5398   22.1334 H   0  0  0  0  0  0  0  0  0  0  0  0
    7.6217   -1.8131   20.9261 N   0  0  0  0  0  0  0  0  0  0  0  0
    7.3204   -0.4901   20.9919 N   0  0  0  0  0  0  0  0  0  0  0  0
    6.6454    0.1346   19.9022 C   0  0  0  0  0  0  0  0  0  0  0  0
    5.4505    0.8372   20.0921 C   0  0  0  0  0  0  0  0  0  0  0  0
    4.8515    1.4319   18.9792 C   0  0  0  0  0  0  0  0  0  0  0  0
    5.4725    1.3132   17.7313 C   0  0  0  0  0  0  0  0  0  0  0  0
    6.6035    0.6119   17.5369 N   0  0  0  0  0  0  0  0  0  0  0  0
    7.1630    0.0183   18.5971 C   0  0  0  0  0  0  0  0  0  0  0  0
    8.0602   -0.5664   18.4059 H   0  0  0  0  0  0  0  0  0  0  0  0
    5.0409    1.7832   16.8506 H   0  0  0  0  0  0  0  0  0  0  0  0
    3.9247    1.9900   19.0771 H   0  0  0  0  0  0  0  0  0  0  0  0
    4.9966    0.8904   21.0858 H   0  0  0  0  0  0  0  0  0  0  0  0
    6.5621    1.7376   22.6497 H   0  0  0  0  0  0  0  0  0  0  0  0
    7.9329    1.4422   23.6959 H   0  0  0  0  0  0  0  0  0  0  0  0
    9.5233    2.1267   21.8919 H   0  0  0  0  0  0  0  0  0  0  0  0
    8.1907    2.3480   20.7528 H   0  0  0  0  0  0  0  0  0  0  0  0
    7.3023    4.6539   22.0376 C   0  0  0  0  0  0  0  0  0  0  0  0
    7.4565    6.1259   22.9180 S   0  0  0  0  0  0  0  0  0  0  0  0
    6.4528    4.4653   21.3983 H   0  0  0  0  0  0  0  0  0  0  0  0
    9.3228    6.2808   25.5529 H   0  0  0  0  0  0  0  0  0  0  0  0
   10.7555    5.7688   24.6432 H   0  0  0  0  0  0  0  0  0  0  0  0
    9.9657    7.3216   24.2817 H   0  0  0  0  0  0  0  0  0  0  0  0
  1  2  1  0
  2  3  2  0
  3  4  1  0
  4  5  1  0
  5  6  1  0
  6  7  1  0
  7  8  2  0
  8  9  1  0
  9 10  1  0
 10 11  1  0
 11 12  1  0
 12 13  1  0
 13 14  1  0
 14 15  1  0
 14 16  1  0
 13 17  1  0
 13 18  1  0
 12 19  1  0
 12 20  1  0
 11 21  1  0
 11 22  1  0
 10 23  1  0
  9 24  2  0
 24 25  1  0
 25 26  1  0
 26 27  2  0
 27 28  1  0
 28 29  2  0
 29 30  1  0
 30 31  2  0
 31 32  1  0
 29 33  1  0
 28 34  1  0
 27 35  1  0
  6 36  1  0
  6 37  1  0
  5 38  1  0
  5 39  1  0
  4 40  2  0
 40 41  1  0
 40 42  1  0
  1 43  1  0
  1 44  1  0
  1 45  1  0
 41  2  1  0
 25  7  1  0
 31 26  1  0
 14 10  1  0
M  END
>  <cnnaffinity>  (1) 
-6.10955

>  <filename>  (1) 
Cc1nc(CCc2nc(C3CCCC3)nn2-c2cccnc2)cs1

$$$$
