
     RDKit          3D

 52 55  0  0  0  0  0  0  0  0999 V2000
    7.7944    2.9106   21.8271 C   0  0  0  0  0  0  0  0  0  0  0  0
    9.1038    2.5242   22.4361 C   0  0  0  0  0  0  0  0  0  0  0  0
    9.6026    3.0939   23.5270 N   0  0  0  0  0  0  0  0  0  0  0  0
   10.7244    2.3904   23.7833 N   0  0  0  0  0  0  0  0  0  0  0  0
   10.9508    1.3823   22.9052 C   0  0  0  0  0  0  0  0  0  0  0  0
   12.0317    0.3552   23.0197 C   0  0  0  0  0  0  0  0  0  0  0  0
   11.5871   -0.6271   23.2225 H   0  0  0  0  0  0  0  0  0  0  0  0
   12.5811    0.2602   22.0769 H   0  0  0  0  0  0  0  0  0  0  0  0
   12.7491    0.5805   23.8121 H   0  0  0  0  0  0  0  0  0  0  0  0
    9.9258    1.4577   21.9889 C   0  0  0  0  0  0  0  0  0  0  0  0
    9.6173    0.4350   20.9177 C   0  0  0  0  0  0  0  0  0  0  0  0
    8.6181   -0.5860   21.3624 C   0  0  0  0  0  0  0  0  0  0  0  0
    8.8497   -1.4601   22.3206 N   0  0  0  0  0  0  0  0  0  0  0  0
    7.6382   -2.0542   22.4973 C   0  0  0  0  0  0  0  0  0  0  0  0
    7.4116   -3.0603   23.5805 C   0  0  0  0  0  0  0  0  0  0  0  0
    8.4055   -4.2430   23.4657 C   0  0  0  0  0  0  0  0  0  0  0  0
    8.1759   -5.2694   24.5853 C   0  0  0  0  0  0  0  0  0  0  0  0
    8.2529   -4.6372   25.9892 C   0  0  0  0  0  0  0  0  0  0  0  0
    7.9992   -5.6761   27.0883 C   0  0  0  0  0  0  0  0  0  0  0  0
    8.7090   -6.5082   27.0259 H   0  0  0  0  0  0  0  0  0  0  0  0
    8.0853   -5.2365   28.0887 H   0  0  0  0  0  0  0  0  0  0  0  0
    6.9898   -6.1003   27.0005 H   0  0  0  0  0  0  0  0  0  0  0  0
    7.2783   -3.4483   26.0977 C   0  0  0  0  0  0  0  0  0  0  0  0
    7.4963   -2.4060   24.9888 C   0  0  0  0  0  0  0  0  0  0  0  0
    6.7586   -1.5964   25.0797 H   0  0  0  0  0  0  0  0  0  0  0  0
    8.4853   -1.9318   25.1009 H   0  0  0  0  0  0  0  0  0  0  0  0
    6.2440   -3.8295   26.0401 H   0  0  0  0  0  0  0  0  0  0  0  0
    7.3760   -2.9780   27.0864 H   0  0  0  0  0  0  0  0  0  0  0  0
    9.2746   -4.2348   26.1112 H   0  0  0  0  0  0  0  0  0  0  0  0
    8.9062   -6.0866   24.5062 H   0  0  0  0  0  0  0  0  0  0  0  0
    7.1810   -5.7296   24.4573 H   0  0  0  0  0  0  0  0  0  0  0  0
    9.4330   -3.8478   23.5130 H   0  0  0  0  0  0  0  0  0  0  0  0
    8.3105   -4.7205   22.4816 H   0  0  0  0  0  0  0  0  0  0  0  0
    6.3864   -3.4260   23.4259 H   0  0  0  0  0  0  0  0  0  0  0  0
    6.6906   -1.6300   21.6884 N   0  0  0  0  0  0  0  0  0  0  0  0
    7.3311   -0.7009   20.9276 N   0  0  0  0  0  0  0  0  0  0  0  0
    6.6437   -0.0153   19.8872 C   0  0  0  0  0  0  0  0  0  0  0  0
    5.4340    0.6333   20.1519 C   0  0  0  0  0  0  0  0  0  0  0  0
    4.8046    1.3129   19.1019 C   0  0  0  0  0  0  0  0  0  0  0  0
    5.3950    1.3008   17.8324 C   0  0  0  0  0  0  0  0  0  0  0  0
    6.5446    0.6620   17.5658 N   0  0  0  0  0  0  0  0  0  0  0  0
    7.1530    0.0322   18.5786 C   0  0  0  0  0  0  0  0  0  0  0  0
    8.0992   -0.4506   18.3429 H   0  0  0  0  0  0  0  0  0  0  0  0
    4.9325    1.8160   16.9928 H   0  0  0  0  0  0  0  0  0  0  0  0
    3.8717    1.8488   19.2514 H   0  0  0  0  0  0  0  0  0  0  0  0
    5.0151    0.5887   21.1593 H   0  0  0  0  0  0  0  0  0  0  0  0
   10.5203   -0.1313   20.6696 H   0  0  0  0  0  0  0  0  0  0  0  0
    9.2590    0.9020   19.9982 H   0  0  0  0  0  0  0  0  0  0  0  0
   11.2699    2.6160   24.6007 H   0  0  0  0  0  0  0  0  0  0  0  0
    7.5567    3.9681   21.9617 H   0  0  0  0  0  0  0  0  0  0  0  0
    6.9764    2.3144   22.2539 H   0  0  0  0  0  0  0  0  0  0  0  0
    7.8444    2.6620   20.7645 H   0  0  0  0  0  0  0  0  0  0  0  0
  1  2  1  0
  2  3  2  0
  3  4  1  0
  4  5  1  0
  5  6  1  0
  6  7  1  0
  6  8  1  0
  6  9  1  0
  5 10  2  0
 10 11  1  0
 11 12  1  0
 12 13  2  0
 13 14  1  0
 14 15  1  0
 15 16  1  0
 16 17  1  0
 17 18  1  0
 18 19  1  0
 19 20  1  0
 19 21  1  0
 19 22  1  0
 18 23  1  0
 23 24  1  0
 24 25  1  0
 24 26  1  0
 23 27  1  0
 23 28  1  0
 18 29  1  0
 17 30  1  0
 17 31  1  0
 16 32  1  0
 16 33  1  0
 15 34  1  0
 14 35  2  0
 35 36  1  0
 36 37  1  0
 37 38  2  0
 38 39  1  0
 39 40  2  0
 40 41  1  0
 41 42  2  0
 42 43  1  0
 40 44  1  0
 39 45  1  0
 38 46  1  0
 11 47  1  0
 11 48  1  0
  4 49  1  0
  1 50  1  0
  1 51  1  0
  1 52  1  0
 10  2  1  0
 36 12  1  0
 42 37  1  0
 24 15  1  0
M  END
>  <cnnaffinity>  (1) 
-6.54804

>  <filename>  (1) 
Cc1n[nH]c(C)c1Cc1nc(C2CCC(C)CC2)nn1-c1cccnc1

$$$$
