
     RDKit          3D

 45 48  0  0  0  0  0  0  0  0999 V2000
    8.4090   -0.3380   27.0768 C   0  0  0  0  0  0  0  0  0  0  0  0
    7.6136    0.1560   25.9273 C   0  0  0  0  0  0  0  0  0  0  0  0
    6.3585   -0.0290   25.6758 N   0  0  0  0  0  0  0  0  0  0  0  0
    6.1592    0.6073   24.4567 C   0  0  0  0  0  0  0  0  0  0  0  0
    7.3232    1.1481   24.0271 C   0  0  0  0  0  0  0  0  0  0  0  0
    7.8354    1.8255   22.7952 C   0  0  0  0  0  0  0  0  0  0  0  0
    8.8606    0.9535   22.1259 C   0  0  0  0  0  0  0  0  0  0  0  0
   10.1645    1.0402   22.2791 N   0  0  0  0  0  0  0  0  0  0  0  0
   10.6310   -0.1225   21.7449 C   0  0  0  0  0  0  0  0  0  0  0  0
   12.0812   -0.4777   21.6429 C   0  0  0  0  0  0  0  0  0  0  0  0
   12.4707   -1.6208   20.9156 C   0  0  0  0  0  0  0  0  0  0  0  0
   13.7710   -1.7955   20.3977 C   0  0  0  0  0  0  0  0  0  0  0  0
   14.7147   -0.7747   20.5607 C   0  0  0  0  0  0  0  0  0  0  0  0
   16.0182   -0.2824   19.6536 C   0  0  0  0  0  0  0  0  0  0  0  0
   15.9261    0.1193   18.6297 H   0  0  0  0  0  0  0  0  0  0  0  0
   16.8297   -1.0067   19.6551 H   0  0  0  0  0  0  0  0  0  0  0  0
   16.3399    0.6190   20.1501 H   0  0  0  0  0  0  0  0  0  0  0  0
   14.3974    0.1046   21.6677 C   0  0  0  0  0  0  0  0  0  0  0  0
   15.3280    0.9423   22.1569 F   0  0  0  0  0  0  0  0  0  0  0  0
   13.1189    0.3219   22.1684 C   0  0  0  0  0  0  0  0  0  0  0  0
   12.9907    1.1580   22.8579 H   0  0  0  0  0  0  0  0  0  0  0  0
   14.0167   -2.7309   19.8959 H   0  0  0  0  0  0  0  0  0  0  0  0
   11.6854   -2.3264   20.7257 H   0  0  0  0  0  0  0  0  0  0  0  0
    9.6686   -0.8915   21.2454 N   0  0  0  0  0  0  0  0  0  0  0  0
    8.5379   -0.1894   21.4815 N   0  0  0  0  0  0  0  0  0  0  0  0
    7.2488   -0.7255   21.0411 C   0  0  0  0  0  0  0  0  0  0  0  0
    6.5587    0.0438   19.9287 C   0  0  0  0  0  0  0  0  0  0  0  0
    5.3326    0.6956   20.1053 C   0  0  0  0  0  0  0  0  0  0  0  0
    4.7485    1.3591   19.0228 C   0  0  0  0  0  0  0  0  0  0  0  0
    5.4113    1.3402   17.7926 C   0  0  0  0  0  0  0  0  0  0  0  0
    6.5799    0.7099   17.5952 N   0  0  0  0  0  0  0  0  0  0  0  0
    7.1307    0.0872   18.6446 C   0  0  0  0  0  0  0  0  0  0  0  0
    8.0740   -0.4219   18.4509 H   0  0  0  0  0  0  0  0  0  0  0  0
    4.9821    1.8435   16.9271 H   0  0  0  0  0  0  0  0  0  0  0  0
    3.8081    1.8908   19.1182 H   0  0  0  0  0  0  0  0  0  0  0  0
    4.8337    0.6831   21.0768 H   0  0  0  0  0  0  0  0  0  0  0  0
    7.4727   -1.7428   20.7087 H   0  0  0  0  0  0  0  0  0  0  0  0
    6.5840   -0.8105   21.9076 H   0  0  0  0  0  0  0  0  0  0  0  0
    8.3246    2.7667   23.0587 H   0  0  0  0  0  0  0  0  0  0  0  0
    6.9992    2.0420   22.1255 H   0  0  0  0  0  0  0  0  0  0  0  0
    8.2624    0.8642   24.9766 O   0  0  0  0  0  0  0  0  0  0  0  0
    5.1928    0.6109   23.9721 H   0  0  0  0  0  0  0  0  0  0  0  0
    9.3156    0.2540   27.1971 H   0  0  0  0  0  0  0  0  0  0  0  0
    8.6930   -1.3824   26.9142 H   0  0  0  0  0  0  0  0  0  0  0  0
    7.8039   -0.2929   27.9819 H   0  0  0  0  0  0  0  0  0  0  0  0
  1  2  1  0
  2  3  2  0
  3  4  1  0
  4  5  2  0
  5  6  1  0
  6  7  1  0
  7  8  2  0
  8  9  1  0
  9 10  1  0
 10 11  2  0
 11 12  1  0
 12 13  2  0
 13 14  1  0
 14 15  1  0
 14 16  1  0
 14 17  1  0
 13 18  1  0
 18 19  1  0
 18 20  2  0
 20 21  1  0
 12 22  1  0
 11 23  1  0
  9 24  2  0
 24 25  1  0
 25 26  1  0
 26 27  1  0
 27 28  2  0
 28 29  1  0
 29 30  2  0
 30 31  1  0
 31 32  2  0
 32 33  1  0
 30 34  1  0
 29 35  1  0
 28 36  1  0
 26 37  1  0
 26 38  1  0
  6 39  1  0
  6 40  1  0
  5 41  1  0
  4 42  1  0
  1 43  1  0
  1 44  1  0
  1 45  1  0
 41  2  1  0
 25  7  1  0
 32 27  1  0
 20 10  1  0
M  END
>  <cnnaffinity>  (1) 
-6.71018

>  <filename>  (1) 
Cc1ncc(Cc2nc(-c3ccc(C)c(F)c3)nn2Cc2cccnc2)o1

$$$$
