
     RDKit          3D

 49 52  0  0  0  0  0  0  0  0999 V2000
    8.2358    4.2506   24.2526 C   0  0  0  0  0  0  0  0  0  0  0  0
    8.4821    3.3864   23.0718 C   0  0  0  0  0  0  0  0  0  0  0  0
    9.2521    2.3294   23.0593 N   0  0  0  0  0  0  0  0  0  0  0  0
    9.1501    1.8123   21.8005 C   0  0  0  0  0  0  0  0  0  0  0  0
    9.7552    0.5116   21.4351 C   0  0  0  0  0  0  0  0  0  0  0  0
    8.7663   -0.5735   21.6765 C   0  0  0  0  0  0  0  0  0  0  0  0
    8.8901   -1.4400   22.6521 N   0  0  0  0  0  0  0  0  0  0  0  0
    7.7116   -2.1129   22.6318 C   0  0  0  0  0  0  0  0  0  0  0  0
    7.3799   -3.1327   23.6816 C   0  0  0  0  0  0  0  0  0  0  0  0
    6.9129   -4.4880   23.1044 C   0  0  0  0  0  0  0  0  0  0  0  0
    6.6705   -5.4940   24.2374 C   0  0  0  0  0  0  0  0  0  0  0  0
    5.6757   -4.9800   25.2939 C   0  0  0  0  0  0  0  0  0  0  0  0
    5.4581   -6.0065   26.4100 C   0  0  0  0  0  0  0  0  0  0  0  0
    6.3893   -6.1872   26.9633 H   0  0  0  0  0  0  0  0  0  0  0  0
    5.1209   -6.9688   26.0071 H   0  0  0  0  0  0  0  0  0  0  0  0
    4.7064   -5.6613   27.1296 H   0  0  0  0  0  0  0  0  0  0  0  0
    6.1437   -3.6215   25.8462 C   0  0  0  0  0  0  0  0  0  0  0  0
    6.3671   -2.5928   24.7300 C   0  0  0  0  0  0  0  0  0  0  0  0
    5.4097   -2.3648   24.2371 H   0  0  0  0  0  0  0  0  0  0  0  0
    6.7384   -1.6522   25.1563 H   0  0  0  0  0  0  0  0  0  0  0  0
    5.4174   -3.2382   26.5752 H   0  0  0  0  0  0  0  0  0  0  0  0
    7.0872   -3.7665   26.3997 H   0  0  0  0  0  0  0  0  0  0  0  0
    4.7097   -4.8158   24.7861 H   0  0  0  0  0  0  0  0  0  0  0  0
    6.3089   -6.4377   23.8137 H   0  0  0  0  0  0  0  0  0  0  0  0
    7.6305   -5.7137   24.7362 H   0  0  0  0  0  0  0  0  0  0  0  0
    7.6732   -4.8848   22.4198 H   0  0  0  0  0  0  0  0  0  0  0  0
    5.9943   -4.3467   22.5129 H   0  0  0  0  0  0  0  0  0  0  0  0
    8.3338   -3.2962   24.2013 H   0  0  0  0  0  0  0  0  0  0  0  0
    6.8764   -1.7356   21.6876 N   0  0  0  0  0  0  0  0  0  0  0  0
    7.5622   -0.7505   21.0390 N   0  0  0  0  0  0  0  0  0  0  0  0
    6.8905   -0.0600   19.9749 C   0  0  0  0  0  0  0  0  0  0  0  0
    5.6716    0.5810   20.2359 C   0  0  0  0  0  0  0  0  0  0  0  0
    5.0206    1.2298   19.1850 C   0  0  0  0  0  0  0  0  0  0  0  0
    5.6026    1.2143   17.9125 C   0  0  0  0  0  0  0  0  0  0  0  0
    6.7508    0.5749   17.6443 N   0  0  0  0  0  0  0  0  0  0  0  0
    7.3691   -0.0579   18.6515 C   0  0  0  0  0  0  0  0  0  0  0  0
    8.2755   -0.5986   18.3829 H   0  0  0  0  0  0  0  0  0  0  0  0
    5.1279    1.7349   17.0844 H   0  0  0  0  0  0  0  0  0  0  0  0
    4.0794    1.7438   19.3404 H   0  0  0  0  0  0  0  0  0  0  0  0
    5.2526    0.5526   21.2422 H   0  0  0  0  0  0  0  0  0  0  0  0
   10.0293    0.4953   20.3884 H   0  0  0  0  0  0  0  0  0  0  0  0
   10.6399    0.3203   22.0481 H   0  0  0  0  0  0  0  0  0  0  0  0
    8.3037    2.5489   21.0419 C   0  0  0  0  0  0  0  0  0  0  0  0
    7.8813    3.5746   21.8647 N   0  0  0  0  0  0  0  0  0  0  0  0
    7.1945    4.2770   21.6463 H   0  0  0  0  0  0  0  0  0  0  0  0
    7.9793    2.3662   20.0322 H   0  0  0  0  0  0  0  0  0  0  0  0
    7.1989    4.1392   24.5742 H   0  0  0  0  0  0  0  0  0  0  0  0
    8.8855    3.9210   25.0622 H   0  0  0  0  0  0  0  0  0  0  0  0
    8.4341    5.3031   24.0399 H   0  0  0  0  0  0  0  0  0  0  0  0
  1  2  1  0
  2  3  2  0
  3  4  1  0
  4  5  1  0
  5  6  1  0
  6  7  2  0
  7  8  1  0
  8  9  1  0
  9 10  1  0
 10 11  1  0
 11 12  1  0
 12 13  1  0
 13 14  1  0
 13 15  1  0
 13 16  1  0
 12 17  1  0
 17 18  1  0
 18 19  1  0
 18 20  1  0
 17 21  1  0
 17 22  1  0
 12 23  1  0
 11 24  1  0
 11 25  1  0
 10 26  1  0
 10 27  1  0
  9 28  1  0
  8 29  2  0
 29 30  1  0
 30 31  1  0
 31 32  2  0
 32 33  1  0
 33 34  2  0
 34 35  1  0
 35 36  2  0
 36 37  1  0
 34 38  1  0
 33 39  1  0
 32 40  1  0
  5 41  1  0
  5 42  1  0
  4 43  2  0
 43 44  1  0
 44 45  1  0
 43 46  1  0
  1 47  1  0
  1 48  1  0
  1 49  1  0
 44  2  1  0
 30  6  1  0
 36 31  1  0
 18  9  1  0
M  END
>  <cnnaffinity>  (1) 
-6.31318

>  <filename>  (1) 
Cc1nc(Cc2nc(C3CCC(C)CC3)nn2-c2cccnc2)c[nH]1

$$$$
