
     RDKit          3D

 42 45  0  0  0  0  0  0  0  0999 V2000
    8.7921    1.0617   25.5951 C   0  0  0  0  0  0  0  0  0  0  0  0
    7.3401    1.1817   25.2693 C   0  0  0  0  0  0  0  0  0  0  0  0
    6.8367    1.3518   24.0054 C   0  0  0  0  0  0  0  0  0  0  0  0
    7.5789    1.2926   22.6919 C   0  0  0  0  0  0  0  0  0  0  0  0
    7.7005   -0.1092   22.1594 C   0  0  0  0  0  0  0  0  0  0  0  0
    8.2814   -1.0803   22.8386 N   0  0  0  0  0  0  0  0  0  0  0  0
    8.1877   -2.1502   22.0134 C   0  0  0  0  0  0  0  0  0  0  0  0
    8.7136   -3.5117   22.3833 C   0  0  0  0  0  0  0  0  0  0  0  0
    7.9404   -4.6858   21.7409 C   0  0  0  0  0  0  0  0  0  0  0  0
    8.3019   -5.9228   22.5693 C   0  0  0  0  0  0  0  0  0  0  0  0
    8.6581   -5.4197   23.9813 C   0  0  0  0  0  0  0  0  0  0  0  0
    8.7324   -3.8710   23.8951 C   0  0  0  0  0  0  0  0  0  0  0  0
    9.6378   -3.4840   24.3759 H   0  0  0  0  0  0  0  0  0  0  0  0
    7.8755   -3.4175   24.4047 H   0  0  0  0  0  0  0  0  0  0  0  0
    9.6045   -5.8731   24.2954 H   0  0  0  0  0  0  0  0  0  0  0  0
    7.9075   -5.7480   24.7135 H   0  0  0  0  0  0  0  0  0  0  0  0
    9.1678   -6.4380   22.1416 H   0  0  0  0  0  0  0  0  0  0  0  0
    7.4948   -6.6603   22.5776 H   0  0  0  0  0  0  0  0  0  0  0  0
    8.1668   -4.8295   20.6793 H   0  0  0  0  0  0  0  0  0  0  0  0
    6.8701   -4.4540   21.8335 H   0  0  0  0  0  0  0  0  0  0  0  0
    9.7524   -3.4454   22.0492 H   0  0  0  0  0  0  0  0  0  0  0  0
    7.6517   -1.8812   20.8327 N   0  0  0  0  0  0  0  0  0  0  0  0
    7.3008   -0.5745   20.9441 N   0  0  0  0  0  0  0  0  0  0  0  0
    6.5866    0.0565   19.8883 C   0  0  0  0  0  0  0  0  0  0  0  0
    5.3965    0.7589   20.1215 C   0  0  0  0  0  0  0  0  0  0  0  0
    4.7812    1.3818   19.0253 C   0  0  0  0  0  0  0  0  0  0  0  0
    5.3904    1.3087   17.7706 C   0  0  0  0  0  0  0  0  0  0  0  0
    6.5188    0.6149   17.5427 N   0  0  0  0  0  0  0  0  0  0  0  0
    7.0858   -0.0172   18.5759 C   0  0  0  0  0  0  0  0  0  0  0  0
    7.9827   -0.5916   18.3561 H   0  0  0  0  0  0  0  0  0  0  0  0
    4.9624    1.8210   16.9093 H   0  0  0  0  0  0  0  0  0  0  0  0
    3.8524    1.9279   19.1372 H   0  0  0  0  0  0  0  0  0  0  0  0
    4.9656    0.8133   21.1238 H   0  0  0  0  0  0  0  0  0  0  0  0
    8.6061    1.6480   22.8476 H   0  0  0  0  0  0  0  0  0  0  0  0
    7.1266    1.9472   21.9409 H   0  0  0  0  0  0  0  0  0  0  0  0
    5.1124    1.3521   24.0713 S   0  0  0  0  0  0  0  0  0  0  0  0
    5.2015    1.1182   25.7775 C   0  0  0  0  0  0  0  0  0  0  0  0
    6.3985    1.0599   26.2700 N   0  0  0  0  0  0  0  0  0  0  0  0
    4.3049    1.0145   26.3730 H   0  0  0  0  0  0  0  0  0  0  0  0
    9.2224    0.2065   25.0627 H   0  0  0  0  0  0  0  0  0  0  0  0
    8.9230    0.9140   26.6673 H   0  0  0  0  0  0  0  0  0  0  0  0
    9.3563    1.9506   25.2938 H   0  0  0  0  0  0  0  0  0  0  0  0
  1  2  1  0
  2  3  2  0
  3  4  1  0
  4  5  1  0
  5  6  2  0
  6  7  1  0
  7  8  1  0
  8  9  1  0
  9 10  1  0
 10 11  1  0
 11 12  1  0
 12 13  1  0
 12 14  1  0
 11 15  1  0
 11 16  1  0
 10 17  1  0
 10 18  1  0
  9 19  1  0
  9 20  1  0
  8 21  1  0
  7 22  2  0
 22 23  1  0
 23 24  1  0
 24 25  2  0
 25 26  1  0
 26 27  2  0
 27 28  1  0
 28 29  2  0
 29 30  1  0
 27 31  1  0
 26 32  1  0
 25 33  1  0
  4 34  1  0
  4 35  1  0
  3 36  1  0
 36 37  1  0
 37 38  2  0
 37 39  1  0
  1 40  1  0
  1 41  1  0
  1 42  1  0
 38  2  1  0
 23  5  1  0
 29 24  1  0
 12  8  1  0
M  END
>  <cnnaffinity>  (1) 
-6.09842

>  <filename>  (1) 
Cc1ncsc1Cc1nc(C2CCCC2)nn1-c1cccnc1

$$$$
