
     RDKit          3D

 46 49  0  0  0  0  0  0  0  0999 V2000
    7.7791    2.8619   21.9792 C   0  0  0  0  0  0  0  0  0  0  0  0
    9.1300    2.4731   22.4855 C   0  0  0  0  0  0  0  0  0  0  0  0
    9.6807    3.0392   23.5546 N   0  0  0  0  0  0  0  0  0  0  0  0
   10.8367    2.3850   23.7396 N   0  0  0  0  0  0  0  0  0  0  0  0
   11.0357    1.4063   22.8216 C   0  0  0  0  0  0  0  0  0  0  0  0
    9.9544    1.4323   21.9754 C   0  0  0  0  0  0  0  0  0  0  0  0
    9.6209    0.4110   20.9069 C   0  0  0  0  0  0  0  0  0  0  0  0
    8.6143   -0.5943   21.3661 C   0  0  0  0  0  0  0  0  0  0  0  0
    8.8395   -1.4619   22.3338 N   0  0  0  0  0  0  0  0  0  0  0  0
    7.6292   -2.0509   22.5086 C   0  0  0  0  0  0  0  0  0  0  0  0
    7.3911   -3.0729   23.5840 C   0  0  0  0  0  0  0  0  0  0  0  0
    7.6406   -2.4758   25.0182 C   0  0  0  0  0  0  0  0  0  0  0  0
    9.0481   -2.8170   25.5514 C   0  0  0  0  0  0  0  0  0  0  0  0
    9.2669   -4.3301   25.6442 C   0  0  0  0  0  0  0  0  0  0  0  0
    8.8937   -4.7705   26.8924 F   0  0  0  0  0  0  0  0  0  0  0  0
   10.6125   -4.5786   25.5373 F   0  0  0  0  0  0  0  0  0  0  0  0
    8.5031   -5.1520   24.5977 C   0  0  0  0  0  0  0  0  0  0  0  0
    8.2603   -4.3461   23.3096 C   0  0  0  0  0  0  0  0  0  0  0  0
    7.7705   -4.9612   22.5457 H   0  0  0  0  0  0  0  0  0  0  0  0
    9.2272   -4.0398   22.8823 H   0  0  0  0  0  0  0  0  0  0  0  0
    7.5428   -5.4291   25.0509 H   0  0  0  0  0  0  0  0  0  0  0  0
    9.0602   -6.0776   24.4229 H   0  0  0  0  0  0  0  0  0  0  0  0
    9.8026   -2.4133   24.8646 H   0  0  0  0  0  0  0  0  0  0  0  0
    9.2395   -2.3943   26.5439 H   0  0  0  0  0  0  0  0  0  0  0  0
    7.4895   -1.3880   25.0147 H   0  0  0  0  0  0  0  0  0  0  0  0
    6.8835   -2.8806   25.7057 H   0  0  0  0  0  0  0  0  0  0  0  0
    6.3266   -3.3185   23.4951 H   0  0  0  0  0  0  0  0  0  0  0  0
    6.6853   -1.6342   21.6923 N   0  0  0  0  0  0  0  0  0  0  0  0
    7.3275   -0.7097   20.9249 N   0  0  0  0  0  0  0  0  0  0  0  0
    6.6416   -0.0214   19.8862 C   0  0  0  0  0  0  0  0  0  0  0  0
    5.4331    0.6312   20.1491 C   0  0  0  0  0  0  0  0  0  0  0  0
    4.8035    1.3122   19.1010 C   0  0  0  0  0  0  0  0  0  0  0  0
    5.3924    1.2996   17.8315 C   0  0  0  0  0  0  0  0  0  0  0  0
    6.5416    0.6586   17.5643 N   0  0  0  0  0  0  0  0  0  0  0  0
    7.1506    0.0261   18.5768 C   0  0  0  0  0  0  0  0  0  0  0  0
    8.0971   -0.4559   18.3384 H   0  0  0  0  0  0  0  0  0  0  0  0
    4.9330    1.8171   16.9932 H   0  0  0  0  0  0  0  0  0  0  0  0
    3.8725    1.8493   19.2507 H   0  0  0  0  0  0  0  0  0  0  0  0
    5.0138    0.5862   21.1560 H   0  0  0  0  0  0  0  0  0  0  0  0
   10.5150   -0.1624   20.6516 H   0  0  0  0  0  0  0  0  0  0  0  0
    9.2511    0.8856   19.9962 H   0  0  0  0  0  0  0  0  0  0  0  0
   11.8811    0.7323   22.8490 H   0  0  0  0  0  0  0  0  0  0  0  0
   11.4173    2.6366   24.5248 H   0  0  0  0  0  0  0  0  0  0  0  0
    7.5145    3.8897   22.2399 H   0  0  0  0  0  0  0  0  0  0  0  0
    7.0079    2.1961   22.3898 H   0  0  0  0  0  0  0  0  0  0  0  0
    7.7641    2.7284   20.8957 H   0  0  0  0  0  0  0  0  0  0  0  0
  1  2  1  0
  2  3  2  0
  3  4  1  0
  4  5  1  0
  5  6  2  0
  6  7  1  0
  7  8  1  0
  8  9  2  0
  9 10  1  0
 10 11  1  0
 11 12  1  0
 12 13  1  0
 13 14  1  0
 14 15  1  0
 14 16  1  0
 14 17  1  0
 17 18  1  0
 18 19  1  0
 18 20  1  0
 17 21  1  0
 17 22  1  0
 13 23  1  0
 13 24  1  0
 12 25  1  0
 12 26  1  0
 11 27  1  0
 10 28  2  0
 28 29  1  0
 29 30  1  0
 30 31  2  0
 31 32  1  0
 32 33  2  0
 33 34  1  0
 34 35  2  0
 35 36  1  0
 33 37  1  0
 32 38  1  0
 31 39  1  0
  7 40  1  0
  7 41  1  0
  5 42  1  0
  4 43  1  0
  1 44  1  0
  1 45  1  0
  1 46  1  0
  6  2  1  0
 29  8  1  0
 35 30  1  0
 18 11  1  0
M  END
>  <cnnaffinity>  (1) 
-6.36108

>  <filename>  (1) 
Cc1n[nH]cc1Cc1nc(C2CCC(F)(F)CC2)nn1-c1cccnc1

$$$$
