
     RDKit          3D

 42 45  0  0  0  0  0  0  0  0999 V2000
    8.1208   -0.3141   27.3322 C   0  0  0  0  0  0  0  0  0  0  0  0
    7.4844    0.3223   26.1534 C   0  0  0  0  0  0  0  0  0  0  0  0
    8.0379    1.1445   25.3307 N   0  0  0  0  0  0  0  0  0  0  0  0
    7.1147    1.3246   24.3122 C   0  0  0  0  0  0  0  0  0  0  0  0
    7.5579    2.0121   23.0544 C   0  0  0  0  0  0  0  0  0  0  0  0
    8.5219    1.1126   22.3383 C   0  0  0  0  0  0  0  0  0  0  0  0
    9.8310    1.1773   22.4600 N   0  0  0  0  0  0  0  0  0  0  0  0
   10.2526   -0.0103   21.9738 C   0  0  0  0  0  0  0  0  0  0  0  0
   11.6487   -0.4772   21.9016 C   0  0  0  0  0  0  0  0  0  0  0  0
   11.8731   -1.6551   21.1669 C   0  0  0  0  0  0  0  0  0  0  0  0
   13.1434   -2.0108   20.7578 C   0  0  0  0  0  0  0  0  0  0  0  0
   14.2324   -1.2732   21.1883 C   0  0  0  0  0  0  0  0  0  0  0  0
   14.0643   -0.1848   22.0406 C   0  0  0  0  0  0  0  0  0  0  0  0
   12.7731    0.2003   22.4200 C   0  0  0  0  0  0  0  0  0  0  0  0
   12.6520    1.5334   23.5201 Cl  0  0  0  0  0  0  0  0  0  0  0  0
   14.9135    0.3950   22.3825 H   0  0  0  0  0  0  0  0  0  0  0  0
   15.1787   -1.5678   20.7794 H   0  0  0  0  0  0  0  0  0  0  0  0
   13.3003   -2.8345   20.0739 H   0  0  0  0  0  0  0  0  0  0  0  0
   11.0094   -2.2390   20.8773 H   0  0  0  0  0  0  0  0  0  0  0  0
    9.2699   -0.7739   21.5105 N   0  0  0  0  0  0  0  0  0  0  0  0
    8.1592   -0.0520   21.7531 N   0  0  0  0  0  0  0  0  0  0  0  0
    6.8631   -0.5428   21.2872 C   0  0  0  0  0  0  0  0  0  0  0  0
    6.3362    0.1877   20.0722 C   0  0  0  0  0  0  0  0  0  0  0  0
    5.1136    0.8658   20.0594 C   0  0  0  0  0  0  0  0  0  0  0  0
    4.7020    1.4877   18.8766 C   0  0  0  0  0  0  0  0  0  0  0  0
    5.5282    1.4041   17.7524 C   0  0  0  0  0  0  0  0  0  0  0  0
    6.7094    0.7665   17.7473 N   0  0  0  0  0  0  0  0  0  0  0  0
    7.0955    0.1841   18.8882 C   0  0  0  0  0  0  0  0  0  0  0  0
    8.0595   -0.3252   18.8653 H   0  0  0  0  0  0  0  0  0  0  0  0
    5.2294    1.8672   16.8131 H   0  0  0  0  0  0  0  0  0  0  0  0
    3.7657    2.0317   18.8152 H   0  0  0  0  0  0  0  0  0  0  0  0
    4.4947    0.9075   20.9600 H   0  0  0  0  0  0  0  0  0  0  0  0
    7.0249   -1.6014   21.0625 H   0  0  0  0  0  0  0  0  0  0  0  0
    6.1455   -0.4979   22.1114 H   0  0  0  0  0  0  0  0  0  0  0  0
    8.1090    2.9175   23.3141 H   0  0  0  0  0  0  0  0  0  0  0  0
    6.7112    2.2676   22.4125 H   0  0  0  0  0  0  0  0  0  0  0  0
    6.0060    0.6117   24.6160 C   0  0  0  0  0  0  0  0  0  0  0  0
    6.2337   -0.0481   25.7978 O   0  0  0  0  0  0  0  0  0  0  0  0
    5.0353    0.4798   24.1682 H   0  0  0  0  0  0  0  0  0  0  0  0
    8.9944    0.2726   27.6084 H   0  0  0  0  0  0  0  0  0  0  0  0
    7.4257   -0.3839   28.1673 H   0  0  0  0  0  0  0  0  0  0  0  0
    8.4602   -1.3196   27.0630 H   0  0  0  0  0  0  0  0  0  0  0  0
  1  2  1  0
  2  3  2  0
  3  4  1  0
  4  5  1  0
  5  6  1  0
  6  7  2  0
  7  8  1  0
  8  9  1  0
  9 10  2  0
 10 11  1  0
 11 12  2  0
 12 13  1  0
 13 14  2  0
 14 15  1  0
 13 16  1  0
 12 17  1  0
 11 18  1  0
 10 19  1  0
  8 20  2  0
 20 21  1  0
 21 22  1  0
 22 23  1  0
 23 24  2  0
 24 25  1  0
 25 26  2  0
 26 27  1  0
 27 28  2  0
 28 29  1  0
 26 30  1  0
 25 31  1  0
 24 32  1  0
 22 33  1  0
 22 34  1  0
  5 35  1  0
  5 36  1  0
  4 37  2  0
 37 38  1  0
 37 39  1  0
  1 40  1  0
  1 41  1  0
  1 42  1  0
 38  2  1  0
 21  6  1  0
 28 23  1  0
 14  9  1  0
M  END
>  <cnnaffinity>  (1) 
-6.65276

>  <filename>  (1) 
Cc1nc(Cc2nc(-c3ccccc3Cl)nn2Cc2cccnc2)co1

$$$$
