
     RDKit          3D

 40 43  0  0  0  0  0  0  0  0999 V2000
    7.7854    2.8564   21.9371 C   0  0  0  0  0  0  0  0  0  0  0  0
    9.1346    2.4738   22.4588 C   0  0  0  0  0  0  0  0  0  0  0  0
    9.6756    3.0494   23.5274 N   0  0  0  0  0  0  0  0  0  0  0  0
   10.8319    2.3999   23.7282 N   0  0  0  0  0  0  0  0  0  0  0  0
   11.0405    1.4159   22.8201 C   0  0  0  0  0  0  0  0  0  0  0  0
    9.9661    1.4305   21.9641 C   0  0  0  0  0  0  0  0  0  0  0  0
    9.6345    0.3902   20.9100 C   0  0  0  0  0  0  0  0  0  0  0  0
    8.6223   -0.6076   21.3783 C   0  0  0  0  0  0  0  0  0  0  0  0
    8.8278   -1.4787   22.3362 N   0  0  0  0  0  0  0  0  0  0  0  0
    7.6097   -2.0654   22.5061 C   0  0  0  0  0  0  0  0  0  0  0  0
    7.4000   -3.0771   23.5627 C   0  0  0  0  0  0  0  0  0  0  0  0
    8.3834   -3.2368   24.5681 C   0  0  0  0  0  0  0  0  0  0  0  0
    8.2276   -4.1652   25.5969 C   0  0  0  0  0  0  0  0  0  0  0  0
    7.0783   -4.9640   25.6452 C   0  0  0  0  0  0  0  0  0  0  0  0
    6.0979   -4.8264   24.6617 C   0  0  0  0  0  0  0  0  0  0  0  0
    6.2538   -3.8971   23.6293 C   0  0  0  0  0  0  0  0  0  0  0  0
    4.9667   -3.8419   22.4579 Cl  0  0  0  0  0  0  0  0  0  0  0  0
    5.1907   -5.4205   24.6665 H   0  0  0  0  0  0  0  0  0  0  0  0
    6.9414   -5.6917   26.4426 H   0  0  0  0  0  0  0  0  0  0  0  0
    8.9992   -4.2696   26.3569 H   0  0  0  0  0  0  0  0  0  0  0  0
    9.2765   -2.6142   24.5195 H   0  0  0  0  0  0  0  0  0  0  0  0
    6.6739   -1.6151   21.6890 N   0  0  0  0  0  0  0  0  0  0  0  0
    7.3317   -0.7007   20.9378 N   0  0  0  0  0  0  0  0  0  0  0  0
    6.6513   -0.0129   19.8898 C   0  0  0  0  0  0  0  0  0  0  0  0
    5.4392    0.6296   20.1531 C   0  0  0  0  0  0  0  0  0  0  0  0
    4.8069    1.3096   19.1049 C   0  0  0  0  0  0  0  0  0  0  0  0
    5.3939    1.2985   17.8340 C   0  0  0  0  0  0  0  0  0  0  0  0
    6.5413    0.6558   17.5648 N   0  0  0  0  0  0  0  0  0  0  0  0
    7.1535    0.0281   18.5777 C   0  0  0  0  0  0  0  0  0  0  0  0
    8.0956   -0.4601   18.3349 H   0  0  0  0  0  0  0  0  0  0  0  0
    4.9351    1.8203   16.9967 H   0  0  0  0  0  0  0  0  0  0  0  0
    3.8739    1.8451   19.2544 H   0  0  0  0  0  0  0  0  0  0  0  0
    5.0181    0.5718   21.1580 H   0  0  0  0  0  0  0  0  0  0  0  0
   10.5293   -0.1880   20.6652 H   0  0  0  0  0  0  0  0  0  0  0  0
    9.2662    0.8500   19.9905 H   0  0  0  0  0  0  0  0  0  0  0  0
   11.8778    0.7325   22.8664 H   0  0  0  0  0  0  0  0  0  0  0  0
   11.4058    2.6690   24.5153 H   0  0  0  0  0  0  0  0  0  0  0  0
    7.5269    3.8967   22.1584 H   0  0  0  0  0  0  0  0  0  0  0  0
    7.0049    2.2138   22.3707 H   0  0  0  0  0  0  0  0  0  0  0  0
    7.7788    2.6828   20.8580 H   0  0  0  0  0  0  0  0  0  0  0  0
  1  2  1  0
  2  3  2  0
  3  4  1  0
  4  5  1  0
  5  6  2  0
  6  7  1  0
  7  8  1  0
  8  9  2  0
  9 10  1  0
 10 11  1  0
 11 12  2  0
 12 13  1  0
 13 14  2  0
 14 15  1  0
 15 16  2  0
 16 17  1  0
 15 18  1  0
 14 19  1  0
 13 20  1  0
 12 21  1  0
 10 22  2  0
 22 23  1  0
 23 24  1  0
 24 25  2  0
 25 26  1  0
 26 27  2  0
 27 28  1  0
 28 29  2  0
 29 30  1  0
 27 31  1  0
 26 32  1  0
 25 33  1  0
  7 34  1  0
  7 35  1  0
  5 36  1  0
  4 37  1  0
  1 38  1  0
  1 39  1  0
  1 40  1  0
  6  2  1  0
 23  8  1  0
 29 24  1  0
 16 11  1  0
M  END
>  <cnnaffinity>  (1) 
-6.13601

>  <filename>  (1) 
Cc1n[nH]cc1Cc1nc(-c2ccccc2Cl)nn1-c1cccnc1

$$$$
