
     RDKit          3D

 46 49  0  0  0  0  0  0  0  0999 V2000
    4.8006    0.4479   25.0293 C   0  0  0  0  0  0  0  0  0  0  0  0
    6.1431   -0.2094   25.0379 C   0  0  0  0  0  0  0  0  0  0  0  0
    6.3393   -1.5027   24.9743 N   0  0  0  0  0  0  0  0  0  0  0  0
    7.7052   -1.6768   25.0109 C   0  0  0  0  0  0  0  0  0  0  0  0
    8.3332   -0.4691   25.1053 C   0  0  0  0  0  0  0  0  0  0  0  0
    7.3278    0.4871   25.1157 N   0  0  0  0  0  0  0  0  0  0  0  0
    7.5611    1.8504   24.6413 C   0  0  0  0  0  0  0  0  0  0  0  0
    7.5633    1.9579   23.1026 C   0  0  0  0  0  0  0  0  0  0  0  0
    8.5280    0.9932   22.4981 C   0  0  0  0  0  0  0  0  0  0  0  0
    9.8367    1.0133   22.7036 N   0  0  0  0  0  0  0  0  0  0  0  0
   10.2706   -0.1020   22.0689 C   0  0  0  0  0  0  0  0  0  0  0  0
   11.6782   -0.5469   21.9245 C   0  0  0  0  0  0  0  0  0  0  0  0
   12.8123    0.1516   22.3906 C   0  0  0  0  0  0  0  0  0  0  0  0
   14.0852   -0.1505   21.8818 C   0  0  0  0  0  0  0  0  0  0  0  0
   14.1836   -1.1462   20.8998 C   0  0  0  0  0  0  0  0  0  0  0  0
   15.2356   -1.2528   20.0798 F   0  0  0  0  0  0  0  0  0  0  0  0
   13.1220   -1.9712   20.5802 C   0  0  0  0  0  0  0  0  0  0  0  0
   11.8851   -1.6878   21.1282 C   0  0  0  0  0  0  0  0  0  0  0  0
   11.0241   -2.2903   20.8697 H   0  0  0  0  0  0  0  0  0  0  0  0
   13.2904   -2.7807   19.8773 H   0  0  0  0  0  0  0  0  0  0  0  0
   14.9563    0.4320   22.1676 H   0  0  0  0  0  0  0  0  0  0  0  0
   12.7196    0.9371   23.1393 H   0  0  0  0  0  0  0  0  0  0  0  0
    9.2911   -0.7903   21.4826 N   0  0  0  0  0  0  0  0  0  0  0  0
    8.1808   -0.0943   21.7808 N   0  0  0  0  0  0  0  0  0  0  0  0
    6.8707   -0.5640   21.3339 C   0  0  0  0  0  0  0  0  0  0  0  0
    6.3575    0.1513   20.1000 C   0  0  0  0  0  0  0  0  0  0  0  0
    5.1357    0.8291   20.0322 C   0  0  0  0  0  0  0  0  0  0  0  0
    4.7949    1.4857   18.8451 C   0  0  0  0  0  0  0  0  0  0  0  0
    5.6813    1.4246   17.7669 C   0  0  0  0  0  0  0  0  0  0  0  0
    6.8468    0.7612   17.8015 N   0  0  0  0  0  0  0  0  0  0  0  0
    7.1648    0.1520   18.9481 C   0  0  0  0  0  0  0  0  0  0  0  0
    8.1159   -0.3779   18.9728 H   0  0  0  0  0  0  0  0  0  0  0  0
    5.4558    1.9398   16.8353 H   0  0  0  0  0  0  0  0  0  0  0  0
    3.8711    2.0455   18.7440 H   0  0  0  0  0  0  0  0  0  0  0  0
    4.4562    0.8474   20.8881 H   0  0  0  0  0  0  0  0  0  0  0  0
    6.1700   -0.4876   22.1698 H   0  0  0  0  0  0  0  0  0  0  0  0
    7.0166   -1.6308   21.1290 H   0  0  0  0  0  0  0  0  0  0  0  0
    7.8531    2.9687   22.8028 H   0  0  0  0  0  0  0  0  0  0  0  0
    6.5609    1.7739   22.7013 H   0  0  0  0  0  0  0  0  0  0  0  0
    8.5343    2.1627   25.0327 H   0  0  0  0  0  0  0  0  0  0  0  0
    6.8157    2.5128   25.0830 H   0  0  0  0  0  0  0  0  0  0  0  0
    9.3797   -0.1934   25.1289 H   0  0  0  0  0  0  0  0  0  0  0  0
    8.1307   -2.6693   24.9112 H   0  0  0  0  0  0  0  0  0  0  0  0
    4.6205    0.9513   24.0722 H   0  0  0  0  0  0  0  0  0  0  0  0
    4.0381   -0.3216   25.1676 H   0  0  0  0  0  0  0  0  0  0  0  0
    4.7098    1.1916   25.8268 H   0  0  0  0  0  0  0  0  0  0  0  0
  1  2  1  0
  2  3  2  0
  3  4  1  0
  4  5  2  0
  5  6  1  0
  6  7  1  0
  7  8  1  0
  8  9  1  0
  9 10  2  0
 10 11  1  0
 11 12  1  0
 12 13  2  0
 13 14  1  0
 14 15  2  0
 15 16  1  0
 15 17  1  0
 17 18  2  0
 18 19  1  0
 17 20  1  0
 14 21  1  0
 13 22  1  0
 11 23  2  0
 23 24  1  0
 24 25  1  0
 25 26  1  0
 26 27  2  0
 27 28  1  0
 28 29  2  0
 29 30  1  0
 30 31  2  0
 31 32  1  0
 29 33  1  0
 28 34  1  0
 27 35  1  0
 25 36  1  0
 25 37  1  0
  8 38  1  0
  8 39  1  0
  7 40  1  0
  7 41  1  0
  5 42  1  0
  4 43  1  0
  1 44  1  0
  1 45  1  0
  1 46  1  0
  6  2  1  0
 24  9  1  0
 31 26  1  0
 18 12  1  0
M  END
>  <cnnaffinity>  (1) 
-6.6498

>  <filename>  (1) 
Cc1nccn1CCc1nc(-c2ccc(F)cc2)nn1Cc1cccnc1

$$$$
