
     RDKit          3D

 26 28  0  0  0  0  0  0  0  0999 V2000
    8.5269   -3.6555   22.3144 C   0  0  0  0  0  0  0  0  0  0  0  0
    8.1047   -2.2645   22.0275 C   0  0  0  0  0  0  0  0  0  0  0  0
    7.6777   -1.9544   20.8178 N   0  0  0  0  0  0  0  0  0  0  0  0
    7.3483   -0.6527   20.9362 N   0  0  0  0  0  0  0  0  0  0  0  0
    6.6370    0.0056   19.8981 C   0  0  0  0  0  0  0  0  0  0  0  0
    5.4081    0.6245   20.1454 C   0  0  0  0  0  0  0  0  0  0  0  0
    4.7876    1.2866   19.0830 C   0  0  0  0  0  0  0  0  0  0  0  0
    5.4060    1.2785   17.8289 C   0  0  0  0  0  0  0  0  0  0  0  0
    6.5684    0.6479   17.5833 N   0  0  0  0  0  0  0  0  0  0  0  0
    7.1642    0.0182   18.5972 C   0  0  0  0  0  0  0  0  0  0  0  0
    8.1127   -0.4718   18.3853 H   0  0  0  0  0  0  0  0  0  0  0  0
    4.9635    1.8044   16.9865 H   0  0  0  0  0  0  0  0  0  0  0  0
    3.8641    1.8381   19.2291 H   0  0  0  0  0  0  0  0  0  0  0  0
    4.9790    0.6156   21.1490 H   0  0  0  0  0  0  0  0  0  0  0  0
    7.6412   -0.2426   22.2067 C   0  0  0  0  0  0  0  0  0  0  0  0
    7.5551    1.0933   22.7158 C   0  0  0  0  0  0  0  0  0  0  0  0
    7.4953    1.3865   24.0449 C   0  0  0  0  0  0  0  0  0  0  0  0
    7.4384    2.7190   24.3462 N   0  0  0  0  0  0  0  0  0  0  0  0
    7.4869    3.4230   23.2627 C   0  0  0  0  0  0  0  0  0  0  0  0
    7.4395    5.1375   23.2477 Cl  0  0  0  0  0  0  0  0  0  0  0  0
    7.6129    2.5450   21.7782 S   0  0  0  0  0  0  0  0  0  0  0  0
    7.4847    0.6328   24.8340 H   0  0  0  0  0  0  0  0  0  0  0  0
    8.0981   -1.2503   22.9244 N   0  0  0  0  0  0  0  0  0  0  0  0
    9.4029   -3.6628   22.9609 H   0  0  0  0  0  0  0  0  0  0  0  0
    7.7228   -4.2101   22.8061 H   0  0  0  0  0  0  0  0  0  0  0  0
    8.7460   -4.1200   21.3538 H   0  0  0  0  0  0  0  0  0  0  0  0
  1  2  1  0
  2  3  2  0
  3  4  1  0
  4  5  1  0
  5  6  2  0
  6  7  1  0
  7  8  2  0
  8  9  1  0
  9 10  2  0
 10 11  1  0
  8 12  1  0
  7 13  1  0
  6 14  1  0
  4 15  1  0
 15 16  1  0
 16 17  2  0
 17 18  1  0
 18 19  2  0
 19 20  1  0
 19 21  1  0
 17 22  1  0
 15 23  2  0
  1 24  1  0
  1 25  1  0
  1 26  1  0
 23  2  1  0
 10  5  1  0
 21 16  1  0
M  END
>  <cnnaffinity>  (1) 
-4.77821

>  <filename>  (1) 
Cc1nc(-c2cnc(Cl)s2)n(-c2cccnc2)n1

$$$$
