
     RDKit          3D

 45 48  0  0  0  0  0  0  0  0999 V2000
    7.4611    0.0276   27.6003 C   0  0  0  0  0  0  0  0  0  0  0  0
    6.5333    0.5173   26.5543 C   0  0  0  0  0  0  0  0  0  0  0  0
    5.2406    0.4554   26.5287 N   0  0  0  0  0  0  0  0  0  0  0  0
    4.8941    1.0297   25.3117 C   0  0  0  0  0  0  0  0  0  0  0  0
    6.0119    1.4048   24.6505 C   0  0  0  0  0  0  0  0  0  0  0  0
    6.3586    1.9982   23.3159 C   0  0  0  0  0  0  0  0  0  0  0  0
    7.3117    1.1213   22.5770 C   0  0  0  0  0  0  0  0  0  0  0  0
    8.6037    1.1525   22.7885 N   0  0  0  0  0  0  0  0  0  0  0  0
    9.0655    0.0693   22.1193 C   0  0  0  0  0  0  0  0  0  0  0  0
   10.4896   -0.2991   22.1094 C   0  0  0  0  0  0  0  0  0  0  0  0
   10.9374   -1.3301   21.2710 C   0  0  0  0  0  0  0  0  0  0  0  0
   12.2902   -1.6572   21.2247 C   0  0  0  0  0  0  0  0  0  0  0  0
   13.1728   -0.9764   22.0518 C   0  0  0  0  0  0  0  0  0  0  0  0
   14.4658   -1.3492   22.0405 F   0  0  0  0  0  0  0  0  0  0  0  0
   12.7810    0.0739   22.8930 C   0  0  0  0  0  0  0  0  0  0  0  0
   13.8113    0.8360   23.6892 C   0  0  0  0  0  0  0  0  0  0  0  0
   13.3563    1.6584   24.2483 H   0  0  0  0  0  0  0  0  0  0  0  0
   14.3443    0.1907   24.3941 H   0  0  0  0  0  0  0  0  0  0  0  0
   14.5653    1.2599   23.0195 H   0  0  0  0  0  0  0  0  0  0  0  0
   11.4217    0.3915   22.9114 C   0  0  0  0  0  0  0  0  0  0  0  0
   11.0769    1.2096   23.5465 H   0  0  0  0  0  0  0  0  0  0  0  0
   12.6888   -2.3944   20.5408 H   0  0  0  0  0  0  0  0  0  0  0  0
   10.2107   -1.8557   20.6572 H   0  0  0  0  0  0  0  0  0  0  0  0
    8.1167   -0.6127   21.4871 N   0  0  0  0  0  0  0  0  0  0  0  0
    6.9878    0.0907   21.7593 N   0  0  0  0  0  0  0  0  0  0  0  0
    5.7479   -0.2349   21.0473 C   0  0  0  0  0  0  0  0  0  0  0  0
    5.6093    0.4162   19.6808 C   0  0  0  0  0  0  0  0  0  0  0  0
    4.5452    1.2602   19.3450 C   0  0  0  0  0  0  0  0  0  0  0  0
    4.5222    1.8349   18.0751 C   0  0  0  0  0  0  0  0  0  0  0  0
    5.5390    1.5202   17.1744 C   0  0  0  0  0  0  0  0  0  0  0  0
    6.5610    0.7001   17.4626 N   0  0  0  0  0  0  0  0  0  0  0  0
    6.5847    0.1821   18.6953 C   0  0  0  0  0  0  0  0  0  0  0  0
    7.4190   -0.4740   18.9360 H   0  0  0  0  0  0  0  0  0  0  0  0
    5.5519    1.9547   16.1806 H   0  0  0  0  0  0  0  0  0  0  0  0
    3.7423    2.5300   17.7867 H   0  0  0  0  0  0  0  0  0  0  0  0
    3.7487    1.4890   20.0539 H   0  0  0  0  0  0  0  0  0  0  0  0
    5.7344   -1.3267   20.9606 H   0  0  0  0  0  0  0  0  0  0  0  0
    4.9052    0.0565   21.6768 H   0  0  0  0  0  0  0  0  0  0  0  0
    6.8924    2.9403   23.4715 H   0  0  0  0  0  0  0  0  0  0  0  0
    5.4611    2.2030   22.7277 H   0  0  0  0  0  0  0  0  0  0  0  0
    7.0718    1.1002   25.4619 O   0  0  0  0  0  0  0  0  0  0  0  0
    3.8570    1.1243   25.0208 H   0  0  0  0  0  0  0  0  0  0  0  0
    6.8773   -0.4752   28.3684 H   0  0  0  0  0  0  0  0  0  0  0  0
    8.1835   -0.6774   27.1788 H   0  0  0  0  0  0  0  0  0  0  0  0
    8.0183    0.8530   28.0535 H   0  0  0  0  0  0  0  0  0  0  0  0
  1  2  1  0
  2  3  2  0
  3  4  1  0
  4  5  2  0
  5  6  1  0
  6  7  1  0
  7  8  2  0
  8  9  1  0
  9 10  1  0
 10 11  2  0
 11 12  1  0
 12 13  2  0
 13 14  1  0
 13 15  1  0
 15 16  1  0
 16 17  1  0
 16 18  1  0
 16 19  1  0
 15 20  2  0
 20 21  1  0
 12 22  1  0
 11 23  1  0
  9 24  2  0
 24 25  1  0
 25 26  1  0
 26 27  1  0
 27 28  2  0
 28 29  1  0
 29 30  2  0
 30 31  1  0
 31 32  2  0
 32 33  1  0
 30 34  1  0
 29 35  1  0
 28 36  1  0
 26 37  1  0
 26 38  1  0
  6 39  1  0
  6 40  1  0
  5 41  1  0
  4 42  1  0
  1 43  1  0
  1 44  1  0
  1 45  1  0
 41  2  1  0
 25  7  1  0
 32 27  1  0
 20 10  1  0
M  END
>  <cnnaffinity>  (1) 
-6.37129

>  <filename>  (1) 
Cc1ncc(Cc2nc(-c3ccc(F)c(C)c3)nn2Cc2cccnc2)o1

$$$$
