
     RDKit          3D

 42 45  0  0  0  0  0  0  0  0999 V2000
    8.3285   -0.2184   27.2946 C   0  0  0  0  0  0  0  0  0  0  0  0
    7.6861    0.2765   26.0436 C   0  0  0  0  0  0  0  0  0  0  0  0
    8.3050    0.9754   25.1329 N   0  0  0  0  0  0  0  0  0  0  0  0
    7.4274    1.1395   24.0917 C   0  0  0  0  0  0  0  0  0  0  0  0
    7.9108    1.7849   22.8295 C   0  0  0  0  0  0  0  0  0  0  0  0
    8.9206    0.8985   22.1796 C   0  0  0  0  0  0  0  0  0  0  0  0
   10.2255    0.9643   22.3504 N   0  0  0  0  0  0  0  0  0  0  0  0
   10.6696   -0.2044   21.8288 C   0  0  0  0  0  0  0  0  0  0  0  0
   12.0826   -0.5665   21.7555 C   0  0  0  0  0  0  0  0  0  0  0  0
   13.1157    0.2188   22.3011 C   0  0  0  0  0  0  0  0  0  0  0  0
   14.3898    0.0349   21.7983 C   0  0  0  0  0  0  0  0  0  0  0  0
   14.5581   -0.8717   20.7227 C   0  0  0  0  0  0  0  0  0  0  0  0
   15.9493   -0.4869   19.6621 Cl  0  0  0  0  0  0  0  0  0  0  0  0
   13.6525   -1.7396   20.3337 N   0  0  0  0  0  0  0  0  0  0  0  0
   12.4412   -1.6109   20.8981 C   0  0  0  0  0  0  0  0  0  0  0  0
   11.6747   -2.3103   20.6048 H   0  0  0  0  0  0  0  0  0  0  0  0
   15.2087    0.6847   22.0776 H   0  0  0  0  0  0  0  0  0  0  0  0
   12.8962    1.0074   23.0246 H   0  0  0  0  0  0  0  0  0  0  0  0
    9.7157   -0.9598   21.3075 N   0  0  0  0  0  0  0  0  0  0  0  0
    8.5938   -0.2361   21.5216 N   0  0  0  0  0  0  0  0  0  0  0  0
    7.3005   -0.7323   21.0615 C   0  0  0  0  0  0  0  0  0  0  0  0
    6.6302    0.0570   19.9486 C   0  0  0  0  0  0  0  0  0  0  0  0
    5.3908    0.6901   20.1078 C   0  0  0  0  0  0  0  0  0  0  0  0
    4.8063    1.3360   19.0145 C   0  0  0  0  0  0  0  0  0  0  0  0
    5.4834    1.3238   17.7921 C   0  0  0  0  0  0  0  0  0  0  0  0
    6.6662    0.7157   17.6127 N   0  0  0  0  0  0  0  0  0  0  0  0
    7.2178    0.1109   18.6720 C   0  0  0  0  0  0  0  0  0  0  0  0
    8.1759   -0.3761   18.4953 H   0  0  0  0  0  0  0  0  0  0  0  0
    5.0591    1.8156   16.9176 H   0  0  0  0  0  0  0  0  0  0  0  0
    3.8571    1.8541   19.0954 H   0  0  0  0  0  0  0  0  0  0  0  0
    4.8808    0.6806   21.0742 H   0  0  0  0  0  0  0  0  0  0  0  0
    7.4976   -1.7555   20.7293 H   0  0  0  0  0  0  0  0  0  0  0  0
    6.6403   -0.7878   21.9327 H   0  0  0  0  0  0  0  0  0  0  0  0
    7.0863    1.9835   22.1402 H   0  0  0  0  0  0  0  0  0  0  0  0
    8.4046    2.7253   23.0764 H   0  0  0  0  0  0  0  0  0  0  0  0
    6.2349    0.5506   24.3966 C   0  0  0  0  0  0  0  0  0  0  0  0
    6.4093    0.0031   25.6571 N   0  0  0  0  0  0  0  0  0  0  0  0
    5.7544   -0.5460   26.1881 H   0  0  0  0  0  0  0  0  0  0  0  0
    5.3096    0.4896   23.8422 H   0  0  0  0  0  0  0  0  0  0  0  0
    7.9722   -1.2160   27.5660 H   0  0  0  0  0  0  0  0  0  0  0  0
    8.1483    0.4597   28.1334 H   0  0  0  0  0  0  0  0  0  0  0  0
    9.4064   -0.2633   27.1183 H   0  0  0  0  0  0  0  0  0  0  0  0
  1  2  1  0
  2  3  2  0
  3  4  1  0
  4  5  1  0
  5  6  1  0
  6  7  2  0
  7  8  1  0
  8  9  1  0
  9 10  2  0
 10 11  1  0
 11 12  2  0
 12 13  1  0
 12 14  1  0
 14 15  2  0
 15 16  1  0
 11 17  1  0
 10 18  1  0
  8 19  2  0
 19 20  1  0
 20 21  1  0
 21 22  1  0
 22 23  2  0
 23 24  1  0
 24 25  2  0
 25 26  1  0
 26 27  2  0
 27 28  1  0
 25 29  1  0
 24 30  1  0
 23 31  1  0
 21 32  1  0
 21 33  1  0
  5 34  1  0
  5 35  1  0
  4 36  2  0
 36 37  1  0
 37 38  1  0
 36 39  1  0
  1 40  1  0
  1 41  1  0
  1 42  1  0
 37  2  1  0
 20  6  1  0
 27 22  1  0
 15  9  1  0
M  END
>  <cnnaffinity>  (1) 
-6.71969

>  <filename>  (1) 
Cc1nc(Cc2nc(-c3ccc(Cl)nc3)nn2Cc2cccnc2)c[nH]1

$$$$
