
     RDKit          3D

 43 46  0  0  0  0  0  0  0  0999 V2000
    6.8916    0.4221   25.1104 C   0  0  0  0  0  0  0  0  0  0  0  0
    6.3966    1.5070   24.2091 C   0  0  0  0  0  0  0  0  0  0  0  0
    5.3194    2.2319   24.4918 N   0  0  0  0  0  0  0  0  0  0  0  0
    5.1896    3.0760   23.4546 N   0  0  0  0  0  0  0  0  0  0  0  0
    6.1526    2.9174   22.5154 C   0  0  0  0  0  0  0  0  0  0  0  0
    6.9575    1.9044   22.9629 C   0  0  0  0  0  0  0  0  0  0  0  0
    8.1607    1.3250   22.2636 C   0  0  0  0  0  0  0  0  0  0  0  0
    8.0601   -0.1369   21.9828 C   0  0  0  0  0  0  0  0  0  0  0  0
    8.5946   -1.1082   22.6897 N   0  0  0  0  0  0  0  0  0  0  0  0
    8.1820   -2.2246   22.0349 C   0  0  0  0  0  0  0  0  0  0  0  0
    8.5926   -3.5856   22.4912 C   0  0  0  0  0  0  0  0  0  0  0  0
    8.7915   -3.7618   24.0049 C   0  0  0  0  0  0  0  0  0  0  0  0
    8.6462   -5.2717   24.2677 C   0  0  0  0  0  0  0  0  0  0  0  0
    7.9137   -5.8769   23.0450 C   0  0  0  0  0  0  0  0  0  0  0  0
    7.6386   -4.7171   22.0747 C   0  0  0  0  0  0  0  0  0  0  0  0
    6.6105   -4.3514   22.1854 H   0  0  0  0  0  0  0  0  0  0  0  0
    7.7611   -5.0043   21.0255 H   0  0  0  0  0  0  0  0  0  0  0  0
    6.9776   -6.3646   23.3343 H   0  0  0  0  0  0  0  0  0  0  0  0
    8.5316   -6.6480   22.5720 H   0  0  0  0  0  0  0  0  0  0  0  0
    8.0970   -5.4438   25.1973 H   0  0  0  0  0  0  0  0  0  0  0  0
    9.6231   -5.7499   24.4008 H   0  0  0  0  0  0  0  0  0  0  0  0
    8.0229   -3.1909   24.5362 H   0  0  0  0  0  0  0  0  0  0  0  0
    9.7671   -3.3830   24.3311 H   0  0  0  0  0  0  0  0  0  0  0  0
    9.5729   -3.6737   22.0478 H   0  0  0  0  0  0  0  0  0  0  0  0
    7.4881   -1.9978   20.9338 N   0  0  0  0  0  0  0  0  0  0  0  0
    7.3659   -0.6477   20.9323 N   0  0  0  0  0  0  0  0  0  0  0  0
    6.6486    0.0115   19.8980 C   0  0  0  0  0  0  0  0  0  0  0  0
    5.4333    0.6495   20.1610 C   0  0  0  0  0  0  0  0  0  0  0  0
    4.8037    1.3115   19.1037 C   0  0  0  0  0  0  0  0  0  0  0  0
    5.4018    1.2940   17.8395 C   0  0  0  0  0  0  0  0  0  0  0  0
    6.5662    0.6715   17.5849 N   0  0  0  0  0  0  0  0  0  0  0  0
    7.1707    0.0404   18.5959 C   0  0  0  0  0  0  0  0  0  0  0  0
    8.1210   -0.4399   18.3773 H   0  0  0  0  0  0  0  0  0  0  0  0
    4.9213    1.7830   16.9951 H   0  0  0  0  0  0  0  0  0  0  0  0
    3.8724    1.8441   19.2557 H   0  0  0  0  0  0  0  0  0  0  0  0
    5.0051    0.6163   21.1649 H   0  0  0  0  0  0  0  0  0  0  0  0
    9.0578    1.4673   22.8722 H   0  0  0  0  0  0  0  0  0  0  0  0
    8.3265    1.8521   21.3204 H   0  0  0  0  0  0  0  0  0  0  0  0
    6.1886    3.4833   21.5891 H   0  0  0  0  0  0  0  0  0  0  0  0
    4.4365    3.7437   23.4643 H   0  0  0  0  0  0  0  0  0  0  0  0
    7.9843    0.3996   25.1283 H   0  0  0  0  0  0  0  0  0  0  0  0
    6.5914   -0.5573   24.7267 H   0  0  0  0  0  0  0  0  0  0  0  0
    6.5151    0.5314   26.1269 H   0  0  0  0  0  0  0  0  0  0  0  0
  1  2  1  0
  2  3  2  0
  3  4  1  0
  4  5  1  0
  5  6  2  0
  6  7  1  0
  7  8  1  0
  8  9  2  0
  9 10  1  0
 10 11  1  0
 11 12  1  0
 12 13  1  0
 13 14  1  0
 14 15  1  0
 15 16  1  0
 15 17  1  0
 14 18  1  0
 14 19  1  0
 13 20  1  0
 13 21  1  0
 12 22  1  0
 12 23  1  0
 11 24  1  0
 10 25  2  0
 25 26  1  0
 26 27  1  0
 27 28  2  0
 28 29  1  0
 29 30  2  0
 30 31  1  0
 31 32  2  0
 32 33  1  0
 30 34  1  0
 29 35  1  0
 28 36  1  0
  7 37  1  0
  7 38  1  0
  5 39  1  0
  4 40  1  0
  1 41  1  0
  1 42  1  0
  1 43  1  0
  6  2  1  0
 26  8  1  0
 32 27  1  0
 15 11  1  0
M  END
>  <cnnaffinity>  (1) 
-5.75769

>  <filename>  (1) 
Cc1n[nH]cc1Cc1nc(C2CCCC2)nn1-c1cccnc1

$$$$
