
     RDKit          3D

 43 45  0  0  0  0  0  0  0  0999 V2000
    8.5844    2.7191   22.0542 C   0  0  0  0  0  0  0  0  0  0  0  0
    9.9125    2.1597   22.4582 C   0  0  0  0  0  0  0  0  0  0  0  0
   10.5825    2.8074   23.4132 N   0  0  0  0  0  0  0  0  0  0  0  0
   11.7324    2.2603   23.8034 C   0  0  0  0  0  0  0  0  0  0  0  0
   12.2481    1.1157   23.3683 N   0  0  0  0  0  0  0  0  0  0  0  0
   11.5467    0.4435   22.4452 C   0  0  0  0  0  0  0  0  0  0  0  0
   12.0182   -0.9471   22.1137 C   0  0  0  0  0  0  0  0  0  0  0  0
   12.9953   -1.1083   22.5760 H   0  0  0  0  0  0  0  0  0  0  0  0
   11.2881   -1.6750   22.5033 H   0  0  0  0  0  0  0  0  0  0  0  0
   12.0911   -1.1197   21.0374 H   0  0  0  0  0  0  0  0  0  0  0  0
   10.3875    0.9781   21.8690 C   0  0  0  0  0  0  0  0  0  0  0  0
    9.5932    0.2209   20.8056 C   0  0  0  0  0  0  0  0  0  0  0  0
    8.5316   -0.7000   21.3590 C   0  0  0  0  0  0  0  0  0  0  0  0
    8.7354   -1.5498   22.3442 N   0  0  0  0  0  0  0  0  0  0  0  0
    7.5177   -2.1239   22.5296 C   0  0  0  0  0  0  0  0  0  0  0  0
    7.3176   -3.1223   23.6415 C   0  0  0  0  0  0  0  0  0  0  0  0
    7.5129   -2.4468   25.0185 C   0  0  0  0  0  0  0  0  0  0  0  0
    7.3471   -3.1708   25.8241 H   0  0  0  0  0  0  0  0  0  0  0  0
    8.5364   -2.0630   25.1227 H   0  0  0  0  0  0  0  0  0  0  0  0
    6.8262   -1.6054   25.1628 H   0  0  0  0  0  0  0  0  0  0  0  0
    8.2724   -4.3301   23.5062 C   0  0  0  0  0  0  0  0  0  0  0  0
    8.0894   -5.0461   24.3161 H   0  0  0  0  0  0  0  0  0  0  0  0
    8.1394   -4.8563   22.5553 H   0  0  0  0  0  0  0  0  0  0  0  0
    9.3233   -4.0166   23.5752 H   0  0  0  0  0  0  0  0  0  0  0  0
    6.2822   -3.4689   23.5508 H   0  0  0  0  0  0  0  0  0  0  0  0
    6.5812   -1.7035   21.7052 N   0  0  0  0  0  0  0  0  0  0  0  0
    7.2454   -0.8058   20.9204 N   0  0  0  0  0  0  0  0  0  0  0  0
    6.5842   -0.1133   19.8720 C   0  0  0  0  0  0  0  0  0  0  0  0
    5.3996    0.5816   20.1298 C   0  0  0  0  0  0  0  0  0  0  0  0
    4.8232    1.3073   19.0845 C   0  0  0  0  0  0  0  0  0  0  0  0
    5.4347    1.2927   17.8249 C   0  0  0  0  0  0  0  0  0  0  0  0
    6.5526    0.5966   17.5596 N   0  0  0  0  0  0  0  0  0  0  0  0
    7.1084   -0.0883   18.5666 C   0  0  0  0  0  0  0  0  0  0  0  0
    8.0214   -0.6368   18.3341 H   0  0  0  0  0  0  0  0  0  0  0  0
    5.0127    1.8533   16.9951 H   0  0  0  0  0  0  0  0  0  0  0  0
    3.9164    1.8809   19.2362 H   0  0  0  0  0  0  0  0  0  0  0  0
    4.9652    0.5347   21.1289 H   0  0  0  0  0  0  0  0  0  0  0  0
    9.1478    0.9201   20.0930 H   0  0  0  0  0  0  0  0  0  0  0  0
   10.2546   -0.4324   20.2244 H   0  0  0  0  0  0  0  0  0  0  0  0
   12.2684    2.7822   24.5938 H   0  0  0  0  0  0  0  0  0  0  0  0
    7.8233    1.9332   22.0902 H   0  0  0  0  0  0  0  0  0  0  0  0
    8.6321    3.0878   21.0263 H   0  0  0  0  0  0  0  0  0  0  0  0
    8.2919    3.5355   22.7132 H   0  0  0  0  0  0  0  0  0  0  0  0
  1  2  1  0
  2  3  2  0
  3  4  1  0
  4  5  2  0
  5  6  1  0
  6  7  1  0
  7  8  1  0
  7  9  1  0
  7 10  1  0
  6 11  2  0
 11 12  1  0
 12 13  1  0
 13 14  2  0
 14 15  1  0
 15 16  1  0
 16 17  1  0
 17 18  1  0
 17 19  1  0
 17 20  1  0
 16 21  1  0
 21 22  1  0
 21 23  1  0
 21 24  1  0
 16 25  1  0
 15 26  2  0
 26 27  1  0
 27 28  1  0
 28 29  2  0
 29 30  1  0
 30 31  2  0
 31 32  1  0
 32 33  2  0
 33 34  1  0
 31 35  1  0
 30 36  1  0
 29 37  1  0
 12 38  1  0
 12 39  1  0
  4 40  1  0
  1 41  1  0
  1 42  1  0
  1 43  1  0
 11  2  1  0
 27 13  1  0
 33 28  1  0
M  END
>  <cnnaffinity>  (1) 
-6.20979

>  <filename>  (1) 
Cc1ncnc(C)c1Cc1nc(C(C)C)nn1-c1cccnc1

$$$$
