
     RDKit          3D

 46 49  0  0  0  0  0  0  0  0999 V2000
   12.2485   -1.2739   21.1775 C   0  0  0  0  0  0  0  0  0  0  0  0
   11.9271    0.0064   21.9014 C   0  0  0  0  0  0  0  0  0  0  0  0
   12.8054    0.4081   22.8317 N   0  0  0  0  0  0  0  0  0  0  0  0
   12.5311    1.5031   23.5517 C   0  0  0  0  0  0  0  0  0  0  0  0
   11.3704    2.2600   23.3857 C   0  0  0  0  0  0  0  0  0  0  0  0
   10.4572    1.8522   22.4058 C   0  0  0  0  0  0  0  0  0  0  0  0
   10.7348    0.7242   21.6330 C   0  0  0  0  0  0  0  0  0  0  0  0
    9.6711    0.2158   20.6821 C   0  0  0  0  0  0  0  0  0  0  0  0
    8.6340   -0.6213   21.3484 C   0  0  0  0  0  0  0  0  0  0  0  0
    8.8519   -1.4822   22.3230 N   0  0  0  0  0  0  0  0  0  0  0  0
    7.6232   -2.0025   22.5485 C   0  0  0  0  0  0  0  0  0  0  0  0
    7.3842   -2.9940   23.6367 C   0  0  0  0  0  0  0  0  0  0  0  0
    7.0222   -4.3798   23.0404 C   0  0  0  0  0  0  0  0  0  0  0  0
    6.5104   -5.3379   24.0854 C   0  0  0  0  0  0  0  0  0  0  0  0
    6.0817   -4.9605   25.2917 C   0  0  0  0  0  0  0  0  0  0  0  0
    6.1115   -3.5272   25.7778 C   0  0  0  0  0  0  0  0  0  0  0  0
    6.2873   -2.5250   24.6252 C   0  0  0  0  0  0  0  0  0  0  0  0
    6.5224   -1.5298   25.0248 H   0  0  0  0  0  0  0  0  0  0  0  0
    5.3482   -2.4307   24.0649 H   0  0  0  0  0  0  0  0  0  0  0  0
    5.1920   -3.3022   26.3341 H   0  0  0  0  0  0  0  0  0  0  0  0
    6.9268   -3.4122   26.5104 H   0  0  0  0  0  0  0  0  0  0  0  0
    5.6991   -5.7065   25.9896 H   0  0  0  0  0  0  0  0  0  0  0  0
    6.4781   -6.3839   23.7867 H   0  0  0  0  0  0  0  0  0  0  0  0
    6.2558   -4.2492   22.2591 H   0  0  0  0  0  0  0  0  0  0  0  0
    7.8921   -4.8167   22.5299 H   0  0  0  0  0  0  0  0  0  0  0  0
    8.3424   -3.0635   24.1703 H   0  0  0  0  0  0  0  0  0  0  0  0
    6.6736   -1.5627   21.7391 N   0  0  0  0  0  0  0  0  0  0  0  0
    7.3346   -0.6868   20.9452 N   0  0  0  0  0  0  0  0  0  0  0  0
    6.6511   -0.0075   19.8999 C   0  0  0  0  0  0  0  0  0  0  0  0
    5.4362    0.6342   20.1612 C   0  0  0  0  0  0  0  0  0  0  0  0
    4.8077    1.3075   19.1090 C   0  0  0  0  0  0  0  0  0  0  0  0
    5.3976    1.2942   17.8384 C   0  0  0  0  0  0  0  0  0  0  0  0
    6.5514    0.6633   17.5776 N   0  0  0  0  0  0  0  0  0  0  0  0
    7.1594    0.0367   18.5891 C   0  0  0  0  0  0  0  0  0  0  0  0
    8.1070   -0.4415   18.3496 H   0  0  0  0  0  0  0  0  0  0  0  0
    4.9321    1.8015   16.9956 H   0  0  0  0  0  0  0  0  0  0  0  0
    3.8761    1.8446   19.2564 H   0  0  0  0  0  0  0  0  0  0  0  0
    5.0177    0.6019   21.1676 H   0  0  0  0  0  0  0  0  0  0  0  0
    9.1757    1.0688   20.2161 H   0  0  0  0  0  0  0  0  0  0  0  0
   10.0656   -0.4281   19.8868 H   0  0  0  0  0  0  0  0  0  0  0  0
    9.5128    2.3815   22.2573 H   0  0  0  0  0  0  0  0  0  0  0  0
   11.1897    3.1246   24.0130 H   0  0  0  0  0  0  0  0  0  0  0  0
   13.2801    1.7770   24.2963 H   0  0  0  0  0  0  0  0  0  0  0  0
   13.1550   -1.7235   21.5913 H   0  0  0  0  0  0  0  0  0  0  0  0
   11.4033   -1.9681   21.2708 H   0  0  0  0  0  0  0  0  0  0  0  0
   12.4195   -1.1005   20.1102 H   0  0  0  0  0  0  0  0  0  0  0  0
  1  2  1  0
  2  3  2  0
  3  4  1  0
  4  5  2  0
  5  6  1  0
  6  7  2  0
  7  8  1  0
  8  9  1  0
  9 10  2  0
 10 11  1  0
 11 12  1  0
 12 13  1  0
 13 14  1  0
 14 15  2  0
 15 16  1  0
 16 17  1  0
 17 18  1  0
 17 19  1  0
 16 20  1  0
 16 21  1  0
 15 22  1  0
 14 23  1  0
 13 24  1  0
 13 25  1  0
 12 26  1  0
 11 27  2  0
 27 28  1  0
 28 29  1  0
 29 30  2  0
 30 31  1  0
 31 32  2  0
 32 33  1  0
 33 34  2  0
 34 35  1  0
 32 36  1  0
 31 37  1  0
 30 38  1  0
  8 39  1  0
  8 40  1  0
  6 41  1  0
  5 42  1  0
  4 43  1  0
  1 44  1  0
  1 45  1  0
  1 46  1  0
  7  2  1  0
 28  9  1  0
 34 29  1  0
 17 12  1  0
M  END
>  <cnnaffinity>  (1) 
-6.63801

>  <filename>  (1) 
Cc1ncccc1Cc1nc(C2CC=CCC2)nn1-c1cccnc1

$$$$
