
     RDKit          3D

 33 35  0  0  0  0  0  0  0  0999 V2000
    9.0282   -3.3862   22.4545 C   0  0  0  0  0  0  0  0  0  0  0  0
    8.3053   -2.1377   22.0644 C   0  0  0  0  0  0  0  0  0  0  0  0
    7.9732   -1.2238   22.9550 N   0  0  0  0  0  0  0  0  0  0  0  0
    7.4084   -0.2435   22.2068 N   0  0  0  0  0  0  0  0  0  0  0  0
    7.2236    1.0844   22.8070 C   0  0  0  0  0  0  0  0  0  0  0  0
    8.5034    1.6124   23.4366 C   0  0  0  0  0  0  0  0  0  0  0  0
    8.6474    1.5882   24.8300 C   0  0  0  0  0  0  0  0  0  0  0  0
    9.8654    1.9120   25.4272 C   0  0  0  0  0  0  0  0  0  0  0  0
   10.9615    2.2963   24.6519 C   0  0  0  0  0  0  0  0  0  0  0  0
   10.8272    2.3999   23.2653 C   0  0  0  0  0  0  0  0  0  0  0  0
    9.6109    2.0263   22.6783 C   0  0  0  0  0  0  0  0  0  0  0  0
    9.4975    2.0256   20.9578 Cl  0  0  0  0  0  0  0  0  0  0  0  0
   11.6403    2.7593   22.6369 H   0  0  0  0  0  0  0  0  0  0  0  0
   11.9106    2.5009   25.1418 H   0  0  0  0  0  0  0  0  0  0  0  0
    9.9727    1.8476   26.4985 H   0  0  0  0  0  0  0  0  0  0  0  0
    7.7958    1.2832   25.4435 H   0  0  0  0  0  0  0  0  0  0  0  0
    6.4561    0.9757   23.5754 H   0  0  0  0  0  0  0  0  0  0  0  0
    6.8552    1.7776   22.0453 H   0  0  0  0  0  0  0  0  0  0  0  0
    7.3710   -0.6547   20.9112 C   0  0  0  0  0  0  0  0  0  0  0  0
    6.6354    0.0460   19.8680 C   0  0  0  0  0  0  0  0  0  0  0  0
    5.4094    0.6916   20.0919 C   0  0  0  0  0  0  0  0  0  0  0  0
    4.7975    1.3346   19.0209 C   0  0  0  0  0  0  0  0  0  0  0  0
    5.4265    1.3127   17.7716 C   0  0  0  0  0  0  0  0  0  0  0  0
    6.5770    0.6612   17.5389 N   0  0  0  0  0  0  0  0  0  0  0  0
    7.1529    0.0299   18.5681 C   0  0  0  0  0  0  0  0  0  0  0  0
    8.0736   -0.5137   18.3572 H   0  0  0  0  0  0  0  0  0  0  0  0
    4.9858    1.8398   16.9270 H   0  0  0  0  0  0  0  0  0  0  0  0
    3.8619    1.8620   19.1431 H   0  0  0  0  0  0  0  0  0  0  0  0
    4.9391    0.6794   21.0777 H   0  0  0  0  0  0  0  0  0  0  0  0
    7.9789   -1.8209   20.7812 N   0  0  0  0  0  0  0  0  0  0  0  0
    8.7296   -4.2061   21.7986 H   0  0  0  0  0  0  0  0  0  0  0  0
    8.8005   -3.6416   23.4916 H   0  0  0  0  0  0  0  0  0  0  0  0
   10.1116   -3.2327   22.3724 H   0  0  0  0  0  0  0  0  0  0  0  0
  1  2  1  0
  2  3  2  0
  3  4  1  0
  4  5  1  0
  5  6  1  0
  6  7  2  0
  7  8  1  0
  8  9  2  0
  9 10  1  0
 10 11  2  0
 11 12  1  0
 10 13  1  0
  9 14  1  0
  8 15  1  0
  7 16  1  0
  5 17  1  0
  5 18  1  0
  4 19  1  0
 19 20  1  0
 20 21  2  0
 21 22  1  0
 22 23  2  0
 23 24  1  0
 24 25  2  0
 25 26  1  0
 23 27  1  0
 22 28  1  0
 21 29  1  0
 19 30  2  0
  1 31  1  0
  1 32  1  0
  1 33  1  0
 30  2  1  0
 11  6  1  0
 25 20  1  0
M  END
>  <cnnaffinity>  (1) 
-5.09856

>  <filename>  (1) 
Cc1nc(-c2cccnc2)n(Cc2ccccc2Cl)n1

$$$$
