
     RDKit          3D

 46 49  0  0  0  0  0  0  0  0999 V2000
   11.2028   -1.5220   21.6589 C   0  0  0  0  0  0  0  0  0  0  0  0
   11.8149   -0.1706   21.8617 C   0  0  0  0  0  0  0  0  0  0  0  0
   13.0122   -0.0142   22.4212 N   0  0  0  0  0  0  0  0  0  0  0  0
   13.1664    1.3211   22.5160 N   0  0  0  0  0  0  0  0  0  0  0  0
   12.1165    2.0234   22.0311 C   0  0  0  0  0  0  0  0  0  0  0  0
   11.9872    3.5081   22.0935 C   0  0  0  0  0  0  0  0  0  0  0  0
   11.9064    3.9275   21.0852 H   0  0  0  0  0  0  0  0  0  0  0  0
   11.0599    3.7463   22.6297 H   0  0  0  0  0  0  0  0  0  0  0  0
   12.8303    3.9834   22.6056 H   0  0  0  0  0  0  0  0  0  0  0  0
   11.2226    1.0858   21.5659 C   0  0  0  0  0  0  0  0  0  0  0  0
    9.8300    1.3934   21.0630 C   0  0  0  0  0  0  0  0  0  0  0  0
    8.7751    1.1771   22.0972 C   0  0  0  0  0  0  0  0  0  0  0  0
    8.7143    1.8851   23.2041 N   0  0  0  0  0  0  0  0  0  0  0  0
    7.6642    1.3416   23.8718 C   0  0  0  0  0  0  0  0  0  0  0  0
    7.2253    1.8526   25.1781 C   0  0  0  0  0  0  0  0  0  0  0  0
    6.0953    1.3138   25.8224 C   0  0  0  0  0  0  0  0  0  0  0  0
    5.7026    1.7923   27.0698 C   0  0  0  0  0  0  0  0  0  0  0  0
    6.4459    2.8137   27.6595 C   0  0  0  0  0  0  0  0  0  0  0  0
    6.0718    3.2766   28.8605 F   0  0  0  0  0  0  0  0  0  0  0  0
    7.5638    3.3742   27.0451 C   0  0  0  0  0  0  0  0  0  0  0  0
    7.9499    2.8871   25.8002 C   0  0  0  0  0  0  0  0  0  0  0  0
    8.8228    3.2920   25.2935 H   0  0  0  0  0  0  0  0  0  0  0  0
    8.1082    4.1692   27.5421 H   0  0  0  0  0  0  0  0  0  0  0  0
    4.8419    1.3869   27.5898 H   0  0  0  0  0  0  0  0  0  0  0  0
    5.5441    0.5110   25.3363 H   0  0  0  0  0  0  0  0  0  0  0  0
    7.0787    0.3438   23.2282 N   0  0  0  0  0  0  0  0  0  0  0  0
    7.8016    0.2351   22.0912 N   0  0  0  0  0  0  0  0  0  0  0  0
    7.3793   -0.6867   21.0341 C   0  0  0  0  0  0  0  0  0  0  0  0
    6.6567   -0.0012   19.8832 C   0  0  0  0  0  0  0  0  0  0  0  0
    5.4408    0.6558   20.1267 C   0  0  0  0  0  0  0  0  0  0  0  0
    4.8054    1.3106   19.0718 C   0  0  0  0  0  0  0  0  0  0  0  0
    5.4081    1.2955   17.8120 C   0  0  0  0  0  0  0  0  0  0  0  0
    6.5582    0.6569   17.5492 N   0  0  0  0  0  0  0  0  0  0  0  0
    7.1567    0.0291   18.5706 C   0  0  0  0  0  0  0  0  0  0  0  0
    8.0925   -0.4761   18.3163 H   0  0  0  0  0  0  0  0  0  0  0  0
    4.9475    1.8197   16.9779 H   0  0  0  0  0  0  0  0  0  0  0  0
    3.8696    1.8427   19.2121 H   0  0  0  0  0  0  0  0  0  0  0  0
    5.0127    0.6695   21.1309 H   0  0  0  0  0  0  0  0  0  0  0  0
    8.2554   -1.2479   20.6865 H   0  0  0  0  0  0  0  0  0  0  0  0
    6.7191   -1.4094   21.5255 H   0  0  0  0  0  0  0  0  0  0  0  0
    9.5842    0.8159   20.1699 H   0  0  0  0  0  0  0  0  0  0  0  0
    9.7654    2.4549   20.7848 H   0  0  0  0  0  0  0  0  0  0  0  0
   14.0356    1.6908   22.8697 H   0  0  0  0  0  0  0  0  0  0  0  0
   10.5514   -1.5397   20.7796 H   0  0  0  0  0  0  0  0  0  0  0  0
   10.5813   -1.7855   22.5220 H   0  0  0  0  0  0  0  0  0  0  0  0
   11.9627   -2.2907   21.5338 H   0  0  0  0  0  0  0  0  0  0  0  0
  1  2  1  0
  2  3  2  0
  3  4  1  0
  4  5  1  0
  5  6  1  0
  6  7  1  0
  6  8  1  0
  6  9  1  0
  5 10  2  0
 10 11  1  0
 11 12  1  0
 12 13  2  0
 13 14  1  0
 14 15  1  0
 15 16  2  0
 16 17  1  0
 17 18  2  0
 18 19  1  0
 18 20  1  0
 20 21  2  0
 21 22  1  0
 20 23  1  0
 17 24  1  0
 16 25  1  0
 14 26  2  0
 26 27  1  0
 27 28  1  0
 28 29  1  0
 29 30  2  0
 30 31  1  0
 31 32  2  0
 32 33  1  0
 33 34  2  0
 34 35  1  0
 32 36  1  0
 31 37  1  0
 30 38  1  0
 28 39  1  0
 28 40  1  0
 11 41  1  0
 11 42  1  0
  4 43  1  0
  1 44  1  0
  1 45  1  0
  1 46  1  0
 10  2  1  0
 27 12  1  0
 34 29  1  0
 21 15  1  0
M  END
>  <cnnaffinity>  (1) 
-6.38231

>  <filename>  (1) 
Cc1n[nH]c(C)c1Cc1nc(-c2ccc(F)cc2)nn1Cc1cccnc1

$$$$
