
     RDKit          3D

 42 45  0  0  0  0  0  0  0  0999 V2000
    8.2159    4.2319   24.2707 C   0  0  0  0  0  0  0  0  0  0  0  0
    8.4493    3.3452   23.0928 C   0  0  0  0  0  0  0  0  0  0  0  0
    9.1640    2.2444   23.1030 N   0  0  0  0  0  0  0  0  0  0  0  0
    9.1034    1.7447   21.8303 C   0  0  0  0  0  0  0  0  0  0  0  0
    9.6898    0.4309   21.4633 C   0  0  0  0  0  0  0  0  0  0  0  0
    8.6936   -0.6446   21.7204 C   0  0  0  0  0  0  0  0  0  0  0  0
    8.8248   -1.5121   22.6791 N   0  0  0  0  0  0  0  0  0  0  0  0
    7.6489   -2.1985   22.6623 C   0  0  0  0  0  0  0  0  0  0  0  0
    7.3892   -3.2203   23.6858 C   0  0  0  0  0  0  0  0  0  0  0  0
    6.1476   -3.8753   23.8159 C   0  0  0  0  0  0  0  0  0  0  0  0
    5.9497   -4.7840   24.8519 C   0  0  0  0  0  0  0  0  0  0  0  0
    6.9790   -5.0534   25.7617 C   0  0  0  0  0  0  0  0  0  0  0  0
    6.8008   -5.9300   26.8157 N   0  0  0  0  0  0  0  0  0  0  0  0
    6.1143   -6.6492   26.6581 H   0  0  0  0  0  0  0  0  0  0  0  0
    7.6735   -6.3118   27.1446 H   0  0  0  0  0  0  0  0  0  0  0  0
    8.2125   -4.4064   25.6341 C   0  0  0  0  0  0  0  0  0  0  0  0
    8.4195   -3.5080   24.6045 C   0  0  0  0  0  0  0  0  0  0  0  0
    9.3840   -3.0138   24.5004 H   0  0  0  0  0  0  0  0  0  0  0  0
    8.9917   -4.6310   26.3547 H   0  0  0  0  0  0  0  0  0  0  0  0
    5.0087   -5.3083   24.9827 H   0  0  0  0  0  0  0  0  0  0  0  0
    5.3460   -3.6718   23.1065 H   0  0  0  0  0  0  0  0  0  0  0  0
    6.8100   -1.8145   21.7205 N   0  0  0  0  0  0  0  0  0  0  0  0
    7.4933   -0.8222   21.0847 N   0  0  0  0  0  0  0  0  0  0  0  0
    6.8474   -0.1205   20.0131 C   0  0  0  0  0  0  0  0  0  0  0  0
    5.6377    0.5494   20.2584 C   0  0  0  0  0  0  0  0  0  0  0  0
    5.0272    1.2286   19.2000 C   0  0  0  0  0  0  0  0  0  0  0  0
    5.6351    1.2093   17.9389 C   0  0  0  0  0  0  0  0  0  0  0  0
    6.7847    0.5598   17.6923 N   0  0  0  0  0  0  0  0  0  0  0  0
    7.3670   -0.0970   18.7052 C   0  0  0  0  0  0  0  0  0  0  0  0
    8.2863   -0.6304   18.4573 H   0  0  0  0  0  0  0  0  0  0  0  0
    5.1753    1.7254   17.0971 H   0  0  0  0  0  0  0  0  0  0  0  0
    4.0875    1.7588   19.3355 H   0  0  0  0  0  0  0  0  0  0  0  0
    5.1929    0.5319   21.2558 H   0  0  0  0  0  0  0  0  0  0  0  0
    9.9792    0.3992   20.4116 H   0  0  0  0  0  0  0  0  0  0  0  0
   10.5451    0.2275   22.1105 H   0  0  0  0  0  0  0  0  0  0  0  0
    8.3148    2.5208   21.0505 C   0  0  0  0  0  0  0  0  0  0  0  0
    7.8967    3.5552   21.8631 N   0  0  0  0  0  0  0  0  0  0  0  0
    7.2655    4.3024   21.6217 H   0  0  0  0  0  0  0  0  0  0  0  0
    8.0036    2.3626   20.0318 H   0  0  0  0  0  0  0  0  0  0  0  0
    8.8516    3.8920   25.0941 H   0  0  0  0  0  0  0  0  0  0  0  0
    8.4432    5.2824   24.0534 H   0  0  0  0  0  0  0  0  0  0  0  0
    7.1682    4.1766   24.5908 H   0  0  0  0  0  0  0  0  0  0  0  0
  1  2  1  0
  2  3  2  0
  3  4  1  0
  4  5  1  0
  5  6  1  0
  6  7  2  0
  7  8  1  0
  8  9  1  0
  9 10  2  0
 10 11  1  0
 11 12  2  0
 12 13  1  0
 13 14  1  0
 13 15  1  0
 12 16  1  0
 16 17  2  0
 17 18  1  0
 16 19  1  0
 11 20  1  0
 10 21  1  0
  8 22  2  0
 22 23  1  0
 23 24  1  0
 24 25  2  0
 25 26  1  0
 26 27  2  0
 27 28  1  0
 28 29  2  0
 29 30  1  0
 27 31  1  0
 26 32  1  0
 25 33  1  0
  5 34  1  0
  5 35  1  0
  4 36  2  0
 36 37  1  0
 37 38  1  0
 36 39  1  0
  1 40  1  0
  1 41  1  0
  1 42  1  0
 37  2  1  0
 23  6  1  0
 29 24  1  0
 17  9  1  0
M  END
>  <cnnaffinity>  (1) 
-6.00754

>  <filename>  (1) 
Cc1nc(Cc2nc(-c3ccc(N)cc3)nn2-c2cccnc2)c[nH]1

$$$$
