
     RDKit          3D

 43 46  0  0  0  0  0  0  0  0999 V2000
   11.2007   -1.5322   21.6444 C   0  0  0  0  0  0  0  0  0  0  0  0
   11.8145   -0.1850   21.8243 C   0  0  0  0  0  0  0  0  0  0  0  0
   13.0081   -0.0079   22.3809 N   0  0  0  0  0  0  0  0  0  0  0  0
   13.1777    1.3260   22.4256 N   0  0  0  0  0  0  0  0  0  0  0  0
   12.1212    2.0001   21.9107 C   0  0  0  0  0  0  0  0  0  0  0  0
   11.2141    1.0570   21.4940 C   0  0  0  0  0  0  0  0  0  0  0  0
    9.8097    1.3314   21.0163 C   0  0  0  0  0  0  0  0  0  0  0  0
    8.7854    1.1335   22.0820 C   0  0  0  0  0  0  0  0  0  0  0  0
    8.7173    1.8803   23.1619 N   0  0  0  0  0  0  0  0  0  0  0  0
    7.6635    1.3595   23.8402 C   0  0  0  0  0  0  0  0  0  0  0  0
    7.2475    1.8803   25.1534 C   0  0  0  0  0  0  0  0  0  0  0  0
    6.1168    1.3415   25.7920 C   0  0  0  0  0  0  0  0  0  0  0  0
    5.7208    1.8248   27.0361 C   0  0  0  0  0  0  0  0  0  0  0  0
    6.4474    2.8468   27.6572 C   0  0  0  0  0  0  0  0  0  0  0  0
    7.5767    3.3862   27.0294 C   0  0  0  0  0  0  0  0  0  0  0  0
    7.9814    2.9062   25.7844 C   0  0  0  0  0  0  0  0  0  0  0  0
    8.8616    3.3162   25.2908 H   0  0  0  0  0  0  0  0  0  0  0  0
    8.1381    4.1838   27.5081 H   0  0  0  0  0  0  0  0  0  0  0  0
    6.1336    3.2188   28.6265 H   0  0  0  0  0  0  0  0  0  0  0  0
    4.8452    1.3994   27.5165 H   0  0  0  0  0  0  0  0  0  0  0  0
    5.5689    0.5424   25.2964 H   0  0  0  0  0  0  0  0  0  0  0  0
    7.0731    0.3467   23.2181 N   0  0  0  0  0  0  0  0  0  0  0  0
    7.8018    0.2121   22.0896 N   0  0  0  0  0  0  0  0  0  0  0  0
    7.3799   -0.6998   21.0324 C   0  0  0  0  0  0  0  0  0  0  0  0
    6.6520   -0.0096   19.8831 C   0  0  0  0  0  0  0  0  0  0  0  0
    5.4411    0.6500   20.1308 C   0  0  0  0  0  0  0  0  0  0  0  0
    4.7978    1.3094   19.0785 C   0  0  0  0  0  0  0  0  0  0  0  0
    5.3914    1.2993   17.8133 C   0  0  0  0  0  0  0  0  0  0  0  0
    6.5484    0.6716   17.5532 N   0  0  0  0  0  0  0  0  0  0  0  0
    7.1539    0.0462   18.5715 C   0  0  0  0  0  0  0  0  0  0  0  0
    8.0998   -0.4346   18.3127 H   0  0  0  0  0  0  0  0  0  0  0  0
    4.9289    1.8183   16.9723 H   0  0  0  0  0  0  0  0  0  0  0  0
    3.8658    1.8483   19.2254 H   0  0  0  0  0  0  0  0  0  0  0  0
    5.0322    0.6489   21.1426 H   0  0  0  0  0  0  0  0  0  0  0  0
    6.7346   -1.4201   21.5452 H   0  0  0  0  0  0  0  0  0  0  0  0
    8.2591   -1.2377   20.6590 H   0  0  0  0  0  0  0  0  0  0  0  0
    9.5355    0.7625   20.1203 H   0  0  0  0  0  0  0  0  0  0  0  0
    9.7330    2.3895   20.7622 H   0  0  0  0  0  0  0  0  0  0  0  0
   12.0424    3.0788   21.9139 H   0  0  0  0  0  0  0  0  0  0  0  0
   14.0377    1.7049   22.7994 H   0  0  0  0  0  0  0  0  0  0  0  0
   10.4421   -1.7170   22.4139 H   0  0  0  0  0  0  0  0  0  0  0  0
   11.9455   -2.3273   21.7052 H   0  0  0  0  0  0  0  0  0  0  0  0
   10.6901   -1.5593   20.6790 H   0  0  0  0  0  0  0  0  0  0  0  0
  1  2  1  0
  2  3  2  0
  3  4  1  0
  4  5  1  0
  5  6  2  0
  6  7  1  0
  7  8  1  0
  8  9  2  0
  9 10  1  0
 10 11  1  0
 11 12  2  0
 12 13  1  0
 13 14  2  0
 14 15  1  0
 15 16  2  0
 16 17  1  0
 15 18  1  0
 14 19  1  0
 13 20  1  0
 12 21  1  0
 10 22  2  0
 22 23  1  0
 23 24  1  0
 24 25  1  0
 25 26  2  0
 26 27  1  0
 27 28  2  0
 28 29  1  0
 29 30  2  0
 30 31  1  0
 28 32  1  0
 27 33  1  0
 26 34  1  0
 24 35  1  0
 24 36  1  0
  7 37  1  0
  7 38  1  0
  5 39  1  0
  4 40  1  0
  1 41  1  0
  1 42  1  0
  1 43  1  0
  6  2  1  0
 23  8  1  0
 30 25  1  0
 16 11  1  0
M  END
>  <cnnaffinity>  (1) 
-6.25372

>  <filename>  (1) 
Cc1n[nH]cc1Cc1nc(-c2ccccc2)nn1Cc1cccnc1

$$$$
