
     RDKit          3D

 40 43  0  0  0  0  0  0  0  0999 V2000
    8.2882    4.2904   24.2397 C   0  0  0  0  0  0  0  0  0  0  0  0
    8.5128    3.3823   23.0869 C   0  0  0  0  0  0  0  0  0  0  0  0
    9.2257    2.2803   23.1157 N   0  0  0  0  0  0  0  0  0  0  0  0
    9.1483    1.7657   21.8524 C   0  0  0  0  0  0  0  0  0  0  0  0
    9.7171    0.4484   21.4806 C   0  0  0  0  0  0  0  0  0  0  0  0
    8.7066   -0.6259   21.7016 C   0  0  0  0  0  0  0  0  0  0  0  0
    8.8269   -1.5098   22.6463 N   0  0  0  0  0  0  0  0  0  0  0  0
    7.6295   -2.1637   22.6488 C   0  0  0  0  0  0  0  0  0  0  0  0
    7.3504   -3.1974   23.6698 C   0  0  0  0  0  0  0  0  0  0  0  0
    8.3871   -3.4834   24.5808 C   0  0  0  0  0  0  0  0  0  0  0  0
    8.2284   -4.4186   25.5951 C   0  0  0  0  0  0  0  0  0  0  0  0
    7.0090   -5.0822   25.6924 C   0  0  0  0  0  0  0  0  0  0  0  0
    6.8524   -5.9933   26.6652 F   0  0  0  0  0  0  0  0  0  0  0  0
    5.9511   -4.8236   24.8185 C   0  0  0  0  0  0  0  0  0  0  0  0
    6.1156   -3.8730   23.8032 C   0  0  0  0  0  0  0  0  0  0  0  0
    5.2852   -3.6503   23.1299 H   0  0  0  0  0  0  0  0  0  0  0  0
    5.0221   -5.3675   24.9646 H   0  0  0  0  0  0  0  0  0  0  0  0
    9.0234   -4.6257   26.3046 H   0  0  0  0  0  0  0  0  0  0  0  0
    9.3236   -2.9403   24.4780 H   0  0  0  0  0  0  0  0  0  0  0  0
    6.7906   -1.7489   21.7214 N   0  0  0  0  0  0  0  0  0  0  0  0
    7.4907   -0.7684   21.0828 N   0  0  0  0  0  0  0  0  0  0  0  0
    6.8423   -0.0693   20.0135 C   0  0  0  0  0  0  0  0  0  0  0  0
    5.6198    0.5717   20.2531 C   0  0  0  0  0  0  0  0  0  0  0  0
    4.9936    1.2324   19.1940 C   0  0  0  0  0  0  0  0  0  0  0  0
    5.5995    1.2271   17.9334 C   0  0  0  0  0  0  0  0  0  0  0  0
    6.7523    0.5845   17.6887 N   0  0  0  0  0  0  0  0  0  0  0  0
    7.3465   -0.0586   18.7023 C   0  0  0  0  0  0  0  0  0  0  0  0
    8.2535   -0.6055   18.4481 H   0  0  0  0  0  0  0  0  0  0  0  0
    5.1452    1.7553   17.0953 H   0  0  0  0  0  0  0  0  0  0  0  0
    4.0523    1.7521   19.3352 H   0  0  0  0  0  0  0  0  0  0  0  0
    5.1777    0.5264   21.2489 H   0  0  0  0  0  0  0  0  0  0  0  0
   10.5889    0.2297   22.0989 H   0  0  0  0  0  0  0  0  0  0  0  0
   10.0287    0.4374   20.4422 H   0  0  0  0  0  0  0  0  0  0  0  0
    8.3679    2.5377   21.0592 C   0  0  0  0  0  0  0  0  0  0  0  0
    7.9795    3.5986   21.8514 N   0  0  0  0  0  0  0  0  0  0  0  0
    7.4112    4.3899   21.5849 H   0  0  0  0  0  0  0  0  0  0  0  0
    8.0265    2.3451   20.0557 H   0  0  0  0  0  0  0  0  0  0  0  0
    7.3054    4.7628   24.1608 H   0  0  0  0  0  0  0  0  0  0  0  0
    9.0561    5.0705   24.2784 H   0  0  0  0  0  0  0  0  0  0  0  0
    8.3382    3.7123   25.1657 H   0  0  0  0  0  0  0  0  0  0  0  0
  1  2  1  0
  2  3  2  0
  3  4  1  0
  4  5  1  0
  5  6  1  0
  6  7  2  0
  7  8  1  0
  8  9  1  0
  9 10  2  0
 10 11  1  0
 11 12  2  0
 12 13  1  0
 12 14  1  0
 14 15  2  0
 15 16  1  0
 14 17  1  0
 11 18  1  0
 10 19  1  0
  8 20  2  0
 20 21  1  0
 21 22  1  0
 22 23  2  0
 23 24  1  0
 24 25  2  0
 25 26  1  0
 26 27  2  0
 27 28  1  0
 25 29  1  0
 24 30  1  0
 23 31  1  0
  5 32  1  0
  5 33  1  0
  4 34  2  0
 34 35  1  0
 35 36  1  0
 34 37  1  0
  1 38  1  0
  1 39  1  0
  1 40  1  0
 35  2  1  0
 21  6  1  0
 27 22  1  0
 15  9  1  0
M  END
>  <cnnaffinity>  (1) 
-5.95279

>  <filename>  (1) 
Cc1nc(Cc2nc(-c3ccc(F)cc3)nn2-c2cccnc2)c[nH]1

$$$$
