
     RDKit          3D

 43 46  0  0  0  0  0  0  0  0999 V2000
    5.7778   -1.4326   26.6300 C   0  0  0  0  0  0  0  0  0  0  0  0
    6.3366   -0.2512   25.9099 C   0  0  0  0  0  0  0  0  0  0  0  0
    5.9774    0.1561   24.7155 N   0  0  0  0  0  0  0  0  0  0  0  0
    6.7792    1.2281   24.4225 C   0  0  0  0  0  0  0  0  0  0  0  0
    6.7974    1.8057   23.0393 C   0  0  0  0  0  0  0  0  0  0  0  0
    7.8966    1.1070   22.3190 C   0  0  0  0  0  0  0  0  0  0  0  0
    9.1566    1.4335   22.4650 N   0  0  0  0  0  0  0  0  0  0  0  0
    9.8177    0.3191   22.0492 C   0  0  0  0  0  0  0  0  0  0  0  0
   11.2785    0.2201   22.2153 C   0  0  0  0  0  0  0  0  0  0  0  0
   11.9979   -0.8596   21.6804 C   0  0  0  0  0  0  0  0  0  0  0  0
   13.3744   -0.9124   21.8720 C   0  0  0  0  0  0  0  0  0  0  0  0
   14.2610   -2.2333   21.1916 Cl  0  0  0  0  0  0  0  0  0  0  0  0
   14.0467    0.0868   22.5774 C   0  0  0  0  0  0  0  0  0  0  0  0
   13.3293    1.1513   23.1225 C   0  0  0  0  0  0  0  0  0  0  0  0
   11.9495    1.2193   22.9493 C   0  0  0  0  0  0  0  0  0  0  0  0
   11.3708    2.0437   23.3542 H   0  0  0  0  0  0  0  0  0  0  0  0
   13.8506    1.9124   23.6986 H   0  0  0  0  0  0  0  0  0  0  0  0
   15.1196    0.0613   22.6614 H   0  0  0  0  0  0  0  0  0  0  0  0
   11.4967   -1.6609   21.1459 H   0  0  0  0  0  0  0  0  0  0  0  0
    9.0267   -0.6457   21.6027 N   0  0  0  0  0  0  0  0  0  0  0  0
    7.7887   -0.1279   21.7896 N   0  0  0  0  0  0  0  0  0  0  0  0
    6.5969   -0.7631   21.2388 C   0  0  0  0  0  0  0  0  0  0  0  0
    6.0977   -0.0477   19.9955 C   0  0  0  0  0  0  0  0  0  0  0  0
    4.8905    0.6589   19.9254 C   0  0  0  0  0  0  0  0  0  0  0  0
    4.6067    1.3947   18.7695 C   0  0  0  0  0  0  0  0  0  0  0  0
    5.5218    1.3681   17.7140 C   0  0  0  0  0  0  0  0  0  0  0  0
    6.6676    0.6727   17.7472 N   0  0  0  0  0  0  0  0  0  0  0  0
    6.9415    0.0020   18.8716 C   0  0  0  0  0  0  0  0  0  0  0  0
    7.8938   -0.5303   18.8961 H   0  0  0  0  0  0  0  0  0  0  0  0
    5.3231    1.9165   16.7937 H   0  0  0  0  0  0  0  0  0  0  0  0
    3.7176    2.0099   18.6873 H   0  0  0  0  0  0  0  0  0  0  0  0
    4.1762    0.6521   20.7544 H   0  0  0  0  0  0  0  0  0  0  0  0
    5.8437   -0.7724   22.0306 H   0  0  0  0  0  0  0  0  0  0  0  0
    6.8761   -1.8031   21.0446 H   0  0  0  0  0  0  0  0  0  0  0  0
    7.0345    2.8699   23.0569 H   0  0  0  0  0  0  0  0  0  0  0  0
    5.8424    1.6447   22.5384 H   0  0  0  0  0  0  0  0  0  0  0  0
    7.6408    1.4726   25.4510 C   0  0  0  0  0  0  0  0  0  0  0  0
    7.3473    0.5155   26.4021 N   0  0  0  0  0  0  0  0  0  0  0  0
    7.8356    0.3344   27.2666 H   0  0  0  0  0  0  0  0  0  0  0  0
    8.4799    2.1545   25.4983 H   0  0  0  0  0  0  0  0  0  0  0  0
    4.7987   -1.6704   26.2106 H   0  0  0  0  0  0  0  0  0  0  0  0
    6.4268   -2.3067   26.5013 H   0  0  0  0  0  0  0  0  0  0  0  0
    5.6733   -1.2368   27.7014 H   0  0  0  0  0  0  0  0  0  0  0  0
  1  2  1  0
  2  3  2  0
  3  4  1  0
  4  5  1  0
  5  6  1  0
  6  7  2  0
  7  8  1  0
  8  9  1  0
  9 10  2  0
 10 11  1  0
 11 12  1  0
 11 13  2  0
 13 14  1  0
 14 15  2  0
 15 16  1  0
 14 17  1  0
 13 18  1  0
 10 19  1  0
  8 20  2  0
 20 21  1  0
 21 22  1  0
 22 23  1  0
 23 24  2  0
 24 25  1  0
 25 26  2  0
 26 27  1  0
 27 28  2  0
 28 29  1  0
 26 30  1  0
 25 31  1  0
 24 32  1  0
 22 33  1  0
 22 34  1  0
  5 35  1  0
  5 36  1  0
  4 37  2  0
 37 38  1  0
 38 39  1  0
 37 40  1  0
  1 41  1  0
  1 42  1  0
  1 43  1  0
 38  2  1  0
 21  6  1  0
 28 23  1  0
 15  9  1  0
M  END
>  <cnnaffinity>  (1) 
-6.53588

>  <filename>  (1) 
Cc1nc(Cc2nc(-c3cccc(Cl)c3)nn2Cc2cccnc2)c[nH]1

$$$$
