
     RDKit          3D

 35 37  0  0  0  0  0  0  0  0999 V2000
    7.4327   -2.9057   23.6816 C   0  0  0  0  0  0  0  0  0  0  0  0
    7.6679   -1.9375   22.5774 C   0  0  0  0  0  0  0  0  0  0  0  0
    6.7375   -1.5997   21.7080 N   0  0  0  0  0  0  0  0  0  0  0  0
    7.3611   -0.6718   20.9430 N   0  0  0  0  0  0  0  0  0  0  0  0
    6.6612    0.0038   19.9034 C   0  0  0  0  0  0  0  0  0  0  0  0
    5.4445    0.6459   20.1652 C   0  0  0  0  0  0  0  0  0  0  0  0
    4.8116    1.3117   19.1104 C   0  0  0  0  0  0  0  0  0  0  0  0
    5.4019    1.2944   17.8404 C   0  0  0  0  0  0  0  0  0  0  0  0
    6.5637    0.6760   17.5818 N   0  0  0  0  0  0  0  0  0  0  0  0
    7.1733    0.0552   18.5968 C   0  0  0  0  0  0  0  0  0  0  0  0
    8.1187   -0.4352   18.3740 H   0  0  0  0  0  0  0  0  0  0  0  0
    4.9133    1.7801   16.9969 H   0  0  0  0  0  0  0  0  0  0  0  0
    3.8766    1.8416   19.2649 H   0  0  0  0  0  0  0  0  0  0  0  0
    5.0124    0.6137   21.1678 H   0  0  0  0  0  0  0  0  0  0  0  0
    8.6305   -0.4855   21.4157 C   0  0  0  0  0  0  0  0  0  0  0  0
    9.5282    0.6134   20.9393 C   0  0  0  0  0  0  0  0  0  0  0  0
    9.0538    2.0201   21.3830 C   0  0  0  0  0  0  0  0  0  0  0  0
    8.9317    2.1288   22.8854 C   0  0  0  0  0  0  0  0  0  0  0  0
    7.7009    1.8958   23.5147 C   0  0  0  0  0  0  0  0  0  0  0  0
    7.6024    1.9281   24.9024 C   0  0  0  0  0  0  0  0  0  0  0  0
    8.7607    2.1831   25.6380 C   0  0  0  0  0  0  0  0  0  0  0  0
    9.9596    2.3871   25.0758 N   0  0  0  0  0  0  0  0  0  0  0  0
   10.0233    2.3472   23.7548 C   0  0  0  0  0  0  0  0  0  0  0  0
   11.6082    2.6059   23.0871 Cl  0  0  0  0  0  0  0  0  0  0  0  0
    8.7235    2.2291   26.7197 H   0  0  0  0  0  0  0  0  0  0  0  0
    6.6558    1.7626   25.4010 H   0  0  0  0  0  0  0  0  0  0  0  0
    6.8260    1.6736   22.9032 H   0  0  0  0  0  0  0  0  0  0  0  0
    8.0801    2.2334   20.9225 H   0  0  0  0  0  0  0  0  0  0  0  0
    9.7557    2.7682   21.0042 H   0  0  0  0  0  0  0  0  0  0  0  0
    9.6039    0.5849   19.8494 H   0  0  0  0  0  0  0  0  0  0  0  0
   10.5220    0.4081   21.3414 H   0  0  0  0  0  0  0  0  0  0  0  0
    8.8578   -1.2917   22.4311 N   0  0  0  0  0  0  0  0  0  0  0  0
    6.6982   -3.6512   23.3834 H   0  0  0  0  0  0  0  0  0  0  0  0
    7.0539   -2.3776   24.5596 H   0  0  0  0  0  0  0  0  0  0  0  0
    8.3632   -3.3949   23.9641 H   0  0  0  0  0  0  0  0  0  0  0  0
  1  2  1  0
  2  3  2  0
  3  4  1  0
  4  5  1  0
  5  6  2  0
  6  7  1  0
  7  8  2  0
  8  9  1  0
  9 10  2  0
 10 11  1  0
  8 12  1  0
  7 13  1  0
  6 14  1  0
  4 15  1  0
 15 16  1  0
 16 17  1  0
 17 18  1  0
 18 19  2  0
 19 20  1  0
 20 21  2  0
 21 22  1  0
 22 23  2  0
 23 24  1  0
 21 25  1  0
 20 26  1  0
 19 27  1  0
 17 28  1  0
 17 29  1  0
 16 30  1  0
 16 31  1  0
 15 32  2  0
  1 33  1  0
  1 34  1  0
  1 35  1  0
 32  2  1  0
 10  5  1  0
 23 18  1  0
M  END
>  <cnnaffinity>  (1) 
-5.73194

>  <filename>  (1) 
Cc1nc(CCc2cccnc2Cl)n(-c2cccnc2)n1

$$$$
