
     RDKit          3D

 39 42  0  0  0  0  0  0  0  0999 V2000
    8.2249    4.2103   24.2690 C   0  0  0  0  0  0  0  0  0  0  0  0
    8.4683    3.3323   23.0963 C   0  0  0  0  0  0  0  0  0  0  0  0
    9.2116    2.2524   23.0944 N   0  0  0  0  0  0  0  0  0  0  0  0
    9.1204    1.7447   21.8293 C   0  0  0  0  0  0  0  0  0  0  0  0
    9.7158    0.4373   21.4721 C   0  0  0  0  0  0  0  0  0  0  0  0
    8.7234   -0.6519   21.7039 C   0  0  0  0  0  0  0  0  0  0  0  0
    8.8643   -1.5304   22.6511 N   0  0  0  0  0  0  0  0  0  0  0  0
    7.6717   -2.1746   22.6786 C   0  0  0  0  0  0  0  0  0  0  0  0
    7.4209   -3.1818   23.6986 C   0  0  0  0  0  0  0  0  0  0  0  0
    8.4296   -3.4901   24.6272 C   0  0  0  0  0  0  0  0  0  0  0  0
    8.1748   -4.4432   25.5996 C   0  0  0  0  0  0  0  0  0  0  0  0
    6.9139   -5.0542   25.5914 C   0  0  0  0  0  0  0  0  0  0  0  0
    6.5932   -6.2770   26.7856 Cl  0  0  0  0  0  0  0  0  0  0  0  0
    5.9463   -4.7659   24.7344 N   0  0  0  0  0  0  0  0  0  0  0  0
    6.1887   -3.8308   23.8027 C   0  0  0  0  0  0  0  0  0  0  0  0
    5.3619   -3.6067   23.1269 H   0  0  0  0  0  0  0  0  0  0  0  0
    8.9143   -4.7086   26.3413 H   0  0  0  0  0  0  0  0  0  0  0  0
    9.3859   -2.9697   24.5659 H   0  0  0  0  0  0  0  0  0  0  0  0
    6.8067   -1.7714   21.7711 N   0  0  0  0  0  0  0  0  0  0  0  0
    7.4957   -0.7998   21.1062 N   0  0  0  0  0  0  0  0  0  0  0  0
    6.8320   -0.1148   20.0370 C   0  0  0  0  0  0  0  0  0  0  0  0
    5.6070    0.5219   20.2745 C   0  0  0  0  0  0  0  0  0  0  0  0
    4.9937    1.1995   19.2185 C   0  0  0  0  0  0  0  0  0  0  0  0
    5.6140    1.2079   17.9642 C   0  0  0  0  0  0  0  0  0  0  0  0
    6.7658    0.5644   17.7212 N   0  0  0  0  0  0  0  0  0  0  0  0
    7.3471   -0.0967   18.7296 C   0  0  0  0  0  0  0  0  0  0  0  0
    8.2500   -0.6517   18.4781 H   0  0  0  0  0  0  0  0  0  0  0  0
    5.1727    1.7506   17.1306 H   0  0  0  0  0  0  0  0  0  0  0  0
    4.0522    1.7189   19.3557 H   0  0  0  0  0  0  0  0  0  0  0  0
    5.1611    0.4682   21.2690 H   0  0  0  0  0  0  0  0  0  0  0  0
   10.0312    0.4201   20.4354 H   0  0  0  0  0  0  0  0  0  0  0  0
   10.5842    0.2471   22.1092 H   0  0  0  0  0  0  0  0  0  0  0  0
    8.3010    2.5052   21.0629 C   0  0  0  0  0  0  0  0  0  0  0  0
    7.8919    3.5363   21.8816 N   0  0  0  0  0  0  0  0  0  0  0  0
    7.2826    4.3027   21.6357 H   0  0  0  0  0  0  0  0  0  0  0  0
    7.9757    2.3262   20.0545 H   0  0  0  0  0  0  0  0  0  0  0  0
    8.8561    3.8721   25.0931 H   0  0  0  0  0  0  0  0  0  0  0  0
    7.1786    4.1349   24.5780 H   0  0  0  0  0  0  0  0  0  0  0  0
    8.4525    5.2574   24.0471 H   0  0  0  0  0  0  0  0  0  0  0  0
  1  2  1  0
  2  3  2  0
  3  4  1  0
  4  5  1  0
  5  6  1  0
  6  7  2  0
  7  8  1  0
  8  9  1  0
  9 10  2  0
 10 11  1  0
 11 12  2  0
 12 13  1  0
 12 14  1  0
 14 15  2  0
 15 16  1  0
 11 17  1  0
 10 18  1  0
  8 19  2  0
 19 20  1  0
 20 21  1  0
 21 22  2  0
 22 23  1  0
 23 24  2  0
 24 25  1  0
 25 26  2  0
 26 27  1  0
 24 28  1  0
 23 29  1  0
 22 30  1  0
  5 31  1  0
  5 32  1  0
  4 33  2  0
 33 34  1  0
 34 35  1  0
 33 36  1  0
  1 37  1  0
  1 38  1  0
  1 39  1  0
 34  2  1  0
 20  6  1  0
 26 21  1  0
 15  9  1  0
M  END
>  <cnnaffinity>  (1) 
-6.02371

>  <filename>  (1) 
Cc1nc(Cc2nc(-c3ccc(Cl)nc3)nn2-c2cccnc2)c[nH]1

$$$$
