
     RDKit          3D

 46 49  0  0  0  0  0  0  0  0999 V2000
   11.2000   -1.5235   21.6638 C   0  0  0  0  0  0  0  0  0  0  0  0
   11.8161   -0.1729   21.8624 C   0  0  0  0  0  0  0  0  0  0  0  0
   13.0123   -0.0179   22.4249 N   0  0  0  0  0  0  0  0  0  0  0  0
   13.1688    1.3166   22.5163 N   0  0  0  0  0  0  0  0  0  0  0  0
   12.1226    2.0206   22.0268 C   0  0  0  0  0  0  0  0  0  0  0  0
   11.9915    3.5051   22.0905 C   0  0  0  0  0  0  0  0  0  0  0  0
   11.9093    3.9245   21.0825 H   0  0  0  0  0  0  0  0  0  0  0  0
   11.0634    3.7409   22.6264 H   0  0  0  0  0  0  0  0  0  0  0  0
   12.8329    3.9831   22.6028 H   0  0  0  0  0  0  0  0  0  0  0  0
   11.2284    1.0841   21.5599 C   0  0  0  0  0  0  0  0  0  0  0  0
    9.8348    1.3920   21.0576 C   0  0  0  0  0  0  0  0  0  0  0  0
    8.7788    1.1767   22.0926 C   0  0  0  0  0  0  0  0  0  0  0  0
    8.7174    1.8883   23.1976 N   0  0  0  0  0  0  0  0  0  0  0  0
    7.6684    1.3443   23.8681 C   0  0  0  0  0  0  0  0  0  0  0  0
    7.2228    1.8557   25.1810 C   0  0  0  0  0  0  0  0  0  0  0  0
    6.0883    1.3114   25.8173 C   0  0  0  0  0  0  0  0  0  0  0  0
    5.7213    1.8121   27.0604 C   0  0  0  0  0  0  0  0  0  0  0  0
    4.6454    1.2938   27.6731 F   0  0  0  0  0  0  0  0  0  0  0  0
    6.4321    2.8312   27.6932 C   0  0  0  0  0  0  0  0  0  0  0  0
    7.5515    3.3697   27.0491 C   0  0  0  0  0  0  0  0  0  0  0  0
    7.9507    2.8913   25.8015 C   0  0  0  0  0  0  0  0  0  0  0  0
    8.8262    3.3003   25.2998 H   0  0  0  0  0  0  0  0  0  0  0  0
    8.1206    4.1669   27.5187 H   0  0  0  0  0  0  0  0  0  0  0  0
    6.1014    3.1791   28.6653 H   0  0  0  0  0  0  0  0  0  0  0  0
    5.5139    0.5058   25.3632 H   0  0  0  0  0  0  0  0  0  0  0  0
    7.0838    0.3440   23.2274 N   0  0  0  0  0  0  0  0  0  0  0  0
    7.8064    0.2331   22.0901 N   0  0  0  0  0  0  0  0  0  0  0  0
    7.3791   -0.6893   21.0340 C   0  0  0  0  0  0  0  0  0  0  0  0
    6.6572   -0.0038   19.8809 C   0  0  0  0  0  0  0  0  0  0  0  0
    5.4420    0.6547   20.1250 C   0  0  0  0  0  0  0  0  0  0  0  0
    4.8057    1.3109   19.0706 C   0  0  0  0  0  0  0  0  0  0  0  0
    5.4080    1.2961   17.8107 C   0  0  0  0  0  0  0  0  0  0  0  0
    6.5575    0.6572   17.5471 N   0  0  0  0  0  0  0  0  0  0  0  0
    7.1562    0.0275   18.5673 C   0  0  0  0  0  0  0  0  0  0  0  0
    8.0920   -0.4759   18.3111 H   0  0  0  0  0  0  0  0  0  0  0  0
    4.9474    1.8216   16.9771 H   0  0  0  0  0  0  0  0  0  0  0  0
    3.8704    1.8438   19.2111 H   0  0  0  0  0  0  0  0  0  0  0  0
    5.0159    0.6700   21.1303 H   0  0  0  0  0  0  0  0  0  0  0  0
    8.2495   -1.2589   20.6852 H   0  0  0  0  0  0  0  0  0  0  0  0
    6.7161   -1.4067   21.5296 H   0  0  0  0  0  0  0  0  0  0  0  0
    9.7711    2.4539   20.7811 H   0  0  0  0  0  0  0  0  0  0  0  0
    9.5909    0.8170   20.1619 H   0  0  0  0  0  0  0  0  0  0  0  0
   14.0383    1.6845   22.8699 H   0  0  0  0  0  0  0  0  0  0  0  0
   10.5805   -1.7858   22.5292 H   0  0  0  0  0  0  0  0  0  0  0  0
   11.9567   -2.2948   21.5362 H   0  0  0  0  0  0  0  0  0  0  0  0
   10.5445   -1.5413   20.7874 H   0  0  0  0  0  0  0  0  0  0  0  0
  1  2  1  0
  2  3  2  0
  3  4  1  0
  4  5  1  0
  5  6  1  0
  6  7  1  0
  6  8  1  0
  6  9  1  0
  5 10  2  0
 10 11  1  0
 11 12  1  0
 12 13  2  0
 13 14  1  0
 14 15  1  0
 15 16  2  0
 16 17  1  0
 17 18  1  0
 17 19  2  0
 19 20  1  0
 20 21  2  0
 21 22  1  0
 20 23  1  0
 19 24  1  0
 16 25  1  0
 14 26  2  0
 26 27  1  0
 27 28  1  0
 28 29  1  0
 29 30  2  0
 30 31  1  0
 31 32  2  0
 32 33  1  0
 33 34  2  0
 34 35  1  0
 32 36  1  0
 31 37  1  0
 30 38  1  0
 28 39  1  0
 28 40  1  0
 11 41  1  0
 11 42  1  0
  4 43  1  0
  1 44  1  0
  1 45  1  0
  1 46  1  0
 10  2  1  0
 27 12  1  0
 34 29  1  0
 21 15  1  0
M  END
>  <cnnaffinity>  (1) 
-6.42118

>  <filename>  (1) 
Cc1n[nH]c(C)c1Cc1nc(-c2cccc(F)c2)nn1Cc1cccnc1

$$$$
