
     RDKit          3D

 42 45  0  0  0  0  0  0  0  0999 V2000
    5.5954   -1.3085   26.7045 C   0  0  0  0  0  0  0  0  0  0  0  0
    6.0631   -0.1577   25.8863 C   0  0  0  0  0  0  0  0  0  0  0  0
    5.8399    0.0795   24.6342 N   0  0  0  0  0  0  0  0  0  0  0  0
    6.5811    1.2150   24.3451 C   0  0  0  0  0  0  0  0  0  0  0  0
    6.6627    1.6651   22.9134 C   0  0  0  0  0  0  0  0  0  0  0  0
    7.7564    0.8916   22.2493 C   0  0  0  0  0  0  0  0  0  0  0  0
    9.0176    1.1738   22.4678 N   0  0  0  0  0  0  0  0  0  0  0  0
    9.6766    0.0635   22.0298 C   0  0  0  0  0  0  0  0  0  0  0  0
   11.1520   -0.0248   22.2027 C   0  0  0  0  0  0  0  0  0  0  0  0
   11.7702    1.0254   22.9075 C   0  0  0  0  0  0  0  0  0  0  0  0
   13.1331    0.9858   23.1295 C   0  0  0  0  0  0  0  0  0  0  0  0
   13.7021    1.9541   23.8565 F   0  0  0  0  0  0  0  0  0  0  0  0
   13.9356   -0.0360   22.6500 C   0  0  0  0  0  0  0  0  0  0  0  0
   13.3172   -1.0596   21.9421 C   0  0  0  0  0  0  0  0  0  0  0  0
   14.0942   -2.0389   21.4580 F   0  0  0  0  0  0  0  0  0  0  0  0
   11.9409   -1.0933   21.7208 C   0  0  0  0  0  0  0  0  0  0  0  0
   11.5167   -1.9252   21.1707 H   0  0  0  0  0  0  0  0  0  0  0  0
   14.9929   -0.0019   22.8450 H   0  0  0  0  0  0  0  0  0  0  0  0
   11.1888    1.8602   23.2811 H   0  0  0  0  0  0  0  0  0  0  0  0
    8.8849   -0.8659   21.5221 N   0  0  0  0  0  0  0  0  0  0  0  0
    7.6525   -0.3183   21.6646 N   0  0  0  0  0  0  0  0  0  0  0  0
    6.4603   -0.9039   21.0662 C   0  0  0  0  0  0  0  0  0  0  0  0
    5.9995   -0.1284   19.8484 C   0  0  0  0  0  0  0  0  0  0  0  0
    4.8131    0.6079   19.7870 C   0  0  0  0  0  0  0  0  0  0  0  0
    4.5711    1.4003   18.6601 C   0  0  0  0  0  0  0  0  0  0  0  0
    5.5141    1.4097   17.6306 C   0  0  0  0  0  0  0  0  0  0  0  0
    6.6353    0.6741   17.6476 N   0  0  0  0  0  0  0  0  0  0  0  0
    6.8598   -0.0629   18.7402 C   0  0  0  0  0  0  0  0  0  0  0  0
    7.7895   -0.6303   18.7570 H   0  0  0  0  0  0  0  0  0  0  0  0
    5.3579    2.0247   16.7460 H   0  0  0  0  0  0  0  0  0  0  0  0
    3.6929    2.0312   18.5880 H   0  0  0  0  0  0  0  0  0  0  0  0
    4.0931    0.5782   20.6066 H   0  0  0  0  0  0  0  0  0  0  0  0
    5.6947   -0.9267   21.8450 H   0  0  0  0  0  0  0  0  0  0  0  0
    6.7256   -1.9359   20.8198 H   0  0  0  0  0  0  0  0  0  0  0  0
    6.9140    2.7258   22.8456 H   0  0  0  0  0  0  0  0  0  0  0  0
    5.7027    1.4854   22.4248 H   0  0  0  0  0  0  0  0  0  0  0  0
    7.2467    1.5932   25.4605 C   0  0  0  0  0  0  0  0  0  0  0  0
    6.9153    0.7192   26.4630 O   0  0  0  0  0  0  0  0  0  0  0  0
    7.9569    2.3680   25.7221 H   0  0  0  0  0  0  0  0  0  0  0  0
    5.6422   -1.0850   27.7702 H   0  0  0  0  0  0  0  0  0  0  0  0
    4.5802   -1.5924   26.4282 H   0  0  0  0  0  0  0  0  0  0  0  0
    6.2480   -2.1625   26.4978 H   0  0  0  0  0  0  0  0  0  0  0  0
  1  2  1  0
  2  3  2  0
  3  4  1  0
  4  5  1  0
  5  6  1  0
  6  7  2  0
  7  8  1  0
  8  9  1  0
  9 10  2  0
 10 11  1  0
 11 12  1  0
 11 13  2  0
 13 14  1  0
 14 15  1  0
 14 16  2  0
 16 17  1  0
 13 18  1  0
 10 19  1  0
  8 20  2  0
 20 21  1  0
 21 22  1  0
 22 23  1  0
 23 24  2  0
 24 25  1  0
 25 26  2  0
 26 27  1  0
 27 28  2  0
 28 29  1  0
 26 30  1  0
 25 31  1  0
 24 32  1  0
 22 33  1  0
 22 34  1  0
  5 35  1  0
  5 36  1  0
  4 37  2  0
 37 38  1  0
 37 39  1  0
  1 40  1  0
  1 41  1  0
  1 42  1  0
 38  2  1  0
 21  6  1  0
 28 23  1  0
 16  9  1  0
M  END
>  <cnnaffinity>  (1) 
-6.42998

>  <filename>  (1) 
Cc1nc(Cc2nc(-c3cc(F)cc(F)c3)nn2Cc2cccnc2)co1

$$$$
