
     RDKit          3D

 43 46  0  0  0  0  0  0  0  0999 V2000
    7.8028    2.8197   22.0338 C   0  0  0  0  0  0  0  0  0  0  0  0
    9.1809    2.4060   22.4065 C   0  0  0  0  0  0  0  0  0  0  0  0
   10.0060    1.4267   21.9494 C   0  0  0  0  0  0  0  0  0  0  0  0
    9.6587    0.3732   20.9135 C   0  0  0  0  0  0  0  0  0  0  0  0
    8.6115   -0.5902   21.3792 C   0  0  0  0  0  0  0  0  0  0  0  0
    8.8158   -1.4514   22.3537 N   0  0  0  0  0  0  0  0  0  0  0  0
    7.6000   -2.0302   22.5227 C   0  0  0  0  0  0  0  0  0  0  0  0
    7.3713   -3.0502   23.6030 C   0  0  0  0  0  0  0  0  0  0  0  0
    6.3204   -4.1183   23.2555 C   0  0  0  0  0  0  0  0  0  0  0  0
    6.6184   -5.3158   24.1739 C   0  0  0  0  0  0  0  0  0  0  0  0
    8.0852   -5.1556   24.6463 C   0  0  0  0  0  0  0  0  0  0  0  0
    8.6203   -3.8704   23.9896 C   0  0  0  0  0  0  0  0  0  0  0  0
    9.1942   -4.1039   23.0874 H   0  0  0  0  0  0  0  0  0  0  0  0
    9.2897   -3.3077   24.6483 H   0  0  0  0  0  0  0  0  0  0  0  0
    8.1186   -5.0709   25.7378 H   0  0  0  0  0  0  0  0  0  0  0  0
    8.7024   -6.0244   24.3923 H   0  0  0  0  0  0  0  0  0  0  0  0
    6.4510   -6.2610   23.6476 H   0  0  0  0  0  0  0  0  0  0  0  0
    5.9448   -5.3222   25.0373 H   0  0  0  0  0  0  0  0  0  0  0  0
    5.3013   -3.7340   23.3587 H   0  0  0  0  0  0  0  0  0  0  0  0
    6.4476   -4.4039   22.2068 H   0  0  0  0  0  0  0  0  0  0  0  0
    7.0468   -2.4756   24.4819 H   0  0  0  0  0  0  0  0  0  0  0  0
    6.6656   -1.6034   21.6890 N   0  0  0  0  0  0  0  0  0  0  0  0
    7.3257   -0.6910   20.9249 N   0  0  0  0  0  0  0  0  0  0  0  0
    6.6334   -0.0278   19.8687 C   0  0  0  0  0  0  0  0  0  0  0  0
    5.4198    0.6187   20.1291 C   0  0  0  0  0  0  0  0  0  0  0  0
    4.7963    1.3094   19.0859 C   0  0  0  0  0  0  0  0  0  0  0  0
    5.3910    1.3060   17.8178 C   0  0  0  0  0  0  0  0  0  0  0  0
    6.5273    0.6464   17.5434 N   0  0  0  0  0  0  0  0  0  0  0  0
    7.1320    0.0005   18.5509 C   0  0  0  0  0  0  0  0  0  0  0  0
    8.0623   -0.5102   18.3023 H   0  0  0  0  0  0  0  0  0  0  0  0
    4.9373    1.8521   16.9946 H   0  0  0  0  0  0  0  0  0  0  0  0
    3.8731    1.8567   19.2468 H   0  0  0  0  0  0  0  0  0  0  0  0
    4.9956    0.5706   21.1341 H   0  0  0  0  0  0  0  0  0  0  0  0
    9.3367    0.8274   19.9749 H   0  0  0  0  0  0  0  0  0  0  0  0
   10.5439   -0.2270   20.6913 H   0  0  0  0  0  0  0  0  0  0  0  0
   11.1609    1.4610   22.8034 C   0  0  0  0  0  0  0  0  0  0  0  0
   10.9473    2.4517   23.7023 C   0  0  0  0  0  0  0  0  0  0  0  0
    9.7420    3.0313   23.4761 O   0  0  0  0  0  0  0  0  0  0  0  0
   11.4995    2.8275   24.5521 H   0  0  0  0  0  0  0  0  0  0  0  0
   12.0124    0.7976   22.7558 H   0  0  0  0  0  0  0  0  0  0  0  0
    7.6724    2.7014   20.9582 H   0  0  0  0  0  0  0  0  0  0  0  0
    7.0664    2.1685   22.5186 H   0  0  0  0  0  0  0  0  0  0  0  0
    7.5892    3.8517   22.3159 H   0  0  0  0  0  0  0  0  0  0  0  0
  1  2  1  0
  2  3  2  0
  3  4  1  0
  4  5  1  0
  5  6  2  0
  6  7  1  0
  7  8  1  0
  8  9  1  0
  9 10  1  0
 10 11  1  0
 11 12  1  0
 12 13  1  0
 12 14  1  0
 11 15  1  0
 11 16  1  0
 10 17  1  0
 10 18  1  0
  9 19  1  0
  9 20  1  0
  8 21  1  0
  7 22  2  0
 22 23  1  0
 23 24  1  0
 24 25  2  0
 25 26  1  0
 26 27  2  0
 27 28  1  0
 28 29  2  0
 29 30  1  0
 27 31  1  0
 26 32  1  0
 25 33  1  0
  4 34  1  0
  4 35  1  0
  3 36  1  0
 36 37  2  0
 37 38  1  0
 37 39  1  0
 36 40  1  0
  1 41  1  0
  1 42  1  0
  1 43  1  0
 38  2  1  0
 23  5  1  0
 29 24  1  0
 12  8  1  0
M  END
>  <cnnaffinity>  (1) 
-6.38291

>  <filename>  (1) 
Cc1occc1Cc1nc(C2CCCC2)nn1-c1cccnc1

$$$$
