
     RDKit          3D

 42 45  0  0  0  0  0  0  0  0999 V2000
    9.4643    1.2483   25.3784 C   0  0  0  0  0  0  0  0  0  0  0  0
    8.0187    0.9441   25.1854 C   0  0  0  0  0  0  0  0  0  0  0  0
    7.1227    1.2304   24.1969 C   0  0  0  0  0  0  0  0  0  0  0  0
    7.4530    1.8947   22.8719 C   0  0  0  0  0  0  0  0  0  0  0  0
    8.4486    1.0756   22.0952 C   0  0  0  0  0  0  0  0  0  0  0  0
    9.7641    1.2069   22.1484 N   0  0  0  0  0  0  0  0  0  0  0  0
   10.2096    0.0247   21.6637 C   0  0  0  0  0  0  0  0  0  0  0  0
   11.5990   -0.3810   21.6795 C   0  0  0  0  0  0  0  0  0  0  0  0
   12.6291    0.4151   22.2058 C   0  0  0  0  0  0  0  0  0  0  0  0
   13.9196   -0.0753   22.0726 C   0  0  0  0  0  0  0  0  0  0  0  0
   14.9588    0.6590   22.4692 F   0  0  0  0  0  0  0  0  0  0  0  0
   14.1343   -1.3185   21.4660 C   0  0  0  0  0  0  0  0  0  0  0  0
   13.1393   -2.0744   21.0090 N   0  0  0  0  0  0  0  0  0  0  0  0
   11.8898   -1.6332   21.1370 C   0  0  0  0  0  0  0  0  0  0  0  0
   11.0857   -2.2833   20.8008 H   0  0  0  0  0  0  0  0  0  0  0  0
   15.1212   -1.7132   21.3145 H   0  0  0  0  0  0  0  0  0  0  0  0
   12.4484    1.3699   22.6935 H   0  0  0  0  0  0  0  0  0  0  0  0
    9.2579   -0.7881   21.2405 N   0  0  0  0  0  0  0  0  0  0  0  0
    8.1316   -0.1161   21.5455 N   0  0  0  0  0  0  0  0  0  0  0  0
    6.8473   -0.6439   21.1169 C   0  0  0  0  0  0  0  0  0  0  0  0
    6.2895    0.1006   19.9280 C   0  0  0  0  0  0  0  0  0  0  0  0
    5.0745    0.7851   19.9784 C   0  0  0  0  0  0  0  0  0  0  0  0
    4.6243    1.4367   18.8282 C   0  0  0  0  0  0  0  0  0  0  0  0
    5.4241    1.3972   17.6821 C   0  0  0  0  0  0  0  0  0  0  0  0
    6.6023    0.7572   17.6163 N   0  0  0  0  0  0  0  0  0  0  0  0
    7.0178    0.1361   18.7256 C   0  0  0  0  0  0  0  0  0  0  0  0
    7.9846   -0.3641   18.6680 H   0  0  0  0  0  0  0  0  0  0  0  0
    5.1126    1.9086   16.7749 H   0  0  0  0  0  0  0  0  0  0  0  0
    3.6875    1.9823   18.8129 H   0  0  0  0  0  0  0  0  0  0  0  0
    4.5002    0.8208   20.9075 H   0  0  0  0  0  0  0  0  0  0  0  0
    7.0312   -1.6990   20.8860 H   0  0  0  0  0  0  0  0  0  0  0  0
    6.1605   -0.6076   21.9672 H   0  0  0  0  0  0  0  0  0  0  0  0
    7.8863    2.8898   23.0193 H   0  0  0  0  0  0  0  0  0  0  0  0
    6.5400    2.0327   22.2852 H   0  0  0  0  0  0  0  0  0  0  0  0
    5.8882    0.6159   24.5848 C   0  0  0  0  0  0  0  0  0  0  0  0
    6.1320   -0.0222   25.7601 C   0  0  0  0  0  0  0  0  0  0  0  0
    7.4234    0.1670   26.1304 O   0  0  0  0  0  0  0  0  0  0  0  0
    5.5424   -0.6448   26.4143 H   0  0  0  0  0  0  0  0  0  0  0  0
    4.9496    0.6461   24.0490 H   0  0  0  0  0  0  0  0  0  0  0  0
   10.0723    0.4811   24.8880 H   0  0  0  0  0  0  0  0  0  0  0  0
    9.7366    1.2784   26.4330 H   0  0  0  0  0  0  0  0  0  0  0  0
    9.7245    2.1935   24.8950 H   0  0  0  0  0  0  0  0  0  0  0  0
  1  2  1  0
  2  3  2  0
  3  4  1  0
  4  5  1  0
  5  6  2  0
  6  7  1  0
  7  8  1  0
  8  9  2  0
  9 10  1  0
 10 11  1  0
 10 12  2  0
 12 13  1  0
 13 14  2  0
 14 15  1  0
 12 16  1  0
  9 17  1  0
  7 18  2  0
 18 19  1  0
 19 20  1  0
 20 21  1  0
 21 22  2  0
 22 23  1  0
 23 24  2  0
 24 25  1  0
 25 26  2  0
 26 27  1  0
 24 28  1  0
 23 29  1  0
 22 30  1  0
 20 31  1  0
 20 32  1  0
  4 33  1  0
  4 34  1  0
  3 35  1  0
 35 36  2  0
 36 37  1  0
 36 38  1  0
 35 39  1  0
  1 40  1  0
  1 41  1  0
  1 42  1  0
 37  2  1  0
 19  5  1  0
 26 21  1  0
 14  8  1  0
M  END
>  <cnnaffinity>  (1) 
-6.59233

>  <filename>  (1) 
Cc1occc1Cc1nc(-c2cncc(F)c2)nn1Cc1cccnc1

$$$$
