
     RDKit          3D

 42 45  0  0  0  0  0  0  0  0999 V2000
   11.2009   -1.5552   21.7828 C   0  0  0  0  0  0  0  0  0  0  0  0
   11.7389   -0.1702   21.8248 C   0  0  0  0  0  0  0  0  0  0  0  0
   11.2264    1.0466   21.4883 C   0  0  0  0  0  0  0  0  0  0  0  0
    9.8270    1.3811   21.0129 C   0  0  0  0  0  0  0  0  0  0  0  0
    8.7801    1.1513   22.0594 C   0  0  0  0  0  0  0  0  0  0  0  0
    8.7251    1.8603   23.1665 N   0  0  0  0  0  0  0  0  0  0  0  0
    7.6960    1.3025   23.8519 C   0  0  0  0  0  0  0  0  0  0  0  0
    7.2419    1.8641   25.1618 C   0  0  0  0  0  0  0  0  0  0  0  0
    6.1292    1.3506   25.8580 C   0  0  0  0  0  0  0  0  0  0  0  0
    5.7573    1.9383   27.0655 C   0  0  0  0  0  0  0  0  0  0  0  0
    6.3377    3.0339   27.5747 N   0  0  0  0  0  0  0  0  0  0  0  0
    7.3598    3.5284   26.8958 C   0  0  0  0  0  0  0  0  0  0  0  0
    8.0436    5.0013   27.4959 Cl  0  0  0  0  0  0  0  0  0  0  0  0
    7.8976    2.9670   25.7353 C   0  0  0  0  0  0  0  0  0  0  0  0
    8.8005    3.3743   25.2985 H   0  0  0  0  0  0  0  0  0  0  0  0
    4.9528    1.5106   27.6559 H   0  0  0  0  0  0  0  0  0  0  0  0
    5.5552    0.5251   25.4561 H   0  0  0  0  0  0  0  0  0  0  0  0
    7.1173    0.2911   23.2244 N   0  0  0  0  0  0  0  0  0  0  0  0
    7.8188    0.1963   22.0688 N   0  0  0  0  0  0  0  0  0  0  0  0
    7.3711   -0.7152   21.0091 C   0  0  0  0  0  0  0  0  0  0  0  0
    6.6472   -0.0197   19.8621 C   0  0  0  0  0  0  0  0  0  0  0  0
    5.4376    0.6429   20.1120 C   0  0  0  0  0  0  0  0  0  0  0  0
    4.8057    1.3089   19.0608 C   0  0  0  0  0  0  0  0  0  0  0  0
    5.4048    1.3020   17.7995 C   0  0  0  0  0  0  0  0  0  0  0  0
    6.5507    0.6593   17.5307 N   0  0  0  0  0  0  0  0  0  0  0  0
    7.1455    0.0189   18.5475 C   0  0  0  0  0  0  0  0  0  0  0  0
    8.0823   -0.4814   18.2897 H   0  0  0  0  0  0  0  0  0  0  0  0
    4.9460    1.8356   16.9690 H   0  0  0  0  0  0  0  0  0  0  0  0
    3.8755    1.8445   19.2076 H   0  0  0  0  0  0  0  0  0  0  0  0
    5.0179    0.6623   21.1200 H   0  0  0  0  0  0  0  0  0  0  0  0
    8.2267   -1.2996   20.6499 H   0  0  0  0  0  0  0  0  0  0  0  0
    6.7057   -1.4245   21.5110 H   0  0  0  0  0  0  0  0  0  0  0  0
    9.5661    0.8354   20.1008 H   0  0  0  0  0  0  0  0  0  0  0  0
    9.7846    2.4521   20.7844 H   0  0  0  0  0  0  0  0  0  0  0  0
   12.2150    2.0061   21.8858 C   0  0  0  0  0  0  0  0  0  0  0  0
   13.2403    1.3113   22.4267 C   0  0  0  0  0  0  0  0  0  0  0  0
   12.9666   -0.0155   22.3952 O   0  0  0  0  0  0  0  0  0  0  0  0
   14.1955    1.5971   22.8456 H   0  0  0  0  0  0  0  0  0  0  0  0
   12.1362    3.0801   21.7876 H   0  0  0  0  0  0  0  0  0  0  0  0
   11.9963   -2.2953   21.8857 H   0  0  0  0  0  0  0  0  0  0  0  0
   10.6666   -1.7242   20.8474 H   0  0  0  0  0  0  0  0  0  0  0  0
   10.4788   -1.7013   22.5948 H   0  0  0  0  0  0  0  0  0  0  0  0
  1  2  1  0
  2  3  2  0
  3  4  1  0
  4  5  1  0
  5  6  2  0
  6  7  1  0
  7  8  1  0
  8  9  2  0
  9 10  1  0
 10 11  2  0
 11 12  1  0
 12 13  1  0
 12 14  2  0
 14 15  1  0
 10 16  1  0
  9 17  1  0
  7 18  2  0
 18 19  1  0
 19 20  1  0
 20 21  1  0
 21 22  2  0
 22 23  1  0
 23 24  2  0
 24 25  1  0
 25 26  2  0
 26 27  1  0
 24 28  1  0
 23 29  1  0
 22 30  1  0
 20 31  1  0
 20 32  1  0
  4 33  1  0
  4 34  1  0
  3 35  1  0
 35 36  2  0
 36 37  1  0
 36 38  1  0
 35 39  1  0
  1 40  1  0
  1 41  1  0
  1 42  1  0
 37  2  1  0
 19  5  1  0
 26 21  1  0
 14  8  1  0
M  END
>  <cnnaffinity>  (1) 
-6.0429

>  <filename>  (1) 
Cc1occc1Cc1nc(-c2ccnc(Cl)c2)nn1Cc1cccnc1

$$$$
