
     RDKit          3D

 42 45  0  0  0  0  0  0  0  0999 V2000
    9.6936    1.1778   25.3277 C   0  0  0  0  0  0  0  0  0  0  0  0
    8.2437    0.9139   25.1024 C   0  0  0  0  0  0  0  0  0  0  0  0
    7.3597    1.2065   24.1030 C   0  0  0  0  0  0  0  0  0  0  0  0
    7.6679    1.8964   22.7827 C   0  0  0  0  0  0  0  0  0  0  0  0
    8.7028    1.1437   21.9889 C   0  0  0  0  0  0  0  0  0  0  0  0
   10.0029    1.3590   22.0879 N   0  0  0  0  0  0  0  0  0  0  0  0
   10.5585    0.2127   21.6019 C   0  0  0  0  0  0  0  0  0  0  0  0
   12.0045   -0.1277   21.8326 C   0  0  0  0  0  0  0  0  0  0  0  0
   12.5635   -1.3447   21.3857 C   0  0  0  0  0  0  0  0  0  0  0  0
   13.8559   -1.6925   21.7813 C   0  0  0  0  0  0  0  0  0  0  0  0
   14.6371   -0.9092   22.5352 N   0  0  0  0  0  0  0  0  0  0  0  0
   14.1396    0.2699   22.9167 C   0  0  0  0  0  0  0  0  0  0  0  0
   12.8435    0.6998   22.6163 C   0  0  0  0  0  0  0  0  0  0  0  0
   12.5052    1.6547   23.0088 H   0  0  0  0  0  0  0  0  0  0  0  0
   14.8093    0.8883   23.5106 H   0  0  0  0  0  0  0  0  0  0  0  0
   14.2813   -2.6399   21.4645 H   0  0  0  0  0  0  0  0  0  0  0  0
   12.0096   -2.0369   20.7592 H   0  0  0  0  0  0  0  0  0  0  0  0
    9.6663   -0.6516   21.1409 N   0  0  0  0  0  0  0  0  0  0  0  0
    8.4822   -0.0459   21.3904 N   0  0  0  0  0  0  0  0  0  0  0  0
    7.2320   -0.6936   21.0032 C   0  0  0  0  0  0  0  0  0  0  0  0
    6.5056    0.0267   19.8883 C   0  0  0  0  0  0  0  0  0  0  0  0
    5.2841    0.6839   20.0669 C   0  0  0  0  0  0  0  0  0  0  0  0
    4.7172    1.3632   18.9852 C   0  0  0  0  0  0  0  0  0  0  0  0
    5.3905    1.3494   17.7599 C   0  0  0  0  0  0  0  0  0  0  0  0
    6.5534    0.7088   17.5621 N   0  0  0  0  0  0  0  0  0  0  0  0
    7.0876    0.0715   18.6099 C   0  0  0  0  0  0  0  0  0  0  0  0
    8.0280   -0.4473   18.4243 H   0  0  0  0  0  0  0  0  0  0  0  0
    4.9746    1.8679   16.8979 H   0  0  0  0  0  0  0  0  0  0  0  0
    3.7816    1.9028   19.0797 H   0  0  0  0  0  0  0  0  0  0  0  0
    4.7780    0.6618   21.0357 H   0  0  0  0  0  0  0  0  0  0  0  0
    6.5854   -0.7947   21.8840 H   0  0  0  0  0  0  0  0  0  0  0  0
    7.5204   -1.7022   20.6924 H   0  0  0  0  0  0  0  0  0  0  0  0
    8.0595    2.9067   22.9460 H   0  0  0  0  0  0  0  0  0  0  0  0
    6.7503    1.9973   22.1977 H   0  0  0  0  0  0  0  0  0  0  0  0
    6.1272    0.5732   24.4703 C   0  0  0  0  0  0  0  0  0  0  0  0
    6.3546   -0.0684   25.6424 C   0  0  0  0  0  0  0  0  0  0  0  0
    7.6371    0.1290   26.0340 O   0  0  0  0  0  0  0  0  0  0  0  0
    5.7578   -0.6936   26.2933 H   0  0  0  0  0  0  0  0  0  0  0  0
    5.2034    0.5779   23.9073 H   0  0  0  0  0  0  0  0  0  0  0  0
    9.9735    2.1590   24.9397 H   0  0  0  0  0  0  0  0  0  0  0  0
    9.9502    1.1022   26.3849 H   0  0  0  0  0  0  0  0  0  0  0  0
   10.2904    0.4446   24.7748 H   0  0  0  0  0  0  0  0  0  0  0  0
  1  2  1  0
  2  3  2  0
  3  4  1  0
  4  5  1  0
  5  6  2  0
  6  7  1  0
  7  8  1  0
  8  9  2  0
  9 10  1  0
 10 11  2  0
 11 12  1  0
 12 13  2  0
 13 14  1  0
 12 15  1  0
 10 16  1  0
  9 17  1  0
  7 18  2  0
 18 19  1  0
 19 20  1  0
 20 21  1  0
 21 22  2  0
 22 23  1  0
 23 24  2  0
 24 25  1  0
 25 26  2  0
 26 27  1  0
 24 28  1  0
 23 29  1  0
 22 30  1  0
 20 31  1  0
 20 32  1  0
  4 33  1  0
  4 34  1  0
  3 35  1  0
 35 36  2  0
 36 37  1  0
 36 38  1  0
 35 39  1  0
  1 40  1  0
  1 41  1  0
  1 42  1  0
 37  2  1  0
 19  5  1  0
 26 21  1  0
 13  8  1  0
M  END
>  <cnnaffinity>  (1) 
-6.37293

>  <filename>  (1) 
Cc1occc1Cc1nc(-c2ccncc2)nn1Cc1cccnc1

$$$$
