
     RDKit          3D

 43 46  0  0  0  0  0  0  0  0999 V2000
   12.4127   -1.2729   21.4578 C   0  0  0  0  0  0  0  0  0  0  0  0
   11.8469    0.0070   21.9616 C   0  0  0  0  0  0  0  0  0  0  0  0
   10.7203    0.6607   21.6127 C   0  0  0  0  0  0  0  0  0  0  0  0
    9.6615    0.2245   20.6682 C   0  0  0  0  0  0  0  0  0  0  0  0
    8.6310   -0.6150   21.3362 C   0  0  0  0  0  0  0  0  0  0  0  0
    8.8653   -1.4703   22.3046 N   0  0  0  0  0  0  0  0  0  0  0  0
    7.6346   -1.9953   22.5498 C   0  0  0  0  0  0  0  0  0  0  0  0
    7.4015   -2.9641   23.6665 C   0  0  0  0  0  0  0  0  0  0  0  0
    7.5444   -2.2838   25.0548 C   0  0  0  0  0  0  0  0  0  0  0  0
    7.5393   -3.2766   26.1924 C   0  0  0  0  0  0  0  0  0  0  0  0
    7.7679   -4.5803   26.0280 C   0  0  0  0  0  0  0  0  0  0  0  0
    7.9908   -5.2136   24.6734 C   0  0  0  0  0  0  0  0  0  0  0  0
    8.3352   -4.1891   23.5800 C   0  0  0  0  0  0  0  0  0  0  0  0
    8.2647   -4.6583   22.5922 H   0  0  0  0  0  0  0  0  0  0  0  0
    9.3732   -3.8513   23.6932 H   0  0  0  0  0  0  0  0  0  0  0  0
    7.0763   -5.7552   24.3943 H   0  0  0  0  0  0  0  0  0  0  0  0
    8.7732   -5.9795   24.7340 H   0  0  0  0  0  0  0  0  0  0  0  0
    7.7924   -5.2405   26.8961 H   0  0  0  0  0  0  0  0  0  0  0  0
    7.3474   -2.8809   27.1899 H   0  0  0  0  0  0  0  0  0  0  0  0
    8.4882   -1.7221   25.0860 H   0  0  0  0  0  0  0  0  0  0  0  0
    6.7530   -1.5376   25.1986 H   0  0  0  0  0  0  0  0  0  0  0  0
    6.3674   -3.2988   23.5500 H   0  0  0  0  0  0  0  0  0  0  0  0
    6.6794   -1.5546   21.7588 N   0  0  0  0  0  0  0  0  0  0  0  0
    7.3307   -0.6882   20.9380 N   0  0  0  0  0  0  0  0  0  0  0  0
    6.6487    0.0011   19.9004 C   0  0  0  0  0  0  0  0  0  0  0  0
    5.4357    0.6460   20.1667 C   0  0  0  0  0  0  0  0  0  0  0  0
    4.8120    1.3116   19.1087 C   0  0  0  0  0  0  0  0  0  0  0  0
    5.4021    1.2950   17.8375 C   0  0  0  0  0  0  0  0  0  0  0  0
    6.5619    0.6726   17.5772 N   0  0  0  0  0  0  0  0  0  0  0  0
    7.1663    0.0517   18.5942 C   0  0  0  0  0  0  0  0  0  0  0  0
    8.1134   -0.4295   18.3669 H   0  0  0  0  0  0  0  0  0  0  0  0
    4.9188    1.7831   16.9939 H   0  0  0  0  0  0  0  0  0  0  0  0
    3.8792    1.8412   19.2614 H   0  0  0  0  0  0  0  0  0  0  0  0
    5.0150    0.6114   21.1744 H   0  0  0  0  0  0  0  0  0  0  0  0
   10.0615   -0.4142   19.8722 H   0  0  0  0  0  0  0  0  0  0  0  0
    9.2064    1.1058   20.2183 H   0  0  0  0  0  0  0  0  0  0  0  0
   10.5706    1.7927   22.4011 N   0  0  0  0  0  0  0  0  0  0  0  0
   11.6120    1.7732   23.1624 C   0  0  0  0  0  0  0  0  0  0  0  0
   12.4426    0.7204   22.9649 O   0  0  0  0  0  0  0  0  0  0  0  0
   11.9093    2.4821   23.9254 H   0  0  0  0  0  0  0  0  0  0  0  0
   11.6497   -2.0541   21.5459 H   0  0  0  0  0  0  0  0  0  0  0  0
   12.6147   -1.2115   20.3847 H   0  0  0  0  0  0  0  0  0  0  0  0
   13.3231   -1.5663   21.9787 H   0  0  0  0  0  0  0  0  0  0  0  0
  1  2  1  0
  2  3  2  0
  3  4  1  0
  4  5  1  0
  5  6  2  0
  6  7  1  0
  7  8  1  0
  8  9  1  0
  9 10  1  0
 10 11  2  0
 11 12  1  0
 12 13  1  0
 13 14  1  0
 13 15  1  0
 12 16  1  0
 12 17  1  0
 11 18  1  0
 10 19  1  0
  9 20  1  0
  9 21  1  0
  8 22  1  0
  7 23  2  0
 23 24  1  0
 24 25  1  0
 25 26  2  0
 26 27  1  0
 27 28  2  0
 28 29  1  0
 29 30  2  0
 30 31  1  0
 28 32  1  0
 27 33  1  0
 26 34  1  0
  4 35  1  0
  4 36  1  0
  3 37  1  0
 37 38  2  0
 38 39  1  0
 38 40  1  0
  1 41  1  0
  1 42  1  0
  1 43  1  0
 39  2  1  0
 24  5  1  0
 30 25  1  0
 13  8  1  0
M  END
>  <cnnaffinity>  (1) 
-6.50617

>  <filename>  (1) 
Cc1ocnc1Cc1nc(C2CC=CCC2)nn1-c1cccnc1

$$$$
