
     RDKit          3D

 48 51  0  0  0  0  0  0  0  0999 V2000
    7.7600    2.8099   22.0930 C   0  0  0  0  0  0  0  0  0  0  0  0
    9.1431    2.3855   22.4479 C   0  0  0  0  0  0  0  0  0  0  0  0
    9.9482    1.4131   21.9559 C   0  0  0  0  0  0  0  0  0  0  0  0
    9.6401    0.4017   20.9004 C   0  0  0  0  0  0  0  0  0  0  0  0
    8.6193   -0.5804   21.3663 C   0  0  0  0  0  0  0  0  0  0  0  0
    8.8392   -1.4254   22.3464 N   0  0  0  0  0  0  0  0  0  0  0  0
    7.6358   -2.0419   22.5043 C   0  0  0  0  0  0  0  0  0  0  0  0
    7.4099   -3.0564   23.5777 C   0  0  0  0  0  0  0  0  0  0  0  0
    7.4855   -2.4020   24.9878 C   0  0  0  0  0  0  0  0  0  0  0  0
    7.2634   -3.4470   26.0957 C   0  0  0  0  0  0  0  0  0  0  0  0
    8.2466   -4.6316   25.9957 C   0  0  0  0  0  0  0  0  0  0  0  0
    7.9867   -5.6733   27.0934 C   0  0  0  0  0  0  0  0  0  0  0  0
    8.7016   -6.5015   27.0372 H   0  0  0  0  0  0  0  0  0  0  0  0
    8.0637   -5.2332   28.0944 H   0  0  0  0  0  0  0  0  0  0  0  0
    6.9795   -6.1030   26.9984 H   0  0  0  0  0  0  0  0  0  0  0  0
    8.1814   -5.2639   24.5893 C   0  0  0  0  0  0  0  0  0  0  0  0
    8.4153   -4.2344   23.4697 C   0  0  0  0  0  0  0  0  0  0  0  0
    9.4413   -3.8306   23.5220 H   0  0  0  0  0  0  0  0  0  0  0  0
    8.3298   -4.7149   22.4853 H   0  0  0  0  0  0  0  0  0  0  0  0
    8.9172   -6.0776   24.5168 H   0  0  0  0  0  0  0  0  0  0  0  0
    7.1875   -5.7281   24.4538 H   0  0  0  0  0  0  0  0  0  0  0  0
    9.2670   -4.2230   26.1247 H   0  0  0  0  0  0  0  0  0  0  0  0
    7.3522   -2.9759   27.0853 H   0  0  0  0  0  0  0  0  0  0  0  0
    6.2302   -3.8342   26.0275 H   0  0  0  0  0  0  0  0  0  0  0  0
    6.7415   -1.5965   25.0719 H   0  0  0  0  0  0  0  0  0  0  0  0
    8.4727   -1.9192   25.0999 H   0  0  0  0  0  0  0  0  0  0  0  0
    6.3865   -3.4272   23.4102 H   0  0  0  0  0  0  0  0  0  0  0  0
    6.6927   -1.6333   21.6797 N   0  0  0  0  0  0  0  0  0  0  0  0
    7.3341   -0.7055   20.9204 N   0  0  0  0  0  0  0  0  0  0  0  0
    6.6426   -0.0195   19.8824 C   0  0  0  0  0  0  0  0  0  0  0  0
    5.4339    0.6308   20.1463 C   0  0  0  0  0  0  0  0  0  0  0  0
    4.8025    1.3136   19.0997 C   0  0  0  0  0  0  0  0  0  0  0  0
    5.3925    1.2999   17.8292 C   0  0  0  0  0  0  0  0  0  0  0  0
    6.5408    0.6583   17.5626 N   0  0  0  0  0  0  0  0  0  0  0  0
    7.1496    0.0267   18.5736 C   0  0  0  0  0  0  0  0  0  0  0  0
    8.0950   -0.4584   18.3369 H   0  0  0  0  0  0  0  0  0  0  0  0
    4.9331    1.8192   16.9902 H   0  0  0  0  0  0  0  0  0  0  0  0
    3.8692    1.8509   19.2491 H   0  0  0  0  0  0  0  0  0  0  0  0
    5.0101    0.5822   21.1509 H   0  0  0  0  0  0  0  0  0  0  0  0
    9.2673    0.8752   19.9907 H   0  0  0  0  0  0  0  0  0  0  0  0
   10.5546   -0.1568   20.6974 H   0  0  0  0  0  0  0  0  0  0  0  0
   11.1308    1.3750   22.6786 N   0  0  0  0  0  0  0  0  0  0  0  0
   10.9841    2.3004   23.5642 C   0  0  0  0  0  0  0  0  0  0  0  0
    9.8046    2.9571   23.4998 O   0  0  0  0  0  0  0  0  0  0  0  0
   11.6638    2.6062   24.3546 H   0  0  0  0  0  0  0  0  0  0  0  0
    7.6635    2.7994   21.0056 H   0  0  0  0  0  0  0  0  0  0  0  0
    7.4992    3.7940   22.4836 H   0  0  0  0  0  0  0  0  0  0  0  0
    7.0298    2.0780   22.4585 H   0  0  0  0  0  0  0  0  0  0  0  0
  1  2  1  0
  2  3  2  0
  3  4  1  0
  4  5  1  0
  5  6  2  0
  6  7  1  0
  7  8  1  0
  8  9  1  0
  9 10  1  0
 10 11  1  0
 11 12  1  0
 12 13  1  0
 12 14  1  0
 12 15  1  0
 11 16  1  0
 16 17  1  0
 17 18  1  0
 17 19  1  0
 16 20  1  0
 16 21  1  0
 11 22  1  0
 10 23  1  0
 10 24  1  0
  9 25  1  0
  9 26  1  0
  8 27  1  0
  7 28  2  0
 28 29  1  0
 29 30  1  0
 30 31  2  0
 31 32  1  0
 32 33  2  0
 33 34  1  0
 34 35  2  0
 35 36  1  0
 33 37  1  0
 32 38  1  0
 31 39  1  0
  4 40  1  0
  4 41  1  0
  3 42  1  0
 42 43  2  0
 43 44  1  0
 43 45  1  0
  1 46  1  0
  1 47  1  0
  1 48  1  0
 44  2  1  0
 29  5  1  0
 35 30  1  0
 17  8  1  0
M  END
>  <cnnaffinity>  (1) 
-6.22918

>  <filename>  (1) 
Cc1ocnc1Cc1nc(C2CCC(C)CC2)nn1-c1cccnc1

$$$$
