
     RDKit          3D

 42 45  0  0  0  0  0  0  0  0999 V2000
   11.2013   -1.5347   21.7670 C   0  0  0  0  0  0  0  0  0  0  0  0
   11.7351   -0.1495   21.8270 C   0  0  0  0  0  0  0  0  0  0  0  0
   11.2136    1.0659   21.5102 C   0  0  0  0  0  0  0  0  0  0  0  0
    9.8110    1.3949   21.0418 C   0  0  0  0  0  0  0  0  0  0  0  0
    8.7666    1.1685   22.0845 C   0  0  0  0  0  0  0  0  0  0  0  0
    8.6965    1.8749   23.1913 N   0  0  0  0  0  0  0  0  0  0  0  0
    7.6399    1.3185   23.8594 C   0  0  0  0  0  0  0  0  0  0  0  0
    7.1929    1.8542   25.1893 C   0  0  0  0  0  0  0  0  0  0  0  0
    7.9491    2.8893   25.7856 C   0  0  0  0  0  0  0  0  0  0  0  0
    7.5587    3.3815   27.0269 C   0  0  0  0  0  0  0  0  0  0  0  0
    6.4314    2.8290   27.6402 C   0  0  0  0  0  0  0  0  0  0  0  0
    5.7378    1.8119   26.9761 C   0  0  0  0  0  0  0  0  0  0  0  0
    6.0930    1.3368   25.7811 N   0  0  0  0  0  0  0  0  0  0  0  0
    4.8561    1.3516   27.4191 H   0  0  0  0  0  0  0  0  0  0  0  0
    6.0820    3.1656   28.6083 H   0  0  0  0  0  0  0  0  0  0  0  0
    8.1218    4.1796   27.5076 H   0  0  0  0  0  0  0  0  0  0  0  0
    8.8254    3.2735   25.2680 H   0  0  0  0  0  0  0  0  0  0  0  0
    7.0745    0.3152   23.2058 N   0  0  0  0  0  0  0  0  0  0  0  0
    7.8070    0.2095   22.0808 N   0  0  0  0  0  0  0  0  0  0  0  0
    7.3757   -0.7078   21.0186 C   0  0  0  0  0  0  0  0  0  0  0  0
    6.6546   -0.0149   19.8675 C   0  0  0  0  0  0  0  0  0  0  0  0
    5.4459    0.6504   20.1208 C   0  0  0  0  0  0  0  0  0  0  0  0
    4.8055    1.3101   19.0707 C   0  0  0  0  0  0  0  0  0  0  0  0
    5.4023    1.2987   17.8072 C   0  0  0  0  0  0  0  0  0  0  0  0
    6.5491    0.6576   17.5359 N   0  0  0  0  0  0  0  0  0  0  0  0
    7.1496    0.0224   18.5513 C   0  0  0  0  0  0  0  0  0  0  0  0
    8.0868   -0.4740   18.2883 H   0  0  0  0  0  0  0  0  0  0  0  0
    4.9411    1.8312   16.9789 H   0  0  0  0  0  0  0  0  0  0  0  0
    3.8718    1.8445   19.2168 H   0  0  0  0  0  0  0  0  0  0  0  0
    5.0382    0.6708   21.1354 H   0  0  0  0  0  0  0  0  0  0  0  0
    8.2459   -1.2741   20.6725 H   0  0  0  0  0  0  0  0  0  0  0  0
    6.7139   -1.4280   21.5159 H   0  0  0  0  0  0  0  0  0  0  0  0
    9.5399    0.8434   20.1366 H   0  0  0  0  0  0  0  0  0  0  0  0
    9.7575    2.4625   20.8069 H   0  0  0  0  0  0  0  0  0  0  0  0
   12.2056    2.0218   21.8996 C   0  0  0  0  0  0  0  0  0  0  0  0
   13.2404    1.3255   22.4227 C   0  0  0  0  0  0  0  0  0  0  0  0
   12.9689   -0.0010   22.3842 O   0  0  0  0  0  0  0  0  0  0  0  0
   14.1952    1.6215   22.8337 H   0  0  0  0  0  0  0  0  0  0  0  0
   12.1155    3.0922   21.7964 H   0  0  0  0  0  0  0  0  0  0  0  0
   10.6631   -1.6937   20.8317 H   0  0  0  0  0  0  0  0  0  0  0  0
   11.9915   -2.2824   21.8463 H   0  0  0  0  0  0  0  0  0  0  0  0
   10.4956   -1.6986   22.5878 H   0  0  0  0  0  0  0  0  0  0  0  0
  1  2  1  0
  2  3  2  0
  3  4  1  0
  4  5  1  0
  5  6  2  0
  6  7  1  0
  7  8  1  0
  8  9  2  0
  9 10  1  0
 10 11  2  0
 11 12  1  0
 12 13  2  0
 12 14  1  0
 11 15  1  0
 10 16  1  0
  9 17  1  0
  7 18  2  0
 18 19  1  0
 19 20  1  0
 20 21  1  0
 21 22  2  0
 22 23  1  0
 23 24  2  0
 24 25  1  0
 25 26  2  0
 26 27  1  0
 24 28  1  0
 23 29  1  0
 22 30  1  0
 20 31  1  0
 20 32  1  0
  4 33  1  0
  4 34  1  0
  3 35  1  0
 35 36  2  0
 36 37  1  0
 36 38  1  0
 35 39  1  0
  1 40  1  0
  1 41  1  0
  1 42  1  0
 37  2  1  0
 19  5  1  0
 26 21  1  0
 13  8  1  0
M  END
>  <cnnaffinity>  (1) 
-5.98658

>  <filename>  (1) 
Cc1occc1Cc1nc(-c2ccccn2)nn1Cc1cccnc1

$$$$
