
     RDKit          3D

 43 46  0  0  0  0  0  0  0  0999 V2000
    8.9895    1.4094   25.5588 C   0  0  0  0  0  0  0  0  0  0  0  0
    7.5443    1.0684   25.4466 C   0  0  0  0  0  0  0  0  0  0  0  0
    6.6194    1.1687   24.4485 C   0  0  0  0  0  0  0  0  0  0  0  0
    6.8838    1.6979   23.0481 C   0  0  0  0  0  0  0  0  0  0  0  0
    7.9150    0.8846   22.3166 C   0  0  0  0  0  0  0  0  0  0  0  0
    9.2094    1.1063   22.3938 N   0  0  0  0  0  0  0  0  0  0  0  0
    9.7658   -0.0506   21.9358 C   0  0  0  0  0  0  0  0  0  0  0  0
   11.2312   -0.2740   22.0053 C   0  0  0  0  0  0  0  0  0  0  0  0
   11.7978   -1.5116   21.6413 C   0  0  0  0  0  0  0  0  0  0  0  0
   13.1628   -1.7284   21.8260 C   0  0  0  0  0  0  0  0  0  0  0  0
   13.9811   -0.7336   22.3529 C   0  0  0  0  0  0  0  0  0  0  0  0
   13.4428    0.5162   22.6601 C   0  0  0  0  0  0  0  0  0  0  0  0
   12.0795    0.7534   22.4749 C   0  0  0  0  0  0  0  0  0  0  0  0
   11.6616    1.7347   22.6946 H   0  0  0  0  0  0  0  0  0  0  0  0
   14.0782    1.3111   23.0366 H   0  0  0  0  0  0  0  0  0  0  0  0
   15.0267   -0.9560   22.5239 H   0  0  0  0  0  0  0  0  0  0  0  0
   13.6238   -2.6714   21.5638 H   0  0  0  0  0  0  0  0  0  0  0  0
   11.1611   -2.2856   21.2221 H   0  0  0  0  0  0  0  0  0  0  0  0
    8.8716   -0.9288   21.4994 N   0  0  0  0  0  0  0  0  0  0  0  0
    7.6844   -0.3130   21.7388 N   0  0  0  0  0  0  0  0  0  0  0  0
    6.4374   -0.7960   21.1412 C   0  0  0  0  0  0  0  0  0  0  0  0
    6.0303   -0.0187   19.8982 C   0  0  0  0  0  0  0  0  0  0  0  0
    4.8423    0.7153   19.7956 C   0  0  0  0  0  0  0  0  0  0  0  0
    4.6324    1.5039   18.6590 C   0  0  0  0  0  0  0  0  0  0  0  0
    5.6033    1.5098   17.6546 C   0  0  0  0  0  0  0  0  0  0  0  0
    6.7160    0.7605   17.7033 N   0  0  0  0  0  0  0  0  0  0  0  0
    6.9110    0.0222   18.8025 C   0  0  0  0  0  0  0  0  0  0  0  0
    7.8202   -0.5821   18.8205 H   0  0  0  0  0  0  0  0  0  0  0  0
    5.4845    2.1445   16.7751 H   0  0  0  0  0  0  0  0  0  0  0  0
    3.7426    2.1146   18.5473 H   0  0  0  0  0  0  0  0  0  0  0  0
    4.0889    0.6741   20.5867 H   0  0  0  0  0  0  0  0  0  0  0  0
    6.5914   -1.8563   20.9149 H   0  0  0  0  0  0  0  0  0  0  0  0
    5.6621   -0.7119   21.9037 H   0  0  0  0  0  0  0  0  0  0  0  0
    5.9574    1.7366   22.4686 H   0  0  0  0  0  0  0  0  0  0  0  0
    7.2854    2.7184   23.0872 H   0  0  0  0  0  0  0  0  0  0  0  0
    5.4174    0.5718   24.9627 C   0  0  0  0  0  0  0  0  0  0  0  0
    5.7086    0.1431   26.2113 C   0  0  0  0  0  0  0  0  0  0  0  0
    6.9952    0.4385   26.5219 O   0  0  0  0  0  0  0  0  0  0  0  0
    5.1539   -0.4112   26.9581 H   0  0  0  0  0  0  0  0  0  0  0  0
    4.4652    0.4677   24.4569 H   0  0  0  0  0  0  0  0  0  0  0  0
    9.5785    0.5604   25.1952 H   0  0  0  0  0  0  0  0  0  0  0  0
    9.2341    2.2601   24.9182 H   0  0  0  0  0  0  0  0  0  0  0  0
    9.2796    1.6099   26.5910 H   0  0  0  0  0  0  0  0  0  0  0  0
  1  2  1  0
  2  3  2  0
  3  4  1  0
  4  5  1  0
  5  6  2  0
  6  7  1  0
  7  8  1  0
  8  9  2  0
  9 10  1  0
 10 11  2  0
 11 12  1  0
 12 13  2  0
 13 14  1  0
 12 15  1  0
 11 16  1  0
 10 17  1  0
  9 18  1  0
  7 19  2  0
 19 20  1  0
 20 21  1  0
 21 22  1  0
 22 23  2  0
 23 24  1  0
 24 25  2  0
 25 26  1  0
 26 27  2  0
 27 28  1  0
 25 29  1  0
 24 30  1  0
 23 31  1  0
 21 32  1  0
 21 33  1  0
  4 34  1  0
  4 35  1  0
  3 36  1  0
 36 37  2  0
 37 38  1  0
 37 39  1  0
 36 40  1  0
  1 41  1  0
  1 42  1  0
  1 43  1  0
 38  2  1  0
 20  5  1  0
 27 22  1  0
 13  8  1  0
M  END
>  <cnnaffinity>  (1) 
-6.10894

>  <filename>  (1) 
Cc1occc1Cc1nc(-c2ccccc2)nn1Cc1cccnc1

$$$$
