
     RDKit          3D

 42 45  0  0  0  0  0  0  0  0999 V2000
   12.1733    0.9863   23.9314 C   0  0  0  0  0  0  0  0  0  0  0  0
   11.8953    0.2437   22.6676 C   0  0  0  0  0  0  0  0  0  0  0  0
   11.0139    0.2774   21.6255 C   0  0  0  0  0  0  0  0  0  0  0  0
    9.9408    1.2331   21.2008 C   0  0  0  0  0  0  0  0  0  0  0  0
    8.7869    1.1881   22.1382 C   0  0  0  0  0  0  0  0  0  0  0  0
    8.7479    1.8876   23.2466 N   0  0  0  0  0  0  0  0  0  0  0  0
    7.6460    1.4063   23.8897 C   0  0  0  0  0  0  0  0  0  0  0  0
    7.2596    1.9274   25.2253 C   0  0  0  0  0  0  0  0  0  0  0  0
    6.1097    1.4633   25.8974 C   0  0  0  0  0  0  0  0  0  0  0  0
    5.7830    2.0260   27.1269 C   0  0  0  0  0  0  0  0  0  0  0  0
    4.6776    1.6019   27.7595 F   0  0  0  0  0  0  0  0  0  0  0  0
    6.5556    3.0236   27.7199 C   0  0  0  0  0  0  0  0  0  0  0  0
    7.7034    3.4676   27.0571 C   0  0  0  0  0  0  0  0  0  0  0  0
    8.0670    2.9183   25.8284 C   0  0  0  0  0  0  0  0  0  0  0  0
    8.9718    3.2490   25.3206 H   0  0  0  0  0  0  0  0  0  0  0  0
    8.3104    4.2580   27.4906 H   0  0  0  0  0  0  0  0  0  0  0  0
    6.2508    3.4311   28.6761 H   0  0  0  0  0  0  0  0  0  0  0  0
    5.4760    0.6818   25.4823 H   0  0  0  0  0  0  0  0  0  0  0  0
    7.0146    0.4538   23.2219 N   0  0  0  0  0  0  0  0  0  0  0  0
    7.7634    0.3077   22.1020 N   0  0  0  0  0  0  0  0  0  0  0  0
    7.3813   -0.6344   21.0482 C   0  0  0  0  0  0  0  0  0  0  0  0
    6.6660    0.0211   19.8827 C   0  0  0  0  0  0  0  0  0  0  0  0
    5.4496    0.6798   20.1080 C   0  0  0  0  0  0  0  0  0  0  0  0
    4.8254    1.3222   19.0379 C   0  0  0  0  0  0  0  0  0  0  0  0
    5.4425    1.2847   17.7833 C   0  0  0  0  0  0  0  0  0  0  0  0
    6.5897    0.6321   17.5395 N   0  0  0  0  0  0  0  0  0  0  0  0
    7.1729    0.0124   18.5744 C   0  0  0  0  0  0  0  0  0  0  0  0
    8.0968   -0.5276   18.3477 H   0  0  0  0  0  0  0  0  0  0  0  0
    4.9912    1.7908   16.9323 H   0  0  0  0  0  0  0  0  0  0  0  0
    3.8886    1.8565   19.1649 H   0  0  0  0  0  0  0  0  0  0  0  0
    5.0194    0.6968   21.1117 H   0  0  0  0  0  0  0  0  0  0  0  0
    8.2834   -1.1643   20.7188 H   0  0  0  0  0  0  0  0  0  0  0  0
    6.7246   -1.3691   21.5233 H   0  0  0  0  0  0  0  0  0  0  0  0
    9.6096    0.9309   20.2066 H   0  0  0  0  0  0  0  0  0  0  0  0
   10.2952    2.2690   21.1395 H   0  0  0  0  0  0  0  0  0  0  0  0
   11.1423   -0.8922   20.8976 N   0  0  0  0  0  0  0  0  0  0  0  0
   12.1021   -1.5315   21.4647 C   0  0  0  0  0  0  0  0  0  0  0  0
   12.6149   -0.9187   22.5379 O   0  0  0  0  0  0  0  0  0  0  0  0
   12.5460   -2.4732   21.1983 H   0  0  0  0  0  0  0  0  0  0  0  0
   12.1928    2.0694   23.7756 H   0  0  0  0  0  0  0  0  0  0  0  0
   13.1326    0.6470   24.3325 H   0  0  0  0  0  0  0  0  0  0  0  0
   11.3981    0.7504   24.6742 H   0  0  0  0  0  0  0  0  0  0  0  0
  1  2  1  0
  2  3  2  0
  3  4  1  0
  4  5  1  0
  5  6  2  0
  6  7  1  0
  7  8  1  0
  8  9  2  0
  9 10  1  0
 10 11  1  0
 10 12  2  0
 12 13  1  0
 13 14  2  0
 14 15  1  0
 13 16  1  0
 12 17  1  0
  9 18  1  0
  7 19  2  0
 19 20  1  0
 20 21  1  0
 21 22  1  0
 22 23  2  0
 23 24  1  0
 24 25  2  0
 25 26  1  0
 26 27  2  0
 27 28  1  0
 25 29  1  0
 24 30  1  0
 23 31  1  0
 21 32  1  0
 21 33  1  0
  4 34  1  0
  4 35  1  0
  3 36  1  0
 36 37  2  0
 37 38  1  0
 37 39  1  0
  1 40  1  0
  1 41  1  0
  1 42  1  0
 38  2  1  0
 20  5  1  0
 27 22  1  0
 14  8  1  0
M  END
>  <cnnaffinity>  (1) 
-6.39786

>  <filename>  (1) 
Cc1ocnc1Cc1nc(-c2cccc(F)c2)nn1Cc1cccnc1

$$$$
