
     RDKit          3D

 44 47  0  0  0  0  0  0  0  0999 V2000
   12.4167   -1.2336   21.5050 C   0  0  0  0  0  0  0  0  0  0  0  0
   11.8529    0.0700   21.9570 C   0  0  0  0  0  0  0  0  0  0  0  0
   10.7137    0.7170   21.5920 C   0  0  0  0  0  0  0  0  0  0  0  0
    9.6423    0.1986   20.6658 C   0  0  0  0  0  0  0  0  0  0  0  0
    8.6045   -0.6386   21.3437 C   0  0  0  0  0  0  0  0  0  0  0  0
    8.8284   -1.4982   22.3141 N   0  0  0  0  0  0  0  0  0  0  0  0
    7.5981   -2.0226   22.5514 C   0  0  0  0  0  0  0  0  0  0  0  0
    7.3735   -2.9839   23.6723 C   0  0  0  0  0  0  0  0  0  0  0  0
    7.5299   -2.2748   25.0530 C   0  0  0  0  0  0  0  0  0  0  0  0
    7.5389   -3.2629   26.1954 C   0  0  0  0  0  0  0  0  0  0  0  0
    7.7706   -4.5704   26.0360 C   0  0  0  0  0  0  0  0  0  0  0  0
    8.0045   -5.2208   24.6896 C   0  0  0  0  0  0  0  0  0  0  0  0
    8.3406   -4.1935   23.5944 C   0  0  0  0  0  0  0  0  0  0  0  0
    9.3732   -3.8287   23.7128 H   0  0  0  0  0  0  0  0  0  0  0  0
    8.2912   -4.6649   22.6053 H   0  0  0  0  0  0  0  0  0  0  0  0
    7.0991   -5.7815   24.4047 H   0  0  0  0  0  0  0  0  0  0  0  0
    8.7990   -5.9747   24.7772 H   0  0  0  0  0  0  0  0  0  0  0  0
    7.7751   -5.2291   26.9046 H   0  0  0  0  0  0  0  0  0  0  0  0
    7.3566   -2.8583   27.1915 H   0  0  0  0  0  0  0  0  0  0  0  0
    6.7256   -1.5413   25.2080 H   0  0  0  0  0  0  0  0  0  0  0  0
    8.4664   -1.6896   25.0730 H   0  0  0  0  0  0  0  0  0  0  0  0
    6.3342   -3.3273   23.5612 H   0  0  0  0  0  0  0  0  0  0  0  0
    6.6445   -1.5761   21.7611 N   0  0  0  0  0  0  0  0  0  0  0  0
    7.3012   -0.7017   20.9550 N   0  0  0  0  0  0  0  0  0  0  0  0
    6.6330   -0.0204   19.8970 C   0  0  0  0  0  0  0  0  0  0  0  0
    5.4253    0.6368   20.1514 C   0  0  0  0  0  0  0  0  0  0  0  0
    4.8005    1.3141   19.1002 C   0  0  0  0  0  0  0  0  0  0  0  0
    5.3961    1.2970   17.8336 C   0  0  0  0  0  0  0  0  0  0  0  0
    6.5469    0.6575   17.5768 N   0  0  0  0  0  0  0  0  0  0  0  0
    7.1494    0.0258   18.5890 C   0  0  0  0  0  0  0  0  0  0  0  0
    8.0982   -0.4520   18.3439 H   0  0  0  0  0  0  0  0  0  0  0  0
    4.9374    1.8136   16.9917 H   0  0  0  0  0  0  0  0  0  0  0  0
    3.8685    1.8540   19.2490 H   0  0  0  0  0  0  0  0  0  0  0  0
    5.0087    0.5999   21.1561 H   0  0  0  0  0  0  0  0  0  0  0  0
   10.0472   -0.4527   19.8788 H   0  0  0  0  0  0  0  0  0  0  0  0
    9.1443    1.0380   20.1777 H   0  0  0  0  0  0  0  0  0  0  0  0
   10.6092    1.8657   22.4504 C   0  0  0  0  0  0  0  0  0  0  0  0
   11.6947    1.8259   23.2623 C   0  0  0  0  0  0  0  0  0  0  0  0
   12.4604    0.7389   22.9710 O   0  0  0  0  0  0  0  0  0  0  0  0
   12.0461    2.4404   24.0828 H   0  0  0  0  0  0  0  0  0  0  0  0
    9.8067    2.5972   22.4788 H   0  0  0  0  0  0  0  0  0  0  0  0
   11.6634   -2.0066   21.6920 H   0  0  0  0  0  0  0  0  0  0  0  0
   12.6173   -1.2340   20.4288 H   0  0  0  0  0  0  0  0  0  0  0  0
   13.3343   -1.4963   22.0316 H   0  0  0  0  0  0  0  0  0  0  0  0
  1  2  1  0
  2  3  2  0
  3  4  1  0
  4  5  1  0
  5  6  2  0
  6  7  1  0
  7  8  1  0
  8  9  1  0
  9 10  1  0
 10 11  2  0
 11 12  1  0
 12 13  1  0
 13 14  1  0
 13 15  1  0
 12 16  1  0
 12 17  1  0
 11 18  1  0
 10 19  1  0
  9 20  1  0
  9 21  1  0
  8 22  1  0
  7 23  2  0
 23 24  1  0
 24 25  1  0
 25 26  2  0
 26 27  1  0
 27 28  2  0
 28 29  1  0
 29 30  2  0
 30 31  1  0
 28 32  1  0
 27 33  1  0
 26 34  1  0
  4 35  1  0
  4 36  1  0
  3 37  1  0
 37 38  2  0
 38 39  1  0
 38 40  1  0
 37 41  1  0
  1 42  1  0
  1 43  1  0
  1 44  1  0
 39  2  1  0
 24  5  1  0
 30 25  1  0
 13  8  1  0
M  END
>  <cnnaffinity>  (1) 
-6.63892

>  <filename>  (1) 
Cc1occc1Cc1nc(C2CC=CCC2)nn1-c1cccnc1

$$$$
