
     RDKit          3D

 41 45  0  0  0  0  0  0  0  0999 V2000
    9.0169    1.0534   25.5661 C   0  0  0  0  0  0  0  0  0  0  0  0
    7.5832    1.2223   25.2094 C   0  0  0  0  0  0  0  0  0  0  0  0
    6.9647    1.3704   24.0050 C   0  0  0  0  0  0  0  0  0  0  0  0
    7.6175    1.3110   22.6453 C   0  0  0  0  0  0  0  0  0  0  0  0
    7.7125   -0.0972   22.1422 C   0  0  0  0  0  0  0  0  0  0  0  0
    8.3572   -1.0414   22.8054 N   0  0  0  0  0  0  0  0  0  0  0  0
    8.1971   -2.1304   22.0264 C   0  0  0  0  0  0  0  0  0  0  0  0
    8.8817   -3.4240   22.2640 C   0  0  0  0  0  0  0  0  0  0  0  0
    8.1144   -4.7012   22.1074 C   0  0  0  0  0  0  0  0  0  0  0  0
    8.8829   -4.4683   23.4190 C   0  0  0  0  0  0  0  0  0  0  0  0
    9.0450   -5.5740   24.4833 C   0  0  0  0  0  0  0  0  0  0  0  0
    9.9689   -4.3952   24.4730 C   0  0  0  0  0  0  0  0  0  0  0  0
    9.7984   -3.6267   25.2282 H   0  0  0  0  0  0  0  0  0  0  0  0
   11.0083   -4.5293   24.1605 H   0  0  0  0  0  0  0  0  0  0  0  0
    9.4356   -6.5347   24.1369 H   0  0  0  0  0  0  0  0  0  0  0  0
    8.2953   -5.6580   25.2684 H   0  0  0  0  0  0  0  0  0  0  0  0
    8.4406   -5.4837   21.4213 H   0  0  0  0  0  0  0  0  0  0  0  0
    7.0258   -4.6464   22.2186 H   0  0  0  0  0  0  0  0  0  0  0  0
    9.8874   -3.2806   21.8649 H   0  0  0  0  0  0  0  0  0  0  0  0
    7.5837   -1.9076   20.8745 N   0  0  0  0  0  0  0  0  0  0  0  0
    7.2384   -0.6000   20.9658 N   0  0  0  0  0  0  0  0  0  0  0  0
    6.5650    0.0392   19.8876 C   0  0  0  0  0  0  0  0  0  0  0  0
    5.3575    0.7090   20.0968 C   0  0  0  0  0  0  0  0  0  0  0  0
    4.7662    1.3592   19.0115 C   0  0  0  0  0  0  0  0  0  0  0  0
    5.4028    1.3188   17.7690 C   0  0  0  0  0  0  0  0  0  0  0  0
    6.5511    0.6522   17.5564 N   0  0  0  0  0  0  0  0  0  0  0  0
    7.1085    0.0115   18.5890 C   0  0  0  0  0  0  0  0  0  0  0  0
    8.0345   -0.5222   18.3832 H   0  0  0  0  0  0  0  0  0  0  0  0
    4.9669    1.8233   16.9096 H   0  0  0  0  0  0  0  0  0  0  0  0
    3.8352    1.8978   19.1267 H   0  0  0  0  0  0  0  0  0  0  0  0
    4.8958    0.7161   21.0842 H   0  0  0  0  0  0  0  0  0  0  0  0
    7.0735    1.9276   21.9279 H   0  0  0  0  0  0  0  0  0  0  0  0
    8.6451    1.6941   22.7003 H   0  0  0  0  0  0  0  0  0  0  0  0
    5.5570    1.3337   24.2727 C   0  0  0  0  0  0  0  0  0  0  0  0
    5.4287    1.2044   25.6104 C   0  0  0  0  0  0  0  0  0  0  0  0
    6.6538    1.1430   26.1980 O   0  0  0  0  0  0  0  0  0  0  0  0
    4.5761    1.1077   26.2685 H   0  0  0  0  0  0  0  0  0  0  0  0
    4.7529    1.3817   23.5491 H   0  0  0  0  0  0  0  0  0  0  0  0
    9.6165    1.8951   25.2052 H   0  0  0  0  0  0  0  0  0  0  0  0
    9.3969    0.1603   25.0570 H   0  0  0  0  0  0  0  0  0  0  0  0
    9.1451    0.9513   26.6446 H   0  0  0  0  0  0  0  0  0  0  0  0
  1  2  1  0
  2  3  2  0
  3  4  1  0
  4  5  1  0
  5  6  2  0
  6  7  1  0
  7  8  1  0
  8  9  1  0
  9 10  1  0
 10 11  1  0
 11 12  1  0
 12 13  1  0
 12 14  1  0
 11 15  1  0
 11 16  1  0
  9 17  1  0
  9 18  1  0
  8 19  1  0
  7 20  2  0
 20 21  1  0
 21 22  1  0
 22 23  2  0
 23 24  1  0
 24 25  2  0
 25 26  1  0
 26 27  2  0
 27 28  1  0
 25 29  1  0
 24 30  1  0
 23 31  1  0
  4 32  1  0
  4 33  1  0
  3 34  1  0
 34 35  2  0
 35 36  1  0
 35 37  1  0
 34 38  1  0
  1 39  1  0
  1 40  1  0
  1 41  1  0
 36  2  1  0
 21  5  1  0
 27 22  1  0
 10  8  1  0
 12 10  1  0
M  END
>  <cnnaffinity>  (1) 
-6.48908

>  <filename>  (1) 
Cc1occc1Cc1nc(C2CC23CC3)nn1-c1cccnc1

$$$$
