
     RDKit          3D

 41 45  0  0  0  0  0  0  0  0999 V2000
    9.7508    2.1827   21.1399 C   0  0  0  0  0  0  0  0  0  0  0  0
    9.8236    2.1190   22.6329 C   0  0  0  0  0  0  0  0  0  0  0  0
    8.8186    1.7539   23.4779 C   0  0  0  0  0  0  0  0  0  0  0  0
    7.4478    1.2604   23.0335 C   0  0  0  0  0  0  0  0  0  0  0  0
    7.5411   -0.1214   22.4469 C   0  0  0  0  0  0  0  0  0  0  0  0
    8.0995   -1.1364   23.0945 N   0  0  0  0  0  0  0  0  0  0  0  0
    8.0914   -2.1336   22.1779 C   0  0  0  0  0  0  0  0  0  0  0  0
    8.8535   -3.4066   22.2900 C   0  0  0  0  0  0  0  0  0  0  0  0
    8.2051   -4.7329   22.0128 C   0  0  0  0  0  0  0  0  0  0  0  0
    8.8549   -4.4786   23.3862 C   0  0  0  0  0  0  0  0  0  0  0  0
    9.8484   -4.3895   24.5295 C   0  0  0  0  0  0  0  0  0  0  0  0
    8.8416   -5.5018   24.5125 C   0  0  0  0  0  0  0  0  0  0  0  0
    9.2260   -6.4769   24.2090 H   0  0  0  0  0  0  0  0  0  0  0  0
    8.0011   -5.5150   25.2008 H   0  0  0  0  0  0  0  0  0  0  0  0
   10.8952   -4.6285   24.3396 H   0  0  0  0  0  0  0  0  0  0  0  0
    9.6783   -3.5506   25.2076 H   0  0  0  0  0  0  0  0  0  0  0  0
    7.1144   -4.7721   22.0356 H   0  0  0  0  0  0  0  0  0  0  0  0
    8.6240   -5.4831   21.3394 H   0  0  0  0  0  0  0  0  0  0  0  0
    9.8714   -3.2077   21.9392 H   0  0  0  0  0  0  0  0  0  0  0  0
    7.5670   -1.8131   21.0110 N   0  0  0  0  0  0  0  0  0  0  0  0
    7.1774   -0.5235   21.1912 N   0  0  0  0  0  0  0  0  0  0  0  0
    6.5550    0.1539   20.1038 C   0  0  0  0  0  0  0  0  0  0  0  0
    5.3611    0.8747   20.2307 C   0  0  0  0  0  0  0  0  0  0  0  0
    4.8199    1.4446   19.0683 C   0  0  0  0  0  0  0  0  0  0  0  0
    5.4907    1.2902   17.8519 C   0  0  0  0  0  0  0  0  0  0  0  0
    6.6302    0.5879   17.7252 N   0  0  0  0  0  0  0  0  0  0  0  0
    7.1346    0.0264   18.8275 C   0  0  0  0  0  0  0  0  0  0  0  0
    8.0465   -0.5560   18.7151 H   0  0  0  0  0  0  0  0  0  0  0  0
    5.0964    1.7292   16.9363 H   0  0  0  0  0  0  0  0  0  0  0  0
    3.8873    1.9986   19.0979 H   0  0  0  0  0  0  0  0  0  0  0  0
    4.8576    0.9598   21.1963 H   0  0  0  0  0  0  0  0  0  0  0  0
    6.8164    1.1558   23.9210 H   0  0  0  0  0  0  0  0  0  0  0  0
    6.9475    1.9650   22.3540 H   0  0  0  0  0  0  0  0  0  0  0  0
    9.2702    1.6298   24.8295 C   0  0  0  0  0  0  0  0  0  0  0  0
   10.5836    1.9406   24.9884 C   0  0  0  0  0  0  0  0  0  0  0  0
   11.3113    2.3687   23.4893 S   0  0  0  0  0  0  0  0  0  0  0  0
   11.1691    1.8747   25.8928 H   0  0  0  0  0  0  0  0  0  0  0  0
    8.6170    1.2742   25.6187 H   0  0  0  0  0  0  0  0  0  0  0  0
   10.6616    2.5746   20.6833 H   0  0  0  0  0  0  0  0  0  0  0  0
    8.8972    2.7873   20.8139 H   0  0  0  0  0  0  0  0  0  0  0  0
    9.5728    1.1763   20.7436 H   0  0  0  0  0  0  0  0  0  0  0  0
  1  2  1  0
  2  3  2  0
  3  4  1  0
  4  5  1  0
  5  6  2  0
  6  7  1  0
  7  8  1  0
  8  9  1  0
  9 10  1  0
 10 11  1  0
 11 12  1  0
 12 13  1  0
 12 14  1  0
 11 15  1  0
 11 16  1  0
  9 17  1  0
  9 18  1  0
  8 19  1  0
  7 20  2  0
 20 21  1  0
 21 22  1  0
 22 23  2  0
 23 24  1  0
 24 25  2  0
 25 26  1  0
 26 27  2  0
 27 28  1  0
 25 29  1  0
 24 30  1  0
 23 31  1  0
  4 32  1  0
  4 33  1  0
  3 34  1  0
 34 35  2  0
 35 36  1  0
 35 37  1  0
 34 38  1  0
  1 39  1  0
  1 40  1  0
  1 41  1  0
 36  2  1  0
 21  5  1  0
 27 22  1  0
 10  8  1  0
 12 10  1  0
M  END
>  <cnnaffinity>  (1) 
-6.26192

>  <filename>  (1) 
Cc1sccc1Cc1nc(C2CC23CC3)nn1-c1cccnc1

$$$$
