
     RDKit          3D

 41 44  0  0  0  0  0  0  0  0999 V2000
    9.4001    1.2004   25.2269 C   0  0  0  0  0  0  0  0  0  0  0  0
    7.8990    1.2936   25.1797 C   0  0  0  0  0  0  0  0  0  0  0  0
    7.1305    1.3627   24.0557 C   0  0  0  0  0  0  0  0  0  0  0  0
    7.6737    1.2953   22.6438 C   0  0  0  0  0  0  0  0  0  0  0  0
    7.7129   -0.1179   22.1477 C   0  0  0  0  0  0  0  0  0  0  0  0
    8.3004   -1.0861   22.8275 N   0  0  0  0  0  0  0  0  0  0  0  0
    8.1948   -2.1564   22.0182 C   0  0  0  0  0  0  0  0  0  0  0  0
    8.7945   -3.4755   22.3760 C   0  0  0  0  0  0  0  0  0  0  0  0
    8.8477   -3.9045   23.8674 C   0  0  0  0  0  0  0  0  0  0  0  0
    8.6834   -5.4391   23.8046 C   0  0  0  0  0  0  0  0  0  0  0  0
    8.5878   -5.7795   22.4287 O   0  0  0  0  0  0  0  0  0  0  0  0
    8.0687   -4.6621   21.7387 C   0  0  0  0  0  0  0  0  0  0  0  0
    8.2682   -4.7827   20.6671 H   0  0  0  0  0  0  0  0  0  0  0  0
    6.9781   -4.5651   21.8938 H   0  0  0  0  0  0  0  0  0  0  0  0
    7.7735   -5.7451   24.3403 H   0  0  0  0  0  0  0  0  0  0  0  0
    9.5110   -6.0135   24.2368 H   0  0  0  0  0  0  0  0  0  0  0  0
    8.0170   -3.4740   24.4356 H   0  0  0  0  0  0  0  0  0  0  0  0
    9.7827   -3.5934   24.3390 H   0  0  0  0  0  0  0  0  0  0  0  0
    9.8165   -3.3960   21.9982 H   0  0  0  0  0  0  0  0  0  0  0  0
    7.6268   -1.9121   20.8486 N   0  0  0  0  0  0  0  0  0  0  0  0
    7.2823   -0.6005   20.9433 N   0  0  0  0  0  0  0  0  0  0  0  0
    6.5896    0.0301   19.8710 C   0  0  0  0  0  0  0  0  0  0  0  0
    5.3803    0.7023   20.0837 C   0  0  0  0  0  0  0  0  0  0  0  0
    4.7805    1.3518   19.0004 C   0  0  0  0  0  0  0  0  0  0  0  0
    5.4093    1.3132   17.7541 C   0  0  0  0  0  0  0  0  0  0  0  0
    6.5505    0.6339   17.5354 N   0  0  0  0  0  0  0  0  0  0  0  0
    7.1120   -0.0092   18.5652 C   0  0  0  0  0  0  0  0  0  0  0  0
    8.0231   -0.5634   18.3492 H   0  0  0  0  0  0  0  0  0  0  0  0
    4.9878    1.8386   16.8998 H   0  0  0  0  0  0  0  0  0  0  0  0
    3.8483    1.8913   19.1163 H   0  0  0  0  0  0  0  0  0  0  0  0
    4.9133    0.6966   21.0678 H   0  0  0  0  0  0  0  0  0  0  0  0
    8.7027    1.6781   22.6056 H   0  0  0  0  0  0  0  0  0  0  0  0
    7.0851    1.9245   21.9751 H   0  0  0  0  0  0  0  0  0  0  0  0
    5.7292    1.3167   24.3427 C   0  0  0  0  0  0  0  0  0  0  0  0
    5.4620    1.2469   25.6729 C   0  0  0  0  0  0  0  0  0  0  0  0
    6.9124    1.2262   26.6033 S   0  0  0  0  0  0  0  0  0  0  0  0
    4.5002    1.1899   26.1640 H   0  0  0  0  0  0  0  0  0  0  0  0
    4.9677    1.3118   23.5687 H   0  0  0  0  0  0  0  0  0  0  0  0
    9.7230    0.3633   24.5949 H   0  0  0  0  0  0  0  0  0  0  0  0
    9.8550    2.1067   24.8096 H   0  0  0  0  0  0  0  0  0  0  0  0
    9.7870    1.0538   26.2375 H   0  0  0  0  0  0  0  0  0  0  0  0
  1  2  1  0
  2  3  2  0
  3  4  1  0
  4  5  1  0
  5  6  2  0
  6  7  1  0
  7  8  1  0
  8  9  1  0
  9 10  1  0
 10 11  1  0
 11 12  1  0
 12 13  1  0
 12 14  1  0
 10 15  1  0
 10 16  1  0
  9 17  1  0
  9 18  1  0
  8 19  1  0
  7 20  2  0
 20 21  1  0
 21 22  1  0
 22 23  2  0
 23 24  1  0
 24 25  2  0
 25 26  1  0
 26 27  2  0
 27 28  1  0
 25 29  1  0
 24 30  1  0
 23 31  1  0
  4 32  1  0
  4 33  1  0
  3 34  1  0
 34 35  2  0
 35 36  1  0
 35 37  1  0
 34 38  1  0
  1 39  1  0
  1 40  1  0
  1 41  1  0
 36  2  1  0
 21  5  1  0
 27 22  1  0
 12  8  1  0
M  END
>  <cnnaffinity>  (1) 
-5.83561

>  <filename>  (1) 
Cc1sccc1Cc1nc(C2CCOC2)nn1-c1cccnc1

$$$$
