
     RDKit          3D

 41 44  0  0  0  0  0  0  0  0999 V2000
    9.7562    2.1743   21.1784 C   0  0  0  0  0  0  0  0  0  0  0  0
    9.8288    2.1260   22.6790 C   0  0  0  0  0  0  0  0  0  0  0  0
    8.8352    1.7171   23.5151 C   0  0  0  0  0  0  0  0  0  0  0  0
    7.4710    1.2340   23.0546 C   0  0  0  0  0  0  0  0  0  0  0  0
    7.5505   -0.1263   22.4230 C   0  0  0  0  0  0  0  0  0  0  0  0
    7.9966   -1.1749   23.0914 N   0  0  0  0  0  0  0  0  0  0  0  0
    8.1478   -2.1209   22.1339 C   0  0  0  0  0  0  0  0  0  0  0  0
    8.6370   -3.5239   22.3905 C   0  0  0  0  0  0  0  0  0  0  0  0
    7.6822   -4.4019   23.2458 C   0  0  0  0  0  0  0  0  0  0  0  0
    8.6701   -5.2860   24.0198 C   0  0  0  0  0  0  0  0  0  0  0  0
    9.8093   -4.2953   24.2595 C   0  0  0  0  0  0  0  0  0  0  0  0
    9.8982   -3.5459   23.0562 O   0  0  0  0  0  0  0  0  0  0  0  0
    9.5739   -3.6200   25.0992 H   0  0  0  0  0  0  0  0  0  0  0  0
   10.7909   -4.7472   24.4354 H   0  0  0  0  0  0  0  0  0  0  0  0
    8.2620   -5.6940   24.9509 H   0  0  0  0  0  0  0  0  0  0  0  0
    9.0060   -6.1292   23.4007 H   0  0  0  0  0  0  0  0  0  0  0  0
    7.1146   -3.7556   23.9319 H   0  0  0  0  0  0  0  0  0  0  0  0
    6.9640   -4.9569   22.6306 H   0  0  0  0  0  0  0  0  0  0  0  0
    8.7610   -3.9452   21.3867 H   0  0  0  0  0  0  0  0  0  0  0  0
    7.7791   -1.7471   20.9260 N   0  0  0  0  0  0  0  0  0  0  0  0
    7.3418   -0.4742   21.1128 N   0  0  0  0  0  0  0  0  0  0  0  0
    6.6713    0.1673   20.0372 C   0  0  0  0  0  0  0  0  0  0  0  0
    5.4574    0.8395   20.2108 C   0  0  0  0  0  0  0  0  0  0  0  0
    4.8534    1.3922   19.0756 C   0  0  0  0  0  0  0  0  0  0  0  0
    5.4857    1.2746   17.8330 C   0  0  0  0  0  0  0  0  0  0  0  0
    6.6392    0.6046   17.6604 N   0  0  0  0  0  0  0  0  0  0  0  0
    7.1956    0.0418   18.7363 C   0  0  0  0  0  0  0  0  0  0  0  0
    8.0790   -0.5706   18.5723 H   0  0  0  0  0  0  0  0  0  0  0  0
    5.0540    1.7207   16.9391 H   0  0  0  0  0  0  0  0  0  0  0  0
    3.9035    1.9096   19.1430 H   0  0  0  0  0  0  0  0  0  0  0  0
    4.9812    0.8807   21.1925 H   0  0  0  0  0  0  0  0  0  0  0  0
    6.8377    1.1375   23.9393 H   0  0  0  0  0  0  0  0  0  0  0  0
    6.9838    1.9520   22.3917 H   0  0  0  0  0  0  0  0  0  0  0  0
    9.2701    1.5984   24.8728 C   0  0  0  0  0  0  0  0  0  0  0  0
   10.5792    1.9169   25.0378 C   0  0  0  0  0  0  0  0  0  0  0  0
   11.2906    2.4318   23.5599 S   0  0  0  0  0  0  0  0  0  0  0  0
   11.1800    1.8220   25.9294 H   0  0  0  0  0  0  0  0  0  0  0  0
    8.6175    1.2578   25.6704 H   0  0  0  0  0  0  0  0  0  0  0  0
   10.6656    2.5532   20.7054 H   0  0  0  0  0  0  0  0  0  0  0  0
    8.8996    2.7799   20.8568 H   0  0  0  0  0  0  0  0  0  0  0  0
    9.5598    1.1597   20.8040 H   0  0  0  0  0  0  0  0  0  0  0  0
  1  2  1  0
  2  3  2  0
  3  4  1  0
  4  5  1  0
  5  6  2  0
  6  7  1  0
  7  8  1  0
  8  9  1  0
  9 10  1  0
 10 11  1  0
 11 12  1  0
 11 13  1  0
 11 14  1  0
 10 15  1  0
 10 16  1  0
  9 17  1  0
  9 18  1  0
  8 19  1  0
  7 20  2  0
 20 21  1  0
 21 22  1  0
 22 23  2  0
 23 24  1  0
 24 25  2  0
 25 26  1  0
 26 27  2  0
 27 28  1  0
 25 29  1  0
 24 30  1  0
 23 31  1  0
  4 32  1  0
  4 33  1  0
  3 34  1  0
 34 35  2  0
 35 36  1  0
 35 37  1  0
 34 38  1  0
  1 39  1  0
  1 40  1  0
  1 41  1  0
 36  2  1  0
 21  5  1  0
 27 22  1  0
 12  8  1  0
M  END
>  <cnnaffinity>  (1) 
-6.51269

>  <filename>  (1) 
Cc1sccc1Cc1nc(C2CCCO2)nn1-c1cccnc1

$$$$
