
     RDKit          3D

 32 33  0  0  0  0  0  0  0  0999 V2000
    4.9331    1.8192   16.9972 H   0  0  0  0  0  0  0  0  0  0  0  0
    5.3979    1.2961   17.8292 C   0  0  0  0  0  0  0  0  0  0  0  0
    6.5587    0.6765   17.5595 N   0  0  0  0  0  0  0  0  0  0  0  0
    7.1672    0.0406   18.5718 C   0  0  0  0  0  0  0  0  0  0  0  0
    8.1202   -0.4318   18.3425 H   0  0  0  0  0  0  0  0  0  0  0  0
    6.6587   -0.0416   19.8943 C   0  0  0  0  0  0  0  0  0  0  0  0
    7.3186   -0.7652   20.9096 N   0  0  0  0  0  0  0  0  0  0  0  0
    6.7809   -0.9968   21.7367 H   0  0  0  0  0  0  0  0  0  0  0  0
    8.7133   -0.7659   21.1073 C   0  0  0  0  0  0  0  0  0  0  0  0
    9.6833    0.1948   20.7090 C   0  0  0  0  0  0  0  0  0  0  0  0
    9.5355    1.1050   20.1427 H   0  0  0  0  0  0  0  0  0  0  0  0
   10.9094   -0.1592   21.0876 N   0  0  0  0  0  0  0  0  0  0  0  0
   10.7308   -1.3305   21.7134 N   0  0  0  0  0  0  0  0  0  0  0  0
   11.5355   -1.8188   22.0772 H   0  0  0  0  0  0  0  0  0  0  0  0
    9.4332   -1.7404   21.7790 C   0  0  0  0  0  0  0  0  0  0  0  0
    8.9989   -2.9794   22.5248 C   0  0  1  0  0  0  0  0  0  0  0  0
    9.9206   -3.5390   22.7497 H   0  0  0  0  0  0  0  0  0  0  0  0
    8.3150   -2.6063   23.8520 C   0  0  0  0  0  0  0  0  0  0  0  0
    8.1054   -3.4960   24.4566 H   0  0  0  0  0  0  0  0  0  0  0  0
    7.3624   -2.0987   23.6541 H   0  0  0  0  0  0  0  0  0  0  0  0
    8.9433   -1.9299   24.4433 H   0  0  0  0  0  0  0  0  0  0  0  0
    8.1253   -3.8729   21.6234 C   0  0  0  0  0  0  0  0  0  0  0  0
    7.1822   -3.3517   21.4159 H   0  0  0  0  0  0  0  0  0  0  0  0
    8.6595   -3.9369   20.6752 H   0  0  0  0  0  0  0  0  0  0  0  0
    7.8925   -5.3011   22.1245 C   0  0  0  0  0  0  0  0  0  0  0  0
    7.3392   -5.3647   23.0693 H   0  0  0  0  0  0  0  0  0  0  0  0
    8.8500   -5.8112   22.2710 H   0  0  0  0  0  0  0  0  0  0  0  0
    7.3357   -5.8785   21.3794 H   0  0  0  0  0  0  0  0  0  0  0  0
    5.4448    0.6159   20.1472 C   0  0  0  0  0  0  0  0  0  0  0  0
    5.0339    0.6087   21.1586 H   0  0  0  0  0  0  0  0  0  0  0  0
    4.8071    1.2941   19.1009 C   0  0  0  0  0  0  0  0  0  0  0  0
    3.8758    1.8346   19.2599 H   0  0  0  0  0  0  0  0  0  0  0  0
  1  2  1  0
  2  3  2  0
  3  4  1  0
  4  5  1  0
  4  6  2  0
  6  7  1  0
  7  8  1  0
  7  9  1  0
  9 10  1  0
 10 11  1  0
 10 12  2  0
 12 13  1  0
 13 14  1  0
 13 15  1  0
 15 16  1  0
 16 17  1  1
 16 18  1  0
 18 19  1  0
 18 20  1  0
 18 21  1  0
 16 22  1  0
 22 23  1  0
 22 24  1  0
 22 25  1  0
 25 26  1  0
 25 27  1  0
 25 28  1  0
  6 29  1  0
 29 30  1  0
 29 31  2  0
 31 32  1  0
 31  2  1  0
 15  9  2  0
M  END
>  <cnnaffinity>  (1) 
-5.22476

>  <filename>  (1) 
CC[C@H](C)c1[nH]ncc1Nc1cccnc1

$$$$
