
     RDKit          3D

 47 49  0  0  0  0  0  0  0  0999 V2000
    7.0911   -3.2560   26.1475 C   0  0  0  0  0  0  0  0  0  0  0  0
    7.6291   -2.4009   24.9993 C   0  0  0  0  0  0  0  0  0  0  0  0
    7.4491   -3.0414   23.6038 C   0  0  0  0  0  0  0  0  0  0  0  0
    8.3434   -4.2803   23.3987 C   0  0  0  0  0  0  0  0  0  0  0  0
    8.0931   -4.9792   22.0644 C   0  0  0  0  0  0  0  0  0  0  0  0
    7.0429   -5.2779   21.9649 H   0  0  0  0  0  0  0  0  0  0  0  0
    8.3277   -4.3213   21.2186 H   0  0  0  0  0  0  0  0  0  0  0  0
    8.7011   -5.8853   21.9780 H   0  0  0  0  0  0  0  0  0  0  0  0
    9.3946   -3.9711   23.4687 H   0  0  0  0  0  0  0  0  0  0  0  0
    8.1765   -4.9880   24.2203 H   0  0  0  0  0  0  0  0  0  0  0  0
    7.6638   -2.0207   22.5193 C   0  0  0  0  0  0  0  0  0  0  0  0
    6.7129   -1.6145   21.7016 N   0  0  0  0  0  0  0  0  0  0  0  0
    7.3441   -0.6871   20.9303 N   0  0  0  0  0  0  0  0  0  0  0  0
    6.6475   -0.0027   19.8975 C   0  0  0  0  0  0  0  0  0  0  0  0
    5.4371    0.6446   20.1648 C   0  0  0  0  0  0  0  0  0  0  0  0
    4.8118    1.3126   19.1082 C   0  0  0  0  0  0  0  0  0  0  0  0
    5.3983    1.2971   17.8363 C   0  0  0  0  0  0  0  0  0  0  0  0
    6.5548    0.6706   17.5722 N   0  0  0  0  0  0  0  0  0  0  0  0
    7.1610    0.0453   18.5878 C   0  0  0  0  0  0  0  0  0  0  0  0
    8.1114   -0.4336   18.3644 H   0  0  0  0  0  0  0  0  0  0  0  0
    4.9197    1.7876   16.9926 H   0  0  0  0  0  0  0  0  0  0  0  0
    3.8800    1.8406   19.2605 H   0  0  0  0  0  0  0  0  0  0  0  0
    5.0152    0.6101   21.1736 H   0  0  0  0  0  0  0  0  0  0  0  0
    8.6235   -0.5454   21.3848 C   0  0  0  0  0  0  0  0  0  0  0  0
    9.6326    0.3963   20.8502 C   0  0  0  0  0  0  0  0  0  0  0  0
   10.2519    1.2091   21.9557 C   0  0  0  0  0  0  0  0  0  0  0  0
   11.4810    0.8496   22.3299 N   0  0  0  0  0  0  0  0  0  0  0  0
   12.0441    1.5176   23.3473 C   0  0  0  0  0  0  0  0  0  0  0  0
   11.4180    2.5629   24.0205 C   0  0  0  0  0  0  0  0  0  0  0  0
   10.1351    2.9428   23.6224 C   0  0  0  0  0  0  0  0  0  0  0  0
    9.5214    2.2619   22.5693 C   0  0  0  0  0  0  0  0  0  0  0  0
    8.1270    2.6488   22.1405 C   0  0  0  0  0  0  0  0  0  0  0  0
    7.4059    1.8443   22.3192 H   0  0  0  0  0  0  0  0  0  0  0  0
    7.7791    3.5311   22.6815 H   0  0  0  0  0  0  0  0  0  0  0  0
    8.0748    2.8753   21.0740 H   0  0  0  0  0  0  0  0  0  0  0  0
    9.6020    3.7581   24.1190 H   0  0  0  0  0  0  0  0  0  0  0  0
   11.9212    3.0680   24.8296 H   0  0  0  0  0  0  0  0  0  0  0  0
   13.0409    1.1922   23.6363 H   0  0  0  0  0  0  0  0  0  0  0  0
    9.1823    1.0440   20.0998 H   0  0  0  0  0  0  0  0  0  0  0  0
   10.3994   -0.2324   20.4067 H   0  0  0  0  0  0  0  0  0  0  0  0
    8.8623   -1.4048   22.3487 N   0  0  0  0  0  0  0  0  0  0  0  0
    6.4009   -3.3410   23.4980 H   0  0  0  0  0  0  0  0  0  0  0  0
    7.1215   -1.4281   25.0101 H   0  0  0  0  0  0  0  0  0  0  0  0
    8.6929   -2.1814   25.1554 H   0  0  0  0  0  0  0  0  0  0  0  0
    7.6642   -4.1796   26.2851 H   0  0  0  0  0  0  0  0  0  0  0  0
    6.0462   -3.5395   25.9723 H   0  0  0  0  0  0  0  0  0  0  0  0
    7.1265   -2.7049   27.0932 H   0  0  0  0  0  0  0  0  0  0  0  0
  1  2  1  0
  2  3  1  0
  3  4  1  0
  4  5  1  0
  5  6  1  0
  5  7  1  0
  5  8  1  0
  4  9  1  0
  4 10  1  0
  3 11  1  0
 11 12  2  0
 12 13  1  0
 13 14  1  0
 14 15  2  0
 15 16  1  0
 16 17  2  0
 17 18  1  0
 18 19  2  0
 19 20  1  0
 17 21  1  0
 16 22  1  0
 15 23  1  0
 13 24  1  0
 24 25  1  0
 25 26  1  0
 26 27  2  0
 27 28  1  0
 28 29  2  0
 29 30  1  0
 30 31  2  0
 31 32  1  0
 32 33  1  0
 32 34  1  0
 32 35  1  0
 30 36  1  0
 29 37  1  0
 28 38  1  0
 25 39  1  0
 25 40  1  0
 24 41  2  0
  3 42  1  0
  2 43  1  0
  2 44  1  0
  1 45  1  0
  1 46  1  0
  1 47  1  0
 41 11  1  0
 19 14  1  0
 31 26  1  0
M  END
>  <cnnaffinity>  (1) 
-6.2399

>  <filename>  (1) 
CCC(CC)c1nc(Cc2ncccc2C)n(-c2cccnc2)n1

$$$$
