
     RDKit          3D

 51 53  0  0  0  0  0  0  0  0999 V2000
    6.1382   -5.1721   24.3373 C   0  0  0  0  0  0  0  0  0  0  0  0
    6.3270   -4.0825   23.2884 C   0  0  0  0  0  0  0  0  0  0  0  0
    7.3643   -3.0080   23.6614 C   0  0  0  0  0  0  0  0  0  0  0  0
    7.1153   -2.2587   24.9974 C   0  0  0  0  0  0  0  0  0  0  0  0
    5.8391   -1.4238   25.0159 C   0  0  0  0  0  0  0  0  0  0  0  0
    5.7026   -0.9162   25.9747 H   0  0  0  0  0  0  0  0  0  0  0  0
    4.9505   -2.0420   24.8464 H   0  0  0  0  0  0  0  0  0  0  0  0
    5.8636   -0.6551   24.2366 H   0  0  0  0  0  0  0  0  0  0  0  0
    7.1175   -2.9840   25.8203 H   0  0  0  0  0  0  0  0  0  0  0  0
    7.9771   -1.6031   25.1800 H   0  0  0  0  0  0  0  0  0  0  0  0
    7.5596   -2.0210   22.5454 C   0  0  0  0  0  0  0  0  0  0  0  0
    6.6311   -1.5858   21.7088 N   0  0  0  0  0  0  0  0  0  0  0  0
    7.3078   -0.6874   20.9392 N   0  0  0  0  0  0  0  0  0  0  0  0
    6.6292   -0.0095   19.8836 C   0  0  0  0  0  0  0  0  0  0  0  0
    5.4176    0.6374   20.1389 C   0  0  0  0  0  0  0  0  0  0  0  0
    4.7941    1.3173   19.0889 C   0  0  0  0  0  0  0  0  0  0  0  0
    5.3921    1.3030   17.8237 C   0  0  0  0  0  0  0  0  0  0  0  0
    6.5322    0.6476   17.5573 N   0  0  0  0  0  0  0  0  0  0  0  0
    7.1372    0.0101   18.5701 C   0  0  0  0  0  0  0  0  0  0  0  0
    8.0657   -0.5090   18.3289 H   0  0  0  0  0  0  0  0  0  0  0  0
    4.9364    1.8381   16.9950 H   0  0  0  0  0  0  0  0  0  0  0  0
    3.8689    1.8605   19.2455 H   0  0  0  0  0  0  0  0  0  0  0  0
    4.9908    0.5976   21.1418 H   0  0  0  0  0  0  0  0  0  0  0  0
    8.5946   -0.6111   21.3846 C   0  0  0  0  0  0  0  0  0  0  0  0
    9.6740    0.2871   20.8707 C   0  0  0  0  0  0  0  0  0  0  0  0
   10.2164    1.2268   21.9256 C   0  0  0  0  0  0  0  0  0  0  0  0
    9.5888    2.3470   22.4424 C   0  0  0  0  0  0  0  0  0  0  0  0
    8.2864    3.0092   22.0857 C   0  0  0  0  0  0  0  0  0  0  0  0
    8.4051    3.8340   21.3733 H   0  0  0  0  0  0  0  0  0  0  0  0
    7.5930    2.2890   21.6427 H   0  0  0  0  0  0  0  0  0  0  0  0
    7.7992    3.4215   22.9766 H   0  0  0  0  0  0  0  0  0  0  0  0
   10.3913    2.7885   23.4530 N   0  0  0  0  0  0  0  0  0  0  0  0
   10.2060    3.9384   24.3084 C   0  0  0  0  0  0  0  0  0  0  0  0
    9.8284    4.7748   23.7218 H   0  0  0  0  0  0  0  0  0  0  0  0
   11.1698    4.2161   24.7259 H   0  0  0  0  0  0  0  0  0  0  0  0
    9.5169    3.7307   25.1310 H   0  0  0  0  0  0  0  0  0  0  0  0
   11.4519    1.9861   23.6696 N   0  0  0  0  0  0  0  0  0  0  0  0
   11.3542    1.0388   22.7491 C   0  0  0  0  0  0  0  0  0  0  0  0
   12.3130   -0.1033   22.6940 C   0  0  0  0  0  0  0  0  0  0  0  0
   11.7497   -1.0425   22.7304 H   0  0  0  0  0  0  0  0  0  0  0  0
   12.9966   -0.0761   23.5429 H   0  0  0  0  0  0  0  0  0  0  0  0
   12.9163   -0.1057   21.7830 H   0  0  0  0  0  0  0  0  0  0  0  0
   10.4732   -0.3706   20.5036 H   0  0  0  0  0  0  0  0  0  0  0  0
    9.3005    0.8591   20.0190 H   0  0  0  0  0  0  0  0  0  0  0  0
    8.7796   -1.4578   22.3790 N   0  0  0  0  0  0  0  0  0  0  0  0
    8.3440   -3.4924   23.7607 H   0  0  0  0  0  0  0  0  0  0  0  0
    5.3698   -3.5940   23.0713 H   0  0  0  0  0  0  0  0  0  0  0  0
    6.6452   -4.5455   22.3465 H   0  0  0  0  0  0  0  0  0  0  0  0
    5.6958   -4.7753   25.2570 H   0  0  0  0  0  0  0  0  0  0  0  0
    5.4758   -5.9621   23.9693 H   0  0  0  0  0  0  0  0  0  0  0  0
    7.0961   -5.6360   24.5972 H   0  0  0  0  0  0  0  0  0  0  0  0
  1  2  1  0
  2  3  1  0
  3  4  1  0
  4  5  1  0
  5  6  1  0
  5  7  1  0
  5  8  1  0
  4  9  1  0
  4 10  1  0
  3 11  1  0
 11 12  2  0
 12 13  1  0
 13 14  1  0
 14 15  2  0
 15 16  1  0
 16 17  2  0
 17 18  1  0
 18 19  2  0
 19 20  1  0
 17 21  1  0
 16 22  1  0
 15 23  1  0
 13 24  1  0
 24 25  1  0
 25 26  1  0
 26 27  2  0
 27 28  1  0
 28 29  1  0
 28 30  1  0
 28 31  1  0
 27 32  1  0
 32 33  1  0
 33 34  1  0
 33 35  1  0
 33 36  1  0
 32 37  1  0
 37 38  2  0
 38 39  1  0
 39 40  1  0
 39 41  1  0
 39 42  1  0
 25 43  1  0
 25 44  1  0
 24 45  2  0
  3 46  1  0
  2 47  1  0
  2 48  1  0
  1 49  1  0
  1 50  1  0
  1 51  1  0
 45 11  1  0
 19 14  1  0
 38 26  1  0
M  END
>  <cnnaffinity>  (1) 
-6.31565

>  <filename>  (1) 
CCC(CC)c1nc(Cc2c(C)nn(C)c2C)n(-c2cccnc2)n1

$$$$
