
     RDKit          3D

 47 49  0  0  0  0  0  0  0  0999 V2000
    6.4813   -5.3466   21.2266 C   0  0  0  0  0  0  0  0  0  0  0  0
    6.4613   -4.6259   22.5827 C   0  0  0  0  0  0  0  0  0  0  0  0
    7.8514   -4.3973   23.2196 C   0  0  0  0  0  0  0  0  0  0  0  0
    8.5785   -5.7050   23.5601 C   0  0  0  0  0  0  0  0  0  0  0  0
    9.5158   -5.4995   24.0939 H   0  0  0  0  0  0  0  0  0  0  0  0
    7.9722   -6.3468   24.2070 H   0  0  0  0  0  0  0  0  0  0  0  0
    8.8266   -6.2829   22.6594 H   0  0  0  0  0  0  0  0  0  0  0  0
    8.7367   -3.5514   22.2781 C   0  0  0  0  0  0  0  0  0  0  0  0
    8.2251   -2.1831   21.9865 C   0  0  0  0  0  0  0  0  0  0  0  0
    7.6852   -1.8859   20.8235 N   0  0  0  0  0  0  0  0  0  0  0  0
    7.2952   -0.5986   20.9847 N   0  0  0  0  0  0  0  0  0  0  0  0
    6.6117    0.0442   19.9180 C   0  0  0  0  0  0  0  0  0  0  0  0
    5.4027    0.7106   20.1323 C   0  0  0  0  0  0  0  0  0  0  0  0
    4.8034    1.3446   19.0413 C   0  0  0  0  0  0  0  0  0  0  0  0
    5.4363    1.2993   17.7931 C   0  0  0  0  0  0  0  0  0  0  0  0
    6.5761    0.6174   17.5727 N   0  0  0  0  0  0  0  0  0  0  0  0
    7.1317   -0.0138   18.6116 C   0  0  0  0  0  0  0  0  0  0  0  0
    8.0245   -0.5998   18.4075 H   0  0  0  0  0  0  0  0  0  0  0  0
    5.0128    1.8220   16.9387 H   0  0  0  0  0  0  0  0  0  0  0  0
    3.8566    1.8654   19.1455 H   0  0  0  0  0  0  0  0  0  0  0  0
    4.9346    0.6969   21.1196 H   0  0  0  0  0  0  0  0  0  0  0  0
    7.6505   -0.1763   22.2386 C   0  0  0  0  0  0  0  0  0  0  0  0
    7.4632    1.1784   22.8465 C   0  0  0  0  0  0  0  0  0  0  0  0
    8.7781    1.6713   23.4039 C   0  0  0  0  0  0  0  0  0  0  0  0
    8.9138    1.6196   24.7328 N   0  0  0  0  0  0  0  0  0  0  0  0
   10.0687    2.0368   25.2708 C   0  0  0  0  0  0  0  0  0  0  0  0
   11.1163    2.5499   24.5096 C   0  0  0  0  0  0  0  0  0  0  0  0
   10.9698    2.6214   23.1235 C   0  0  0  0  0  0  0  0  0  0  0  0
    9.7964    2.1448   22.5380 C   0  0  0  0  0  0  0  0  0  0  0  0
    9.6434    2.1489   21.0441 C   0  0  0  0  0  0  0  0  0  0  0  0
   10.5658    2.5108   20.5816 H   0  0  0  0  0  0  0  0  0  0  0  0
    8.8164    2.7954   20.7245 H   0  0  0  0  0  0  0  0  0  0  0  0
    9.4370    1.1434   20.6553 H   0  0  0  0  0  0  0  0  0  0  0  0
   11.7633    3.0326   22.4977 H   0  0  0  0  0  0  0  0  0  0  0  0
   12.0189    2.8921   24.9867 H   0  0  0  0  0  0  0  0  0  0  0  0
   10.1573    1.9561   26.3508 H   0  0  0  0  0  0  0  0  0  0  0  0
    6.7480    1.0851   23.6680 H   0  0  0  0  0  0  0  0  0  0  0  0
    7.0596    1.8839   22.1139 H   0  0  0  0  0  0  0  0  0  0  0  0
    8.2420   -1.1647   22.8810 N   0  0  0  0  0  0  0  0  0  0  0  0
    9.7513   -3.4607   22.6747 H   0  0  0  0  0  0  0  0  0  0  0  0
    8.7830   -4.0604   21.3125 H   0  0  0  0  0  0  0  0  0  0  0  0
    7.7040   -3.8421   24.1627 H   0  0  0  0  0  0  0  0  0  0  0  0
    5.9675   -3.6498   22.4577 H   0  0  0  0  0  0  0  0  0  0  0  0
    5.8391   -5.2027   23.2822 H   0  0  0  0  0  0  0  0  0  0  0  0
    6.9873   -4.7395   20.4654 H   0  0  0  0  0  0  0  0  0  0  0  0
    5.4632   -5.5299   20.8694 H   0  0  0  0  0  0  0  0  0  0  0  0
    6.9884   -6.3188   21.2835 H   0  0  0  0  0  0  0  0  0  0  0  0
  1  2  1  0
  2  3  1  0
  3  4  1  0
  4  5  1  0
  4  6  1  0
  4  7  1  0
  3  8  1  0
  8  9  1  0
  9 10  2  0
 10 11  1  0
 11 12  1  0
 12 13  2  0
 13 14  1  0
 14 15  2  0
 15 16  1  0
 16 17  2  0
 17 18  1  0
 15 19  1  0
 14 20  1  0
 13 21  1  0
 11 22  1  0
 22 23  1  0
 23 24  1  0
 24 25  2  0
 25 26  1  0
 26 27  2  0
 27 28  1  0
 28 29  2  0
 29 30  1  0
 30 31  1  0
 30 32  1  0
 30 33  1  0
 28 34  1  0
 27 35  1  0
 26 36  1  0
 23 37  1  0
 23 38  1  0
 22 39  2  0
  8 40  1  0
  8 41  1  0
  3 42  1  0
  2 43  1  0
  2 44  1  0
  1 45  1  0
  1 46  1  0
  1 47  1  0
 39  9  1  0
 17 12  1  0
 29 24  1  0
M  END
>  <cnnaffinity>  (1) 
-5.97111

>  <filename>  (1) 
CCC(C)Cc1nc(Cc2ncccc2C)n(-c2cccnc2)n1

$$$$
