
     RDKit          3D

 47 50  0  0  0  0  0  0  0  0999 V2000
    7.0640   -4.9932   21.7128 C   0  0  0  0  0  0  0  0  0  0  0  0
    7.8609   -4.5410   22.9359 C   0  0  0  0  0  0  0  0  0  0  0  0
    7.4240   -3.1644   23.5087 C   0  0  0  0  0  0  0  0  0  0  0  0
    6.0039   -3.1713   24.1004 C   0  0  0  0  0  0  0  0  0  0  0  0
    5.8991   -3.9856   24.8270 H   0  0  0  0  0  0  0  0  0  0  0  0
    5.2438   -3.2977   23.3195 H   0  0  0  0  0  0  0  0  0  0  0  0
    5.7976   -2.2265   24.6164 H   0  0  0  0  0  0  0  0  0  0  0  0
    7.6200   -2.0701   22.4886 C   0  0  0  0  0  0  0  0  0  0  0  0
    6.6914   -1.6590   21.6427 N   0  0  0  0  0  0  0  0  0  0  0  0
    7.3363   -0.7189   20.9059 N   0  0  0  0  0  0  0  0  0  0  0  0
    6.6422   -0.0332   19.8717 C   0  0  0  0  0  0  0  0  0  0  0  0
    5.4316    0.6085   20.1439 C   0  0  0  0  0  0  0  0  0  0  0  0
    4.8117    1.2922   19.0925 C   0  0  0  0  0  0  0  0  0  0  0  0
    5.3990    1.2873   17.8223 C   0  0  0  0  0  0  0  0  0  0  0  0
    6.5375    0.6329   17.5481 N   0  0  0  0  0  0  0  0  0  0  0  0
    7.1385   -0.0061   18.5584 C   0  0  0  0  0  0  0  0  0  0  0  0
    8.0648   -0.5271   18.3190 H   0  0  0  0  0  0  0  0  0  0  0  0
    4.9374    1.8185   16.9920 H   0  0  0  0  0  0  0  0  0  0  0  0
    3.8884    1.8357   19.2500 H   0  0  0  0  0  0  0  0  0  0  0  0
    5.0172    0.6013   21.1545 H   0  0  0  0  0  0  0  0  0  0  0  0
    8.6066   -0.5844   21.3760 C   0  0  0  0  0  0  0  0  0  0  0  0
    9.5745    0.4727   20.8959 C   0  0  0  0  0  0  0  0  0  0  0  0
    9.6687    1.6624   21.7463 N   0  0  0  0  0  0  0  0  0  0  0  0
   10.6970    1.7798   22.7719 C   0  0  0  0  0  0  0  0  0  0  0  0
   10.2968    3.0502   23.4679 C   0  0  0  0  0  0  0  0  0  0  0  0
   11.0138    3.8545   24.3448 C   0  0  0  0  0  0  0  0  0  0  0  0
   10.3554    4.9220   24.9650 C   0  0  0  0  0  0  0  0  0  0  0  0
    8.9942    5.1673   24.7189 C   0  0  0  0  0  0  0  0  0  0  0  0
    8.2956    4.3928   23.7884 C   0  0  0  0  0  0  0  0  0  0  0  0
    8.9854    3.3704   23.1295 C   0  0  0  0  0  0  0  0  0  0  0  0
    8.5733    2.4842   22.0016 C   0  0  0  0  0  0  0  0  0  0  0  0
    7.5177    2.4307   21.4039 O   0  0  0  0  0  0  0  0  0  0  0  0
    7.2555    4.6029   23.5608 H   0  0  0  0  0  0  0  0  0  0  0  0
    8.4877    5.9823   25.2293 H   0  0  0  0  0  0  0  0  0  0  0  0
   10.9195    5.5527   25.6423 H   0  0  0  0  0  0  0  0  0  0  0  0
   12.0574    3.6516   24.5565 H   0  0  0  0  0  0  0  0  0  0  0  0
   10.6895    0.9128   23.4608 H   0  0  0  0  0  0  0  0  0  0  0  0
   11.6943    1.8534   22.3295 H   0  0  0  0  0  0  0  0  0  0  0  0
   10.5603   -0.0040   20.8358 H   0  0  0  0  0  0  0  0  0  0  0  0
    9.3132    0.7847   19.8812 H   0  0  0  0  0  0  0  0  0  0  0  0
    8.8244   -1.4542   22.3471 N   0  0  0  0  0  0  0  0  0  0  0  0
    8.1306   -2.9156   24.3096 H   0  0  0  0  0  0  0  0  0  0  0  0
    8.9294   -4.4826   22.6864 H   0  0  0  0  0  0  0  0  0  0  0  0
    7.7753   -5.2870   23.7385 H   0  0  0  0  0  0  0  0  0  0  0  0
    6.0020   -5.1197   21.9583 H   0  0  0  0  0  0  0  0  0  0  0  0
    7.1316   -4.2550   20.9052 H   0  0  0  0  0  0  0  0  0  0  0  0
    7.4358   -5.9536   21.3388 H   0  0  0  0  0  0  0  0  0  0  0  0
  1  2  1  0
  2  3  1  0
  3  4  1  0
  4  5  1  0
  4  6  1  0
  4  7  1  0
  3  8  1  0
  8  9  2  0
  9 10  1  0
 10 11  1  0
 11 12  2  0
 12 13  1  0
 13 14  2  0
 14 15  1  0
 15 16  2  0
 16 17  1  0
 14 18  1  0
 13 19  1  0
 12 20  1  0
 10 21  1  0
 21 22  1  0
 22 23  1  0
 23 24  1  0
 24 25  1  0
 25 26  2  0
 26 27  1  0
 27 28  2  0
 28 29  1  0
 29 30  2  0
 30 31  1  0
 31 32  2  0
 29 33  1  0
 28 34  1  0
 27 35  1  0
 26 36  1  0
 24 37  1  0
 24 38  1  0
 22 39  1  0
 22 40  1  0
 21 41  2  0
  3 42  1  0
  2 43  1  0
  2 44  1  0
  1 45  1  0
  1 46  1  0
  1 47  1  0
 41  8  1  0
 16 11  1  0
 31 23  1  0
 30 25  1  0
M  END
>  <cnnaffinity>  (1) 
-6.05281

>  <filename>  (1) 
CCC(C)c1nc(CN2Cc3ccccc3C2=O)n(-c2cccnc2)n1

$$$$
