
     RDKit          3D

 45 47  0  0  0  0  0  0  0  0999 V2000
    7.4355   -1.2853   25.6352 C   0  0  0  0  0  0  0  0  0  0  0  0
    6.6334   -2.3450   24.8794 C   0  0  0  0  0  0  0  0  0  0  0  0
    7.3980   -3.0058   23.6955 C   0  0  0  0  0  0  0  0  0  0  0  0
    8.6931   -3.7379   24.1128 C   0  0  0  0  0  0  0  0  0  0  0  0
    8.4916   -4.8478   25.1432 C   0  0  0  0  0  0  0  0  0  0  0  0
    9.4305   -5.3826   25.3225 H   0  0  0  0  0  0  0  0  0  0  0  0
    8.1529   -4.4540   26.1084 H   0  0  0  0  0  0  0  0  0  0  0  0
    7.7507   -5.5812   24.8028 H   0  0  0  0  0  0  0  0  0  0  0  0
    9.1512   -4.1634   23.2115 H   0  0  0  0  0  0  0  0  0  0  0  0
    9.4185   -3.0057   24.4925 H   0  0  0  0  0  0  0  0  0  0  0  0
    7.6693   -2.0063   22.5941 C   0  0  0  0  0  0  0  0  0  0  0  0
    6.7432   -1.6682   21.7192 N   0  0  0  0  0  0  0  0  0  0  0  0
    7.3606   -0.7309   20.9500 N   0  0  0  0  0  0  0  0  0  0  0  0
    6.6572   -0.1364   19.8636 C   0  0  0  0  0  0  0  0  0  0  0  0
    5.4141    0.4459   20.0884 C   0  0  0  0  0  0  0  0  0  0  0  0
    4.7868    1.1015   19.0227 C   0  0  0  0  0  0  0  0  0  0  0  0
    5.4319    1.1419   17.7791 C   0  0  0  0  0  0  0  0  0  0  0  0
    6.6214    0.5631   17.5549 N   0  0  0  0  0  0  0  0  0  0  0  0
    7.2215   -0.0497   18.5870 C   0  0  0  0  0  0  0  0  0  0  0  0
    8.1851   -0.5151   18.3787 H   0  0  0  0  0  0  0  0  0  0  0  0
    4.9797    1.6583   16.9342 H   0  0  0  0  0  0  0  0  0  0  0  0
    3.8220    1.5818   19.1498 H   0  0  0  0  0  0  0  0  0  0  0  0
    4.9496    0.3663   21.0745 H   0  0  0  0  0  0  0  0  0  0  0  0
    8.6215   -0.5439   21.4314 C   0  0  0  0  0  0  0  0  0  0  0  0
    9.5365    0.5433   20.9804 C   0  0  0  0  0  0  0  0  0  0  0  0
    8.8582    1.8775   21.2795 N   0  0  0  0  0  0  0  0  0  0  0  0
    7.8715    2.1320   20.6213 N   0  0  0  0  0  0  0  0  0  0  0  0
    8.3200    3.8717   22.5644 C   0  0  0  0  0  0  0  0  0  0  0  0
    8.4772    4.1361   22.4457 C   0  0  0  0  0  0  0  0  0  0  0  0
    9.0909    2.7518   22.5240 C   0  0  0  0  0  0  0  0  0  0  0  0
    9.8721    2.0926   23.7004 C   0  0  0  0  0  0  0  0  0  0  0  0
   10.9539    2.1791   23.5514 H   0  0  0  0  0  0  0  0  0  0  0  0
    9.5880    2.5881   24.6296 H   0  0  0  0  0  0  0  0  0  0  0  0
    9.5866    1.0369   23.7616 H   0  0  0  0  0  0  0  0  0  0  0  0
    8.9123    5.2091   22.5486 H   0  0  0  0  0  0  0  0  0  0  0  0
    7.4023    4.2566   21.9552 H   0  0  0  0  0  0  0  0  0  0  0  0
   10.5198    0.4683   21.4595 H   0  0  0  0  0  0  0  0  0  0  0  0
    9.6296    0.5028   19.8838 H   0  0  0  0  0  0  0  0  0  0  0  0
    8.8501   -1.3392   22.4495 N   0  0  0  0  0  0  0  0  0  0  0  0
    6.7119   -3.7373   23.2471 H   0  0  0  0  0  0  0  0  0  0  0  0
    6.3105   -3.1329   25.5731 H   0  0  0  0  0  0  0  0  0  0  0  0
    5.7107   -1.8990   24.4858 H   0  0  0  0  0  0  0  0  0  0  0  0
    6.8199   -0.8014   26.4005 H   0  0  0  0  0  0  0  0  0  0  0  0
    7.8044   -0.5069   24.9570 H   0  0  0  0  0  0  0  0  0  0  0  0
    8.3042   -1.7226   26.1414 H   0  0  0  0  0  0  0  0  0  0  0  0
  1  2  1  0
  2  3  1  0
  3  4  1  0
  4  5  1  0
  5  6  1  0
  5  7  1  0
  5  8  1  0
  4  9  1  0
  4 10  1  0
  3 11  1  0
 11 12  2  0
 12 13  1  0
 13 14  1  0
 14 15  2  0
 15 16  1  0
 16 17  2  0
 17 18  1  0
 18 19  2  0
 19 20  1  0
 17 21  1  0
 16 22  1  0
 15 23  1  0
 13 24  1  0
 24 25  1  0
 25 26  1  0
 26 27  1  0
 27 28  2  0
 28 29  1  0
 29 30  2  0
 30 31  1  0
 31 32  1  0
 31 33  1  0
 31 34  1  0
 29 35  1  0
 28 36  1  0
 25 37  1  0
 25 38  1  0
 24 39  2  0
  3 40  1  0
  2 41  1  0
  2 42  1  0
  1 43  1  0
  1 44  1  0
  1 45  1  0
 39 11  1  0
 19 14  1  0
 30 26  1  0
M  END
>  <cnnaffinity>  (1) 
-5.97089

>  <filename>  (1) 
CCC(CC)c1nc(Cn2nccc2C)n(-c2cccnc2)n1

$$$$
