
     RDKit          3D

 42 44  0  0  0  0  0  0  0  0999 V2000
    6.6849   -4.7877   22.5223 C   0  0  0  0  0  0  0  0  0  0  0  0
    8.0036   -4.4002   23.1845 C   0  0  0  0  0  0  0  0  0  0  0  0
    8.8712   -3.4707   22.3224 C   0  0  0  0  0  0  0  0  0  0  0  0
   10.1331   -3.4026   22.9980 O   0  0  0  0  0  0  0  0  0  0  0  0
   10.8548   -3.2702   22.3693 H   0  0  0  0  0  0  0  0  0  0  0  0
    8.1953   -2.1303   22.0322 C   0  0  0  0  0  0  0  0  0  0  0  0
    7.7690   -1.8182   20.8206 N   0  0  0  0  0  0  0  0  0  0  0  0
    7.2316   -0.5804   20.9797 N   0  0  0  0  0  0  0  0  0  0  0  0
    6.5589    0.0499   19.8939 C   0  0  0  0  0  0  0  0  0  0  0  0
    5.3469    0.7292   20.0829 C   0  0  0  0  0  0  0  0  0  0  0  0
    4.7777    1.3681   18.9755 C   0  0  0  0  0  0  0  0  0  0  0  0
    5.4300    1.3143   17.7413 C   0  0  0  0  0  0  0  0  0  0  0  0
    6.5642    0.6193   17.5438 N   0  0  0  0  0  0  0  0  0  0  0  0
    7.0971   -0.0146   18.5929 C   0  0  0  0  0  0  0  0  0  0  0  0
    7.9899   -0.6022   18.4018 H   0  0  0  0  0  0  0  0  0  0  0  0
    5.0285    1.8404   16.8756 H   0  0  0  0  0  0  0  0  0  0  0  0
    3.8372    1.9029   19.0587 H   0  0  0  0  0  0  0  0  0  0  0  0
    4.8471    0.7333   21.0512 H   0  0  0  0  0  0  0  0  0  0  0  0
    7.4272   -0.1878   22.2813 C   0  0  0  0  0  0  0  0  0  0  0  0
    7.1946    1.1564   22.8982 C   0  0  0  0  0  0  0  0  0  0  0  0
    8.2490    1.5167   23.9835 C   0  0  0  0  0  0  0  0  0  0  0  0
    7.9674    2.8812   24.5529 C   0  0  0  0  0  0  0  0  0  0  0  0
    8.4030    4.0369   23.8796 C   0  0  0  0  0  0  0  0  0  0  0  0
    9.4548    3.9289   22.5061 Cl  0  0  0  0  0  0  0  0  0  0  0  0
    7.9985    5.3068   24.2929 C   0  0  0  0  0  0  0  0  0  0  0  0
    7.2261    5.5020   25.3686 N   0  0  0  0  0  0  0  0  0  0  0  0
    6.8237    4.4300   26.0584 C   0  0  0  0  0  0  0  0  0  0  0  0
    7.1577    3.1252   25.6803 C   0  0  0  0  0  0  0  0  0  0  0  0
    6.5165    1.8194   26.6172 Cl  0  0  0  0  0  0  0  0  0  0  0  0
    6.1980    4.5941   26.9378 H   0  0  0  0  0  0  0  0  0  0  0  0
    8.3050    6.1776   23.7116 H   0  0  0  0  0  0  0  0  0  0  0  0
    9.2488    1.5294   23.5312 H   0  0  0  0  0  0  0  0  0  0  0  0
    8.2737    0.7574   24.7751 H   0  0  0  0  0  0  0  0  0  0  0  0
    7.1805    1.9278   22.1170 H   0  0  0  0  0  0  0  0  0  0  0  0
    6.2030    1.1564   23.3694 H   0  0  0  0  0  0  0  0  0  0  0  0
    7.9797   -1.1749   22.9599 N   0  0  0  0  0  0  0  0  0  0  0  0
    8.9654   -3.8996   21.3163 H   0  0  0  0  0  0  0  0  0  0  0  0
    8.5900   -5.3050   23.3888 H   0  0  0  0  0  0  0  0  0  0  0  0
    7.8446   -3.9146   24.1568 H   0  0  0  0  0  0  0  0  0  0  0  0
    6.0746   -3.9080   22.2838 H   0  0  0  0  0  0  0  0  0  0  0  0
    6.1061   -5.4393   23.1858 H   0  0  0  0  0  0  0  0  0  0  0  0
    6.8565   -5.3421   21.5904 H   0  0  0  0  0  0  0  0  0  0  0  0
  1  2  1  0
  2  3  1  0
  3  4  1  0
  4  5  1  0
  3  6  1  0
  6  7  2  0
  7  8  1  0
  8  9  1  0
  9 10  2  0
 10 11  1  0
 11 12  2  0
 12 13  1  0
 13 14  2  0
 14 15  1  0
 12 16  1  0
 11 17  1  0
 10 18  1  0
  8 19  1  0
 19 20  1  0
 20 21  1  0
 21 22  1  0
 22 23  2  0
 23 24  1  0
 23 25  1  0
 25 26  2  0
 26 27  1  0
 27 28  2  0
 28 29  1  0
 27 30  1  0
 25 31  1  0
 21 32  1  0
 21 33  1  0
 20 34  1  0
 20 35  1  0
 19 36  2  0
  3 37  1  0
  2 38  1  0
  2 39  1  0
  1 40  1  0
  1 41  1  0
  1 42  1  0
 36  6  1  0
 14  9  1  0
 28 22  1  0
M  END
>  <cnnaffinity>  (1) 
-6.25752

>  <filename>  (1) 
CCC(O)c1nc(CCc2c(Cl)cncc2Cl)n(-c2cccnc2)n1

$$$$
