
     RDKit          3D

 42 44  0  0  0  0  0  0  0  0999 V2000
    6.9128   -1.1347   25.3822 C   0  0  0  0  0  0  0  0  0  0  0  0
    6.4187   -2.4708   24.8245 C   0  0  0  0  0  0  0  0  0  0  0  0
    7.3663   -3.0825   23.7563 C   0  0  0  0  0  0  0  0  0  0  0  0
    6.8410   -4.4417   23.2654 C   0  0  0  0  0  0  0  0  0  0  0  0
    5.8848   -4.3378   22.7371 H   0  0  0  0  0  0  0  0  0  0  0  0
    6.6929   -5.1106   24.1235 H   0  0  0  0  0  0  0  0  0  0  0  0
    7.5556   -4.9229   22.5898 H   0  0  0  0  0  0  0  0  0  0  0  0
    7.6598   -2.0992   22.6423 C   0  0  0  0  0  0  0  0  0  0  0  0
    6.7839   -1.7388   21.7253 N   0  0  0  0  0  0  0  0  0  0  0  0
    7.4398   -0.7544   21.0464 N   0  0  0  0  0  0  0  0  0  0  0  0
    6.7791   -0.0548   19.9878 C   0  0  0  0  0  0  0  0  0  0  0  0
    5.5580    0.5873   20.2201 C   0  0  0  0  0  0  0  0  0  0  0  0
    4.9622    1.2808   19.1654 C   0  0  0  0  0  0  0  0  0  0  0  0
    5.5917    1.2955   17.9187 C   0  0  0  0  0  0  0  0  0  0  0  0
    6.7434    0.6503   17.6789 N   0  0  0  0  0  0  0  0  0  0  0  0
    7.3119   -0.0134   18.6897 C   0  0  0  0  0  0  0  0  0  0  0  0
    8.2282   -0.5499   18.4480 H   0  0  0  0  0  0  0  0  0  0  0  0
    5.1508    1.8385   17.0861 H   0  0  0  0  0  0  0  0  0  0  0  0
    4.0249    1.8086   19.2981 H   0  0  0  0  0  0  0  0  0  0  0  0
    5.0941    0.5253   21.2023 H   0  0  0  0  0  0  0  0  0  0  0  0
    8.6522   -0.5489   21.6328 C   0  0  0  0  0  0  0  0  0  0  0  0
    9.5849    0.5843   21.3258 C   0  0  0  0  0  0  0  0  0  0  0  0
    9.1328    1.8947   21.8828 C   0  0  0  0  0  0  0  0  0  0  0  0
    8.9722    2.2815   23.1932 C   0  0  0  0  0  0  0  0  0  0  0  0
    8.3864    3.5601   23.1291 C   0  0  0  0  0  0  0  0  0  0  0  0
    8.0122    4.4592   24.2900 C   0  0  0  0  0  0  0  0  0  0  0  0
    9.0479    5.2470   24.6412 F   0  0  0  0  0  0  0  0  0  0  0  0
    6.9689    5.2586   24.0325 F   0  0  0  0  0  0  0  0  0  0  0  0
    7.6971    3.7193   25.3799 F   0  0  0  0  0  0  0  0  0  0  0  0
    8.2326    3.9588   21.8708 N   0  0  0  0  0  0  0  0  0  0  0  0
    8.6880    2.9346   21.1447 N   0  0  0  0  0  0  0  0  0  0  0  0
    8.7016    3.0158   20.1380 H   0  0  0  0  0  0  0  0  0  0  0  0
    9.2798    1.7430   24.0781 H   0  0  0  0  0  0  0  0  0  0  0  0
   10.5488    0.3364   21.7736 H   0  0  0  0  0  0  0  0  0  0  0  0
    9.7226    0.6592   20.2495 H   0  0  0  0  0  0  0  0  0  0  0  0
    8.8389   -1.4176   22.6019 N   0  0  0  0  0  0  0  0  0  0  0  0
    8.3474   -3.2347   24.2252 H   0  0  0  0  0  0  0  0  0  0  0  0
    5.4142   -2.3505   24.3920 H   0  0  0  0  0  0  0  0  0  0  0  0
    6.3259   -3.1968   25.6456 H   0  0  0  0  0  0  0  0  0  0  0  0
    7.0161   -0.3817   24.5924 H   0  0  0  0  0  0  0  0  0  0  0  0
    6.2201   -0.7280   26.1238 H   0  0  0  0  0  0  0  0  0  0  0  0
    7.8954   -1.2398   25.8576 H   0  0  0  0  0  0  0  0  0  0  0  0
  1  2  1  0
  2  3  1  0
  3  4  1  0
  4  5  1  0
  4  6  1  0
  4  7  1  0
  3  8  1  0
  8  9  2  0
  9 10  1  0
 10 11  1  0
 11 12  2  0
 12 13  1  0
 13 14  2  0
 14 15  1  0
 15 16  2  0
 16 17  1  0
 14 18  1  0
 13 19  1  0
 12 20  1  0
 10 21  1  0
 21 22  1  0
 22 23  1  0
 23 24  2  0
 24 25  1  0
 25 26  1  0
 26 27  1  0
 26 28  1  0
 26 29  1  0
 25 30  2  0
 30 31  1  0
 31 32  1  0
 24 33  1  0
 22 34  1  0
 22 35  1  0
 21 36  2  0
  3 37  1  0
  2 38  1  0
  2 39  1  0
  1 40  1  0
  1 41  1  0
  1 42  1  0
 36  8  1  0
 16 11  1  0
 31 23  1  0
M  END
>  <cnnaffinity>  (1) 
-6.31123

>  <filename>  (1) 
CCC(C)c1nc(Cc2cc(C(F)(F)F)n[nH]2)n(-c2cccnc2)n1

$$$$
