
     RDKit          3D

 47 49  0  0  0  0  0  0  0  0999 V2000
    8.1382   -5.0084   22.2904 C   0  0  0  0  0  0  0  0  0  0  0  0
    6.9126   -4.5457   23.0828 C   0  0  0  0  0  0  0  0  0  0  0  0
    7.1005   -3.1315   23.6783 C   0  0  0  0  0  0  0  0  0  0  0  0
    6.0198   -2.8255   24.5609 O   0  0  0  0  0  0  0  0  0  0  0  0
    5.3622   -2.2858   24.0904 H   0  0  0  0  0  0  0  0  0  0  0  0
    7.4173   -2.0787   22.6104 C   0  0  0  0  0  0  0  0  0  0  0  0
    6.5264   -1.6476   21.7324 N   0  0  0  0  0  0  0  0  0  0  0  0
    7.2300   -0.7677   20.9734 N   0  0  0  0  0  0  0  0  0  0  0  0
    6.5861   -0.0849   19.8984 C   0  0  0  0  0  0  0  0  0  0  0  0
    5.3892    0.5984   20.1341 C   0  0  0  0  0  0  0  0  0  0  0  0
    4.8157    1.3179   19.0823 C   0  0  0  0  0  0  0  0  0  0  0  0
    5.4409    1.3070   17.8276 C   0  0  0  0  0  0  0  0  0  0  0  0
    6.5606    0.6123   17.5786 N   0  0  0  0  0  0  0  0  0  0  0  0
    7.1111   -0.0716   18.5904 C   0  0  0  0  0  0  0  0  0  0  0  0
    8.0128   -0.6344   18.3551 H   0  0  0  0  0  0  0  0  0  0  0  0
    5.0131    1.8548   16.9887 H   0  0  0  0  0  0  0  0  0  0  0  0
    3.8989    1.8817   19.2183 H   0  0  0  0  0  0  0  0  0  0  0  0
    4.9336    0.5619   21.1251 H   0  0  0  0  0  0  0  0  0  0  0  0
    8.4966   -0.6589   21.4830 C   0  0  0  0  0  0  0  0  0  0  0  0
    9.5513    0.2590   20.9055 C   0  0  0  0  0  0  0  0  0  0  0  0
   10.5058    0.8370   21.8732 N   0  0  0  0  0  0  0  0  0  0  0  0
   11.9300    0.6156   21.6805 C   0  0  0  0  0  0  0  0  0  0  0  0
   12.6238    0.4892   23.0377 C   0  0  0  0  0  0  0  0  0  0  0  0
   14.0447   -0.0227   22.9299 C   0  0  0  0  0  0  0  0  0  0  0  0
   14.6564    0.0204   24.1262 F   0  0  0  0  0  0  0  0  0  0  0  0
   14.8216    0.6791   22.0913 F   0  0  0  0  0  0  0  0  0  0  0  0
   14.0615   -1.3014   22.4982 F   0  0  0  0  0  0  0  0  0  0  0  0
   12.4822    1.8016   23.8143 C   0  0  0  0  0  0  0  0  0  0  0  0
   10.9910    2.1123   23.9568 C   0  0  0  0  0  0  0  0  0  0  0  0
   10.0710    1.7950   22.7740 C   0  0  0  0  0  0  0  0  0  0  0  0
    8.9791    2.3237   22.6902 O   0  0  0  0  0  0  0  0  0  0  0  0
   10.7970    3.1495   24.2269 H   0  0  0  0  0  0  0  0  0  0  0  0
   10.5707    1.5236   24.7773 H   0  0  0  0  0  0  0  0  0  0  0  0
   13.0250    2.6090   23.3050 H   0  0  0  0  0  0  0  0  0  0  0  0
   12.9284    1.7038   24.8113 H   0  0  0  0  0  0  0  0  0  0  0  0
   12.1050   -0.2960   23.5950 H   0  0  0  0  0  0  0  0  0  0  0  0
   12.3637    1.4517   21.0998 H   0  0  0  0  0  0  0  0  0  0  0  0
   12.0447   -0.3162   21.1156 H   0  0  0  0  0  0  0  0  0  0  0  0
    9.0768    1.0535   20.3140 H   0  0  0  0  0  0  0  0  0  0  0  0
   10.1163   -0.3788   20.2115 H   0  0  0  0  0  0  0  0  0  0  0  0
    8.6539   -1.5228   22.4715 N   0  0  0  0  0  0  0  0  0  0  0  0
    8.0046   -3.1602   24.2974 H   0  0  0  0  0  0  0  0  0  0  0  0
    6.7305   -5.2173   23.9327 H   0  0  0  0  0  0  0  0  0  0  0  0
    6.0080   -4.5749   22.4592 H   0  0  0  0  0  0  0  0  0  0  0  0
    8.3673   -4.3287   21.4593 H   0  0  0  0  0  0  0  0  0  0  0  0
    7.9823   -6.0083   21.8744 H   0  0  0  0  0  0  0  0  0  0  0  0
    9.0234   -5.0505   22.9378 H   0  0  0  0  0  0  0  0  0  0  0  0
  1  2  1  0
  2  3  1  0
  3  4  1  0
  4  5  1  0
  3  6  1  0
  6  7  2  0
  7  8  1  0
  8  9  1  0
  9 10  2  0
 10 11  1  0
 11 12  2  0
 12 13  1  0
 13 14  2  0
 14 15  1  0
 12 16  1  0
 11 17  1  0
 10 18  1  0
  8 19  1  0
 19 20  1  0
 20 21  1  0
 21 22  1  0
 22 23  1  0
 23 24  1  0
 24 25  1  0
 24 26  1  0
 24 27  1  0
 23 28  1  0
 28 29  1  0
 29 30  1  0
 30 31  2  0
 29 32  1  0
 29 33  1  0
 28 34  1  0
 28 35  1  0
 23 36  1  0
 22 37  1  0
 22 38  1  0
 20 39  1  0
 20 40  1  0
 19 41  2  0
  3 42  1  0
  2 43  1  0
  2 44  1  0
  1 45  1  0
  1 46  1  0
  1 47  1  0
 41  6  1  0
 14  9  1  0
 30 21  1  0
M  END
>  <cnnaffinity>  (1) 
-6.34613

>  <filename>  (1) 
CCC(O)c1nc(CN2CC(C(F)(F)F)CCC2=O)n(-c2cccnc2)n1

$$$$
