
     RDKit          3D

 41 43  0  0  0  0  0  0  0  0999 V2000
    8.1944   -5.1571   24.6840 C   0  0  0  0  0  0  0  0  0  0  0  0
    8.5191   -4.0004   23.7422 C   0  0  0  0  0  0  0  0  0  0  0  0
    7.4277   -2.9106   23.7021 C   0  0  0  0  0  0  0  0  0  0  0  0
    7.3059   -2.1423   25.0356 C   0  0  0  0  0  0  0  0  0  0  0  0
    6.5713   -1.3329   24.9627 H   0  0  0  0  0  0  0  0  0  0  0  0
    8.2691   -1.6962   25.3138 H   0  0  0  0  0  0  0  0  0  0  0  0
    6.9910   -2.8046   25.8483 H   0  0  0  0  0  0  0  0  0  0  0  0
    7.6624   -1.9519   22.5682 C   0  0  0  0  0  0  0  0  0  0  0  0
    6.7300   -1.6027   21.7093 N   0  0  0  0  0  0  0  0  0  0  0  0
    7.3565   -0.6773   20.9321 N   0  0  0  0  0  0  0  0  0  0  0  0
    6.6548    0.0019   19.8975 C   0  0  0  0  0  0  0  0  0  0  0  0
    5.4385    0.6430   20.1641 C   0  0  0  0  0  0  0  0  0  0  0  0
    4.8114    1.3110   19.1084 C   0  0  0  0  0  0  0  0  0  0  0  0
    5.4007    1.2961   17.8372 C   0  0  0  0  0  0  0  0  0  0  0  0
    6.5606    0.6739   17.5752 N   0  0  0  0  0  0  0  0  0  0  0  0
    7.1684    0.0521   18.5907 C   0  0  0  0  0  0  0  0  0  0  0  0
    8.1146   -0.4345   18.3684 H   0  0  0  0  0  0  0  0  0  0  0  0
    4.9179    1.7844   16.9936 H   0  0  0  0  0  0  0  0  0  0  0  0
    3.8787    1.8411   19.2609 H   0  0  0  0  0  0  0  0  0  0  0  0
    5.0177    0.6104   21.1731 H   0  0  0  0  0  0  0  0  0  0  0  0
    8.6283   -0.5043   21.3971 C   0  0  0  0  0  0  0  0  0  0  0  0
    9.5129    0.6176   20.9514 C   0  0  0  0  0  0  0  0  0  0  0  0
    9.0502    2.0015   21.4999 C   0  0  0  0  0  0  0  0  0  0  0  0
    9.0145    2.0415   23.0049 C   0  0  0  0  0  0  0  0  0  0  0  0
   10.0944    2.1363   23.8393 C   0  0  0  0  0  0  0  0  0  0  0  0
    9.5697    1.9771   25.0716 N   0  0  0  0  0  0  0  0  0  0  0  0
    8.2461    1.7872   25.0265 N   0  0  0  0  0  0  0  0  0  0  0  0
    7.9025    1.8266   23.7751 N   0  0  0  0  0  0  0  0  0  0  0  0
   10.0060    1.9989   25.9797 H   0  0  0  0  0  0  0  0  0  0  0  0
   11.1455    2.2847   23.6331 H   0  0  0  0  0  0  0  0  0  0  0  0
    9.7427    2.7700   21.1415 H   0  0  0  0  0  0  0  0  0  0  0  0
    8.0630    2.2480   21.1020 H   0  0  0  0  0  0  0  0  0  0  0  0
    9.5594    0.6489   19.8600 H   0  0  0  0  0  0  0  0  0  0  0  0
   10.5232    0.3914   21.3023 H   0  0  0  0  0  0  0  0  0  0  0  0
    8.8574   -1.3180   22.4057 N   0  0  0  0  0  0  0  0  0  0  0  0
    6.4643   -3.3798   23.4805 H   0  0  0  0  0  0  0  0  0  0  0  0
    9.4745   -3.5403   24.0256 H   0  0  0  0  0  0  0  0  0  0  0  0
    8.6697   -4.3923   22.7289 H   0  0  0  0  0  0  0  0  0  0  0  0
    7.2150   -5.5904   24.4504 H   0  0  0  0  0  0  0  0  0  0  0  0
    8.1738   -4.8418   25.7330 H   0  0  0  0  0  0  0  0  0  0  0  0
    8.9387   -5.9545   24.5963 H   0  0  0  0  0  0  0  0  0  0  0  0
  1  2  1  0
  2  3  1  0
  3  4  1  0
  4  5  1  0
  4  6  1  0
  4  7  1  0
  3  8  1  0
  8  9  2  0
  9 10  1  0
 10 11  1  0
 11 12  2  0
 12 13  1  0
 13 14  2  0
 14 15  1  0
 15 16  2  0
 16 17  1  0
 14 18  1  0
 13 19  1  0
 12 20  1  0
 10 21  1  0
 21 22  1  0
 22 23  1  0
 23 24  1  0
 24 25  2  0
 25 26  1  0
 26 27  1  0
 27 28  2  0
 26 29  1  0
 25 30  1  0
 23 31  1  0
 23 32  1  0
 22 33  1  0
 22 34  1  0
 21 35  2  0
  3 36  1  0
  2 37  1  0
  2 38  1  0
  1 39  1  0
  1 40  1  0
  1 41  1  0
 35  8  1  0
 16 11  1  0
 28 24  1  0
M  END
>  <cnnaffinity>  (1) 
-5.69729

>  <filename>  (1) 
CCC(C)c1nc(CCc2c[nH]nn2)n(-c2cccnc2)n1

$$$$
