
     RDKit          3D

 44 46  0  0  0  0  0  0  0  0999 V2000
    6.8302   -5.5036   23.9903 C   0  0  0  0  0  0  0  0  0  0  0  0
    6.8753   -4.3434   22.9995 C   0  0  0  0  0  0  0  0  0  0  0  0
    7.4167   -3.0272   23.5979 C   0  0  0  0  0  0  0  0  0  0  0  0
    6.4897   -2.4435   24.6875 C   0  0  0  0  0  0  0  0  0  0  0  0
    6.8676   -1.4824   25.0521 H   0  0  0  0  0  0  0  0  0  0  0  0
    5.4848   -2.2752   24.2860 H   0  0  0  0  0  0  0  0  0  0  0  0
    6.3987   -3.1158   25.5467 H   0  0  0  0  0  0  0  0  0  0  0  0
    7.6753   -2.0109   22.5168 C   0  0  0  0  0  0  0  0  0  0  0  0
    6.7241   -1.6056   21.6924 N   0  0  0  0  0  0  0  0  0  0  0  0
    7.3544   -0.6801   20.9281 N   0  0  0  0  0  0  0  0  0  0  0  0
    6.6489   -0.0029   19.8974 C   0  0  0  0  0  0  0  0  0  0  0  0
    5.4370    0.6410   20.1666 C   0  0  0  0  0  0  0  0  0  0  0  0
    4.8121    1.3103   19.1096 C   0  0  0  0  0  0  0  0  0  0  0  0
    5.3984    1.2965   17.8375 C   0  0  0  0  0  0  0  0  0  0  0  0
    6.5549    0.6703   17.5726 N   0  0  0  0  0  0  0  0  0  0  0  0
    7.1605    0.0447   18.5878 C   0  0  0  0  0  0  0  0  0  0  0  0
    8.1110   -0.4334   18.3644 H   0  0  0  0  0  0  0  0  0  0  0  0
    4.9196    1.7873   16.9938 H   0  0  0  0  0  0  0  0  0  0  0  0
    3.8809    1.8396   19.2614 H   0  0  0  0  0  0  0  0  0  0  0  0
    5.0136    0.6123   21.1754 H   0  0  0  0  0  0  0  0  0  0  0  0
    8.6314   -0.5338   21.3866 C   0  0  0  0  0  0  0  0  0  0  0  0
    9.6372    0.4075   20.8527 C   0  0  0  0  0  0  0  0  0  0  0  0
   10.2339    1.2348   21.9577 C   0  0  0  0  0  0  0  0  0  0  0  0
   11.4627    0.8910   22.3470 N   0  0  0  0  0  0  0  0  0  0  0  0
   12.0075    1.5742   23.3635 C   0  0  0  0  0  0  0  0  0  0  0  0
   11.3638    2.6184   24.0211 C   0  0  0  0  0  0  0  0  0  0  0  0
   10.0787    2.9780   23.6105 C   0  0  0  0  0  0  0  0  0  0  0  0
    9.4827    2.2804   22.5586 C   0  0  0  0  0  0  0  0  0  0  0  0
    8.0855    2.6446   22.1175 C   0  0  0  0  0  0  0  0  0  0  0  0
    7.7293    3.5381   22.6341 H   0  0  0  0  0  0  0  0  0  0  0  0
    8.0323    2.8404   21.0453 H   0  0  0  0  0  0  0  0  0  0  0  0
    7.3696    1.8402   22.3164 H   0  0  0  0  0  0  0  0  0  0  0  0
    9.5311    3.7911   24.0943 H   0  0  0  0  0  0  0  0  0  0  0  0
   11.8601    3.1391   24.8244 H   0  0  0  0  0  0  0  0  0  0  0  0
   13.0054    1.2643   23.6638 H   0  0  0  0  0  0  0  0  0  0  0  0
    9.1871    1.0398   20.0892 H   0  0  0  0  0  0  0  0  0  0  0  0
   10.4123   -0.2240   20.4290 H   0  0  0  0  0  0  0  0  0  0  0  0
    8.8707   -1.3930   22.3540 N   0  0  0  0  0  0  0  0  0  0  0  0
    8.3992   -3.2157   24.0419 H   0  0  0  0  0  0  0  0  0  0  0  0
    5.8746   -4.1550   22.5897 H   0  0  0  0  0  0  0  0  0  0  0  0
    7.5000   -4.6263   22.1428 H   0  0  0  0  0  0  0  0  0  0  0  0
    7.8118   -5.6693   24.4507 H   0  0  0  0  0  0  0  0  0  0  0  0
    6.1113   -5.3302   24.7989 H   0  0  0  0  0  0  0  0  0  0  0  0
    6.5383   -6.4275   23.4816 H   0  0  0  0  0  0  0  0  0  0  0  0
  1  2  1  0
  2  3  1  0
  3  4  1  0
  4  5  1  0
  4  6  1  0
  4  7  1  0
  3  8  1  0
  8  9  2  0
  9 10  1  0
 10 11  1  0
 11 12  2  0
 12 13  1  0
 13 14  2  0
 14 15  1  0
 15 16  2  0
 16 17  1  0
 14 18  1  0
 13 19  1  0
 12 20  1  0
 10 21  1  0
 21 22  1  0
 22 23  1  0
 23 24  2  0
 24 25  1  0
 25 26  2  0
 26 27  1  0
 27 28  2  0
 28 29  1  0
 29 30  1  0
 29 31  1  0
 29 32  1  0
 27 33  1  0
 26 34  1  0
 25 35  1  0
 22 36  1  0
 22 37  1  0
 21 38  2  0
  3 39  1  0
  2 40  1  0
  2 41  1  0
  1 42  1  0
  1 43  1  0
  1 44  1  0
 38  8  1  0
 16 11  1  0
 28 23  1  0
M  END
>  <cnnaffinity>  (1) 
-6.02955

>  <filename>  (1) 
CCC(C)c1nc(Cc2ncccc2C)n(-c2cccnc2)n1

$$$$
