
     RDKit          3D

 46 48  0  0  0  0  0  0  0  0999 V2000
    7.0242   -4.9737   21.7602 C   0  0  0  0  0  0  0  0  0  0  0  0
    7.8380   -4.5199   22.9668 C   0  0  0  0  0  0  0  0  0  0  0  0
    7.4258   -3.1358   23.5308 C   0  0  0  0  0  0  0  0  0  0  0  0
    6.0210   -3.1223   24.1470 C   0  0  0  0  0  0  0  0  0  0  0  0
    5.9064   -3.9250   24.8820 H   0  0  0  0  0  0  0  0  0  0  0  0
    5.2507   -3.2445   23.3802 H   0  0  0  0  0  0  0  0  0  0  0  0
    5.8269   -2.1735   24.6552 H   0  0  0  0  0  0  0  0  0  0  0  0
    7.6115   -2.0486   22.5106 C   0  0  0  0  0  0  0  0  0  0  0  0
    6.7046   -1.6578   21.6307 N   0  0  0  0  0  0  0  0  0  0  0  0
    7.3541   -0.6935   20.9264 N   0  0  0  0  0  0  0  0  0  0  0  0
    6.6588   -0.0098   19.8812 C   0  0  0  0  0  0  0  0  0  0  0  0
    5.4409    0.6263   20.1481 C   0  0  0  0  0  0  0  0  0  0  0  0
    4.8123    1.3035   19.0974 C   0  0  0  0  0  0  0  0  0  0  0  0
    5.4056    1.2966   17.8303 C   0  0  0  0  0  0  0  0  0  0  0  0
    6.5468    0.6446   17.5530 N   0  0  0  0  0  0  0  0  0  0  0  0
    7.1560    0.0092   18.5657 C   0  0  0  0  0  0  0  0  0  0  0  0
    8.0776   -0.5229   18.3235 H   0  0  0  0  0  0  0  0  0  0  0  0
    4.9440    1.8357   17.0057 H   0  0  0  0  0  0  0  0  0  0  0  0
    3.8830    1.8422   19.2594 H   0  0  0  0  0  0  0  0  0  0  0  0
    5.0082    0.5742   21.1510 H   0  0  0  0  0  0  0  0  0  0  0  0
    8.6059   -0.5401   21.4459 C   0  0  0  0  0  0  0  0  0  0  0  0
    9.6507    0.4258   21.0064 C   0  0  0  0  0  0  0  0  0  0  0  0
   10.0692    1.3154   22.0724 N   0  0  0  0  0  0  0  0  0  0  0  0
    9.3108    2.3584   22.5732 C   0  0  0  0  0  0  0  0  0  0  0  0
    7.9675    2.7151   22.0188 C   0  0  0  0  0  0  0  0  0  0  0  0
    7.6367    3.6962   22.3694 H   0  0  0  0  0  0  0  0  0  0  0  0
    7.9671    2.7367   20.9275 H   0  0  0  0  0  0  0  0  0  0  0  0
    7.2088    1.9822   22.3163 H   0  0  0  0  0  0  0  0  0  0  0  0
   10.0092    2.9056   23.6194 C   0  0  0  0  0  0  0  0  0  0  0  0
   11.2035    2.1536   23.7912 C   0  0  0  0  0  0  0  0  0  0  0  0
   11.2063    1.1600   22.8486 C   0  0  0  0  0  0  0  0  0  0  0  0
   12.1683    0.0349   22.6347 C   0  0  0  0  0  0  0  0  0  0  0  0
   11.6419   -0.9272   22.6132 H   0  0  0  0  0  0  0  0  0  0  0  0
   12.9175    0.0028   23.4287 H   0  0  0  0  0  0  0  0  0  0  0  0
   12.7257    0.1251   21.7003 H   0  0  0  0  0  0  0  0  0  0  0  0
   11.9734    2.2895   24.5390 H   0  0  0  0  0  0  0  0  0  0  0  0
    9.6837    3.7541   24.2073 H   0  0  0  0  0  0  0  0  0  0  0  0
    9.3145    1.0040   20.1480 H   0  0  0  0  0  0  0  0  0  0  0  0
   10.5266   -0.1468   20.6995 H   0  0  0  0  0  0  0  0  0  0  0  0
    8.8039   -1.4091   22.4174 N   0  0  0  0  0  0  0  0  0  0  0  0
    8.1525   -2.8844   24.3095 H   0  0  0  0  0  0  0  0  0  0  0  0
    7.7567   -5.2588   23.7740 H   0  0  0  0  0  0  0  0  0  0  0  0
    8.9018   -4.4841   22.7062 H   0  0  0  0  0  0  0  0  0  0  0  0
    7.0873   -4.2481   20.9452 H   0  0  0  0  0  0  0  0  0  0  0  0
    5.9660   -5.0818   22.0170 H   0  0  0  0  0  0  0  0  0  0  0  0
    7.3665   -5.9399   21.3783 H   0  0  0  0  0  0  0  0  0  0  0  0
  1  2  1  0
  2  3  1  0
  3  4  1  0
  4  5  1  0
  4  6  1  0
  4  7  1  0
  3  8  1  0
  8  9  2  0
  9 10  1  0
 10 11  1  0
 11 12  2  0
 12 13  1  0
 13 14  2  0
 14 15  1  0
 15 16  2  0
 16 17  1  0
 14 18  1  0
 13 19  1  0
 12 20  1  0
 10 21  1  0
 21 22  1  0
 22 23  1  0
 23 24  1  0
 24 25  1  0
 25 26  1  0
 25 27  1  0
 25 28  1  0
 24 29  2  0
 29 30  1  0
 30 31  2  0
 31 32  1  0
 32 33  1  0
 32 34  1  0
 32 35  1  0
 30 36  1  0
 29 37  1  0
 22 38  1  0
 22 39  1  0
 21 40  2  0
  3 41  1  0
  2 42  1  0
  2 43  1  0
  1 44  1  0
  1 45  1  0
  1 46  1  0
 40  8  1  0
 16 11  1  0
 31 23  1  0
M  END
>  <cnnaffinity>  (1) 
-6.20822

>  <filename>  (1) 
CCC(C)c1nc(Cn2c(C)ccc2C)n(-c2cccnc2)n1

$$$$
