
     RDKit          3D

 48 50  0  0  0  0  0  0  0  0999 V2000
    5.3319   -5.4279   23.7826 C   0  0  0  0  0  0  0  0  0  0  0  0
    6.2837   -4.7623   22.7929 C   0  0  0  0  0  0  0  0  0  0  0  0
    7.6823   -4.4589   23.3627 C   0  0  0  0  0  0  0  0  0  0  0  0
    8.4950   -5.6831   23.7892 C   0  0  0  0  0  0  0  0  0  0  0  0
    7.9971   -6.2474   24.5828 H   0  0  0  0  0  0  0  0  0  0  0  0
    9.4660   -5.3671   24.1910 H   0  0  0  0  0  0  0  0  0  0  0  0
    8.6877   -6.3722   22.9569 H   0  0  0  0  0  0  0  0  0  0  0  0
    8.4727   -3.6254   22.3407 C   0  0  0  0  0  0  0  0  0  0  0  0
    7.8044   -2.3262   22.0497 C   0  0  0  0  0  0  0  0  0  0  0  0
    7.5747   -1.8463   20.8451 N   0  0  0  0  0  0  0  0  0  0  0  0
    7.0044   -0.6318   21.1090 N   0  0  0  0  0  0  0  0  0  0  0  0
    6.5062    0.1560   20.0437 C   0  0  0  0  0  0  0  0  0  0  0  0
    5.4047    1.0160   20.1676 C   0  0  0  0  0  0  0  0  0  0  0  0
    4.9279    1.6285   19.0027 C   0  0  0  0  0  0  0  0  0  0  0  0
    5.5478    1.3668   17.7792 C   0  0  0  0  0  0  0  0  0  0  0  0
    6.6435    0.5955   17.6670 N   0  0  0  0  0  0  0  0  0  0  0  0
    7.1139    0.0259   18.7807 C   0  0  0  0  0  0  0  0  0  0  0  0
    8.0325   -0.5528   18.6957 H   0  0  0  0  0  0  0  0  0  0  0  0
    5.1670    1.7884   16.8516 H   0  0  0  0  0  0  0  0  0  0  0  0
    4.1003    2.3272   19.0396 H   0  0  0  0  0  0  0  0  0  0  0  0
    4.9091    1.1796   21.1241 H   0  0  0  0  0  0  0  0  0  0  0  0
    6.9941   -0.4330   22.4599 C   0  0  0  0  0  0  0  0  0  0  0  0
    6.9023    0.8932   23.1483 C   0  0  0  0  0  0  0  0  0  0  0  0
    8.2571    1.3809   23.4378 N   0  0  0  0  0  0  0  0  0  0  0  0
    8.8395    0.9712   24.5876 N   0  0  0  0  0  0  0  0  0  0  0  0
   10.1353    1.1632   24.4209 C   0  0  0  0  0  0  0  0  0  0  0  0
   11.1385    0.7302   25.4346 C   0  0  0  0  0  0  0  0  0  0  0  0
   10.7187    0.7328   26.4408 H   0  0  0  0  0  0  0  0  0  0  0  0
   11.4966   -0.2767   25.1985 H   0  0  0  0  0  0  0  0  0  0  0  0
   12.0043    1.3892   25.3798 H   0  0  0  0  0  0  0  0  0  0  0  0
   10.4141    1.7133   23.1547 C   0  0  0  0  0  0  0  0  0  0  0  0
    9.1889    1.8231   22.5397 C   0  0  0  0  0  0  0  0  0  0  0  0
    8.8976    2.3195   21.1655 C   0  0  0  0  0  0  0  0  0  0  0  0
    8.1381    3.0993   21.1598 H   0  0  0  0  0  0  0  0  0  0  0  0
    8.5727    1.5220   20.4980 H   0  0  0  0  0  0  0  0  0  0  0  0
    9.8141    2.7425   20.7606 H   0  0  0  0  0  0  0  0  0  0  0  0
   11.3846    1.9783   22.7484 H   0  0  0  0  0  0  0  0  0  0  0  0
    6.3627    1.6414   22.5707 H   0  0  0  0  0  0  0  0  0  0  0  0
    6.4135    0.7601   24.1122 H   0  0  0  0  0  0  0  0  0  0  0  0
    7.4283   -1.5136   23.0699 N   0  0  0  0  0  0  0  0  0  0  0  0
    9.4666   -3.3928   22.7426 H   0  0  0  0  0  0  0  0  0  0  0  0
    8.5952   -4.1669   21.3992 H   0  0  0  0  0  0  0  0  0  0  0  0
    7.5347   -3.8331   24.2591 H   0  0  0  0  0  0  0  0  0  0  0  0
    6.3756   -5.3698   21.8800 H   0  0  0  0  0  0  0  0  0  0  0  0
    5.8416   -3.8073   22.4680 H   0  0  0  0  0  0  0  0  0  0  0  0
    4.3530   -5.6073   23.3264 H   0  0  0  0  0  0  0  0  0  0  0  0
    5.1800   -4.7799   24.6534 H   0  0  0  0  0  0  0  0  0  0  0  0
    5.7191   -6.3872   24.1421 H   0  0  0  0  0  0  0  0  0  0  0  0
  1  2  1  0
  2  3  1  0
  3  4  1  0
  4  5  1  0
  4  6  1  0
  4  7  1  0
  3  8  1  0
  8  9  1  0
  9 10  2  0
 10 11  1  0
 11 12  1  0
 12 13  2  0
 13 14  1  0
 14 15  2  0
 15 16  1  0
 16 17  2  0
 17 18  1  0
 15 19  1  0
 14 20  1  0
 13 21  1  0
 11 22  1  0
 22 23  1  0
 23 24  1  0
 24 25  1  0
 25 26  2  0
 26 27  1  0
 27 28  1  0
 27 29  1  0
 27 30  1  0
 26 31  1  0
 31 32  2  0
 32 33  1  0
 33 34  1  0
 33 35  1  0
 33 36  1  0
 31 37  1  0
 23 38  1  0
 23 39  1  0
 22 40  2  0
  8 41  1  0
  8 42  1  0
  3 43  1  0
  2 44  1  0
  2 45  1  0
  1 46  1  0
  1 47  1  0
  1 48  1  0
 40  9  1  0
 17 12  1  0
 32 24  1  0
M  END
>  <cnnaffinity>  (1) 
-6.05743

>  <filename>  (1) 
CCC(C)Cc1nc(Cn2nc(C)cc2C)n(-c2cccnc2)n1

$$$$
