
     RDKit          3D

 48 50  0  0  0  0  0  0  0  0999 V2000
    8.3224   -4.9750   22.4142 C   0  0  0  0  0  0  0  0  0  0  0  0
    8.4244   -4.1209   23.6728 C   0  0  0  0  0  0  0  0  0  0  0  0
    7.4141   -2.9598   23.6844 C   0  0  0  0  0  0  0  0  0  0  0  0
    7.4251   -2.2206   25.0348 C   0  0  0  0  0  0  0  0  0  0  0  0
    8.4141   -1.7907   25.2339 H   0  0  0  0  0  0  0  0  0  0  0  0
    6.6953   -1.4027   25.0480 H   0  0  0  0  0  0  0  0  0  0  0  0
    7.1776   -2.9064   25.8522 H   0  0  0  0  0  0  0  0  0  0  0  0
    7.6423   -2.0043   22.5465 C   0  0  0  0  0  0  0  0  0  0  0  0
    6.6914   -1.5989   21.7286 N   0  0  0  0  0  0  0  0  0  0  0  0
    7.3337   -0.6978   20.9305 N   0  0  0  0  0  0  0  0  0  0  0  0
    6.6463   -0.0051   19.8974 C   0  0  0  0  0  0  0  0  0  0  0  0
    5.4379    0.6467   20.1629 C   0  0  0  0  0  0  0  0  0  0  0  0
    4.8108    1.3151   19.1086 C   0  0  0  0  0  0  0  0  0  0  0  0
    5.3984    1.2974   17.8371 C   0  0  0  0  0  0  0  0  0  0  0  0
    6.5557    0.6717   17.5750 N   0  0  0  0  0  0  0  0  0  0  0  0
    7.1638    0.0472   18.5893 C   0  0  0  0  0  0  0  0  0  0  0  0
    8.1110   -0.4352   18.3614 H   0  0  0  0  0  0  0  0  0  0  0  0
    4.9191    1.7868   16.9926 H   0  0  0  0  0  0  0  0  0  0  0  0
    3.8777    1.8423   19.2596 H   0  0  0  0  0  0  0  0  0  0  0  0
    5.0183    0.6103   21.1724 H   0  0  0  0  0  0  0  0  0  0  0  0
    8.6112   -0.5593   21.3837 C   0  0  0  0  0  0  0  0  0  0  0  0
    9.5985    0.4359   20.8668 C   0  0  0  0  0  0  0  0  0  0  0  0
   10.1437    1.3089   21.8902 N   0  0  0  0  0  0  0  0  0  0  0  0
   11.3551    1.1286   22.5332 C   0  0  0  0  0  0  0  0  0  0  0  0
   11.3619    2.0249   23.5611 C   0  0  0  0  0  0  0  0  0  0  0  0
   10.1887    2.7306   23.5957 N   0  0  0  0  0  0  0  0  0  0  0  0
    9.4641    2.2741   22.5972 C   0  0  0  0  0  0  0  0  0  0  0  0
    8.0377    2.6864   22.3299 C   0  0  0  0  0  0  0  0  0  0  0  0
    7.0822    2.0854   23.3799 C   0  0  0  0  0  0  0  0  0  0  0  0
    7.1390    0.9894   23.4038 H   0  0  0  0  0  0  0  0  0  0  0  0
    7.3368    2.4616   24.3779 H   0  0  0  0  0  0  0  0  0  0  0  0
    6.0454    2.3743   23.1667 H   0  0  0  0  0  0  0  0  0  0  0  0
    7.9220    4.2165   22.2943 C   0  0  0  0  0  0  0  0  0  0  0  0
    8.2052    4.6470   23.2616 H   0  0  0  0  0  0  0  0  0  0  0  0
    6.9025    4.5314   22.0443 H   0  0  0  0  0  0  0  0  0  0  0  0
    8.5860    4.6460   21.5447 H   0  0  0  0  0  0  0  0  0  0  0  0
    7.7415    2.3021   21.3452 H   0  0  0  0  0  0  0  0  0  0  0  0
   12.1535    2.2108   24.2740 H   0  0  0  0  0  0  0  0  0  0  0  0
   12.0745    0.3865   22.2100 H   0  0  0  0  0  0  0  0  0  0  0  0
   10.4266   -0.1500   20.4724 H   0  0  0  0  0  0  0  0  0  0  0  0
    9.1789    1.0386   20.0617 H   0  0  0  0  0  0  0  0  0  0  0  0
    8.8533   -1.4172   22.3512 N   0  0  0  0  0  0  0  0  0  0  0  0
    6.4105   -3.3571   23.5124 H   0  0  0  0  0  0  0  0  0  0  0  0
    8.2506   -4.7432   24.5592 H   0  0  0  0  0  0  0  0  0  0  0  0
    9.4394   -3.7145   23.7739 H   0  0  0  0  0  0  0  0  0  0  0  0
    8.5456   -4.3828   21.5190 H   0  0  0  0  0  0  0  0  0  0  0  0
    9.0062   -5.8272   22.4558 H   0  0  0  0  0  0  0  0  0  0  0  0
    7.3135   -5.3838   22.2913 H   0  0  0  0  0  0  0  0  0  0  0  0
  1  2  1  0
  2  3  1  0
  3  4  1  0
  4  5  1  0
  4  6  1  0
  4  7  1  0
  3  8  1  0
  8  9  2  0
  9 10  1  0
 10 11  1  0
 11 12  2  0
 12 13  1  0
 13 14  2  0
 14 15  1  0
 15 16  2  0
 16 17  1  0
 14 18  1  0
 13 19  1  0
 12 20  1  0
 10 21  1  0
 21 22  1  0
 22 23  1  0
 23 24  1  0
 24 25  2  0
 25 26  1  0
 26 27  2  0
 27 28  1  0
 28 29  1  0
 29 30  1  0
 29 31  1  0
 29 32  1  0
 28 33  1  0
 33 34  1  0
 33 35  1  0
 33 36  1  0
 28 37  1  0
 25 38  1  0
 24 39  1  0
 22 40  1  0
 22 41  1  0
 21 42  2  0
  3 43  1  0
  2 44  1  0
  2 45  1  0
  1 46  1  0
  1 47  1  0
  1 48  1  0
 42  8  1  0
 16 11  1  0
 27 23  1  0
M  END
>  <cnnaffinity>  (1) 
-6.28032

>  <filename>  (1) 
CCC(C)c1nc(Cn2ccnc2C(C)C)n(-c2cccnc2)n1

$$$$
