
     RDKit          3D

 44 46  0  0  0  0  0  0  0  0999 V2000
    6.6972   -1.1839   25.3340 C   0  0  0  0  0  0  0  0  0  0  0  0
    7.6469   -2.3449   25.0494 C   0  0  0  0  0  0  0  0  0  0  0  0
    7.4174   -2.9862   23.6623 C   0  0  0  0  0  0  0  0  0  0  0  0
    8.2964   -4.2342   23.4735 C   0  0  0  0  0  0  0  0  0  0  0  0
    8.1266   -4.6958   22.4957 H   0  0  0  0  0  0  0  0  0  0  0  0
    9.3604   -3.9780   23.5468 H   0  0  0  0  0  0  0  0  0  0  0  0
    8.0696   -4.9792   24.2446 H   0  0  0  0  0  0  0  0  0  0  0  0
    7.6310   -1.9940   22.5539 C   0  0  0  0  0  0  0  0  0  0  0  0
    6.6793   -1.5909   21.7357 N   0  0  0  0  0  0  0  0  0  0  0  0
    7.3227   -0.6976   20.9331 N   0  0  0  0  0  0  0  0  0  0  0  0
    6.6401   -0.0074   19.8971 C   0  0  0  0  0  0  0  0  0  0  0  0
    5.4338    0.6462   20.1640 C   0  0  0  0  0  0  0  0  0  0  0  0
    4.8111    1.3145   19.1072 C   0  0  0  0  0  0  0  0  0  0  0  0
    5.3979    1.2971   17.8363 C   0  0  0  0  0  0  0  0  0  0  0  0
    6.5553    0.6704   17.5737 N   0  0  0  0  0  0  0  0  0  0  0  0
    7.1602    0.0439   18.5898 C   0  0  0  0  0  0  0  0  0  0  0  0
    8.1120   -0.4334   18.3647 H   0  0  0  0  0  0  0  0  0  0  0  0
    4.9199    1.7877   16.9926 H   0  0  0  0  0  0  0  0  0  0  0  0
    3.8798    1.8415   19.2599 H   0  0  0  0  0  0  0  0  0  0  0  0
    5.0147    0.6105   21.1730 H   0  0  0  0  0  0  0  0  0  0  0  0
    8.6045   -0.5698   21.3711 C   0  0  0  0  0  0  0  0  0  0  0  0
    9.6154    0.3901   20.8330 C   0  0  0  0  0  0  0  0  0  0  0  0
   10.2659    1.2337   21.9134 C   0  0  0  0  0  0  0  0  0  0  0  0
   11.5365    0.9177   22.4027 C   0  0  0  0  0  0  0  0  0  0  0  0
   12.1410    1.5288   23.4263 N   0  0  0  0  0  0  0  0  0  0  0  0
   11.4553    2.5114   24.0086 C   0  0  0  0  0  0  0  0  0  0  0  0
   10.1737    2.9025   23.6263 C   0  0  0  0  0  0  0  0  0  0  0  0
    9.5449    2.2550   22.5619 C   0  0  0  0  0  0  0  0  0  0  0  0
    8.1424    2.6349   22.1668 C   0  0  0  0  0  0  0  0  0  0  0  0
    8.0829    2.8736   21.1031 H   0  0  0  0  0  0  0  0  0  0  0  0
    7.7998    3.5058   22.7287 H   0  0  0  0  0  0  0  0  0  0  0  0
    7.4342    1.8172   22.3484 H   0  0  0  0  0  0  0  0  0  0  0  0
    9.6653    3.7038   24.1460 H   0  0  0  0  0  0  0  0  0  0  0  0
   11.9552    3.0164   24.8267 H   0  0  0  0  0  0  0  0  0  0  0  0
   12.0868    0.0980   21.9408 H   0  0  0  0  0  0  0  0  0  0  0  0
   10.3492   -0.2507   20.3439 H   0  0  0  0  0  0  0  0  0  0  0  0
    9.1540    1.0355   20.0834 H   0  0  0  0  0  0  0  0  0  0  0  0
    8.8436   -1.4230   22.3457 N   0  0  0  0  0  0  0  0  0  0  0  0
    6.3648   -3.2714   23.5765 H   0  0  0  0  0  0  0  0  0  0  0  0
    7.5267   -3.1218   25.8160 H   0  0  0  0  0  0  0  0  0  0  0  0
    8.6883   -2.0006   25.1135 H   0  0  0  0  0  0  0  0  0  0  0  0
    6.8451   -0.7922   26.3461 H   0  0  0  0  0  0  0  0  0  0  0  0
    6.8495   -0.3606   24.6236 H   0  0  0  0  0  0  0  0  0  0  0  0
    5.6501   -1.5006   25.2491 H   0  0  0  0  0  0  0  0  0  0  0  0
  1  2  1  0
  2  3  1  0
  3  4  1  0
  4  5  1  0
  4  6  1  0
  4  7  1  0
  3  8  1  0
  8  9  2  0
  9 10  1  0
 10 11  1  0
 11 12  2  0
 12 13  1  0
 13 14  2  0
 14 15  1  0
 15 16  2  0
 16 17  1  0
 14 18  1  0
 13 19  1  0
 12 20  1  0
 10 21  1  0
 21 22  1  0
 22 23  1  0
 23 24  2  0
 24 25  1  0
 25 26  2  0
 26 27  1  0
 27 28  2  0
 28 29  1  0
 29 30  1  0
 29 31  1  0
 29 32  1  0
 27 33  1  0
 26 34  1  0
 24 35  1  0
 22 36  1  0
 22 37  1  0
 21 38  2  0
  3 39  1  0
  2 40  1  0
  2 41  1  0
  1 42  1  0
  1 43  1  0
  1 44  1  0
 38  8  1  0
 16 11  1  0
 28 23  1  0
M  END
>  <cnnaffinity>  (1) 
-5.97807

>  <filename>  (1) 
CCC(C)c1nc(Cc2cnccc2C)n(-c2cccnc2)n1

$$$$
