
     RDKit          3D

 48 50  0  0  0  0  0  0  0  0999 V2000
    6.7787   -1.4096   25.4195 C   0  0  0  0  0  0  0  0  0  0  0  0
    6.4348   -2.7256   24.7231 C   0  0  0  0  0  0  0  0  0  0  0  0
    7.4899   -3.1713   23.6763 C   0  0  0  0  0  0  0  0  0  0  0  0
    7.1347   -4.5017   22.9882 C   0  0  0  0  0  0  0  0  0  0  0  0
    7.1331   -5.7006   23.9230 C   0  0  0  0  0  0  0  0  0  0  0  0
    6.3807   -5.6125   24.7141 H   0  0  0  0  0  0  0  0  0  0  0  0
    6.9129   -6.6046   23.3509 H   0  0  0  0  0  0  0  0  0  0  0  0
    8.1108   -5.8273   24.4036 H   0  0  0  0  0  0  0  0  0  0  0  0
    6.1582   -4.3879   22.4977 H   0  0  0  0  0  0  0  0  0  0  0  0
    7.8555   -4.6807   22.1792 H   0  0  0  0  0  0  0  0  0  0  0  0
    7.7265   -2.1010   22.6464 C   0  0  0  0  0  0  0  0  0  0  0  0
    6.9043   -1.8767   21.6389 N   0  0  0  0  0  0  0  0  0  0  0  0
    7.4385   -0.7850   21.0363 N   0  0  0  0  0  0  0  0  0  0  0  0
    6.6773   -0.2312   19.9543 C   0  0  0  0  0  0  0  0  0  0  0  0
    5.5939    0.5920   20.2555 C   0  0  0  0  0  0  0  0  0  0  0  0
    5.0711    1.3835   19.2405 C   0  0  0  0  0  0  0  0  0  0  0  0
    5.4819    1.1371   17.9231 C   0  0  0  0  0  0  0  0  0  0  0  0
    6.4022    0.2091   17.6036 N   0  0  0  0  0  0  0  0  0  0  0  0
    6.9943   -0.4566   18.6052 C   0  0  0  0  0  0  0  0  0  0  0  0
    7.7613   -1.1744   18.3228 H   0  0  0  0  0  0  0  0  0  0  0  0
    5.0643    1.7082   17.0971 H   0  0  0  0  0  0  0  0  0  0  0  0
    4.4741    2.2641   19.4870 H   0  0  0  0  0  0  0  0  0  0  0  0
    5.3164    0.7887   21.2939 H   0  0  0  0  0  0  0  0  0  0  0  0
    8.5389   -0.3799   21.7551 C   0  0  0  0  0  0  0  0  0  0  0  0
    9.4003    0.8585   21.6079 C   0  0  0  0  0  0  0  0  0  0  0  0
    8.8558    2.0977   22.2301 N   0  0  0  0  0  0  0  0  0  0  0  0
    8.9955    2.3563   23.6067 C   0  0  0  0  0  0  0  0  0  0  0  0
    8.3196    3.3879   24.2291 C   0  0  0  0  0  0  0  0  0  0  0  0
    6.7438    3.9440   23.6226 C   0  0  0  0  0  0  0  0  0  0  0  0
    7.0487    4.1838   23.5212 C   0  0  0  0  0  0  0  0  0  0  0  0
    7.4039    4.2984   21.9845 C   0  0  0  0  0  0  0  0  0  0  0  0
    8.4409    5.1712   22.2358 F   0  0  0  0  0  0  0  0  0  0  0  0
    6.5732    4.8921   21.1330 F   0  0  0  0  0  0  0  0  0  0  0  0
    5.3801    3.1435   21.6523 F   0  0  0  0  0  0  0  0  0  0  0  0
    7.8817    2.8141   21.4774 C   0  0  0  0  0  0  0  0  0  0  0  0
    7.4582    2.2977   20.4712 O   0  0  0  0  0  0  0  0  0  0  0  0
    5.6939    3.7547   23.9644 H   0  0  0  0  0  0  0  0  0  0  0  0
    8.4134    3.5004   25.3152 H   0  0  0  0  0  0  0  0  0  0  0  0
    9.6891    1.6991   24.1250 H   0  0  0  0  0  0  0  0  0  0  0  0
   10.3601    0.6290   22.0746 H   0  0  0  0  0  0  0  0  0  0  0  0
    9.5818    1.0530   20.5498 H   0  0  0  0  0  0  0  0  0  0  0  0
    8.7584   -1.2321   22.7395 N   0  0  0  0  0  0  0  0  0  0  0  0
    8.4562   -3.2681   24.1900 H   0  0  0  0  0  0  0  0  0  0  0  0
    6.3330   -3.5165   25.4752 H   0  0  0  0  0  0  0  0  0  0  0  0
    5.4562   -2.6372   24.2284 H   0  0  0  0  0  0  0  0  0  0  0  0
    7.7891   -1.4313   25.8442 H   0  0  0  0  0  0  0  0  0  0  0  0
    6.0716   -1.1927   26.2259 H   0  0  0  0  0  0  0  0  0  0  0  0
    6.7466   -0.5783   24.7117 H   0  0  0  0  0  0  0  0  0  0  0  0
  1  2  1  0
  2  3  1  0
  3  4  1  0
  4  5  1  0
  5  6  1  0
  5  7  1  0
  5  8  1  0
  4  9  1  0
  4 10  1  0
  3 11  1  0
 11 12  2  0
 12 13  1  0
 13 14  1  0
 14 15  2  0
 15 16  1  0
 16 17  2  0
 17 18  1  0
 18 19  2  0
 19 20  1  0
 17 21  1  0
 16 22  1  0
 15 23  1  0
 13 24  1  0
 24 25  1  0
 25 26  1  0
 26 27  1  0
 27 28  2  0
 28 29  1  0
 29 30  2  0
 30 31  1  0
 31 32  1  0
 31 33  1  0
 31 34  1  0
 30 35  1  0
 35 36  2  0
 29 37  1  0
 28 38  1  0
 27 39  1  0
 25 40  1  0
 25 41  1  0
 24 42  2  0
  3 43  1  0
  2 44  1  0
  2 45  1  0
  1 46  1  0
  1 47  1  0
  1 48  1  0
 42 11  1  0
 19 14  1  0
 35 26  1  0
M  END
>  <cnnaffinity>  (1) 
-6.05541

>  <filename>  (1) 
CCC(CC)c1nc(Cn2cccc(C(F)(F)F)c2=O)n(-c2cccnc2)n1

$$$$
