
     RDKit          3D

 52 54  0  0  0  0  0  0  0  0999 V2000
    8.3357   -4.9485   22.9036 C   0  0  0  0  0  0  0  0  0  0  0  0
    8.3165   -3.9243   24.0412 C   0  0  0  0  0  0  0  0  0  0  0  0
    7.2210   -2.8518   23.8374 C   0  0  0  0  0  0  0  0  0  0  0  0
    6.9624   -1.9899   25.1068 C   0  0  0  0  0  0  0  0  0  0  0  0
    8.1469   -1.1334   25.5621 C   0  0  0  0  0  0  0  0  0  0  0  0
    7.8777   -0.5687   26.4615 H   0  0  0  0  0  0  0  0  0  0  0  0
    9.0206   -1.7550   25.7970 H   0  0  0  0  0  0  0  0  0  0  0  0
    8.4478   -0.4215   24.7838 H   0  0  0  0  0  0  0  0  0  0  0  0
    6.0930   -1.3443   24.9143 H   0  0  0  0  0  0  0  0  0  0  0  0
    6.6703   -2.6667   25.9232 H   0  0  0  0  0  0  0  0  0  0  0  0
    7.5151   -1.9886   22.6354 C   0  0  0  0  0  0  0  0  0  0  0  0
    6.5944   -1.5750   21.7884 N   0  0  0  0  0  0  0  0  0  0  0  0
    7.2878   -0.7579   20.9450 N   0  0  0  0  0  0  0  0  0  0  0  0
    6.6173   -0.0714   19.8967 C   0  0  0  0  0  0  0  0  0  0  0  0
    5.4186    0.6039   20.1511 C   0  0  0  0  0  0  0  0  0  0  0  0
    4.8205    1.3028   19.1012 C   0  0  0  0  0  0  0  0  0  0  0  0
    5.4266    1.2936   17.8379 C   0  0  0  0  0  0  0  0  0  0  0  0
    6.5607    0.6256   17.5798 N   0  0  0  0  0  0  0  0  0  0  0  0
    7.1333   -0.0401   18.5889 C   0  0  0  0  0  0  0  0  0  0  0  0
    8.0510   -0.5752   18.3577 H   0  0  0  0  0  0  0  0  0  0  0  0
    4.9825    1.8316   17.0022 H   0  0  0  0  0  0  0  0  0  0  0  0
    3.8982    1.8538   19.2470 H   0  0  0  0  0  0  0  0  0  0  0  0
    4.9809    0.5720   21.1500 H   0  0  0  0  0  0  0  0  0  0  0  0
    8.5752   -0.6615   21.3875 C   0  0  0  0  0  0  0  0  0  0  0  0
    9.6170    0.2365   20.7659 C   0  0  0  0  0  0  0  0  0  0  0  0
   10.6423    0.7464   21.6904 N   0  0  0  0  0  0  0  0  0  0  0  0
   11.7574   -0.1581   22.0069 C   0  0  0  0  0  0  0  0  0  0  0  0
   12.9296    0.6573   22.5296 C   0  0  0  0  0  0  0  0  0  0  0  0
   12.5306    1.3672   23.8223 C   0  0  0  0  0  0  0  0  0  0  0  0
   11.3070    2.2761   23.5605 C   0  0  0  0  0  0  0  0  0  0  0  0
   11.6511    3.6398   22.9742 C   0  0  0  0  0  0  0  0  0  0  0  0
   10.5898    4.4440   22.8923 F   0  0  0  0  0  0  0  0  0  0  0  0
   12.5656    4.2883   23.7242 F   0  0  0  0  0  0  0  0  0  0  0  0
   12.1640    3.5241   21.7331 F   0  0  0  0  0  0  0  0  0  0  0  0
   10.2619    1.7412   22.5759 C   0  0  0  0  0  0  0  0  0  0  0  0
    9.1507    2.2344   22.5671 O   0  0  0  0  0  0  0  0  0  0  0  0
   10.7672    2.4850   24.4867 H   0  0  0  0  0  0  0  0  0  0  0  0
   12.2742    0.6185   24.5852 H   0  0  0  0  0  0  0  0  0  0  0  0
   13.3708    1.9482   24.2250 H   0  0  0  0  0  0  0  0  0  0  0  0
   13.7973    0.0072   22.6700 H   0  0  0  0  0  0  0  0  0  0  0  0
   13.1752    1.4128   21.7822 H   0  0  0  0  0  0  0  0  0  0  0  0
   11.4272   -0.9148   22.7404 H   0  0  0  0  0  0  0  0  0  0  0  0
   12.0474   -0.6921   21.0920 H   0  0  0  0  0  0  0  0  0  0  0  0
   10.0969   -0.3678   19.9855 H   0  0  0  0  0  0  0  0  0  0  0  0
    9.1338    1.0806   20.2649 H   0  0  0  0  0  0  0  0  0  0  0  0
    8.7573   -1.4877   22.3970 N   0  0  0  0  0  0  0  0  0  0  0  0
    6.2735   -3.3530   23.6024 H   0  0  0  0  0  0  0  0  0  0  0  0
    9.2965   -3.4299   24.1202 H   0  0  0  0  0  0  0  0  0  0  0  0
    8.1455   -4.4192   25.0059 H   0  0  0  0  0  0  0  0  0  0  0  0
    7.3290   -5.3422   22.7090 H   0  0  0  0  0  0  0  0  0  0  0  0
    8.6915   -4.4741   21.9828 H   0  0  0  0  0  0  0  0  0  0  0  0
    8.9760   -5.8096   23.1261 H   0  0  0  0  0  0  0  0  0  0  0  0
  1  2  1  0
  2  3  1  0
  3  4  1  0
  4  5  1  0
  5  6  1  0
  5  7  1  0
  5  8  1  0
  4  9  1  0
  4 10  1  0
  3 11  1  0
 11 12  2  0
 12 13  1  0
 13 14  1  0
 14 15  2  0
 15 16  1  0
 16 17  2  0
 17 18  1  0
 18 19  2  0
 19 20  1  0
 17 21  1  0
 16 22  1  0
 15 23  1  0
 13 24  1  0
 24 25  1  0
 25 26  1  0
 26 27  1  0
 27 28  1  0
 28 29  1  0
 29 30  1  0
 30 31  1  0
 31 32  1  0
 31 33  1  0
 31 34  1  0
 30 35  1  0
 35 36  2  0
 30 37  1  0
 29 38  1  0
 29 39  1  0
 28 40  1  0
 28 41  1  0
 27 42  1  0
 27 43  1  0
 25 44  1  0
 25 45  1  0
 24 46  2  0
  3 47  1  0
  2 48  1  0
  2 49  1  0
  1 50  1  0
  1 51  1  0
  1 52  1  0
 46 11  1  0
 19 14  1  0
 35 26  1  0
M  END
>  <cnnaffinity>  (1) 
-6.56013

>  <filename>  (1) 
CCC(CC)c1nc(CN2CCCC(C(F)(F)F)C2=O)n(-c2cccnc2)n1

$$$$
