
     RDKit          3D

 44 46  0  0  0  0  0  0  0  0999 V2000
    6.4688   -1.2308   25.2462 C   0  0  0  0  0  0  0  0  0  0  0  0
    7.4982   -2.3437   25.0487 C   0  0  0  0  0  0  0  0  0  0  0  0
    7.4169   -3.0410   23.6751 C   0  0  0  0  0  0  0  0  0  0  0  0
    8.2697   -4.1843   23.6571 O   0  0  0  0  0  0  0  0  0  0  0  0
    9.1892   -3.8743   23.7133 H   0  0  0  0  0  0  0  0  0  0  0  0
    7.6347   -2.0230   22.5583 C   0  0  0  0  0  0  0  0  0  0  0  0
    6.6947   -1.6023   21.7290 N   0  0  0  0  0  0  0  0  0  0  0  0
    7.3332   -0.6663   20.9733 N   0  0  0  0  0  0  0  0  0  0  0  0
    6.6379   -0.0042   19.9068 C   0  0  0  0  0  0  0  0  0  0  0  0
    5.4155    0.6351   20.1490 C   0  0  0  0  0  0  0  0  0  0  0  0
    4.7992    1.3104   19.0884 C   0  0  0  0  0  0  0  0  0  0  0  0
    5.4036    1.2986   17.8283 C   0  0  0  0  0  0  0  0  0  0  0  0
    6.5453    0.6431   17.5718 N   0  0  0  0  0  0  0  0  0  0  0  0
    7.1443    0.0084   18.5905 C   0  0  0  0  0  0  0  0  0  0  0  0
    8.0658   -0.5206   18.3441 H   0  0  0  0  0  0  0  0  0  0  0  0
    4.9529    1.8335   16.9943 H   0  0  0  0  0  0  0  0  0  0  0  0
    3.8745    1.8557   19.2350 H   0  0  0  0  0  0  0  0  0  0  0  0
    4.9681    0.5935   21.1440 H   0  0  0  0  0  0  0  0  0  0  0  0
    8.6085   -0.5308   21.4427 C   0  0  0  0  0  0  0  0  0  0  0  0
    9.6456    0.4391   20.9970 C   0  0  0  0  0  0  0  0  0  0  0  0
   10.0603    1.3280   22.0669 N   0  0  0  0  0  0  0  0  0  0  0  0
   11.1917    1.1681   22.8521 C   0  0  0  0  0  0  0  0  0  0  0  0
   12.1667    0.0538   22.6368 C   0  0  0  0  0  0  0  0  0  0  0  0
   12.9181    0.0370   23.4309 H   0  0  0  0  0  0  0  0  0  0  0  0
   11.6566   -0.9181   22.6153 H   0  0  0  0  0  0  0  0  0  0  0  0
   12.7226    0.1578   21.7027 H   0  0  0  0  0  0  0  0  0  0  0  0
   11.1764    2.1483   23.8087 C   0  0  0  0  0  0  0  0  0  0  0  0
    9.9743    2.8896   23.6448 C   0  0  0  0  0  0  0  0  0  0  0  0
    9.2863    2.3533   22.5862 C   0  0  0  0  0  0  0  0  0  0  0  0
    7.9306    2.6934   22.0550 C   0  0  0  0  0  0  0  0  0  0  0  0
    7.5901    3.6652   22.4235 H   0  0  0  0  0  0  0  0  0  0  0  0
    7.1968    1.9394   22.3652 H   0  0  0  0  0  0  0  0  0  0  0  0
    7.9125    2.7267   20.9638 H   0  0  0  0  0  0  0  0  0  0  0  0
    9.6422    3.7261   24.2451 H   0  0  0  0  0  0  0  0  0  0  0  0
   11.9400    2.2881   24.5628 H   0  0  0  0  0  0  0  0  0  0  0  0
   10.5212   -0.1340   20.6884 H   0  0  0  0  0  0  0  0  0  0  0  0
    9.3178    1.0222   20.1399 H   0  0  0  0  0  0  0  0  0  0  0  0
    8.8348   -1.3938   22.4128 N   0  0  0  0  0  0  0  0  0  0  0  0
    6.4123   -3.4387   23.5256 H   0  0  0  0  0  0  0  0  0  0  0  0
    7.3942   -3.1135   25.8218 H   0  0  0  0  0  0  0  0  0  0  0  0
    8.5051   -1.9197   25.1494 H   0  0  0  0  0  0  0  0  0  0  0  0
    5.4431   -1.5988   25.1339 H   0  0  0  0  0  0  0  0  0  0  0  0
    6.6105   -0.4148   24.5256 H   0  0  0  0  0  0  0  0  0  0  0  0
    6.5521   -0.7970   26.2481 H   0  0  0  0  0  0  0  0  0  0  0  0
  1  2  1  0
  2  3  1  0
  3  4  1  0
  4  5  1  0
  3  6  1  0
  6  7  2  0
  7  8  1  0
  8  9  1  0
  9 10  2  0
 10 11  1  0
 11 12  2  0
 12 13  1  0
 13 14  2  0
 14 15  1  0
 12 16  1  0
 11 17  1  0
 10 18  1  0
  8 19  1  0
 19 20  1  0
 20 21  1  0
 21 22  1  0
 22 23  1  0
 23 24  1  0
 23 25  1  0
 23 26  1  0
 22 27  2  0
 27 28  1  0
 28 29  2  0
 29 30  1  0
 30 31  1  0
 30 32  1  0
 30 33  1  0
 28 34  1  0
 27 35  1  0
 20 36  1  0
 20 37  1  0
 19 38  2  0
  3 39  1  0
  2 40  1  0
  2 41  1  0
  1 42  1  0
  1 43  1  0
  1 44  1  0
 38  6  1  0
 14  9  1  0
 29 21  1  0
M  END
>  <cnnaffinity>  (1) 
-5.92639

>  <filename>  (1) 
CCC(O)c1nc(Cn2c(C)ccc2C)n(-c2cccnc2)n1

$$$$
