
     RDKit          3D

 48 51  0  0  0  0  0  0  0  0999 V2000
    7.5702   -1.1183   25.5904 C   0  0  0  0  0  0  0  0  0  0  0  0
    6.7093   -2.1943   24.9209 C   0  0  0  0  0  0  0  0  0  0  0  0
    7.3927   -2.9566   23.7450 C   0  0  0  0  0  0  0  0  0  0  0  0
    8.6813   -3.7072   24.1492 C   0  0  0  0  0  0  0  0  0  0  0  0
    8.4819   -4.7805   25.2151 C   0  0  0  0  0  0  0  0  0  0  0  0
    9.4128   -5.3350   25.3724 H   0  0  0  0  0  0  0  0  0  0  0  0
    8.1871   -4.3505   26.1795 H   0  0  0  0  0  0  0  0  0  0  0  0
    7.7073   -5.4984   24.9189 H   0  0  0  0  0  0  0  0  0  0  0  0
    9.1124   -4.1637   23.2489 H   0  0  0  0  0  0  0  0  0  0  0  0
    9.4276   -2.9756   24.4872 H   0  0  0  0  0  0  0  0  0  0  0  0
    7.6781   -2.0067   22.6086 C   0  0  0  0  0  0  0  0  0  0  0  0
    6.7864   -1.6444   21.7098 N   0  0  0  0  0  0  0  0  0  0  0  0
    7.4301   -0.6574   21.0140 N   0  0  0  0  0  0  0  0  0  0  0  0
    6.7387   -0.0071   19.9418 C   0  0  0  0  0  0  0  0  0  0  0  0
    5.5082    0.6160   20.1882 C   0  0  0  0  0  0  0  0  0  0  0  0
    4.8764    1.2752   19.1299 C   0  0  0  0  0  0  0  0  0  0  0  0
    5.4743    1.2649   17.8636 C   0  0  0  0  0  0  0  0  0  0  0  0
    6.6281    0.6287   17.6068 N   0  0  0  0  0  0  0  0  0  0  0  0
    7.2348    0.0022   18.6256 C   0  0  0  0  0  0  0  0  0  0  0  0
    8.1423   -0.5459   18.3771 H   0  0  0  0  0  0  0  0  0  0  0  0
    5.0034    1.7662   17.0200 H   0  0  0  0  0  0  0  0  0  0  0  0
    3.9284    1.7830   19.2747 H   0  0  0  0  0  0  0  0  0  0  0  0
    5.0689    0.5595   21.1857 H   0  0  0  0  0  0  0  0  0  0  0  0
    8.6581   -0.4536   21.5846 C   0  0  0  0  0  0  0  0  0  0  0  0
    9.5618    0.7295   21.4112 C   0  0  0  0  0  0  0  0  0  0  0  0
    8.9991    1.9450   22.1242 C   0  0  0  0  0  0  0  0  0  0  0  0
    8.1855    2.7826   21.3606 C   0  0  0  0  0  0  0  0  0  0  0  0
    7.6555    3.9833   21.8718 C   0  0  0  0  0  0  0  0  0  0  0  0
    7.9360    4.2533   23.1981 C   0  0  0  0  0  0  0  0  0  0  0  0
    7.5411    5.3366   23.9490 O   0  0  0  0  0  0  0  0  0  0  0  0
    7.9446    5.1206   25.2507 C   0  0  0  0  0  0  0  0  0  0  0  0
    7.6745    5.8164   26.1860 O   0  0  0  0  0  0  0  0  0  0  0  0
    8.6909    3.9620   25.2589 N   0  0  0  0  0  0  0  0  0  0  0  0
    8.6709    3.3751   24.0023 C   0  0  0  0  0  0  0  0  0  0  0  0
    9.2289    2.2141   23.4867 C   0  0  0  0  0  0  0  0  0  0  0  0
    9.8084    1.5611   24.1357 H   0  0  0  0  0  0  0  0  0  0  0  0
    8.8072    3.4958   26.1385 H   0  0  0  0  0  0  0  0  0  0  0  0
    7.0794    4.6731   21.2605 H   0  0  0  0  0  0  0  0  0  0  0  0
    8.0027    2.4523   20.3385 H   0  0  0  0  0  0  0  0  0  0  0  0
    9.6644    0.9434   20.3448 H   0  0  0  0  0  0  0  0  0  0  0  0
   10.5551    0.4654   21.7920 H   0  0  0  0  0  0  0  0  0  0  0  0
    8.8541   -1.3270   22.5425 N   0  0  0  0  0  0  0  0  0  0  0  0
    6.6632   -3.6812   23.3612 H   0  0  0  0  0  0  0  0  0  0  0  0
    6.3875   -2.9223   25.6775 H   0  0  0  0  0  0  0  0  0  0  0  0
    5.7893   -1.7305   24.5403 H   0  0  0  0  0  0  0  0  0  0  0  0
    6.9919   -0.6097   26.3689 H   0  0  0  0  0  0  0  0  0  0  0  0
    8.4619   -1.5461   26.0639 H   0  0  0  0  0  0  0  0  0  0  0  0
    7.9140   -0.3640   24.8730 H   0  0  0  0  0  0  0  0  0  0  0  0
  1  2  1  0
  2  3  1  0
  3  4  1  0
  4  5  1  0
  5  6  1  0
  5  7  1  0
  5  8  1  0
  4  9  1  0
  4 10  1  0
  3 11  1  0
 11 12  2  0
 12 13  1  0
 13 14  1  0
 14 15  2  0
 15 16  1  0
 16 17  2  0
 17 18  1  0
 18 19  2  0
 19 20  1  0
 17 21  1  0
 16 22  1  0
 15 23  1  0
 13 24  1  0
 24 25  1  0
 25 26  1  0
 26 27  2  0
 27 28  1  0
 28 29  2  0
 29 30  1  0
 30 31  1  0
 31 32  2  0
 31 33  1  0
 33 34  1  0
 34 35  2  0
 35 36  1  0
 33 37  1  0
 28 38  1  0
 27 39  1  0
 25 40  1  0
 25 41  1  0
 24 42  2  0
  3 43  1  0
  2 44  1  0
  2 45  1  0
  1 46  1  0
  1 47  1  0
  1 48  1  0
 42 11  1  0
 19 14  1  0
 35 26  1  0
 34 29  1  0
M  END
>  <cnnaffinity>  (1) 
-6.16948

>  <filename>  (1) 
CCC(CC)c1nc(Cc2ccc3oc(=O)[nH]c3c2)n(-c2cccnc2)n1

$$$$
