
     RDKit          3D

 45 47  0  0  0  0  0  0  0  0999 V2000
    7.4831   -1.0837   25.4737 C   0  0  0  0  0  0  0  0  0  0  0  0
    6.6826   -2.2560   24.8928 C   0  0  0  0  0  0  0  0  0  0  0  0
    7.3910   -3.0130   23.7260 C   0  0  0  0  0  0  0  0  0  0  0  0
    8.6603   -3.7457   24.1846 C   0  0  0  0  0  0  0  0  0  0  0  0
    9.4159   -3.0354   24.5419 H   0  0  0  0  0  0  0  0  0  0  0  0
    9.1064   -4.3062   23.3570 H   0  0  0  0  0  0  0  0  0  0  0  0
    8.4347   -4.4456   24.9962 H   0  0  0  0  0  0  0  0  0  0  0  0
    7.6885   -2.0735   22.5851 C   0  0  0  0  0  0  0  0  0  0  0  0
    6.7700   -1.7080   21.7143 N   0  0  0  0  0  0  0  0  0  0  0  0
    7.3820   -0.7127   21.0158 N   0  0  0  0  0  0  0  0  0  0  0  0
    6.6930   -0.0696   19.9438 C   0  0  0  0  0  0  0  0  0  0  0  0
    5.4581    0.5527   20.1701 C   0  0  0  0  0  0  0  0  0  0  0  0
    4.8655    1.2390   19.1080 C   0  0  0  0  0  0  0  0  0  0  0  0
    5.4966    1.2440   17.8595 C   0  0  0  0  0  0  0  0  0  0  0  0
    6.6511    0.6028   17.6237 N   0  0  0  0  0  0  0  0  0  0  0  0
    7.2284   -0.0417   18.6454 C   0  0  0  0  0  0  0  0  0  0  0  0
    8.1508   -0.5744   18.4177 H   0  0  0  0  0  0  0  0  0  0  0  0
    5.0630    1.7850   17.0213 H   0  0  0  0  0  0  0  0  0  0  0  0
    3.9352    1.7776   19.2384 H   0  0  0  0  0  0  0  0  0  0  0  0
    5.0007    0.5014   21.1593 H   0  0  0  0  0  0  0  0  0  0  0  0
    8.6157   -0.4985   21.5572 C   0  0  0  0  0  0  0  0  0  0  0  0
    9.4296    0.7609   21.3988 C   0  0  0  0  0  0  0  0  0  0  0  0
    8.8038    1.9436   22.0342 N   0  0  0  0  0  0  0  0  0  0  0  0
    7.8667    2.6632   21.3432 C   0  0  0  0  0  0  0  0  0  0  0  0
    7.2250    3.7292   21.8999 C   0  0  0  0  0  0  0  0  0  0  0  0
    7.5025    4.0971   23.2313 C   0  0  0  0  0  0  0  0  0  0  0  0
    8.4006    3.3516   23.9587 C   0  0  0  0  0  0  0  0  0  0  0  0
    8.8741    3.7396   25.3060 C   0  0  0  0  0  0  0  0  0  0  0  0
    9.1085    2.7122   26.1248 F   0  0  0  0  0  0  0  0  0  0  0  0
    7.9826    4.5261   25.9426 F   0  0  0  0  0  0  0  0  0  0  0  0
   10.0091    4.4541   25.1957 F   0  0  0  0  0  0  0  0  0  0  0  0
    9.1084    2.2266   23.3948 C   0  0  0  0  0  0  0  0  0  0  0  0
    9.9157    1.5402   23.9963 O   0  0  0  0  0  0  0  0  0  0  0  0
    6.9960    4.9600   23.6662 H   0  0  0  0  0  0  0  0  0  0  0  0
    6.5298    4.3154   21.3033 H   0  0  0  0  0  0  0  0  0  0  0  0
    7.6944    2.3243   20.3237 H   0  0  0  0  0  0  0  0  0  0  0  0
    9.6200    0.9712   20.3422 H   0  0  0  0  0  0  0  0  0  0  0  0
   10.3859    0.5806   21.8926 H   0  0  0  0  0  0  0  0  0  0  0  0
    8.8676   -1.4034   22.4796 N   0  0  0  0  0  0  0  0  0  0  0  0
    6.6698   -3.7312   23.3168 H   0  0  0  0  0  0  0  0  0  0  0  0
    5.7148   -1.8871   24.5286 H   0  0  0  0  0  0  0  0  0  0  0  0
    6.4564   -2.9855   25.6833 H   0  0  0  0  0  0  0  0  0  0  0  0
    8.4338   -1.4153   25.9072 H   0  0  0  0  0  0  0  0  0  0  0  0
    7.7240   -0.3401   24.7068 H   0  0  0  0  0  0  0  0  0  0  0  0
    6.9245   -0.5726   26.2652 H   0  0  0  0  0  0  0  0  0  0  0  0
  1  2  1  0
  2  3  1  0
  3  4  1  0
  4  5  1  0
  4  6  1  0
  4  7  1  0
  3  8  1  0
  8  9  2  0
  9 10  1  0
 10 11  1  0
 11 12  2  0
 12 13  1  0
 13 14  2  0
 14 15  1  0
 15 16  2  0
 16 17  1  0
 14 18  1  0
 13 19  1  0
 12 20  1  0
 10 21  1  0
 21 22  1  0
 22 23  1  0
 23 24  1  0
 24 25  2  0
 25 26  1  0
 26 27  2  0
 27 28  1  0
 28 29  1  0
 28 30  1  0
 28 31  1  0
 27 32  1  0
 32 33  2  0
 26 34  1  0
 25 35  1  0
 24 36  1  0
 22 37  1  0
 22 38  1  0
 21 39  2  0
  3 40  1  0
  2 41  1  0
  2 42  1  0
  1 43  1  0
  1 44  1  0
  1 45  1  0
 39  8  1  0
 16 11  1  0
 32 23  1  0
M  END
>  <cnnaffinity>  (1) 
-6.07884

>  <filename>  (1) 
CCC(C)c1nc(Cn2cccc(C(F)(F)F)c2=O)n(-c2cccnc2)n1

$$$$
