
     RDKit          3D

 45 47  0  0  0  0  0  0  0  0999 V2000
    7.2305   -3.9730   24.5076 C   0  0  0  0  0  0  0  0  0  0  0  0
    7.7207   -4.3947   23.1245 C   0  0  0  0  0  0  0  0  0  0  0  0
    8.7258   -3.4119   22.4659 C   0  0  0  0  0  0  0  0  0  0  0  0
   10.0330   -3.2592   23.2775 C   0  0  0  0  0  0  0  0  0  0  0  0
   10.8861   -3.0559   22.6199 H   0  0  0  0  0  0  0  0  0  0  0  0
    9.9496   -2.4303   23.9910 H   0  0  0  0  0  0  0  0  0  0  0  0
   10.2611   -4.1709   23.8422 H   0  0  0  0  0  0  0  0  0  0  0  0
    8.1228   -2.0681   22.1354 C   0  0  0  0  0  0  0  0  0  0  0  0
    7.7178   -1.7866   20.9161 N   0  0  0  0  0  0  0  0  0  0  0  0
    7.2778   -0.5039   21.0231 N   0  0  0  0  0  0  0  0  0  0  0  0
    6.6126    0.1088   19.9274 C   0  0  0  0  0  0  0  0  0  0  0  0
    5.4187    0.8163   20.1036 C   0  0  0  0  0  0  0  0  0  0  0  0
    4.8457    1.4241   18.9827 C   0  0  0  0  0  0  0  0  0  0  0  0
    5.4855    1.3099   17.7451 C   0  0  0  0  0  0  0  0  0  0  0  0
    6.6063    0.5884   17.5635 N   0  0  0  0  0  0  0  0  0  0  0  0
    7.1382   -0.0194   18.6284 C   0  0  0  0  0  0  0  0  0  0  0  0
    8.0133   -0.6414   18.4535 H   0  0  0  0  0  0  0  0  0  0  0  0
    5.0815    1.8042   16.8637 H   0  0  0  0  0  0  0  0  0  0  0  0
    3.9161    1.9760   19.0627 H   0  0  0  0  0  0  0  0  0  0  0  0
    4.9425    0.8545   21.0836 H   0  0  0  0  0  0  0  0  0  0  0  0
    7.5138   -0.0587   22.2923 C   0  0  0  0  0  0  0  0  0  0  0  0
    7.4938    1.3776   22.7034 C   0  0  0  0  0  0  0  0  0  0  0  0
    8.4546    2.2788   21.8905 C   0  0  0  0  0  0  0  0  0  0  0  0
    8.3980    3.7252   22.3251 C   0  0  0  0  0  0  0  0  0  0  0  0
    7.3844    4.5330   21.8992 C   0  0  0  0  0  0  0  0  0  0  0  0
    7.3228    5.8468   22.2949 N   0  0  0  0  0  0  0  0  0  0  0  0
    8.2374    6.4566   23.1442 C   0  0  0  0  0  0  0  0  0  0  0  0
    8.0483    7.6274   23.4402 O   0  0  0  0  0  0  0  0  0  0  0  0
    9.3295    5.6044   23.5907 C   0  0  0  0  0  0  0  0  0  0  0  0
    9.3924    4.2994   23.2027 C   0  0  0  0  0  0  0  0  0  0  0  0
   10.1998    3.6657   23.5736 H   0  0  0  0  0  0  0  0  0  0  0  0
   10.0441    6.0847   24.2469 H   0  0  0  0  0  0  0  0  0  0  0  0
    6.5949    6.4997   22.0523 H   0  0  0  0  0  0  0  0  0  0  0  0
    6.5882    4.1764   21.2485 H   0  0  0  0  0  0  0  0  0  0  0  0
    9.4809    1.9052   21.9991 H   0  0  0  0  0  0  0  0  0  0  0  0
    8.1992    2.1948   20.8243 H   0  0  0  0  0  0  0  0  0  0  0  0
    7.7632    1.4122   23.7613 H   0  0  0  0  0  0  0  0  0  0  0  0
    6.4747    1.7653   22.6273 H   0  0  0  0  0  0  0  0  0  0  0  0
    7.9870   -1.0479   23.0271 N   0  0  0  0  0  0  0  0  0  0  0  0
    8.9406   -3.8281   21.4790 H   0  0  0  0  0  0  0  0  0  0  0  0
    8.2200   -5.3732   23.1898 H   0  0  0  0  0  0  0  0  0  0  0  0
    6.8675   -4.5414   22.4482 H   0  0  0  0  0  0  0  0  0  0  0  0
    8.0585   -3.9560   25.2271 H   0  0  0  0  0  0  0  0  0  0  0  0
    6.4763   -4.6730   24.8842 H   0  0  0  0  0  0  0  0  0  0  0  0
    6.7930   -2.9679   24.4789 H   0  0  0  0  0  0  0  0  0  0  0  0
  1  2  1  0
  2  3  1  0
  3  4  1  0
  4  5  1  0
  4  6  1  0
  4  7  1  0
  3  8  1  0
  8  9  2  0
  9 10  1  0
 10 11  1  0
 11 12  2  0
 12 13  1  0
 13 14  2  0
 14 15  1  0
 15 16  2  0
 16 17  1  0
 14 18  1  0
 13 19  1  0
 12 20  1  0
 10 21  1  0
 21 22  1  0
 22 23  1  0
 23 24  1  0
 24 25  2  0
 25 26  1  0
 26 27  1  0
 27 28  2  0
 27 29  1  0
 29 30  2  0
 30 31  1  0
 29 32  1  0
 26 33  1  0
 25 34  1  0
 23 35  1  0
 23 36  1  0
 22 37  1  0
 22 38  1  0
 21 39  2  0
  3 40  1  0
  2 41  1  0
  2 42  1  0
  1 43  1  0
  1 44  1  0
  1 45  1  0
 39  8  1  0
 16 11  1  0
 30 24  1  0
M  END
>  <cnnaffinity>  (1) 
-5.85114

>  <filename>  (1) 
CCC(C)c1nc(CCc2ccc(=O)[nH]c2)n(-c2cccnc2)n1

$$$$
