
     RDKit          3D

 41 43  0  0  0  0  0  0  0  0999 V2000
    9.8239    0.7214   24.7123 C   0  0  0  0  0  0  0  0  0  0  0  0
   10.2823   -0.7266   24.4842 C   0  0  0  0  0  0  0  0  0  0  0  0
   10.3622   -1.1065   22.9868 C   0  0  0  0  0  0  0  0  0  0  0  0
   10.9276   -2.5244   22.7642 C   0  0  0  0  0  0  0  0  0  0  0  0
   10.3801   -3.2681   23.3545 H   0  0  0  0  0  0  0  0  0  0  0  0
   10.8227   -2.7763   21.7098 H   0  0  0  0  0  0  0  0  0  0  0  0
   11.9866   -2.5998   22.9997 H   0  0  0  0  0  0  0  0  0  0  0  0
    9.0045   -1.0661   22.3208 C   0  0  0  0  0  0  0  0  0  0  0  0
    8.6885   -0.1413   21.4504 N   0  0  0  0  0  0  0  0  0  0  0  0
    7.4573   -0.5153   21.0422 N   0  0  0  0  0  0  0  0  0  0  0  0
    6.7762    0.0947   19.9929 C   0  0  0  0  0  0  0  0  0  0  0  0
    5.4826    0.5942   20.1686 C   0  0  0  0  0  0  0  0  0  0  0  0
    4.8705    1.1973   19.0701 C   0  0  0  0  0  0  0  0  0  0  0  0
    5.5320    1.2494   17.8368 C   0  0  0  0  0  0  0  0  0  0  0  0
    6.7805    0.7751   17.6688 N   0  0  0  0  0  0  0  0  0  0  0  0
    7.3952    0.2355   18.7392 C   0  0  0  0  0  0  0  0  0  0  0  0
    8.4123   -0.1309   18.6245 H   0  0  0  0  0  0  0  0  0  0  0  0
    5.0238    1.6923   16.9860 H   0  0  0  0  0  0  0  0  0  0  0  0
    3.8871    1.6432   19.1590 H   0  0  0  0  0  0  0  0  0  0  0  0
    4.9901    0.5487   21.1393 H   0  0  0  0  0  0  0  0  0  0  0  0
    7.1072   -1.7198   21.6491 C   0  0  0  0  0  0  0  0  0  0  0  0
    5.8816   -2.5311   21.2948 C   0  0  0  0  0  0  0  0  0  0  0  0
    5.7781   -3.9206   21.9185 C   0  0  0  0  0  0  0  0  0  0  0  0
    5.7788   -4.0854   23.3000 C   0  0  0  0  0  0  0  0  0  0  0  0
    5.5411   -5.3650   23.8124 C   0  0  0  0  0  0  0  0  0  0  0  0
    5.3402   -6.4426   22.9449 C   0  0  0  0  0  0  0  0  0  0  0  0
    5.4029   -6.3000   21.6162 N   0  0  0  0  0  0  0  0  0  0  0  0
    5.6243   -5.0736   21.1229 C   0  0  0  0  0  0  0  0  0  0  0  0
    5.6824   -4.8775   19.2510 Br  0  0  0  0  0  0  0  0  0  0  0  0
    5.1454   -7.4302   23.3564 H   0  0  0  0  0  0  0  0  0  0  0  0
    5.4860   -5.5297   24.8794 H   0  0  0  0  0  0  0  0  0  0  0  0
    5.9459   -3.2298   23.9521 H   0  0  0  0  0  0  0  0  0  0  0  0
    4.9976   -1.9612   21.5760 H   0  0  0  0  0  0  0  0  0  0  0  0
    5.8627   -2.6144   20.2045 H   0  0  0  0  0  0  0  0  0  0  0  0
    8.0444   -2.0607   22.4859 N   0  0  0  0  0  0  0  0  0  0  0  0
   11.0130   -0.3852   22.4801 H   0  0  0  0  0  0  0  0  0  0  0  0
    9.5938   -1.4001   25.0028 H   0  0  0  0  0  0  0  0  0  0  0  0
   11.2675   -0.8422   24.9427 H   0  0  0  0  0  0  0  0  0  0  0  0
    9.8101    0.9455   25.7851 H   0  0  0  0  0  0  0  0  0  0  0  0
    8.8169    0.8857   24.3169 H   0  0  0  0  0  0  0  0  0  0  0  0
   10.5101    1.4221   24.2267 H   0  0  0  0  0  0  0  0  0  0  0  0
  1  2  1  0
  2  3  1  0
  3  4  1  0
  4  5  1  0
  4  6  1  0
  4  7  1  0
  3  8  1  0
  8  9  2  0
  9 10  1  0
 10 11  1  0
 11 12  2  0
 12 13  1  0
 13 14  2  0
 14 15  1  0
 15 16  2  0
 16 17  1  0
 14 18  1  0
 13 19  1  0
 12 20  1  0
 10 21  1  0
 21 22  1  0
 22 23  1  0
 23 24  2  0
 24 25  1  0
 25 26  2  0
 26 27  1  0
 27 28  2  0
 28 29  1  0
 26 30  1  0
 25 31  1  0
 24 32  1  0
 22 33  1  0
 22 34  1  0
 21 35  2  0
  3 36  1  0
  2 37  1  0
  2 38  1  0
  1 39  1  0
  1 40  1  0
  1 41  1  0
 35  8  1  0
 16 11  1  0
 28 23  1  0
M  END
>  <cnnaffinity>  (1) 
-5.28876

>  <filename>  (1) 
CCC(C)c1nc(Cc2cccnc2Br)n(-c2cccnc2)n1

$$$$
