
     RDKit          3D

 48 50  0  0  0  0  0  0  0  0999 V2000
    7.8011   -3.7566   26.0934 C   0  0  0  0  0  0  0  0  0  0  0  0
    7.9819   -2.7161   24.9888 C   0  0  0  0  0  0  0  0  0  0  0  0
    7.0946   -2.9421   23.7450 C   0  0  0  0  0  0  0  0  0  0  0  0
    7.1942   -4.3899   23.2004 C   0  0  0  0  0  0  0  0  0  0  0  0
    8.6325   -4.8046   22.9202 C   0  0  0  0  0  0  0  0  0  0  0  0
    9.1692   -4.9908   23.8558 H   0  0  0  0  0  0  0  0  0  0  0  0
    8.6777   -5.7115   22.3156 H   0  0  0  0  0  0  0  0  0  0  0  0
    9.1650   -4.0048   22.3953 H   0  0  0  0  0  0  0  0  0  0  0  0
    6.7373   -5.0876   23.9140 H   0  0  0  0  0  0  0  0  0  0  0  0
    6.5888   -4.4524   22.2916 H   0  0  0  0  0  0  0  0  0  0  0  0
    7.4078   -1.9508   22.6427 C   0  0  0  0  0  0  0  0  0  0  0  0
    6.5215   -1.6261   21.7223 N   0  0  0  0  0  0  0  0  0  0  0  0
    7.2209   -0.8067   20.8858 N   0  0  0  0  0  0  0  0  0  0  0  0
    6.5672   -0.1210   19.8270 C   0  0  0  0  0  0  0  0  0  0  0  0
    5.3819    0.5734   20.0907 C   0  0  0  0  0  0  0  0  0  0  0  0
    4.8021    1.3142   19.0587 C   0  0  0  0  0  0  0  0  0  0  0  0
    5.4159    1.3193   17.8003 C   0  0  0  0  0  0  0  0  0  0  0  0
    6.5362    0.6305   17.5297 N   0  0  0  0  0  0  0  0  0  0  0  0
    7.0932   -0.0758   18.5238 C   0  0  0  0  0  0  0  0  0  0  0  0
    8.0010   -0.6272   18.2801 H   0  0  0  0  0  0  0  0  0  0  0  0
    4.9777    1.8778   16.9757 H   0  0  0  0  0  0  0  0  0  0  0  0
    3.8919    1.8798   19.2261 H   0  0  0  0  0  0  0  0  0  0  0  0
    4.9518    0.5144   21.0908 H   0  0  0  0  0  0  0  0  0  0  0  0
    8.4769   -0.6427   21.3895 C   0  0  0  0  0  0  0  0  0  0  0  0
    9.5267    0.2731   20.8595 C   0  0  0  0  0  0  0  0  0  0  0  0
    9.9300    1.2555   21.8532 N   0  0  0  0  0  0  0  0  0  0  0  0
   11.1419    1.1203   22.4102 N   0  0  0  0  0  0  0  0  0  0  0  0
   11.2022    2.0203   23.3761 C   0  0  0  0  0  0  0  0  0  0  0  0
   12.4376    2.0810   24.2011 C   0  0  0  0  0  0  0  0  0  0  0  0
   12.1945    2.2945   25.2384 H   0  0  0  0  0  0  0  0  0  0  0  0
   13.1227    2.8430   23.8205 H   0  0  0  0  0  0  0  0  0  0  0  0
   12.9486    1.1179   24.1495 H   0  0  0  0  0  0  0  0  0  0  0  0
    9.9985    2.7533   23.4566 C   0  0  0  0  0  0  0  0  0  0  0  0
    9.1967    2.2338   22.4633 C   0  0  0  0  0  0  0  0  0  0  0  0
    7.8123    2.6454   22.0723 C   0  0  0  0  0  0  0  0  0  0  0  0
    7.6065    3.6426   22.4692 H   0  0  0  0  0  0  0  0  0  0  0  0
    7.6980    2.6664   20.9862 H   0  0  0  0  0  0  0  0  0  0  0  0
    7.0452    1.9702   22.4671 H   0  0  0  0  0  0  0  0  0  0  0  0
    9.7263    3.5400   24.1519 H   0  0  0  0  0  0  0  0  0  0  0  0
   10.4103   -0.3324   20.6555 H   0  0  0  0  0  0  0  0  0  0  0  0
    9.2294    0.7883   19.9476 H   0  0  0  0  0  0  0  0  0  0  0  0
    8.6345   -1.3877   22.4603 N   0  0  0  0  0  0  0  0  0  0  0  0
    6.0431   -2.7747   24.0054 H   0  0  0  0  0  0  0  0  0  0  0  0
    9.0373   -2.7010   24.6891 H   0  0  0  0  0  0  0  0  0  0  0  0
    7.7837   -1.7150   25.3838 H   0  0  0  0  0  0  0  0  0  0  0  0
    8.3555   -3.4575   26.9873 H   0  0  0  0  0  0  0  0  0  0  0  0
    8.1749   -4.7402   25.7877 H   0  0  0  0  0  0  0  0  0  0  0  0
    6.7502   -3.8840   26.3748 H   0  0  0  0  0  0  0  0  0  0  0  0
  1  2  1  0
  2  3  1  0
  3  4  1  0
  4  5  1  0
  5  6  1  0
  5  7  1  0
  5  8  1  0
  4  9  1  0
  4 10  1  0
  3 11  1  0
 11 12  2  0
 12 13  1  0
 13 14  1  0
 14 15  2  0
 15 16  1  0
 16 17  2  0
 17 18  1  0
 18 19  2  0
 19 20  1  0
 17 21  1  0
 16 22  1  0
 15 23  1  0
 13 24  1  0
 24 25  1  0
 25 26  1  0
 26 27  1  0
 27 28  2  0
 28 29  1  0
 29 30  1  0
 29 31  1  0
 29 32  1  0
 28 33  1  0
 33 34  2  0
 34 35  1  0
 35 36  1  0
 35 37  1  0
 35 38  1  0
 33 39  1  0
 25 40  1  0
 25 41  1  0
 24 42  2  0
  3 43  1  0
  2 44  1  0
  2 45  1  0
  1 46  1  0
  1 47  1  0
  1 48  1  0
 42 11  1  0
 19 14  1  0
 34 26  1  0
M  END
>  <cnnaffinity>  (1) 
-6.3353

>  <filename>  (1) 
CCC(CC)c1nc(Cn2nc(C)cc2C)n(-c2cccnc2)n1

$$$$
