
     RDKit          3D

 41 43  0  0  0  0  0  0  0  0999 V2000
    6.8393   -5.4886   24.1415 C   0  0  0  0  0  0  0  0  0  0  0  0
    6.9880   -4.3948   23.0860 C   0  0  0  0  0  0  0  0  0  0  0  0
    7.2453   -2.9948   23.6979 C   0  0  0  0  0  0  0  0  0  0  0  0
    6.2187   -2.6454   24.6327 O   0  0  0  0  0  0  0  0  0  0  0  0
    5.5008   -2.1940   24.1636 H   0  0  0  0  0  0  0  0  0  0  0  0
    7.5106   -1.9569   22.6118 C   0  0  0  0  0  0  0  0  0  0  0  0
    6.5772   -1.5260   21.7753 N   0  0  0  0  0  0  0  0  0  0  0  0
    7.2678   -0.7278   20.9238 N   0  0  0  0  0  0  0  0  0  0  0  0
    6.6004   -0.0536   19.8633 C   0  0  0  0  0  0  0  0  0  0  0  0
    5.3987    0.6143   20.1216 C   0  0  0  0  0  0  0  0  0  0  0  0
    4.7955    1.3146   19.0761 C   0  0  0  0  0  0  0  0  0  0  0  0
    5.3935    1.3110   17.8104 C   0  0  0  0  0  0  0  0  0  0  0  0
    6.5223    0.6377   17.5412 N   0  0  0  0  0  0  0  0  0  0  0  0
    7.1046   -0.0277   18.5463 C   0  0  0  0  0  0  0  0  0  0  0  0
    8.0207   -0.5608   18.2961 H   0  0  0  0  0  0  0  0  0  0  0  0
    4.9456    1.8623   16.9858 H   0  0  0  0  0  0  0  0  0  0  0  0
    3.8738    1.8629   19.2350 H   0  0  0  0  0  0  0  0  0  0  0  0
    4.9645    0.5803   21.1207 H   0  0  0  0  0  0  0  0  0  0  0  0
    8.5679   -0.6698   21.3363 C   0  0  0  0  0  0  0  0  0  0  0  0
    9.6172    0.1488   20.6496 C   0  0  0  0  0  0  0  0  0  0  0  0
   10.5705    0.7544   21.5103 O   0  0  0  0  0  0  0  0  0  0  0  0
   10.2378    1.6952   22.4372 C   0  0  0  0  0  0  0  0  0  0  0  0
    8.9592    2.2461   22.5997 C   0  0  0  0  0  0  0  0  0  0  0  0
    8.7187    3.1755   23.6162 C   0  0  0  0  0  0  0  0  0  0  0  0
    9.7536    3.6305   24.4327 C   0  0  0  0  0  0  0  0  0  0  0  0
   11.0453    3.1259   24.2389 C   0  0  0  0  0  0  0  0  0  0  0  0
   11.2710    2.1227   23.3013 C   0  0  0  0  0  0  0  0  0  0  0  0
   12.8227    1.3395   23.2531 Cl  0  0  0  0  0  0  0  0  0  0  0  0
   11.8999    3.4886   24.8002 H   0  0  0  0  0  0  0  0  0  0  0  0
    9.5638    4.3448   25.2301 H   0  0  0  0  0  0  0  0  0  0  0  0
    7.7070    3.5269   23.7820 H   0  0  0  0  0  0  0  0  0  0  0  0
    8.1478    1.9143   21.9612 H   0  0  0  0  0  0  0  0  0  0  0  0
    9.1563    0.8985   19.9981 H   0  0  0  0  0  0  0  0  0  0  0  0
   10.2005   -0.5450   20.0362 H   0  0  0  0  0  0  0  0  0  0  0  0
    8.7541   -1.4667   22.3662 N   0  0  0  0  0  0  0  0  0  0  0  0
    8.1735   -3.0499   24.2796 H   0  0  0  0  0  0  0  0  0  0  0  0
    7.8221   -4.6364   22.4100 H   0  0  0  0  0  0  0  0  0  0  0  0
    6.0771   -4.3607   22.4720 H   0  0  0  0  0  0  0  0  0  0  0  0
    6.5381   -6.4263   23.6682 H   0  0  0  0  0  0  0  0  0  0  0  0
    7.7742   -5.6670   24.6893 H   0  0  0  0  0  0  0  0  0  0  0  0
    6.0671   -5.2076   24.8648 H   0  0  0  0  0  0  0  0  0  0  0  0
  1  2  1  0
  2  3  1  0
  3  4  1  0
  4  5  1  0
  3  6  1  0
  6  7  2  0
  7  8  1  0
  8  9  1  0
  9 10  2  0
 10 11  1  0
 11 12  2  0
 12 13  1  0
 13 14  2  0
 14 15  1  0
 12 16  1  0
 11 17  1  0
 10 18  1  0
  8 19  1  0
 19 20  1  0
 20 21  1  0
 21 22  1  0
 22 23  2  0
 23 24  1  0
 24 25  2  0
 25 26  1  0
 26 27  2  0
 27 28  1  0
 26 29  1  0
 25 30  1  0
 24 31  1  0
 23 32  1  0
 20 33  1  0
 20 34  1  0
 19 35  2  0
  3 36  1  0
  2 37  1  0
  2 38  1  0
  1 39  1  0
  1 40  1  0
  1 41  1  0
 35  6  1  0
 14  9  1  0
 27 22  1  0
M  END
>  <cnnaffinity>  (1) 
-5.9561

>  <filename>  (1) 
CCC(O)c1nc(COc2ccccc2Cl)n(-c2cccnc2)n1

$$$$
