
     RDKit          3D

 43 45  0  0  0  0  0  0  0  0999 V2000
    8.7363   -4.6727   22.8163 C   0  0  0  0  0  0  0  0  0  0  0  0
    7.3140   -4.3240   23.2618 C   0  0  0  0  0  0  0  0  0  0  0  0
    7.2300   -2.8608   23.7733 C   0  0  0  0  0  0  0  0  0  0  0  0
    7.9941   -2.7232   24.9679 O   0  0  0  0  0  0  0  0  0  0  0  0
    8.8991   -2.4531   24.7367 H   0  0  0  0  0  0  0  0  0  0  0  0
    7.5624   -1.8632   22.6593 C   0  0  0  0  0  0  0  0  0  0  0  0
    6.6549   -1.5364   21.7609 N   0  0  0  0  0  0  0  0  0  0  0  0
    7.3273   -0.6979   20.9290 N   0  0  0  0  0  0  0  0  0  0  0  0
    6.6437   -0.0486   19.8701 C   0  0  0  0  0  0  0  0  0  0  0  0
    5.4360    0.6011   20.1352 C   0  0  0  0  0  0  0  0  0  0  0  0
    4.8283    1.2995   19.0934 C   0  0  0  0  0  0  0  0  0  0  0  0
    5.4260    1.3062   17.8262 C   0  0  0  0  0  0  0  0  0  0  0  0
    6.5620    0.6451   17.5549 N   0  0  0  0  0  0  0  0  0  0  0  0
    7.1490   -0.0151   18.5589 C   0  0  0  0  0  0  0  0  0  0  0  0
    8.0640   -0.5485   18.3125 H   0  0  0  0  0  0  0  0  0  0  0  0
    4.9723    1.8512   17.0017 H   0  0  0  0  0  0  0  0  0  0  0  0
    3.9040    1.8404   19.2548 H   0  0  0  0  0  0  0  0  0  0  0  0
    5.0017    0.5444   21.1369 H   0  0  0  0  0  0  0  0  0  0  0  0
    8.5936   -0.5173   21.4030 C   0  0  0  0  0  0  0  0  0  0  0  0
    9.4891    0.5838   20.9271 C   0  0  0  0  0  0  0  0  0  0  0  0
    9.0149    1.9865   21.3991 C   0  0  0  0  0  0  0  0  0  0  0  0
    8.9139    2.0540   22.9101 C   0  0  0  0  0  0  0  0  0  0  0  0
    7.6729    1.9042   23.5563 C   0  0  0  0  0  0  0  0  0  0  0  0
    7.5708    1.8350   24.9478 C   0  0  0  0  0  0  0  0  0  0  0  0
    8.7344    1.8494   25.7262 C   0  0  0  0  0  0  0  0  0  0  0  0
    9.9856    1.9814   25.1169 C   0  0  0  0  0  0  0  0  0  0  0  0
   10.0595    2.1234   23.7268 C   0  0  0  0  0  0  0  0  0  0  0  0
   11.6325    2.4369   23.0271 Cl  0  0  0  0  0  0  0  0  0  0  0  0
   10.9016    1.9587   25.7016 H   0  0  0  0  0  0  0  0  0  0  0  0
    8.6802    1.7680   26.8096 H   0  0  0  0  0  0  0  0  0  0  0  0
    6.5944    1.7786   25.4238 H   0  0  0  0  0  0  0  0  0  0  0  0
    6.7741    1.8544   22.9436 H   0  0  0  0  0  0  0  0  0  0  0  0
    9.7283    2.7310   21.0357 H   0  0  0  0  0  0  0  0  0  0  0  0
    8.0434    2.2222   20.9469 H   0  0  0  0  0  0  0  0  0  0  0  0
   10.4954    0.3930   21.3117 H   0  0  0  0  0  0  0  0  0  0  0  0
    9.5436    0.5493   19.8357 H   0  0  0  0  0  0  0  0  0  0  0  0
    8.7823   -1.2814   22.4665 N   0  0  0  0  0  0  0  0  0  0  0  0
    6.1896   -2.6492   24.0489 H   0  0  0  0  0  0  0  0  0  0  0  0
    7.0216   -4.9792   24.0927 H   0  0  0  0  0  0  0  0  0  0  0  0
    6.5780   -4.4503   22.4518 H   0  0  0  0  0  0  0  0  0  0  0  0
    9.1116   -3.8932   22.1401 H   0  0  0  0  0  0  0  0  0  0  0  0
    8.8133   -5.6560   22.3382 H   0  0  0  0  0  0  0  0  0  0  0  0
    9.3998   -4.6874   23.6903 H   0  0  0  0  0  0  0  0  0  0  0  0
  1  2  1  0
  2  3  1  0
  3  4  1  0
  4  5  1  0
  3  6  1  0
  6  7  2  0
  7  8  1  0
  8  9  1  0
  9 10  2  0
 10 11  1  0
 11 12  2  0
 12 13  1  0
 13 14  2  0
 14 15  1  0
 12 16  1  0
 11 17  1  0
 10 18  1  0
  8 19  1  0
 19 20  1  0
 20 21  1  0
 21 22  1  0
 22 23  2  0
 23 24  1  0
 24 25  2  0
 25 26  1  0
 26 27  2  0
 27 28  1  0
 26 29  1  0
 25 30  1  0
 24 31  1  0
 23 32  1  0
 21 33  1  0
 21 34  1  0
 20 35  1  0
 20 36  1  0
 19 37  2  0
  3 38  1  0
  2 39  1  0
  2 40  1  0
  1 41  1  0
  1 42  1  0
  1 43  1  0
 37  6  1  0
 14  9  1  0
 27 22  1  0
M  END
>  <cnnaffinity>  (1) 
-5.87709

>  <filename>  (1) 
CCC(O)c1nc(CCc2ccccc2Cl)n(-c2cccnc2)n1

$$$$
