
     RDKit          3D

 44 46  0  0  0  0  0  0  0  0999 V2000
    6.9771   -5.3582   22.1755 C   0  0  0  0  0  0  0  0  0  0  0  0
    6.4344   -4.5756   23.3767 C   0  0  0  0  0  0  0  0  0  0  0  0
    7.3913   -3.4645   23.8453 C   0  0  0  0  0  0  0  0  0  0  0  0
    7.0404   -2.7689   25.1887 C   0  0  0  0  0  0  0  0  0  0  0  0
    5.8730   -1.7864   25.1567 C   0  0  0  0  0  0  0  0  0  0  0  0
    5.7713   -1.3058   26.1347 H   0  0  0  0  0  0  0  0  0  0  0  0
    4.9218   -2.2810   24.9303 H   0  0  0  0  0  0  0  0  0  0  0  0
    6.0336   -0.9897   24.4198 H   0  0  0  0  0  0  0  0  0  0  0  0
    6.8568   -3.5306   25.9553 H   0  0  0  0  0  0  0  0  0  0  0  0
    7.9421   -2.2254   25.4994 H   0  0  0  0  0  0  0  0  0  0  0  0
    7.6798   -2.4244   22.7986 C   0  0  0  0  0  0  0  0  0  0  0  0
    6.8980   -2.0811   21.7963 N   0  0  0  0  0  0  0  0  0  0  0  0
    7.5831   -1.0634   21.2024 N   0  0  0  0  0  0  0  0  0  0  0  0
    6.9304   -0.3987   20.1153 C   0  0  0  0  0  0  0  0  0  0  0  0
    5.7082    0.2420   20.3425 C   0  0  0  0  0  0  0  0  0  0  0  0
    5.0975    0.8875   19.2616 C   0  0  0  0  0  0  0  0  0  0  0  0
    5.7065    0.8249   18.0038 C   0  0  0  0  0  0  0  0  0  0  0  0
    6.8495    0.1624   17.7728 N   0  0  0  0  0  0  0  0  0  0  0  0
    7.4473   -0.4319   18.8147 C   0  0  0  0  0  0  0  0  0  0  0  0
    8.3773   -0.9603   18.6034 H   0  0  0  0  0  0  0  0  0  0  0  0
    5.2589    1.3190   17.1429 H   0  0  0  0  0  0  0  0  0  0  0  0
    4.1759    1.4471   19.3885 H   0  0  0  0  0  0  0  0  0  0  0  0
    5.2807    0.2588   21.3473 H   0  0  0  0  0  0  0  0  0  0  0  0
    8.7389   -0.8417   21.9037 C   0  0  0  0  0  0  0  0  0  0  0  0
    9.7495    0.2608   21.7113 C   0  0  0  0  0  0  0  0  0  0  0  0
    9.3352    1.5544   22.3825 C   0  0  0  0  0  0  0  0  0  0  0  0
    9.6976    1.9225   23.6480 C   0  0  0  0  0  0  0  0  0  0  0  0
    9.0694    3.0598   24.2705 C   0  0  0  0  0  0  0  0  0  0  0  0
    8.1777    3.7951   23.6614 N   0  0  0  0  0  0  0  0  0  0  0  0
    7.8731    3.4408   22.3905 N   0  0  0  0  0  0  0  0  0  0  0  0
    8.3586    2.3782   21.6463 C   0  0  0  0  0  0  0  0  0  0  0  0
    7.9497    2.1786   20.5166 O   0  0  0  0  0  0  0  0  0  0  0  0
    7.1524    3.9508   21.8943 H   0  0  0  0  0  0  0  0  0  0  0  0
    9.3112    3.3377   25.2904 H   0  0  0  0  0  0  0  0  0  0  0  0
   10.4470    1.3730   24.2090 H   0  0  0  0  0  0  0  0  0  0  0  0
    9.8968    0.4327   20.6424 H   0  0  0  0  0  0  0  0  0  0  0  0
   10.6870   -0.1155   22.1340 H   0  0  0  0  0  0  0  0  0  0  0  0
    8.8200   -1.6958   22.9021 N   0  0  0  0  0  0  0  0  0  0  0  0
    8.3716   -3.9301   24.0097 H   0  0  0  0  0  0  0  0  0  0  0  0
    6.2887   -5.2667   24.2183 H   0  0  0  0  0  0  0  0  0  0  0  0
    5.4458   -4.1607   23.1350 H   0  0  0  0  0  0  0  0  0  0  0  0
    7.9820   -5.7496   22.3799 H   0  0  0  0  0  0  0  0  0  0  0  0
    6.3334   -6.2154   21.9530 H   0  0  0  0  0  0  0  0  0  0  0  0
    7.0414   -4.7367   21.2745 H   0  0  0  0  0  0  0  0  0  0  0  0
  1  2  1  0
  2  3  1  0
  3  4  1  0
  4  5  1  0
  5  6  1  0
  5  7  1  0
  5  8  1  0
  4  9  1  0
  4 10  1  0
  3 11  1  0
 11 12  2  0
 12 13  1  0
 13 14  1  0
 14 15  2  0
 15 16  1  0
 16 17  2  0
 17 18  1  0
 18 19  2  0
 19 20  1  0
 17 21  1  0
 16 22  1  0
 15 23  1  0
 13 24  1  0
 24 25  1  0
 25 26  1  0
 26 27  2  0
 27 28  1  0
 28 29  2  0
 29 30  1  0
 30 31  1  0
 31 32  2  0
 30 33  1  0
 28 34  1  0
 27 35  1  0
 25 36  1  0
 25 37  1  0
 24 38  2  0
  3 39  1  0
  2 40  1  0
  2 41  1  0
  1 42  1  0
  1 43  1  0
  1 44  1  0
 38 11  1  0
 19 14  1  0
 31 26  1  0
M  END
>  <cnnaffinity>  (1) 
-5.97907

>  <filename>  (1) 
CCC(CC)c1nc(Cc2ccn[nH]c2=O)n(-c2cccnc2)n1

$$$$
