
     RDKit          3D

 51 53  0  0  0  0  0  0  0  0999 V2000
    5.7980   -4.0486   25.3809 C   0  0  0  0  0  0  0  0  0  0  0  0
    5.9850   -3.0557   24.2338 C   0  0  0  0  0  0  0  0  0  0  0  0
    7.3620   -3.1440   23.5393 C   0  0  0  0  0  0  0  0  0  0  0  0
    7.7555   -4.5343   22.9673 C   0  0  0  0  0  0  0  0  0  0  0  0
    6.8512   -5.0150   21.8327 C   0  0  0  0  0  0  0  0  0  0  0  0
    7.2159   -5.9636   21.4237 H   0  0  0  0  0  0  0  0  0  0  0  0
    6.8126   -4.2742   21.0243 H   0  0  0  0  0  0  0  0  0  0  0  0
    5.8251   -5.1700   22.1914 H   0  0  0  0  0  0  0  0  0  0  0  0
    7.7681   -5.2660   23.7869 H   0  0  0  0  0  0  0  0  0  0  0  0
    8.7948   -4.4684   22.6113 H   0  0  0  0  0  0  0  0  0  0  0  0
    7.5261   -2.0958   22.4719 C   0  0  0  0  0  0  0  0  0  0  0  0
    6.5961   -1.6984   21.6150 N   0  0  0  0  0  0  0  0  0  0  0  0
    7.2660   -0.8134   20.8251 N   0  0  0  0  0  0  0  0  0  0  0  0
    6.5857   -0.0994   19.8013 C   0  0  0  0  0  0  0  0  0  0  0  0
    5.3958    0.5765   20.0823 C   0  0  0  0  0  0  0  0  0  0  0  0
    4.8009    1.3164   19.0560 C   0  0  0  0  0  0  0  0  0  0  0  0
    5.3996    1.3398   17.7915 C   0  0  0  0  0  0  0  0  0  0  0  0
    6.5255    0.6679   17.5083 N   0  0  0  0  0  0  0  0  0  0  0  0
    7.0972   -0.0323   18.4953 C   0  0  0  0  0  0  0  0  0  0  0  0
    8.0065   -0.5756   18.2435 H   0  0  0  0  0  0  0  0  0  0  0  0
    4.9508    1.9007   16.9725 H   0  0  0  0  0  0  0  0  0  0  0  0
    3.8858    1.8704   19.2240 H   0  0  0  0  0  0  0  0  0  0  0  0
    4.9613    0.5221   21.0821 H   0  0  0  0  0  0  0  0  0  0  0  0
    8.5410   -0.6923   21.2844 C   0  0  0  0  0  0  0  0  0  0  0  0
    9.5886    0.2567   20.8174 C   0  0  0  0  0  0  0  0  0  0  0  0
    9.8463    1.2857   21.8191 N   0  0  0  0  0  0  0  0  0  0  0  0
   11.0283    1.2309   22.4583 N   0  0  0  0  0  0  0  0  0  0  0  0
   10.9776    2.1562   23.3961 C   0  0  0  0  0  0  0  0  0  0  0  0
   12.1575    2.3774   24.2805 C   0  0  0  0  0  0  0  0  0  0  0  0
   12.4896    3.4172   24.1862 H   0  0  0  0  0  0  0  0  0  0  0  0
   11.9054    2.1904   25.3305 H   0  0  0  0  0  0  0  0  0  0  0  0
   12.9681    1.7063   23.9770 H   0  0  0  0  0  0  0  0  0  0  0  0
    9.7326    2.8247   23.3965 C   0  0  0  0  0  0  0  0  0  0  0  0
    9.3193    3.9865   24.2551 C   0  0  0  0  0  0  0  0  0  0  0  0
    8.3129    3.8557   24.6687 H   0  0  0  0  0  0  0  0  0  0  0  0
    9.9981    4.1218   25.1009 H   0  0  0  0  0  0  0  0  0  0  0  0
    9.3206    4.9334   23.6987 H   0  0  0  0  0  0  0  0  0  0  0  0
    9.0251    2.2419   22.3586 C   0  0  0  0  0  0  0  0  0  0  0  0
    7.6486    2.6077   21.8726 C   0  0  0  0  0  0  0  0  0  0  0  0
    7.5643    2.4930   20.7892 H   0  0  0  0  0  0  0  0  0  0  0  0
    7.4260    3.6502   22.1383 H   0  0  0  0  0  0  0  0  0  0  0  0
    6.8668    1.9971   22.3448 H   0  0  0  0  0  0  0  0  0  0  0  0
    9.3611    0.7188   19.8557 H   0  0  0  0  0  0  0  0  0  0  0  0
   10.5118   -0.3243   20.7431 H   0  0  0  0  0  0  0  0  0  0  0  0
    8.7385   -1.5147   22.2919 N   0  0  0  0  0  0  0  0  0  0  0  0
    8.1251   -2.8851   24.2842 H   0  0  0  0  0  0  0  0  0  0  0  0
    5.8763   -2.0367   24.6341 H   0  0  0  0  0  0  0  0  0  0  0  0
    5.1847   -3.1794   23.4901 H   0  0  0  0  0  0  0  0  0  0  0  0
    5.8119   -5.0873   25.0300 H   0  0  0  0  0  0  0  0  0  0  0  0
    6.5819   -3.9394   26.1426 H   0  0  0  0  0  0  0  0  0  0  0  0
    4.8325   -3.8765   25.8670 H   0  0  0  0  0  0  0  0  0  0  0  0
  1  2  1  0
  2  3  1  0
  3  4  1  0
  4  5  1  0
  5  6  1  0
  5  7  1  0
  5  8  1  0
  4  9  1  0
  4 10  1  0
  3 11  1  0
 11 12  2  0
 12 13  1  0
 13 14  1  0
 14 15  2  0
 15 16  1  0
 16 17  2  0
 17 18  1  0
 18 19  2  0
 19 20  1  0
 17 21  1  0
 16 22  1  0
 15 23  1  0
 13 24  1  0
 24 25  1  0
 25 26  1  0
 26 27  1  0
 27 28  2  0
 28 29  1  0
 29 30  1  0
 29 31  1  0
 29 32  1  0
 28 33  1  0
 33 34  1  0
 34 35  1  0
 34 36  1  0
 34 37  1  0
 33 38  2  0
 38 39  1  0
 39 40  1  0
 39 41  1  0
 39 42  1  0
 25 43  1  0
 25 44  1  0
 24 45  2  0
  3 46  1  0
  2 47  1  0
  2 48  1  0
  1 49  1  0
  1 50  1  0
  1 51  1  0
 45 11  1  0
 19 14  1  0
 38 26  1  0
M  END
>  <cnnaffinity>  (1) 
-6.27044

>  <filename>  (1) 
CCC(CC)c1nc(Cn2nc(C)c(C)c2C)n(-c2cccnc2)n1

$$$$
