
     RDKit          3D

 41 43  0  0  0  0  0  0  0  0999 V2000
    8.1878   -5.5072   22.5839 C   0  0  0  0  0  0  0  0  0  0  0  0
    7.4229   -4.3096   22.0091 C   0  0  0  0  0  0  0  0  0  0  0  0
    8.1436   -2.9777   22.2586 C   0  0  0  0  0  0  0  0  0  0  0  0
    9.3716   -2.9744   21.4957 O   0  0  0  0  0  0  0  0  0  0  0  0
   10.0154   -3.6141   21.8515 H   0  0  0  0  0  0  0  0  0  0  0  0
    7.2623   -1.7611   21.9605 C   0  0  0  0  0  0  0  0  0  0  0  0
    6.6545   -1.5356   20.8203 N   0  0  0  0  0  0  0  0  0  0  0  0
    6.1709   -0.2790   20.9509 N   0  0  0  0  0  0  0  0  0  0  0  0
    5.7682    0.4503   19.8271 C   0  0  0  0  0  0  0  0  0  0  0  0
    4.8905    1.5355   19.8994 C   0  0  0  0  0  0  0  0  0  0  0  0
    4.6290    2.2211   18.7115 C   0  0  0  0  0  0  0  0  0  0  0  0
    5.2415    1.8254   17.5183 C   0  0  0  0  0  0  0  0  0  0  0  0
    6.0555    0.7606   17.4373 N   0  0  0  0  0  0  0  0  0  0  0  0
    6.2994    0.0821   18.5746 C   0  0  0  0  0  0  0  0  0  0  0  0
    6.9711   -0.7704   18.5353 H   0  0  0  0  0  0  0  0  0  0  0  0
    5.0455    2.3905   16.6149 H   0  0  0  0  0  0  0  0  0  0  0  0
    3.9708    3.0813   18.6865 H   0  0  0  0  0  0  0  0  0  0  0  0
    4.4265    1.8451   20.8355 H   0  0  0  0  0  0  0  0  0  0  0  0
    6.4964    0.2214   22.2179 C   0  0  0  0  0  0  0  0  0  0  0  0
    6.3277    1.6341   22.7661 C   0  0  0  0  0  0  0  0  0  0  0  0
    7.5654    2.1003   23.3665 O   0  0  0  0  0  0  0  0  0  0  0  0
    7.5597    3.1713   24.2452 C   0  0  0  0  0  0  0  0  0  0  0  0
    6.5824    4.1777   24.2028 C   0  0  0  0  0  0  0  0  0  0  0  0
    6.6438    5.2920   25.0584 C   0  0  0  0  0  0  0  0  0  0  0  0
    7.6855    5.3985   25.9852 C   0  0  0  0  0  0  0  0  0  0  0  0
    8.6507    4.3868   26.0668 C   0  0  0  0  0  0  0  0  0  0  0  0
    8.5936    3.2857   25.1969 C   0  0  0  0  0  0  0  0  0  0  0  0
    9.9406    1.9324   25.3386 Br  0  0  0  0  0  0  0  0  0  0  0  0
    9.4489    4.4456   26.8024 H   0  0  0  0  0  0  0  0  0  0  0  0
    7.7394    6.2622   26.6433 H   0  0  0  0  0  0  0  0  0  0  0  0
    5.8878    6.0744   25.0013 H   0  0  0  0  0  0  0  0  0  0  0  0
    5.7892    4.0849   23.4745 H   0  0  0  0  0  0  0  0  0  0  0  0
    6.0316    2.2986   21.9504 H   0  0  0  0  0  0  0  0  0  0  0  0
    5.5266    1.6337   23.5123 H   0  0  0  0  0  0  0  0  0  0  0  0
    7.1110   -0.7248   22.8798 N   0  0  0  0  0  0  0  0  0  0  0  0
    8.3858   -2.9118   23.3221 H   0  0  0  0  0  0  0  0  0  0  0  0
    6.4491   -4.2630   22.5021 H   0  0  0  0  0  0  0  0  0  0  0  0
    7.2606   -4.4556   20.9352 H   0  0  0  0  0  0  0  0  0  0  0  0
    8.8439   -5.9495   21.8309 H   0  0  0  0  0  0  0  0  0  0  0  0
    8.7869   -5.2171   23.4513 H   0  0  0  0  0  0  0  0  0  0  0  0
    7.4831   -6.2757   22.9047 H   0  0  0  0  0  0  0  0  0  0  0  0
  1  2  1  0
  2  3  1  0
  3  4  1  0
  4  5  1  0
  3  6  1  0
  6  7  2  0
  7  8  1  0
  8  9  1  0
  9 10  2  0
 10 11  1  0
 11 12  2  0
 12 13  1  0
 13 14  2  0
 14 15  1  0
 12 16  1  0
 11 17  1  0
 10 18  1  0
  8 19  1  0
 19 20  1  0
 20 21  1  0
 21 22  1  0
 22 23  2  0
 23 24  1  0
 24 25  2  0
 25 26  1  0
 26 27  2  0
 27 28  1  0
 26 29  1  0
 25 30  1  0
 24 31  1  0
 23 32  1  0
 20 33  1  0
 20 34  1  0
 19 35  2  0
  3 36  1  0
  2 37  1  0
  2 38  1  0
  1 39  1  0
  1 40  1  0
  1 41  1  0
 35  6  1  0
 14  9  1  0
 27 22  1  0
M  END
>  <cnnaffinity>  (1) 
-5.51894

>  <filename>  (1) 
CCC(O)c1nc(COc2ccccc2Br)n(-c2cccnc2)n1

$$$$
