
     RDKit          3D

 40 42  0  0  0  0  0  0  0  0999 V2000
    7.3276   -5.6170   23.9247 C   0  0  0  0  0  0  0  0  0  0  0  0
    7.3714   -4.4635   22.9297 C   0  0  0  0  0  0  0  0  0  0  0  0
    7.3407   -3.0907   23.6230 C   0  0  0  0  0  0  0  0  0  0  0  0
    6.1909   -3.0039   24.4981 O   0  0  0  0  0  0  0  0  0  0  0  0
    6.2598   -3.6750   25.2038 H   0  0  0  0  0  0  0  0  0  0  0  0
    7.4782   -2.0050   22.5543 C   0  0  0  0  0  0  0  0  0  0  0  0
    6.5470   -1.5955   21.7193 N   0  0  0  0  0  0  0  0  0  0  0  0
    7.2044   -0.7362   20.9096 N   0  0  0  0  0  0  0  0  0  0  0  0
    6.5987   -0.0119   19.8827 C   0  0  0  0  0  0  0  0  0  0  0  0
    5.3838    0.6402   20.1078 C   0  0  0  0  0  0  0  0  0  0  0  0
    4.8066    1.3184   19.0374 C   0  0  0  0  0  0  0  0  0  0  0  0
    5.4450    1.3425   17.7916 C   0  0  0  0  0  0  0  0  0  0  0  0
    6.6269    0.7321   17.5800 N   0  0  0  0  0  0  0  0  0  0  0  0
    7.1879    0.0734   18.6080 C   0  0  0  0  0  0  0  0  0  0  0  0
    8.1371   -0.4311   18.4370 H   0  0  0  0  0  0  0  0  0  0  0  0
    4.9769    1.8678   16.9661 H   0  0  0  0  0  0  0  0  0  0  0  0
    3.8615    1.8331   19.1570 H   0  0  0  0  0  0  0  0  0  0  0  0
    4.9156    0.6182   21.0945 H   0  0  0  0  0  0  0  0  0  0  0  0
    8.5292   -0.6591   21.3096 C   0  0  0  0  0  0  0  0  0  0  0  0
    9.6176    0.1678   20.7094 C   0  0  0  0  0  0  0  0  0  0  0  0
   10.4217    0.8978   21.7662 C   0  0  0  0  0  0  0  0  0  0  0  0
    9.9022    2.0373   22.4074 C   0  0  0  0  0  0  0  0  0  0  0  0
    8.2092    2.7604   21.8958 Br  0  0  0  0  0  0  0  0  0  0  0  0
   10.6092    2.6327   23.4590 C   0  0  0  0  0  0  0  0  0  0  0  0
   11.8377    2.1039   23.8606 C   0  0  0  0  0  0  0  0  0  0  0  0
   12.3936    1.0173   23.1844 C   0  0  0  0  0  0  0  0  0  0  0  0
   11.6810    0.4059   22.1517 C   0  0  0  0  0  0  0  0  0  0  0  0
   12.2017   -0.6921   21.5607 F   0  0  0  0  0  0  0  0  0  0  0  0
   13.3657    0.6237   23.4692 H   0  0  0  0  0  0  0  0  0  0  0  0
   12.3571    2.5296   24.7047 H   0  0  0  0  0  0  0  0  0  0  0  0
   10.1940    3.4977   23.9718 H   0  0  0  0  0  0  0  0  0  0  0  0
   10.2633   -0.5221   20.1635 H   0  0  0  0  0  0  0  0  0  0  0  0
    9.1824    0.8850   20.0135 H   0  0  0  0  0  0  0  0  0  0  0  0
    8.7291   -1.4468   22.3220 N   0  0  0  0  0  0  0  0  0  0  0  0
    8.2328   -3.0093   24.2489 H   0  0  0  0  0  0  0  0  0  0  0  0
    8.2966   -4.5427   22.3469 H   0  0  0  0  0  0  0  0  0  0  0  0
    6.5262   -4.5502   22.2380 H   0  0  0  0  0  0  0  0  0  0  0  0
    6.3962   -5.5885   24.5013 H   0  0  0  0  0  0  0  0  0  0  0  0
    7.3778   -6.5638   23.3799 H   0  0  0  0  0  0  0  0  0  0  0  0
    8.1757   -5.5595   24.6152 H   0  0  0  0  0  0  0  0  0  0  0  0
  1  2  1  0
  2  3  1  0
  3  4  1  0
  4  5  1  0
  3  6  1  0
  6  7  2  0
  7  8  1  0
  8  9  1  0
  9 10  2  0
 10 11  1  0
 11 12  2  0
 12 13  1  0
 13 14  2  0
 14 15  1  0
 12 16  1  0
 11 17  1  0
 10 18  1  0
  8 19  1  0
 19 20  1  0
 20 21  1  0
 21 22  2  0
 22 23  1  0
 22 24  1  0
 24 25  2  0
 25 26  1  0
 26 27  2  0
 27 28  1  0
 26 29  1  0
 25 30  1  0
 24 31  1  0
 20 32  1  0
 20 33  1  0
 19 34  2  0
  3 35  1  0
  2 36  1  0
  2 37  1  0
  1 38  1  0
  1 39  1  0
  1 40  1  0
 34  6  1  0
 14  9  1  0
 27 21  1  0
M  END
>  <cnnaffinity>  (1) 
-6.4151

>  <filename>  (1) 
CCC(O)c1nc(Cc2c(F)cccc2Br)n(-c2cccnc2)n1

$$$$
