
     RDKit          3D

 45 47  0  0  0  0  0  0  0  0999 V2000
    6.3449   -1.3151   25.3090 C   0  0  0  0  0  0  0  0  0  0  0  0
    6.0510   -2.7093   24.7395 C   0  0  0  0  0  0  0  0  0  0  0  0
    7.1775   -3.2019   23.7961 C   0  0  0  0  0  0  0  0  0  0  0  0
    6.9788   -4.6011   23.1708 C   0  0  0  0  0  0  0  0  0  0  0  0
    8.1984   -5.0153   22.3367 C   0  0  0  0  0  0  0  0  0  0  0  0
    8.1209   -6.0424   21.9713 H   0  0  0  0  0  0  0  0  0  0  0  0
    9.1201   -4.9264   22.9247 H   0  0  0  0  0  0  0  0  0  0  0  0
    8.3203   -4.3559   21.4688 H   0  0  0  0  0  0  0  0  0  0  0  0
    6.0797   -4.5955   22.5407 H   0  0  0  0  0  0  0  0  0  0  0  0
    6.8003   -5.3344   23.9683 H   0  0  0  0  0  0  0  0  0  0  0  0
    7.5258   -2.2023   22.7195 C   0  0  0  0  0  0  0  0  0  0  0  0
    6.6836   -1.7657   21.8064 N   0  0  0  0  0  0  0  0  0  0  0  0
    7.4346   -0.8590   21.1095 N   0  0  0  0  0  0  0  0  0  0  0  0
    6.8396   -0.1224   20.0389 C   0  0  0  0  0  0  0  0  0  0  0  0
    5.6517    0.5754   20.2816 C   0  0  0  0  0  0  0  0  0  0  0  0
    5.0509    1.2510   19.2181 C   0  0  0  0  0  0  0  0  0  0  0  0
    5.6475    1.2018   17.9528 C   0  0  0  0  0  0  0  0  0  0  0  0
    6.7862    0.5356   17.7056 N   0  0  0  0  0  0  0  0  0  0  0  0
    7.3710   -0.0998   18.7328 C   0  0  0  0  0  0  0  0  0  0  0  0
    8.2924   -0.6324   18.4958 H   0  0  0  0  0  0  0  0  0  0  0  0
    5.1911    1.7232   17.1136 H   0  0  0  0  0  0  0  0  0  0  0  0
    4.1263    1.7992   19.3610 H   0  0  0  0  0  0  0  0  0  0  0  0
    5.2137    0.5519   21.2816 H   0  0  0  0  0  0  0  0  0  0  0  0
    8.6717   -0.7961   21.6759 C   0  0  0  0  0  0  0  0  0  0  0  0
    9.6544    0.2979   21.4119 C   0  0  0  0  0  0  0  0  0  0  0  0
    9.1708    1.6114   21.9945 C   0  0  0  0  0  0  0  0  0  0  0  0
    8.4816    2.5546   21.2867 C   0  0  0  0  0  0  0  0  0  0  0  0
    8.0819    3.5044   22.1648 N   0  0  0  0  0  0  0  0  0  0  0  0
    8.4696    3.2308   23.4200 N   0  0  0  0  0  0  0  0  0  0  0  0
    9.1297    2.0812   23.3407 C   0  0  0  0  0  0  0  0  0  0  0  0
    9.7228    1.4702   24.5717 C   0  0  0  0  0  0  0  0  0  0  0  0
   10.7399    1.1252   24.3786 H   0  0  0  0  0  0  0  0  0  0  0  0
    9.7438    2.2001   25.3844 H   0  0  0  0  0  0  0  0  0  0  0  0
    9.1642    0.5938   24.9170 H   0  0  0  0  0  0  0  0  0  0  0  0
    7.5673    4.3516   21.9945 H   0  0  0  0  0  0  0  0  0  0  0  0
    8.2601    2.5559   20.2372 H   0  0  0  0  0  0  0  0  0  0  0  0
    9.8020    0.3738   20.3308 H   0  0  0  0  0  0  0  0  0  0  0  0
   10.6073   -0.0109   21.8481 H   0  0  0  0  0  0  0  0  0  0  0  0
    8.7746   -1.6787   22.6473 N   0  0  0  0  0  0  0  0  0  0  0  0
    8.0886   -3.2434   24.4060 H   0  0  0  0  0  0  0  0  0  0  0  0
    5.9431   -3.4254   25.5650 H   0  0  0  0  0  0  0  0  0  0  0  0
    5.0868   -2.7038   24.2164 H   0  0  0  0  0  0  0  0  0  0  0  0
    6.4387   -0.5753   24.5043 H   0  0  0  0  0  0  0  0  0  0  0  0
    7.2875   -1.3062   25.8716 H   0  0  0  0  0  0  0  0  0  0  0  0
    5.5609   -0.9651   25.9872 H   0  0  0  0  0  0  0  0  0  0  0  0
  1  2  1  0
  2  3  1  0
  3  4  1  0
  4  5  1  0
  5  6  1  0
  5  7  1  0
  5  8  1  0
  4  9  1  0
  4 10  1  0
  3 11  1  0
 11 12  2  0
 12 13  1  0
 13 14  1  0
 14 15  2  0
 15 16  1  0
 16 17  2  0
 17 18  1  0
 18 19  2  0
 19 20  1  0
 17 21  1  0
 16 22  1  0
 15 23  1  0
 13 24  1  0
 24 25  1  0
 25 26  1  0
 26 27  2  0
 27 28  1  0
 28 29  1  0
 29 30  2  0
 30 31  1  0
 31 32  1  0
 31 33  1  0
 31 34  1  0
 28 35  1  0
 27 36  1  0
 25 37  1  0
 25 38  1  0
 24 39  2  0
  3 40  1  0
  2 41  1  0
  2 42  1  0
  1 43  1  0
  1 44  1  0
  1 45  1  0
 39 11  1  0
 19 14  1  0
 30 26  1  0
M  END
>  <cnnaffinity>  (1) 
-5.89006

>  <filename>  (1) 
CCC(CC)c1nc(Cc2c[nH]nc2C)n(-c2cccnc2)n1

$$$$
