
     RDKit          3D

 43 46  0  0  0  0  0  0  0  0999 V2000
    7.4668   -4.2226   23.9820 C   0  0  0  0  0  0  0  0  0  0  0  0
    8.1581   -4.5219   22.6471 C   0  0  0  0  0  0  0  0  0  0  0  0
    9.1090   -3.4048   22.1809 C   0  0  0  0  0  0  0  0  0  0  0  0
   10.2294   -3.4631   23.0682 O   0  0  0  0  0  0  0  0  0  0  0  0
   10.9219   -2.8474   22.7934 H   0  0  0  0  0  0  0  0  0  0  0  0
    8.4118   -2.0830   21.9851 C   0  0  0  0  0  0  0  0  0  0  0  0
    7.8665   -1.8423   20.7989 N   0  0  0  0  0  0  0  0  0  0  0  0
    7.3806   -0.5908   20.9365 N   0  0  0  0  0  0  0  0  0  0  0  0
    6.6509    0.0373   19.8972 C   0  0  0  0  0  0  0  0  0  0  0  0
    5.4356    0.6720   20.1619 C   0  0  0  0  0  0  0  0  0  0  0  0
    4.8011    1.3151   19.0975 C   0  0  0  0  0  0  0  0  0  0  0  0
    5.3983    1.2935   17.8328 C   0  0  0  0  0  0  0  0  0  0  0  0
    6.5572    0.6617   17.5764 N   0  0  0  0  0  0  0  0  0  0  0  0
    7.1634    0.0375   18.5877 C   0  0  0  0  0  0  0  0  0  0  0  0
    8.1092   -0.4557   18.3726 H   0  0  0  0  0  0  0  0  0  0  0  0
    4.9333    1.7954   16.9883 H   0  0  0  0  0  0  0  0  0  0  0  0
    3.8679    1.8428   19.2437 H   0  0  0  0  0  0  0  0  0  0  0  0
    5.0131    0.6570   21.1710 H   0  0  0  0  0  0  0  0  0  0  0  0
    7.6670   -0.1527   22.1919 C   0  0  0  0  0  0  0  0  0  0  0  0
    7.3027    1.1508   22.7387 C   0  0  2  0  0  0  0  0  0  0  0  0
    7.4761    1.3733   24.2145 C   0  0  0  0  0  0  0  0  0  0  0  0
    6.0867    1.2509   23.6541 C   0  0  1  0  0  0  0  0  0  0  0  0
    5.1883    2.4207   23.5522 C   0  0  0  0  0  0  0  0  0  0  0  0
    5.6887    3.6992   23.2820 C   0  0  0  0  0  0  0  0  0  0  0  0
    4.8070    4.7735   23.2037 C   0  0  0  0  0  0  0  0  0  0  0  0
    3.4451    4.5172   23.3843 C   0  0  0  0  0  0  0  0  0  0  0  0
    3.0415    3.2023   23.6392 C   0  0  0  0  0  0  0  0  0  0  0  0
    3.8831    2.1756   23.7359 N   0  0  0  0  0  0  0  0  0  0  0  0
    1.9930    2.9484   23.7720 H   0  0  0  0  0  0  0  0  0  0  0  0
    2.7038    5.3016   23.3320 H   0  0  0  0  0  0  0  0  0  0  0  0
    5.1869    5.7765   23.0057 H   0  0  0  0  0  0  0  0  0  0  0  0
    6.7560    3.8213   23.1529 H   0  0  0  0  0  0  0  0  0  0  0  0
    5.5281    0.3339   23.8457 H   0  0  0  0  0  0  0  0  0  0  0  0
    7.8353    2.3406   24.5584 H   0  0  0  0  0  0  0  0  0  0  0  0
    7.8633    0.5269   24.7803 H   0  0  0  0  0  0  0  0  0  0  0  0
    7.4856    1.9708   22.0417 H   0  0  0  0  0  0  0  0  0  0  0  0
    8.3122   -1.0839   22.8724 N   0  0  0  0  0  0  0  0  0  0  0  0
    9.3731   -3.5632   21.1303 H   0  0  0  0  0  0  0  0  0  0  0  0
    7.4166   -4.6912   21.8563 H   0  0  0  0  0  0  0  0  0  0  0  0
    8.7591   -5.4381   22.7198 H   0  0  0  0  0  0  0  0  0  0  0  0
    8.2038   -4.0721   24.7791 H   0  0  0  0  0  0  0  0  0  0  0  0
    6.8715   -3.3036   23.9136 H   0  0  0  0  0  0  0  0  0  0  0  0
    6.8043   -5.0435   24.2759 H   0  0  0  0  0  0  0  0  0  0  0  0
  1  2  1  0
  2  3  1  0
  3  4  1  0
  4  5  1  0
  3  6  1  0
  6  7  2  0
  7  8  1  0
  8  9  1  0
  9 10  2  0
 10 11  1  0
 11 12  2  0
 12 13  1  0
 13 14  2  0
 14 15  1  0
 12 16  1  0
 11 17  1  0
 10 18  1  0
  8 19  1  0
 19 20  1  0
 20 21  1  0
 21 22  1  0
 22 23  1  0
 23 24  2  0
 24 25  1  0
 25 26  2  0
 26 27  1  0
 27 28  2  0
 27 29  1  0
 26 30  1  0
 25 31  1  0
 24 32  1  0
 22 33  1  1
 21 34  1  0
 21 35  1  0
 20 36  1  6
 19 37  2  0
  3 38  1  0
  2 39  1  0
  2 40  1  0
  1 41  1  0
  1 42  1  0
  1 43  1  0
 37  6  1  0
 14  9  1  0
 22 20  1  0
 28 23  1  0
M  END
>  <cnnaffinity>  (1) 
-5.88146

>  <filename>  (1) 
CCC(O)c1nc([C@@H]2C[C@H]2c2ccccn2)n(-c2cccnc2)n1

$$$$
