
     RDKit          3D

 40 42  0  0  0  0  0  0  0  0999 V2000
    7.1775   -4.4741   23.6487 C   0  0  0  0  0  0  0  0  0  0  0  0
    8.6435   -4.0543   23.6691 C   0  0  0  0  0  0  0  0  0  0  0  0
    9.1016   -3.2849   22.4295 C   0  0  0  0  0  0  0  0  0  0  0  0
   10.4946   -2.9912   22.5941 O   0  0  0  0  0  0  0  0  0  0  0  0
   10.5512   -2.3142   23.2904 H   0  0  0  0  0  0  0  0  0  0  0  0
    8.2684   -2.0580   22.0936 C   0  0  0  0  0  0  0  0  0  0  0  0
    7.8099   -1.8213   20.8767 N   0  0  0  0  0  0  0  0  0  0  0  0
    7.3006   -0.5664   20.9838 N   0  0  0  0  0  0  0  0  0  0  0  0
    6.6021    0.0388   19.9051 C   0  0  0  0  0  0  0  0  0  0  0  0
    5.3855    0.6931   20.1226 C   0  0  0  0  0  0  0  0  0  0  0  0
    4.7890    1.3357   19.0355 C   0  0  0  0  0  0  0  0  0  0  0  0
    5.4196    1.3034   17.7888 C   0  0  0  0  0  0  0  0  0  0  0  0
    6.5668    0.6384   17.5692 N   0  0  0  0  0  0  0  0  0  0  0  0
    7.1352    0.0113   18.6045 C   0  0  0  0  0  0  0  0  0  0  0  0
    8.0560   -0.5269   18.3966 H   0  0  0  0  0  0  0  0  0  0  0  0
    4.9882    1.8230   16.9342 H   0  0  0  0  0  0  0  0  0  0  0  0
    3.8576    1.8741   19.1534 H   0  0  0  0  0  0  0  0  0  0  0  0
    4.9233    0.6917   21.1115 H   0  0  0  0  0  0  0  0  0  0  0  0
    7.5504   -0.0864   22.2375 C   0  0  0  0  0  0  0  0  0  0  0  0
    7.6242    1.3782   22.5808 C   0  0  0  0  0  0  0  0  0  0  0  0
    8.7245    2.1632   21.7968 C   0  0  0  0  0  0  0  0  0  0  0  0
   10.1216    1.6630   22.0290 C   0  0  0  0  0  0  0  0  0  0  0  0
   10.7399    0.7624   21.3005 N   0  0  0  0  0  0  0  0  0  0  0  0
   11.9126    0.4815   21.9589 C   0  0  0  0  0  0  0  0  0  0  0  0
   12.0091    1.2306   23.0952 C   0  0  0  0  0  0  0  0  0  0  0  0
   10.8621    1.9920   23.1237 N   0  0  0  0  0  0  0  0  0  0  0  0
   10.5510    2.6042   23.8646 H   0  0  0  0  0  0  0  0  0  0  0  0
   12.7605    1.2674   23.8680 H   0  0  0  0  0  0  0  0  0  0  0  0
   12.5937   -0.2829   21.5929 H   0  0  0  0  0  0  0  0  0  0  0  0
    8.5377    2.1049   20.7206 H   0  0  0  0  0  0  0  0  0  0  0  0
    8.6726    3.2213   22.0759 H   0  0  0  0  0  0  0  0  0  0  0  0
    7.8266    1.4312   23.6556 H   0  0  0  0  0  0  0  0  0  0  0  0
    6.6574    1.8577   22.4100 H   0  0  0  0  0  0  0  0  0  0  0  0
    8.0605   -1.0489   22.9867 N   0  0  0  0  0  0  0  0  0  0  0  0
    8.9721   -3.9042   21.5385 H   0  0  0  0  0  0  0  0  0  0  0  0
    9.3050   -4.9275   23.7607 H   0  0  0  0  0  0  0  0  0  0  0  0
    8.8466   -3.4153   24.5393 H   0  0  0  0  0  0  0  0  0  0  0  0
    6.5330   -3.5940   23.5328 H   0  0  0  0  0  0  0  0  0  0  0  0
    6.9119   -4.9666   24.5914 H   0  0  0  0  0  0  0  0  0  0  0  0
    6.9634   -5.1690   22.8262 H   0  0  0  0  0  0  0  0  0  0  0  0
  1  2  1  0
  2  3  1  0
  3  4  1  0
  4  5  1  0
  3  6  1  0
  6  7  2  0
  7  8  1  0
  8  9  1  0
  9 10  2  0
 10 11  1  0
 11 12  2  0
 12 13  1  0
 13 14  2  0
 14 15  1  0
 12 16  1  0
 11 17  1  0
 10 18  1  0
  8 19  1  0
 19 20  1  0
 20 21  1  0
 21 22  1  0
 22 23  2  0
 23 24  1  0
 24 25  2  0
 25 26  1  0
 26 27  1  0
 25 28  1  0
 24 29  1  0
 21 30  1  0
 21 31  1  0
 20 32  1  0
 20 33  1  0
 19 34  2  0
  3 35  1  0
  2 36  1  0
  2 37  1  0
  1 38  1  0
  1 39  1  0
  1 40  1  0
 34  6  1  0
 14  9  1  0
 26 22  1  0
M  END
>  <cnnaffinity>  (1) 
-5.73589

>  <filename>  (1) 
CCC(O)c1nc(CCc2ncc[nH]2)n(-c2cccnc2)n1

$$$$
