
     RDKit          3D

 40 42  0  0  0  0  0  0  0  0999 V2000
    6.5113   -3.2713   26.0450 C   0  0  0  0  0  0  0  0  0  0  0  0
    6.6990   -2.3402   24.8508 C   0  0  0  0  0  0  0  0  0  0  0  0
    7.3271   -3.0461   23.6259 C   0  0  0  0  0  0  0  0  0  0  0  0
    6.5798   -4.2035   23.2616 O   0  0  0  0  0  0  0  0  0  0  0  0
    5.7540   -3.9028   22.8519 H   0  0  0  0  0  0  0  0  0  0  0  0
    7.5679   -2.0489   22.5095 C   0  0  0  0  0  0  0  0  0  0  0  0
    6.6414   -1.6459   21.6567 N   0  0  0  0  0  0  0  0  0  0  0  0
    7.2917   -0.7064   20.9229 N   0  0  0  0  0  0  0  0  0  0  0  0
    6.6244   -0.0184   19.8716 C   0  0  0  0  0  0  0  0  0  0  0  0
    5.4133    0.6302   20.1305 C   0  0  0  0  0  0  0  0  0  0  0  0
    4.7879    1.3168   19.0872 C   0  0  0  0  0  0  0  0  0  0  0  0
    5.3861    1.3045   17.8194 C   0  0  0  0  0  0  0  0  0  0  0  0
    6.5281    0.6526   17.5526 N   0  0  0  0  0  0  0  0  0  0  0  0
    7.1356    0.0174   18.5594 C   0  0  0  0  0  0  0  0  0  0  0  0
    8.0758   -0.4803   18.3185 H   0  0  0  0  0  0  0  0  0  0  0  0
    4.9309    1.8387   16.9901 H   0  0  0  0  0  0  0  0  0  0  0  0
    3.8640    1.8655   19.2449 H   0  0  0  0  0  0  0  0  0  0  0  0
    4.9950    0.5837   21.1360 H   0  0  0  0  0  0  0  0  0  0  0  0
    8.5688   -0.5804   21.3907 C   0  0  0  0  0  0  0  0  0  0  0  0
    9.6479    0.2890   20.8256 C   0  0  0  0  0  0  0  0  0  0  0  0
   10.3332    1.1435   21.8772 C   0  0  0  0  0  0  0  0  0  0  0  0
    9.7106    2.2514   22.4728 C   0  0  0  0  0  0  0  0  0  0  0  0
    8.1437    2.7608   21.9149 Cl  0  0  0  0  0  0  0  0  0  0  0  0
   10.2843    2.9543   23.5374 C   0  0  0  0  0  0  0  0  0  0  0  0
   11.5221    2.5427   24.0317 C   0  0  0  0  0  0  0  0  0  0  0  0
   12.1846    1.4516   23.4705 C   0  0  0  0  0  0  0  0  0  0  0  0
   11.5819    0.7906   22.4073 C   0  0  0  0  0  0  0  0  0  0  0  0
   12.2408   -0.2537   21.8756 F   0  0  0  0  0  0  0  0  0  0  0  0
   13.1356    1.0749   23.8311 H   0  0  0  0  0  0  0  0  0  0  0  0
   11.9591    3.0636   24.8715 H   0  0  0  0  0  0  0  0  0  0  0  0
    9.7474    3.7848   23.9829 H   0  0  0  0  0  0  0  0  0  0  0  0
   10.3801   -0.3839   20.3742 H   0  0  0  0  0  0  0  0  0  0  0  0
    9.2393    0.9198   20.0367 H   0  0  0  0  0  0  0  0  0  0  0  0
    8.7611   -1.4110   22.3958 N   0  0  0  0  0  0  0  0  0  0  0  0
    8.3289   -3.3971   23.8926 H   0  0  0  0  0  0  0  0  0  0  0  0
    7.3169   -1.4695   25.1174 H   0  0  0  0  0  0  0  0  0  0  0  0
    5.7267   -1.9375   24.5399 H   0  0  0  0  0  0  0  0  0  0  0  0
    6.0163   -2.7654   26.8796 H   0  0  0  0  0  0  0  0  0  0  0  0
    5.8949   -4.1271   25.7538 H   0  0  0  0  0  0  0  0  0  0  0  0
    7.4668   -3.6634   26.4108 H   0  0  0  0  0  0  0  0  0  0  0  0
  1  2  1  0
  2  3  1  0
  3  4  1  0
  4  5  1  0
  3  6  1  0
  6  7  2  0
  7  8  1  0
  8  9  1  0
  9 10  2  0
 10 11  1  0
 11 12  2  0
 12 13  1  0
 13 14  2  0
 14 15  1  0
 12 16  1  0
 11 17  1  0
 10 18  1  0
  8 19  1  0
 19 20  1  0
 20 21  1  0
 21 22  2  0
 22 23  1  0
 22 24  1  0
 24 25  2  0
 25 26  1  0
 26 27  2  0
 27 28  1  0
 26 29  1  0
 25 30  1  0
 24 31  1  0
 20 32  1  0
 20 33  1  0
 19 34  2  0
  3 35  1  0
  2 36  1  0
  2 37  1  0
  1 38  1  0
  1 39  1  0
  1 40  1  0
 34  6  1  0
 14  9  1  0
 27 21  1  0
M  END
>  <cnnaffinity>  (1) 
-6.17933

>  <filename>  (1) 
CCC(O)c1nc(Cc2c(F)cccc2Cl)n(-c2cccnc2)n1

$$$$
