
     RDKit          3D

 39 41  0  0  0  0  0  0  0  0999 V2000
    7.0591   -4.9637   21.7847 C   0  0  0  0  0  0  0  0  0  0  0  0
    7.8635   -4.4984   23.0051 C   0  0  0  0  0  0  0  0  0  0  0  0
    7.4364   -3.1265   23.5602 C   0  0  0  0  0  0  0  0  0  0  0  0
    6.1345   -3.2977   24.1138 O   0  0  0  0  0  0  0  0  0  0  0  0
    5.8086   -2.4461   24.4508 H   0  0  0  0  0  0  0  0  0  0  0  0
    7.5971   -2.0498   22.4980 C   0  0  0  0  0  0  0  0  0  0  0  0
    6.6570   -1.6157   21.6795 N   0  0  0  0  0  0  0  0  0  0  0  0
    7.3147   -0.6965   20.9268 N   0  0  0  0  0  0  0  0  0  0  0  0
    6.6442   -0.0074   19.8829 C   0  0  0  0  0  0  0  0  0  0  0  0
    5.4348    0.6370   20.1492 C   0  0  0  0  0  0  0  0  0  0  0  0
    4.8055    1.3147   19.1017 C   0  0  0  0  0  0  0  0  0  0  0  0
    5.3907    1.2988   17.8292 C   0  0  0  0  0  0  0  0  0  0  0  0
    6.5416    0.6619   17.5629 N   0  0  0  0  0  0  0  0  0  0  0  0
    7.1537    0.0347   18.5730 C   0  0  0  0  0  0  0  0  0  0  0  0
    8.1005   -0.4446   18.3342 H   0  0  0  0  0  0  0  0  0  0  0  0
    4.9278    1.8111   16.9895 H   0  0  0  0  0  0  0  0  0  0  0  0
    3.8744    1.8501   19.2527 H   0  0  0  0  0  0  0  0  0  0  0  0
    5.0223    0.5944   21.1585 H   0  0  0  0  0  0  0  0  0  0  0  0
    8.6002   -0.5980   21.3655 C   0  0  0  0  0  0  0  0  0  0  0  0
    9.6372    0.3126   20.7985 C   0  0  0  0  0  0  0  0  0  0  0  0
   10.3746    1.1143   21.8521 C   0  0  0  0  0  0  0  0  0  0  0  0
   11.6325    0.6996   22.3006 C   0  0  0  0  0  0  0  0  0  0  0  0
   12.2487    1.3651   23.3713 C   0  0  0  0  0  0  0  0  0  0  0  0
   11.5666    2.4295   23.9623 C   0  0  0  0  0  0  0  0  0  0  0  0
   10.3616    2.8422   23.5528 N   0  0  0  0  0  0  0  0  0  0  0  0
    9.7970    2.2073   22.5381 C   0  0  0  0  0  0  0  0  0  0  0  0
    8.1954    2.7547   22.1119 Cl  0  0  0  0  0  0  0  0  0  0  0  0
   11.9836    2.9943   24.8006 H   0  0  0  0  0  0  0  0  0  0  0  0
   13.2195    1.0646   23.7506 H   0  0  0  0  0  0  0  0  0  0  0  0
   12.0976   -0.1656   21.8193 H   0  0  0  0  0  0  0  0  0  0  0  0
    9.1780    0.9798   20.0671 H   0  0  0  0  0  0  0  0  0  0  0  0
   10.3346   -0.3551   20.2863 H   0  0  0  0  0  0  0  0  0  0  0  0
    8.8172   -1.4750   22.3255 N   0  0  0  0  0  0  0  0  0  0  0  0
    8.1616   -2.8378   24.3394 H   0  0  0  0  0  0  0  0  0  0  0  0
    8.9356   -4.4340   22.7683 H   0  0  0  0  0  0  0  0  0  0  0  0
    7.7621   -5.2108   23.8344 H   0  0  0  0  0  0  0  0  0  0  0  0
    5.9891   -5.0030   22.0236 H   0  0  0  0  0  0  0  0  0  0  0  0
    7.3817   -5.9633   21.4736 H   0  0  0  0  0  0  0  0  0  0  0  0
    7.1796   -4.2827   20.9318 H   0  0  0  0  0  0  0  0  0  0  0  0
  1  2  1  0
  2  3  1  0
  3  4  1  0
  4  5  1  0
  3  6  1  0
  6  7  2  0
  7  8  1  0
  8  9  1  0
  9 10  2  0
 10 11  1  0
 11 12  2  0
 12 13  1  0
 13 14  2  0
 14 15  1  0
 12 16  1  0
 11 17  1  0
 10 18  1  0
  8 19  1  0
 19 20  1  0
 20 21  1  0
 21 22  2  0
 22 23  1  0
 23 24  2  0
 24 25  1  0
 25 26  2  0
 26 27  1  0
 24 28  1  0
 23 29  1  0
 22 30  1  0
 20 31  1  0
 20 32  1  0
 19 33  2  0
  3 34  1  0
  2 35  1  0
  2 36  1  0
  1 37  1  0
  1 38  1  0
  1 39  1  0
 33  6  1  0
 14  9  1  0
 26 21  1  0
M  END
>  <cnnaffinity>  (1) 
-6.02157

>  <filename>  (1) 
CCC(O)c1nc(Cc2cccnc2Cl)n(-c2cccnc2)n1

$$$$
