
     RDKit          3D

 44 46  0  0  0  0  0  0  0  0999 V2000
    5.3510   -4.4558   25.3842 C   0  0  0  0  0  0  0  0  0  0  0  0
    6.2504   -3.3479   25.9322 C   0  0  0  0  0  0  0  0  0  0  0  0
    6.5483   -2.3248   24.8346 C   0  0  0  0  0  0  0  0  0  0  0  0
    7.2656   -1.1094   25.4328 C   0  0  0  0  0  0  0  0  0  0  0  0
    6.6517   -0.6571   26.2189 H   0  0  0  0  0  0  0  0  0  0  0  0
    7.4455   -0.3560   24.6594 H   0  0  0  0  0  0  0  0  0  0  0  0
    8.2271   -1.4020   25.8659 H   0  0  0  0  0  0  0  0  0  0  0  0
    7.4002   -2.9759   23.7311 C   0  0  0  0  0  0  0  0  0  0  0  0
    7.6067   -2.0278   22.5965 C   0  0  0  0  0  0  0  0  0  0  0  0
    6.7051   -1.7481   21.6847 N   0  0  0  0  0  0  0  0  0  0  0  0
    7.2985   -0.7664   20.9692 N   0  0  0  0  0  0  0  0  0  0  0  0
    6.6716   -0.0590   19.9368 C   0  0  0  0  0  0  0  0  0  0  0  0
    5.4496    0.5812   20.1575 C   0  0  0  0  0  0  0  0  0  0  0  0
    4.8633    1.2701   19.0958 C   0  0  0  0  0  0  0  0  0  0  0  0
    5.4919    1.2975   17.8461 C   0  0  0  0  0  0  0  0  0  0  0  0
    6.6678    0.6808   17.6285 N   0  0  0  0  0  0  0  0  0  0  0  0
    7.2425    0.0231   18.6542 C   0  0  0  0  0  0  0  0  0  0  0  0
    8.1914   -0.4733   18.4744 H   0  0  0  0  0  0  0  0  0  0  0  0
    5.0135    1.8282   17.0274 H   0  0  0  0  0  0  0  0  0  0  0  0
    3.9256    1.7962   19.2235 H   0  0  0  0  0  0  0  0  0  0  0  0
    4.9820    0.5558   21.1420 H   0  0  0  0  0  0  0  0  0  0  0  0
    8.5440   -0.5051   21.5327 C   0  0  0  0  0  0  0  0  0  0  0  0
    9.4711    0.6290   21.2217 C   0  0  0  0  0  0  0  0  0  0  0  0
    8.9985    1.8724   21.9516 C   0  0  0  0  0  0  0  0  0  0  0  0
    7.8236    2.5065   21.5505 C   0  0  0  0  0  0  0  0  0  0  0  0
    7.4157    3.6526   22.2324 C   0  0  0  0  0  0  0  0  0  0  0  0
    5.8758    4.6438   21.6839 Br  0  0  0  0  0  0  0  0  0  0  0  0
    8.1702    4.0989   23.3257 C   0  0  0  0  0  0  0  0  0  0  0  0
    9.2932    3.4868   23.7389 N   0  0  0  0  0  0  0  0  0  0  0  0
    9.7081    2.4110   23.0457 C   0  0  0  0  0  0  0  0  0  0  0  0
   10.6280    1.9251   23.3528 H   0  0  0  0  0  0  0  0  0  0  0  0
    7.8460    5.0080   23.8228 H   0  0  0  0  0  0  0  0  0  0  0  0
    7.2501    2.1036   20.7143 H   0  0  0  0  0  0  0  0  0  0  0  0
    9.4756    0.8086   20.1463 H   0  0  0  0  0  0  0  0  0  0  0  0
   10.4871    0.3548   21.5289 H   0  0  0  0  0  0  0  0  0  0  0  0
    8.7833   -1.3159   22.5154 N   0  0  0  0  0  0  0  0  0  0  0  0
    8.3747   -3.2574   24.1426 H   0  0  0  0  0  0  0  0  0  0  0  0
    6.9063   -3.8753   23.3580 H   0  0  0  0  0  0  0  0  0  0  0  0
    5.5968   -1.9899   24.4088 H   0  0  0  0  0  0  0  0  0  0  0  0
    5.7472   -2.8523   26.7691 H   0  0  0  0  0  0  0  0  0  0  0  0
    7.1859   -3.7776   26.3066 H   0  0  0  0  0  0  0  0  0  0  0  0
    4.4414   -4.0241   24.9535 H   0  0  0  0  0  0  0  0  0  0  0  0
    5.8731   -5.0190   24.6044 H   0  0  0  0  0  0  0  0  0  0  0  0
    5.0674   -5.1450   26.1844 H   0  0  0  0  0  0  0  0  0  0  0  0
  1  2  1  0
  2  3  1  0
  3  4  1  0
  4  5  1  0
  4  6  1  0
  4  7  1  0
  3  8  1  0
  8  9  1  0
  9 10  2  0
 10 11  1  0
 11 12  1  0
 12 13  2  0
 13 14  1  0
 14 15  2  0
 15 16  1  0
 16 17  2  0
 17 18  1  0
 15 19  1  0
 14 20  1  0
 13 21  1  0
 11 22  1  0
 22 23  1  0
 23 24  1  0
 24 25  2  0
 25 26  1  0
 26 27  1  0
 26 28  2  0
 28 29  1  0
 29 30  2  0
 30 31  1  0
 28 32  1  0
 25 33  1  0
 23 34  1  0
 23 35  1  0
 22 36  2  0
  8 37  1  0
  8 38  1  0
  3 39  1  0
  2 40  1  0
  2 41  1  0
  1 42  1  0
  1 43  1  0
  1 44  1  0
 36  9  1  0
 17 12  1  0
 30 24  1  0
M  END
>  <cnnaffinity>  (1) 
-6.21587

>  <filename>  (1) 
CCC(C)Cc1nc(Cc2cncc(Br)c2)n(-c2cccnc2)n1

$$$$
