
     RDKit          3D

 47 49  0  0  0  0  0  0  0  0999 V2000
    7.2261   -4.3106   23.8913 C   0  0  0  0  0  0  0  0  0  0  0  0
    7.9389   -4.5928   22.5723 C   0  0  0  0  0  0  0  0  0  0  0  0
    8.9297   -3.4933   22.1609 C   0  0  0  0  0  0  0  0  0  0  0  0
   10.0193   -3.6029   23.0789 O   0  0  0  0  0  0  0  0  0  0  0  0
   10.7235   -2.9749   22.8532 H   0  0  0  0  0  0  0  0  0  0  0  0
    8.2865   -2.1278   22.0111 C   0  0  0  0  0  0  0  0  0  0  0  0
    7.8343   -1.8012   20.8107 N   0  0  0  0  0  0  0  0  0  0  0  0
    7.3232   -0.5634   20.9910 N   0  0  0  0  0  0  0  0  0  0  0  0
    6.6397    0.0875   19.9329 C   0  0  0  0  0  0  0  0  0  0  0  0
    5.4084    0.7135   20.1488 C   0  0  0  0  0  0  0  0  0  0  0  0
    4.7850    1.3330   19.0642 C   0  0  0  0  0  0  0  0  0  0  0  0
    5.4092    1.2941   17.8146 C   0  0  0  0  0  0  0  0  0  0  0  0
    6.5677    0.6437   17.5927 N   0  0  0  0  0  0  0  0  0  0  0  0
    7.1619    0.0447   18.6287 C   0  0  0  0  0  0  0  0  0  0  0  0
    8.0832   -0.4992   18.4207 H   0  0  0  0  0  0  0  0  0  0  0  0
    4.9683    1.8032   16.9608 H   0  0  0  0  0  0  0  0  0  0  0  0
    3.8444    1.8581   19.1877 H   0  0  0  0  0  0  0  0  0  0  0  0
    4.9310    0.6752   21.1277 H   0  0  0  0  0  0  0  0  0  0  0  0
    7.5638   -0.1752   22.2784 C   0  0  0  0  0  0  0  0  0  0  0  0
    7.2521    1.1602   22.8628 C   0  0  0  0  0  0  0  0  0  0  0  0
    8.2782    1.4760   23.7900 O   0  0  0  0  0  0  0  0  0  0  0  0
    8.0615    2.6223   24.5124 C   0  0  0  0  0  0  0  0  0  0  0  0
    8.5062    3.8444   23.9682 C   0  0  0  0  0  0  0  0  0  0  0  0
    9.1539    3.9029   22.5994 C   0  0  0  0  0  0  0  0  0  0  0  0
    9.7048    2.9781   22.4010 H   0  0  0  0  0  0  0  0  0  0  0  0
    8.4242    4.0304   21.7860 H   0  0  0  0  0  0  0  0  0  0  0  0
    9.8615    4.7337   22.5331 H   0  0  0  0  0  0  0  0  0  0  0  0
    8.3379    4.9945   24.7486 C   0  0  0  0  0  0  0  0  0  0  0  0
    7.7443    4.9262   26.0115 C   0  0  0  0  0  0  0  0  0  0  0  0
    7.3186    3.6969   26.5237 C   0  0  0  0  0  0  0  0  0  0  0  0
    7.4579    2.5143   25.7842 C   0  0  0  0  0  0  0  0  0  0  0  0
    6.9893    1.1765   26.3292 C   0  0  0  0  0  0  0  0  0  0  0  0
    7.7196    0.3917   26.1076 H   0  0  0  0  0  0  0  0  0  0  0  0
    6.8605    1.2135   27.4147 H   0  0  0  0  0  0  0  0  0  0  0  0
    6.0274    0.8537   25.9046 H   0  0  0  0  0  0  0  0  0  0  0  0
    6.8829    3.6466   27.5188 H   0  0  0  0  0  0  0  0  0  0  0  0
    7.6372    5.8262   26.6060 H   0  0  0  0  0  0  0  0  0  0  0  0
    8.6961    5.9448   24.3604 H   0  0  0  0  0  0  0  0  0  0  0  0
    7.1904    1.9291   22.0817 H   0  0  0  0  0  0  0  0  0  0  0  0
    6.2721    1.1277   23.3646 H   0  0  0  0  0  0  0  0  0  0  0  0
    8.1503   -1.1620   22.9410 N   0  0  0  0  0  0  0  0  0  0  0  0
    9.2111   -3.6775   21.1183 H   0  0  0  0  0  0  0  0  0  0  0  0
    8.5312   -5.5118   22.6434 H   0  0  0  0  0  0  0  0  0  0  0  0
    7.2115   -4.7583   21.7694 H   0  0  0  0  0  0  0  0  0  0  0  0
    6.6612   -3.3707   23.8421 H   0  0  0  0  0  0  0  0  0  0  0  0
    6.5356   -5.1254   24.1259 H   0  0  0  0  0  0  0  0  0  0  0  0
    7.9504   -4.2264   24.7081 H   0  0  0  0  0  0  0  0  0  0  0  0
  1  2  1  0
  2  3  1  0
  3  4  1  0
  4  5  1  0
  3  6  1  0
  6  7  2  0
  7  8  1  0
  8  9  1  0
  9 10  2  0
 10 11  1  0
 11 12  2  0
 12 13  1  0
 13 14  2  0
 14 15  1  0
 12 16  1  0
 11 17  1  0
 10 18  1  0
  8 19  1  0
 19 20  1  0
 20 21  1  0
 21 22  1  0
 22 23  2  0
 23 24  1  0
 24 25  1  0
 24 26  1  0
 24 27  1  0
 23 28  1  0
 28 29  2  0
 29 30  1  0
 30 31  2  0
 31 32  1  0
 32 33  1  0
 32 34  1  0
 32 35  1  0
 30 36  1  0
 29 37  1  0
 28 38  1  0
 20 39  1  0
 20 40  1  0
 19 41  2  0
  3 42  1  0
  2 43  1  0
  2 44  1  0
  1 45  1  0
  1 46  1  0
  1 47  1  0
 41  6  1  0
 14  9  1  0
 31 22  1  0
M  END
>  <cnnaffinity>  (1) 
-5.72433

>  <filename>  (1) 
CCC(O)c1nc(COc2c(C)cccc2C)n(-c2cccnc2)n1

$$$$
