
     RDKit          3D

 45 47  0  0  0  0  0  0  0  0999 V2000
    7.3940   -3.7038   24.7749 C   0  0  0  0  0  0  0  0  0  0  0  0
    7.5955   -4.3153   23.3890 C   0  0  0  0  0  0  0  0  0  0  0  0
    8.6321   -3.5448   22.5287 C   0  0  0  0  0  0  0  0  0  0  0  0
    9.9849   -3.3977   23.2579 C   0  0  0  0  0  0  0  0  0  0  0  0
   10.8003   -3.1605   22.5698 H   0  0  0  0  0  0  0  0  0  0  0  0
    9.9332   -2.5973   24.0051 H   0  0  0  0  0  0  0  0  0  0  0  0
   10.2472   -4.3191   23.7872 H   0  0  0  0  0  0  0  0  0  0  0  0
    8.1065   -2.1964   22.1064 C   0  0  0  0  0  0  0  0  0  0  0  0
    7.6971   -1.9157   20.8819 N   0  0  0  0  0  0  0  0  0  0  0  0
    7.3232   -0.6092   20.9772 N   0  0  0  0  0  0  0  0  0  0  0  0
    6.6252    0.0270   19.9099 C   0  0  0  0  0  0  0  0  0  0  0  0
    5.4244    0.7120   20.1373 C   0  0  0  0  0  0  0  0  0  0  0  0
    4.8197    1.3379   19.0439 C   0  0  0  0  0  0  0  0  0  0  0  0
    5.4357    1.2736   17.7913 C   0  0  0  0  0  0  0  0  0  0  0  0
    6.5779    0.6006   17.5680 N   0  0  0  0  0  0  0  0  0  0  0  0
    7.1426   -0.0271   18.6056 C   0  0  0  0  0  0  0  0  0  0  0  0
    8.0478   -0.5969   18.3948 H   0  0  0  0  0  0  0  0  0  0  0  0
    4.9952    1.7719   16.9315 H   0  0  0  0  0  0  0  0  0  0  0  0
    3.8858    1.8786   19.1576 H   0  0  0  0  0  0  0  0  0  0  0  0
    4.9813    0.7574   21.1331 H   0  0  0  0  0  0  0  0  0  0  0  0
    7.6563   -0.1405   22.2174 C   0  0  0  0  0  0  0  0  0  0  0  0
    8.0537    1.3006   22.4867 C   0  0  0  0  0  0  0  0  0  0  0  0
    6.9586    2.1732   22.2827 O   0  0  0  0  0  0  0  0  0  0  0  0
    7.2560    3.0815   22.4485 H   0  0  0  0  0  0  0  0  0  0  0  0
    9.2160    1.7454   21.5545 C   0  0  0  0  0  0  0  0  0  0  0  0
   10.5027    0.9783   21.7465 C   0  0  0  0  0  0  0  0  0  0  0  0
   10.7075   -0.2861   21.1620 C   0  0  0  0  0  0  0  0  0  0  0  0
   11.8983   -0.9695   21.3963 C   0  0  0  0  0  0  0  0  0  0  0  0
   12.8608   -0.3588   22.2072 C   0  0  0  0  0  0  0  0  0  0  0  0
   12.5776    0.8957   22.7430 C   0  0  0  0  0  0  0  0  0  0  0  0
   11.4280    1.5536   22.5315 N   0  0  0  0  0  0  0  0  0  0  0  0
   13.3041    1.3879   23.3919 H   0  0  0  0  0  0  0  0  0  0  0  0
   13.8178   -0.8288   22.3968 H   0  0  0  0  0  0  0  0  0  0  0  0
   12.0652   -1.9535   20.9489 H   0  0  0  0  0  0  0  0  0  0  0  0
    9.9355   -0.7180   20.5346 H   0  0  0  0  0  0  0  0  0  0  0  0
    9.4026    2.8054   21.7603 H   0  0  0  0  0  0  0  0  0  0  0  0
    8.8534    1.6556   20.5229 H   0  0  0  0  0  0  0  0  0  0  0  0
    8.3754    1.3155   23.5400 H   0  0  0  0  0  0  0  0  0  0  0  0
    8.0503   -1.1544   22.9738 N   0  0  0  0  0  0  0  0  0  0  0  0
    8.7571   -4.0976   21.5969 H   0  0  0  0  0  0  0  0  0  0  0  0
    7.9287   -5.3586   23.4902 H   0  0  0  0  0  0  0  0  0  0  0  0
    6.6435   -4.3573   22.8416 H   0  0  0  0  0  0  0  0  0  0  0  0
    8.3306   -3.7174   25.3456 H   0  0  0  0  0  0  0  0  0  0  0  0
    7.0845   -2.6581   24.6869 H   0  0  0  0  0  0  0  0  0  0  0  0
    6.6461   -4.2578   25.3484 H   0  0  0  0  0  0  0  0  0  0  0  0
  1  2  1  0
  2  3  1  0
  3  4  1  0
  4  5  1  0
  4  6  1  0
  4  7  1  0
  3  8  1  0
  8  9  2  0
  9 10  1  0
 10 11  1  0
 11 12  2  0
 12 13  1  0
 13 14  2  0
 14 15  1  0
 15 16  2  0
 16 17  1  0
 14 18  1  0
 13 19  1  0
 12 20  1  0
 10 21  1  0
 21 22  1  0
 22 23  1  0
 23 24  1  0
 22 25  1  0
 25 26  1  0
 26 27  2  0
 27 28  1  0
 28 29  2  0
 29 30  1  0
 30 31  2  0
 30 32  1  0
 29 33  1  0
 28 34  1  0
 27 35  1  0
 25 36  1  0
 25 37  1  0
 22 38  1  0
 21 39  2  0
  3 40  1  0
  2 41  1  0
  2 42  1  0
  1 43  1  0
  1 44  1  0
  1 45  1  0
 39  8  1  0
 16 11  1  0
 31 26  1  0
M  END
>  <cnnaffinity>  (1) 
-6.09326

>  <filename>  (1) 
CCC(C)c1nc(C(O)Cc2ccccn2)n(-c2cccnc2)n1

$$$$
