
     RDKit          3D

 41 43  0  0  0  0  0  0  0  0999 V2000
    8.7907   -5.4530   24.0014 C   0  0  0  0  0  0  0  0  0  0  0  0
    8.2054   -4.0724   23.6813 C   0  0  0  0  0  0  0  0  0  0  0  0
    8.9747   -3.3607   22.5479 C   0  0  0  0  0  0  0  0  0  0  0  0
   10.3463   -3.2043   22.9334 O   0  0  0  0  0  0  0  0  0  0  0  0
   10.4006   -2.4351   23.5274 H   0  0  0  0  0  0  0  0  0  0  0  0
    8.3215   -2.0653   22.0920 C   0  0  0  0  0  0  0  0  0  0  0  0
    7.7976   -1.8551   20.8967 N   0  0  0  0  0  0  0  0  0  0  0  0
    7.3241   -0.5817   20.9895 N   0  0  0  0  0  0  0  0  0  0  0  0
    6.6201    0.0336   19.9111 C   0  0  0  0  0  0  0  0  0  0  0  0
    5.4081    0.7042   20.1243 C   0  0  0  0  0  0  0  0  0  0  0  0
    4.8112    1.3455   19.0345 C   0  0  0  0  0  0  0  0  0  0  0  0
    5.4365    1.3076   17.7868 C   0  0  0  0  0  0  0  0  0  0  0  0
    6.5789    0.6339   17.5677 N   0  0  0  0  0  0  0  0  0  0  0  0
    7.1416    0.0004   18.6032 C   0  0  0  0  0  0  0  0  0  0  0  0
    8.0482   -0.5565   18.3857 H   0  0  0  0  0  0  0  0  0  0  0  0
    5.0003    1.8280   16.9345 H   0  0  0  0  0  0  0  0  0  0  0  0
    3.8752    1.8781   19.1487 H   0  0  0  0  0  0  0  0  0  0  0  0
    4.9300    0.7093   21.1052 H   0  0  0  0  0  0  0  0  0  0  0  0
    7.6432   -0.0796   22.2211 C   0  0  0  0  0  0  0  0  0  0  0  0
    7.5820    1.3508   22.6258 C   0  0  0  0  0  0  0  0  0  0  0  0
    8.5794    2.2386   21.8585 C   0  0  0  0  0  0  0  0  0  0  0  0
    8.5075    3.6070   22.3355 N   0  0  0  0  0  0  0  0  0  0  0  0
    7.5468    4.5016   21.9461 C   0  0  0  0  0  0  0  0  0  0  0  0
    7.7877    5.6968   22.5752 C   0  0  0  0  0  0  0  0  0  0  0  0
    8.9253    5.5164   23.4023 C   0  0  0  0  0  0  0  0  0  0  0  0
    9.3325    4.2172   23.2442 C   0  0  0  0  0  0  0  0  0  0  0  0
   10.1642    3.6864   23.6859 H   0  0  0  0  0  0  0  0  0  0  0  0
    9.4203    6.2702   24.0041 H   0  0  0  0  0  0  0  0  0  0  0  0
    7.2179    6.6043   22.4307 H   0  0  0  0  0  0  0  0  0  0  0  0
    6.7595    4.2086   21.2618 H   0  0  0  0  0  0  0  0  0  0  0  0
    9.6050    1.8815   22.0035 H   0  0  0  0  0  0  0  0  0  0  0  0
    8.3823    2.2335   20.7765 H   0  0  0  0  0  0  0  0  0  0  0  0
    6.5744    1.7501   22.4875 H   0  0  0  0  0  0  0  0  0  0  0  0
    7.8119    1.4000   23.6954 H   0  0  0  0  0  0  0  0  0  0  0  0
    8.2431   -1.0011   22.9380 N   0  0  0  0  0  0  0  0  0  0  0  0
    8.9327   -4.0166   21.6722 H   0  0  0  0  0  0  0  0  0  0  0  0
    7.1495   -4.1862   23.3885 H   0  0  0  0  0  0  0  0  0  0  0  0
    8.2414   -3.4336   24.5762 H   0  0  0  0  0  0  0  0  0  0  0  0
    8.1566   -5.9746   24.7254 H   0  0  0  0  0  0  0  0  0  0  0  0
    8.8475   -6.0721   23.0950 H   0  0  0  0  0  0  0  0  0  0  0  0
    9.8000   -5.3751   24.4264 H   0  0  0  0  0  0  0  0  0  0  0  0
  1  2  1  0
  2  3  1  0
  3  4  1  0
  4  5  1  0
  3  6  1  0
  6  7  2  0
  7  8  1  0
  8  9  1  0
  9 10  2  0
 10 11  1  0
 11 12  2  0
 12 13  1  0
 13 14  2  0
 14 15  1  0
 12 16  1  0
 11 17  1  0
 10 18  1  0
  8 19  1  0
 19 20  1  0
 20 21  1  0
 21 22  1  0
 22 23  1  0
 23 24  2  0
 24 25  1  0
 25 26  2  0
 26 27  1  0
 25 28  1  0
 24 29  1  0
 23 30  1  0
 21 31  1  0
 21 32  1  0
 20 33  1  0
 20 34  1  0
 19 35  2  0
  3 36  1  0
  2 37  1  0
  2 38  1  0
  1 39  1  0
  1 40  1  0
  1 41  1  0
 35  6  1  0
 14  9  1  0
 26 22  1  0
M  END
>  <cnnaffinity>  (1) 
-5.67574

>  <filename>  (1) 
CCC(O)c1nc(CCn2cccc2)n(-c2cccnc2)n1

$$$$
