
     RDKit          3D

 41 43  0  0  0  0  0  0  0  0999 V2000
    8.5262   -5.8287   23.2600 C   0  0  0  0  0  0  0  0  0  0  0  0
    8.0050   -4.4010   23.0529 C   0  0  0  0  0  0  0  0  0  0  0  0
    8.9597   -3.4845   22.2461 C   0  0  0  0  0  0  0  0  0  0  0  0
   10.2506   -3.3907   22.8546 O   0  0  0  0  0  0  0  0  0  0  0  0
   10.7629   -4.1800   22.6144 H   0  0  0  0  0  0  0  0  0  0  0  0
    8.3755   -2.1128   21.9937 C   0  0  0  0  0  0  0  0  0  0  0  0
    7.8508   -1.8421   20.8098 N   0  0  0  0  0  0  0  0  0  0  0  0
    7.3366   -0.6052   20.9649 N   0  0  0  0  0  0  0  0  0  0  0  0
    6.6323    0.0265   19.9117 C   0  0  0  0  0  0  0  0  0  0  0  0
    5.4178    0.6713   20.1600 C   0  0  0  0  0  0  0  0  0  0  0  0
    4.7908    1.3176   19.0900 C   0  0  0  0  0  0  0  0  0  0  0  0
    5.4025    1.2899   17.8332 C   0  0  0  0  0  0  0  0  0  0  0  0
    6.5579    0.6446   17.5896 N   0  0  0  0  0  0  0  0  0  0  0  0
    7.1539    0.0185   18.6079 C   0  0  0  0  0  0  0  0  0  0  0  0
    8.0942   -0.4854   18.3927 H   0  0  0  0  0  0  0  0  0  0  0  0
    4.9564    1.8072   16.9862 H   0  0  0  0  0  0  0  0  0  0  0  0
    3.8563    1.8523   19.2267 H   0  0  0  0  0  0  0  0  0  0  0  0
    5.0005    0.6660   21.1642 H   0  0  0  0  0  0  0  0  0  0  0  0
    7.6186   -0.1784   22.2254 C   0  0  0  0  0  0  0  0  0  0  0  0
    7.2905    1.1634   22.7590 C   0  0  0  0  0  0  0  0  0  0  0  0
    6.0269    1.0471   23.3986 O   0  0  0  0  0  0  0  0  0  0  0  0
    5.5323    2.1115   24.0721 C   0  0  0  0  0  0  0  0  0  0  0  0
    6.1134    3.3882   24.1005 C   0  0  0  0  0  0  0  0  0  0  0  0
    5.4662    4.4443   24.7593 C   0  0  0  0  0  0  0  0  0  0  0  0
    4.2513    4.2037   25.3851 C   0  0  0  0  0  0  0  0  0  0  0  0
    3.6189    5.2088   26.0120 F   0  0  0  0  0  0  0  0  0  0  0  0
    3.6633    2.9361   25.3948 C   0  0  0  0  0  0  0  0  0  0  0  0
    4.3204    1.8971   24.7602 C   0  0  0  0  0  0  0  0  0  0  0  0
    3.7836    0.6667   24.8156 F   0  0  0  0  0  0  0  0  0  0  0  0
    2.7175    2.7470   25.8836 H   0  0  0  0  0  0  0  0  0  0  0  0
    5.8832    5.4470   24.7873 H   0  0  0  0  0  0  0  0  0  0  0  0
    7.0714    3.5408   23.6031 H   0  0  0  0  0  0  0  0  0  0  0  0
    7.2554    1.9245   21.9644 H   0  0  0  0  0  0  0  0  0  0  0  0
    8.0706    1.4064   23.4908 H   0  0  0  0  0  0  0  0  0  0  0  0
    8.2443   -1.1163   22.9042 N   0  0  0  0  0  0  0  0  0  0  0  0
    9.0103   -3.8846   21.2256 H   0  0  0  0  0  0  0  0  0  0  0  0
    7.0397   -4.4186   22.5253 H   0  0  0  0  0  0  0  0  0  0  0  0
    7.8290   -3.9282   24.0259 H   0  0  0  0  0  0  0  0  0  0  0  0
    9.3994   -5.8377   23.9250 H   0  0  0  0  0  0  0  0  0  0  0  0
    8.8120   -6.3168   22.3192 H   0  0  0  0  0  0  0  0  0  0  0  0
    7.7592   -6.4542   23.7246 H   0  0  0  0  0  0  0  0  0  0  0  0
  1  2  1  0
  2  3  1  0
  3  4  1  0
  4  5  1  0
  3  6  1  0
  6  7  2  0
  7  8  1  0
  8  9  1  0
  9 10  2  0
 10 11  1  0
 11 12  2  0
 12 13  1  0
 13 14  2  0
 14 15  1  0
 12 16  1  0
 11 17  1  0
 10 18  1  0
  8 19  1  0
 19 20  1  0
 20 21  1  0
 21 22  1  0
 22 23  2  0
 23 24  1  0
 24 25  2  0
 25 26  1  0
 25 27  1  0
 27 28  2  0
 28 29  1  0
 27 30  1  0
 24 31  1  0
 23 32  1  0
 20 33  1  0
 20 34  1  0
 19 35  2  0
  3 36  1  0
  2 37  1  0
  2 38  1  0
  1 39  1  0
  1 40  1  0
  1 41  1  0
 35  6  1  0
 14  9  1  0
 28 22  1  0
M  END
>  <cnnaffinity>  (1) 
-5.86888

>  <filename>  (1) 
CCC(O)c1nc(COc2ccc(F)cc2F)n(-c2cccnc2)n1

$$$$
