
     RDKit          3D

 44 46  0  0  0  0  0  0  0  0999 V2000
   10.8278    2.2967   24.5710 C   0  0  0  0  0  0  0  0  0  0  0  0
   10.4311    1.2586   23.5179 C   0  0  0  0  0  0  0  0  0  0  0  0
   10.5812   -0.1752   24.0587 C   0  0  0  0  0  0  0  0  0  0  0  0
    9.5773   -0.4502   25.1888 C   0  0  0  0  0  0  0  0  0  0  0  0
    9.6682   -1.4830   25.5408 H   0  0  0  0  0  0  0  0  0  0  0  0
    8.5476   -0.2856   24.8550 H   0  0  0  0  0  0  0  0  0  0  0  0
    9.7790    0.2171   26.0336 H   0  0  0  0  0  0  0  0  0  0  0  0
   10.4541   -1.2083   22.9145 C   0  0  0  0  0  0  0  0  0  0  0  0
    9.1253   -1.1778   22.2116 C   0  0  0  0  0  0  0  0  0  0  0  0
    8.7618   -0.1953   21.4246 N   0  0  0  0  0  0  0  0  0  0  0  0
    7.5055   -0.5451   21.0622 N   0  0  0  0  0  0  0  0  0  0  0  0
    6.8047    0.0799   20.0264 C   0  0  0  0  0  0  0  0  0  0  0  0
    5.5085    0.5805   20.2079 C   0  0  0  0  0  0  0  0  0  0  0  0
    4.8865    1.1832   19.1112 C   0  0  0  0  0  0  0  0  0  0  0  0
    5.5354    1.2303   17.8713 C   0  0  0  0  0  0  0  0  0  0  0  0
    6.7763    0.7382   17.6913 N   0  0  0  0  0  0  0  0  0  0  0  0
    7.3999    0.2036   18.7595 C   0  0  0  0  0  0  0  0  0  0  0  0
    8.4087   -0.1822   18.6349 H   0  0  0  0  0  0  0  0  0  0  0  0
    5.0282    1.6837   17.0247 H   0  0  0  0  0  0  0  0  0  0  0  0
    3.9021    1.6318   19.2024 H   0  0  0  0  0  0  0  0  0  0  0  0
    5.0140    0.5324   21.1767 H   0  0  0  0  0  0  0  0  0  0  0  0
    7.1981   -1.7924   21.5989 C   0  0  0  0  0  0  0  0  0  0  0  0
    5.9416   -2.5719   21.2552 C   0  0  0  0  0  0  0  0  0  0  0  0
    5.7841   -3.9577   21.8834 C   0  0  0  0  0  0  0  0  0  0  0  0
    5.7583   -4.1118   23.2684 C   0  0  0  0  0  0  0  0  0  0  0  0
    5.5114   -5.3893   23.7865 C   0  0  0  0  0  0  0  0  0  0  0  0
    5.3200   -6.4761   22.9246 C   0  0  0  0  0  0  0  0  0  0  0  0
    5.3821   -6.3403   21.5941 N   0  0  0  0  0  0  0  0  0  0  0  0
    5.6120   -5.1146   21.1000 C   0  0  0  0  0  0  0  0  0  0  0  0
    5.6634   -4.9378   19.2336 Br  0  0  0  0  0  0  0  0  0  0  0  0
    5.1248   -7.4615   23.3434 H   0  0  0  0  0  0  0  0  0  0  0  0
    5.4474   -5.5514   24.8572 H   0  0  0  0  0  0  0  0  0  0  0  0
    5.9168   -3.2519   23.9158 H   0  0  0  0  0  0  0  0  0  0  0  0
    5.9373   -2.6712   20.1659 H   0  0  0  0  0  0  0  0  0  0  0  0
    5.0750   -1.9701   21.5312 H   0  0  0  0  0  0  0  0  0  0  0  0
    8.1964   -2.2040   22.3304 N   0  0  0  0  0  0  0  0  0  0  0  0
   11.2497   -1.0305   22.1841 H   0  0  0  0  0  0  0  0  0  0  0  0
   10.5993   -2.2120   23.3178 H   0  0  0  0  0  0  0  0  0  0  0  0
   11.5856   -0.2733   24.4832 H   0  0  0  0  0  0  0  0  0  0  0  0
   11.0765    1.3827   22.6432 H   0  0  0  0  0  0  0  0  0  0  0  0
    9.3987    1.4358   23.1972 H   0  0  0  0  0  0  0  0  0  0  0  0
   10.1865    2.2120   25.4546 H   0  0  0  0  0  0  0  0  0  0  0  0
   10.7300    3.3078   24.1625 H   0  0  0  0  0  0  0  0  0  0  0  0
   11.8685    2.1489   24.8766 H   0  0  0  0  0  0  0  0  0  0  0  0
  1  2  1  0
  2  3  1  0
  3  4  1  0
  4  5  1  0
  4  6  1  0
  4  7  1  0
  3  8  1  0
  8  9  1  0
  9 10  2  0
 10 11  1  0
 11 12  1  0
 12 13  2  0
 13 14  1  0
 14 15  2  0
 15 16  1  0
 16 17  2  0
 17 18  1  0
 15 19  1  0
 14 20  1  0
 13 21  1  0
 11 22  1  0
 22 23  1  0
 23 24  1  0
 24 25  2  0
 25 26  1  0
 26 27  2  0
 27 28  1  0
 28 29  2  0
 29 30  1  0
 27 31  1  0
 26 32  1  0
 25 33  1  0
 23 34  1  0
 23 35  1  0
 22 36  2  0
  8 37  1  0
  8 38  1  0
  3 39  1  0
  2 40  1  0
  2 41  1  0
  1 42  1  0
  1 43  1  0
  1 44  1  0
 36  9  1  0
 17 12  1  0
 29 24  1  0
M  END
>  <cnnaffinity>  (1) 
-6.09066

>  <filename>  (1) 
CCC(C)Cc1nc(Cc2cccnc2Br)n(-c2cccnc2)n1

$$$$
