
     RDKit          3D

 45 47  0  0  0  0  0  0  0  0999 V2000
    7.9223   -5.0507   22.0797 C   0  0  0  0  0  0  0  0  0  0  0  0
    6.9036   -4.3872   23.0024 C   0  0  0  0  0  0  0  0  0  0  0  0
    7.4099   -3.0563   23.5934 C   0  0  0  0  0  0  0  0  0  0  0  0
    6.4437   -2.5047   24.6600 C   0  0  0  0  0  0  0  0  0  0  0  0
    6.3041   -3.2266   25.4720 H   0  0  0  0  0  0  0  0  0  0  0  0
    5.4644   -2.3005   24.2168 H   0  0  0  0  0  0  0  0  0  0  0  0
    6.8200   -1.5714   25.0925 H   0  0  0  0  0  0  0  0  0  0  0  0
    7.6693   -2.0394   22.5104 C   0  0  0  0  0  0  0  0  0  0  0  0
    6.7178   -1.6244   21.6901 N   0  0  0  0  0  0  0  0  0  0  0  0
    7.3490   -0.6938   20.9295 N   0  0  0  0  0  0  0  0  0  0  0  0
    6.6513   -0.0038   19.9005 C   0  0  0  0  0  0  0  0  0  0  0  0
    5.4396    0.6418   20.1670 C   0  0  0  0  0  0  0  0  0  0  0  0
    4.8127    1.3109   19.1096 C   0  0  0  0  0  0  0  0  0  0  0  0
    5.3990    1.2958   17.8381 C   0  0  0  0  0  0  0  0  0  0  0  0
    6.5570    0.6707   17.5745 N   0  0  0  0  0  0  0  0  0  0  0  0
    7.1644    0.0473   18.5915 C   0  0  0  0  0  0  0  0  0  0  0  0
    8.1128   -0.4362   18.3656 H   0  0  0  0  0  0  0  0  0  0  0  0
    4.9191    1.7873   16.9948 H   0  0  0  0  0  0  0  0  0  0  0  0
    3.8796    1.8403   19.2603 H   0  0  0  0  0  0  0  0  0  0  0  0
    5.0118    0.6102   21.1720 H   0  0  0  0  0  0  0  0  0  0  0  0
    8.6259   -0.5603   21.3816 C   0  0  0  0  0  0  0  0  0  0  0  0
    9.6074    0.4331   20.8800 C   0  0  0  0  0  0  0  0  0  0  0  0
    9.9992    1.3560   21.9158 N   0  0  0  0  0  0  0  0  0  0  0  0
   11.1529    1.1566   22.5777 N   0  0  0  0  0  0  0  0  0  0  0  0
   11.1247    2.0366   23.5576 C   0  0  0  0  0  0  0  0  0  0  0  0
   12.1755    2.1863   24.5717 C   0  0  0  0  0  0  0  0  0  0  0  0
   13.1664    1.8961   24.2227 H   0  0  0  0  0  0  0  0  0  0  0  0
   12.1253    3.2403   24.8401 H   0  0  0  0  0  0  0  0  0  0  0  0
   11.9122    1.5909   25.4426 H   0  0  0  0  0  0  0  0  0  0  0  0
    9.9509    2.8108   23.5427 C   0  0  0  0  0  0  0  0  0  0  0  0
    9.2338    2.3307   22.4809 C   0  0  0  0  0  0  0  0  0  0  0  0
    7.8614    2.7089   22.0500 C   0  0  0  0  0  0  0  0  0  0  0  0
    7.7854    2.7719   20.9669 H   0  0  0  0  0  0  0  0  0  0  0  0
    7.1282    1.9726   22.3916 H   0  0  0  0  0  0  0  0  0  0  0  0
    7.6032    3.6735   22.4886 H   0  0  0  0  0  0  0  0  0  0  0  0
    9.6688    3.6120   24.2153 H   0  0  0  0  0  0  0  0  0  0  0  0
    9.2069    1.0081   20.0502 H   0  0  0  0  0  0  0  0  0  0  0  0
   10.4989   -0.1090   20.5787 H   0  0  0  0  0  0  0  0  0  0  0  0
    8.8690   -1.4309   22.3392 N   0  0  0  0  0  0  0  0  0  0  0  0
    8.3852   -3.2206   24.0650 H   0  0  0  0  0  0  0  0  0  0  0  0
    6.6475   -5.0637   23.8280 H   0  0  0  0  0  0  0  0  0  0  0  0
    5.9727   -4.1878   22.4551 H   0  0  0  0  0  0  0  0  0  0  0  0
    8.8601   -5.2445   22.6134 H   0  0  0  0  0  0  0  0  0  0  0  0
    8.1568   -4.4159   21.2166 H   0  0  0  0  0  0  0  0  0  0  0  0
    7.5486   -6.0091   21.7065 H   0  0  0  0  0  0  0  0  0  0  0  0
  1  2  1  0
  2  3  1  0
  3  4  1  0
  4  5  1  0
  4  6  1  0
  4  7  1  0
  3  8  1  0
  8  9  2  0
  9 10  1  0
 10 11  1  0
 11 12  2  0
 12 13  1  0
 13 14  2  0
 14 15  1  0
 15 16  2  0
 16 17  1  0
 14 18  1  0
 13 19  1  0
 12 20  1  0
 10 21  1  0
 21 22  1  0
 22 23  1  0
 23 24  1  0
 24 25  2  0
 25 26  1  0
 26 27  1  0
 26 28  1  0
 26 29  1  0
 25 30  1  0
 30 31  2  0
 31 32  1  0
 32 33  1  0
 32 34  1  0
 32 35  1  0
 30 36  1  0
 22 37  1  0
 22 38  1  0
 21 39  2  0
  3 40  1  0
  2 41  1  0
  2 42  1  0
  1 43  1  0
  1 44  1  0
  1 45  1  0
 39  8  1  0
 16 11  1  0
 31 23  1  0
M  END
>  <cnnaffinity>  (1) 
-6.00147

>  <filename>  (1) 
CCC(C)c1nc(Cn2nc(C)cc2C)n(-c2cccnc2)n1

$$$$
