
     RDKit          3D

 45 47  0  0  0  0  0  0  0  0999 V2000
    7.8884   -5.0353   22.0998 C   0  0  0  0  0  0  0  0  0  0  0  0
    6.8711   -4.3719   23.0291 C   0  0  0  0  0  0  0  0  0  0  0  0
    7.4306   -3.0581   23.5962 C   0  0  0  0  0  0  0  0  0  0  0  0
    6.4676   -2.5096   24.6607 C   0  0  0  0  0  0  0  0  0  0  0  0
    5.4836   -2.3117   24.2226 H   0  0  0  0  0  0  0  0  0  0  0  0
    6.8533   -1.5766   25.0874 H   0  0  0  0  0  0  0  0  0  0  0  0
    6.3439   -3.2350   25.4701 H   0  0  0  0  0  0  0  0  0  0  0  0
    7.6230   -2.0374   22.5096 C   0  0  0  0  0  0  0  0  0  0  0  0
    6.6812   -1.6560   21.6767 N   0  0  0  0  0  0  0  0  0  0  0  0
    7.2864   -0.7041   20.9430 N   0  0  0  0  0  0  0  0  0  0  0  0
    6.6549   -0.0010   19.9110 C   0  0  0  0  0  0  0  0  0  0  0  0
    5.4381    0.6343   20.1506 C   0  0  0  0  0  0  0  0  0  0  0  0
    4.8232    1.2944   19.0902 C   0  0  0  0  0  0  0  0  0  0  0  0
    5.4215    1.3009   17.8282 C   0  0  0  0  0  0  0  0  0  0  0  0
    6.5931    0.6823   17.5867 N   0  0  0  0  0  0  0  0  0  0  0  0
    7.1927    0.0500   18.6145 C   0  0  0  0  0  0  0  0  0  0  0  0
    8.1390   -0.4492   18.4285 H   0  0  0  0  0  0  0  0  0  0  0  0
    4.9168    1.8272   17.0246 H   0  0  0  0  0  0  0  0  0  0  0  0
    3.8861    1.8174   19.2329 H   0  0  0  0  0  0  0  0  0  0  0  0
    4.9966    0.6216   21.1457 H   0  0  0  0  0  0  0  0  0  0  0  0
    8.5926   -0.5777   21.3775 C   0  0  0  0  0  0  0  0  0  0  0  0
    9.5857    0.3721   20.8397 C   0  0  0  0  0  0  0  0  0  0  0  0
    9.9659    1.2675   21.9113 N   0  0  0  0  0  0  0  0  0  0  0  0
   11.1423    1.0989   22.5589 N   0  0  0  0  0  0  0  0  0  0  0  0
   11.0904    1.9927   23.5050 C   0  0  0  0  0  0  0  0  0  0  0  0
   12.0987    2.2249   24.5353 C   0  0  0  0  0  0  0  0  0  0  0  0
   13.0711    1.8109   24.2422 H   0  0  0  0  0  0  0  0  0  0  0  0
   12.1611    3.3103   24.6520 H   0  0  0  0  0  0  0  0  0  0  0  0
   11.7341    1.7624   25.4575 H   0  0  0  0  0  0  0  0  0  0  0  0
    9.8754    2.7460   23.5000 C   0  0  0  0  0  0  0  0  0  0  0  0
    9.3972    4.1394   24.7079 Br  0  0  0  0  0  0  0  0  0  0  0  0
    9.1635    2.2545   22.4695 C   0  0  0  0  0  0  0  0  0  0  0  0
    7.8015    2.6936   22.0524 C   0  0  0  0  0  0  0  0  0  0  0  0
    7.0590    1.9929   22.4391 H   0  0  0  0  0  0  0  0  0  0  0  0
    7.5765    3.6916   22.4406 H   0  0  0  0  0  0  0  0  0  0  0  0
    7.7470    2.7121   20.9650 H   0  0  0  0  0  0  0  0  0  0  0  0
    9.1854    0.9359   19.9977 H   0  0  0  0  0  0  0  0  0  0  0  0
   10.4643   -0.2018   20.5435 H   0  0  0  0  0  0  0  0  0  0  0  0
    8.8395   -1.4023   22.3507 N   0  0  0  0  0  0  0  0  0  0  0  0
    8.4104   -3.2437   24.0530 H   0  0  0  0  0  0  0  0  0  0  0  0
    6.6369   -5.0501   23.8565 H   0  0  0  0  0  0  0  0  0  0  0  0
    5.9416   -4.1742   22.4807 H   0  0  0  0  0  0  0  0  0  0  0  0
    8.8200   -5.2336   22.6401 H   0  0  0  0  0  0  0  0  0  0  0  0
    8.1059   -4.3834   21.2471 H   0  0  0  0  0  0  0  0  0  0  0  0
    7.4948   -5.9846   21.7231 H   0  0  0  0  0  0  0  0  0  0  0  0
  1  2  1  0
  2  3  1  0
  3  4  1  0
  4  5  1  0
  4  6  1  0
  4  7  1  0
  3  8  1  0
  8  9  2  0
  9 10  1  0
 10 11  1  0
 11 12  2  0
 12 13  1  0
 13 14  2  0
 14 15  1  0
 15 16  2  0
 16 17  1  0
 14 18  1  0
 13 19  1  0
 12 20  1  0
 10 21  1  0
 21 22  1  0
 22 23  1  0
 23 24  1  0
 24 25  2  0
 25 26  1  0
 26 27  1  0
 26 28  1  0
 26 29  1  0
 25 30  1  0
 30 31  1  0
 30 32  2  0
 32 33  1  0
 33 34  1  0
 33 35  1  0
 33 36  1  0
 22 37  1  0
 22 38  1  0
 21 39  2  0
  3 40  1  0
  2 41  1  0
  2 42  1  0
  1 43  1  0
  1 44  1  0
  1 45  1  0
 39  8  1  0
 16 11  1  0
 32 23  1  0
M  END
>  <cnnaffinity>  (1) 
-6.24405

>  <filename>  (1) 
CCC(C)c1nc(Cn2nc(C)c(Br)c2C)n(-c2cccnc2)n1

$$$$
