
     RDKit          3D

 42 44  0  0  0  0  0  0  0  0999 V2000
    5.8348   -1.3541   25.0294 C   0  0  0  0  0  0  0  0  0  0  0  0
    7.1435   -2.1372   25.0523 C   0  0  0  0  0  0  0  0  0  0  0  0
    7.4282   -2.8929   23.7298 C   0  0  0  0  0  0  0  0  0  0  0  0
    8.6047   -3.8677   23.8924 C   0  0  0  0  0  0  0  0  0  0  0  0
    8.8198   -4.3906   22.9561 H   0  0  0  0  0  0  0  0  0  0  0  0
    9.5162   -3.3372   24.1899 H   0  0  0  0  0  0  0  0  0  0  0  0
    8.3794   -4.6158   24.6592 H   0  0  0  0  0  0  0  0  0  0  0  0
    7.6579   -1.9341   22.5950 C   0  0  0  0  0  0  0  0  0  0  0  0
    6.7224   -1.5826   21.7319 N   0  0  0  0  0  0  0  0  0  0  0  0
    7.3607   -0.6757   20.9408 N   0  0  0  0  0  0  0  0  0  0  0  0
    6.6585    0.0027   19.9015 C   0  0  0  0  0  0  0  0  0  0  0  0
    5.4424    0.6403   20.1624 C   0  0  0  0  0  0  0  0  0  0  0  0
    4.8114    1.3091   19.1067 C   0  0  0  0  0  0  0  0  0  0  0  0
    5.3985    1.2958   17.8364 C   0  0  0  0  0  0  0  0  0  0  0  0
    6.5547    0.6682   17.5739 N   0  0  0  0  0  0  0  0  0  0  0  0
    7.1639    0.0485   18.5908 C   0  0  0  0  0  0  0  0  0  0  0  0
    8.1073   -0.4416   18.3577 H   0  0  0  0  0  0  0  0  0  0  0  0
    4.9249    1.7909   16.9901 H   0  0  0  0  0  0  0  0  0  0  0  0
    3.8802    1.8392   19.2592 H   0  0  0  0  0  0  0  0  0  0  0  0
    5.0188    0.6076   21.1691 H   0  0  0  0  0  0  0  0  0  0  0  0
    8.6254   -0.5043   21.4112 C   0  0  0  0  0  0  0  0  0  0  0  0
    9.5332    0.5541   20.8956 C   0  0  0  0  0  0  0  0  0  0  0  0
    8.8881    2.2525   21.1530 S   0  0  0  0  0  0  0  0  0  0  0  0
    8.9021    2.2449   22.9344 C   0  0  0  0  0  0  0  0  0  0  0  0
    7.7895    1.8388   23.6838 C   0  0  0  0  0  0  0  0  0  0  0  0
    7.9152    1.7527   25.0717 C   0  0  0  0  0  0  0  0  0  0  0  0
    9.0606    1.9823   25.7307 N   0  0  0  0  0  0  0  0  0  0  0  0
   10.1296    2.2839   24.9906 C   0  0  0  0  0  0  0  0  0  0  0  0
   10.0952    2.4826   23.6180 C   0  0  0  0  0  0  0  0  0  0  0  0
   11.0038    2.7651   23.1041 H   0  0  0  0  0  0  0  0  0  0  0  0
   11.0888    2.3242   25.4927 H   0  0  0  0  0  0  0  0  0  0  0  0
    7.0724    1.4480   25.6924 H   0  0  0  0  0  0  0  0  0  0  0  0
    6.8733    1.5446   23.1850 H   0  0  0  0  0  0  0  0  0  0  0  0
    9.6509    0.4603   19.8195 H   0  0  0  0  0  0  0  0  0  0  0  0
   10.5042    0.4560   21.3857 H   0  0  0  0  0  0  0  0  0  0  0  0
    8.8544   -1.3068   22.4279 N   0  0  0  0  0  0  0  0  0  0  0  0
    6.5298   -3.4517   23.4459 H   0  0  0  0  0  0  0  0  0  0  0  0
    7.9907   -1.4691   25.2644 H   0  0  0  0  0  0  0  0  0  0  0  0
    7.1245   -2.8677   25.8709 H   0  0  0  0  0  0  0  0  0  0  0  0
    4.9895   -2.0234   24.8290 H   0  0  0  0  0  0  0  0  0  0  0  0
    5.6343   -0.8650   25.9875 H   0  0  0  0  0  0  0  0  0  0  0  0
    5.8403   -0.5801   24.2523 H   0  0  0  0  0  0  0  0  0  0  0  0
  1  2  1  0
  2  3  1  0
  3  4  1  0
  4  5  1  0
  4  6  1  0
  4  7  1  0
  3  8  1  0
  8  9  2  0
  9 10  1  0
 10 11  1  0
 11 12  2  0
 12 13  1  0
 13 14  2  0
 14 15  1  0
 15 16  2  0
 16 17  1  0
 14 18  1  0
 13 19  1  0
 12 20  1  0
 10 21  1  0
 21 22  1  0
 22 23  1  0
 23 24  1  0
 24 25  2  0
 25 26  1  0
 26 27  2  0
 27 28  1  0
 28 29  2  0
 29 30  1  0
 28 31  1  0
 26 32  1  0
 25 33  1  0
 22 34  1  0
 22 35  1  0
 21 36  2  0
  3 37  1  0
  2 38  1  0
  2 39  1  0
  1 40  1  0
  1 41  1  0
  1 42  1  0
 36  8  1  0
 16 11  1  0
 29 24  1  0
M  END
>  <cnnaffinity>  (1) 
-6.01763

>  <filename>  (1) 
CCC(C)c1nc(CSc2ccncc2)n(-c2cccnc2)n1

$$$$
