
     RDKit          3D

 49 51  0  0  0  0  0  0  0  0999 V2000
    7.7299   -1.3661   25.7189 C   0  0  0  0  0  0  0  0  0  0  0  0
    7.9839   -2.6981   25.0165 C   0  0  0  0  0  0  0  0  0  0  0  0
    7.0847   -2.9499   23.7899 C   0  0  0  0  0  0  0  0  0  0  0  0
    7.2255   -4.4089   23.2728 C   0  0  0  0  0  0  0  0  0  0  0  0
    8.6511   -4.7486   22.8434 C   0  0  0  0  0  0  0  0  0  0  0  0
    8.7043   -5.6977   22.3044 H   0  0  0  0  0  0  0  0  0  0  0  0
    9.0721   -3.9618   22.2074 H   0  0  0  0  0  0  0  0  0  0  0  0
    9.2978   -4.8377   23.7230 H   0  0  0  0  0  0  0  0  0  0  0  0
    6.9278   -5.0954   24.0777 H   0  0  0  0  0  0  0  0  0  0  0  0
    6.5123   -4.5582   22.4528 H   0  0  0  0  0  0  0  0  0  0  0  0
    7.3699   -1.9517   22.6880 C   0  0  0  0  0  0  0  0  0  0  0  0
    6.4920   -1.6404   21.7551 N   0  0  0  0  0  0  0  0  0  0  0  0
    7.1935   -0.8047   20.9333 N   0  0  0  0  0  0  0  0  0  0  0  0
    6.5299   -0.1273   19.8709 C   0  0  0  0  0  0  0  0  0  0  0  0
    5.3387    0.5671   20.1161 C   0  0  0  0  0  0  0  0  0  0  0  0
    4.7777    1.3046   19.0731 C   0  0  0  0  0  0  0  0  0  0  0  0
    5.4055    1.3024   17.8201 C   0  0  0  0  0  0  0  0  0  0  0  0
    6.5236    0.6029   17.5633 N   0  0  0  0  0  0  0  0  0  0  0  0
    7.0626   -0.0937   18.5708 C   0  0  0  0  0  0  0  0  0  0  0  0
    7.9728   -0.6487   18.3469 H   0  0  0  0  0  0  0  0  0  0  0  0
    4.9892    1.8695   16.9910 H   0  0  0  0  0  0  0  0  0  0  0  0
    3.8717    1.8854   19.2209 H   0  0  0  0  0  0  0  0  0  0  0  0
    4.8885    0.5203   21.1091 H   0  0  0  0  0  0  0  0  0  0  0  0
    8.4584   -0.6446   21.4306 C   0  0  0  0  0  0  0  0  0  0  0  0
    9.5705    0.1741   20.8008 C   0  0  0  0  0  0  0  0  0  0  0  0
   10.5642    0.8024   21.7823 C   0  0  0  0  0  0  0  0  0  0  0  0
   10.2612    1.9873   22.4690 C   0  0  0  0  0  0  0  0  0  0  0  0
    8.9545    2.6936   22.2421 C   0  0  0  0  0  0  0  0  0  0  0  0
    8.8163    3.4854   22.9791 H   0  0  0  0  0  0  0  0  0  0  0  0
    8.9112    3.1362   21.2414 H   0  0  0  0  0  0  0  0  0  0  0  0
    8.1169    1.9916   22.3198 H   0  0  0  0  0  0  0  0  0  0  0  0
   11.0870    2.5326   23.3669 N   0  0  0  0  0  0  0  0  0  0  0  0
   12.1950    1.8499   23.6360 C   0  0  0  0  0  0  0  0  0  0  0  0
   12.5616    0.6910   23.0982 N   0  0  0  0  0  0  0  0  0  0  0  0
   11.7423    0.1585   22.1858 C   0  0  0  0  0  0  0  0  0  0  0  0
   12.1257   -1.1922   21.6471 C   0  0  0  0  0  0  0  0  0  0  0  0
   11.4618   -1.9540   22.0772 H   0  0  0  0  0  0  0  0  0  0  0  0
   12.0168   -1.2327   20.5595 H   0  0  0  0  0  0  0  0  0  0  0  0
   13.1618   -1.4220   21.9153 H   0  0  0  0  0  0  0  0  0  0  0  0
   12.8583    2.2664   24.3899 H   0  0  0  0  0  0  0  0  0  0  0  0
    9.1210    0.9559   20.1786 H   0  0  0  0  0  0  0  0  0  0  0  0
   10.0854   -0.5128   20.1179 H   0  0  0  0  0  0  0  0  0  0  0  0
    8.5917   -1.3700   22.5217 N   0  0  0  0  0  0  0  0  0  0  0  0
    6.0324   -2.8086   24.0716 H   0  0  0  0  0  0  0  0  0  0  0  0
    7.8567   -3.5319   25.7190 H   0  0  0  0  0  0  0  0  0  0  0  0
    9.0322   -2.7277   24.6900 H   0  0  0  0  0  0  0  0  0  0  0  0
    6.6880   -1.2683   26.0441 H   0  0  0  0  0  0  0  0  0  0  0  0
    7.9532   -0.5246   25.0531 H   0  0  0  0  0  0  0  0  0  0  0  0
    8.3675   -1.2711   26.6034 H   0  0  0  0  0  0  0  0  0  0  0  0
  1  2  1  0
  2  3  1  0
  3  4  1  0
  4  5  1  0
  5  6  1  0
  5  7  1  0
  5  8  1  0
  4  9  1  0
  4 10  1  0
  3 11  1  0
 11 12  2  0
 12 13  1  0
 13 14  1  0
 14 15  2  0
 15 16  1  0
 16 17  2  0
 17 18  1  0
 18 19  2  0
 19 20  1  0
 17 21  1  0
 16 22  1  0
 15 23  1  0
 13 24  1  0
 24 25  1  0
 25 26  1  0
 26 27  2  0
 27 28  1  0
 28 29  1  0
 28 30  1  0
 28 31  1  0
 27 32  1  0
 32 33  2  0
 33 34  1  0
 34 35  2  0
 35 36  1  0
 36 37  1  0
 36 38  1  0
 36 39  1  0
 33 40  1  0
 25 41  1  0
 25 42  1  0
 24 43  2  0
  3 44  1  0
  2 45  1  0
  2 46  1  0
  1 47  1  0
  1 48  1  0
  1 49  1  0
 43 11  1  0
 19 14  1  0
 35 26  1  0
M  END
>  <cnnaffinity>  (1) 
-6.41298

>  <filename>  (1) 
CCC(CC)c1nc(Cc2c(C)ncnc2C)n(-c2cccnc2)n1

$$$$
