
     RDKit          3D

 48 50  0  0  0  0  0  0  0  0999 V2000
    8.8862   -6.1969   24.6415 C   0  0  0  0  0  0  0  0  0  0  0  0
    7.8749   -5.0539   24.5888 C   0  0  0  0  0  0  0  0  0  0  0  0
    7.8859   -4.1835   23.3263 C   0  0  0  0  0  0  0  0  0  0  0  0
    7.2690   -4.8538   22.0891 C   0  0  0  0  0  0  0  0  0  0  0  0
    7.3163   -4.2001   21.2102 H   0  0  0  0  0  0  0  0  0  0  0  0
    6.2069   -5.0985   22.2380 H   0  0  0  0  0  0  0  0  0  0  0  0
    7.7926   -5.7812   21.8325 H   0  0  0  0  0  0  0  0  0  0  0  0
    7.1870   -2.8388   23.6338 C   0  0  0  0  0  0  0  0  0  0  0  0
    7.4004   -1.8577   22.5439 C   0  0  0  0  0  0  0  0  0  0  0  0
    6.5052   -1.5454   21.6311 N   0  0  0  0  0  0  0  0  0  0  0  0
    7.1869   -0.7041   20.8105 N   0  0  0  0  0  0  0  0  0  0  0  0
    6.5164   -0.0268   19.7530 C   0  0  0  0  0  0  0  0  0  0  0  0
    5.3221    0.6586   20.0074 C   0  0  0  0  0  0  0  0  0  0  0  0
    4.7411    1.3869   18.9664 C   0  0  0  0  0  0  0  0  0  0  0  0
    5.3559    1.3748   17.7072 C   0  0  0  0  0  0  0  0  0  0  0  0
    6.4756    0.6823   17.4431 N   0  0  0  0  0  0  0  0  0  0  0  0
    7.0351   -0.0058   18.4460 C   0  0  0  0  0  0  0  0  0  0  0  0
    7.9414   -0.5637   18.2063 H   0  0  0  0  0  0  0  0  0  0  0  0
    4.9312    1.9353   16.8773 H   0  0  0  0  0  0  0  0  0  0  0  0
    3.8330    1.9642   19.1193 H   0  0  0  0  0  0  0  0  0  0  0  0
    4.8890    0.6151   21.0080 H   0  0  0  0  0  0  0  0  0  0  0  0
    8.4508   -0.5509   21.3002 C   0  0  0  0  0  0  0  0  0  0  0  0
    9.5458    0.2104   20.6471 C   0  0  0  0  0  0  0  0  0  0  0  0
   10.3921    0.8735   21.6167 N   0  0  0  0  0  0  0  0  0  0  0  0
   11.6042    0.3721   21.8409 N   0  0  0  0  0  0  0  0  0  0  0  0
   12.0854    1.0262   22.8830 C   0  0  0  0  0  0  0  0  0  0  0  0
   13.4837    0.7192   23.3610 C   0  0  0  0  0  0  0  0  0  0  0  0
   14.3112    1.7179   23.0084 F   0  0  0  0  0  0  0  0  0  0  0  0
   13.9771   -0.4124   22.8473 F   0  0  0  0  0  0  0  0  0  0  0  0
   13.5298    0.6069   24.7037 F   0  0  0  0  0  0  0  0  0  0  0  0
   11.1556    1.9917   23.3453 C   0  0  0  0  0  0  0  0  0  0  0  0
   10.0803    1.8704   22.4936 C   0  0  0  0  0  0  0  0  0  0  0  0
    8.8211    2.6712   22.4320 C   0  0  0  0  0  0  0  0  0  0  0  0
    8.7223    3.2018   21.4774 H   0  0  0  0  0  0  0  0  0  0  0  0
    8.8287    3.4163   23.2304 H   0  0  0  0  0  0  0  0  0  0  0  0
    7.9329    2.0435   22.5617 H   0  0  0  0  0  0  0  0  0  0  0  0
   11.2098    2.7034   24.1595 H   0  0  0  0  0  0  0  0  0  0  0  0
    9.1794    0.9453   19.9367 H   0  0  0  0  0  0  0  0  0  0  0  0
   10.1891   -0.5134   20.1449 H   0  0  0  0  0  0  0  0  0  0  0  0
    8.6166   -1.2821   22.3769 N   0  0  0  0  0  0  0  0  0  0  0  0
    6.1133   -2.9698   23.7936 H   0  0  0  0  0  0  0  0  0  0  0  0
    7.6148   -2.4133   24.5489 H   0  0  0  0  0  0  0  0  0  0  0  0
    8.9415   -3.9554   23.0990 H   0  0  0  0  0  0  0  0  0  0  0  0
    6.8601   -5.4419   24.7417 H   0  0  0  0  0  0  0  0  0  0  0  0
    8.0721   -4.4065   25.4553 H   0  0  0  0  0  0  0  0  0  0  0  0
    8.8789   -6.8296   23.7483 H   0  0  0  0  0  0  0  0  0  0  0  0
    9.9041   -5.8169   24.7598 H   0  0  0  0  0  0  0  0  0  0  0  0
    8.6730   -6.8272   25.5105 H   0  0  0  0  0  0  0  0  0  0  0  0
  1  2  1  0
  2  3  1  0
  3  4  1  0
  4  5  1  0
  4  6  1  0
  4  7  1  0
  3  8  1  0
  8  9  1  0
  9 10  2  0
 10 11  1  0
 11 12  1  0
 12 13  2  0
 13 14  1  0
 14 15  2  0
 15 16  1  0
 16 17  2  0
 17 18  1  0
 15 19  1  0
 14 20  1  0
 13 21  1  0
 11 22  1  0
 22 23  1  0
 23 24  1  0
 24 25  1  0
 25 26  2  0
 26 27  1  0
 27 28  1  0
 27 29  1  0
 27 30  1  0
 26 31  1  0
 31 32  2  0
 32 33  1  0
 33 34  1  0
 33 35  1  0
 33 36  1  0
 31 37  1  0
 23 38  1  0
 23 39  1  0
 22 40  2  0
  8 41  1  0
  8 42  1  0
  3 43  1  0
  2 44  1  0
  2 45  1  0
  1 46  1  0
  1 47  1  0
  1 48  1  0
 40  9  1  0
 17 12  1  0
 32 24  1  0
M  END
>  <cnnaffinity>  (1) 
-6.69404

>  <filename>  (1) 
CCC(C)Cc1nc(Cn2nc(C(F)(F)F)cc2C)n(-c2cccnc2)n1

$$$$
