
     RDKit          3D

 37 39  0  0  0  0  0  0  0  0999 V2000
    8.3968   -5.9205   23.0834 C   0  0  0  0  0  0  0  0  0  0  0  0
    7.8386   -4.5072   22.9051 C   0  0  0  0  0  0  0  0  0  0  0  0
    8.8220   -3.5458   22.2164 C   0  0  0  0  0  0  0  0  0  0  0  0
   10.0068   -3.5971   23.0124 O   0  0  0  0  0  0  0  0  0  0  0  0
   10.7412   -3.1437   22.5755 H   0  0  0  0  0  0  0  0  0  0  0  0
    8.2364   -2.1557   22.0000 C   0  0  0  0  0  0  0  0  0  0  0  0
    7.8840   -1.7943   20.7801 N   0  0  0  0  0  0  0  0  0  0  0  0
    7.3250   -0.5735   20.9568 N   0  0  0  0  0  0  0  0  0  0  0  0
    6.6183    0.0595   19.8904 C   0  0  0  0  0  0  0  0  0  0  0  0
    5.3883    0.6937   20.1057 C   0  0  0  0  0  0  0  0  0  0  0  0
    4.7738    1.3246   19.0200 C   0  0  0  0  0  0  0  0  0  0  0  0
    5.4084    1.3014   17.7746 C   0  0  0  0  0  0  0  0  0  0  0  0
    6.5541    0.6337   17.5487 N   0  0  0  0  0  0  0  0  0  0  0  0
    7.1351    0.0183   18.5829 C   0  0  0  0  0  0  0  0  0  0  0  0
    8.0500   -0.5352   18.3708 H   0  0  0  0  0  0  0  0  0  0  0  0
    4.9913    1.8466   16.9283 H   0  0  0  0  0  0  0  0  0  0  0  0
    3.8348    1.8555   19.1368 H   0  0  0  0  0  0  0  0  0  0  0  0
    4.9312    0.6899   21.0971 H   0  0  0  0  0  0  0  0  0  0  0  0
    7.4461   -0.2302   22.2750 C   0  0  0  0  0  0  0  0  0  0  0  0
    7.1045    1.0663   22.8824 C   0  0  0  0  0  0  0  0  0  0  0  0
    6.4364    1.0871   24.1148 C   0  0  0  0  0  0  0  0  0  0  0  0
    6.0725    2.2920   24.7076 C   0  0  0  0  0  0  0  0  0  0  0  0
    6.3914    3.5061   24.0903 C   0  0  0  0  0  0  0  0  0  0  0  0
    7.0847    3.5011   22.8776 C   0  0  0  0  0  0  0  0  0  0  0  0
    7.5121    4.9836   22.0981 Cl  0  0  0  0  0  0  0  0  0  0  0  0
    7.4522    2.2890   22.2886 C   0  0  0  0  0  0  0  0  0  0  0  0
    8.1485    2.2977   21.1495 F   0  0  0  0  0  0  0  0  0  0  0  0
    6.1089    4.4535   24.5379 H   0  0  0  0  0  0  0  0  0  0  0  0
    5.5427    2.2803   25.6534 H   0  0  0  0  0  0  0  0  0  0  0  0
    6.2114    0.1396   24.5956 H   0  0  0  0  0  0  0  0  0  0  0  0
    7.9677   -1.2343   22.9568 N   0  0  0  0  0  0  0  0  0  0  0  0
    8.9807   -3.8971   21.1848 H   0  0  0  0  0  0  0  0  0  0  0  0
    7.5996   -4.0797   23.8876 H   0  0  0  0  0  0  0  0  0  0  0  0
    6.9008   -4.5466   22.3376 H   0  0  0  0  0  0  0  0  0  0  0  0
    8.8727   -6.3104   22.1761 H   0  0  0  0  0  0  0  0  0  0  0  0
    7.5953   -6.6052   23.3664 H   0  0  0  0  0  0  0  0  0  0  0  0
    9.1532   -5.9303   23.8715 H   0  0  0  0  0  0  0  0  0  0  0  0
  1  2  1  0
  2  3  1  0
  3  4  1  0
  4  5  1  0
  3  6  1  0
  6  7  2  0
  7  8  1  0
  8  9  1  0
  9 10  2  0
 10 11  1  0
 11 12  2  0
 12 13  1  0
 13 14  2  0
 14 15  1  0
 12 16  1  0
 11 17  1  0
 10 18  1  0
  8 19  1  0
 19 20  1  0
 20 21  2  0
 21 22  1  0
 22 23  2  0
 23 24  1  0
 24 25  1  0
 24 26  2  0
 26 27  1  0
 23 28  1  0
 22 29  1  0
 21 30  1  0
 19 31  2  0
  3 32  1  0
  2 33  1  0
  2 34  1  0
  1 35  1  0
  1 36  1  0
  1 37  1  0
 31  6  1  0
 14  9  1  0
 26 20  1  0
M  END
>  <cnnaffinity>  (1) 
-5.88275

>  <filename>  (1) 
CCC(O)c1nc(-c2cccc(Cl)c2F)n(-c2cccnc2)n1

$$$$
