
     RDKit          3D

 43 45  0  0  0  0  0  0  0  0999 V2000
    8.4478   -4.8765   22.5847 C   0  0  0  0  0  0  0  0  0  0  0  0
    8.4727   -3.9903   23.8250 C   0  0  0  0  0  0  0  0  0  0  0  0
    7.4011   -2.8878   23.7392 C   0  0  0  0  0  0  0  0  0  0  0  0
    7.2868   -2.1061   25.0660 C   0  0  0  0  0  0  0  0  0  0  0  0
    6.4888   -1.3535   25.0260 H   0  0  0  0  0  0  0  0  0  0  0  0
    8.2305   -1.5953   25.3025 H   0  0  0  0  0  0  0  0  0  0  0  0
    7.0567   -2.7927   25.8897 H   0  0  0  0  0  0  0  0  0  0  0  0
    7.6624   -1.9708   22.5646 C   0  0  0  0  0  0  0  0  0  0  0  0
    6.7223   -1.5995   21.7243 N   0  0  0  0  0  0  0  0  0  0  0  0
    7.3561   -0.6932   20.9292 N   0  0  0  0  0  0  0  0  0  0  0  0
    6.6559   -0.0194   19.8877 C   0  0  0  0  0  0  0  0  0  0  0  0
    5.4446    0.6310   20.1533 C   0  0  0  0  0  0  0  0  0  0  0  0
    4.8098    1.3070   19.1053 C   0  0  0  0  0  0  0  0  0  0  0  0
    5.4006    1.2942   17.8357 C   0  0  0  0  0  0  0  0  0  0  0  0
    6.5537    0.6615   17.5704 N   0  0  0  0  0  0  0  0  0  0  0  0
    7.1637    0.0300   18.5787 C   0  0  0  0  0  0  0  0  0  0  0  0
    8.1077   -0.4583   18.3408 H   0  0  0  0  0  0  0  0  0  0  0  0
    4.9336    1.8077   16.9977 H   0  0  0  0  0  0  0  0  0  0  0  0
    3.8763    1.8446   19.2560 H   0  0  0  0  0  0  0  0  0  0  0  0
    5.0300    0.5953   21.1609 H   0  0  0  0  0  0  0  0  0  0  0  0
    8.6347   -0.5329   21.3789 C   0  0  0  0  0  0  0  0  0  0  0  0
    9.5131    0.6267   20.9885 C   0  0  0  0  0  0  0  0  0  0  0  0
    9.0484    2.0048   21.5710 C   0  0  0  0  0  0  0  0  0  0  0  0
    8.9586    2.0179   23.0703 C   0  0  0  0  0  0  0  0  0  0  0  0
   10.1109    2.1534   23.7391 N   0  0  0  0  0  0  0  0  0  0  0  0
   10.0457    2.0322   25.0591 C   0  0  0  0  0  0  0  0  0  0  0  0
    8.8498    1.8126   25.7348 C   0  0  0  0  0  0  0  0  0  0  0  0
    7.7185    1.7073   24.9433 C   0  0  0  0  0  0  0  0  0  0  0  0
    7.7547    1.8285   23.6176 N   0  0  0  0  0  0  0  0  0  0  0  0
    6.7298    1.5052   25.3625 H   0  0  0  0  0  0  0  0  0  0  0  0
    8.8062    1.7338   26.8098 H   0  0  0  0  0  0  0  0  0  0  0  0
   11.0029    2.0947   25.5746 H   0  0  0  0  0  0  0  0  0  0  0  0
    9.7689    2.7752   21.2865 H   0  0  0  0  0  0  0  0  0  0  0  0
    8.0583    2.2721   21.1873 H   0  0  0  0  0  0  0  0  0  0  0  0
   10.5307    0.3924   21.3291 H   0  0  0  0  0  0  0  0  0  0  0  0
    9.5322    0.6788   19.8966 H   0  0  0  0  0  0  0  0  0  0  0  0
    8.8753   -1.3833   22.3573 N   0  0  0  0  0  0  0  0  0  0  0  0
    6.4278   -3.3492   23.5184 H   0  0  0  0  0  0  0  0  0  0  0  0
    8.2991   -4.5803   24.7354 H   0  0  0  0  0  0  0  0  0  0  0  0
    9.4588   -3.5157   23.9439 H   0  0  0  0  0  0  0  0  0  0  0  0
    8.7030   -4.2846   21.6986 H   0  0  0  0  0  0  0  0  0  0  0  0
    9.1420   -5.7118   22.6722 H   0  0  0  0  0  0  0  0  0  0  0  0
    7.4508   -5.3004   22.4161 H   0  0  0  0  0  0  0  0  0  0  0  0
  1  2  1  0
  2  3  1  0
  3  4  1  0
  4  5  1  0
  4  6  1  0
  4  7  1  0
  3  8  1  0
  8  9  2  0
  9 10  1  0
 10 11  1  0
 11 12  2  0
 12 13  1  0
 13 14  2  0
 14 15  1  0
 15 16  2  0
 16 17  1  0
 14 18  1  0
 13 19  1  0
 12 20  1  0
 10 21  1  0
 21 22  1  0
 22 23  1  0
 23 24  1  0
 24 25  2  0
 25 26  1  0
 26 27  2  0
 27 28  1  0
 28 29  2  0
 28 30  1  0
 27 31  1  0
 26 32  1  0
 23 33  1  0
 23 34  1  0
 22 35  1  0
 22 36  1  0
 21 37  2  0
  3 38  1  0
  2 39  1  0
  2 40  1  0
  1 41  1  0
  1 42  1  0
  1 43  1  0
 37  8  1  0
 16 11  1  0
 29 24  1  0
M  END
>  <cnnaffinity>  (1) 
-5.88152

>  <filename>  (1) 
CCC(C)c1nc(CCc2ncccn2)n(-c2cccnc2)n1

$$$$
