
     RDKit          3D

 44 46  0  0  0  0  0  0  0  0999 V2000
    6.8701   -4.9971   21.7954 C   0  0  0  0  0  0  0  0  0  0  0  0
    7.8043   -4.5267   22.9166 C   0  0  0  0  0  0  0  0  0  0  0  0
    7.4305   -3.1406   23.5122 C   0  0  0  0  0  0  0  0  0  0  0  0
    6.0275   -3.0652   24.1585 C   0  0  0  0  0  0  0  0  0  0  0  0
    5.8050   -4.0616   25.2989 C   0  0  0  0  0  0  0  0  0  0  0  0
    4.8414   -3.8836   25.7884 H   0  0  0  0  0  0  0  0  0  0  0  0
    5.8044   -5.1002   24.9463 H   0  0  0  0  0  0  0  0  0  0  0  0
    6.5875   -3.9716   26.0641 H   0  0  0  0  0  0  0  0  0  0  0  0
    5.2688   -3.1938   23.3707 H   0  0  0  0  0  0  0  0  0  0  0  0
    5.8883   -2.0420   24.5355 H   0  0  0  0  0  0  0  0  0  0  0  0
    7.6155   -2.0588   22.4848 C   0  0  0  0  0  0  0  0  0  0  0  0
    6.6910   -1.6486   21.6346 N   0  0  0  0  0  0  0  0  0  0  0  0
    7.3463   -0.7091   20.9036 N   0  0  0  0  0  0  0  0  0  0  0  0
    6.6535   -0.0165   19.8765 C   0  0  0  0  0  0  0  0  0  0  0  0
    5.4405    0.6268   20.1476 C   0  0  0  0  0  0  0  0  0  0  0  0
    4.8050    1.3086   19.1022 C   0  0  0  0  0  0  0  0  0  0  0  0
    5.3925    1.2981   17.8322 C   0  0  0  0  0  0  0  0  0  0  0  0
    6.5392    0.6579   17.5597 N   0  0  0  0  0  0  0  0  0  0  0  0
    7.1535    0.0266   18.5664 C   0  0  0  0  0  0  0  0  0  0  0  0
    8.0964   -0.4629   18.3277 H   0  0  0  0  0  0  0  0  0  0  0  0
    4.9321    1.8230   16.9972 H   0  0  0  0  0  0  0  0  0  0  0  0
    3.8729    1.8463   19.2555 H   0  0  0  0  0  0  0  0  0  0  0  0
    5.0152    0.5830   21.1500 H   0  0  0  0  0  0  0  0  0  0  0  0
    8.6226   -0.5918   21.3761 C   0  0  0  0  0  0  0  0  0  0  0  0
    9.6541    0.3843   20.9093 C   0  0  0  0  0  0  0  0  0  0  0  0
    9.9539    1.4127   21.9501 C   0  0  0  0  0  0  0  0  0  0  0  0
    9.1440    2.3909   22.4288 C   0  0  0  0  0  0  0  0  0  0  0  0
    7.7669    2.8183   22.0558 C   0  0  0  0  0  0  0  0  0  0  0  0
    7.5175    3.8184   22.4139 H   0  0  0  0  0  0  0  0  0  0  0  0
    7.0256    2.1106   22.4459 H   0  0  0  0  0  0  0  0  0  0  0  0
    7.6766    2.7770   20.9687 H   0  0  0  0  0  0  0  0  0  0  0  0
    9.7959    2.9696   23.4840 O   0  0  0  0  0  0  0  0  0  0  0  0
   10.9734    2.3146   23.5628 C   0  0  0  0  0  0  0  0  0  0  0  0
   11.1307    1.3833   22.6844 N   0  0  0  0  0  0  0  0  0  0  0  0
   11.6476    2.6167   24.3597 H   0  0  0  0  0  0  0  0  0  0  0  0
   10.5739   -0.1711   20.7153 H   0  0  0  0  0  0  0  0  0  0  0  0
    9.2898    0.8430   19.9892 H   0  0  0  0  0  0  0  0  0  0  0  0
    8.8178   -1.4416   22.3553 N   0  0  0  0  0  0  0  0  0  0  0  0
    8.1950   -2.8957   24.2633 H   0  0  0  0  0  0  0  0  0  0  0  0
    7.8255   -5.2601   23.7362 H   0  0  0  0  0  0  0  0  0  0  0  0
    8.8405   -4.4569   22.5534 H   0  0  0  0  0  0  0  0  0  0  0  0
    6.8047   -4.2548   20.9900 H   0  0  0  0  0  0  0  0  0  0  0  0
    5.8529   -5.1609   22.1751 H   0  0  0  0  0  0  0  0  0  0  0  0
    7.2127   -5.9433   21.3617 H   0  0  0  0  0  0  0  0  0  0  0  0
  1  2  1  0
  2  3  1  0
  3  4  1  0
  4  5  1  0
  5  6  1  0
  5  7  1  0
  5  8  1  0
  4  9  1  0
  4 10  1  0
  3 11  1  0
 11 12  2  0
 12 13  1  0
 13 14  1  0
 14 15  2  0
 15 16  1  0
 16 17  2  0
 17 18  1  0
 18 19  2  0
 19 20  1  0
 17 21  1  0
 16 22  1  0
 15 23  1  0
 13 24  1  0
 24 25  1  0
 25 26  1  0
 26 27  2  0
 27 28  1  0
 28 29  1  0
 28 30  1  0
 28 31  1  0
 27 32  1  0
 32 33  1  0
 33 34  2  0
 33 35  1  0
 25 36  1  0
 25 37  1  0
 24 38  2  0
  3 39  1  0
  2 40  1  0
  2 41  1  0
  1 42  1  0
  1 43  1  0
  1 44  1  0
 38 11  1  0
 19 14  1  0
 34 26  1  0
M  END
>  <cnnaffinity>  (1) 
-5.8562

>  <filename>  (1) 
CCC(CC)c1nc(Cc2ncoc2C)n(-c2cccnc2)n1

$$$$
