
     RDKit          3D

 41 43  0  0  0  0  0  0  0  0999 V2000
    9.0493   -5.4818   24.2190 C   0  0  0  0  0  0  0  0  0  0  0  0
    8.3342   -4.1470   24.0519 C   0  0  0  0  0  0  0  0  0  0  0  0
    8.8396   -3.4051   22.8062 C   0  0  0  0  0  0  0  0  0  0  0  0
   10.3131   -2.9753   22.9903 C   0  0  0  0  0  0  0  0  0  0  0  0
   10.3949   -2.1535   23.7063 H   0  0  0  0  0  0  0  0  0  0  0  0
   10.7436   -2.6476   22.0382 H   0  0  0  0  0  0  0  0  0  0  0  0
   10.9187   -3.8030   23.3695 H   0  0  0  0  0  0  0  0  0  0  0  0
    7.9613   -2.2127   22.5139 C   0  0  0  0  0  0  0  0  0  0  0  0
    7.6320   -1.8845   21.2872 N   0  0  0  0  0  0  0  0  0  0  0  0
    6.9801   -0.7128   21.4466 N   0  0  0  0  0  0  0  0  0  0  0  0
    6.5253    0.0602   20.3664 C   0  0  0  0  0  0  0  0  0  0  0  0
    5.4896    0.9982   20.4837 C   0  0  0  0  0  0  0  0  0  0  0  0
    5.0241    1.6092   19.3176 C   0  0  0  0  0  0  0  0  0  0  0  0
    5.6076    1.2993   18.0849 C   0  0  0  0  0  0  0  0  0  0  0  0
    6.6454    0.4523   17.9753 N   0  0  0  0  0  0  0  0  0  0  0  0
    7.0920   -0.1469   19.0954 C   0  0  0  0  0  0  0  0  0  0  0  0
    7.9358   -0.8272   19.0220 H   0  0  0  0  0  0  0  0  0  0  0  0
    5.2017    1.7451   17.1833 H   0  0  0  0  0  0  0  0  0  0  0  0
    4.2029    2.3181   19.3401 H   0  0  0  0  0  0  0  0  0  0  0  0
    5.0225    1.2276   21.4392 H   0  0  0  0  0  0  0  0  0  0  0  0
    7.0023   -0.3769   22.7956 C   0  0  0  0  0  0  0  0  0  0  0  0
    6.8261    1.0129   23.3240 C   0  0  0  0  0  0  0  0  0  0  0  0
    8.1280    1.6487   22.9124 C   0  0  0  0  0  0  0  0  0  0  0  0
    9.2712    1.4351   23.6891 C   0  0  0  0  0  0  0  0  0  0  0  0
   10.5091    1.7924   23.1521 C   0  0  0  0  0  0  0  0  0  0  0  0
   12.1178    1.5348   24.1531 Br  0  0  0  0  0  0  0  0  0  0  0  0
   10.5639    2.3183   21.8522 C   0  0  0  0  0  0  0  0  0  0  0  0
    9.4631    2.5099   21.1056 N   0  0  0  0  0  0  0  0  0  0  0  0
    8.2697    2.2044   21.6319 C   0  0  0  0  0  0  0  0  0  0  0  0
    7.3849    2.3425   21.0167 H   0  0  0  0  0  0  0  0  0  0  0  0
   11.5424    2.5392   21.4294 H   0  0  0  0  0  0  0  0  0  0  0  0
    9.1927    0.9376   24.6561 H   0  0  0  0  0  0  0  0  0  0  0  0
    5.9622    1.5157   22.8805 H   0  0  0  0  0  0  0  0  0  0  0  0
    6.7156    1.0069   24.4097 H   0  0  0  0  0  0  0  0  0  0  0  0
    7.5369   -1.3343   23.4996 N   0  0  0  0  0  0  0  0  0  0  0  0
    8.7745   -4.0799   21.9504 H   0  0  0  0  0  0  0  0  0  0  0  0
    8.4966   -3.5337   24.9446 H   0  0  0  0  0  0  0  0  0  0  0  0
    7.2590   -4.3308   23.9565 H   0  0  0  0  0  0  0  0  0  0  0  0
   10.1174   -5.3200   24.3883 H   0  0  0  0  0  0  0  0  0  0  0  0
    8.6457   -6.0264   25.0761 H   0  0  0  0  0  0  0  0  0  0  0  0
    8.9144   -6.0950   23.3230 H   0  0  0  0  0  0  0  0  0  0  0  0
  1  2  1  0
  2  3  1  0
  3  4  1  0
  4  5  1  0
  4  6  1  0
  4  7  1  0
  3  8  1  0
  8  9  2  0
  9 10  1  0
 10 11  1  0
 11 12  2  0
 12 13  1  0
 13 14  2  0
 14 15  1  0
 15 16  2  0
 16 17  1  0
 14 18  1  0
 13 19  1  0
 12 20  1  0
 10 21  1  0
 21 22  1  0
 22 23  1  0
 23 24  2  0
 24 25  1  0
 25 26  1  0
 25 27  2  0
 27 28  1  0
 28 29  2  0
 29 30  1  0
 27 31  1  0
 24 32  1  0
 22 33  1  0
 22 34  1  0
 21 35  2  0
  3 36  1  0
  2 37  1  0
  2 38  1  0
  1 39  1  0
  1 40  1  0
  1 41  1  0
 35  8  1  0
 16 11  1  0
 29 23  1  0
M  END
>  <cnnaffinity>  (1) 
-6.45772

>  <filename>  (1) 
CCC(C)c1nc(Cc2cncc(Br)c2)n(-c2cccnc2)n1

$$$$
