
     RDKit          3D

 39 40  0  0  0  0  0  0  0  0999 V2000
    6.5957   -3.0703   20.6044 C   0  0  0  0  0  0  0  0  0  0  0  0
    6.5643   -1.8859   21.5560 C   0  0  0  0  0  0  0  0  0  0  0  0
    7.3479   -0.6684   21.0771 C   0  0  0  0  0  0  0  0  0  0  0  0
    7.4463    0.1692   22.2394 O   0  0  0  0  0  0  0  0  0  0  0  0
    8.2424    1.2542   22.1834 C   0  0  0  0  0  0  0  0  0  0  0  0
    8.9229    1.5346   21.2231 O   0  0  0  0  0  0  0  0  0  0  0  0
    8.1812    2.0525   23.4495 C   0  0  0  0  0  0  0  0  0  0  0  0
    7.3705    1.6612   24.5322 C   0  0  0  0  0  0  0  0  0  0  0  0
    7.3503    2.4330   25.6929 C   0  0  0  0  0  0  0  0  0  0  0  0
    8.1313    3.5813   25.7956 C   0  0  0  0  0  0  0  0  0  0  0  0
    8.9394    3.9616   24.7123 C   0  0  0  0  0  0  0  0  0  0  0  0
    9.9577    5.4123   24.8885 S   0  0  0  0  0  0  0  0  0  0  0  0
   10.0821    5.7116   26.3098 O   0  0  0  0  0  0  0  0  0  0  0  0
   11.1307    5.2924   24.0318 O   0  0  0  0  0  0  0  0  0  0  0  0
    9.0000    6.7212   24.2126 C   0  0  0  0  0  0  0  0  0  0  0  0
    9.6555    7.5798   24.3386 H   0  0  0  0  0  0  0  0  0  0  0  0
    8.8112    6.5170   23.1612 H   0  0  0  0  0  0  0  0  0  0  0  0
    8.0883    6.8321   24.7954 H   0  0  0  0  0  0  0  0  0  0  0  0
    8.9735    3.2064   23.5353 C   0  0  0  0  0  0  0  0  0  0  0  0
    9.6070    3.4637   22.6825 H   0  0  0  0  0  0  0  0  0  0  0  0
    8.1286    4.1579   26.7188 H   0  0  0  0  0  0  0  0  0  0  0  0
    6.7316    2.1311   26.5331 H   0  0  0  0  0  0  0  0  0  0  0  0
    6.7690    0.7566   24.4695 H   0  0  0  0  0  0  0  0  0  0  0  0
    6.6483    0.0715   19.9499 C   0  0  0  0  0  0  0  0  0  0  0  0
    5.4203    0.7249   20.1548 C   0  0  0  0  0  0  0  0  0  0  0  0
    4.7970    1.3432   19.0709 C   0  0  0  0  0  0  0  0  0  0  0  0
    5.4213    1.2963   17.8200 C   0  0  0  0  0  0  0  0  0  0  0  0
    6.5894    0.6797   17.6021 N   0  0  0  0  0  0  0  0  0  0  0  0
    7.1805    0.0977   18.6588 C   0  0  0  0  0  0  0  0  0  0  0  0
    8.1365   -0.3868   18.4494 H   0  0  0  0  0  0  0  0  0  0  0  0
    4.9600    1.7735   16.9556 H   0  0  0  0  0  0  0  0  0  0  0  0
    3.8510    1.8592   19.1827 H   0  0  0  0  0  0  0  0  0  0  0  0
    4.9670    0.7560   21.1468 H   0  0  0  0  0  0  0  0  0  0  0  0
    8.3623   -0.9560   20.7755 H   0  0  0  0  0  0  0  0  0  0  0  0
    5.5344   -1.5576   21.7158 H   0  0  0  0  0  0  0  0  0  0  0  0
    6.9442   -2.1891   22.5343 H   0  0  0  0  0  0  0  0  0  0  0  0
    5.7951   -3.7721   20.8336 H   0  0  0  0  0  0  0  0  0  0  0  0
    7.5492   -3.6036   20.6747 H   0  0  0  0  0  0  0  0  0  0  0  0
    6.4391   -2.7504   19.5713 H   0  0  0  0  0  0  0  0  0  0  0  0
  1  2  1  0
  2  3  1  0
  3  4  1  0
  4  5  1  0
  5  6  2  0
  5  7  1  0
  7  8  2  0
  8  9  1  0
  9 10  2  0
 10 11  1  0
 11 12  1  0
 12 13  2  0
 12 14  2  0
 12 15  1  0
 15 16  1  0
 15 17  1  0
 15 18  1  0
 11 19  2  0
 19 20  1  0
 10 21  1  0
  9 22  1  0
  8 23  1  0
  3 24  1  0
 24 25  2  0
 25 26  1  0
 26 27  2  0
 27 28  1  0
 28 29  2  0
 29 30  1  0
 27 31  1  0
 26 32  1  0
 25 33  1  0
  3 34  1  0
  2 35  1  0
  2 36  1  0
  1 37  1  0
  1 38  1  0
  1 39  1  0
 19  7  1  0
 29 24  1  0
M  END
>  <cnnaffinity>  (1) 
-4.56163

>  <filename>  (1) 
CCC(OC(=O)c1cccc(S(C)(=O)=O)c1)c1cccnc1

$$$$
