
     RDKit          3D

 46 48  0  0  0  0  0  0  0  0999 V2000
    6.0186   -1.2980   25.1023 C   0  0  0  0  0  0  0  0  0  0  0  0
    7.2106   -2.2551   25.0610 C   0  0  0  0  0  0  0  0  0  0  0  0
    7.3102   -3.0451   23.7386 C   0  0  0  0  0  0  0  0  0  0  0  0
    6.1962   -3.9276   23.6958 O   0  0  0  0  0  0  0  0  0  0  0  0
    6.0725   -4.2510   22.7917 H   0  0  0  0  0  0  0  0  0  0  0  0
    7.4695   -2.0954   22.5601 C   0  0  0  0  0  0  0  0  0  0  0  0
    6.5521   -1.7298   21.6806 N   0  0  0  0  0  0  0  0  0  0  0  0
    7.2295   -0.8576   20.8880 N   0  0  0  0  0  0  0  0  0  0  0  0
    6.5666   -0.1572   19.8419 C   0  0  0  0  0  0  0  0  0  0  0  0
    5.4003    0.5622   20.1143 C   0  0  0  0  0  0  0  0  0  0  0  0
    4.8299    1.3074   19.0783 C   0  0  0  0  0  0  0  0  0  0  0  0
    5.4289    1.2839   17.8132 C   0  0  0  0  0  0  0  0  0  0  0  0
    6.5296    0.5700   17.5356 N   0  0  0  0  0  0  0  0  0  0  0  0
    7.0825   -0.1328   18.5320 C   0  0  0  0  0  0  0  0  0  0  0  0
    7.9890   -0.6860   18.2898 H   0  0  0  0  0  0  0  0  0  0  0  0
    5.0071    1.8545   16.9892 H   0  0  0  0  0  0  0  0  0  0  0  0
    3.9415    1.9071   19.2427 H   0  0  0  0  0  0  0  0  0  0  0  0
    4.9739    0.5312   21.1174 H   0  0  0  0  0  0  0  0  0  0  0  0
    8.5089   -0.7282   21.3479 C   0  0  0  0  0  0  0  0  0  0  0  0
    9.5718    0.1345   20.7459 C   0  0  0  0  0  0  0  0  0  0  0  0
   10.3667    0.8539   21.8217 C   0  0  0  0  0  0  0  0  0  0  0  0
    9.8288    2.0284   22.3945 C   0  0  0  0  0  0  0  0  0  0  0  0
    8.4956    2.5933   21.9458 C   0  0  0  0  0  0  0  0  0  0  0  0
    8.5650    2.9570   20.9166 H   0  0  0  0  0  0  0  0  0  0  0  0
    8.1743    3.4241   22.5775 H   0  0  0  0  0  0  0  0  0  0  0  0
    7.6973    1.8416   21.9629 H   0  0  0  0  0  0  0  0  0  0  0  0
   10.5493    2.6765   23.4089 C   0  0  0  0  0  0  0  0  0  0  0  0
   11.7757    2.1690   23.8421 C   0  0  0  0  0  0  0  0  0  0  0  0
   12.2759    0.9829   23.3046 C   0  0  0  0  0  0  0  0  0  0  0  0
   11.5418    0.2632   22.3475 C   0  0  0  0  0  0  0  0  0  0  0  0
   11.9981   -1.1322   21.9613 C   0  0  0  0  0  0  0  0  0  0  0  0
   12.9812   -1.3533   22.3933 H   0  0  0  0  0  0  0  0  0  0  0  0
   12.0623   -1.2559   20.8715 H   0  0  0  0  0  0  0  0  0  0  0  0
   11.2942   -1.8768   22.3517 H   0  0  0  0  0  0  0  0  0  0  0  0
   13.2245    0.5738   23.6467 H   0  0  0  0  0  0  0  0  0  0  0  0
   12.3114    2.6775   24.6342 H   0  0  0  0  0  0  0  0  0  0  0  0
   10.1354    3.5730   23.8659 H   0  0  0  0  0  0  0  0  0  0  0  0
    9.1214    0.8602   20.0627 H   0  0  0  0  0  0  0  0  0  0  0  0
   10.2089   -0.5287   20.1555 H   0  0  0  0  0  0  0  0  0  0  0  0
    8.6845   -1.5218   22.3857 N   0  0  0  0  0  0  0  0  0  0  0  0
    8.2600   -3.6057   23.7569 H   0  0  0  0  0  0  0  0  0  0  0  0
    7.1486   -2.9806   25.8823 H   0  0  0  0  0  0  0  0  0  0  0  0
    8.1479   -1.6955   25.1932 H   0  0  0  0  0  0  0  0  0  0  0  0
    5.0787   -1.8473   24.9774 H   0  0  0  0  0  0  0  0  0  0  0  0
    5.9797   -0.7590   26.0536 H   0  0  0  0  0  0  0  0  0  0  0  0
    6.0794   -0.5531   24.2991 H   0  0  0  0  0  0  0  0  0  0  0  0
  1  2  1  0
  2  3  1  0
  3  4  1  0
  4  5  1  0
  3  6  1  0
  6  7  2  0
  7  8  1  0
  8  9  1  0
  9 10  2  0
 10 11  1  0
 11 12  2  0
 12 13  1  0
 13 14  2  0
 14 15  1  0
 12 16  1  0
 11 17  1  0
 10 18  1  0
  8 19  1  0
 19 20  1  0
 20 21  1  0
 21 22  2  0
 22 23  1  0
 23 24  1  0
 23 25  1  0
 23 26  1  0
 22 27  1  0
 27 28  2  0
 28 29  1  0
 29 30  2  0
 30 31  1  0
 31 32  1  0
 31 33  1  0
 31 34  1  0
 29 35  1  0
 28 36  1  0
 27 37  1  0
 20 38  1  0
 20 39  1  0
 19 40  2  0
  3 41  1  0
  2 42  1  0
  2 43  1  0
  1 44  1  0
  1 45  1  0
  1 46  1  0
 40  6  1  0
 14  9  1  0
 30 21  1  0
M  END
>  <cnnaffinity>  (1) 
-6.0957

>  <filename>  (1) 
CCC(O)c1nc(Cc2c(C)cccc2C)n(-c2cccnc2)n1

$$$$
