
     RDKit          3D

 52 54  0  0  0  0  0  0  0  0999 V2000
    5.8215   -6.5375   23.2145 C   0  0  0  0  0  0  0  0  0  0  0  0
    6.4681   -5.3730   23.9817 C   0  0  0  0  0  0  0  0  0  0  0  0
    7.0698   -4.3019   23.0575 C   0  0  0  0  0  0  0  0  0  0  0  0
    8.4083   -4.7363   22.4554 C   0  0  0  0  0  0  0  0  0  0  0  0
    8.3392   -5.7046   21.9487 H   0  0  0  0  0  0  0  0  0  0  0  0
    8.7613   -3.9970   21.7304 H   0  0  0  0  0  0  0  0  0  0  0  0
    9.1824   -4.8234   23.2309 H   0  0  0  0  0  0  0  0  0  0  0  0
    7.2161   -2.9054   23.7237 C   0  0  0  0  0  0  0  0  0  0  0  0
    7.5155   -1.8624   22.6909 C   0  0  0  0  0  0  0  0  0  0  0  0
    6.6172   -1.4894   21.7988 N   0  0  0  0  0  0  0  0  0  0  0  0
    7.3232   -0.7110   20.9389 N   0  0  0  0  0  0  0  0  0  0  0  0
    6.6516   -0.0404   19.8786 C   0  0  0  0  0  0  0  0  0  0  0  0
    5.4423    0.6221   20.1312 C   0  0  0  0  0  0  0  0  0  0  0  0
    4.8313    1.3151   19.0834 C   0  0  0  0  0  0  0  0  0  0  0  0
    5.4339    1.3040   17.8190 C   0  0  0  0  0  0  0  0  0  0  0  0
    6.5718    0.6424   17.5595 N   0  0  0  0  0  0  0  0  0  0  0  0
    7.1591   -0.0148   18.5667 C   0  0  0  0  0  0  0  0  0  0  0  0
    8.0776   -0.5435   18.3145 H   0  0  0  0  0  0  0  0  0  0  0  0
    4.9825    1.8382   16.9863 H   0  0  0  0  0  0  0  0  0  0  0  0
    3.9060    1.8602   19.2363 H   0  0  0  0  0  0  0  0  0  0  0  0
    5.0141    0.5818   21.1324 H   0  0  0  0  0  0  0  0  0  0  0  0
    8.6144   -0.6368   21.3803 C   0  0  0  0  0  0  0  0  0  0  0  0
    9.7100    0.0609   20.6168 C   0  0  0  0  0  0  0  0  0  0  0  0
   10.8133    0.5834   21.4322 N   0  0  0  0  0  0  0  0  0  0  0  0
   10.3675    1.6119   22.3683 C   0  0  0  0  0  0  0  0  0  0  0  0
   11.5420    2.3325   23.0305 C   0  0  0  0  0  0  0  0  0  0  0  0
   10.9976    3.4171   23.9408 C   0  0  0  0  0  0  0  0  0  0  0  0
   10.2554    4.3138   23.2552 F   0  0  0  0  0  0  0  0  0  0  0  0
   11.9770    4.1031   24.5537 F   0  0  0  0  0  0  0  0  0  0  0  0
   10.2009    2.9091   24.9049 F   0  0  0  0  0  0  0  0  0  0  0  0
   12.4879    1.3203   23.7045 C   0  0  0  0  0  0  0  0  0  0  0  0
   12.9705    0.3058   22.6583 C   0  0  0  0  0  0  0  0  0  0  0  0
   11.9295   -0.2111   21.6679 C   0  0  0  0  0  0  0  0  0  0  0  0
   12.1466   -1.2417   21.0546 O   0  0  0  0  0  0  0  0  0  0  0  0
   13.4164   -0.5830   23.1126 H   0  0  0  0  0  0  0  0  0  0  0  0
   13.7569    0.7391   22.0264 H   0  0  0  0  0  0  0  0  0  0  0  0
   13.3565    1.8258   24.1466 H   0  0  0  0  0  0  0  0  0  0  0  0
   11.9808    0.7998   24.5296 H   0  0  0  0  0  0  0  0  0  0  0  0
   12.0977    2.8692   22.2562 H   0  0  0  0  0  0  0  0  0  0  0  0
    9.7519    2.3364   21.8163 H   0  0  0  0  0  0  0  0  0  0  0  0
    9.7121    1.1514   23.1284 H   0  0  0  0  0  0  0  0  0  0  0  0
    9.2852    0.9039   20.0625 H   0  0  0  0  0  0  0  0  0  0  0  0
   10.1090   -0.6427   19.8847 H   0  0  0  0  0  0  0  0  0  0  0  0
    8.7543   -1.3449   22.4901 N   0  0  0  0  0  0  0  0  0  0  0  0
    8.0248   -2.9024   24.4615 H   0  0  0  0  0  0  0  0  0  0  0  0
    6.2898   -2.6362   24.2432 H   0  0  0  0  0  0  0  0  0  0  0  0
    6.3435   -4.1699   22.2375 H   0  0  0  0  0  0  0  0  0  0  0  0
    5.6943   -4.9153   24.6122 H   0  0  0  0  0  0  0  0  0  0  0  0
    7.2305   -5.7563   24.6756 H   0  0  0  0  0  0  0  0  0  0  0  0
    5.1148   -6.1552   22.4685 H   0  0  0  0  0  0  0  0  0  0  0  0
    6.5401   -7.1687   22.6793 H   0  0  0  0  0  0  0  0  0  0  0  0
    5.2609   -7.1837   23.8988 H   0  0  0  0  0  0  0  0  0  0  0  0
  1  2  1  0
  2  3  1  0
  3  4  1  0
  4  5  1  0
  4  6  1  0
  4  7  1  0
  3  8  1  0
  8  9  1  0
  9 10  2  0
 10 11  1  0
 11 12  1  0
 12 13  2  0
 13 14  1  0
 14 15  2  0
 15 16  1  0
 16 17  2  0
 17 18  1  0
 15 19  1  0
 14 20  1  0
 13 21  1  0
 11 22  1  0
 22 23  1  0
 23 24  1  0
 24 25  1  0
 25 26  1  0
 26 27  1  0
 27 28  1  0
 27 29  1  0
 27 30  1  0
 26 31  1  0
 31 32  1  0
 32 33  1  0
 33 34  2  0
 32 35  1  0
 32 36  1  0
 31 37  1  0
 31 38  1  0
 26 39  1  0
 25 40  1  0
 25 41  1  0
 23 42  1  0
 23 43  1  0
 22 44  2  0
  8 45  1  0
  8 46  1  0
  3 47  1  0
  2 48  1  0
  2 49  1  0
  1 50  1  0
  1 51  1  0
  1 52  1  0
 44  9  1  0
 17 12  1  0
 33 24  1  0
M  END
>  <cnnaffinity>  (1) 
-6.79983

>  <filename>  (1) 
CCC(C)Cc1nc(CN2CC(C(F)(F)F)CCC2=O)n(-c2cccnc2)n1

$$$$
