
     RDKit          3D

 41 43  0  0  0  0  0  0  0  0999 V2000
    7.6411   -3.9784   24.4712 C   0  0  0  0  0  0  0  0  0  0  0  0
    8.0547   -4.4125   23.0655 C   0  0  0  0  0  0  0  0  0  0  0  0
    8.9443   -3.3693   22.3415 C   0  0  0  0  0  0  0  0  0  0  0  0
   10.2715   -3.0954   23.0877 C   0  0  0  0  0  0  0  0  0  0  0  0
   11.0621   -2.8229   22.3837 H   0  0  0  0  0  0  0  0  0  0  0  0
   10.6016   -3.9777   23.6479 H   0  0  0  0  0  0  0  0  0  0  0  0
   10.1464   -2.2729   23.8079 H   0  0  0  0  0  0  0  0  0  0  0  0
    8.2291   -2.0785   22.0544 C   0  0  0  0  0  0  0  0  0  0  0  0
    7.7758   -1.8103   20.8496 N   0  0  0  0  0  0  0  0  0  0  0  0
    7.3011   -0.5467   20.9740 N   0  0  0  0  0  0  0  0  0  0  0  0
    6.6120    0.0634   19.9042 C   0  0  0  0  0  0  0  0  0  0  0  0
    5.3938    0.7077   20.1283 C   0  0  0  0  0  0  0  0  0  0  0  0
    4.7879    1.3395   19.0422 C   0  0  0  0  0  0  0  0  0  0  0  0
    5.4145    1.3002   17.7937 C   0  0  0  0  0  0  0  0  0  0  0  0
    6.5614    0.6342   17.5668 N   0  0  0  0  0  0  0  0  0  0  0  0
    7.1370    0.0118   18.6010 C   0  0  0  0  0  0  0  0  0  0  0  0
    8.0505   -0.5445   18.3996 H   0  0  0  0  0  0  0  0  0  0  0  0
    4.9806    1.8190   16.9433 H   0  0  0  0  0  0  0  0  0  0  0  0
    3.8511    1.8668   19.1668 H   0  0  0  0  0  0  0  0  0  0  0  0
    4.9397    0.6892   21.1200 H   0  0  0  0  0  0  0  0  0  0  0  0
    7.5545   -0.0932   22.2388 C   0  0  0  0  0  0  0  0  0  0  0  0
    7.6021    1.3517   22.6289 C   0  0  0  0  0  0  0  0  0  0  0  0
    8.7598    2.1160   21.9321 C   0  0  0  0  0  0  0  0  0  0  0  0
   10.1362    1.6070   22.2755 C   0  0  0  0  0  0  0  0  0  0  0  0
   10.9669    1.9787   23.2897 C   0  0  0  0  0  0  0  0  0  0  0  0
   12.1892    1.3518   23.3524 N   0  0  0  0  0  0  0  0  0  0  0  0
   12.2972    0.4953   22.3807 C   0  0  0  0  0  0  0  0  0  0  0  0
   10.9293    0.3988   21.3432 S   0  0  0  0  0  0  0  0  0  0  0  0
   13.1705   -0.1168   22.1882 H   0  0  0  0  0  0  0  0  0  0  0  0
   10.7331    2.7347   24.0337 H   0  0  0  0  0  0  0  0  0  0  0  0
    8.6235    2.0738   20.8461 H   0  0  0  0  0  0  0  0  0  0  0  0
    8.6947    3.1746   22.2071 H   0  0  0  0  0  0  0  0  0  0  0  0
    7.7345    1.3908   23.7134 H   0  0  0  0  0  0  0  0  0  0  0  0
    6.6490    1.8425   22.4147 H   0  0  0  0  0  0  0  0  0  0  0  0
    8.0600   -1.0767   22.9610 N   0  0  0  0  0  0  0  0  0  0  0  0
    9.1019   -3.7336   21.3229 H   0  0  0  0  0  0  0  0  0  0  0  0
    7.1694   -4.6077   22.4474 H   0  0  0  0  0  0  0  0  0  0  0  0
    8.6054   -5.3649   23.1100 H   0  0  0  0  0  0  0  0  0  0  0  0
    8.5225   -3.8903   25.1184 H   0  0  0  0  0  0  0  0  0  0  0  0
    7.1573   -2.9956   24.4321 H   0  0  0  0  0  0  0  0  0  0  0  0
    6.9518   -4.6966   24.9309 H   0  0  0  0  0  0  0  0  0  0  0  0
  1  2  1  0
  2  3  1  0
  3  4  1  0
  4  5  1  0
  4  6  1  0
  4  7  1  0
  3  8  1  0
  8  9  2  0
  9 10  1  0
 10 11  1  0
 11 12  2  0
 12 13  1  0
 13 14  2  0
 14 15  1  0
 15 16  2  0
 16 17  1  0
 14 18  1  0
 13 19  1  0
 12 20  1  0
 10 21  1  0
 21 22  1  0
 22 23  1  0
 23 24  1  0
 24 25  2  0
 25 26  1  0
 26 27  2  0
 27 28  1  0
 27 29  1  0
 25 30  1  0
 23 31  1  0
 23 32  1  0
 22 33  1  0
 22 34  1  0
 21 35  2  0
  3 36  1  0
  2 37  1  0
  2 38  1  0
  1 39  1  0
  1 40  1  0
  1 41  1  0
 35  8  1  0
 16 11  1  0
 28 24  1  0
M  END
>  <cnnaffinity>  (1) 
-6.18359

>  <filename>  (1) 
CCC(C)c1nc(CCc2cncs2)n(-c2cccnc2)n1

$$$$
