
     RDKit          3D

 45 47  0  0  0  0  0  0  0  0999 V2000
    8.7319   -4.7680   22.8124 C   0  0  0  0  0  0  0  0  0  0  0  0
    7.2944   -4.4269   23.1944 C   0  0  0  0  0  0  0  0  0  0  0  0
    7.1831   -2.9731   23.7360 C   0  0  0  0  0  0  0  0  0  0  0  0
    8.1094   -2.7215   24.9482 C   0  0  0  0  0  0  0  0  0  0  0  0
    7.8787   -3.6613   26.1298 C   0  0  0  0  0  0  0  0  0  0  0  0
    8.4598   -3.3409   27.0006 H   0  0  0  0  0  0  0  0  0  0  0  0
    6.8219   -3.6843   26.4219 H   0  0  0  0  0  0  0  0  0  0  0  0
    8.1822   -4.6882   25.8951 H   0  0  0  0  0  0  0  0  0  0  0  0
    7.9845   -1.6812   25.2684 H   0  0  0  0  0  0  0  0  0  0  0  0
    9.1549   -2.7977   24.6169 H   0  0  0  0  0  0  0  0  0  0  0  0
    7.4662   -1.9696   22.6385 C   0  0  0  0  0  0  0  0  0  0  0  0
    6.5553   -1.6169   21.7533 N   0  0  0  0  0  0  0  0  0  0  0  0
    7.2275   -0.7698   20.9273 N   0  0  0  0  0  0  0  0  0  0  0  0
    6.5601   -0.0836   19.8788 C   0  0  0  0  0  0  0  0  0  0  0  0
    5.3625    0.5974   20.1297 C   0  0  0  0  0  0  0  0  0  0  0  0
    4.7801    1.3128   19.0813 C   0  0  0  0  0  0  0  0  0  0  0  0
    5.3969    1.3064   17.8238 C   0  0  0  0  0  0  0  0  0  0  0  0
    6.5253    0.6283   17.5672 N   0  0  0  0  0  0  0  0  0  0  0  0
    7.0887   -0.0457   18.5755 C   0  0  0  0  0  0  0  0  0  0  0  0
    8.0109   -0.5755   18.3439 H   0  0  0  0  0  0  0  0  0  0  0  0
    4.9709    1.8654   16.9937 H   0  0  0  0  0  0  0  0  0  0  0  0
    3.8703    1.8838   19.2291 H   0  0  0  0  0  0  0  0  0  0  0  0
    4.9232    0.5620   21.1275 H   0  0  0  0  0  0  0  0  0  0  0  0
    8.5055   -0.6369   21.3852 C   0  0  0  0  0  0  0  0  0  0  0  0
    9.5329    0.2089   20.6931 C   0  0  0  0  0  0  0  0  0  0  0  0
   10.6314    0.6406   21.5480 N   0  0  0  0  0  0  0  0  0  0  0  0
   10.6647    1.7205   22.4013 C   0  0  0  0  0  0  0  0  0  0  0  0
   11.7712    1.7767   23.0851 N   0  0  0  0  0  0  0  0  0  0  0  0
   12.5124    0.6830   22.6833 C   0  0  0  0  0  0  0  0  0  0  0  0
   13.9088    0.4080   23.1981 C   0  0  0  0  0  0  0  0  0  0  0  0
   13.9495    0.3672   24.5402 F   0  0  0  0  0  0  0  0  0  0  0  0
   14.7800    1.3464   22.7947 F   0  0  0  0  0  0  0  0  0  0  0  0
   14.3867   -0.7679   22.7383 F   0  0  0  0  0  0  0  0  0  0  0  0
   11.8213   -0.0246   21.7346 C   0  0  0  0  0  0  0  0  0  0  0  0
   12.0868   -0.9009   21.1522 H   0  0  0  0  0  0  0  0  0  0  0  0
    9.8716    2.4592   22.4711 H   0  0  0  0  0  0  0  0  0  0  0  0
    9.9416   -0.3966   19.8742 H   0  0  0  0  0  0  0  0  0  0  0  0
    9.0561    1.0841   20.2430 H   0  0  0  0  0  0  0  0  0  0  0  0
    8.6875   -1.3986   22.4417 N   0  0  0  0  0  0  0  0  0  0  0  0
    6.1400   -2.7992   24.0320 H   0  0  0  0  0  0  0  0  0  0  0  0
    6.6243   -4.5385   22.3323 H   0  0  0  0  0  0  0  0  0  0  0  0
    6.9330   -5.1311   23.9570 H   0  0  0  0  0  0  0  0  0  0  0  0
    8.8083   -5.6957   22.2398 H   0  0  0  0  0  0  0  0  0  0  0  0
    9.1645   -3.9494   22.2250 H   0  0  0  0  0  0  0  0  0  0  0  0
    9.3531   -4.8795   23.7086 H   0  0  0  0  0  0  0  0  0  0  0  0
  1  2  1  0
  2  3  1  0
  3  4  1  0
  4  5  1  0
  5  6  1  0
  5  7  1  0
  5  8  1  0
  4  9  1  0
  4 10  1  0
  3 11  1  0
 11 12  2  0
 12 13  1  0
 13 14  1  0
 14 15  2  0
 15 16  1  0
 16 17  2  0
 17 18  1  0
 18 19  2  0
 19 20  1  0
 17 21  1  0
 16 22  1  0
 15 23  1  0
 13 24  1  0
 24 25  1  0
 25 26  1  0
 26 27  1  0
 27 28  2  0
 28 29  1  0
 29 30  1  0
 30 31  1  0
 30 32  1  0
 30 33  1  0
 29 34  2  0
 34 35  1  0
 27 36  1  0
 25 37  1  0
 25 38  1  0
 24 39  2  0
  3 40  1  0
  2 41  1  0
  2 42  1  0
  1 43  1  0
  1 44  1  0
  1 45  1  0
 39 11  1  0
 19 14  1  0
 34 26  1  0
M  END
>  <cnnaffinity>  (1) 
-6.64794

>  <filename>  (1) 
CCC(CC)c1nc(Cn2cnc(C(F)(F)F)c2)n(-c2cccnc2)n1

$$$$
