
     RDKit          3D

 49 51  0  0  0  0  0  0  0  0999 V2000
    7.8627   -5.0180   22.2255 C   0  0  0  0  0  0  0  0  0  0  0  0
    6.8268   -4.3564   23.1379 C   0  0  0  0  0  0  0  0  0  0  0  0
    7.3069   -2.9954   23.6954 C   0  0  0  0  0  0  0  0  0  0  0  0
    6.3745   -2.4222   24.7804 C   0  0  0  0  0  0  0  0  0  0  0  0
    5.3712   -2.2253   24.3883 H   0  0  0  0  0  0  0  0  0  0  0  0
    6.7802   -1.4817   25.1728 H   0  0  0  0  0  0  0  0  0  0  0  0
    6.2823   -3.1251   25.6160 H   0  0  0  0  0  0  0  0  0  0  0  0
    7.5601   -1.9895   22.5987 C   0  0  0  0  0  0  0  0  0  0  0  0
    6.6552   -1.6078   21.7160 N   0  0  0  0  0  0  0  0  0  0  0  0
    7.3368   -0.7365   20.9248 N   0  0  0  0  0  0  0  0  0  0  0  0
    6.6561   -0.0370   19.8874 C   0  0  0  0  0  0  0  0  0  0  0  0
    5.4482    0.6192   20.1524 C   0  0  0  0  0  0  0  0  0  0  0  0
    4.8281    1.3063   19.1061 C   0  0  0  0  0  0  0  0  0  0  0  0
    5.4211    1.3011   17.8349 C   0  0  0  0  0  0  0  0  0  0  0  0
    6.5653    0.6540   17.5671 N   0  0  0  0  0  0  0  0  0  0  0  0
    7.1592    0.0035   18.5745 C   0  0  0  0  0  0  0  0  0  0  0  0
    8.0867   -0.5111   18.3359 H   0  0  0  0  0  0  0  0  0  0  0  0
    4.9571    1.8265   17.0023 H   0  0  0  0  0  0  0  0  0  0  0  0
    3.8949    1.8387   19.2587 H   0  0  0  0  0  0  0  0  0  0  0  0
    5.0169    0.5829   21.1550 H   0  0  0  0  0  0  0  0  0  0  0  0
    8.6156   -0.6267   21.3914 C   0  0  0  0  0  0  0  0  0  0  0  0
    9.6960    0.1314   20.6594 C   0  0  0  0  0  0  0  0  0  0  0  0
   10.7973    0.6390   21.4881 N   0  0  0  0  0  0  0  0  0  0  0  0
   10.3731    1.6580   22.4371 C   0  0  0  0  0  0  0  0  0  0  0  0
   11.5503    2.3780   23.1018 C   0  0  0  0  0  0  0  0  0  0  0  0
   10.9722    3.4572   24.0015 C   0  0  0  0  0  0  0  0  0  0  0  0
   10.1637    2.9370   24.9494 F   0  0  0  0  0  0  0  0  0  0  0  0
   11.9132    4.1756   24.6329 F   0  0  0  0  0  0  0  0  0  0  0  0
   10.2296    4.3381   23.2946 F   0  0  0  0  0  0  0  0  0  0  0  0
   12.4733    1.3469   23.7738 C   0  0  0  0  0  0  0  0  0  0  0  0
   12.9461    0.3479   22.7046 C   0  0  0  0  0  0  0  0  0  0  0  0
   11.9011   -0.1695   21.7201 C   0  0  0  0  0  0  0  0  0  0  0  0
   12.0856   -1.2083   21.1123 O   0  0  0  0  0  0  0  0  0  0  0  0
   13.7038    0.8167   22.0652 H   0  0  0  0  0  0  0  0  0  0  0  0
   13.4268   -0.5376   23.1243 H   0  0  0  0  0  0  0  0  0  0  0  0
   11.9431    0.8336   24.5923 H   0  0  0  0  0  0  0  0  0  0  0  0
   13.3573    1.8306   24.2094 H   0  0  0  0  0  0  0  0  0  0  0  0
   12.1269    2.9387   22.3565 H   0  0  0  0  0  0  0  0  0  0  0  0
    9.7159    1.2097   23.2063 H   0  0  0  0  0  0  0  0  0  0  0  0
    9.7740    2.3959   21.8953 H   0  0  0  0  0  0  0  0  0  0  0  0
    9.2350    0.9766   20.1366 H   0  0  0  0  0  0  0  0  0  0  0  0
   10.0986   -0.5465   19.9018 H   0  0  0  0  0  0  0  0  0  0  0  0
    8.7696   -1.3958   22.4530 N   0  0  0  0  0  0  0  0  0  0  0  0
    8.2910   -3.1435   24.1587 H   0  0  0  0  0  0  0  0  0  0  0  0
    5.8872   -4.2046   22.5879 H   0  0  0  0  0  0  0  0  0  0  0  0
    6.5992   -5.0201   23.9840 H   0  0  0  0  0  0  0  0  0  0  0  0
    7.5006   -5.9820   21.8509 H   0  0  0  0  0  0  0  0  0  0  0  0
    8.0911   -4.3809   21.3612 H   0  0  0  0  0  0  0  0  0  0  0  0
    8.8014   -5.2040   22.7642 H   0  0  0  0  0  0  0  0  0  0  0  0
  1  2  1  0
  2  3  1  0
  3  4  1  0
  4  5  1  0
  4  6  1  0
  4  7  1  0
  3  8  1  0
  8  9  2  0
  9 10  1  0
 10 11  1  0
 11 12  2  0
 12 13  1  0
 13 14  2  0
 14 15  1  0
 15 16  2  0
 16 17  1  0
 14 18  1  0
 13 19  1  0
 12 20  1  0
 10 21  1  0
 21 22  1  0
 22 23  1  0
 23 24  1  0
 24 25  1  0
 25 26  1  0
 26 27  1  0
 26 28  1  0
 26 29  1  0
 25 30  1  0
 30 31  1  0
 31 32  1  0
 32 33  2  0
 31 34  1  0
 31 35  1  0
 30 36  1  0
 30 37  1  0
 25 38  1  0
 24 39  1  0
 24 40  1  0
 22 41  1  0
 22 42  1  0
 21 43  2  0
  3 44  1  0
  2 45  1  0
  2 46  1  0
  1 47  1  0
  1 48  1  0
  1 49  1  0
 43  8  1  0
 16 11  1  0
 32 23  1  0
M  END
>  <cnnaffinity>  (1) 
-6.63412

>  <filename>  (1) 
CCC(C)c1nc(CN2CC(C(F)(F)F)CCC2=O)n(-c2cccnc2)n1

$$$$
