
     RDKit          3D

 48 50  0  0  0  0  0  0  0  0999 V2000
    7.2300   -4.2143   24.2624 C   0  0  0  0  0  0  0  0  0  0  0  0
    7.8212   -4.4962   22.8836 C   0  0  0  0  0  0  0  0  0  0  0  0
    8.7431   -3.3770   22.3480 C   0  0  0  0  0  0  0  0  0  0  0  0
    9.9912   -3.1490   23.2268 C   0  0  0  0  0  0  0  0  0  0  0  0
   11.0259   -2.2417   22.5277 C   0  0  0  0  0  0  0  0  0  0  0  0
   12.0357   -2.6641   22.5272 H   0  0  0  0  0  0  0  0  0  0  0  0
   11.0634   -1.2608   23.0088 H   0  0  0  0  0  0  0  0  0  0  0  0
   10.7632   -2.0604   21.4771 H   0  0  0  0  0  0  0  0  0  0  0  0
   10.4168   -4.1258   23.4832 H   0  0  0  0  0  0  0  0  0  0  0  0
    9.6947   -2.7095   24.1905 H   0  0  0  0  0  0  0  0  0  0  0  0
    8.0455   -2.0771   22.0447 C   0  0  0  0  0  0  0  0  0  0  0  0
    7.6749   -1.7693   20.8158 N   0  0  0  0  0  0  0  0  0  0  0  0
    7.1399   -0.5231   20.9471 N   0  0  0  0  0  0  0  0  0  0  0  0
    6.4794    0.0855   19.8388 C   0  0  0  0  0  0  0  0  0  0  0  0
    5.2648    0.7694   19.9891 C   0  0  0  0  0  0  0  0  0  0  0  0
    4.7263    1.4137   18.8686 C   0  0  0  0  0  0  0  0  0  0  0  0
    5.4074    1.3456   17.6501 C   0  0  0  0  0  0  0  0  0  0  0  0
    6.5442    0.6459   17.4859 N   0  0  0  0  0  0  0  0  0  0  0  0
    7.0520    0.0183   18.5528 C   0  0  0  0  0  0  0  0  0  0  0  0
    7.9512   -0.5700   18.3852 H   0  0  0  0  0  0  0  0  0  0  0  0
    5.0268    1.8572   16.7683 H   0  0  0  0  0  0  0  0  0  0  0  0
    3.8041    1.9814   18.9367 H   0  0  0  0  0  0  0  0  0  0  0  0
    4.7477    0.7814   20.9499 H   0  0  0  0  0  0  0  0  0  0  0  0
    7.2871   -0.1173   22.2471 C   0  0  0  0  0  0  0  0  0  0  0  0
    7.1403    1.2840   22.8138 C   0  0  0  0  0  0  0  0  0  0  0  0
    8.4301    1.8315   23.4210 C   0  0  0  0  0  0  0  0  0  0  0  0
    9.4722    2.2229   22.6403 C   0  0  0  0  0  0  0  0  0  0  0  0
    9.4480    2.2805   21.1550 C   0  0  0  0  0  0  0  0  0  0  0  0
    8.7139    3.0100   20.8056 H   0  0  0  0  0  0  0  0  0  0  0  0
   10.4268    2.5413   20.7429 H   0  0  0  0  0  0  0  0  0  0  0  0
    9.1407    1.3155   20.7368 H   0  0  0  0  0  0  0  0  0  0  0  0
   10.6690    2.5491   23.2520 N   0  0  0  0  0  0  0  0  0  0  0  0
   10.9884    2.1477   24.5244 C   0  0  0  0  0  0  0  0  0  0  0  0
   12.1371    2.0096   24.8661 O   0  0  0  0  0  0  0  0  0  0  0  0
    9.9269    1.9363   25.3299 N   0  0  0  0  0  0  0  0  0  0  0  0
    8.6537    1.6682   24.8740 C   0  0  0  0  0  0  0  0  0  0  0  0
    7.8356    1.3066   25.6936 O   0  0  0  0  0  0  0  0  0  0  0  0
   10.1188    1.5798   26.2473 H   0  0  0  0  0  0  0  0  0  0  0  0
   11.5331    2.5750   22.7348 H   0  0  0  0  0  0  0  0  0  0  0  0
    6.7411    1.9468   22.0327 H   0  0  0  0  0  0  0  0  0  0  0  0
    6.4047    1.2178   23.6216 H   0  0  0  0  0  0  0  0  0  0  0  0
    7.7982   -1.1097   22.9609 N   0  0  0  0  0  0  0  0  0  0  0  0
    9.0688   -3.6819   21.3504 H   0  0  0  0  0  0  0  0  0  0  0  0
    7.0253   -4.6745   22.1508 H   0  0  0  0  0  0  0  0  0  0  0  0
    8.4138   -5.4216   22.9095 H   0  0  0  0  0  0  0  0  0  0  0  0
    6.5123   -4.9840   24.5629 H   0  0  0  0  0  0  0  0  0  0  0  0
    8.0170   -4.1839   25.0225 H   0  0  0  0  0  0  0  0  0  0  0  0
    6.7225   -3.2442   24.2780 H   0  0  0  0  0  0  0  0  0  0  0  0
  1  2  1  0
  2  3  1  0
  3  4  1  0
  4  5  1  0
  5  6  1  0
  5  7  1  0
  5  8  1  0
  4  9  1  0
  4 10  1  0
  3 11  1  0
 11 12  2  0
 12 13  1  0
 13 14  1  0
 14 15  2  0
 15 16  1  0
 16 17  2  0
 17 18  1  0
 18 19  2  0
 19 20  1  0
 17 21  1  0
 16 22  1  0
 15 23  1  0
 13 24  1  0
 24 25  1  0
 25 26  1  0
 26 27  2  0
 27 28  1  0
 28 29  1  0
 28 30  1  0
 28 31  1  0
 27 32  1  0
 32 33  1  0
 33 34  2  0
 33 35  1  0
 35 36  1  0
 36 37  2  0
 35 38  1  0
 32 39  1  0
 25 40  1  0
 25 41  1  0
 24 42  2  0
  3 43  1  0
  2 44  1  0
  2 45  1  0
  1 46  1  0
  1 47  1  0
  1 48  1  0
 42 11  1  0
 19 14  1  0
 36 26  1  0
M  END
>  <cnnaffinity>  (1) 
-6.25881

>  <filename>  (1) 
CCC(CC)c1nc(Cc2c(C)[nH]c(=O)[nH]c2=O)n(-c2cccnc2)n1

$$$$
