
     RDKit          3D

 44 46  0  0  0  0  0  0  0  0999 V2000
    8.6702   -5.5434   23.8285 C   0  0  0  0  0  0  0  0  0  0  0  0
    8.0754   -4.1643   23.5305 C   0  0  0  0  0  0  0  0  0  0  0  0
    8.9156   -3.3922   22.4910 C   0  0  0  0  0  0  0  0  0  0  0  0
   10.2643   -3.2740   22.9567 O   0  0  0  0  0  0  0  0  0  0  0  0
   10.3116   -2.5221   23.5733 H   0  0  0  0  0  0  0  0  0  0  0  0
    8.2997   -2.0684   22.0844 C   0  0  0  0  0  0  0  0  0  0  0  0
    7.8307   -1.7952   20.8813 N   0  0  0  0  0  0  0  0  0  0  0  0
    7.3572   -0.5297   21.0085 N   0  0  0  0  0  0  0  0  0  0  0  0
    6.6556    0.0933   19.9308 C   0  0  0  0  0  0  0  0  0  0  0  0
    5.4382    0.7521   20.1407 C   0  0  0  0  0  0  0  0  0  0  0  0
    4.8250    1.3681   19.0450 C   0  0  0  0  0  0  0  0  0  0  0  0
    5.4370    1.3037   17.7912 C   0  0  0  0  0  0  0  0  0  0  0  0
    6.5788    0.6270   17.5732 N   0  0  0  0  0  0  0  0  0  0  0  0
    7.1582    0.0256   18.6168 C   0  0  0  0  0  0  0  0  0  0  0  0
    8.0549   -0.5479   18.3967 H   0  0  0  0  0  0  0  0  0  0  0  0
    4.9885    1.7973   16.9293 H   0  0  0  0  0  0  0  0  0  0  0  0
    3.8839    1.8976   19.1515 H   0  0  0  0  0  0  0  0  0  0  0  0
    4.9615    0.7704   21.1212 H   0  0  0  0  0  0  0  0  0  0  0  0
    7.6230   -0.0907   22.2760 C   0  0  0  0  0  0  0  0  0  0  0  0
    7.4533    1.3072   22.7575 C   0  0  0  0  0  0  0  0  0  0  0  0
    7.7954    2.1881   21.6960 O   0  0  0  0  0  0  0  0  0  0  0  0
    8.0125    3.4741   22.1015 C   0  0  0  0  0  0  0  0  0  0  0  0
    6.9282    4.3580   22.1866 C   0  0  0  0  0  0  0  0  0  0  0  0
    5.3105    3.7863   21.8722 Cl  0  0  0  0  0  0  0  0  0  0  0  0
    7.1314    5.7023   22.4932 C   0  0  0  0  0  0  0  0  0  0  0  0
    8.4203    6.1531   22.7730 C   0  0  0  0  0  0  0  0  0  0  0  0
    9.4969    5.2590   22.7510 C   0  0  0  0  0  0  0  0  0  0  0  0
    9.3243    3.9130   22.3953 C   0  0  0  0  0  0  0  0  0  0  0  0
   10.5118    2.9833   22.2266 C   0  0  0  0  0  0  0  0  0  0  0  0
   10.5628    2.2333   23.0256 H   0  0  0  0  0  0  0  0  0  0  0  0
   10.4454    2.4467   21.2723 H   0  0  0  0  0  0  0  0  0  0  0  0
   11.4549    3.5416   22.2206 H   0  0  0  0  0  0  0  0  0  0  0  0
   10.4975    5.6226   22.9738 H   0  0  0  0  0  0  0  0  0  0  0  0
    8.5888    7.2094   22.9635 H   0  0  0  0  0  0  0  0  0  0  0  0
    6.2789    6.3713   22.5235 H   0  0  0  0  0  0  0  0  0  0  0  0
    6.4261    1.4811   23.1050 H   0  0  0  0  0  0  0  0  0  0  0  0
    8.1212    1.4528   23.6204 H   0  0  0  0  0  0  0  0  0  0  0  0
    8.1833   -1.0517   22.9806 N   0  0  0  0  0  0  0  0  0  0  0  0
    8.9179   -3.9886   21.5693 H   0  0  0  0  0  0  0  0  0  0  0  0
    8.0004   -3.5676   24.4526 H   0  0  0  0  0  0  0  0  0  0  0  0
    7.0563   -4.2956   23.1384 H   0  0  0  0  0  0  0  0  0  0  0  0
    8.8424   -6.0991   22.8962 H   0  0  0  0  0  0  0  0  0  0  0  0
    7.9797   -6.1279   24.4411 H   0  0  0  0  0  0  0  0  0  0  0  0
    9.6241   -5.4667   24.3646 H   0  0  0  0  0  0  0  0  0  0  0  0
  1  2  1  0
  2  3  1  0
  3  4  1  0
  4  5  1  0
  3  6  1  0
  6  7  2  0
  7  8  1  0
  8  9  1  0
  9 10  2  0
 10 11  1  0
 11 12  2  0
 12 13  1  0
 13 14  2  0
 14 15  1  0
 12 16  1  0
 11 17  1  0
 10 18  1  0
  8 19  1  0
 19 20  1  0
 20 21  1  0
 21 22  1  0
 22 23  2  0
 23 24  1  0
 23 25  1  0
 25 26  2  0
 26 27  1  0
 27 28  2  0
 28 29  1  0
 29 30  1  0
 29 31  1  0
 29 32  1  0
 27 33  1  0
 26 34  1  0
 25 35  1  0
 20 36  1  0
 20 37  1  0
 19 38  2  0
  3 39  1  0
  2 40  1  0
  2 41  1  0
  1 42  1  0
  1 43  1  0
  1 44  1  0
 38  6  1  0
 14  9  1  0
 28 22  1  0
M  END
>  <cnnaffinity>  (1) 
-5.99266

>  <filename>  (1) 
CCC(O)c1nc(COc2c(C)cccc2Cl)n(-c2cccnc2)n1

$$$$
