
     RDKit          3D

 50 52  0  0  0  0  0  0  0  0999 V2000
    6.9095   -5.6096   23.9857 C   0  0  0  0  0  0  0  0  0  0  0  0
    6.8631   -4.4392   23.0083 C   0  0  0  0  0  0  0  0  0  0  0  0
    7.3429   -3.1029   23.6095 C   0  0  0  0  0  0  0  0  0  0  0  0
    6.4206   -2.5243   24.7095 C   0  0  0  0  0  0  0  0  0  0  0  0
    6.9674   -1.2452   25.3469 C   0  0  0  0  0  0  0  0  0  0  0  0
    7.9424   -1.4180   25.8183 H   0  0  0  0  0  0  0  0  0  0  0  0
    6.2895   -0.8798   26.1249 H   0  0  0  0  0  0  0  0  0  0  0  0
    7.0946   -0.4375   24.6169 H   0  0  0  0  0  0  0  0  0  0  0  0
    6.2794   -3.2774   25.4937 H   0  0  0  0  0  0  0  0  0  0  0  0
    5.4236   -2.3322   24.2938 H   0  0  0  0  0  0  0  0  0  0  0  0
    7.6190   -2.0924   22.5240 C   0  0  0  0  0  0  0  0  0  0  0  0
    6.6979   -1.6157   21.7091 N   0  0  0  0  0  0  0  0  0  0  0  0
    7.3757   -0.6822   20.9802 N   0  0  0  0  0  0  0  0  0  0  0  0
    6.7021   -0.0026   19.9195 C   0  0  0  0  0  0  0  0  0  0  0  0
    5.4864    0.6465   20.1751 C   0  0  0  0  0  0  0  0  0  0  0  0
    4.8533    1.3123   19.1200 C   0  0  0  0  0  0  0  0  0  0  0  0
    5.4389    1.2836   17.8500 C   0  0  0  0  0  0  0  0  0  0  0  0
    6.5743    0.6220   17.5819 N   0  0  0  0  0  0  0  0  0  0  0  0
    7.1856   -0.0059   18.5957 C   0  0  0  0  0  0  0  0  0  0  0  0
    8.0874   -0.5584   18.3356 H   0  0  0  0  0  0  0  0  0  0  0  0
    4.9694    1.7958   17.0127 H   0  0  0  0  0  0  0  0  0  0  0  0
    3.9241    1.8491   19.2765 H   0  0  0  0  0  0  0  0  0  0  0  0
    5.0583    0.6050   21.1767 H   0  0  0  0  0  0  0  0  0  0  0  0
    8.6625   -0.6206   21.4398 C   0  0  0  0  0  0  0  0  0  0  0  0
    9.6806    0.4497   21.0955 C   0  0  0  0  0  0  0  0  0  0  0  0
    9.9520    1.5094   22.1401 N   0  0  0  0  0  0  0  0  0  0  0  0
   11.0864    2.3738   21.7807 C   0  0  0  0  0  0  0  0  0  0  0  0
   11.4653    3.3311   22.9031 C   0  0  0  0  0  0  0  0  0  0  0  0
   10.4008    4.3735   23.2354 C   0  0  0  0  0  0  0  0  0  0  0  0
    9.0653    3.7210   23.5803 C   0  0  0  0  0  0  0  0  0  0  0  0
    8.5513    2.3729   22.5387 S   0  0  0  0  0  0  0  0  0  0  0  0
    7.7180    1.5125   23.3506 O   0  0  0  0  0  0  0  0  0  0  0  0
    8.0346    2.8988   21.2918 O   0  0  0  0  0  0  0  0  0  0  0  0
    9.0555    3.2831   24.5796 H   0  0  0  0  0  0  0  0  0  0  0  0
    8.2299    4.4168   23.4948 H   0  0  0  0  0  0  0  0  0  0  0  0
   10.7174    4.9577   24.1100 H   0  0  0  0  0  0  0  0  0  0  0  0
   10.2869    5.0924   22.4130 H   0  0  0  0  0  0  0  0  0  0  0  0
   12.3858    3.8461   22.6174 H   0  0  0  0  0  0  0  0  0  0  0  0
   11.6976    2.7338   23.7897 H   0  0  0  0  0  0  0  0  0  0  0  0
   11.9359    1.6997   21.6088 H   0  0  0  0  0  0  0  0  0  0  0  0
   10.9079    2.9053   20.8357 H   0  0  0  0  0  0  0  0  0  0  0  0
    9.4134    0.8930   20.1245 H   0  0  0  0  0  0  0  0  0  0  0  0
   10.6230   -0.1032   20.9644 H   0  0  0  0  0  0  0  0  0  0  0  0
    8.8553   -1.5672   22.3430 N   0  0  0  0  0  0  0  0  0  0  0  0
    8.3289   -3.2758   24.0595 H   0  0  0  0  0  0  0  0  0  0  0  0
    5.8517   -4.3251   22.5964 H   0  0  0  0  0  0  0  0  0  0  0  0
    7.5093   -4.6796   22.1541 H   0  0  0  0  0  0  0  0  0  0  0  0
    6.6461   -6.5325   23.4626 H   0  0  0  0  0  0  0  0  0  0  0  0
    7.9144   -5.7383   24.4058 H   0  0  0  0  0  0  0  0  0  0  0  0
    6.2150   -5.4927   24.8244 H   0  0  0  0  0  0  0  0  0  0  0  0
  1  2  1  0
  2  3  1  0
  3  4  1  0
  4  5  1  0
  5  6  1  0
  5  7  1  0
  5  8  1  0
  4  9  1  0
  4 10  1  0
  3 11  1  0
 11 12  2  0
 12 13  1  0
 13 14  1  0
 14 15  2  0
 15 16  1  0
 16 17  2  0
 17 18  1  0
 18 19  2  0
 19 20  1  0
 17 21  1  0
 16 22  1  0
 15 23  1  0
 13 24  1  0
 24 25  1  0
 25 26  1  0
 26 27  1  0
 27 28  1  0
 28 29  1  0
 29 30  1  0
 30 31  1  0
 31 32  2  0
 31 33  2  0
 30 34  1  0
 30 35  1  0
 29 36  1  0
 29 37  1  0
 28 38  1  0
 28 39  1  0
 27 40  1  0
 27 41  1  0
 25 42  1  0
 25 43  1  0
 24 44  2  0
  3 45  1  0
  2 46  1  0
  2 47  1  0
  1 48  1  0
  1 49  1  0
  1 50  1  0
 44 11  1  0
 19 14  1  0
 31 26  1  0
M  END
>  <cnnaffinity>  (1) 
-6.08979

>  <filename>  (1) 
CCC(CC)c1nc(CN2CCCCS2(=O)=O)n(-c2cccnc2)n1

$$$$
