
     RDKit          3D

 39 41  0  0  0  0  0  0  0  0999 V2000
    7.0687   -4.9659   21.7793 C   0  0  0  0  0  0  0  0  0  0  0  0
    7.8685   -4.5005   23.0024 C   0  0  0  0  0  0  0  0  0  0  0  0
    7.4369   -3.1295   23.5582 C   0  0  0  0  0  0  0  0  0  0  0  0
    6.1457   -3.3169   24.1326 O   0  0  0  0  0  0  0  0  0  0  0  0
    5.7835   -2.4688   24.4299 H   0  0  0  0  0  0  0  0  0  0  0  0
    7.5758   -2.0483   22.5005 C   0  0  0  0  0  0  0  0  0  0  0  0
    6.6430   -1.6192   21.6728 N   0  0  0  0  0  0  0  0  0  0  0  0
    7.3032   -0.6995   20.9248 N   0  0  0  0  0  0  0  0  0  0  0  0
    6.6377   -0.0097   19.8789 C   0  0  0  0  0  0  0  0  0  0  0  0
    5.4296    0.6372   20.1438 C   0  0  0  0  0  0  0  0  0  0  0  0
    4.8010    1.3169   19.0981 C   0  0  0  0  0  0  0  0  0  0  0  0
    5.3896    1.3007   17.8261 C   0  0  0  0  0  0  0  0  0  0  0  0
    6.5375    0.6607   17.5607 N   0  0  0  0  0  0  0  0  0  0  0  0
    7.1488    0.0321   18.5679 C   0  0  0  0  0  0  0  0  0  0  0  0
    8.0953   -0.4489   18.3285 H   0  0  0  0  0  0  0  0  0  0  0  0
    4.9278    1.8181   16.9881 H   0  0  0  0  0  0  0  0  0  0  0  0
    3.8703    1.8539   19.2506 H   0  0  0  0  0  0  0  0  0  0  0  0
    5.0168    0.5893   21.1530 H   0  0  0  0  0  0  0  0  0  0  0  0
    8.5874   -0.5947   21.3707 C   0  0  0  0  0  0  0  0  0  0  0  0
    9.6423    0.2941   20.8029 C   0  0  0  0  0  0  0  0  0  0  0  0
   10.3454    1.1193   21.8600 C   0  0  0  0  0  0  0  0  0  0  0  0
    9.7442    2.2294   22.4815 C   0  0  0  0  0  0  0  0  0  0  0  0
    8.1673    2.7632   21.9786 Cl  0  0  0  0  0  0  0  0  0  0  0  0
   10.3768    2.8801   23.5527 C   0  0  0  0  0  0  0  0  0  0  0  0
   11.5646    2.4783   24.0325 N   0  0  0  0  0  0  0  0  0  0  0  0
   12.1651    1.4297   23.4510 C   0  0  0  0  0  0  0  0  0  0  0  0
   11.5897    0.7441   22.3784 C   0  0  0  0  0  0  0  0  0  0  0  0
   12.2375   -0.3141   21.8602 F   0  0  0  0  0  0  0  0  0  0  0  0
   13.1257    1.0944   23.8414 H   0  0  0  0  0  0  0  0  0  0  0  0
    9.8975    3.7294   24.0428 H   0  0  0  0  0  0  0  0  0  0  0  0
    9.1942    0.9493   20.0555 H   0  0  0  0  0  0  0  0  0  0  0  0
   10.3449   -0.3818   20.3088 H   0  0  0  0  0  0  0  0  0  0  0  0
    8.7919   -1.4589   22.3429 N   0  0  0  0  0  0  0  0  0  0  0  0
    8.1786   -2.8257   24.3160 H   0  0  0  0  0  0  0  0  0  0  0  0
    8.9410   -4.4359   22.7683 H   0  0  0  0  0  0  0  0  0  0  0  0
    7.7649   -5.2140   23.8306 H   0  0  0  0  0  0  0  0  0  0  0  0
    5.9978   -5.0105   22.0126 H   0  0  0  0  0  0  0  0  0  0  0  0
    7.3942   -5.9632   21.4641 H   0  0  0  0  0  0  0  0  0  0  0  0
    7.1896   -4.2830   20.9284 H   0  0  0  0  0  0  0  0  0  0  0  0
  1  2  1  0
  2  3  1  0
  3  4  1  0
  4  5  1  0
  3  6  1  0
  6  7  2  0
  7  8  1  0
  8  9  1  0
  9 10  2  0
 10 11  1  0
 11 12  2  0
 12 13  1  0
 13 14  2  0
 14 15  1  0
 12 16  1  0
 11 17  1  0
 10 18  1  0
  8 19  1  0
 19 20  1  0
 20 21  1  0
 21 22  2  0
 22 23  1  0
 22 24  1  0
 24 25  2  0
 25 26  1  0
 26 27  2  0
 27 28  1  0
 26 29  1  0
 24 30  1  0
 20 31  1  0
 20 32  1  0
 19 33  2  0
  3 34  1  0
  2 35  1  0
  2 36  1  0
  1 37  1  0
  1 38  1  0
  1 39  1  0
 33  6  1  0
 14  9  1  0
 27 21  1  0
M  END
>  <cnnaffinity>  (1) 
-6.40449

>  <filename>  (1) 
CCC(O)c1nc(Cc2c(F)cncc2Cl)n(-c2cccnc2)n1

$$$$
