
     RDKit          3D

 48 50  0  0  0  0  0  0  0  0999 V2000
    7.6575   -4.9829   22.3548 C   0  0  0  0  0  0  0  0  0  0  0  0
    6.7143   -4.2419   23.3055 C   0  0  0  0  0  0  0  0  0  0  0  0
    7.2876   -2.8898   23.7836 C   0  0  0  0  0  0  0  0  0  0  0  0
    6.4698   -2.2124   24.8984 C   0  0  0  0  0  0  0  0  0  0  0  0
    6.9760   -1.2899   25.2137 H   0  0  0  0  0  0  0  0  0  0  0  0
    5.4624   -1.9511   24.5571 H   0  0  0  0  0  0  0  0  0  0  0  0
    6.3871   -2.8703   25.7708 H   0  0  0  0  0  0  0  0  0  0  0  0
    7.5128   -1.9301   22.6416 C   0  0  0  0  0  0  0  0  0  0  0  0
    6.6169   -1.6387   21.7142 N   0  0  0  0  0  0  0  0  0  0  0  0
    7.2915   -0.7759   20.9015 N   0  0  0  0  0  0  0  0  0  0  0  0
    6.6056   -0.0782   19.8652 C   0  0  0  0  0  0  0  0  0  0  0  0
    5.4110    0.6002   20.1347 C   0  0  0  0  0  0  0  0  0  0  0  0
    4.8068    1.3086   19.0918 C   0  0  0  0  0  0  0  0  0  0  0  0
    5.4070    1.3089   17.8257 C   0  0  0  0  0  0  0  0  0  0  0  0
    6.5443    0.6482   17.5543 N   0  0  0  0  0  0  0  0  0  0  0  0
    7.1205   -0.0245   18.5586 C   0  0  0  0  0  0  0  0  0  0  0  0
    8.0508   -0.5430   18.3335 H   0  0  0  0  0  0  0  0  0  0  0  0
    4.9521    1.8492   16.9972 H   0  0  0  0  0  0  0  0  0  0  0  0
    3.8834    1.8567   19.2506 H   0  0  0  0  0  0  0  0  0  0  0  0
    4.9764    0.5714   21.1352 H   0  0  0  0  0  0  0  0  0  0  0  0
    8.5521   -0.5877   21.4031 C   0  0  0  0  0  0  0  0  0  0  0  0
    9.6328    0.1591   20.6972 C   0  0  0  0  0  0  0  0  0  0  0  0
   10.7708    0.5066   21.6227 C   0  0  0  0  0  0  0  0  0  0  0  0
   11.8968   -0.3269   21.6719 C   0  0  0  0  0  0  0  0  0  0  0  0
   12.9587   -0.0826   22.5423 C   0  0  0  0  0  0  0  0  0  0  0  0
   12.8938    1.0185   23.3973 C   0  0  0  0  0  0  0  0  0  0  0  0
   11.7869    1.8659   23.3851 C   0  0  0  0  0  0  0  0  0  0  0  0
   10.7151    1.5953   22.5097 C   0  0  0  0  0  0  0  0  0  0  0  0
    9.3084    2.7251   22.4905 S   0  0  0  0  0  0  0  0  0  0  0  0
    9.6399    3.8684   23.3356 O   0  0  0  0  0  0  0  0  0  0  0  0
    8.8729    2.9265   21.1095 O   0  0  0  0  0  0  0  0  0  0  0  0
    7.9572    1.8898   23.2932 C   0  0  0  0  0  0  0  0  0  0  0  0
    7.3784    2.6936   23.7510 H   0  0  0  0  0  0  0  0  0  0  0  0
    7.3530    1.3891   22.5363 H   0  0  0  0  0  0  0  0  0  0  0  0
    8.3455    1.1711   24.0132 H   0  0  0  0  0  0  0  0  0  0  0  0
   11.7700    2.7334   24.0462 H   0  0  0  0  0  0  0  0  0  0  0  0
   13.7179    1.2207   24.0717 H   0  0  0  0  0  0  0  0  0  0  0  0
   13.8199   -0.7447   22.5504 H   0  0  0  0  0  0  0  0  0  0  0  0
   11.9476   -1.1676   20.9876 H   0  0  0  0  0  0  0  0  0  0  0  0
    9.2054    1.0501   20.2453 H   0  0  0  0  0  0  0  0  0  0  0  0
    9.9948   -0.4864   19.8924 H   0  0  0  0  0  0  0  0  0  0  0  0
    8.6923   -1.2724   22.5194 N   0  0  0  0  0  0  0  0  0  0  0  0
    8.2868   -3.0739   24.2000 H   0  0  0  0  0  0  0  0  0  0  0  0
    5.7547   -4.0627   22.8007 H   0  0  0  0  0  0  0  0  0  0  0  0
    6.5110   -4.8708   24.1836 H   0  0  0  0  0  0  0  0  0  0  0  0
    8.6192   -5.2079   22.8360 H   0  0  0  0  0  0  0  0  0  0  0  0
    7.2150   -5.9343   22.0401 H   0  0  0  0  0  0  0  0  0  0  0  0
    7.8577   -4.3899   21.4533 H   0  0  0  0  0  0  0  0  0  0  0  0
  1  2  1  0
  2  3  1  0
  3  4  1  0
  4  5  1  0
  4  6  1  0
  4  7  1  0
  3  8  1  0
  8  9  2  0
  9 10  1  0
 10 11  1  0
 11 12  2  0
 12 13  1  0
 13 14  2  0
 14 15  1  0
 15 16  2  0
 16 17  1  0
 14 18  1  0
 13 19  1  0
 12 20  1  0
 10 21  1  0
 21 22  1  0
 22 23  1  0
 23 24  2  0
 24 25  1  0
 25 26  2  0
 26 27  1  0
 27 28  2  0
 28 29  1  0
 29 30  2  0
 29 31  2  0
 29 32  1  0
 32 33  1  0
 32 34  1  0
 32 35  1  0
 27 36  1  0
 26 37  1  0
 25 38  1  0
 24 39  1  0
 22 40  1  0
 22 41  1  0
 21 42  2  0
  3 43  1  0
  2 44  1  0
  2 45  1  0
  1 46  1  0
  1 47  1  0
  1 48  1  0
 42  8  1  0
 16 11  1  0
 28 23  1  0
M  END
>  <cnnaffinity>  (1) 
-6.57533

>  <filename>  (1) 
CCC(C)c1nc(Cc2ccccc2S(C)(=O)=O)n(-c2cccnc2)n1

$$$$
