
     RDKit          3D

 44 46  0  0  0  0  0  0  0  0999 V2000
   13.1476   -1.2643   22.0673 C   0  0  0  0  0  0  0  0  0  0  0  0
   11.7580   -0.7992   21.6495 C   0  0  0  0  0  0  0  0  0  0  0  0
   10.6521   -1.0302   22.7020 C   0  0  0  0  0  0  0  0  0  0  0  0
   10.7817   -0.2292   24.0294 C   0  0  0  0  0  0  0  0  0  0  0  0
   10.5341    1.2744   23.9280 C   0  0  0  0  0  0  0  0  0  0  0  0
    9.5445    1.4957   23.5113 H   0  0  0  0  0  0  0  0  0  0  0  0
   11.2827    1.7658   23.2947 H   0  0  0  0  0  0  0  0  0  0  0  0
   10.5961    1.7333   24.9228 H   0  0  0  0  0  0  0  0  0  0  0  0
   10.0749   -0.6617   24.7514 H   0  0  0  0  0  0  0  0  0  0  0  0
   11.7787   -0.3953   24.4557 H   0  0  0  0  0  0  0  0  0  0  0  0
    9.2921   -0.8548   22.0720 C   0  0  0  0  0  0  0  0  0  0  0  0
    9.0004    0.0183   21.1201 N   0  0  0  0  0  0  0  0  0  0  0  0
    7.6763   -0.1972   20.8947 N   0  0  0  0  0  0  0  0  0  0  0  0
    7.0027    0.4595   19.8217 C   0  0  0  0  0  0  0  0  0  0  0  0
    5.7970    1.1548   20.0005 C   0  0  0  0  0  0  0  0  0  0  0  0
    5.1397    1.6536   18.8709 C   0  0  0  0  0  0  0  0  0  0  0  0
    5.6928    1.4249   17.6090 C   0  0  0  0  0  0  0  0  0  0  0  0
    6.8752    0.8062   17.4366 N   0  0  0  0  0  0  0  0  0  0  0  0
    7.5268    0.3722   18.5196 C   0  0  0  0  0  0  0  0  0  0  0  0
    8.4934   -0.0964   18.3489 H   0  0  0  0  0  0  0  0  0  0  0  0
    5.1715    1.7411   16.7069 H   0  0  0  0  0  0  0  0  0  0  0  0
    4.2154    2.2166   18.9655 H   0  0  0  0  0  0  0  0  0  0  0  0
    5.3933    1.3102   21.0010 H   0  0  0  0  0  0  0  0  0  0  0  0
    7.2629   -1.2294   21.6786 C   0  0  0  0  0  0  0  0  0  0  0  0
    5.9125   -1.8615   21.5595 C   0  0  0  0  0  0  0  0  0  0  0  0
    5.7487   -2.8296   20.4156 C   0  0  0  0  0  0  0  0  0  0  0  0
    5.3982   -2.6159   19.1239 C   0  0  0  0  0  0  0  0  0  0  0  0
    5.4123   -3.7632   18.4478 O   0  0  0  0  0  0  0  0  0  0  0  0
    5.8151   -4.7857   19.2862 N   0  0  0  0  0  0  0  0  0  0  0  0
    6.0390   -4.2299   20.4480 C   0  0  0  0  0  0  0  0  0  0  0  0
    6.6123   -4.9597   21.6198 C   0  0  0  0  0  0  0  0  0  0  0  0
    7.4758   -4.3792   21.9651 H   0  0  0  0  0  0  0  0  0  0  0  0
    6.9538   -5.9660   21.3647 H   0  0  0  0  0  0  0  0  0  0  0  0
    5.9045   -5.0166   22.4577 H   0  0  0  0  0  0  0  0  0  0  0  0
    5.1120   -1.7391   18.5557 H   0  0  0  0  0  0  0  0  0  0  0  0
    5.1786   -1.0679   21.4359 H   0  0  0  0  0  0  0  0  0  0  0  0
    5.7146   -2.3493   22.5189 H   0  0  0  0  0  0  0  0  0  0  0  0
    8.2520   -1.6496   22.4430 N   0  0  0  0  0  0  0  0  0  0  0  0
   10.6729   -2.0913   22.9861 H   0  0  0  0  0  0  0  0  0  0  0  0
   11.4687   -1.3661   20.7596 H   0  0  0  0  0  0  0  0  0  0  0  0
   11.7544    0.2559   21.3455 H   0  0  0  0  0  0  0  0  0  0  0  0
   13.1252   -2.3399   22.2775 H   0  0  0  0  0  0  0  0  0  0  0  0
   13.5121   -0.7413   22.9580 H   0  0  0  0  0  0  0  0  0  0  0  0
   13.8757   -1.1024   21.2643 H   0  0  0  0  0  0  0  0  0  0  0  0
  1  2  1  0
  2  3  1  0
  3  4  1  0
  4  5  1  0
  5  6  1  0
  5  7  1  0
  5  8  1  0
  4  9  1  0
  4 10  1  0
  3 11  1  0
 11 12  2  0
 12 13  1  0
 13 14  1  0
 14 15  2  0
 15 16  1  0
 16 17  2  0
 17 18  1  0
 18 19  2  0
 19 20  1  0
 17 21  1  0
 16 22  1  0
 15 23  1  0
 13 24  1  0
 24 25  1  0
 25 26  1  0
 26 27  2  0
 27 28  1  0
 28 29  1  0
 29 30  2  0
 30 31  1  0
 31 32  1  0
 31 33  1  0
 31 34  1  0
 27 35  1  0
 25 36  1  0
 25 37  1  0
 24 38  2  0
  3 39  1  0
  2 40  1  0
  2 41  1  0
  1 42  1  0
  1 43  1  0
  1 44  1  0
 38 11  1  0
 19 14  1  0
 30 26  1  0
M  END
>  <cnnaffinity>  (1) 
-5.90956

>  <filename>  (1) 
CCC(CC)c1nc(Cc2conc2C)n(-c2cccnc2)n1

$$$$
