
     RDKit          3D

 43 45  0  0  0  0  0  0  0  0999 V2000
    8.5217   -5.6882   23.6081 C   0  0  0  0  0  0  0  0  0  0  0  0
    8.0331   -4.2631   23.3434 C   0  0  0  0  0  0  0  0  0  0  0  0
    8.9091   -3.4911   22.3457 C   0  0  0  0  0  0  0  0  0  0  0  0
   10.2191   -3.4539   22.9208 O   0  0  0  0  0  0  0  0  0  0  0  0
   10.8837   -3.2219   22.2531 H   0  0  0  0  0  0  0  0  0  0  0  0
    8.3288   -2.1363   22.0026 C   0  0  0  0  0  0  0  0  0  0  0  0
    7.7844   -1.8913   20.8233 N   0  0  0  0  0  0  0  0  0  0  0  0
    7.3633   -0.6073   20.9456 N   0  0  0  0  0  0  0  0  0  0  0  0
    6.6400    0.0318   19.8991 C   0  0  0  0  0  0  0  0  0  0  0  0
    5.4253    0.6849   20.1406 C   0  0  0  0  0  0  0  0  0  0  0  0
    4.8071    1.3308   19.0662 C   0  0  0  0  0  0  0  0  0  0  0  0
    5.4174    1.2998   17.8100 C   0  0  0  0  0  0  0  0  0  0  0  0
    6.5691    0.6487   17.5689 N   0  0  0  0  0  0  0  0  0  0  0  0
    7.1550    0.0182   18.5914 C   0  0  0  0  0  0  0  0  0  0  0  0
    8.0811   -0.5130   18.3791 H   0  0  0  0  0  0  0  0  0  0  0  0
    4.9638    1.8080   16.9623 H   0  0  0  0  0  0  0  0  0  0  0  0
    3.8716    1.8601   19.2023 H   0  0  0  0  0  0  0  0  0  0  0  0
    4.9739    0.6684   21.1342 H   0  0  0  0  0  0  0  0  0  0  0  0
    7.7188   -0.1437   22.1788 C   0  0  0  0  0  0  0  0  0  0  0  0
    7.6559    1.2752   22.6035 C   0  0  0  0  0  0  0  0  0  0  0  0
    8.6363    2.1845   21.8332 C   0  0  0  0  0  0  0  0  0  0  0  0
    8.4545    3.6104   22.2332 C   0  0  0  0  0  0  0  0  0  0  0  0
    7.4589    4.4107   21.7380 C   0  0  0  0  0  0  0  0  0  0  0  0
    7.4002    5.7963   22.0590 C   0  0  0  0  0  0  0  0  0  0  0  0
    8.2984    6.3270   22.9398 C   0  0  0  0  0  0  0  0  0  0  0  0
    9.2588    5.4649   23.6253 C   0  0  0  0  0  0  0  0  0  0  0  0
   10.0190    5.7971   24.5205 O   0  0  0  0  0  0  0  0  0  0  0  0
    9.2710    4.1337   23.2058 N   0  0  0  0  0  0  0  0  0  0  0  0
    9.9757    3.6037   23.6965 H   0  0  0  0  0  0  0  0  0  0  0  0
    8.3421    7.3748   23.2076 H   0  0  0  0  0  0  0  0  0  0  0  0
    6.6201    6.4095   21.6023 H   0  0  0  0  0  0  0  0  0  0  0  0
    6.7144    3.9798   21.0805 H   0  0  0  0  0  0  0  0  0  0  0  0
    9.6717    1.8636   21.9943 H   0  0  0  0  0  0  0  0  0  0  0  0
    8.4535    2.0926   20.7573 H   0  0  0  0  0  0  0  0  0  0  0  0
    7.8677    1.3029   23.6744 H   0  0  0  0  0  0  0  0  0  0  0  0
    6.6364    1.6426   22.4739 H   0  0  0  0  0  0  0  0  0  0  0  0
    8.2996   -1.0951   22.8708 N   0  0  0  0  0  0  0  0  0  0  0  0
    8.8754   -4.0217   21.3857 H   0  0  0  0  0  0  0  0  0  0  0  0
    8.0138   -3.6915   24.2799 H   0  0  0  0  0  0  0  0  0  0  0  0
    7.0052   -4.2883   22.9583 H   0  0  0  0  0  0  0  0  0  0  0  0
    9.4994   -5.6734   24.0989 H   0  0  0  0  0  0  0  0  0  0  0  0
    7.8236   -6.2120   24.2662 H   0  0  0  0  0  0  0  0  0  0  0  0
    8.6136   -6.2734   22.6836 H   0  0  0  0  0  0  0  0  0  0  0  0
  1  2  1  0
  2  3  1  0
  3  4  1  0
  4  5  1  0
  3  6  1  0
  6  7  2  0
  7  8  1  0
  8  9  1  0
  9 10  2  0
 10 11  1  0
 11 12  2  0
 12 13  1  0
 13 14  2  0
 14 15  1  0
 12 16  1  0
 11 17  1  0
 10 18  1  0
  8 19  1  0
 19 20  1  0
 20 21  1  0
 21 22  1  0
 22 23  2  0
 23 24  1  0
 24 25  2  0
 25 26  1  0
 26 27  2  0
 26 28  1  0
 28 29  1  0
 25 30  1  0
 24 31  1  0
 23 32  1  0
 21 33  1  0
 21 34  1  0
 20 35  1  0
 20 36  1  0
 19 37  2  0
  3 38  1  0
  2 39  1  0
  2 40  1  0
  1 41  1  0
  1 42  1  0
  1 43  1  0
 37  6  1  0
 14  9  1  0
 28 22  1  0
M  END
>  <cnnaffinity>  (1) 
-5.84973

>  <filename>  (1) 
CCC(O)c1nc(CCc2cccc(=O)[nH]2)n(-c2cccnc2)n1

$$$$
