
     RDKit          3D

 44 46  0  0  0  0  0  0  0  0999 V2000
    7.5708   -4.9906   22.3147 C   0  0  0  0  0  0  0  0  0  0  0  0
    6.7117   -4.1716   23.2740 C   0  0  0  0  0  0  0  0  0  0  0  0
    7.3988   -2.8751   23.7361 C   0  0  0  0  0  0  0  0  0  0  0  0
    6.5921   -2.1596   24.8370 C   0  0  0  0  0  0  0  0  0  0  0  0
    7.1081   -1.2581   25.1851 H   0  0  0  0  0  0  0  0  0  0  0  0
    5.6111   -1.8577   24.4565 H   0  0  0  0  0  0  0  0  0  0  0  0
    6.4362   -2.8173   25.6988 H   0  0  0  0  0  0  0  0  0  0  0  0
    7.6728   -1.9413   22.5826 C   0  0  0  0  0  0  0  0  0  0  0  0
    6.7396   -1.5907   21.7157 N   0  0  0  0  0  0  0  0  0  0  0  0
    7.3707   -0.6733   20.9356 N   0  0  0  0  0  0  0  0  0  0  0  0
    6.6605    0.0030   19.9026 C   0  0  0  0  0  0  0  0  0  0  0  0
    5.4433    0.6428   20.1669 C   0  0  0  0  0  0  0  0  0  0  0  0
    4.8136    1.3099   19.1109 C   0  0  0  0  0  0  0  0  0  0  0  0
    5.4001    1.2959   17.8386 C   0  0  0  0  0  0  0  0  0  0  0  0
    6.5597    0.6734   17.5769 N   0  0  0  0  0  0  0  0  0  0  0  0
    7.1687    0.0523   18.5930 C   0  0  0  0  0  0  0  0  0  0  0  0
    8.1139   -0.4348   18.3686 H   0  0  0  0  0  0  0  0  0  0  0  0
    4.9183    1.7853   16.9945 H   0  0  0  0  0  0  0  0  0  0  0  0
    3.8806    1.8388   19.2627 H   0  0  0  0  0  0  0  0  0  0  0  0
    5.0142    0.6110   21.1724 H   0  0  0  0  0  0  0  0  0  0  0  0
    8.6433   -0.5089   21.3976 C   0  0  0  0  0  0  0  0  0  0  0  0
    9.5296    0.6084   20.9463 C   0  0  0  0  0  0  0  0  0  0  0  0
    9.0609    2.0109   21.4391 C   0  0  0  0  0  0  0  0  0  0  0  0
    8.9363    2.0872   22.9448 C   0  0  0  0  0  0  0  0  0  0  0  0
    7.7036    1.8464   23.5777 C   0  0  0  0  0  0  0  0  0  0  0  0
    7.6247    1.8303   24.9705 C   0  0  0  0  0  0  0  0  0  0  0  0
    8.8005    2.0463   25.6891 C   0  0  0  0  0  0  0  0  0  0  0  0
    9.9845    2.2347   24.9695 C   0  0  0  0  0  0  0  0  0  0  0  0
   10.0660    2.2739   23.6351 N   0  0  0  0  0  0  0  0  0  0  0  0
   10.9382    2.3210   25.4704 H   0  0  0  0  0  0  0  0  0  0  0  0
    8.8116    2.0495   26.7742 H   0  0  0  0  0  0  0  0  0  0  0  0
    6.6788    1.6271   25.4816 H   0  0  0  0  0  0  0  0  0  0  0  0
    6.8383    1.6387   22.9658 H   0  0  0  0  0  0  0  0  0  0  0  0
    8.0947    2.2430   20.9818 H   0  0  0  0  0  0  0  0  0  0  0  0
    9.7757    2.7661   21.1051 H   0  0  0  0  0  0  0  0  0  0  0  0
    9.5902    0.6077   19.8552 H   0  0  0  0  0  0  0  0  0  0  0  0
   10.5315    0.3980   21.3288 H   0  0  0  0  0  0  0  0  0  0  0  0
    8.8674   -1.3179   22.4190 N   0  0  0  0  0  0  0  0  0  0  0  0
    8.3859   -3.1179   24.1414 H   0  0  0  0  0  0  0  0  0  0  0  0
    5.7614   -3.9059   22.7938 H   0  0  0  0  0  0  0  0  0  0  0  0
    6.4623   -4.7716   24.1582 H   0  0  0  0  0  0  0  0  0  0  0  0
    8.5296   -5.2571   22.7769 H   0  0  0  0  0  0  0  0  0  0  0  0
    7.0676   -5.9221   22.0362 H   0  0  0  0  0  0  0  0  0  0  0  0
    7.7883   -4.4352   21.3944 H   0  0  0  0  0  0  0  0  0  0  0  0
  1  2  1  0
  2  3  1  0
  3  4  1  0
  4  5  1  0
  4  6  1  0
  4  7  1  0
  3  8  1  0
  8  9  2  0
  9 10  1  0
 10 11  1  0
 11 12  2  0
 12 13  1  0
 13 14  2  0
 14 15  1  0
 15 16  2  0
 16 17  1  0
 14 18  1  0
 13 19  1  0
 12 20  1  0
 10 21  1  0
 21 22  1  0
 22 23  1  0
 23 24  1  0
 24 25  2  0
 25 26  1  0
 26 27  2  0
 27 28  1  0
 28 29  2  0
 28 30  1  0
 27 31  1  0
 26 32  1  0
 25 33  1  0
 23 34  1  0
 23 35  1  0
 22 36  1  0
 22 37  1  0
 21 38  2  0
  3 39  1  0
  2 40  1  0
  2 41  1  0
  1 42  1  0
  1 43  1  0
  1 44  1  0
 38  8  1  0
 16 11  1  0
 29 24  1  0
M  END
>  <cnnaffinity>  (1) 
-5.836

>  <filename>  (1) 
CCC(C)c1nc(CCc2ccccn2)n(-c2cccnc2)n1

$$$$
