
     RDKit          3D

 42 44  0  0  0  0  0  0  0  0999 V2000
    7.9343   -5.3845   24.3723 C   0  0  0  0  0  0  0  0  0  0  0  0
    8.3191   -4.2364   23.4422 C   0  0  0  0  0  0  0  0  0  0  0  0
    7.3893   -3.0214   23.6398 C   0  0  0  0  0  0  0  0  0  0  0  0
    7.6193   -2.3669   25.0130 C   0  0  0  0  0  0  0  0  0  0  0  0
    7.0209   -1.4543   25.1048 H   0  0  0  0  0  0  0  0  0  0  0  0
    8.6745   -2.1006   25.1522 H   0  0  0  0  0  0  0  0  0  0  0  0
    7.3226   -3.0528   25.8114 H   0  0  0  0  0  0  0  0  0  0  0  0
    7.6054   -2.0071   22.5534 C   0  0  0  0  0  0  0  0  0  0  0  0
    6.6489   -1.6025   21.7494 N   0  0  0  0  0  0  0  0  0  0  0  0
    7.2730   -0.6923   20.9717 N   0  0  0  0  0  0  0  0  0  0  0  0
    6.6455   -0.0072   19.9200 C   0  0  0  0  0  0  0  0  0  0  0  0
    5.4273    0.6312   20.1484 C   0  0  0  0  0  0  0  0  0  0  0  0
    4.8128    1.2977   19.0879 C   0  0  0  0  0  0  0  0  0  0  0  0
    5.4203    1.3005   17.8295 C   0  0  0  0  0  0  0  0  0  0  0  0
    6.5930    0.6802   17.5940 N   0  0  0  0  0  0  0  0  0  0  0  0
    7.1900    0.0479   18.6238 C   0  0  0  0  0  0  0  0  0  0  0  0
    8.1383   -0.4453   18.4343 H   0  0  0  0  0  0  0  0  0  0  0  0
    4.9221    1.8227   17.0192 H   0  0  0  0  0  0  0  0  0  0  0  0
    3.8755    1.8276   19.2296 H   0  0  0  0  0  0  0  0  0  0  0  0
    4.9874    0.6242   21.1448 H   0  0  0  0  0  0  0  0  0  0  0  0
    8.5977   -0.6045   21.3666 C   0  0  0  0  0  0  0  0  0  0  0  0
    9.6387    0.2553   20.7529 C   0  0  0  0  0  0  0  0  0  0  0  0
   10.4425    0.9531   21.8039 C   0  0  0  0  0  0  0  0  0  0  0  0
    9.9204    2.0300   22.5125 C   0  0  0  0  0  0  0  0  0  0  0  0
    8.1676    2.7228   22.1459 Br  0  0  0  0  0  0  0  0  0  0  0  0
   10.7198    2.5733   23.5162 C   0  0  0  0  0  0  0  0  0  0  0  0
   10.3627    3.5793   24.3127 O   0  0  0  0  0  0  0  0  0  0  0  0
   11.1634    3.6520   24.8579 H   0  0  0  0  0  0  0  0  0  0  0  0
   11.9397    2.1611   23.8497 N   0  0  0  0  0  0  0  0  0  0  0  0
   12.4465    1.1350   23.1587 C   0  0  0  0  0  0  0  0  0  0  0  0
   11.7242    0.5125   22.1367 C   0  0  0  0  0  0  0  0  0  0  0  0
   12.1688   -0.3225   21.6182 H   0  0  0  0  0  0  0  0  0  0  0  0
   13.4398    0.7703   23.4152 H   0  0  0  0  0  0  0  0  0  0  0  0
    9.1611    0.9862   20.0989 H   0  0  0  0  0  0  0  0  0  0  0  0
   10.2776   -0.4028   20.1672 H   0  0  0  0  0  0  0  0  0  0  0  0
    8.8394   -1.4249   22.3448 N   0  0  0  0  0  0  0  0  0  0  0  0
    6.3483   -3.3488   23.5706 H   0  0  0  0  0  0  0  0  0  0  0  0
    8.2471   -4.5853   22.4070 H   0  0  0  0  0  0  0  0  0  0  0  0
    9.3629   -3.9508   23.6254 H   0  0  0  0  0  0  0  0  0  0  0  0
    8.1115   -5.1090   25.4169 H   0  0  0  0  0  0  0  0  0  0  0  0
    8.5336   -6.2697   24.1402 H   0  0  0  0  0  0  0  0  0  0  0  0
    6.8762   -5.6381   24.2493 H   0  0  0  0  0  0  0  0  0  0  0  0
  1  2  1  0
  2  3  1  0
  3  4  1  0
  4  5  1  0
  4  6  1  0
  4  7  1  0
  3  8  1  0
  8  9  2  0
  9 10  1  0
 10 11  1  0
 11 12  2  0
 12 13  1  0
 13 14  2  0
 14 15  1  0
 15 16  2  0
 16 17  1  0
 14 18  1  0
 13 19  1  0
 12 20  1  0
 10 21  1  0
 21 22  1  0
 22 23  1  0
 23 24  2  0
 24 25  1  0
 24 26  1  0
 26 27  1  0
 27 28  1  0
 26 29  2  0
 29 30  1  0
 30 31  2  0
 31 32  1  0
 30 33  1  0
 22 34  1  0
 22 35  1  0
 21 36  2  0
  3 37  1  0
  2 38  1  0
  2 39  1  0
  1 40  1  0
  1 41  1  0
  1 42  1  0
 36  8  1  0
 16 11  1  0
 31 23  1  0
M  END
>  <cnnaffinity>  (1) 
-6.22731

>  <filename>  (1) 
CCC(C)c1nc(Cc2ccnc(O)c2Br)n(-c2cccnc2)n1

$$$$
