
     RDKit          3D

 47 49  0  0  0  0  0  0  0  0999 V2000
    7.7051   -1.3838   25.7283 C   0  0  0  0  0  0  0  0  0  0  0  0
    7.9552   -2.7122   25.0136 C   0  0  0  0  0  0  0  0  0  0  0  0
    7.0767   -2.9551   23.7701 C   0  0  0  0  0  0  0  0  0  0  0  0
    7.2067   -4.4127   23.2465 C   0  0  0  0  0  0  0  0  0  0  0  0
    8.6304   -4.7722   22.8377 C   0  0  0  0  0  0  0  0  0  0  0  0
    9.0687   -3.9854   22.2154 H   0  0  0  0  0  0  0  0  0  0  0  0
    9.2695   -4.8831   23.7213 H   0  0  0  0  0  0  0  0  0  0  0  0
    8.6542   -5.7063   22.2716 H   0  0  0  0  0  0  0  0  0  0  0  0
    6.5156   -4.5361   22.4047 H   0  0  0  0  0  0  0  0  0  0  0  0
    6.8619   -5.1096   24.0241 H   0  0  0  0  0  0  0  0  0  0  0  0
    7.3868   -1.9503   22.6788 C   0  0  0  0  0  0  0  0  0  0  0  0
    6.5220   -1.6342   21.7366 N   0  0  0  0  0  0  0  0  0  0  0  0
    7.2261   -0.7764   20.9401 N   0  0  0  0  0  0  0  0  0  0  0  0
    6.5656   -0.1062   19.8732 C   0  0  0  0  0  0  0  0  0  0  0  0
    5.3704    0.5795   20.1167 C   0  0  0  0  0  0  0  0  0  0  0  0
    4.8041    1.3189   19.0752 C   0  0  0  0  0  0  0  0  0  0  0  0
    5.4266    1.3083   17.8209 C   0  0  0  0  0  0  0  0  0  0  0  0
    6.5400    0.6047   17.5637 N   0  0  0  0  0  0  0  0  0  0  0  0
    7.0878   -0.0929   18.5685 C   0  0  0  0  0  0  0  0  0  0  0  0
    7.9786   -0.6753   18.3293 H   0  0  0  0  0  0  0  0  0  0  0  0
    5.0000    1.8669   16.9890 H   0  0  0  0  0  0  0  0  0  0  0  0
    3.8940    1.8878   19.2262 H   0  0  0  0  0  0  0  0  0  0  0  0
    4.9138    0.5120   21.1035 H   0  0  0  0  0  0  0  0  0  0  0  0
    8.4772   -0.6057   21.4676 C   0  0  0  0  0  0  0  0  0  0  0  0
    9.6128    0.2218   20.9157 C   0  0  0  0  0  0  0  0  0  0  0  0
   10.3312    1.0724   21.9611 C   0  0  0  0  0  0  0  0  0  0  0  0
   11.6233    0.7527   22.3972 C   0  0  0  0  0  0  0  0  0  0  0  0
   12.2644    1.3541   23.4090 N   0  0  0  0  0  0  0  0  0  0  0  0
   11.6182    2.3548   24.0135 C   0  0  0  0  0  0  0  0  0  0  0  0
   10.3560    2.8027   23.6325 C   0  0  0  0  0  0  0  0  0  0  0  0
    9.6919    2.1658   22.5795 C   0  0  0  0  0  0  0  0  0  0  0  0
    8.3547    2.6710   22.1300 C   0  0  0  0  0  0  0  0  0  0  0  0
    8.4045    2.9945   21.0881 H   0  0  0  0  0  0  0  0  0  0  0  0
    8.0392    3.5243   22.7332 H   0  0  0  0  0  0  0  0  0  0  0  0
    7.5752    1.9073   22.1970 H   0  0  0  0  0  0  0  0  0  0  0  0
    9.8997    3.6522   24.1332 H   0  0  0  0  0  0  0  0  0  0  0  0
   12.1295    2.8235   24.8453 H   0  0  0  0  0  0  0  0  0  0  0  0
   12.1708   -0.0437   21.8968 H   0  0  0  0  0  0  0  0  0  0  0  0
   10.3265   -0.4878   20.4874 H   0  0  0  0  0  0  0  0  0  0  0  0
    9.2563    0.8445   20.0920 H   0  0  0  0  0  0  0  0  0  0  0  0
    8.6063   -1.3604   22.5401 N   0  0  0  0  0  0  0  0  0  0  0  0
    6.0191   -2.8124   24.0311 H   0  0  0  0  0  0  0  0  0  0  0  0
    7.8080   -3.5530   25.7051 H   0  0  0  0  0  0  0  0  0  0  0  0
    9.0097   -2.7471   24.7081 H   0  0  0  0  0  0  0  0  0  0  0  0
    6.6610   -1.2857   26.0475 H   0  0  0  0  0  0  0  0  0  0  0  0
    7.9410   -0.5292   25.0800 H   0  0  0  0  0  0  0  0  0  0  0  0
    8.3419   -1.3169   26.6176 H   0  0  0  0  0  0  0  0  0  0  0  0
  1  2  1  0
  2  3  1  0
  3  4  1  0
  4  5  1  0
  5  6  1  0
  5  7  1  0
  5  8  1  0
  4  9  1  0
  4 10  1  0
  3 11  1  0
 11 12  2  0
 12 13  1  0
 13 14  1  0
 14 15  2  0
 15 16  1  0
 16 17  2  0
 17 18  1  0
 18 19  2  0
 19 20  1  0
 17 21  1  0
 16 22  1  0
 15 23  1  0
 13 24  1  0
 24 25  1  0
 25 26  1  0
 26 27  2  0
 27 28  1  0
 28 29  2  0
 29 30  1  0
 30 31  2  0
 31 32  1  0
 32 33  1  0
 32 34  1  0
 32 35  1  0
 30 36  1  0
 29 37  1  0
 27 38  1  0
 25 39  1  0
 25 40  1  0
 24 41  2  0
  3 42  1  0
  2 43  1  0
  2 44  1  0
  1 45  1  0
  1 46  1  0
  1 47  1  0
 41 11  1  0
 19 14  1  0
 31 26  1  0
M  END
>  <cnnaffinity>  (1) 
-6.25561

>  <filename>  (1) 
CCC(CC)c1nc(Cc2cnccc2C)n(-c2cccnc2)n1

$$$$
