
     RDKit          3D

 47 49  0  0  0  0  0  0  0  0999 V2000
    7.1159   -3.2618   26.1499 C   0  0  0  0  0  0  0  0  0  0  0  0
    7.6500   -2.4090   24.9986 C   0  0  0  0  0  0  0  0  0  0  0  0
    7.4447   -3.0470   23.6052 C   0  0  0  0  0  0  0  0  0  0  0  0
    8.3279   -4.2916   23.3856 C   0  0  0  0  0  0  0  0  0  0  0  0
    8.0578   -4.9829   22.0510 C   0  0  0  0  0  0  0  0  0  0  0  0
    8.6566   -5.8944   21.9569 H   0  0  0  0  0  0  0  0  0  0  0  0
    8.2924   -4.3246   21.2052 H   0  0  0  0  0  0  0  0  0  0  0  0
    7.0030   -5.2699   21.9624 H   0  0  0  0  0  0  0  0  0  0  0  0
    8.1626   -5.0016   24.2051 H   0  0  0  0  0  0  0  0  0  0  0  0
    9.3830   -3.9920   23.4442 H   0  0  0  0  0  0  0  0  0  0  0  0
    7.6526   -2.0306   22.5179 C   0  0  0  0  0  0  0  0  0  0  0  0
    6.6950   -1.6143   21.7132 N   0  0  0  0  0  0  0  0  0  0  0  0
    7.3279   -0.6973   20.9314 N   0  0  0  0  0  0  0  0  0  0  0  0
    6.6433   -0.0053   19.8974 C   0  0  0  0  0  0  0  0  0  0  0  0
    5.4354    0.6450   20.1638 C   0  0  0  0  0  0  0  0  0  0  0  0
    4.8111    1.3142   19.1088 C   0  0  0  0  0  0  0  0  0  0  0  0
    5.3990    1.2973   17.8378 C   0  0  0  0  0  0  0  0  0  0  0  0
    6.5565    0.6720   17.5754 N   0  0  0  0  0  0  0  0  0  0  0  0
    7.1629    0.0457   18.5900 C   0  0  0  0  0  0  0  0  0  0  0  0
    8.1138   -0.4329   18.3653 H   0  0  0  0  0  0  0  0  0  0  0  0
    4.9190    1.7862   16.9940 H   0  0  0  0  0  0  0  0  0  0  0  0
    3.8794    1.8419   19.2606 H   0  0  0  0  0  0  0  0  0  0  0  0
    5.0145    0.6090   21.1724 H   0  0  0  0  0  0  0  0  0  0  0  0
    8.6119   -0.5705   21.3666 C   0  0  0  0  0  0  0  0  0  0  0  0
    9.6166    0.3711   20.8057 C   0  0  0  0  0  0  0  0  0  0  0  0
   10.3071    1.1673   21.8831 C   0  0  0  0  0  0  0  0  0  0  0  0
   11.5430    0.7451   22.3670 C   0  0  0  0  0  0  0  0  0  0  0  0
   12.1272    1.4305   23.4306 C   0  0  0  0  0  0  0  0  0  0  0  0
   11.5610    2.4824   24.0265 N   0  0  0  0  0  0  0  0  0  0  0  0
   10.3657    2.8641   23.5619 C   0  0  0  0  0  0  0  0  0  0  0  0
    9.6714    2.2524   22.5098 C   0  0  0  0  0  0  0  0  0  0  0  0
    8.3110    2.7458   22.0821 C   0  0  0  0  0  0  0  0  0  0  0  0
    8.3375    3.0755   21.0431 H   0  0  0  0  0  0  0  0  0  0  0  0
    7.5492    1.9593   22.1373 H   0  0  0  0  0  0  0  0  0  0  0  0
    7.9670    3.5895   22.6864 H   0  0  0  0  0  0  0  0  0  0  0  0
    9.9116    3.7210   24.0570 H   0  0  0  0  0  0  0  0  0  0  0  0
   13.0942    1.1206   23.8160 H   0  0  0  0  0  0  0  0  0  0  0  0
   12.0321   -0.1181   21.9323 H   0  0  0  0  0  0  0  0  0  0  0  0
   10.3307   -0.2764   20.2999 H   0  0  0  0  0  0  0  0  0  0  0  0
    9.1564    1.0427   20.0805 H   0  0  0  0  0  0  0  0  0  0  0  0
    8.8582   -1.4392   22.3246 N   0  0  0  0  0  0  0  0  0  0  0  0
    6.3926   -3.3361   23.5111 H   0  0  0  0  0  0  0  0  0  0  0  0
    8.7183   -2.2020   25.1439 H   0  0  0  0  0  0  0  0  0  0  0  0
    7.1522   -1.4311   25.0182 H   0  0  0  0  0  0  0  0  0  0  0  0
    7.1673   -2.7127   27.0959 H   0  0  0  0  0  0  0  0  0  0  0  0
    7.6827   -4.1909   26.2779 H   0  0  0  0  0  0  0  0  0  0  0  0
    6.0663   -3.5339   25.9835 H   0  0  0  0  0  0  0  0  0  0  0  0
  1  2  1  0
  2  3  1  0
  3  4  1  0
  4  5  1  0
  5  6  1  0
  5  7  1  0
  5  8  1  0
  4  9  1  0
  4 10  1  0
  3 11  1  0
 11 12  2  0
 12 13  1  0
 13 14  1  0
 14 15  2  0
 15 16  1  0
 16 17  2  0
 17 18  1  0
 18 19  2  0
 19 20  1  0
 17 21  1  0
 16 22  1  0
 15 23  1  0
 13 24  1  0
 24 25  1  0
 25 26  1  0
 26 27  2  0
 27 28  1  0
 28 29  2  0
 29 30  1  0
 30 31  2  0
 31 32  1  0
 32 33  1  0
 32 34  1  0
 32 35  1  0
 30 36  1  0
 28 37  1  0
 27 38  1  0
 25 39  1  0
 25 40  1  0
 24 41  2  0
  3 42  1  0
  2 43  1  0
  2 44  1  0
  1 45  1  0
  1 46  1  0
  1 47  1  0
 41 11  1  0
 19 14  1  0
 31 26  1  0
M  END
>  <cnnaffinity>  (1) 
-6.32194

>  <filename>  (1) 
CCC(CC)c1nc(Cc2ccncc2C)n(-c2cccnc2)n1

$$$$
