
     RDKit          3D

 46 48  0  0  0  0  0  0  0  0999 V2000
    8.5296   -4.7800   22.7784 C   0  0  0  0  0  0  0  0  0  0  0  0
    7.1396   -4.3826   23.2719 C   0  0  0  0  0  0  0  0  0  0  0  0
    7.0696   -2.9259   23.8049 C   0  0  0  0  0  0  0  0  0  0  0  0
    7.9980   -2.7365   25.0164 C   0  0  0  0  0  0  0  0  0  0  0  0
    7.8169   -3.5233   25.7586 H   0  0  0  0  0  0  0  0  0  0  0  0
    7.8540   -1.7600   25.4904 H   0  0  0  0  0  0  0  0  0  0  0  0
    9.0490   -2.7973   24.7096 H   0  0  0  0  0  0  0  0  0  0  0  0
    7.3651   -1.9318   22.7016 C   0  0  0  0  0  0  0  0  0  0  0  0
    6.4893   -1.6238   21.7658 N   0  0  0  0  0  0  0  0  0  0  0  0
    7.1885   -0.7876   20.9454 N   0  0  0  0  0  0  0  0  0  0  0  0
    6.5297   -0.1254   19.8692 C   0  0  0  0  0  0  0  0  0  0  0  0
    5.3368    0.5656   20.1057 C   0  0  0  0  0  0  0  0  0  0  0  0
    4.7777    1.3073   19.0637 C   0  0  0  0  0  0  0  0  0  0  0  0
    5.4090    1.2999   17.8106 C   0  0  0  0  0  0  0  0  0  0  0  0
    6.5211    0.5930   17.5582 N   0  0  0  0  0  0  0  0  0  0  0  0
    7.0611   -0.1073   18.5645 C   0  0  0  0  0  0  0  0  0  0  0  0
    7.9592   -0.6770   18.3281 H   0  0  0  0  0  0  0  0  0  0  0  0
    4.9991    1.8751   16.9839 H   0  0  0  0  0  0  0  0  0  0  0  0
    3.8777    1.8935   19.2117 H   0  0  0  0  0  0  0  0  0  0  0  0
    4.8818    0.5110   21.0959 H   0  0  0  0  0  0  0  0  0  0  0  0
    8.4461   -0.6254   21.4527 C   0  0  0  0  0  0  0  0  0  0  0  0
    9.5605    0.1658   20.8110 C   0  0  0  0  0  0  0  0  0  0  0  0
   10.5721    0.7620   21.7844 C   0  0  0  0  0  0  0  0  0  0  0  0
   10.3039    1.9585   22.4617 C   0  0  0  0  0  0  0  0  0  0  0  0
    9.0107    2.6907   22.2446 C   0  0  0  0  0  0  0  0  0  0  0  0
    8.9716    3.1201   21.2383 H   0  0  0  0  0  0  0  0  0  0  0  0
    8.9026    3.4980   22.9696 H   0  0  0  0  0  0  0  0  0  0  0  0
    8.1567    2.0120   22.3423 H   0  0  0  0  0  0  0  0  0  0  0  0
   11.1607    2.4983   23.3320 N   0  0  0  0  0  0  0  0  0  0  0  0
   12.2689    1.8083   23.5840 C   0  0  0  0  0  0  0  0  0  0  0  0
   12.5941    0.6287   23.0638 N   0  0  0  0  0  0  0  0  0  0  0  0
   11.7459    0.1014   22.1743 C   0  0  0  0  0  0  0  0  0  0  0  0
   12.1089   -1.2532   21.6295 C   0  0  0  0  0  0  0  0  0  0  0  0
   11.4018   -2.0061   22.0016 H   0  0  0  0  0  0  0  0  0  0  0  0
   12.0520   -1.2715   20.5385 H   0  0  0  0  0  0  0  0  0  0  0  0
   13.1227   -1.5300   21.9285 H   0  0  0  0  0  0  0  0  0  0  0  0
   12.9729    2.2471   24.2920 H   0  0  0  0  0  0  0  0  0  0  0  0
    9.1266    0.9612   20.2005 H   0  0  0  0  0  0  0  0  0  0  0  0
   10.0561   -0.5162   20.1122 H   0  0  0  0  0  0  0  0  0  0  0  0
    8.5816   -1.3476   22.5462 N   0  0  0  0  0  0  0  0  0  0  0  0
    6.0299   -2.7421   24.1030 H   0  0  0  0  0  0  0  0  0  0  0  0
    6.8258   -5.0620   24.0771 H   0  0  0  0  0  0  0  0  0  0  0  0
    6.4006   -4.4958   22.4686 H   0  0  0  0  0  0  0  0  0  0  0  0
    8.9192   -4.0360   22.0731 H   0  0  0  0  0  0  0  0  0  0  0  0
    8.4940   -5.7507   22.2743 H   0  0  0  0  0  0  0  0  0  0  0  0
    9.2447   -4.8480   23.6093 H   0  0  0  0  0  0  0  0  0  0  0  0
  1  2  1  0
  2  3  1  0
  3  4  1  0
  4  5  1  0
  4  6  1  0
  4  7  1  0
  3  8  1  0
  8  9  2  0
  9 10  1  0
 10 11  1  0
 11 12  2  0
 12 13  1  0
 13 14  2  0
 14 15  1  0
 15 16  2  0
 16 17  1  0
 14 18  1  0
 13 19  1  0
 12 20  1  0
 10 21  1  0
 21 22  1  0
 22 23  1  0
 23 24  2  0
 24 25  1  0
 25 26  1  0
 25 27  1  0
 25 28  1  0
 24 29  1  0
 29 30  2  0
 30 31  1  0
 31 32  2  0
 32 33  1  0
 33 34  1  0
 33 35  1  0
 33 36  1  0
 30 37  1  0
 22 38  1  0
 22 39  1  0
 21 40  2  0
  3 41  1  0
  2 42  1  0
  2 43  1  0
  1 44  1  0
  1 45  1  0
  1 46  1  0
 40  8  1  0
 16 11  1  0
 32 23  1  0
M  END
>  <cnnaffinity>  (1) 
-6.20618

>  <filename>  (1) 
CCC(C)c1nc(Cc2c(C)ncnc2C)n(-c2cccnc2)n1

$$$$
