
     RDKit          3D

 43 45  0  0  0  0  0  0  0  0999 V2000
    6.8881   -4.3872   23.8882 C   0  0  0  0  0  0  0  0  0  0  0  0
    7.6336   -4.6055   22.5682 C   0  0  0  0  0  0  0  0  0  0  0  0
    8.6505   -3.5109   22.1570 C   0  0  0  0  0  0  0  0  0  0  0  0
    9.8050   -3.5622   22.9914 O   0  0  0  0  0  0  0  0  0  0  0  0
    9.6728   -2.9533   23.7363 H   0  0  0  0  0  0  0  0  0  0  0  0
    8.0184   -2.1387   22.0015 C   0  0  0  0  0  0  0  0  0  0  0  0
    7.5447   -1.7620   20.8300 N   0  0  0  0  0  0  0  0  0  0  0  0
    7.0599   -0.5169   21.0637 N   0  0  0  0  0  0  0  0  0  0  0  0
    6.4534    0.1539   19.9635 C   0  0  0  0  0  0  0  0  0  0  0  0
    5.2635    0.8830   20.0706 C   0  0  0  0  0  0  0  0  0  0  0  0
    4.7552    1.4646   18.8994 C   0  0  0  0  0  0  0  0  0  0  0  0
    5.4515    1.3200   17.6960 C   0  0  0  0  0  0  0  0  0  0  0  0
    6.5843    0.6041   17.5852 N   0  0  0  0  0  0  0  0  0  0  0  0
    7.0468    0.0134   18.6898 C   0  0  0  0  0  0  0  0  0  0  0  0
    7.9264   -0.6166   18.5844 H   0  0  0  0  0  0  0  0  0  0  0  0
    5.0963    1.7896   16.7789 H   0  0  0  0  0  0  0  0  0  0  0  0
    3.8325    2.0310   18.9098 H   0  0  0  0  0  0  0  0  0  0  0  0
    4.7316    0.9651   21.0205 H   0  0  0  0  0  0  0  0  0  0  0  0
    7.3225   -0.1819   22.3709 C   0  0  0  0  0  0  0  0  0  0  0  0
    7.0971    1.1573   22.9964 C   0  0  0  0  0  0  0  0  0  0  0  0
    8.0925    1.5361   24.1302 C   0  0  0  0  0  0  0  0  0  0  0  0
    7.8465    2.9382   24.6563 C   0  0  0  0  0  0  0  0  0  0  0  0
    7.2055    3.1507   25.8916 C   0  0  0  0  0  0  0  0  0  0  0  0
    6.8615    4.4320   26.3330 C   0  0  0  0  0  0  0  0  0  0  0  0
    7.1902    5.5280   25.5401 C   0  0  0  0  0  0  0  0  0  0  0  0
    6.8493    6.7616   25.9447 F   0  0  0  0  0  0  0  0  0  0  0  0
    7.8728    5.3848   24.3396 C   0  0  0  0  0  0  0  0  0  0  0  0
    8.1957    4.0918   23.9218 C   0  0  0  0  0  0  0  0  0  0  0  0
    9.0723    3.9424   22.4302 Cl  0  0  0  0  0  0  0  0  0  0  0  0
    8.1207    6.2598   23.7464 H   0  0  0  0  0  0  0  0  0  0  0  0
    6.3332    4.6014   27.2623 H   0  0  0  0  0  0  0  0  0  0  0  0
    6.9758    2.2886   26.5193 H   0  0  0  0  0  0  0  0  0  0  0  0
    9.1231    1.4702   23.7571 H   0  0  0  0  0  0  0  0  0  0  0  0
    8.0063    0.8240   24.9611 H   0  0  0  0  0  0  0  0  0  0  0  0
    7.1382    1.9100   22.2065 H   0  0  0  0  0  0  0  0  0  0  0  0
    6.0728    1.1859   23.3874 H   0  0  0  0  0  0  0  0  0  0  0  0
    7.8791   -1.2130   22.9836 N   0  0  0  0  0  0  0  0  0  0  0  0
    8.9692   -3.7531   21.1375 H   0  0  0  0  0  0  0  0  0  0  0  0
    8.2016   -5.5436   22.6054 H   0  0  0  0  0  0  0  0  0  0  0  0
    6.9000   -4.7102   21.7596 H   0  0  0  0  0  0  0  0  0  0  0  0
    6.1746   -5.2049   24.0465 H   0  0  0  0  0  0  0  0  0  0  0  0
    6.3278   -3.4444   23.8821 H   0  0  0  0  0  0  0  0  0  0  0  0
    7.5662   -4.3652   24.7514 H   0  0  0  0  0  0  0  0  0  0  0  0
  1  2  1  0
  2  3  1  0
  3  4  1  0
  4  5  1  0
  3  6  1  0
  6  7  2  0
  7  8  1  0
  8  9  1  0
  9 10  2  0
 10 11  1  0
 11 12  2  0
 12 13  1  0
 13 14  2  0
 14 15  1  0
 12 16  1  0
 11 17  1  0
 10 18  1  0
  8 19  1  0
 19 20  1  0
 20 21  1  0
 21 22  1  0
 22 23  2  0
 23 24  1  0
 24 25  2  0
 25 26  1  0
 25 27  1  0
 27 28  2  0
 28 29  1  0
 27 30  1  0
 24 31  1  0
 23 32  1  0
 21 33  1  0
 21 34  1  0
 20 35  1  0
 20 36  1  0
 19 37  2  0
  3 38  1  0
  2 39  1  0
  2 40  1  0
  1 41  1  0
  1 42  1  0
  1 43  1  0
 37  6  1  0
 14  9  1  0
 28 22  1  0
M  END
>  <cnnaffinity>  (1) 
-5.85902

>  <filename>  (1) 
CCC(O)c1nc(CCc2ccc(F)cc2Cl)n(-c2cccnc2)n1

$$$$
