
     RDKit          3D

 43 45  0  0  0  0  0  0  0  0999 V2000
    8.4473   -4.8706   22.6172 C   0  0  0  0  0  0  0  0  0  0  0  0
    8.4710   -3.9690   23.8493 C   0  0  0  0  0  0  0  0  0  0  0  0
    7.4009   -2.8657   23.7546 C   0  0  0  0  0  0  0  0  0  0  0  0
    7.2943   -2.0804   25.0807 C   0  0  0  0  0  0  0  0  0  0  0  0
    8.2500   -1.5906   25.3172 H   0  0  0  0  0  0  0  0  0  0  0  0
    6.5054   -1.3189   25.0335 H   0  0  0  0  0  0  0  0  0  0  0  0
    7.0529   -2.7589   25.9084 H   0  0  0  0  0  0  0  0  0  0  0  0
    7.6648   -1.9507   22.5806 C   0  0  0  0  0  0  0  0  0  0  0  0
    6.7218   -1.5817   21.7359 N   0  0  0  0  0  0  0  0  0  0  0  0
    7.3556   -0.6765   20.9406 N   0  0  0  0  0  0  0  0  0  0  0  0
    6.6598   -0.0021   19.8973 C   0  0  0  0  0  0  0  0  0  0  0  0
    5.4443    0.6398   20.1574 C   0  0  0  0  0  0  0  0  0  0  0  0
    4.8110    1.3105   19.1058 C   0  0  0  0  0  0  0  0  0  0  0  0
    5.3999    1.2960   17.8368 C   0  0  0  0  0  0  0  0  0  0  0  0
    6.5546    0.6645   17.5773 N   0  0  0  0  0  0  0  0  0  0  0  0
    7.1670    0.0401   18.5888 C   0  0  0  0  0  0  0  0  0  0  0  0
    8.1091   -0.4491   18.3491 H   0  0  0  0  0  0  0  0  0  0  0  0
    4.9347    1.8038   16.9935 H   0  0  0  0  0  0  0  0  0  0  0  0
    3.8766    1.8411   19.2550 H   0  0  0  0  0  0  0  0  0  0  0  0
    5.0209    0.5937   21.1617 H   0  0  0  0  0  0  0  0  0  0  0  0
    8.6341   -0.5164   21.3896 C   0  0  0  0  0  0  0  0  0  0  0  0
    9.5158    0.6161   20.9762 C   0  0  0  0  0  0  0  0  0  0  0  0
    9.0408    1.9906   21.5092 C   0  0  0  0  0  0  0  0  0  0  0  0
    8.8853    2.0313   22.9552 N   0  0  0  0  0  0  0  0  0  0  0  0
    9.9078    2.0593   23.8656 C   0  0  0  0  0  0  0  0  0  0  0  0
    9.3913    1.8835   25.1269 C   0  0  0  0  0  0  0  0  0  0  0  0
    7.9831    1.7290   24.9785 C   0  0  0  0  0  0  0  0  0  0  0  0
    7.7156    1.8162   23.6340 C   0  0  0  0  0  0  0  0  0  0  0  0
    6.8107    1.6776   23.0652 H   0  0  0  0  0  0  0  0  0  0  0  0
    7.2583    1.5327   25.7597 H   0  0  0  0  0  0  0  0  0  0  0  0
    9.9615    1.8507   26.0470 H   0  0  0  0  0  0  0  0  0  0  0  0
   10.9208    2.1773   23.5113 H   0  0  0  0  0  0  0  0  0  0  0  0
    9.7615    2.7670   21.2286 H   0  0  0  0  0  0  0  0  0  0  0  0
    8.0783    2.2656   21.0613 H   0  0  0  0  0  0  0  0  0  0  0  0
    9.5426    0.6487   19.8883 H   0  0  0  0  0  0  0  0  0  0  0  0
   10.5289    0.3981   21.3250 H   0  0  0  0  0  0  0  0  0  0  0  0
    8.8754   -1.3593   22.3735 N   0  0  0  0  0  0  0  0  0  0  0  0
    6.4265   -3.3240   23.5319 H   0  0  0  0  0  0  0  0  0  0  0  0
    8.2928   -4.5510   24.7646 H   0  0  0  0  0  0  0  0  0  0  0  0
    9.4588   -3.4951   23.9697 H   0  0  0  0  0  0  0  0  0  0  0  0
    9.1405   -5.7057   22.7223 H   0  0  0  0  0  0  0  0  0  0  0  0
    7.4532   -5.3065   22.4543 H   0  0  0  0  0  0  0  0  0  0  0  0
    8.7007   -4.2889   21.7217 H   0  0  0  0  0  0  0  0  0  0  0  0
  1  2  1  0
  2  3  1  0
  3  4  1  0
  4  5  1  0
  4  6  1  0
  4  7  1  0
  3  8  1  0
  8  9  2  0
  9 10  1  0
 10 11  1  0
 11 12  2  0
 12 13  1  0
 13 14  2  0
 14 15  1  0
 15 16  2  0
 16 17  1  0
 14 18  1  0
 13 19  1  0
 12 20  1  0
 10 21  1  0
 21 22  1  0
 22 23  1  0
 23 24  1  0
 24 25  1  0
 25 26  2  0
 26 27  1  0
 27 28  2  0
 28 29  1  0
 27 30  1  0
 26 31  1  0
 25 32  1  0
 23 33  1  0
 23 34  1  0
 22 35  1  0
 22 36  1  0
 21 37  2  0
  3 38  1  0
  2 39  1  0
  2 40  1  0
  1 41  1  0
  1 42  1  0
  1 43  1  0
 37  8  1  0
 16 11  1  0
 28 24  1  0
M  END
>  <cnnaffinity>  (1) 
-5.88456

>  <filename>  (1) 
CCC(C)c1nc(CCn2cccc2)n(-c2cccnc2)n1

$$$$
