
     RDKit          3D

 40 42  0  0  0  0  0  0  0  0999 V2000
    5.9929   -1.2922   25.0435 C   0  0  0  0  0  0  0  0  0  0  0  0
    7.2089   -2.2232   25.0155 C   0  0  0  0  0  0  0  0  0  0  0  0
    7.3731   -2.9899   23.6744 C   0  0  0  0  0  0  0  0  0  0  0  0
    6.2874   -3.8780   23.4300 O   0  0  0  0  0  0  0  0  0  0  0  0
    6.2668   -4.5478   24.1283 H   0  0  0  0  0  0  0  0  0  0  0  0
    7.5647   -2.0183   22.5283 C   0  0  0  0  0  0  0  0  0  0  0  0
    6.6285   -1.5685   21.7118 N   0  0  0  0  0  0  0  0  0  0  0  0
    7.3020   -0.6706   20.9487 N   0  0  0  0  0  0  0  0  0  0  0  0
    6.6457    0.0049   19.8876 C   0  0  0  0  0  0  0  0  0  0  0  0
    5.4317    0.6423   20.1438 C   0  0  0  0  0  0  0  0  0  0  0  0
    4.8008    1.3170   19.0977 C   0  0  0  0  0  0  0  0  0  0  0  0
    5.3882    1.2984   17.8282 C   0  0  0  0  0  0  0  0  0  0  0  0
    6.5395    0.6583   17.5657 N   0  0  0  0  0  0  0  0  0  0  0  0
    7.1556    0.0346   18.5780 C   0  0  0  0  0  0  0  0  0  0  0  0
    8.1014   -0.4495   18.3324 H   0  0  0  0  0  0  0  0  0  0  0  0
    4.9315    1.8149   16.9895 H   0  0  0  0  0  0  0  0  0  0  0  0
    3.8713    1.8512   19.2495 H   0  0  0  0  0  0  0  0  0  0  0  0
    5.0170    0.5843   21.1491 H   0  0  0  0  0  0  0  0  0  0  0  0
    8.5919   -0.5876   21.3857 C   0  0  0  0  0  0  0  0  0  0  0  0
    9.6368    0.2954   20.8075 C   0  0  0  0  0  0  0  0  0  0  0  0
   10.3465    1.1087   21.8695 C   0  0  0  0  0  0  0  0  0  0  0  0
   11.6254    0.7235   22.2921 C   0  0  0  0  0  0  0  0  0  0  0  0
   12.2379    1.3848   23.3534 C   0  0  0  0  0  0  0  0  0  0  0  0
   13.4527    0.9785   23.7621 F   0  0  0  0  0  0  0  0  0  0  0  0
   11.6050    2.4360   24.0107 C   0  0  0  0  0  0  0  0  0  0  0  0
   10.3368    2.8483   23.5846 C   0  0  0  0  0  0  0  0  0  0  0  0
    9.7169    2.1873   22.5181 C   0  0  0  0  0  0  0  0  0  0  0  0
    8.1045    2.6869   22.0618 Cl  0  0  0  0  0  0  0  0  0  0  0  0
    9.8079    3.6592   24.0851 H   0  0  0  0  0  0  0  0  0  0  0  0
   12.0988    2.9116   24.8442 H   0  0  0  0  0  0  0  0  0  0  0  0
   12.1339   -0.1174   21.8291 H   0  0  0  0  0  0  0  0  0  0  0  0
    9.1856    0.9639   20.0748 H   0  0  0  0  0  0  0  0  0  0  0  0
   10.3402   -0.3742   20.3057 H   0  0  0  0  0  0  0  0  0  0  0  0
    8.7910   -1.4492   22.3606 N   0  0  0  0  0  0  0  0  0  0  0  0
    8.3405   -3.5197   23.7017 H   0  0  0  0  0  0  0  0  0  0  0  0
    8.1422   -1.6650   25.1860 H   0  0  0  0  0  0  0  0  0  0  0  0
    7.1423   -2.9735   25.8163 H   0  0  0  0  0  0  0  0  0  0  0  0
    5.8809   -0.8082   26.0209 H   0  0  0  0  0  0  0  0  0  0  0  0
    6.0729   -0.5036   24.2811 H   0  0  0  0  0  0  0  0  0  0  0  0
    5.0818   -1.8673   24.8376 H   0  0  0  0  0  0  0  0  0  0  0  0
  1  2  1  0
  2  3  1  0
  3  4  1  0
  4  5  1  0
  3  6  1  0
  6  7  2  0
  7  8  1  0
  8  9  1  0
  9 10  2  0
 10 11  1  0
 11 12  2  0
 12 13  1  0
 13 14  2  0
 14 15  1  0
 12 16  1  0
 11 17  1  0
 10 18  1  0
  8 19  1  0
 19 20  1  0
 20 21  1  0
 21 22  2  0
 22 23  1  0
 23 24  1  0
 23 25  2  0
 25 26  1  0
 26 27  2  0
 27 28  1  0
 26 29  1  0
 25 30  1  0
 22 31  1  0
 20 32  1  0
 20 33  1  0
 19 34  2  0
  3 35  1  0
  2 36  1  0
  2 37  1  0
  1 38  1  0
  1 39  1  0
  1 40  1  0
 34  6  1  0
 14  9  1  0
 27 21  1  0
M  END
>  <cnnaffinity>  (1) 
-6.1097

>  <filename>  (1) 
CCC(O)c1nc(Cc2cc(F)ccc2Cl)n(-c2cccnc2)n1

$$$$
