
     RDKit          3D

 45 47  0  0  0  0  0  0  0  0999 V2000
    7.9019   -5.0514   22.0845 C   0  0  0  0  0  0  0  0  0  0  0  0
    6.8915   -4.3805   23.0114 C   0  0  0  0  0  0  0  0  0  0  0  0
    7.4082   -3.0508   23.5969 C   0  0  0  0  0  0  0  0  0  0  0  0
    6.4506   -2.4918   24.6684 C   0  0  0  0  0  0  0  0  0  0  0  0
    5.4703   -2.2818   24.2306 H   0  0  0  0  0  0  0  0  0  0  0  0
    6.8348   -1.5606   25.0980 H   0  0  0  0  0  0  0  0  0  0  0  0
    6.3106   -3.2116   25.4818 H   0  0  0  0  0  0  0  0  0  0  0  0
    7.6682   -2.0384   22.5110 C   0  0  0  0  0  0  0  0  0  0  0  0
    6.7170   -1.6231   21.6895 N   0  0  0  0  0  0  0  0  0  0  0  0
    7.3497   -0.6923   20.9307 N   0  0  0  0  0  0  0  0  0  0  0  0
    6.6510   -0.0041   19.9007 C   0  0  0  0  0  0  0  0  0  0  0  0
    5.4390    0.6402   20.1667 C   0  0  0  0  0  0  0  0  0  0  0  0
    4.8123    1.3103   19.1095 C   0  0  0  0  0  0  0  0  0  0  0  0
    5.3988    1.2956   17.8383 C   0  0  0  0  0  0  0  0  0  0  0  0
    6.5566    0.6699   17.5745 N   0  0  0  0  0  0  0  0  0  0  0  0
    7.1633    0.0469   18.5920 C   0  0  0  0  0  0  0  0  0  0  0  0
    8.1125   -0.4362   18.3651 H   0  0  0  0  0  0  0  0  0  0  0  0
    4.9199    1.7882   16.9944 H   0  0  0  0  0  0  0  0  0  0  0  0
    3.8795    1.8403   19.2604 H   0  0  0  0  0  0  0  0  0  0  0  0
    5.0102    0.6092   21.1716 H   0  0  0  0  0  0  0  0  0  0  0  0
    8.6258   -0.5581   21.3821 C   0  0  0  0  0  0  0  0  0  0  0  0
    9.6053    0.4348   20.8809 C   0  0  0  0  0  0  0  0  0  0  0  0
    9.9886    1.3618   21.9153 N   0  0  0  0  0  0  0  0  0  0  0  0
   11.1376    1.1563   22.5791 N   0  0  0  0  0  0  0  0  0  0  0  0
   11.1122    2.0193   23.5705 C   0  0  0  0  0  0  0  0  0  0  0  0
   12.1656    2.1820   24.5769 C   0  0  0  0  0  0  0  0  0  0  0  0
   13.1198    1.7526   24.2794 H   0  0  0  0  0  0  0  0  0  0  0  0
   12.2174    3.2598   24.7228 H   0  0  0  0  0  0  0  0  0  0  0  0
   11.8176    1.7309   25.5010 H   0  0  0  0  0  0  0  0  0  0  0  0
    9.9312    2.7831   23.5465 C   0  0  0  0  0  0  0  0  0  0  0  0
    9.4681    4.0316   24.6455 Cl  0  0  0  0  0  0  0  0  0  0  0  0
    9.2097    2.3281   22.4747 C   0  0  0  0  0  0  0  0  0  0  0  0
    7.8350    2.6988   22.0474 C   0  0  0  0  0  0  0  0  0  0  0  0
    7.1057    1.9828   22.4403 H   0  0  0  0  0  0  0  0  0  0  0  0
    7.5893    3.6843   22.4455 H   0  0  0  0  0  0  0  0  0  0  0  0
    7.7441    2.7059   20.9621 H   0  0  0  0  0  0  0  0  0  0  0  0
    9.2097    1.0074   20.0481 H   0  0  0  0  0  0  0  0  0  0  0  0
   10.5036   -0.1015   20.5940 H   0  0  0  0  0  0  0  0  0  0  0  0
    8.8689   -1.4294   22.3397 N   0  0  0  0  0  0  0  0  0  0  0  0
    8.3853   -3.2191   24.0633 H   0  0  0  0  0  0  0  0  0  0  0  0
    6.6355   -5.0530   23.8401 H   0  0  0  0  0  0  0  0  0  0  0  0
    5.9588   -4.1763   22.4692 H   0  0  0  0  0  0  0  0  0  0  0  0
    7.5210   -6.0078   21.7142 H   0  0  0  0  0  0  0  0  0  0  0  0
    8.8413   -5.2501   22.6131 H   0  0  0  0  0  0  0  0  0  0  0  0
    8.1360   -4.4192   21.2197 H   0  0  0  0  0  0  0  0  0  0  0  0
  1  2  1  0
  2  3  1  0
  3  4  1  0
  4  5  1  0
  4  6  1  0
  4  7  1  0
  3  8  1  0
  8  9  2  0
  9 10  1  0
 10 11  1  0
 11 12  2  0
 12 13  1  0
 13 14  2  0
 14 15  1  0
 15 16  2  0
 16 17  1  0
 14 18  1  0
 13 19  1  0
 12 20  1  0
 10 21  1  0
 21 22  1  0
 22 23  1  0
 23 24  1  0
 24 25  2  0
 25 26  1  0
 26 27  1  0
 26 28  1  0
 26 29  1  0
 25 30  1  0
 30 31  1  0
 30 32  2  0
 32 33  1  0
 33 34  1  0
 33 35  1  0
 33 36  1  0
 22 37  1  0
 22 38  1  0
 21 39  2  0
  3 40  1  0
  2 41  1  0
  2 42  1  0
  1 43  1  0
  1 44  1  0
  1 45  1  0
 39  8  1  0
 16 11  1  0
 32 23  1  0
M  END
>  <cnnaffinity>  (1) 
-6.21987

>  <filename>  (1) 
CCC(C)c1nc(Cn2nc(C)c(Cl)c2C)n(-c2cccnc2)n1

$$$$
