
     RDKit          3D

 42 44  0  0  0  0  0  0  0  0999 V2000
    8.3905   -5.6113   23.6613 C   0  0  0  0  0  0  0  0  0  0  0  0
    7.8085   -4.2216   23.4241 C   0  0  0  0  0  0  0  0  0  0  0  0
    8.7161   -3.4463   22.4594 C   0  0  0  0  0  0  0  0  0  0  0  0
   10.0259   -3.3467   23.0737 O   0  0  0  0  0  0  0  0  0  0  0  0
    9.9570   -3.1143   24.0181 H   0  0  0  0  0  0  0  0  0  0  0  0
    8.0818   -2.1151   22.0882 C   0  0  0  0  0  0  0  0  0  0  0  0
    7.8800   -1.7136   20.8513 N   0  0  0  0  0  0  0  0  0  0  0  0
    7.2708   -0.5139   21.0045 N   0  0  0  0  0  0  0  0  0  0  0  0
    6.6551    0.1581   19.9365 C   0  0  0  0  0  0  0  0  0  0  0  0
    5.5324    0.9711   20.1291 C   0  0  0  0  0  0  0  0  0  0  0  0
    4.9207    1.5364   19.0063 C   0  0  0  0  0  0  0  0  0  0  0  0
    5.4457    1.2981   17.7297 C   0  0  0  0  0  0  0  0  0  0  0  0
    6.5268    0.5196   17.5350 N   0  0  0  0  0  0  0  0  0  0  0  0
    7.1083   -0.0421   18.6158 C   0  0  0  0  0  0  0  0  0  0  0  0
    7.9719   -0.6814   18.4597 H   0  0  0  0  0  0  0  0  0  0  0  0
    4.9598    1.7534   16.8706 H   0  0  0  0  0  0  0  0  0  0  0  0
    4.0430    2.1673   19.1061 H   0  0  0  0  0  0  0  0  0  0  0  0
    5.1245    1.1356   21.1255 H   0  0  0  0  0  0  0  0  0  0  0  0
    7.2093   -0.2182   22.3674 C   0  0  0  0  0  0  0  0  0  0  0  0
    6.8391    1.0633   23.0493 C   0  0  0  0  0  0  0  0  0  0  0  0
    7.8038    1.3457   24.2295 C   0  0  0  0  0  0  0  0  0  0  0  0
    7.6753    2.7742   24.6697 C   0  0  0  0  0  0  0  0  0  0  0  0
    7.2198    3.0709   25.9501 C   0  0  0  0  0  0  0  0  0  0  0  0
    7.0411    4.3982   26.3325 C   0  0  0  0  0  0  0  0  0  0  0  0
    7.3234    5.4217   25.5131 N   0  0  0  0  0  0  0  0  0  0  0  0
    7.7776    5.1494   24.2786 C   0  0  0  0  0  0  0  0  0  0  0  0
    7.9663    3.8404   23.8181 C   0  0  0  0  0  0  0  0  0  0  0  0
    8.5690    3.5019   22.0444 Br  0  0  0  0  0  0  0  0  0  0  0  0
    7.9795    5.9964   23.6303 H   0  0  0  0  0  0  0  0  0  0  0  0
    6.6407    4.6132   27.3189 H   0  0  0  0  0  0  0  0  0  0  0  0
    6.9801    2.2778   26.6481 H   0  0  0  0  0  0  0  0  0  0  0  0
    8.8458    1.1500   23.9472 H   0  0  0  0  0  0  0  0  0  0  0  0
    7.5647    0.6846   25.0707 H   0  0  0  0  0  0  0  0  0  0  0  0
    5.8114    0.9958   23.4157 H   0  0  0  0  0  0  0  0  0  0  0  0
    6.8860    1.8753   22.3194 H   0  0  0  0  0  0  0  0  0  0  0  0
    7.6498   -1.2246   23.0557 N   0  0  0  0  0  0  0  0  0  0  0  0
    8.8044   -4.0071   21.5270 H   0  0  0  0  0  0  0  0  0  0  0  0
    7.7204   -3.6921   24.3802 H   0  0  0  0  0  0  0  0  0  0  0  0
    6.7997   -4.3058   23.0050 H   0  0  0  0  0  0  0  0  0  0  0  0
    8.7008   -6.0671   22.7160 H   0  0  0  0  0  0  0  0  0  0  0  0
    7.6478   -6.2539   24.1331 H   0  0  0  0  0  0  0  0  0  0  0  0
    9.2642   -5.5400   24.3170 H   0  0  0  0  0  0  0  0  0  0  0  0
  1  2  1  0
  2  3  1  0
  3  4  1  0
  4  5  1  0
  3  6  1  0
  6  7  2  0
  7  8  1  0
  8  9  1  0
  9 10  2  0
 10 11  1  0
 11 12  2  0
 12 13  1  0
 13 14  2  0
 14 15  1  0
 12 16  1  0
 11 17  1  0
 10 18  1  0
  8 19  1  0
 19 20  1  0
 20 21  1  0
 21 22  1  0
 22 23  2  0
 23 24  1  0
 24 25  2  0
 25 26  1  0
 26 27  2  0
 27 28  1  0
 26 29  1  0
 24 30  1  0
 23 31  1  0
 21 32  1  0
 21 33  1  0
 20 34  1  0
 20 35  1  0
 19 36  2  0
  3 37  1  0
  2 38  1  0
  2 39  1  0
  1 40  1  0
  1 41  1  0
  1 42  1  0
 36  6  1  0
 14  9  1  0
 27 22  1  0
M  END
>  <cnnaffinity>  (1) 
-6.07777

>  <filename>  (1) 
CCC(O)c1nc(CCc2ccncc2Br)n(-c2cccnc2)n1

$$$$
