
     RDKit          3D

 42 44  0  0  0  0  0  0  0  0999 V2000
    8.5472   -5.5838   23.5863 C   0  0  0  0  0  0  0  0  0  0  0  0
    7.9942   -4.1625   23.4345 C   0  0  0  0  0  0  0  0  0  0  0  0
    8.8628   -3.3013   22.4830 C   0  0  0  0  0  0  0  0  0  0  0  0
   10.2677   -3.0074   23.0782 C   0  0  0  0  0  0  0  0  0  0  0  0
   10.2193   -2.1816   23.7996 H   0  0  0  0  0  0  0  0  0  0  0  0
   10.9935   -2.7346   22.3007 H   0  0  0  0  0  0  0  0  0  0  0  0
   10.6733   -3.8782   23.6094 H   0  0  0  0  0  0  0  0  0  0  0  0
    8.1387   -2.0439   22.0814 C   0  0  0  0  0  0  0  0  0  0  0  0
    7.8535   -1.7308   20.8316 N   0  0  0  0  0  0  0  0  0  0  0  0
    7.2041   -0.5409   20.9535 N   0  0  0  0  0  0  0  0  0  0  0  0
    6.5644    0.0859   19.8468 C   0  0  0  0  0  0  0  0  0  0  0  0
    5.3597    0.7836   20.0192 C   0  0  0  0  0  0  0  0  0  0  0  0
    4.8059    1.4119   18.9026 C   0  0  0  0  0  0  0  0  0  0  0  0
    5.4524    1.3161   17.6681 C   0  0  0  0  0  0  0  0  0  0  0  0
    6.5865    0.6159   17.4901 N   0  0  0  0  0  0  0  0  0  0  0  0
    7.1226    0.0134   18.5564 C   0  0  0  0  0  0  0  0  0  0  0  0
    8.0378   -0.5504   18.3844 H   0  0  0  0  0  0  0  0  0  0  0  0
    5.0533    1.8170   16.7876 H   0  0  0  0  0  0  0  0  0  0  0  0
    3.8905    1.9864   18.9815 H   0  0  0  0  0  0  0  0  0  0  0  0
    4.8768    0.8368   20.9961 H   0  0  0  0  0  0  0  0  0  0  0  0
    7.2104   -0.1771   22.2730 C   0  0  0  0  0  0  0  0  0  0  0  0
    6.8331    1.0767   22.8685 C   0  0  0  0  0  0  0  0  0  0  0  0
    6.2069    1.1227   24.0872 C   0  0  0  0  0  0  0  0  0  0  0  0
    5.9320    2.3677   24.6987 C   0  0  0  0  0  0  0  0  0  0  0  0
    5.2919    2.3822   26.0574 C   0  0  0  0  0  0  0  0  0  0  0  0
    4.6044    3.5161   26.2864 F   0  0  0  0  0  0  0  0  0  0  0  0
    6.2021    2.2723   27.0444 F   0  0  0  0  0  0  0  0  0  0  0  0
    4.4329    1.3570   26.2066 F   0  0  0  0  0  0  0  0  0  0  0  0
    6.3255    3.5345   24.0939 C   0  0  0  0  0  0  0  0  0  0  0  0
    7.0016    3.4444   22.9188 N   0  0  0  0  0  0  0  0  0  0  0  0
    7.3418    2.2775   22.2438 C   0  0  0  0  0  0  0  0  0  0  0  0
    8.0138    2.3736   21.2333 O   0  0  0  0  0  0  0  0  0  0  0  0
    7.4127    4.2125   22.4094 H   0  0  0  0  0  0  0  0  0  0  0  0
    6.1256    4.5268   24.4972 H   0  0  0  0  0  0  0  0  0  0  0  0
    5.9382    0.1869   24.5773 H   0  0  0  0  0  0  0  0  0  0  0  0
    7.7506   -1.1314   23.0003 N   0  0  0  0  0  0  0  0  0  0  0  0
    8.9586   -3.8446   21.5394 H   0  0  0  0  0  0  0  0  0  0  0  0
    7.9068   -3.6631   24.4112 H   0  0  0  0  0  0  0  0  0  0  0  0
    6.9716   -4.2077   23.0364 H   0  0  0  0  0  0  0  0  0  0  0  0
    8.8665   -5.9884   22.6161 H   0  0  0  0  0  0  0  0  0  0  0  0
    7.8000   -6.2719   23.9854 H   0  0  0  0  0  0  0  0  0  0  0  0
    9.4003   -5.6117   24.2728 H   0  0  0  0  0  0  0  0  0  0  0  0
  1  2  1  0
  2  3  1  0
  3  4  1  0
  4  5  1  0
  4  6  1  0
  4  7  1  0
  3  8  1  0
  8  9  2  0
  9 10  1  0
 10 11  1  0
 11 12  2  0
 12 13  1  0
 13 14  2  0
 14 15  1  0
 15 16  2  0
 16 17  1  0
 14 18  1  0
 13 19  1  0
 12 20  1  0
 10 21  1  0
 21 22  1  0
 22 23  2  0
 23 24  1  0
 24 25  1  0
 25 26  1  0
 25 27  1  0
 25 28  1  0
 24 29  2  0
 29 30  1  0
 30 31  1  0
 31 32  2  0
 30 33  1  0
 29 34  1  0
 23 35  1  0
 21 36  2  0
  3 37  1  0
  2 38  1  0
  2 39  1  0
  1 40  1  0
  1 41  1  0
  1 42  1  0
 36  8  1  0
 16 11  1  0
 31 22  1  0
M  END
>  <cnnaffinity>  (1) 
-6.01258

>  <filename>  (1) 
CCC(C)c1nc(-c2cc(C(F)(F)F)c[nH]c2=O)n(-c2cccnc2)n1

$$$$
