
     RDKit          3D

 42 44  0  0  0  0  0  0  0  0999 V2000
    8.6989   -4.6693   22.8135 C   0  0  0  0  0  0  0  0  0  0  0  0
    7.2816   -4.3145   23.2673 C   0  0  0  0  0  0  0  0  0  0  0  0
    7.2139   -2.8553   23.7884 C   0  0  0  0  0  0  0  0  0  0  0  0
    7.9903   -2.7325   24.9760 O   0  0  0  0  0  0  0  0  0  0  0  0
    8.8801   -2.4131   24.7435 H   0  0  0  0  0  0  0  0  0  0  0  0
    7.5485   -1.8556   22.6768 C   0  0  0  0  0  0  0  0  0  0  0  0
    6.6533   -1.5352   21.7637 N   0  0  0  0  0  0  0  0  0  0  0  0
    7.3359   -0.6949   20.9396 N   0  0  0  0  0  0  0  0  0  0  0  0
    6.6539   -0.0504   19.8754 C   0  0  0  0  0  0  0  0  0  0  0  0
    5.4455    0.5991   20.1382 C   0  0  0  0  0  0  0  0  0  0  0  0
    4.8342    1.2973   19.0968 C   0  0  0  0  0  0  0  0  0  0  0  0
    5.4362    1.3042   17.8301 C   0  0  0  0  0  0  0  0  0  0  0  0
    6.5726    0.6442   17.5571 N   0  0  0  0  0  0  0  0  0  0  0  0
    7.1595   -0.0162   18.5628 C   0  0  0  0  0  0  0  0  0  0  0  0
    8.0690   -0.5558   18.3139 H   0  0  0  0  0  0  0  0  0  0  0  0
    4.9781    1.8491   17.0070 H   0  0  0  0  0  0  0  0  0  0  0  0
    3.9073    1.8378   19.2594 H   0  0  0  0  0  0  0  0  0  0  0  0
    5.0045    0.5401   21.1371 H   0  0  0  0  0  0  0  0  0  0  0  0
    8.5925   -0.5040   21.4366 C   0  0  0  0  0  0  0  0  0  0  0  0
    9.5062    0.5839   20.9701 C   0  0  0  0  0  0  0  0  0  0  0  0
    9.0451    1.9920   21.4231 C   0  0  0  0  0  0  0  0  0  0  0  0
    8.9231    2.1025   22.9270 C   0  0  0  0  0  0  0  0  0  0  0  0
    7.6959    1.8826   23.5750 C   0  0  0  0  0  0  0  0  0  0  0  0
    7.6384    1.8573   24.9718 C   0  0  0  0  0  0  0  0  0  0  0  0
    8.8152    2.0565   25.6973 C   0  0  0  0  0  0  0  0  0  0  0  0
    9.9971    2.2900   25.1074 N   0  0  0  0  0  0  0  0  0  0  0  0
   10.0307    2.3015   23.7844 C   0  0  0  0  0  0  0  0  0  0  0  0
   11.6094    2.5952   23.0985 Cl  0  0  0  0  0  0  0  0  0  0  0  0
    8.8113    2.0393   26.7886 H   0  0  0  0  0  0  0  0  0  0  0  0
    6.7040    1.6795   25.4911 H   0  0  0  0  0  0  0  0  0  0  0  0
    6.7933    1.7191   22.9776 H   0  0  0  0  0  0  0  0  0  0  0  0
    9.7645    2.7257   21.0501 H   0  0  0  0  0  0  0  0  0  0  0  0
    8.0771    2.2262   20.9645 H   0  0  0  0  0  0  0  0  0  0  0  0
   10.5075    0.3780   21.3573 H   0  0  0  0  0  0  0  0  0  0  0  0
    9.5608    0.5492   19.8800 H   0  0  0  0  0  0  0  0  0  0  0  0
    8.7680   -1.2633   22.5024 N   0  0  0  0  0  0  0  0  0  0  0  0
    6.1772   -2.6460   24.0802 H   0  0  0  0  0  0  0  0  0  0  0  0
    6.9840   -4.9764   24.0933 H   0  0  0  0  0  0  0  0  0  0  0  0
    6.5416   -4.4266   22.4607 H   0  0  0  0  0  0  0  0  0  0  0  0
    9.0876   -3.9038   22.1300 H   0  0  0  0  0  0  0  0  0  0  0  0
    8.7775   -5.6485   22.3306 H   0  0  0  0  0  0  0  0  0  0  0  0
    9.3598   -4.6914   23.6877 H   0  0  0  0  0  0  0  0  0  0  0  0
  1  2  1  0
  2  3  1  0
  3  4  1  0
  4  5  1  0
  3  6  1  0
  6  7  2  0
  7  8  1  0
  8  9  1  0
  9 10  2  0
 10 11  1  0
 11 12  2  0
 12 13  1  0
 13 14  2  0
 14 15  1  0
 12 16  1  0
 11 17  1  0
 10 18  1  0
  8 19  1  0
 19 20  1  0
 20 21  1  0
 21 22  1  0
 22 23  2  0
 23 24  1  0
 24 25  2  0
 25 26  1  0
 26 27  2  0
 27 28  1  0
 25 29  1  0
 24 30  1  0
 23 31  1  0
 21 32  1  0
 21 33  1  0
 20 34  1  0
 20 35  1  0
 19 36  2  0
  3 37  1  0
  2 38  1  0
  2 39  1  0
  1 40  1  0
  1 41  1  0
  1 42  1  0
 36  6  1  0
 14  9  1  0
 27 22  1  0
M  END
>  <cnnaffinity>  (1) 
-5.94395

>  <filename>  (1) 
CCC(O)c1nc(CCc2cccnc2Cl)n(-c2cccnc2)n1

$$$$
