
     RDKit          3D

 47 49  0  0  0  0  0  0  0  0999 V2000
    7.1836   -3.9696   24.5139 C   0  0  0  0  0  0  0  0  0  0  0  0
    7.6858   -4.3745   23.1308 C   0  0  0  0  0  0  0  0  0  0  0  0
    8.7041   -3.3899   22.4945 C   0  0  0  0  0  0  0  0  0  0  0  0
   10.0124   -3.2551   23.3104 C   0  0  0  0  0  0  0  0  0  0  0  0
   10.8816   -3.0725   22.6627 H   0  0  0  0  0  0  0  0  0  0  0  0
    9.9318   -2.4284   24.0281 H   0  0  0  0  0  0  0  0  0  0  0  0
   10.2153   -4.1630   23.8878 H   0  0  0  0  0  0  0  0  0  0  0  0
    8.1060   -2.0477   22.1505 C   0  0  0  0  0  0  0  0  0  0  0  0
    7.6852   -1.7970   20.9264 N   0  0  0  0  0  0  0  0  0  0  0  0
    7.2698   -0.5039   21.0014 N   0  0  0  0  0  0  0  0  0  0  0  0
    6.5993    0.1040   19.9028 C   0  0  0  0  0  0  0  0  0  0  0  0
    5.3974    0.8042   20.0769 C   0  0  0  0  0  0  0  0  0  0  0  0
    4.8215    1.4058   18.9525 C   0  0  0  0  0  0  0  0  0  0  0  0
    5.4638    1.2936   17.7158 C   0  0  0  0  0  0  0  0  0  0  0  0
    6.5946    0.5845   17.5398 N   0  0  0  0  0  0  0  0  0  0  0  0
    7.1311   -0.0153   18.6070 C   0  0  0  0  0  0  0  0  0  0  0  0
    8.0124   -0.6309   18.4348 H   0  0  0  0  0  0  0  0  0  0  0  0
    5.0631    1.7805   16.8287 H   0  0  0  0  0  0  0  0  0  0  0  0
    3.8919    1.9624   19.0284 H   0  0  0  0  0  0  0  0  0  0  0  0
    4.9142    0.8386   21.0543 H   0  0  0  0  0  0  0  0  0  0  0  0
    7.5402   -0.0254   22.2490 C   0  0  0  0  0  0  0  0  0  0  0  0
    7.5817    1.4273   22.6139 C   0  0  0  0  0  0  0  0  0  0  0  0
    8.5735    2.2876   21.7749 C   0  0  0  0  0  0  0  0  0  0  0  0
    8.6143    3.7275   22.2565 C   0  0  0  0  0  0  0  0  0  0  0  0
    7.6672    4.5186   21.7398 N   0  0  0  0  0  0  0  0  0  0  0  0
    7.6091    5.7970   22.1271 C   0  0  0  0  0  0  0  0  0  0  0  0
    8.4744    6.3491   23.0730 C   0  0  0  0  0  0  0  0  0  0  0  0
    9.4548    5.5242   23.6354 C   0  0  0  0  0  0  0  0  0  0  0  0
    9.5466    4.1852   23.2293 C   0  0  0  0  0  0  0  0  0  0  0  0
   10.5974    3.2721   23.8175 C   0  0  0  0  0  0  0  0  0  0  0  0
   11.3133    3.8330   24.4249 H   0  0  0  0  0  0  0  0  0  0  0  0
   11.1545    2.7553   23.0276 H   0  0  0  0  0  0  0  0  0  0  0  0
   10.1550    2.4965   24.4569 H   0  0  0  0  0  0  0  0  0  0  0  0
   10.1453    5.9120   24.3910 H   0  0  0  0  0  0  0  0  0  0  0  0
    8.3688    7.3926   23.3489 H   0  0  0  0  0  0  0  0  0  0  0  0
    6.8141    6.3841   21.6745 H   0  0  0  0  0  0  0  0  0  0  0  0
    8.2522    2.2985   20.7280 H   0  0  0  0  0  0  0  0  0  0  0  0
    9.5756    1.8384   21.7953 H   0  0  0  0  0  0  0  0  0  0  0  0
    7.8743    1.4574   23.6704 H   0  0  0  0  0  0  0  0  0  0  0  0
    6.5785    1.8616   22.5409 H   0  0  0  0  0  0  0  0  0  0  0  0
    7.9899   -1.0040   23.0145 N   0  0  0  0  0  0  0  0  0  0  0  0
    8.9235   -3.8059   21.5103 H   0  0  0  0  0  0  0  0  0  0  0  0
    8.1824   -5.3558   23.1783 H   0  0  0  0  0  0  0  0  0  0  0  0
    6.8409   -4.5120   22.4397 H   0  0  0  0  0  0  0  0  0  0  0  0
    8.0093   -3.9656   25.2380 H   0  0  0  0  0  0  0  0  0  0  0  0
    6.7498   -2.9603   24.4920 H   0  0  0  0  0  0  0  0  0  0  0  0
    6.4270   -4.6795   24.8690 H   0  0  0  0  0  0  0  0  0  0  0  0
  1  2  1  0
  2  3  1  0
  3  4  1  0
  4  5  1  0
  4  6  1  0
  4  7  1  0
  3  8  1  0
  8  9  2  0
  9 10  1  0
 10 11  1  0
 11 12  2  0
 12 13  1  0
 13 14  2  0
 14 15  1  0
 15 16  2  0
 16 17  1  0
 14 18  1  0
 13 19  1  0
 12 20  1  0
 10 21  1  0
 21 22  1  0
 22 23  1  0
 23 24  1  0
 24 25  2  0
 25 26  1  0
 26 27  2  0
 27 28  1  0
 28 29  2  0
 29 30  1  0
 30 31  1  0
 30 32  1  0
 30 33  1  0
 28 34  1  0
 27 35  1  0
 26 36  1  0
 23 37  1  0
 23 38  1  0
 22 39  1  0
 22 40  1  0
 21 41  2  0
  3 42  1  0
  2 43  1  0
  2 44  1  0
  1 45  1  0
  1 46  1  0
  1 47  1  0
 41  8  1  0
 16 11  1  0
 29 24  1  0
M  END
>  <cnnaffinity>  (1) 
-6.2149

>  <filename>  (1) 
CCC(C)c1nc(CCc2ncccc2C)n(-c2cccnc2)n1

$$$$
