
     RDKit          3D

 45 47  0  0  0  0  0  0  0  0999 V2000
    5.8067   -1.4308   24.9899 C   0  0  0  0  0  0  0  0  0  0  0  0
    7.0958   -2.2481   24.9952 C   0  0  0  0  0  0  0  0  0  0  0  0
    7.3823   -2.9871   23.6611 C   0  0  0  0  0  0  0  0  0  0  0  0
    6.3586   -4.0723   23.2705 C   0  0  0  0  0  0  0  0  0  0  0  0
    6.1611   -5.1661   24.3156 C   0  0  0  0  0  0  0  0  0  0  0  0
    7.1174   -5.6211   24.5973 H   0  0  0  0  0  0  0  0  0  0  0  0
    5.5153   -5.9645   23.9360 H   0  0  0  0  0  0  0  0  0  0  0  0
    5.6945   -4.7782   25.2272 H   0  0  0  0  0  0  0  0  0  0  0  0
    5.4000   -3.5915   23.0368 H   0  0  0  0  0  0  0  0  0  0  0  0
    6.6935   -4.5286   22.3315 H   0  0  0  0  0  0  0  0  0  0  0  0
    7.5861   -1.9936   22.5502 C   0  0  0  0  0  0  0  0  0  0  0  0
    6.6723   -1.6050   21.6769 N   0  0  0  0  0  0  0  0  0  0  0  0
    7.3402   -0.6905   20.9215 N   0  0  0  0  0  0  0  0  0  0  0  0
    6.6518   -0.0100   19.8756 C   0  0  0  0  0  0  0  0  0  0  0  0
    5.4346    0.6292   20.1372 C   0  0  0  0  0  0  0  0  0  0  0  0
    4.8007    1.3089   19.0924 C   0  0  0  0  0  0  0  0  0  0  0  0
    5.3953    1.2984   17.8258 C   0  0  0  0  0  0  0  0  0  0  0  0
    6.5410    0.6528   17.5541 N   0  0  0  0  0  0  0  0  0  0  0  0
    7.1551    0.0212   18.5643 C   0  0  0  0  0  0  0  0  0  0  0  0
    8.0896   -0.4897   18.3228 H   0  0  0  0  0  0  0  0  0  0  0  0
    4.9338    1.8318   16.9989 H   0  0  0  0  0  0  0  0  0  0  0  0
    3.8722    1.8492   19.2518 H   0  0  0  0  0  0  0  0  0  0  0  0
    5.0041    0.5746   21.1372 H   0  0  0  0  0  0  0  0  0  0  0  0
    8.6093   -0.5607   21.4087 C   0  0  0  0  0  0  0  0  0  0  0  0
    9.6624    0.3807   20.9330 C   0  0  0  0  0  0  0  0  0  0  0  0
    9.9456    1.4001   21.9866 C   0  0  0  0  0  0  0  0  0  0  0  0
    9.1053    2.3591   22.4940 C   0  0  0  0  0  0  0  0  0  0  0  0
    7.7112    2.7470   22.1133 C   0  0  0  0  0  0  0  0  0  0  0  0
    6.9882    2.0296   22.5192 H   0  0  0  0  0  0  0  0  0  0  0  0
    7.6034    2.7236   21.0252 H   0  0  0  0  0  0  0  0  0  0  0  0
    7.4280    3.7454   22.4594 H   0  0  0  0  0  0  0  0  0  0  0  0
    9.8218    2.9210   23.5349 N   0  0  0  0  0  0  0  0  0  0  0  0
   11.0276    2.2944   23.5932 C   0  0  0  0  0  0  0  0  0  0  0  0
   11.1289    1.3739   22.6737 N   0  0  0  0  0  0  0  0  0  0  0  0
   11.7850    2.5088   24.3386 H   0  0  0  0  0  0  0  0  0  0  0  0
    9.5318    3.6735   24.1353 H   0  0  0  0  0  0  0  0  0  0  0  0
   10.5801   -0.1849   20.7540 H   0  0  0  0  0  0  0  0  0  0  0  0
    9.3437    0.8560   20.0043 H   0  0  0  0  0  0  0  0  0  0  0  0
    8.7858   -1.3717   22.4277 N   0  0  0  0  0  0  0  0  0  0  0  0
    8.3708   -3.4513   23.7716 H   0  0  0  0  0  0  0  0  0  0  0  0
    7.9435   -1.5802   25.1956 H   0  0  0  0  0  0  0  0  0  0  0  0
    7.0948   -2.9803   25.8123 H   0  0  0  0  0  0  0  0  0  0  0  0
    4.9294   -2.0595   24.8005 H   0  0  0  0  0  0  0  0  0  0  0  0
    5.8377   -0.6612   24.2102 H   0  0  0  0  0  0  0  0  0  0  0  0
    5.6367   -0.9254   25.9452 H   0  0  0  0  0  0  0  0  0  0  0  0
  1  2  1  0
  2  3  1  0
  3  4  1  0
  4  5  1  0
  5  6  1  0
  5  7  1  0
  5  8  1  0
  4  9  1  0
  4 10  1  0
  3 11  1  0
 11 12  2  0
 12 13  1  0
 13 14  1  0
 14 15  2  0
 15 16  1  0
 16 17  2  0
 17 18  1  0
 18 19  2  0
 19 20  1  0
 17 21  1  0
 16 22  1  0
 15 23  1  0
 13 24  1  0
 24 25  1  0
 25 26  1  0
 26 27  2  0
 27 28  1  0
 28 29  1  0
 28 30  1  0
 28 31  1  0
 27 32  1  0
 32 33  1  0
 33 34  2  0
 33 35  1  0
 32 36  1  0
 25 37  1  0
 25 38  1  0
 24 39  2  0
  3 40  1  0
  2 41  1  0
  2 42  1  0
  1 43  1  0
  1 44  1  0
  1 45  1  0
 39 11  1  0
 19 14  1  0
 34 26  1  0
M  END
>  <cnnaffinity>  (1) 
-5.92007

>  <filename>  (1) 
CCC(CC)c1nc(Cc2nc[nH]c2C)n(-c2cccnc2)n1

$$$$
