
     RDKit          3D

 43 45  0  0  0  0  0  0  0  0999 V2000
    8.4487   -5.7955   23.3817 C   0  0  0  0  0  0  0  0  0  0  0  0
    7.9356   -4.3685   23.1571 C   0  0  0  0  0  0  0  0  0  0  0  0
    8.8713   -3.5101   22.2873 C   0  0  0  0  0  0  0  0  0  0  0  0
   10.1301   -3.5328   22.9682 O   0  0  0  0  0  0  0  0  0  0  0  0
   10.8436   -3.2372   22.3836 H   0  0  0  0  0  0  0  0  0  0  0  0
    8.3218   -2.1266   21.9730 C   0  0  0  0  0  0  0  0  0  0  0  0
    7.7922   -1.8754   20.7870 N   0  0  0  0  0  0  0  0  0  0  0  0
    7.3511   -0.5985   20.9075 N   0  0  0  0  0  0  0  0  0  0  0  0
    6.6267    0.0373   19.8662 C   0  0  0  0  0  0  0  0  0  0  0  0
    5.4183    0.6983   20.1113 C   0  0  0  0  0  0  0  0  0  0  0  0
    4.7837    1.3323   19.0392 C   0  0  0  0  0  0  0  0  0  0  0  0
    5.3929    1.3004   17.7815 C   0  0  0  0  0  0  0  0  0  0  0  0
    6.5347    0.6305   17.5350 N   0  0  0  0  0  0  0  0  0  0  0  0
    7.1267    0.0020   18.5535 C   0  0  0  0  0  0  0  0  0  0  0  0
    8.0501   -0.5344   18.3383 H   0  0  0  0  0  0  0  0  0  0  0  0
    4.9617    1.8422   16.9434 H   0  0  0  0  0  0  0  0  0  0  0  0
    3.8551    1.8709   19.1829 H   0  0  0  0  0  0  0  0  0  0  0  0
    4.9949    0.7179   21.1167 H   0  0  0  0  0  0  0  0  0  0  0  0
    7.6962   -0.1326   22.1408 C   0  0  0  0  0  0  0  0  0  0  0  0
    7.4529    1.2129   22.7193 C   0  0  0  0  0  0  0  0  0  0  0  0
    6.4321    1.1348   23.8712 C   0  0  0  0  0  0  0  0  0  0  0  0
    6.1928    2.5031   24.4426 C   0  0  0  0  0  0  0  0  0  0  0  0
    7.0052    3.1004   25.4220 C   0  0  0  0  0  0  0  0  0  0  0  0
    8.3462    2.2176   26.1077 Cl  0  0  0  0  0  0  0  0  0  0  0  0
    6.8101    4.4151   25.8514 C   0  0  0  0  0  0  0  0  0  0  0  0
    5.7879    5.1718   25.2752 C   0  0  0  0  0  0  0  0  0  0  0  0
    4.9782    4.6337   24.2724 C   0  0  0  0  0  0  0  0  0  0  0  0
    5.2041    3.3219   23.8820 C   0  0  0  0  0  0  0  0  0  0  0  0
    4.4415    2.8160   22.8895 F   0  0  0  0  0  0  0  0  0  0  0  0
    4.1952    5.1939   23.7732 H   0  0  0  0  0  0  0  0  0  0  0  0
    5.6282    6.1941   25.5984 H   0  0  0  0  0  0  0  0  0  0  0  0
    7.4654    4.8235   26.6124 H   0  0  0  0  0  0  0  0  0  0  0  0
    5.4809    0.7219   23.5123 H   0  0  0  0  0  0  0  0  0  0  0  0
    6.8115    0.4459   24.6320 H   0  0  0  0  0  0  0  0  0  0  0  0
    8.4035    1.5831   23.1174 H   0  0  0  0  0  0  0  0  0  0  0  0
    7.1381    1.9407   21.9670 H   0  0  0  0  0  0  0  0  0  0  0  0
    8.2797   -1.0879   22.8378 N   0  0  0  0  0  0  0  0  0  0  0  0
    8.9029   -3.9611   21.2888 H   0  0  0  0  0  0  0  0  0  0  0  0
    7.8497   -3.8603   24.1232 H   0  0  0  0  0  0  0  0  0  0  0  0
    6.9299   -4.3959   22.7157 H   0  0  0  0  0  0  0  0  0  0  0  0
    8.6971   -6.3103   22.4443 H   0  0  0  0  0  0  0  0  0  0  0  0
    7.6887   -6.3812   23.9024 H   0  0  0  0  0  0  0  0  0  0  0  0
    9.3489   -5.7875   24.0044 H   0  0  0  0  0  0  0  0  0  0  0  0
  1  2  1  0
  2  3  1  0
  3  4  1  0
  4  5  1  0
  3  6  1  0
  6  7  2  0
  7  8  1  0
  8  9  1  0
  9 10  2  0
 10 11  1  0
 11 12  2  0
 12 13  1  0
 13 14  2  0
 14 15  1  0
 12 16  1  0
 11 17  1  0
 10 18  1  0
  8 19  1  0
 19 20  1  0
 20 21  1  0
 21 22  1  0
 22 23  2  0
 23 24  1  0
 23 25  1  0
 25 26  2  0
 26 27  1  0
 27 28  2  0
 28 29  1  0
 27 30  1  0
 26 31  1  0
 25 32  1  0
 21 33  1  0
 21 34  1  0
 20 35  1  0
 20 36  1  0
 19 37  2  0
  3 38  1  0
  2 39  1  0
  2 40  1  0
  1 41  1  0
  1 42  1  0
  1 43  1  0
 37  6  1  0
 14  9  1  0
 28 22  1  0
M  END
>  <cnnaffinity>  (1) 
-6.05739

>  <filename>  (1) 
CCC(O)c1nc(CCc2c(F)cccc2Cl)n(-c2cccnc2)n1

$$$$
