
     RDKit          3D

 51 53  0  0  0  0  0  0  0  0999 V2000
    8.2002   -5.0312   22.1205 C   0  0  0  0  0  0  0  0  0  0  0  0
    8.3954   -4.2750   23.4324 C   0  0  0  0  0  0  0  0  0  0  0  0
    7.4323   -3.0806   23.5802 C   0  0  0  0  0  0  0  0  0  0  0  0
    7.5359   -2.4484   24.9819 C   0  0  0  0  0  0  0  0  0  0  0  0
    7.3012   -3.1884   25.7558 H   0  0  0  0  0  0  0  0  0  0  0  0
    6.8399   -1.6105   25.0945 H   0  0  0  0  0  0  0  0  0  0  0  0
    8.5493   -2.0721   25.1666 H   0  0  0  0  0  0  0  0  0  0  0  0
    7.6488   -2.0587   22.4965 C   0  0  0  0  0  0  0  0  0  0  0  0
    6.7005   -1.6414   21.6843 N   0  0  0  0  0  0  0  0  0  0  0  0
    7.3350   -0.7025   20.9231 N   0  0  0  0  0  0  0  0  0  0  0  0
    6.6446   -0.0038   19.8987 C   0  0  0  0  0  0  0  0  0  0  0  0
    5.4342    0.6441   20.1654 C   0  0  0  0  0  0  0  0  0  0  0  0
    4.8123    1.3152   19.1087 C   0  0  0  0  0  0  0  0  0  0  0  0
    5.3977    1.2997   17.8371 C   0  0  0  0  0  0  0  0  0  0  0  0
    6.5552    0.6733   17.5738 N   0  0  0  0  0  0  0  0  0  0  0  0
    7.1627    0.0510   18.5916 C   0  0  0  0  0  0  0  0  0  0  0  0
    8.1101   -0.4330   18.3666 H   0  0  0  0  0  0  0  0  0  0  0  0
    4.9194    1.7896   16.9937 H   0  0  0  0  0  0  0  0  0  0  0  0
    3.8796    1.8407   19.2582 H   0  0  0  0  0  0  0  0  0  0  0  0
    5.0133    0.6063   21.1744 H   0  0  0  0  0  0  0  0  0  0  0  0
    8.6181   -0.5764   21.3676 C   0  0  0  0  0  0  0  0  0  0  0  0
    9.6050    0.4601   20.9109 C   0  0  0  0  0  0  0  0  0  0  0  0
    9.8653    1.5220   21.9581 C   0  0  0  0  0  0  0  0  0  0  0  0
    9.0143    2.5449   22.3151 C   0  0  0  0  0  0  0  0  0  0  0  0
    7.7327    2.9554   21.6621 C   0  0  0  0  0  0  0  0  0  0  0  0
    7.5753    4.0440   21.6663 H   0  0  0  0  0  0  0  0  0  0  0  0
    7.7491    2.5610   20.6442 H   0  0  0  0  0  0  0  0  0  0  0  0
    6.8556    2.4818   22.1195 H   0  0  0  0  0  0  0  0  0  0  0  0
    9.5106    3.0789   23.4640 N   0  0  0  0  0  0  0  0  0  0  0  0
    9.0321    4.2664   24.1555 C   0  0  0  0  0  0  0  0  0  0  0  0
    9.6126    5.5664   23.5995 C   0  0  0  0  0  0  0  0  0  0  0  0
    9.3662    5.6964   22.5385 H   0  0  0  0  0  0  0  0  0  0  0  0
   10.7016    5.5561   23.6963 H   0  0  0  0  0  0  0  0  0  0  0  0
    9.2194    6.4279   24.1483 H   0  0  0  0  0  0  0  0  0  0  0  0
    9.2822    4.1272   25.2063 H   0  0  0  0  0  0  0  0  0  0  0  0
    7.9415    4.2701   24.0804 H   0  0  0  0  0  0  0  0  0  0  0  0
   10.6288    2.4448   23.8839 N   0  0  0  0  0  0  0  0  0  0  0  0
   10.8306    1.4892   22.9858 C   0  0  0  0  0  0  0  0  0  0  0  0
   11.9134    0.4701   23.1056 C   0  0  0  0  0  0  0  0  0  0  0  0
   12.5771    0.6997   23.9385 H   0  0  0  0  0  0  0  0  0  0  0  0
   12.4978    0.4175   22.1807 H   0  0  0  0  0  0  0  0  0  0  0  0
   11.4748   -0.5268   23.2450 H   0  0  0  0  0  0  0  0  0  0  0  0
   10.5305   -0.0710   20.6692 H   0  0  0  0  0  0  0  0  0  0  0  0
    9.2548    0.9217   19.9877 H   0  0  0  0  0  0  0  0  0  0  0  0
    8.8537   -1.4507   22.3239 N   0  0  0  0  0  0  0  0  0  0  0  0
    6.4058   -3.4297   23.4303 H   0  0  0  0  0  0  0  0  0  0  0  0
    9.4288   -3.9110   23.5106 H   0  0  0  0  0  0  0  0  0  0  0  0
    8.2412   -4.9535   24.2812 H   0  0  0  0  0  0  0  0  0  0  0  0
    8.4014   -4.3854   21.2562 H   0  0  0  0  0  0  0  0  0  0  0  0
    7.1700   -5.3937   22.0218 H   0  0  0  0  0  0  0  0  0  0  0  0
    8.8585   -5.9046   22.0671 H   0  0  0  0  0  0  0  0  0  0  0  0
  1  2  1  0
  2  3  1  0
  3  4  1  0
  4  5  1  0
  4  6  1  0
  4  7  1  0
  3  8  1  0
  8  9  2  0
  9 10  1  0
 10 11  1  0
 11 12  2  0
 12 13  1  0
 13 14  2  0
 14 15  1  0
 15 16  2  0
 16 17  1  0
 14 18  1  0
 13 19  1  0
 12 20  1  0
 10 21  1  0
 21 22  1  0
 22 23  1  0
 23 24  2  0
 24 25  1  0
 25 26  1  0
 25 27  1  0
 25 28  1  0
 24 29  1  0
 29 30  1  0
 30 31  1  0
 31 32  1  0
 31 33  1  0
 31 34  1  0
 30 35  1  0
 30 36  1  0
 29 37  1  0
 37 38  2  0
 38 39  1  0
 39 40  1  0
 39 41  1  0
 39 42  1  0
 22 43  1  0
 22 44  1  0
 21 45  2  0
  3 46  1  0
  2 47  1  0
  2 48  1  0
  1 49  1  0
  1 50  1  0
  1 51  1  0
 45  8  1  0
 16 11  1  0
 38 23  1  0
M  END
>  <cnnaffinity>  (1) 
-6.34414

>  <filename>  (1) 
CCC(C)c1nc(Cc2c(C)nn(CC)c2C)n(-c2cccnc2)n1

$$$$
