
     RDKit          3D

 40 42  0  0  0  0  0  0  0  0999 V2000
    7.0910   -1.3106   25.4433 C   0  0  0  0  0  0  0  0  0  0  0  0
    6.4115   -2.5635   24.8746 C   0  0  0  0  0  0  0  0  0  0  0  0
    7.2061   -3.2838   23.7524 C   0  0  0  0  0  0  0  0  0  0  0  0
    6.5130   -4.4447   23.3198 O   0  0  0  0  0  0  0  0  0  0  0  0
    5.7671   -4.1822   22.7568 H   0  0  0  0  0  0  0  0  0  0  0  0
    7.6121   -2.3007   22.6648 C   0  0  0  0  0  0  0  0  0  0  0  0
    6.8325   -1.9313   21.6670 N   0  0  0  0  0  0  0  0  0  0  0  0
    7.5105   -0.8820   21.1153 N   0  0  0  0  0  0  0  0  0  0  0  0
    6.8622   -0.1926   20.0349 C   0  0  0  0  0  0  0  0  0  0  0  0
    5.6584    0.4806   20.2652 C   0  0  0  0  0  0  0  0  0  0  0  0
    5.0291    1.1166   19.1907 C   0  0  0  0  0  0  0  0  0  0  0  0
    5.6051    1.0202   17.9172 C   0  0  0  0  0  0  0  0  0  0  0  0
    6.7373    0.3387   17.6847 N   0  0  0  0  0  0  0  0  0  0  0  0
    7.3493   -0.2561   18.7197 C   0  0  0  0  0  0  0  0  0  0  0  0
    8.2635   -0.8051   18.4934 H   0  0  0  0  0  0  0  0  0  0  0  0
    5.1431    1.5084   17.0599 H   0  0  0  0  0  0  0  0  0  0  0  0
    4.1188    1.6922   19.3300 H   0  0  0  0  0  0  0  0  0  0  0  0
    5.2450    0.5206   21.2749 H   0  0  0  0  0  0  0  0  0  0  0  0
    8.6530   -0.6708   21.8441 C   0  0  0  0  0  0  0  0  0  0  0  0
    9.6386    0.4550   21.7943 C   0  0  0  0  0  0  0  0  0  0  0  0
    9.1283    1.6863   22.5222 C   0  0  0  0  0  0  0  0  0  0  0  0
    8.3292    2.6084   21.8524 C   0  0  0  0  0  0  0  0  0  0  0  0
    8.0198    2.3395   20.5764 F   0  0  0  0  0  0  0  0  0  0  0  0
    7.8375    3.7743   22.4311 C   0  0  0  0  0  0  0  0  0  0  0  0
    8.1453    4.0059   23.7674 C   0  0  0  0  0  0  0  0  0  0  0  0
    7.6645    5.0922   24.3821 F   0  0  0  0  0  0  0  0  0  0  0  0
    8.9064    3.0784   24.4922 C   0  0  0  0  0  0  0  0  0  0  0  0
    9.2019    3.3154   25.7766 F   0  0  0  0  0  0  0  0  0  0  0  0
    9.3694    1.9120   23.8851 C   0  0  0  0  0  0  0  0  0  0  0  0
    9.8678    1.1712   24.5051 H   0  0  0  0  0  0  0  0  0  0  0  0
    7.2072    4.4482   21.8602 H   0  0  0  0  0  0  0  0  0  0  0  0
   10.5315    0.0868   22.3067 H   0  0  0  0  0  0  0  0  0  0  0  0
    9.9143    0.6779   20.7605 H   0  0  0  0  0  0  0  0  0  0  0  0
    8.7485   -1.5738   22.7966 N   0  0  0  0  0  0  0  0  0  0  0  0
    8.1554   -3.6386   24.1680 H   0  0  0  0  0  0  0  0  0  0  0  0
    5.4187   -2.3095   24.4790 H   0  0  0  0  0  0  0  0  0  0  0  0
    6.2324   -3.2997   25.6663 H   0  0  0  0  0  0  0  0  0  0  0  0
    8.0887   -1.5412   25.8384 H   0  0  0  0  0  0  0  0  0  0  0  0
    7.2261   -0.5414   24.6718 H   0  0  0  0  0  0  0  0  0  0  0  0
    6.4803   -0.8828   26.2452 H   0  0  0  0  0  0  0  0  0  0  0  0
  1  2  1  0
  2  3  1  0
  3  4  1  0
  4  5  1  0
  3  6  1  0
  6  7  2  0
  7  8  1  0
  8  9  1  0
  9 10  2  0
 10 11  1  0
 11 12  2  0
 12 13  1  0
 13 14  2  0
 14 15  1  0
 12 16  1  0
 11 17  1  0
 10 18  1  0
  8 19  1  0
 19 20  1  0
 20 21  1  0
 21 22  2  0
 22 23  1  0
 22 24  1  0
 24 25  2  0
 25 26  1  0
 25 27  1  0
 27 28  1  0
 27 29  2  0
 29 30  1  0
 24 31  1  0
 20 32  1  0
 20 33  1  0
 19 34  2  0
  3 35  1  0
  2 36  1  0
  2 37  1  0
  1 38  1  0
  1 39  1  0
  1 40  1  0
 34  6  1  0
 14  9  1  0
 29 21  1  0
M  END
>  <cnnaffinity>  (1) 
-6.0075

>  <filename>  (1) 
CCC(O)c1nc(Cc2cc(F)c(F)cc2F)n(-c2cccnc2)n1

$$$$
