
     RDKit          3D

 47 49  0  0  0  0  0  0  0  0999 V2000
    6.5141   -5.3673   21.2130 C   0  0  0  0  0  0  0  0  0  0  0  0
    6.5085   -4.6495   22.5683 C   0  0  0  0  0  0  0  0  0  0  0  0
    7.8948   -4.4294   23.2051 C   0  0  0  0  0  0  0  0  0  0  0  0
    8.6066   -5.7365   23.5544 C   0  0  0  0  0  0  0  0  0  0  0  0
    9.5343   -5.5488   24.1071 H   0  0  0  0  0  0  0  0  0  0  0  0
    7.9809   -6.3725   24.1882 H   0  0  0  0  0  0  0  0  0  0  0  0
    8.8633   -6.3043   22.6530 H   0  0  0  0  0  0  0  0  0  0  0  0
    8.7660   -3.5697   22.2723 C   0  0  0  0  0  0  0  0  0  0  0  0
    8.2230   -2.2191   21.9648 C   0  0  0  0  0  0  0  0  0  0  0  0
    7.7295   -1.9157   20.7820 N   0  0  0  0  0  0  0  0  0  0  0  0
    7.3334   -0.6283   20.9367 N   0  0  0  0  0  0  0  0  0  0  0  0
    6.6299    0.0118   19.8887 C   0  0  0  0  0  0  0  0  0  0  0  0
    5.4063    0.6518   20.1259 C   0  0  0  0  0  0  0  0  0  0  0  0
    4.7895    1.3072   19.0567 C   0  0  0  0  0  0  0  0  0  0  0  0
    5.4159    1.2954   17.8063 C   0  0  0  0  0  0  0  0  0  0  0  0
    6.5631    0.6356   17.5631 N   0  0  0  0  0  0  0  0  0  0  0  0
    7.1479   -0.0031   18.5809 C   0  0  0  0  0  0  0  0  0  0  0  0
    8.0750   -0.5308   18.3597 H   0  0  0  0  0  0  0  0  0  0  0  0
    4.9842    1.8374   16.9683 H   0  0  0  0  0  0  0  0  0  0  0  0
    3.8630    1.8522   19.2009 H   0  0  0  0  0  0  0  0  0  0  0  0
    4.9704    0.6365   21.1257 H   0  0  0  0  0  0  0  0  0  0  0  0
    7.6579   -0.2145   22.2012 C   0  0  0  0  0  0  0  0  0  0  0  0
    7.4395    1.1645   22.7599 C   0  0  0  0  0  0  0  0  0  0  0  0
    8.7054    1.7253   23.3780 C   0  0  0  0  0  0  0  0  0  0  0  0
    8.9504    1.5979   24.7453 C   0  0  0  0  0  0  0  0  0  0  0  0
   10.1764    2.0290   25.2570 C   0  0  0  0  0  0  0  0  0  0  0  0
   11.1388    2.5841   24.5104 N   0  0  0  0  0  0  0  0  0  0  0  0
   10.9027    2.6771   23.1988 C   0  0  0  0  0  0  0  0  0  0  0  0
    9.7308    2.2380   22.5665 C   0  0  0  0  0  0  0  0  0  0  0  0
    9.6135    2.2894   21.0741 C   0  0  0  0  0  0  0  0  0  0  0  0
   10.5512    2.6202   20.6215 H   0  0  0  0  0  0  0  0  0  0  0  0
    8.8231    2.9765   20.7556 H   0  0  0  0  0  0  0  0  0  0  0  0
    9.3718    1.3052   20.6562 H   0  0  0  0  0  0  0  0  0  0  0  0
   11.6945    3.1188   22.5925 H   0  0  0  0  0  0  0  0  0  0  0  0
   10.3988    1.9265   26.3113 H   0  0  0  0  0  0  0  0  0  0  0  0
    8.2148    1.1443   25.4022 H   0  0  0  0  0  0  0  0  0  0  0  0
    6.6576    1.0844   23.5196 H   0  0  0  0  0  0  0  0  0  0  0  0
    7.0620    1.8254   21.9743 H   0  0  0  0  0  0  0  0  0  0  0  0
    8.2010   -1.2130   22.8695 N   0  0  0  0  0  0  0  0  0  0  0  0
    9.7866   -3.4568   22.6485 H   0  0  0  0  0  0  0  0  0  0  0  0
    8.8060   -4.0746   21.3125 H   0  0  0  0  0  0  0  0  0  0  0  0
    7.7402   -3.8831   24.1449 H   0  0  0  0  0  0  0  0  0  0  0  0
    6.0278   -3.6688   22.4505 H   0  0  0  0  0  0  0  0  0  0  0  0
    5.8805   -5.2093   23.2735 H   0  0  0  0  0  0  0  0  0  0  0  0
    5.4938   -5.5319   20.8572 H   0  0  0  0  0  0  0  0  0  0  0  0
    7.0061   -6.3447   21.2672 H   0  0  0  0  0  0  0  0  0  0  0  0
    7.0276   -4.7801   20.4429 H   0  0  0  0  0  0  0  0  0  0  0  0
  1  2  1  0
  2  3  1  0
  3  4  1  0
  4  5  1  0
  4  6  1  0
  4  7  1  0
  3  8  1  0
  8  9  1  0
  9 10  2  0
 10 11  1  0
 11 12  1  0
 12 13  2  0
 13 14  1  0
 14 15  2  0
 15 16  1  0
 16 17  2  0
 17 18  1  0
 15 19  1  0
 14 20  1  0
 13 21  1  0
 11 22  1  0
 22 23  1  0
 23 24  1  0
 24 25  2  0
 25 26  1  0
 26 27  2  0
 27 28  1  0
 28 29  2  0
 29 30  1  0
 30 31  1  0
 30 32  1  0
 30 33  1  0
 28 34  1  0
 26 35  1  0
 25 36  1  0
 23 37  1  0
 23 38  1  0
 22 39  2  0
  8 40  1  0
  8 41  1  0
  3 42  1  0
  2 43  1  0
  2 44  1  0
  1 45  1  0
  1 46  1  0
  1 47  1  0
 39  9  1  0
 17 12  1  0
 29 24  1  0
M  END
>  <cnnaffinity>  (1) 
-5.91601

>  <filename>  (1) 
CCC(C)Cc1nc(Cc2ccncc2C)n(-c2cccnc2)n1

$$$$
