
     RDKit          3D

 41 43  0  0  0  0  0  0  0  0999 V2000
    6.9232   -4.9450   21.7840 C   0  0  0  0  0  0  0  0  0  0  0  0
    7.7887   -4.5190   22.9678 C   0  0  0  0  0  0  0  0  0  0  0  0
    7.4422   -3.1220   23.5460 C   0  0  0  0  0  0  0  0  0  0  0  0
    6.0366   -3.0568   24.1613 C   0  0  0  0  0  0  0  0  0  0  0  0
    5.8777   -2.0978   24.6657 H   0  0  0  0  0  0  0  0  0  0  0  0
    5.2630   -3.1546   23.3914 H   0  0  0  0  0  0  0  0  0  0  0  0
    5.8975   -3.8553   24.8972 H   0  0  0  0  0  0  0  0  0  0  0  0
    7.6441   -2.0418   22.5143 C   0  0  0  0  0  0  0  0  0  0  0  0
    6.6907   -1.6109   21.7057 N   0  0  0  0  0  0  0  0  0  0  0  0
    7.3315   -0.7044   20.9245 N   0  0  0  0  0  0  0  0  0  0  0  0
    6.6468   -0.0036   19.8979 C   0  0  0  0  0  0  0  0  0  0  0  0
    5.4357    0.6417   20.1660 C   0  0  0  0  0  0  0  0  0  0  0  0
    4.8117    1.3120   19.1107 C   0  0  0  0  0  0  0  0  0  0  0  0
    5.3992    1.2954   17.8393 C   0  0  0  0  0  0  0  0  0  0  0  0
    6.5573    0.6710   17.5770 N   0  0  0  0  0  0  0  0  0  0  0  0
    7.1647    0.0484   18.5906 C   0  0  0  0  0  0  0  0  0  0  0  0
    8.1141   -0.4322   18.3651 H   0  0  0  0  0  0  0  0  0  0  0  0
    4.9181    1.7840   16.9954 H   0  0  0  0  0  0  0  0  0  0  0  0
    3.8805    1.8414   19.2617 H   0  0  0  0  0  0  0  0  0  0  0  0
    5.0152    0.6106   21.1745 H   0  0  0  0  0  0  0  0  0  0  0  0
    8.6188   -0.6044   21.3484 C   0  0  0  0  0  0  0  0  0  0  0  0
    9.6303    0.3332   20.7833 C   0  0  0  0  0  0  0  0  0  0  0  0
   10.3658    1.1135   21.8511 C   0  0  0  0  0  0  0  0  0  0  0  0
   11.6143    0.6795   22.2966 C   0  0  0  0  0  0  0  0  0  0  0  0
   12.2326    1.3415   23.3588 C   0  0  0  0  0  0  0  0  0  0  0  0
   11.5591    2.4093   23.9457 C   0  0  0  0  0  0  0  0  0  0  0  0
   10.3493    2.8329   23.5663 N   0  0  0  0  0  0  0  0  0  0  0  0
    9.7901    2.1950   22.5528 C   0  0  0  0  0  0  0  0  0  0  0  0
    8.2026    2.7325   22.1103 Cl  0  0  0  0  0  0  0  0  0  0  0  0
   11.9999    2.9639   24.7660 H   0  0  0  0  0  0  0  0  0  0  0  0
   13.2072    1.0399   23.7138 H   0  0  0  0  0  0  0  0  0  0  0  0
   12.0845   -0.1814   21.8195 H   0  0  0  0  0  0  0  0  0  0  0  0
    9.1668    1.0240   20.0752 H   0  0  0  0  0  0  0  0  0  0  0  0
   10.3183   -0.3247   20.2497 H   0  0  0  0  0  0  0  0  0  0  0  0
    8.8560   -1.4704   22.3156 N   0  0  0  0  0  0  0  0  0  0  0  0
    8.1772   -2.9106   24.3302 H   0  0  0  0  0  0  0  0  0  0  0  0
    8.8451   -4.5203   22.6730 H   0  0  0  0  0  0  0  0  0  0  0  0
    7.6980   -5.2577   23.7751 H   0  0  0  0  0  0  0  0  0  0  0  0
    7.2318   -5.9284   21.4149 H   0  0  0  0  0  0  0  0  0  0  0  0
    6.9914   -4.2287   20.9582 H   0  0  0  0  0  0  0  0  0  0  0  0
    5.8664   -5.0164   22.0671 H   0  0  0  0  0  0  0  0  0  0  0  0
  1  2  1  0
  2  3  1  0
  3  4  1  0
  4  5  1  0
  4  6  1  0
  4  7  1  0
  3  8  1  0
  8  9  2  0
  9 10  1  0
 10 11  1  0
 11 12  2  0
 12 13  1  0
 13 14  2  0
 14 15  1  0
 15 16  2  0
 16 17  1  0
 14 18  1  0
 13 19  1  0
 12 20  1  0
 10 21  1  0
 21 22  1  0
 22 23  1  0
 23 24  2  0
 24 25  1  0
 25 26  2  0
 26 27  1  0
 27 28  2  0
 28 29  1  0
 26 30  1  0
 25 31  1  0
 24 32  1  0
 22 33  1  0
 22 34  1  0
 21 35  2  0
  3 36  1  0
  2 37  1  0
  2 38  1  0
  1 39  1  0
  1 40  1  0
  1 41  1  0
 35  8  1  0
 16 11  1  0
 28 23  1  0
M  END
>  <cnnaffinity>  (1) 
-6.19636

>  <filename>  (1) 
CCC(C)c1nc(Cc2cccnc2Cl)n(-c2cccnc2)n1

$$$$
