
     RDKit          3D

 47 49  0  0  0  0  0  0  0  0999 V2000
    8.9596   -6.1503   24.7189 C   0  0  0  0  0  0  0  0  0  0  0  0
    7.8910   -5.0563   24.6416 C   0  0  0  0  0  0  0  0  0  0  0  0
    7.9228   -4.1862   23.3726 C   0  0  0  0  0  0  0  0  0  0  0  0
    7.3454   -4.8673   22.1215 C   0  0  0  0  0  0  0  0  0  0  0  0
    7.4058   -4.2103   21.2448 H   0  0  0  0  0  0  0  0  0  0  0  0
    7.8793   -5.7946   21.8798 H   0  0  0  0  0  0  0  0  0  0  0  0
    6.2812   -5.1155   22.2563 H   0  0  0  0  0  0  0  0  0  0  0  0
    7.1939   -2.8493   23.6457 C   0  0  0  0  0  0  0  0  0  0  0  0
    7.4498   -1.8650   22.5652 C   0  0  0  0  0  0  0  0  0  0  0  0
    6.5850   -1.5282   21.6383 N   0  0  0  0  0  0  0  0  0  0  0  0
    7.2902   -0.6711   20.8534 N   0  0  0  0  0  0  0  0  0  0  0  0
    6.6176   -0.0068   19.7867 C   0  0  0  0  0  0  0  0  0  0  0  0
    5.4059    0.6514   20.0395 C   0  0  0  0  0  0  0  0  0  0  0  0
    4.8047    1.3596   18.9974 C   0  0  0  0  0  0  0  0  0  0  0  0
    5.4132    1.3548   17.7354 C   0  0  0  0  0  0  0  0  0  0  0  0
    6.5384    0.6728   17.4680 N   0  0  0  0  0  0  0  0  0  0  0  0
    7.1159    0.0052   18.4743 C   0  0  0  0  0  0  0  0  0  0  0  0
    8.0147   -0.5576   18.2234 H   0  0  0  0  0  0  0  0  0  0  0  0
    4.9787    1.9107   16.9072 H   0  0  0  0  0  0  0  0  0  0  0  0
    3.8860    1.9187   19.1479 H   0  0  0  0  0  0  0  0  0  0  0  0
    4.9591    0.5916   21.0334 H   0  0  0  0  0  0  0  0  0  0  0  0
    8.5495   -0.5388   21.3773 C   0  0  0  0  0  0  0  0  0  0  0  0
    9.6740    0.2216   20.7427 C   0  0  0  0  0  0  0  0  0  0  0  0
   10.7723    0.6694   21.7031 C   0  0  0  0  0  0  0  0  0  0  0  0
   10.6407    1.8712   22.4139 C   0  0  0  0  0  0  0  0  0  0  0  0
   11.5209    2.3275   23.3164 N   0  0  0  0  0  0  0  0  0  0  0  0
   12.6098    1.5841   23.5415 C   0  0  0  0  0  0  0  0  0  0  0  0
   12.8489    0.3780   22.8879 C   0  0  0  0  0  0  0  0  0  0  0  0
   11.9134   -0.1217   21.9732 C   0  0  0  0  0  0  0  0  0  0  0  0
   12.1630   -1.4511   21.3129 C   0  0  0  0  0  0  0  0  0  0  0  0
   11.2541   -2.0627   21.3142 H   0  0  0  0  0  0  0  0  0  0  0  0
   12.5025   -1.3253   20.2794 H   0  0  0  0  0  0  0  0  0  0  0  0
   12.9449   -2.0082   21.8379 H   0  0  0  0  0  0  0  0  0  0  0  0
   13.7534   -0.1810   23.1005 H   0  0  0  0  0  0  0  0  0  0  0  0
   13.3164    1.9783   24.2717 H   0  0  0  0  0  0  0  0  0  0  0  0
    9.7743    2.5156   22.2520 H   0  0  0  0  0  0  0  0  0  0  0  0
   10.0704   -0.4529   19.9747 H   0  0  0  0  0  0  0  0  0  0  0  0
    9.2433    1.0750   20.2187 H   0  0  0  0  0  0  0  0  0  0  0  0
    8.6765   -1.3016   22.4401 N   0  0  0  0  0  0  0  0  0  0  0  0
    6.1129   -2.9846   23.7432 H   0  0  0  0  0  0  0  0  0  0  0  0
    7.5649   -2.4115   24.5794 H   0  0  0  0  0  0  0  0  0  0  0  0
    8.9807   -3.9354   23.1642 H   0  0  0  0  0  0  0  0  0  0  0  0
    6.8898   -5.5023   24.7573 H   0  0  0  0  0  0  0  0  0  0  0  0
    8.0373   -4.3918   25.5089 H   0  0  0  0  0  0  0  0  0  0  0  0
    9.0227   -6.7527   23.8036 H   0  0  0  0  0  0  0  0  0  0  0  0
    9.9529   -5.7193   24.8859 H   0  0  0  0  0  0  0  0  0  0  0  0
    8.7507   -6.8151   25.5653 H   0  0  0  0  0  0  0  0  0  0  0  0
  1  2  1  0
  2  3  1  0
  3  4  1  0
  4  5  1  0
  4  6  1  0
  4  7  1  0
  3  8  1  0
  8  9  1  0
  9 10  2  0
 10 11  1  0
 11 12  1  0
 12 13  2  0
 13 14  1  0
 14 15  2  0
 15 16  1  0
 16 17  2  0
 17 18  1  0
 15 19  1  0
 14 20  1  0
 13 21  1  0
 11 22  1  0
 22 23  1  0
 23 24  1  0
 24 25  2  0
 25 26  1  0
 26 27  2  0
 27 28  1  0
 28 29  2  0
 29 30  1  0
 30 31  1  0
 30 32  1  0
 30 33  1  0
 28 34  1  0
 27 35  1  0
 25 36  1  0
 23 37  1  0
 23 38  1  0
 22 39  2  0
  8 40  1  0
  8 41  1  0
  3 42  1  0
  2 43  1  0
  2 44  1  0
  1 45  1  0
  1 46  1  0
  1 47  1  0
 39  9  1  0
 17 12  1  0
 29 24  1  0
M  END
>  <cnnaffinity>  (1) 
-6.43209

>  <filename>  (1) 
CCC(C)Cc1nc(Cc2cnccc2C)n(-c2cccnc2)n1

$$$$
