
     RDKit          3D

 43 45  0  0  0  0  0  0  0  0999 V2000
    6.5079   -3.2609   26.0185 C   0  0  0  0  0  0  0  0  0  0  0  0
    6.6997   -2.3150   24.8337 C   0  0  0  0  0  0  0  0  0  0  0  0
    7.3927   -2.9983   23.6349 C   0  0  0  0  0  0  0  0  0  0  0  0
    6.6491   -4.1463   23.2347 O   0  0  0  0  0  0  0  0  0  0  0  0
    5.8004   -3.8193   22.8960 H   0  0  0  0  0  0  0  0  0  0  0  0
    7.6666   -2.0127   22.5136 C   0  0  0  0  0  0  0  0  0  0  0  0
    6.7057   -1.5920   21.7064 N   0  0  0  0  0  0  0  0  0  0  0  0
    7.3369   -0.6823   20.9289 N   0  0  0  0  0  0  0  0  0  0  0  0
    6.6434   -0.0030   19.8944 C   0  0  0  0  0  0  0  0  0  0  0  0
    5.4340    0.6418   20.1642 C   0  0  0  0  0  0  0  0  0  0  0  0
    4.8109    1.3125   19.1086 C   0  0  0  0  0  0  0  0  0  0  0  0
    5.3983    1.2976   17.8370 C   0  0  0  0  0  0  0  0  0  0  0  0
    6.5541    0.6707   17.5718 N   0  0  0  0  0  0  0  0  0  0  0  0
    7.1603    0.0446   18.5864 C   0  0  0  0  0  0  0  0  0  0  0  0
    8.1116   -0.4326   18.3615 H   0  0  0  0  0  0  0  0  0  0  0  0
    4.9210    1.7883   16.9933 H   0  0  0  0  0  0  0  0  0  0  0  0
    3.8804    1.8412   19.2602 H   0  0  0  0  0  0  0  0  0  0  0  0
    5.0152    0.6107   21.1745 H   0  0  0  0  0  0  0  0  0  0  0  0
    8.6196   -0.5451   21.3694 C   0  0  0  0  0  0  0  0  0  0  0  0
    9.6273    0.3908   20.8127 C   0  0  0  0  0  0  0  0  0  0  0  0
   10.3061    1.2026   21.8962 C   0  0  0  0  0  0  0  0  0  0  0  0
   11.5462    0.7791   22.3846 C   0  0  0  0  0  0  0  0  0  0  0  0
   12.1639    1.4410   23.4495 C   0  0  0  0  0  0  0  0  0  0  0  0
   11.5227    2.5332   24.0317 C   0  0  0  0  0  0  0  0  0  0  0  0
   10.2706    2.9466   23.5663 C   0  0  0  0  0  0  0  0  0  0  0  0
    9.6371    2.2836   22.5091 C   0  0  0  0  0  0  0  0  0  0  0  0
    8.2695    2.7386   22.0564 C   0  0  0  0  0  0  0  0  0  0  0  0
    8.3009    3.0404   21.0105 H   0  0  0  0  0  0  0  0  0  0  0  0
    7.5153    1.9455   22.1251 H   0  0  0  0  0  0  0  0  0  0  0  0
    7.9129    3.5924   22.6370 H   0  0  0  0  0  0  0  0  0  0  0  0
    9.7645    3.7975   24.0190 H   0  0  0  0  0  0  0  0  0  0  0  0
   11.9836    3.0726   24.8471 H   0  0  0  0  0  0  0  0  0  0  0  0
   13.1328    1.1053   23.8107 H   0  0  0  0  0  0  0  0  0  0  0  0
   12.0094   -0.0969   21.9322 H   0  0  0  0  0  0  0  0  0  0  0  0
   10.3382   -0.2755   20.3253 H   0  0  0  0  0  0  0  0  0  0  0  0
    9.1609    1.0398   20.0703 H   0  0  0  0  0  0  0  0  0  0  0  0
    8.8672   -1.4090   22.3352 N   0  0  0  0  0  0  0  0  0  0  0  0
    8.3773   -3.3580   23.9489 H   0  0  0  0  0  0  0  0  0  0  0  0
    5.7270   -1.9341   24.4930 H   0  0  0  0  0  0  0  0  0  0  0  0
    7.2856   -1.4381   25.1384 H   0  0  0  0  0  0  0  0  0  0  0  0
    7.4682   -3.6467   26.3833 H   0  0  0  0  0  0  0  0  0  0  0  0
    5.8945   -4.1239   25.7368 H   0  0  0  0  0  0  0  0  0  0  0  0
    6.0179   -2.7482   26.8515 H   0  0  0  0  0  0  0  0  0  0  0  0
  1  2  1  0
  2  3  1  0
  3  4  1  0
  4  5  1  0
  3  6  1  0
  6  7  2  0
  7  8  1  0
  8  9  1  0
  9 10  2  0
 10 11  1  0
 11 12  2  0
 12 13  1  0
 13 14  2  0
 14 15  1  0
 12 16  1  0
 11 17  1  0
 10 18  1  0
  8 19  1  0
 19 20  1  0
 20 21  1  0
 21 22  2  0
 22 23  1  0
 23 24  2  0
 24 25  1  0
 25 26  2  0
 26 27  1  0
 27 28  1  0
 27 29  1  0
 27 30  1  0
 25 31  1  0
 24 32  1  0
 23 33  1  0
 22 34  1  0
 20 35  1  0
 20 36  1  0
 19 37  2  0
  3 38  1  0
  2 39  1  0
  2 40  1  0
  1 41  1  0
  1 42  1  0
  1 43  1  0
 37  6  1  0
 14  9  1  0
 26 21  1  0
M  END
>  <cnnaffinity>  (1) 
-5.82196

>  <filename>  (1) 
CCC(O)c1nc(Cc2ccccc2C)n(-c2cccnc2)n1

$$$$
