
     RDKit          3D

 42 44  0  0  0  0  0  0  0  0999 V2000
    7.8157   -1.0440   25.5056 C   0  0  0  0  0  0  0  0  0  0  0  0
    6.8468   -2.0932   24.9595 C   0  0  0  0  0  0  0  0  0  0  0  0
    7.3706   -2.8935   23.7345 C   0  0  0  0  0  0  0  0  0  0  0  0
    8.5805   -3.7761   24.0772 C   0  0  0  0  0  0  0  0  0  0  0  0
    8.8621   -4.4044   23.2271 H   0  0  0  0  0  0  0  0  0  0  0  0
    8.3500   -4.4339   24.9221 H   0  0  0  0  0  0  0  0  0  0  0  0
    9.4591   -3.1790   24.3451 H   0  0  0  0  0  0  0  0  0  0  0  0
    7.6477   -1.9809   22.5671 C   0  0  0  0  0  0  0  0  0  0  0  0
    6.6977   -1.5814   21.7437 N   0  0  0  0  0  0  0  0  0  0  0  0
    7.3414   -0.6917   20.9347 N   0  0  0  0  0  0  0  0  0  0  0  0
    6.6485   -0.0061   19.9001 C   0  0  0  0  0  0  0  0  0  0  0  0
    5.4362    0.6423   20.1643 C   0  0  0  0  0  0  0  0  0  0  0  0
    4.8123    1.3126   19.1083 C   0  0  0  0  0  0  0  0  0  0  0  0
    5.3997    1.2970   17.8369 C   0  0  0  0  0  0  0  0  0  0  0  0
    6.5563    0.6700   17.5758 N   0  0  0  0  0  0  0  0  0  0  0  0
    7.1640    0.0456   18.5912 C   0  0  0  0  0  0  0  0  0  0  0  0
    8.1121   -0.4348   18.3633 H   0  0  0  0  0  0  0  0  0  0  0  0
    4.9213    1.7875   16.9922 H   0  0  0  0  0  0  0  0  0  0  0  0
    3.8797    1.8406   19.2591 H   0  0  0  0  0  0  0  0  0  0  0  0
    5.0088    0.6051   21.1705 H   0  0  0  0  0  0  0  0  0  0  0  0
    8.6234   -0.5600   21.3793 C   0  0  0  0  0  0  0  0  0  0  0  0
    9.6171    0.4257   20.8811 C   0  0  0  0  0  0  0  0  0  0  0  0
   10.0982    1.2885   21.9430 N   0  0  0  0  0  0  0  0  0  0  0  0
   11.3163    1.0964   22.4749 N   0  0  0  0  0  0  0  0  0  0  0  0
   11.3760    1.9040   23.5221 C   0  0  0  0  0  0  0  0  0  0  0  0
   10.1650    2.6078   23.6658 C   0  0  0  0  0  0  0  0  0  0  0  0
    9.7242    3.7664   24.8598 Cl  0  0  0  0  0  0  0  0  0  0  0  0
    9.3513    2.1885   22.6384 C   0  0  0  0  0  0  0  0  0  0  0  0
    7.9238    2.5351   22.3548 C   0  0  0  0  0  0  0  0  0  0  0  0
    7.6834    3.4866   22.8324 H   0  0  0  0  0  0  0  0  0  0  0  0
    7.2492    1.7759   22.7733 H   0  0  0  0  0  0  0  0  0  0  0  0
    7.7103    2.6145   21.2826 H   0  0  0  0  0  0  0  0  0  0  0  0
   12.2569    1.9627   24.1482 H   0  0  0  0  0  0  0  0  0  0  0  0
   10.4662   -0.1384   20.5137 H   0  0  0  0  0  0  0  0  0  0  0  0
    9.1940    1.0445   20.0935 H   0  0  0  0  0  0  0  0  0  0  0  0
    8.8632   -1.4091   22.3511 N   0  0  0  0  0  0  0  0  0  0  0  0
    6.5518   -3.5349   23.3957 H   0  0  0  0  0  0  0  0  0  0  0  0
    5.9031   -1.6096   24.6796 H   0  0  0  0  0  0  0  0  0  0  0  0
    6.5954   -2.8093   25.7524 H   0  0  0  0  0  0  0  0  0  0  0  0
    7.3806   -0.5229   26.3648 H   0  0  0  0  0  0  0  0  0  0  0  0
    8.7599   -1.4915   25.8354 H   0  0  0  0  0  0  0  0  0  0  0  0
    8.0690   -0.2966   24.7455 H   0  0  0  0  0  0  0  0  0  0  0  0
  1  2  1  0
  2  3  1  0
  3  4  1  0
  4  5  1  0
  4  6  1  0
  4  7  1  0
  3  8  1  0
  8  9  2  0
  9 10  1  0
 10 11  1  0
 11 12  2  0
 12 13  1  0
 13 14  2  0
 14 15  1  0
 15 16  2  0
 16 17  1  0
 14 18  1  0
 13 19  1  0
 12 20  1  0
 10 21  1  0
 21 22  1  0
 22 23  1  0
 23 24  1  0
 24 25  2  0
 25 26  1  0
 26 27  1  0
 26 28  2  0
 28 29  1  0
 29 30  1  0
 29 31  1  0
 29 32  1  0
 25 33  1  0
 22 34  1  0
 22 35  1  0
 21 36  2  0
  3 37  1  0
  2 38  1  0
  2 39  1  0
  1 40  1  0
  1 41  1  0
  1 42  1  0
 36  8  1  0
 16 11  1  0
 28 23  1  0
M  END
>  <cnnaffinity>  (1) 
-6.06476

>  <filename>  (1) 
CCC(C)c1nc(Cn2ncc(Cl)c2C)n(-c2cccnc2)n1

$$$$
