
     RDKit          3D

 44 46  0  0  0  0  0  0  0  0999 V2000
    5.9023   -1.2741   24.9777 C   0  0  0  0  0  0  0  0  0  0  0  0
    7.1274   -2.1822   25.0153 C   0  0  0  0  0  0  0  0  0  0  0  0
    7.4017   -2.9505   23.6926 C   0  0  0  0  0  0  0  0  0  0  0  0
    6.3094   -3.9743   23.3540 C   0  0  0  0  0  0  0  0  0  0  0  0
    6.1384   -4.6529   24.1959 H   0  0  0  0  0  0  0  0  0  0  0  0
    6.5959   -4.5742   22.4844 H   0  0  0  0  0  0  0  0  0  0  0  0
    5.3634   -3.4760   23.1122 H   0  0  0  0  0  0  0  0  0  0  0  0
    7.6430   -1.9991   22.5479 C   0  0  0  0  0  0  0  0  0  0  0  0
    6.6949   -1.5913   21.7209 N   0  0  0  0  0  0  0  0  0  0  0  0
    7.3368   -0.6904   20.9342 N   0  0  0  0  0  0  0  0  0  0  0  0
    6.6451   -0.0051   19.8991 C   0  0  0  0  0  0  0  0  0  0  0  0
    5.4360    0.6424   20.1658 C   0  0  0  0  0  0  0  0  0  0  0  0
    4.8119    1.3115   19.1094 C   0  0  0  0  0  0  0  0  0  0  0  0
    5.3985    1.2965   17.8376 C   0  0  0  0  0  0  0  0  0  0  0  0
    6.5556    0.6699   17.5740 N   0  0  0  0  0  0  0  0  0  0  0  0
    7.1608    0.0439   18.5899 C   0  0  0  0  0  0  0  0  0  0  0  0
    8.1118   -0.4333   18.3650 H   0  0  0  0  0  0  0  0  0  0  0  0
    4.9197    1.7872   16.9940 H   0  0  0  0  0  0  0  0  0  0  0  0
    3.8810    1.8403   19.2609 H   0  0  0  0  0  0  0  0  0  0  0  0
    5.0141    0.6129   21.1748 H   0  0  0  0  0  0  0  0  0  0  0  0
    8.6158   -0.5612   21.3809 C   0  0  0  0  0  0  0  0  0  0  0  0
    9.6134    0.3889   20.8253 C   0  0  0  0  0  0  0  0  0  0  0  0
   10.2474    1.2286   21.9036 C   0  0  0  0  0  0  0  0  0  0  0  0
   11.5109    0.8923   22.3826 C   0  0  0  0  0  0  0  0  0  0  0  0
   12.0461    1.6112   23.4496 C   0  0  0  0  0  0  0  0  0  0  0  0
   11.4057    2.6120   24.0560 N   0  0  0  0  0  0  0  0  0  0  0  0
   10.1844    2.9074   23.5970 C   0  0  0  0  0  0  0  0  0  0  0  0
    9.5342    2.2588   22.5388 C   0  0  0  0  0  0  0  0  0  0  0  0
    8.1315    2.6468   22.1317 C   0  0  0  0  0  0  0  0  0  0  0  0
    8.0771    2.8678   21.0644 H   0  0  0  0  0  0  0  0  0  0  0  0
    7.7768    3.5286   22.6710 H   0  0  0  0  0  0  0  0  0  0  0  0
    7.4118    1.8379   22.3088 H   0  0  0  0  0  0  0  0  0  0  0  0
    9.6700    3.7213   24.1039 H   0  0  0  0  0  0  0  0  0  0  0  0
   13.0355    1.3736   23.8289 H   0  0  0  0  0  0  0  0  0  0  0  0
   12.0615    0.0727   21.9382 H   0  0  0  0  0  0  0  0  0  0  0  0
   10.3611   -0.2503   20.3608 H   0  0  0  0  0  0  0  0  0  0  0  0
    9.1575    1.0307   20.0704 H   0  0  0  0  0  0  0  0  0  0  0  0
    8.8523   -1.4176   22.3578 N   0  0  0  0  0  0  0  0  0  0  0  0
    8.3536   -3.4742   23.8265 H   0  0  0  0  0  0  0  0  0  0  0  0
    7.0120   -2.9167   25.8227 H   0  0  0  0  0  0  0  0  0  0  0  0
    8.0155   -1.5891   25.2644 H   0  0  0  0  0  0  0  0  0  0  0  0
    4.9896   -1.8528   24.7986 H   0  0  0  0  0  0  0  0  0  0  0  0
    5.7669   -0.7507   25.9292 H   0  0  0  0  0  0  0  0  0  0  0  0
    5.9860   -0.5220   24.1845 H   0  0  0  0  0  0  0  0  0  0  0  0
  1  2  1  0
  2  3  1  0
  3  4  1  0
  4  5  1  0
  4  6  1  0
  4  7  1  0
  3  8  1  0
  8  9  2  0
  9 10  1  0
 10 11  1  0
 11 12  2  0
 12 13  1  0
 13 14  2  0
 14 15  1  0
 15 16  2  0
 16 17  1  0
 14 18  1  0
 13 19  1  0
 12 20  1  0
 10 21  1  0
 21 22  1  0
 22 23  1  0
 23 24  2  0
 24 25  1  0
 25 26  2  0
 26 27  1  0
 27 28  2  0
 28 29  1  0
 29 30  1  0
 29 31  1  0
 29 32  1  0
 27 33  1  0
 25 34  1  0
 24 35  1  0
 22 36  1  0
 22 37  1  0
 21 38  2  0
  3 39  1  0
  2 40  1  0
  2 41  1  0
  1 42  1  0
  1 43  1  0
  1 44  1  0
 38  8  1  0
 16 11  1  0
 28 23  1  0
M  END
>  <cnnaffinity>  (1) 
-6.18588

>  <filename>  (1) 
CCC(C)c1nc(Cc2ccncc2C)n(-c2cccnc2)n1

$$$$
