
     RDKit          3D

 44 46  0  0  0  0  0  0  0  0999 V2000
    8.2111   -5.9868   25.2863 C   0  0  0  0  0  0  0  0  0  0  0  0
    8.7571   -5.4783   23.9476 C   0  0  0  0  0  0  0  0  0  0  0  0
    8.0121   -4.2381   23.4222 C   0  0  0  0  0  0  0  0  0  0  0  0
    6.5784   -4.5390   22.9724 C   0  0  0  0  0  0  0  0  0  0  0  0
    5.9582   -4.9619   23.7702 H   0  0  0  0  0  0  0  0  0  0  0  0
    6.5986   -5.2611   22.1451 H   0  0  0  0  0  0  0  0  0  0  0  0
    6.0800   -3.6335   22.6088 H   0  0  0  0  0  0  0  0  0  0  0  0
    8.7793   -3.5874   22.2522 C   0  0  0  0  0  0  0  0  0  0  0  0
    8.2826   -2.2323   21.8999 C   0  0  0  0  0  0  0  0  0  0  0  0
    7.6829   -1.9551   20.7632 N   0  0  0  0  0  0  0  0  0  0  0  0
    7.3676   -0.6438   20.8991 N   0  0  0  0  0  0  0  0  0  0  0  0
    6.6379    0.0143   19.8803 C   0  0  0  0  0  0  0  0  0  0  0  0
    5.4181    0.6554   20.1345 C   0  0  0  0  0  0  0  0  0  0  0  0
    4.7905    1.3061   19.0686 C   0  0  0  0  0  0  0  0  0  0  0  0
    5.4031    1.2913   17.8139 C   0  0  0  0  0  0  0  0  0  0  0  0
    6.5512    0.6370   17.5599 N   0  0  0  0  0  0  0  0  0  0  0  0
    7.1445   -0.0013   18.5701 C   0  0  0  0  0  0  0  0  0  0  0  0
    8.0766   -0.5286   18.3569 H   0  0  0  0  0  0  0  0  0  0  0  0
    4.9657    1.8314   16.9797 H   0  0  0  0  0  0  0  0  0  0  0  0
    3.8640    1.8450   19.2166 H   0  0  0  0  0  0  0  0  0  0  0  0
    4.9876    0.6374   21.1390 H   0  0  0  0  0  0  0  0  0  0  0  0
    7.8382   -0.1936   22.0983 C   0  0  0  0  0  0  0  0  0  0  0  0
    7.7790    1.2452   22.5256 C   0  0  0  0  0  0  0  0  0  0  0  0
    7.8628    1.4315   24.0302 C   0  0  0  0  0  0  0  0  0  0  0  0
    9.1025    1.7074   24.6146 C   0  0  0  0  0  0  0  0  0  0  0  0
    9.2447    1.7502   25.9998 C   0  0  0  0  0  0  0  0  0  0  0  0
    8.1110    1.5283   26.7752 C   0  0  0  0  0  0  0  0  0  0  0  0
    6.9006    1.2757   26.2542 N   0  0  0  0  0  0  0  0  0  0  0  0
    6.7989    1.2281   24.9350 C   0  0  0  0  0  0  0  0  0  0  0  0
    5.1955    0.8930   24.3339 Cl  0  0  0  0  0  0  0  0  0  0  0  0
    8.1618    1.5395   27.8586 H   0  0  0  0  0  0  0  0  0  0  0  0
   10.2164    1.9287   26.4388 H   0  0  0  0  0  0  0  0  0  0  0  0
    9.9643    1.8828   23.9756 H   0  0  0  0  0  0  0  0  0  0  0  0
    8.6203    1.7590   22.0415 H   0  0  0  0  0  0  0  0  0  0  0  0
    6.8652    1.6872   22.1214 H   0  0  0  0  0  0  0  0  0  0  0  0
    8.4213   -1.1827   22.7484 N   0  0  0  0  0  0  0  0  0  0  0  0
    8.6875   -4.2091   21.3605 H   0  0  0  0  0  0  0  0  0  0  0  0
    9.8399   -3.4774   22.5011 H   0  0  0  0  0  0  0  0  0  0  0  0
    7.9827   -3.5100   24.2504 H   0  0  0  0  0  0  0  0  0  0  0  0
    8.7502   -6.2756   23.1872 H   0  0  0  0  0  0  0  0  0  0  0  0
    9.8097   -5.1993   24.1044 H   0  0  0  0  0  0  0  0  0  0  0  0
    8.6733   -6.9249   25.6130 H   0  0  0  0  0  0  0  0  0  0  0  0
    7.1303   -6.1578   25.2525 H   0  0  0  0  0  0  0  0  0  0  0  0
    8.3983   -5.2251   26.0534 H   0  0  0  0  0  0  0  0  0  0  0  0
  1  2  1  0
  2  3  1  0
  3  4  1  0
  4  5  1  0
  4  6  1  0
  4  7  1  0
  3  8  1  0
  8  9  1  0
  9 10  2  0
 10 11  1  0
 11 12  1  0
 12 13  2  0
 13 14  1  0
 14 15  2  0
 15 16  1  0
 16 17  2  0
 17 18  1  0
 15 19  1  0
 14 20  1  0
 13 21  1  0
 11 22  1  0
 22 23  1  0
 23 24  1  0
 24 25  2  0
 25 26  1  0
 26 27  2  0
 27 28  1  0
 28 29  2  0
 29 30  1  0
 27 31  1  0
 26 32  1  0
 25 33  1  0
 23 34  1  0
 23 35  1  0
 22 36  2  0
  8 37  1  0
  8 38  1  0
  3 39  1  0
  2 40  1  0
  2 41  1  0
  1 42  1  0
  1 43  1  0
  1 44  1  0
 36  9  1  0
 17 12  1  0
 29 24  1  0
M  END
>  <cnnaffinity>  (1) 
-6.31285

>  <filename>  (1) 
CCC(C)Cc1nc(Cc2cccnc2Cl)n(-c2cccnc2)n1

$$$$
