
     RDKit          3D

 46 48  0  0  0  0  0  0  0  0999 V2000
    6.6634   -5.4904   23.9941 C   0  0  0  0  0  0  0  0  0  0  0  0
    6.7165   -4.3199   23.0112 C   0  0  0  0  0  0  0  0  0  0  0  0
    7.4092   -3.0553   23.5714 C   0  0  0  0  0  0  0  0  0  0  0  0
    6.6264   -2.4091   24.7433 C   0  0  0  0  0  0  0  0  0  0  0  0
    6.5415   -3.0978   25.5920 H   0  0  0  0  0  0  0  0  0  0  0  0
    7.1224   -1.5004   25.1091 H   0  0  0  0  0  0  0  0  0  0  0  0
    5.6112   -2.1278   24.4317 H   0  0  0  0  0  0  0  0  0  0  0  0
    7.6517   -2.0576   22.4701 C   0  0  0  0  0  0  0  0  0  0  0  0
    6.7073   -1.6305   21.6478 N   0  0  0  0  0  0  0  0  0  0  0  0
    7.3533   -0.6889   20.9131 N   0  0  0  0  0  0  0  0  0  0  0  0
    6.6575   -0.0008   19.8866 C   0  0  0  0  0  0  0  0  0  0  0  0
    5.4413    0.6366   20.1556 C   0  0  0  0  0  0  0  0  0  0  0  0
    4.8071    1.3098   19.1043 C   0  0  0  0  0  0  0  0  0  0  0  0
    5.3960    1.2982   17.8346 C   0  0  0  0  0  0  0  0  0  0  0  0
    6.5495    0.6674   17.5663 N   0  0  0  0  0  0  0  0  0  0  0  0
    7.1619    0.0417   18.5775 C   0  0  0  0  0  0  0  0  0  0  0  0
    8.1039   -0.4519   18.3447 H   0  0  0  0  0  0  0  0  0  0  0  0
    4.9281    1.8095   16.9959 H   0  0  0  0  0  0  0  0  0  0  0  0
    3.8738    1.8440   19.2562 H   0  0  0  0  0  0  0  0  0  0  0  0
    5.0161    0.5970   21.1595 H   0  0  0  0  0  0  0  0  0  0  0  0
    8.6363   -0.5681   21.3681 C   0  0  0  0  0  0  0  0  0  0  0  0
    9.5920    0.5169   20.9926 C   0  0  0  0  0  0  0  0  0  0  0  0
    9.4980    1.7979   21.8725 C   0  0  0  0  0  0  0  0  0  0  0  0
    8.1719    2.5141   21.6668 C   0  0  0  0  0  0  0  0  0  0  0  0
    8.0451    2.6383   20.5950 H   0  0  0  0  0  0  0  0  0  0  0  0
    8.1641    3.4814   22.1792 H   0  0  0  0  0  0  0  0  0  0  0  0
    7.3216    1.9283   22.0323 H   0  0  0  0  0  0  0  0  0  0  0  0
    9.7562    1.5446   23.2869 N   0  0  0  0  0  0  0  0  0  0  0  0
   11.0054    1.4388   23.8386 C   0  0  0  0  0  0  0  0  0  0  0  0
   10.8797    1.0058   25.1333 C   0  0  0  0  0  0  0  0  0  0  0  0
    9.4900    0.8399   25.3860 C   0  0  0  0  0  0  0  0  0  0  0  0
    8.8335    1.1638   24.2281 C   0  0  0  0  0  0  0  0  0  0  0  0
    7.7967    1.0739   23.9418 H   0  0  0  0  0  0  0  0  0  0  0  0
    9.0253    0.5028   26.3073 H   0  0  0  0  0  0  0  0  0  0  0  0
   11.6968    0.7694   25.7960 H   0  0  0  0  0  0  0  0  0  0  0  0
   11.8732    1.6741   23.2403 H   0  0  0  0  0  0  0  0  0  0  0  0
   10.3129    2.4617   21.5538 H   0  0  0  0  0  0  0  0  0  0  0  0
    9.4011    0.8058   19.9604 H   0  0  0  0  0  0  0  0  0  0  0  0
   10.5970    0.0931   21.0450 H   0  0  0  0  0  0  0  0  0  0  0  0
    8.8595   -1.4640   22.3053 N   0  0  0  0  0  0  0  0  0  0  0  0
    8.4210   -3.3106   23.9169 H   0  0  0  0  0  0  0  0  0  0  0  0
    7.2515   -4.6292   22.1017 H   0  0  0  0  0  0  0  0  0  0  0  0
    5.7050   -4.0375   22.6798 H   0  0  0  0  0  0  0  0  0  0  0  0
    6.0350   -5.2705   24.8649 H   0  0  0  0  0  0  0  0  0  0  0  0
    7.6652   -5.7451   24.3641 H   0  0  0  0  0  0  0  0  0  0  0  0
    6.2512   -6.3817   23.5100 H   0  0  0  0  0  0  0  0  0  0  0  0
  1  2  1  0
  2  3  1  0
  3  4  1  0
  4  5  1  0
  4  6  1  0
  4  7  1  0
  3  8  1  0
  8  9  2  0
  9 10  1  0
 10 11  1  0
 11 12  2  0
 12 13  1  0
 13 14  2  0
 14 15  1  0
 15 16  2  0
 16 17  1  0
 14 18  1  0
 13 19  1  0
 12 20  1  0
 10 21  1  0
 21 22  1  0
 22 23  1  0
 23 24  1  0
 24 25  1  0
 24 26  1  0
 24 27  1  0
 23 28  1  0
 28 29  1  0
 29 30  2  0
 30 31  1  0
 31 32  2  0
 32 33  1  0
 31 34  1  0
 30 35  1  0
 29 36  1  0
 23 37  1  0
 22 38  1  0
 22 39  1  0
 21 40  2  0
  3 41  1  0
  2 42  1  0
  2 43  1  0
  1 44  1  0
  1 45  1  0
  1 46  1  0
 40  8  1  0
 16 11  1  0
 32 28  1  0
M  END
>  <cnnaffinity>  (1) 
-5.92703

>  <filename>  (1) 
CCC(C)c1nc(CC(C)n2cccc2)n(-c2cccnc2)n1

$$$$
