
     RDKit          3D

 43 45  0  0  0  0  0  0  0  0999 V2000
    8.6411   -5.4216   23.7856 C   0  0  0  0  0  0  0  0  0  0  0  0
    8.0590   -4.0140   23.5981 C   0  0  0  0  0  0  0  0  0  0  0  0
    8.8578   -3.1979   22.5501 C   0  0  0  0  0  0  0  0  0  0  0  0
   10.2922   -2.8838   23.0426 C   0  0  0  0  0  0  0  0  0  0  0  0
   10.8957   -2.4195   22.2566 H   0  0  0  0  0  0  0  0  0  0  0  0
   10.2665   -2.1898   23.8964 H   0  0  0  0  0  0  0  0  0  0  0  0
   10.8203   -3.7925   23.3525 H   0  0  0  0  0  0  0  0  0  0  0  0
    8.1459   -1.9434   22.1205 C   0  0  0  0  0  0  0  0  0  0  0  0
    7.7477   -1.7238   20.8804 N   0  0  0  0  0  0  0  0  0  0  0  0
    7.1863   -0.4848   20.9564 N   0  0  0  0  0  0  0  0  0  0  0  0
    6.5177    0.0946   19.8474 C   0  0  0  0  0  0  0  0  0  0  0  0
    5.3017    0.7802   19.9892 C   0  0  0  0  0  0  0  0  0  0  0  0
    4.7646    1.4010   18.8578 C   0  0  0  0  0  0  0  0  0  0  0  0
    5.4442    1.3004   17.6406 C   0  0  0  0  0  0  0  0  0  0  0  0
    6.5785    0.5928   17.4897 N   0  0  0  0  0  0  0  0  0  0  0  0
    7.0887   -0.0077   18.5678 C   0  0  0  0  0  0  0  0  0  0  0  0
    7.9938   -0.5953   18.4341 H   0  0  0  0  0  0  0  0  0  0  0  0
    5.0675    1.7998   16.7510 H   0  0  0  0  0  0  0  0  0  0  0  0
    3.8445    1.9713   18.9167 H   0  0  0  0  0  0  0  0  0  0  0  0
    4.7832    0.8139   20.9484 H   0  0  0  0  0  0  0  0  0  0  0  0
    7.3719    0.0095   22.2145 C   0  0  0  0  0  0  0  0  0  0  0  0
    7.0797    1.4118   22.6773 C   0  0  0  0  0  0  0  0  0  0  0  0
    8.1741    1.9960   23.6209 C   0  0  0  0  0  0  0  0  0  0  0  0
    8.3613    1.1841   24.8787 C   0  0  0  0  0  0  0  0  0  0  0  0
    7.2575    0.9300   25.6030 N   0  0  0  0  0  0  0  0  0  0  0  0
    7.3612    0.0229   26.5720 C   0  0  0  0  0  0  0  0  0  0  0  0
    8.5740   -0.5995   26.8550 C   0  0  0  0  0  0  0  0  0  0  0  0
    8.6737   -1.5558   27.7867 F   0  0  0  0  0  0  0  0  0  0  0  0
    9.6769   -0.1753   26.1374 C   0  0  0  0  0  0  0  0  0  0  0  0
    9.5855    0.7295   25.1583 N   0  0  0  0  0  0  0  0  0  0  0  0
   10.6595   -0.6013   26.3478 H   0  0  0  0  0  0  0  0  0  0  0  0
    6.4541   -0.2341   27.1219 H   0  0  0  0  0  0  0  0  0  0  0  0
    7.9105    3.0176   23.9099 H   0  0  0  0  0  0  0  0  0  0  0  0
    9.1450    2.0323   23.1144 H   0  0  0  0  0  0  0  0  0  0  0  0
    6.1234    1.3624   23.2163 H   0  0  0  0  0  0  0  0  0  0  0  0
    6.9379    2.0788   21.8207 H   0  0  0  0  0  0  0  0  0  0  0  0
    7.9287   -0.9159   22.9717 N   0  0  0  0  0  0  0  0  0  0  0  0
    8.8971   -3.7911   21.6274 H   0  0  0  0  0  0  0  0  0  0  0  0
    7.0105   -4.0879   23.2720 H   0  0  0  0  0  0  0  0  0  0  0  0
    8.0543   -3.4807   24.5629 H   0  0  0  0  0  0  0  0  0  0  0  0
    7.9487   -6.0679   24.3322 H   0  0  0  0  0  0  0  0  0  0  0  0
    8.8414   -5.8952   22.8147 H   0  0  0  0  0  0  0  0  0  0  0  0
    9.5828   -5.4021   24.3488 H   0  0  0  0  0  0  0  0  0  0  0  0
  1  2  1  0
  2  3  1  0
  3  4  1  0
  4  5  1  0
  4  6  1  0
  4  7  1  0
  3  8  1  0
  8  9  2  0
  9 10  1  0
 10 11  1  0
 11 12  2  0
 12 13  1  0
 13 14  2  0
 14 15  1  0
 15 16  2  0
 16 17  1  0
 14 18  1  0
 13 19  1  0
 12 20  1  0
 10 21  1  0
 21 22  1  0
 22 23  1  0
 23 24  1  0
 24 25  2  0
 25 26  1  0
 26 27  2  0
 27 28  1  0
 27 29  1  0
 29 30  2  0
 29 31  1  0
 26 32  1  0
 23 33  1  0
 23 34  1  0
 22 35  1  0
 22 36  1  0
 21 37  2  0
  3 38  1  0
  2 39  1  0
  2 40  1  0
  1 41  1  0
  1 42  1  0
  1 43  1  0
 37  8  1  0
 16 11  1  0
 30 24  1  0
M  END
>  <cnnaffinity>  (1) 
-6.18593

>  <filename>  (1) 
CCC(C)c1nc(CCc2ncc(F)cn2)n(-c2cccnc2)n1

$$$$
