
     RDKit          3D

 43 45  0  0  0  0  0  0  0  0999 V2000
    6.9883   -4.5006   23.0868 C   0  0  0  0  0  0  0  0  0  0  0  0
    8.3846   -4.0532   23.5147 C   0  0  0  0  0  0  0  0  0  0  0  0
    9.1120   -3.1750   22.4714 C   0  0  0  0  0  0  0  0  0  0  0  0
   10.5633   -2.8908   22.9259 C   0  0  0  0  0  0  0  0  0  0  0  0
   10.5974   -2.0730   23.6495 H   0  0  0  0  0  0  0  0  0  0  0  0
   11.2077   -2.6259   22.0798 H   0  0  0  0  0  0  0  0  0  0  0  0
   10.9921   -3.7737   23.4188 H   0  0  0  0  0  0  0  0  0  0  0  0
    8.3311   -1.9308   22.1028 C   0  0  0  0  0  0  0  0  0  0  0  0
    7.8243   -1.7272   20.9000 N   0  0  0  0  0  0  0  0  0  0  0  0
    7.1997   -0.5244   21.0131 N   0  0  0  0  0  0  0  0  0  0  0  0
    6.5259    0.0727   19.9092 C   0  0  0  0  0  0  0  0  0  0  0  0
    5.3490    0.8133   20.0854 C   0  0  0  0  0  0  0  0  0  0  0  0
    4.7940    1.4383   18.9644 C   0  0  0  0  0  0  0  0  0  0  0  0
    5.4144    1.2888   17.7213 C   0  0  0  0  0  0  0  0  0  0  0  0
    6.5237    0.5514   17.5437 N   0  0  0  0  0  0  0  0  0  0  0  0
    7.0595   -0.0471   18.6110 C   0  0  0  0  0  0  0  0  0  0  0  0
    7.9662   -0.6240   18.4403 H   0  0  0  0  0  0  0  0  0  0  0  0
    5.0101    1.7773   16.8373 H   0  0  0  0  0  0  0  0  0  0  0  0
    3.9083    2.0560   19.0519 H   0  0  0  0  0  0  0  0  0  0  0  0
    4.8910    0.9049   21.0680 H   0  0  0  0  0  0  0  0  0  0  0  0
    7.4246   -0.0409   22.2679 C   0  0  0  0  0  0  0  0  0  0  0  0
    7.0602    1.3381   22.7078 C   0  0  0  0  0  0  0  0  0  0  0  0
    5.7246    1.3386   23.1993 O   0  0  0  0  0  0  0  0  0  0  0  0
    5.3075    2.3467   24.0157 C   0  0  0  0  0  0  0  0  0  0  0  0
    4.1481    2.0398   24.7350 C   0  0  0  0  0  0  0  0  0  0  0  0
    3.5662    3.0356   25.4982 C   0  0  0  0  0  0  0  0  0  0  0  0
    2.4315    2.7559   26.1574 F   0  0  0  0  0  0  0  0  0  0  0  0
    4.1055    4.3208   25.5935 C   0  0  0  0  0  0  0  0  0  0  0  0
    5.2917    4.5891   24.9096 C   0  0  0  0  0  0  0  0  0  0  0  0
    5.9111    3.6078   24.1233 C   0  0  0  0  0  0  0  0  0  0  0  0
    6.8367    3.8164   23.5972 H   0  0  0  0  0  0  0  0  0  0  0  0
    5.7373    5.5801   24.9762 H   0  0  0  0  0  0  0  0  0  0  0  0
    3.5880    5.0681   26.1845 H   0  0  0  0  0  0  0  0  0  0  0  0
    3.7394    1.0380   24.6845 H   0  0  0  0  0  0  0  0  0  0  0  0
    7.1425    2.0393   21.8676 H   0  0  0  0  0  0  0  0  0  0  0  0
    7.7620    1.6376   23.4945 H   0  0  0  0  0  0  0  0  0  0  0  0
    8.1172   -0.9137   22.9768 N   0  0  0  0  0  0  0  0  0  0  0  0
    9.1194   -3.7162   21.5235 H   0  0  0  0  0  0  0  0  0  0  0  0
    9.0076   -4.9410   23.7014 H   0  0  0  0  0  0  0  0  0  0  0  0
    8.3341   -3.5032   24.4663 H   0  0  0  0  0  0  0  0  0  0  0  0
    6.5568   -5.1584   23.8486 H   0  0  0  0  0  0  0  0  0  0  0  0
    6.3121   -3.6481   22.9534 H   0  0  0  0  0  0  0  0  0  0  0  0
    7.0098   -5.0541   22.1387 H   0  0  0  0  0  0  0  0  0  0  0  0
  1  2  1  0
  2  3  1  0
  3  4  1  0
  4  5  1  0
  4  6  1  0
  4  7  1  0
  3  8  1  0
  8  9  2  0
  9 10  1  0
 10 11  1  0
 11 12  2  0
 12 13  1  0
 13 14  2  0
 14 15  1  0
 15 16  2  0
 16 17  1  0
 14 18  1  0
 13 19  1  0
 12 20  1  0
 10 21  1  0
 21 22  1  0
 22 23  1  0
 23 24  1  0
 24 25  2  0
 25 26  1  0
 26 27  1  0
 26 28  2  0
 28 29  1  0
 29 30  2  0
 30 31  1  0
 29 32  1  0
 28 33  1  0
 25 34  1  0
 22 35  1  0
 22 36  1  0
 21 37  2  0
  3 38  1  0
  2 39  1  0
  2 40  1  0
  1 41  1  0
  1 42  1  0
  1 43  1  0
 37  8  1  0
 16 11  1  0
 30 24  1  0
M  END
>  <cnnaffinity>  (1) 
-5.71429

>  <filename>  (1) 
CCC(C)c1nc(COc2cccc(F)c2)n(-c2cccnc2)n1

$$$$
