
     RDKit          3D

 42 44  0  0  0  0  0  0  0  0999 V2000
    8.2485   -5.1232   24.7798 C   0  0  0  0  0  0  0  0  0  0  0  0
    8.5550   -3.9732   23.8184 C   0  0  0  0  0  0  0  0  0  0  0  0
    7.4266   -2.9246   23.6965 C   0  0  0  0  0  0  0  0  0  0  0  0
    7.2166   -2.1384   25.0144 C   0  0  0  0  0  0  0  0  0  0  0  0
    6.9562   -2.8141   25.8369 H   0  0  0  0  0  0  0  0  0  0  0  0
    8.1303   -1.5963   25.2938 H   0  0  0  0  0  0  0  0  0  0  0  0
    6.4009   -1.4102   24.9201 H   0  0  0  0  0  0  0  0  0  0  0  0
    7.6764   -1.9948   22.5326 C   0  0  0  0  0  0  0  0  0  0  0  0
    6.7153   -1.5991   21.7209 N   0  0  0  0  0  0  0  0  0  0  0  0
    7.3433   -0.7117   20.9049 N   0  0  0  0  0  0  0  0  0  0  0  0
    6.6476   -0.0444   19.8636 C   0  0  0  0  0  0  0  0  0  0  0  0
    5.4492    0.6167   20.1457 C   0  0  0  0  0  0  0  0  0  0  0  0
    4.8282    1.3026   19.0986 C   0  0  0  0  0  0  0  0  0  0  0  0
    5.4073    1.2945   17.8247 C   0  0  0  0  0  0  0  0  0  0  0  0
    6.5384    0.6305   17.5420 N   0  0  0  0  0  0  0  0  0  0  0  0
    7.1365   -0.0192   18.5459 C   0  0  0  0  0  0  0  0  0  0  0  0
    8.0609   -0.5427   18.2995 H   0  0  0  0  0  0  0  0  0  0  0  0
    4.9433    1.8296   16.9969 H   0  0  0  0  0  0  0  0  0  0  0  0
    3.9100    1.8475   19.2661 H   0  0  0  0  0  0  0  0  0  0  0  0
    5.0541    0.5984   21.1647 H   0  0  0  0  0  0  0  0  0  0  0  0
    8.6290   -0.5661   21.3220 C   0  0  0  0  0  0  0  0  0  0  0  0
    9.4939    0.5615   20.8538 C   0  0  0  0  0  0  0  0  0  0  0  0
    8.8544    2.2494   21.2448 S   0  0  0  0  0  0  0  0  0  0  0  0
    8.8050    2.1868   23.0446 C   0  0  0  0  0  0  0  0  0  0  0  0
    9.9970    2.3187   23.7747 C   0  0  0  0  0  0  0  0  0  0  0  0
    9.9887    2.0251   25.1371 C   0  0  0  0  0  0  0  0  0  0  0  0
    8.7680    1.7019   25.7321 C   0  0  0  0  0  0  0  0  0  0  0  0
    7.6232    1.6851   24.9365 C   0  0  0  0  0  0  0  0  0  0  0  0
    7.6273    1.9252   23.6167 N   0  0  0  0  0  0  0  0  0  0  0  0
    6.6497    1.4652   25.3698 H   0  0  0  0  0  0  0  0  0  0  0  0
    8.7015    1.4768   26.7892 H   0  0  0  0  0  0  0  0  0  0  0  0
   10.9085    2.0188   25.7197 H   0  0  0  0  0  0  0  0  0  0  0  0
   10.9016    2.6273   23.2675 H   0  0  0  0  0  0  0  0  0  0  0  0
    9.5790    0.5617   19.7677 H   0  0  0  0  0  0  0  0  0  0  0  0
   10.4905    0.4373   21.2772 H   0  0  0  0  0  0  0  0  0  0  0  0
    8.8907   -1.4139   22.2984 N   0  0  0  0  0  0  0  0  0  0  0  0
    6.4835   -3.4328   23.4577 H   0  0  0  0  0  0  0  0  0  0  0  0
    9.4745   -3.4578   24.1305 H   0  0  0  0  0  0  0  0  0  0  0  0
    8.7584   -4.3895   22.8228 H   0  0  0  0  0  0  0  0  0  0  0  0
    8.1672   -4.7883   25.8209 H   0  0  0  0  0  0  0  0  0  0  0  0
    7.3095   -5.6241   24.5128 H   0  0  0  0  0  0  0  0  0  0  0  0
    9.0454   -5.8736   24.7407 H   0  0  0  0  0  0  0  0  0  0  0  0
  1  2  1  0
  2  3  1  0
  3  4  1  0
  4  5  1  0
  4  6  1  0
  4  7  1  0
  3  8  1  0
  8  9  2  0
  9 10  1  0
 10 11  1  0
 11 12  2  0
 12 13  1  0
 13 14  2  0
 14 15  1  0
 15 16  2  0
 16 17  1  0
 14 18  1  0
 13 19  1  0
 12 20  1  0
 10 21  1  0
 21 22  1  0
 22 23  1  0
 23 24  1  0
 24 25  2  0
 25 26  1  0
 26 27  2  0
 27 28  1  0
 28 29  2  0
 28 30  1  0
 27 31  1  0
 26 32  1  0
 25 33  1  0
 22 34  1  0
 22 35  1  0
 21 36  2  0
  3 37  1  0
  2 38  1  0
  2 39  1  0
  1 40  1  0
  1 41  1  0
  1 42  1  0
 36  8  1  0
 16 11  1  0
 29 24  1  0
M  END
>  <cnnaffinity>  (1) 
-5.97235

>  <filename>  (1) 
CCC(C)c1nc(CSc2ccccn2)n(-c2cccnc2)n1

$$$$
