
     RDKit          3D

 45 47  0  0  0  0  0  0  0  0999 V2000
    9.0773   -5.1184   24.1818 C   0  0  0  0  0  0  0  0  0  0  0  0
    8.5216   -3.7238   23.8834 C   0  0  0  0  0  0  0  0  0  0  0  0
    9.0638   -3.0871   22.5804 C   0  0  0  0  0  0  0  0  0  0  0  0
   10.5291   -2.6027   22.6971 C   0  0  0  0  0  0  0  0  0  0  0  0
   11.2019   -3.3685   23.0976 H   0  0  0  0  0  0  0  0  0  0  0  0
   10.9207   -2.2838   21.7267 H   0  0  0  0  0  0  0  0  0  0  0  0
   10.5780   -1.7059   23.3323 H   0  0  0  0  0  0  0  0  0  0  0  0
    8.2084   -1.9239   22.1597 C   0  0  0  0  0  0  0  0  0  0  0  0
    7.8747   -1.6548   20.9112 N   0  0  0  0  0  0  0  0  0  0  0  0
    7.2559   -0.4418   21.0238 N   0  0  0  0  0  0  0  0  0  0  0  0
    6.5685    0.1275   19.9179 C   0  0  0  0  0  0  0  0  0  0  0  0
    5.3610    0.8210   20.0852 C   0  0  0  0  0  0  0  0  0  0  0  0
    4.7902    1.4160   18.9560 C   0  0  0  0  0  0  0  0  0  0  0  0
    5.4275    1.2966   17.7185 C   0  0  0  0  0  0  0  0  0  0  0  0
    6.5549    0.5863   17.5453 N   0  0  0  0  0  0  0  0  0  0  0  0
    7.0953   -0.0004   18.6184 C   0  0  0  0  0  0  0  0  0  0  0  0
    7.9777   -0.6116   18.4382 H   0  0  0  0  0  0  0  0  0  0  0  0
    5.0189    1.7762   16.8314 H   0  0  0  0  0  0  0  0  0  0  0  0
    3.8697    1.9822   19.0312 H   0  0  0  0  0  0  0  0  0  0  0  0
    4.8682    0.8735   21.0565 H   0  0  0  0  0  0  0  0  0  0  0  0
    7.3425   -0.0225   22.3219 C   0  0  0  0  0  0  0  0  0  0  0  0
    7.2984    1.4029   22.7658 C   0  0  0  0  0  0  0  0  0  0  0  0
    8.4364    2.2525   22.1362 C   0  0  0  0  0  0  0  0  0  0  0  0
    8.4658    3.6352   22.7631 C   0  0  0  0  0  0  0  0  0  0  0  0
    7.5726    4.2022   22.4818 H   0  0  0  0  0  0  0  0  0  0  0  0
    8.5009    3.5528   23.8549 H   0  0  0  0  0  0  0  0  0  0  0  0
    9.3489    4.1913   22.4387 H   0  0  0  0  0  0  0  0  0  0  0  0
    9.7602    1.6118   22.2130 N   0  0  0  0  0  0  0  0  0  0  0  0
   10.7316    1.6656   23.1991 C   0  0  0  0  0  0  0  0  0  0  0  0
   11.7402    0.8425   22.7863 C   0  0  0  0  0  0  0  0  0  0  0  0
   11.4274    0.2687   21.5781 N   0  0  0  0  0  0  0  0  0  0  0  0
   10.2498    0.7464   21.2767 C   0  0  0  0  0  0  0  0  0  0  0  0
    9.6860    0.5186   20.3879 H   0  0  0  0  0  0  0  0  0  0  0  0
   12.6594    0.5886   23.2962 H   0  0  0  0  0  0  0  0  0  0  0  0
   10.6200    2.2932   24.0687 H   0  0  0  0  0  0  0  0  0  0  0  0
    8.2347    2.3477   21.0663 H   0  0  0  0  0  0  0  0  0  0  0  0
    6.3397    1.8624   22.5180 H   0  0  0  0  0  0  0  0  0  0  0  0
    7.4146    1.4010   23.8528 H   0  0  0  0  0  0  0  0  0  0  0  0
    7.8734   -0.9657   23.0628 N   0  0  0  0  0  0  0  0  0  0  0  0
    8.9658   -3.8062   21.7617 H   0  0  0  0  0  0  0  0  0  0  0  0
    7.4274   -3.7690   23.8104 H   0  0  0  0  0  0  0  0  0  0  0  0
    8.7272   -3.0506   24.7278 H   0  0  0  0  0  0  0  0  0  0  0  0
    8.9361   -5.8018   23.3345 H   0  0  0  0  0  0  0  0  0  0  0  0
   10.1503   -5.0784   24.4020 H   0  0  0  0  0  0  0  0  0  0  0  0
    8.5860   -5.5693   25.0529 H   0  0  0  0  0  0  0  0  0  0  0  0
  1  2  1  0
  2  3  1  0
  3  4  1  0
  4  5  1  0
  4  6  1  0
  4  7  1  0
  3  8  1  0
  8  9  2  0
  9 10  1  0
 10 11  1  0
 11 12  2  0
 12 13  1  0
 13 14  2  0
 14 15  1  0
 15 16  2  0
 16 17  1  0
 14 18  1  0
 13 19  1  0
 12 20  1  0
 10 21  1  0
 21 22  1  0
 22 23  1  0
 23 24  1  0
 24 25  1  0
 24 26  1  0
 24 27  1  0
 23 28  1  0
 28 29  1  0
 29 30  2  0
 30 31  1  0
 31 32  2  0
 32 33  1  0
 30 34  1  0
 29 35  1  0
 23 36  1  0
 22 37  1  0
 22 38  1  0
 21 39  2  0
  3 40  1  0
  2 41  1  0
  2 42  1  0
  1 43  1  0
  1 44  1  0
  1 45  1  0
 39  8  1  0
 16 11  1  0
 32 28  1  0
M  END
>  <cnnaffinity>  (1) 
-6.29095

>  <filename>  (1) 
CCC(C)c1nc(CC(C)n2ccnc2)n(-c2cccnc2)n1

$$$$
