
     RDKit          3D

 40 42  0  0  0  0  0  0  0  0999 V2000
    7.9293   -5.4669   24.2887 C   0  0  0  0  0  0  0  0  0  0  0  0
    8.2371   -4.3503   23.2932 C   0  0  0  0  0  0  0  0  0  0  0  0
    7.4431   -3.0673   23.5893 C   0  0  0  0  0  0  0  0  0  0  0  0
    7.7352   -2.6162   24.9134 O   0  0  0  0  0  0  0  0  0  0  0  0
    8.6679   -2.3438   24.9181 H   0  0  0  0  0  0  0  0  0  0  0  0
    7.6442   -2.0229   22.5063 C   0  0  0  0  0  0  0  0  0  0  0  0
    6.6932   -1.6060   21.6936 N   0  0  0  0  0  0  0  0  0  0  0  0
    7.3252   -0.6905   20.9213 N   0  0  0  0  0  0  0  0  0  0  0  0
    6.6441    0.0064   19.8907 C   0  0  0  0  0  0  0  0  0  0  0  0
    5.4331    0.6467   20.1643 C   0  0  0  0  0  0  0  0  0  0  0  0
    4.8113    1.3137   19.1077 C   0  0  0  0  0  0  0  0  0  0  0  0
    5.4008    1.2959   17.8363 C   0  0  0  0  0  0  0  0  0  0  0  0
    6.5565    0.6715   17.5715 N   0  0  0  0  0  0  0  0  0  0  0  0
    7.1630    0.0525   18.5847 C   0  0  0  0  0  0  0  0  0  0  0  0
    8.1126   -0.4308   18.3648 H   0  0  0  0  0  0  0  0  0  0  0  0
    4.9175    1.7848   16.9928 H   0  0  0  0  0  0  0  0  0  0  0  0
    3.8793    1.8416   19.2613 H   0  0  0  0  0  0  0  0  0  0  0  0
    5.0143    0.6078   21.1737 H   0  0  0  0  0  0  0  0  0  0  0  0
    8.6135   -0.5783   21.3407 C   0  0  0  0  0  0  0  0  0  0  0  0
    9.6306    0.3433   20.7747 C   0  0  0  0  0  0  0  0  0  0  0  0
   10.3607    1.1125   21.8496 C   0  0  0  0  0  0  0  0  0  0  0  0
   11.6171    0.6825   22.2914 C   0  0  0  0  0  0  0  0  0  0  0  0
   12.2700    1.3187   23.3487 C   0  0  0  0  0  0  0  0  0  0  0  0
   11.6450    2.3953   23.9807 C   0  0  0  0  0  0  0  0  0  0  0  0
   10.3834    2.8344   23.5808 C   0  0  0  0  0  0  0  0  0  0  0  0
    9.7500    2.1843   22.5217 C   0  0  0  0  0  0  0  0  0  0  0  0
    8.1576    2.7222   22.0688 Cl  0  0  0  0  0  0  0  0  0  0  0  0
    9.8901    3.6685   24.0714 H   0  0  0  0  0  0  0  0  0  0  0  0
   12.1244    2.9052   24.7987 H   0  0  0  0  0  0  0  0  0  0  0  0
   13.2509    0.9784   23.6666 H   0  0  0  0  0  0  0  0  0  0  0  0
   12.0722   -0.1743   21.8019 H   0  0  0  0  0  0  0  0  0  0  0  0
    9.1641    1.0413   20.0782 H   0  0  0  0  0  0  0  0  0  0  0  0
   10.3080   -0.3252   20.2410 H   0  0  0  0  0  0  0  0  0  0  0  0
    8.8622   -1.4493   22.2934 N   0  0  0  0  0  0  0  0  0  0  0  0
    6.3735   -3.2908   23.5836 H   0  0  0  0  0  0  0  0  0  0  0  0
    8.0161   -4.6886   22.2736 H   0  0  0  0  0  0  0  0  0  0  0  0
    9.3081   -4.1065   23.3149 H   0  0  0  0  0  0  0  0  0  0  0  0
    8.4949   -6.3710   24.0481 H   0  0  0  0  0  0  0  0  0  0  0  0
    6.8635   -5.7265   24.2786 H   0  0  0  0  0  0  0  0  0  0  0  0
    8.1816   -5.1664   25.3115 H   0  0  0  0  0  0  0  0  0  0  0  0
  1  2  1  0
  2  3  1  0
  3  4  1  0
  4  5  1  0
  3  6  1  0
  6  7  2  0
  7  8  1  0
  8  9  1  0
  9 10  2  0
 10 11  1  0
 11 12  2  0
 12 13  1  0
 13 14  2  0
 14 15  1  0
 12 16  1  0
 11 17  1  0
 10 18  1  0
  8 19  1  0
 19 20  1  0
 20 21  1  0
 21 22  2  0
 22 23  1  0
 23 24  2  0
 24 25  1  0
 25 26  2  0
 26 27  1  0
 25 28  1  0
 24 29  1  0
 23 30  1  0
 22 31  1  0
 20 32  1  0
 20 33  1  0
 19 34  2  0
  3 35  1  0
  2 36  1  0
  2 37  1  0
  1 38  1  0
  1 39  1  0
  1 40  1  0
 34  6  1  0
 14  9  1  0
 26 21  1  0
M  END
>  <cnnaffinity>  (1) 
-5.99028

>  <filename>  (1) 
CCC(O)c1nc(Cc2ccccc2Cl)n(-c2cccnc2)n1

$$$$
