
     RDKit          3D

 42 44  0  0  0  0  0  0  0  0999 V2000
    7.1171   -4.9309   21.8883 C   0  0  0  0  0  0  0  0  0  0  0  0
    7.9134   -4.4256   23.0886 C   0  0  0  0  0  0  0  0  0  0  0  0
    7.4730   -3.0346   23.6124 C   0  0  0  0  0  0  0  0  0  0  0  0
    6.0438   -3.0261   24.1736 C   0  0  0  0  0  0  0  0  0  0  0  0
    5.3061   -3.1823   23.3792 H   0  0  0  0  0  0  0  0  0  0  0  0
    5.9150   -3.8111   24.9261 H   0  0  0  0  0  0  0  0  0  0  0  0
    5.8170   -2.0642   24.6442 H   0  0  0  0  0  0  0  0  0  0  0  0
    7.6706   -1.9742   22.5587 C   0  0  0  0  0  0  0  0  0  0  0  0
    6.7405   -1.6124   21.6940 N   0  0  0  0  0  0  0  0  0  0  0  0
    7.3698   -0.6809   20.9308 N   0  0  0  0  0  0  0  0  0  0  0  0
    6.6597    0.0012   19.9003 C   0  0  0  0  0  0  0  0  0  0  0  0
    5.4416    0.6390   20.1687 C   0  0  0  0  0  0  0  0  0  0  0  0
    4.8135    1.3083   19.1110 C   0  0  0  0  0  0  0  0  0  0  0  0
    5.4009    1.2958   17.8386 C   0  0  0  0  0  0  0  0  0  0  0  0
    6.5606    0.6741   17.5758 N   0  0  0  0  0  0  0  0  0  0  0  0
    7.1684    0.0530   18.5919 C   0  0  0  0  0  0  0  0  0  0  0  0
    8.1129   -0.4342   18.3676 H   0  0  0  0  0  0  0  0  0  0  0  0
    4.9189    1.7852   16.9942 H   0  0  0  0  0  0  0  0  0  0  0  0
    3.8806    1.8396   19.2614 H   0  0  0  0  0  0  0  0  0  0  0  0
    5.0196    0.6126   21.1782 H   0  0  0  0  0  0  0  0  0  0  0  0
    8.6413   -0.5224   21.3981 C   0  0  0  0  0  0  0  0  0  0  0  0
    9.5337    0.5915   20.9383 C   0  0  0  0  0  0  0  0  0  0  0  0
    9.0694    2.0035   21.4098 C   0  0  0  0  0  0  0  0  0  0  0  0
    8.9441    2.1128   22.9031 C   0  0  0  0  0  0  0  0  0  0  0  0
    7.8383    1.9512   23.5898 N   0  0  0  0  0  0  0  0  0  0  0  0
    8.2162    1.9514   24.9087 C   0  0  0  0  0  0  0  0  0  0  0  0
    9.5632    2.1335   25.0354 C   0  0  0  0  0  0  0  0  0  0  0  0
   10.0169    2.2312   23.7355 N   0  0  0  0  0  0  0  0  0  0  0  0
   10.9626    2.3296   23.4144 H   0  0  0  0  0  0  0  0  0  0  0  0
   10.2022    2.2171   25.9044 H   0  0  0  0  0  0  0  0  0  0  0  0
    7.4859    1.8378   25.6969 H   0  0  0  0  0  0  0  0  0  0  0  0
    8.0873    2.2313   20.9824 H   0  0  0  0  0  0  0  0  0  0  0  0
    9.7729    2.7622   21.0507 H   0  0  0  0  0  0  0  0  0  0  0  0
   10.5324    0.3756   21.3244 H   0  0  0  0  0  0  0  0  0  0  0  0
    9.5957    0.5823   19.8473 H   0  0  0  0  0  0  0  0  0  0  0  0
    8.8679   -1.3520   22.4008 N   0  0  0  0  0  0  0  0  0  0  0  0
    8.1659   -2.7603   24.4146 H   0  0  0  0  0  0  0  0  0  0  0  0
    8.9790   -4.3786   22.8328 H   0  0  0  0  0  0  0  0  0  0  0  0
    7.8341   -5.1448   23.9135 H   0  0  0  0  0  0  0  0  0  0  0  0
    7.1767   -4.2364   21.0442 H   0  0  0  0  0  0  0  0  0  0  0  0
    6.0558   -5.0490   22.1338 H   0  0  0  0  0  0  0  0  0  0  0  0
    7.4869   -5.9076   21.5603 H   0  0  0  0  0  0  0  0  0  0  0  0
  1  2  1  0
  2  3  1  0
  3  4  1  0
  4  5  1  0
  4  6  1  0
  4  7  1  0
  3  8  1  0
  8  9  2  0
  9 10  1  0
 10 11  1  0
 11 12  2  0
 12 13  1  0
 13 14  2  0
 14 15  1  0
 15 16  2  0
 16 17  1  0
 14 18  1  0
 13 19  1  0
 12 20  1  0
 10 21  1  0
 21 22  1  0
 22 23  1  0
 23 24  1  0
 24 25  2  0
 25 26  1  0
 26 27  2  0
 27 28  1  0
 28 29  1  0
 27 30  1  0
 26 31  1  0
 23 32  1  0
 23 33  1  0
 22 34  1  0
 22 35  1  0
 21 36  2  0
  3 37  1  0
  2 38  1  0
  2 39  1  0
  1 40  1  0
  1 41  1  0
  1 42  1  0
 36  8  1  0
 16 11  1  0
 28 24  1  0
M  END
>  <cnnaffinity>  (1) 
-5.88866

>  <filename>  (1) 
CCC(C)c1nc(CCc2ncc[nH]2)n(-c2cccnc2)n1

$$$$
