
     RDKit          3D

 45 48  0  0  0  0  0  0  0  0999 V2000
    5.4886    4.5936   21.8844 C   0  0  0  0  0  0  0  0  0  0  0  0
    6.9458    4.9752   21.5874 C   0  0  0  0  0  0  0  0  0  0  0  0
    7.9061    3.8778   21.9625 C   0  0  0  0  0  0  0  0  0  0  0  0
    8.1183    2.7867   21.2784 N   0  0  0  0  0  0  0  0  0  0  0  0
    9.0598    1.9924   21.8770 C   0  0  0  0  0  0  0  0  0  0  0  0
    9.4474    0.7384   21.1497 C   0  0  0  0  0  0  0  0  0  0  0  0
    8.5348   -0.3699   21.5243 C   0  0  0  0  0  0  0  0  0  0  0  0
    8.7412   -1.1715   22.5458 N   0  0  0  0  0  0  0  0  0  0  0  0
    7.6217   -1.9422   22.5725 C   0  0  0  0  0  0  0  0  0  0  0  0
    7.3902   -2.9713   23.6518 C   0  0  0  0  0  0  0  0  0  0  0  0
    6.8763   -4.3170   23.1153 C   0  0  0  0  0  0  0  0  0  0  0  0
    5.9137   -4.1829   22.6086 H   0  0  0  0  0  0  0  0  0  0  0  0
    6.7401   -5.0246   23.9410 H   0  0  0  0  0  0  0  0  0  0  0  0
    7.5803   -4.7526   22.3983 H   0  0  0  0  0  0  0  0  0  0  0  0
    6.4648   -2.4029   24.7334 C   0  0  0  0  0  0  0  0  0  0  0  0
    6.6146   -2.8007   26.1726 C   0  0  0  0  0  0  0  0  0  0  0  0
    7.0168   -1.4200   25.7214 C   0  0  0  0  0  0  0  0  0  0  0  0
    6.4130   -0.5642   26.0142 H   0  0  0  0  0  0  0  0  0  0  0  0
    8.0826   -1.2070   25.6513 H   0  0  0  0  0  0  0  0  0  0  0  0
    5.7109   -2.9080   26.7670 H   0  0  0  0  0  0  0  0  0  0  0  0
    7.4024   -3.5038   26.4346 H   0  0  0  0  0  0  0  0  0  0  0  0
    5.4427   -2.2322   24.3943 H   0  0  0  0  0  0  0  0  0  0  0  0
    8.3838   -3.1131   24.0975 H   0  0  0  0  0  0  0  0  0  0  0  0
    6.7445   -1.6693   21.6222 N   0  0  0  0  0  0  0  0  0  0  0  0
    7.3473   -0.6666   20.9260 N   0  0  0  0  0  0  0  0  0  0  0  0
    6.6494   -0.0135   19.8645 C   0  0  0  0  0  0  0  0  0  0  0  0
    5.4364    0.6319   20.1201 C   0  0  0  0  0  0  0  0  0  0  0  0
    4.8137    1.3158   19.0707 C   0  0  0  0  0  0  0  0  0  0  0  0
    5.4096    1.3029   17.8046 C   0  0  0  0  0  0  0  0  0  0  0  0
    6.5514    0.6505   17.5412 N   0  0  0  0  0  0  0  0  0  0  0  0
    7.1537    0.0108   18.5522 C   0  0  0  0  0  0  0  0  0  0  0  0
    8.0764   -0.5141   18.3069 H   0  0  0  0  0  0  0  0  0  0  0  0
    4.9520    1.8292   16.9698 H   0  0  0  0  0  0  0  0  0  0  0  0
    3.8906    1.8643   19.2260 H   0  0  0  0  0  0  0  0  0  0  0  0
    5.0062    0.5950   21.1222 H   0  0  0  0  0  0  0  0  0  0  0  0
    9.3920    0.9083   20.0747 H   0  0  0  0  0  0  0  0  0  0  0  0
   10.4638    0.4281   21.4020 H   0  0  0  0  0  0  0  0  0  0  0  0
    9.4937    2.4142   23.0882 C   0  0  0  0  0  0  0  0  0  0  0  0
    8.7614    3.9254   23.4734 S   0  0  0  0  0  0  0  0  0  0  0  0
   10.1974    1.9240   23.7473 H   0  0  0  0  0  0  0  0  0  0  0  0
    7.1991    5.8972   22.1202 H   0  0  0  0  0  0  0  0  0  0  0  0
    7.0395    5.2178   20.5266 H   0  0  0  0  0  0  0  0  0  0  0  0
    4.8288    5.4397   21.6596 H   0  0  0  0  0  0  0  0  0  0  0  0
    5.1761    3.7223   21.2890 H   0  0  0  0  0  0  0  0  0  0  0  0
    5.3676    4.3491   22.9426 H   0  0  0  0  0  0  0  0  0  0  0  0
  1  2  1  0
  2  3  1  0
  3  4  2  0
  4  5  1  0
  5  6  1  0
  6  7  1  0
  7  8  2  0
  8  9  1  0
  9 10  1  0
 10 11  1  0
 11 12  1  0
 11 13  1  0
 11 14  1  0
 10 15  1  0
 15 16  1  0
 16 17  1  0
 17 18  1  0
 17 19  1  0
 16 20  1  0
 16 21  1  0
 15 22  1  0
 10 23  1  0
  9 24  2  0
 24 25  1  0
 25 26  1  0
 26 27  2  0
 27 28  1  0
 28 29  2  0
 29 30  1  0
 30 31  2  0
 31 32  1  0
 29 33  1  0
 28 34  1  0
 27 35  1  0
  6 36  1  0
  6 37  1  0
  5 38  2  0
 38 39  1  0
 38 40  1  0
  2 41  1  0
  2 42  1  0
  1 43  1  0
  1 44  1  0
  1 45  1  0
 39  3  1  0
 25  7  1  0
 31 26  1  0
 17 15  1  0
M  END
>  <cnnaffinity>  (1) 
-6.19321

>  <filename>  (1) 
CCc1nc(Cc2nc(C(C)C3CC3)nn2-c2cccnc2)cs1

$$$$
