
     RDKit          3D

 39 41  0  0  0  0  0  0  0  0999 V2000
    7.7541   -4.5479   22.8748 C   0  0  0  0  0  0  0  0  0  0  0  0
    8.6988   -3.5505   22.1818 C   0  0  0  0  0  0  0  0  0  0  0  0
    8.1740   -2.1717   21.9622 C   0  0  0  0  0  0  0  0  0  0  0  0
    7.7268   -1.8331   20.7752 N   0  0  0  0  0  0  0  0  0  0  0  0
    7.3195   -0.5585   20.9467 N   0  0  0  0  0  0  0  0  0  0  0  0
    6.6279    0.0876   19.8974 C   0  0  0  0  0  0  0  0  0  0  0  0
    5.3958    0.7063   20.1219 C   0  0  0  0  0  0  0  0  0  0  0  0
    4.7778    1.3278   19.0359 C   0  0  0  0  0  0  0  0  0  0  0  0
    5.4100    1.2953   17.7883 C   0  0  0  0  0  0  0  0  0  0  0  0
    6.5607    0.6343   17.5571 N   0  0  0  0  0  0  0  0  0  0  0  0
    7.1474    0.0302   18.5929 C   0  0  0  0  0  0  0  0  0  0  0  0
    8.0655   -0.5291   18.4033 H   0  0  0  0  0  0  0  0  0  0  0  0
    4.9886    1.8293   16.9417 H   0  0  0  0  0  0  0  0  0  0  0  0
    3.8431    1.8604   19.1628 H   0  0  0  0  0  0  0  0  0  0  0  0
    4.9360    0.6674   21.1119 H   0  0  0  0  0  0  0  0  0  0  0  0
    7.5905   -0.1675   22.2247 C   0  0  0  0  0  0  0  0  0  0  0  0
    7.3372    1.1927   22.8057 C   0  0  0  0  0  0  0  0  0  0  0  0
    8.5863    1.7368   23.4714 C   0  0  0  0  0  0  0  0  0  0  0  0
    9.6733    2.2034   22.7151 C   0  0  0  0  0  0  0  0  0  0  0  0
    9.5383    2.1526   20.9970 Cl  0  0  0  0  0  0  0  0  0  0  0  0
   10.9003    2.6095   23.2748 C   0  0  0  0  0  0  0  0  0  0  0  0
   12.0419    3.1734   22.4584 C   0  0  0  0  0  0  0  0  0  0  0  0
   11.7220    4.0362   21.8641 H   0  0  0  0  0  0  0  0  0  0  0  0
   12.8626    3.5026   23.1033 H   0  0  0  0  0  0  0  0  0  0  0  0
   12.4438    2.4275   21.7642 H   0  0  0  0  0  0  0  0  0  0  0  0
   11.0274    2.4322   24.6545 C   0  0  0  0  0  0  0  0  0  0  0  0
    9.9726    1.9676   25.4359 C   0  0  0  0  0  0  0  0  0  0  0  0
    8.7588    1.6323   24.8498 C   0  0  0  0  0  0  0  0  0  0  0  0
    7.9581    1.2408   25.4667 H   0  0  0  0  0  0  0  0  0  0  0  0
   10.0955    1.8541   26.4980 H   0  0  0  0  0  0  0  0  0  0  0  0
   11.9759    2.6384   25.1322 H   0  0  0  0  0  0  0  0  0  0  0  0
    6.5172    1.0997   23.5262 H   0  0  0  0  0  0  0  0  0  0  0  0
    7.0043    1.8849   22.0288 H   0  0  0  0  0  0  0  0  0  0  0  0
    8.1266   -1.1787   22.8894 N   0  0  0  0  0  0  0  0  0  0  0  0
    9.6452   -3.4487   22.7185 H   0  0  0  0  0  0  0  0  0  0  0  0
    8.9049   -3.9263   21.1791 H   0  0  0  0  0  0  0  0  0  0  0  0
    8.2898   -5.4895   23.0338 H   0  0  0  0  0  0  0  0  0  0  0  0
    7.3914   -4.1901   23.8452 H   0  0  0  0  0  0  0  0  0  0  0  0
    6.8809   -4.7688   22.2502 H   0  0  0  0  0  0  0  0  0  0  0  0
  1  2  1  0
  2  3  1  0
  3  4  2  0
  4  5  1  0
  5  6  1  0
  6  7  2  0
  7  8  1  0
  8  9  2  0
  9 10  1  0
 10 11  2  0
 11 12  1  0
  9 13  1  0
  8 14  1  0
  7 15  1  0
  5 16  1  0
 16 17  1  0
 17 18  1  0
 18 19  2  0
 19 20  1  0
 19 21  1  0
 21 22  1  0
 22 23  1  0
 22 24  1  0
 22 25  1  0
 21 26  2  0
 26 27  1  0
 27 28  2  0
 28 29  1  0
 27 30  1  0
 26 31  1  0
 17 32  1  0
 17 33  1  0
 16 34  2  0
  2 35  1  0
  2 36  1  0
  1 37  1  0
  1 38  1  0
  1 39  1  0
 34  3  1  0
 11  6  1  0
 28 18  1  0
M  END
>  <cnnaffinity>  (1) 
-6.09848

>  <filename>  (1) 
CCc1nc(Cc2cccc(C)c2Cl)n(-c2cccnc2)n1

$$$$
