
     RDKit          3D

 39 41  0  0  0  0  0  0  0  0999 V2000
    7.8590   -4.5500   22.8120 C   0  0  0  0  0  0  0  0  0  0  0  0
    8.7276   -3.5172   22.0749 C   0  0  0  0  0  0  0  0  0  0  0  0
    8.1263   -2.1669   21.8778 C   0  0  0  0  0  0  0  0  0  0  0  0
    7.7222   -1.7883   20.6831 N   0  0  0  0  0  0  0  0  0  0  0  0
    7.1819   -0.5723   20.9037 N   0  0  0  0  0  0  0  0  0  0  0  0
    6.5216    0.0925   19.8483 C   0  0  0  0  0  0  0  0  0  0  0  0
    5.3083    0.7581   20.0399 C   0  0  0  0  0  0  0  0  0  0  0  0
    4.7456    1.4046   18.9392 C   0  0  0  0  0  0  0  0  0  0  0  0
    5.4048    1.3566   17.7094 C   0  0  0  0  0  0  0  0  0  0  0  0
    6.5545    0.6844   17.5175 N   0  0  0  0  0  0  0  0  0  0  0  0
    7.0864    0.0479   18.5617 C   0  0  0  0  0  0  0  0  0  0  0  0
    8.0047   -0.5138   18.3888 H   0  0  0  0  0  0  0  0  0  0  0  0
    4.9826    1.8467   16.8373 H   0  0  0  0  0  0  0  0  0  0  0  0
    3.8081    1.9348   19.0334 H   0  0  0  0  0  0  0  0  0  0  0  0
    4.8232    0.7581   21.0162 H   0  0  0  0  0  0  0  0  0  0  0  0
    7.3650   -0.2409   22.2136 C   0  0  0  0  0  0  0  0  0  0  0  0
    6.9883    1.1046   22.7956 C   0  0  0  0  0  0  0  0  0  0  0  0
    7.9952    1.6396   23.7235 N   0  0  0  0  0  0  0  0  0  0  0  0
    9.1461    2.1665   23.1991 C   0  0  0  0  0  0  0  0  0  0  0  0
   10.2829    2.2633   23.9475 C   0  0  0  0  0  0  0  0  0  0  0  0
   11.5071    2.9369   23.4006 C   0  0  0  0  0  0  0  0  0  0  0  0
   11.4729    3.1271   22.0677 F   0  0  0  0  0  0  0  0  0  0  0  0
   11.6778    4.1497   23.9627 F   0  0  0  0  0  0  0  0  0  0  0  0
   12.6123    2.2196   23.6743 F   0  0  0  0  0  0  0  0  0  0  0  0
   10.2765    1.7715   25.2915 C   0  0  0  0  0  0  0  0  0  0  0  0
    9.1313    1.3032   25.8412 C   0  0  0  0  0  0  0  0  0  0  0  0
    7.8694    1.3249   25.1232 C   0  0  0  0  0  0  0  0  0  0  0  0
    6.7846    1.0745   25.6176 O   0  0  0  0  0  0  0  0  0  0  0  0
    9.0723    0.9358   26.8562 H   0  0  0  0  0  0  0  0  0  0  0  0
   11.1911    1.7548   25.8805 H   0  0  0  0  0  0  0  0  0  0  0  0
    9.0910    2.5051   22.1616 H   0  0  0  0  0  0  0  0  0  0  0  0
    6.8301    1.8416   21.9966 H   0  0  0  0  0  0  0  0  0  0  0  0
    6.0644    1.0032   23.3706 H   0  0  0  0  0  0  0  0  0  0  0  0
    7.9423   -1.2436   22.8538 N   0  0  0  0  0  0  0  0  0  0  0  0
    9.6887   -3.4047   22.5912 H   0  0  0  0  0  0  0  0  0  0  0  0
    8.9163   -3.8630   21.0589 H   0  0  0  0  0  0  0  0  0  0  0  0
    7.5518   -4.1898   23.7993 H   0  0  0  0  0  0  0  0  0  0  0  0
    8.4372   -5.4682   22.9635 H   0  0  0  0  0  0  0  0  0  0  0  0
    6.9576   -4.8065   22.2427 H   0  0  0  0  0  0  0  0  0  0  0  0
  1  2  1  0
  2  3  1  0
  3  4  2  0
  4  5  1  0
  5  6  1  0
  6  7  2  0
  7  8  1  0
  8  9  2  0
  9 10  1  0
 10 11  2  0
 11 12  1  0
  9 13  1  0
  8 14  1  0
  7 15  1  0
  5 16  1  0
 16 17  1  0
 17 18  1  0
 18 19  1  0
 19 20  2  0
 20 21  1  0
 21 22  1  0
 21 23  1  0
 21 24  1  0
 20 25  1  0
 25 26  2  0
 26 27  1  0
 27 28  2  0
 26 29  1  0
 25 30  1  0
 19 31  1  0
 17 32  1  0
 17 33  1  0
 16 34  2  0
  2 35  1  0
  2 36  1  0
  1 37  1  0
  1 38  1  0
  1 39  1  0
 34  3  1  0
 11  6  1  0
 27 18  1  0
M  END
>  <cnnaffinity>  (1) 
-5.85111

>  <filename>  (1) 
CCc1nc(Cn2cc(C(F)(F)F)ccc2=O)n(-c2cccnc2)n1

$$$$
