
     RDKit          3D

 50 53  0  0  0  0  0  0  0  0999 V2000
   11.7628    2.0374   23.8695 C   0  0  0  0  0  0  0  0  0  0  0  0
   10.3348    1.5275   24.0857 C   0  0  0  0  0  0  0  0  0  0  0  0
    9.3348    2.3356   23.2653 C   0  0  0  0  0  0  0  0  0  0  0  0
    8.8655    3.5612   23.7813 C   0  0  0  0  0  0  0  0  0  0  0  0
    7.9186    4.3293   23.0893 C   0  0  0  0  0  0  0  0  0  0  0  0
    7.4040    3.8791   21.8695 C   0  0  0  0  0  0  0  0  0  0  0  0
    7.9059    2.6917   21.3330 C   0  0  0  0  0  0  0  0  0  0  0  0
    8.9184    1.9665   21.9697 C   0  0  0  0  0  0  0  0  0  0  0  0
    9.4709    0.7520   21.2346 C   0  0  0  0  0  0  0  0  0  0  0  0
    8.6244   -0.4528   21.4848 C   0  0  0  0  0  0  0  0  0  0  0  0
    8.8610   -1.3388   22.4314 N   0  0  0  0  0  0  0  0  0  0  0  0
    7.7232   -2.0758   22.4656 C   0  0  0  0  0  0  0  0  0  0  0  0
    7.5287   -3.1907   23.4616 C   0  0  0  0  0  0  0  0  0  0  0  0
    7.4666   -4.5802   22.7514 C   0  0  0  0  0  0  0  0  0  0  0  0
    6.6720   -5.5928   23.5775 C   0  0  0  0  0  0  0  0  0  0  0  0
    5.3260   -5.1794   23.8055 O   0  0  0  0  0  0  0  0  0  0  0  0
    5.0769   -3.7761   23.8397 C   0  0  0  0  0  0  0  0  0  0  0  0
    6.2727   -2.9831   24.3715 C   0  0  0  0  0  0  0  0  0  0  0  0
    6.0134   -1.9211   24.4581 H   0  0  0  0  0  0  0  0  0  0  0  0
    6.4984   -3.3357   25.3877 H   0  0  0  0  0  0  0  0  0  0  0  0
    4.8261   -3.4152   22.8279 H   0  0  0  0  0  0  0  0  0  0  0  0
    4.1997   -3.6372   24.4793 H   0  0  0  0  0  0  0  0  0  0  0  0
    6.6137   -6.5519   23.0533 H   0  0  0  0  0  0  0  0  0  0  0  0
    7.1691   -5.7730   24.5463 H   0  0  0  0  0  0  0  0  0  0  0  0
    8.4802   -4.9552   22.5693 H   0  0  0  0  0  0  0  0  0  0  0  0
    6.9699   -4.4754   21.7754 H   0  0  0  0  0  0  0  0  0  0  0  0
    8.4155   -3.1513   24.1005 H   0  0  0  0  0  0  0  0  0  0  0  0
    6.8069   -1.7215   21.5849 N   0  0  0  0  0  0  0  0  0  0  0  0
    7.3985   -0.6856   20.9280 N   0  0  0  0  0  0  0  0  0  0  0  0
    6.6833   -0.0353   19.8766 C   0  0  0  0  0  0  0  0  0  0  0  0
    5.4545    0.5823   20.1396 C   0  0  0  0  0  0  0  0  0  0  0  0
    4.8299    1.2733   19.0976 C   0  0  0  0  0  0  0  0  0  0  0  0
    5.4227    1.2843   17.8293 C   0  0  0  0  0  0  0  0  0  0  0  0
    6.5723    0.6462   17.5579 N   0  0  0  0  0  0  0  0  0  0  0  0
    7.1795    0.0025   18.5627 C   0  0  0  0  0  0  0  0  0  0  0  0
    8.1027   -0.5160   18.3097 H   0  0  0  0  0  0  0  0  0  0  0  0
    4.9522    1.8078   16.9990 H   0  0  0  0  0  0  0  0  0  0  0  0
    3.8958    1.7990   19.2573 H   0  0  0  0  0  0  0  0  0  0  0  0
    5.0270    0.5392   21.1425 H   0  0  0  0  0  0  0  0  0  0  0  0
    9.5167    0.9283   20.1571 H   0  0  0  0  0  0  0  0  0  0  0  0
   10.4887    0.5188   21.5621 H   0  0  0  0  0  0  0  0  0  0  0  0
    7.5327    2.3035   20.3911 H   0  0  0  0  0  0  0  0  0  0  0  0
    6.6382    4.4478   21.3358 H   0  0  0  0  0  0  0  0  0  0  0  0
    7.5639    5.2697   23.5022 H   0  0  0  0  0  0  0  0  0  0  0  0
    9.2385    3.9129   24.7447 H   0  0  0  0  0  0  0  0  0  0  0  0
   10.0741    1.6091   25.1499 H   0  0  0  0  0  0  0  0  0  0  0  0
   10.2683    0.4545   23.8599 H   0  0  0  0  0  0  0  0  0  0  0  0
   12.0510    1.9085   22.8191 H   0  0  0  0  0  0  0  0  0  0  0  0
   11.8219    3.1077   24.0984 H   0  0  0  0  0  0  0  0  0  0  0  0
   12.4893    1.5153   24.5002 H   0  0  0  0  0  0  0  0  0  0  0  0
  1  2  1  0
  2  3  1  0
  3  4  2  0
  4  5  1  0
  5  6  2  0
  6  7  1  0
  7  8  2  0
  8  9  1  0
  9 10  1  0
 10 11  2  0
 11 12  1  0
 12 13  1  0
 13 14  1  0
 14 15  1  0
 15 16  1  0
 16 17  1  0
 17 18  1  0
 18 19  1  0
 18 20  1  0
 17 21  1  0
 17 22  1  0
 15 23  1  0
 15 24  1  0
 14 25  1  0
 14 26  1  0
 13 27  1  0
 12 28  2  0
 28 29  1  0
 29 30  1  0
 30 31  2  0
 31 32  1  0
 32 33  2  0
 33 34  1  0
 34 35  2  0
 35 36  1  0
 33 37  1  0
 32 38  1  0
 31 39  1  0
  9 40  1  0
  9 41  1  0
  7 42  1  0
  6 43  1  0
  5 44  1  0
  4 45  1  0
  2 46  1  0
  2 47  1  0
  1 48  1  0
  1 49  1  0
  1 50  1  0
  8  3  1  0
 29 10  1  0
 35 30  1  0
 18 13  1  0
M  END
>  <cnnaffinity>  (1) 
-6.41273

>  <filename>  (1) 
CCc1ccccc1Cc1nc(C2CCOCC2)nn1-c1cccnc1

$$$$
