
     RDKit          3D

 50 53  0  0  0  0  0  0  0  0999 V2000
    5.1452   -2.8325   18.8422 C   0  0  0  0  0  0  0  0  0  0  0  0
    6.0391   -3.8847   19.4908 C   0  0  0  0  0  0  0  0  0  0  0  0
    5.5769   -4.5810   20.7163 C   0  0  0  0  0  0  0  0  0  0  0  0
    5.2613   -5.8622   20.7825 N   0  0  0  0  0  0  0  0  0  0  0  0
    4.9750   -6.0592   22.0850 N   0  0  0  0  0  0  0  0  0  0  0  0
    5.1073   -4.9389   22.8424 C   0  0  0  0  0  0  0  0  0  0  0  0
    4.8036   -4.8731   24.3083 C   0  0  0  0  0  0  0  0  0  0  0  0
    6.0055   -4.5215   25.1955 C   0  0  0  0  0  0  0  0  0  0  0  0
    5.6713   -4.3518   26.2242 H   0  0  0  0  0  0  0  0  0  0  0  0
    6.5362   -3.6223   24.8547 H   0  0  0  0  0  0  0  0  0  0  0  0
    6.7247   -5.3455   25.2181 H   0  0  0  0  0  0  0  0  0  0  0  0
    4.0107   -4.1312   24.4749 H   0  0  0  0  0  0  0  0  0  0  0  0
    4.3786   -5.8335   24.6234 H   0  0  0  0  0  0  0  0  0  0  0  0
    5.5332   -3.9538   21.9769 C   0  0  0  0  0  0  0  0  0  0  0  0
    5.7613   -2.4854   22.2530 C   0  0  0  0  0  0  0  0  0  0  0  0
    7.1062   -1.8430   22.0759 C   0  0  0  0  0  0  0  0  0  0  0  0
    8.1455   -2.1067   22.8497 N   0  0  0  0  0  0  0  0  0  0  0  0
    9.1144   -1.2946   22.3679 C   0  0  0  0  0  0  0  0  0  0  0  0
   10.4793   -1.2617   22.9527 C   0  0  0  0  0  0  0  0  0  0  0  0
   11.6231   -1.7962   22.0503 C   0  0  0  0  0  0  0  0  0  0  0  0
   12.8270   -0.9125   22.4336 C   0  0  0  0  0  0  0  0  0  0  0  0
   12.3800   -0.0544   23.4701 O   0  0  0  0  0  0  0  0  0  0  0  0
   10.9934    0.1442   23.2892 C   0  0  0  0  0  0  0  0  0  0  0  0
   10.5971    0.5539   24.2238 H   0  0  0  0  0  0  0  0  0  0  0  0
   10.7848    0.8513   22.4648 H   0  0  0  0  0  0  0  0  0  0  0  0
   13.7008   -1.4639   22.7848 H   0  0  0  0  0  0  0  0  0  0  0  0
   13.1789   -0.3286   21.5814 H   0  0  0  0  0  0  0  0  0  0  0  0
   11.3885   -1.6586   20.9901 H   0  0  0  0  0  0  0  0  0  0  0  0
   11.8010   -2.8593   22.2227 H   0  0  0  0  0  0  0  0  0  0  0  0
   10.4284   -1.8479   23.8741 H   0  0  0  0  0  0  0  0  0  0  0  0
    8.7555   -0.5407   21.3487 N   0  0  0  0  0  0  0  0  0  0  0  0
    7.4389   -0.8503   21.1855 N   0  0  0  0  0  0  0  0  0  0  0  0
    6.7357   -0.1521   20.1565 C   0  0  0  0  0  0  0  0  0  0  0  0
    5.5108    0.5074   20.3460 C   0  0  0  0  0  0  0  0  0  0  0  0
    4.9335    1.1451   19.2364 C   0  0  0  0  0  0  0  0  0  0  0  0
    5.5965    1.1293   18.0077 C   0  0  0  0  0  0  0  0  0  0  0  0
    6.7764    0.5130   17.8257 N   0  0  0  0  0  0  0  0  0  0  0  0
    7.3289   -0.0947   18.8800 C   0  0  0  0  0  0  0  0  0  0  0  0
    8.2961   -0.5635   18.7186 H   0  0  0  0  0  0  0  0  0  0  0  0
    5.1743    1.6189   17.1308 H   0  0  0  0  0  0  0  0  0  0  0  0
    3.9844    1.6619   19.3151 H   0  0  0  0  0  0  0  0  0  0  0  0
    5.0370    0.5455   21.3276 H   0  0  0  0  0  0  0  0  0  0  0  0
    5.5375   -2.3501   23.3197 H   0  0  0  0  0  0  0  0  0  0  0  0
    5.0514   -1.9227   21.6387 H   0  0  0  0  0  0  0  0  0  0  0  0
    4.6420   -6.9633   22.3878 H   0  0  0  0  0  0  0  0  0  0  0  0
    6.3851   -4.6366   18.7882 H   0  0  0  0  0  0  0  0  0  0  0  0
    6.8856   -3.3235   19.8835 H   0  0  0  0  0  0  0  0  0  0  0  0
    5.5912   -2.4720   17.9098 H   0  0  0  0  0  0  0  0  0  0  0  0
    4.1490   -3.1875   18.6112 H   0  0  0  0  0  0  0  0  0  0  0  0
    5.0526   -1.9600   19.4870 H   0  0  0  0  0  0  0  0  0  0  0  0
  1  2  1  0
  2  3  1  0
  3  4  2  0
  4  5  1  0
  5  6  1  0
  6  7  1  0
  7  8  1  0
  8  9  1  0
  8 10  1  0
  8 11  1  0
  7 12  1  0
  7 13  1  0
  6 14  2  0
 14 15  1  0
 15 16  1  0
 16 17  2  0
 17 18  1  0
 18 19  1  0
 19 20  1  0
 20 21  1  0
 21 22  1  0
 22 23  1  0
 23 24  1  0
 23 25  1  0
 21 26  1  0
 21 27  1  0
 20 28  1  0
 20 29  1  0
 19 30  1  0
 18 31  2  0
 31 32  1  0
 32 33  1  0
 33 34  2  0
 34 35  1  0
 35 36  2  0
 36 37  1  0
 37 38  2  0
 38 39  1  0
 36 40  1  0
 35 41  1  0
 34 42  1  0
 15 43  1  0
 15 44  1  0
  5 45  1  0
  2 46  1  0
  2 47  1  0
  1 48  1  0
  1 49  1  0
  1 50  1  0
 14  3  1  0
 32 16  1  0
 38 33  1  0
 23 19  1  0
M  END
>  <cnnaffinity>  (1) 
-5.851

>  <filename>  (1) 
CCc1n[nH]c(CC)c1Cc1nc(C2CCOC2)nn1-c1cccnc1

$$$$
