
     RDKit          3D

 43 45  0  0  0  0  0  0  0  0999 V2000
    7.9167   -4.4192   23.0162 C   0  0  0  0  0  0  0  0  0  0  0  0
    7.4866   -3.0470   23.5599 C   0  0  0  0  0  0  0  0  0  0  0  0
    7.6761   -1.9621   22.5591 C   0  0  0  0  0  0  0  0  0  0  0  0
    6.7474   -1.6136   21.6944 N   0  0  0  0  0  0  0  0  0  0  0  0
    7.3630   -0.6583   20.9531 N   0  0  0  0  0  0  0  0  0  0  0  0
    6.6619    0.0109   19.9071 C   0  0  0  0  0  0  0  0  0  0  0  0
    5.4402    0.6423   20.1683 C   0  0  0  0  0  0  0  0  0  0  0  0
    4.8142    1.3089   19.1094 C   0  0  0  0  0  0  0  0  0  0  0  0
    5.4019    1.2967   17.8368 C   0  0  0  0  0  0  0  0  0  0  0  0
    6.5592    0.6712   17.5758 N   0  0  0  0  0  0  0  0  0  0  0  0
    7.1683    0.0528   18.5946 C   0  0  0  0  0  0  0  0  0  0  0  0
    8.1094   -0.4360   18.3625 H   0  0  0  0  0  0  0  0  0  0  0  0
    4.9249    1.7887   16.9911 H   0  0  0  0  0  0  0  0  0  0  0  0
    3.8815    1.8378   19.2577 H   0  0  0  0  0  0  0  0  0  0  0  0
    5.0151    0.6042   21.1769 H   0  0  0  0  0  0  0  0  0  0  0  0
    8.6190   -0.4592   21.4544 C   0  0  0  0  0  0  0  0  0  0  0  0
    9.5088    0.6406   21.0046 C   0  0  0  0  0  0  0  0  0  0  0  0
    9.0369    2.0228   21.4622 C   0  0  0  0  0  0  0  0  0  0  0  0
    8.9757    2.0026   22.8841 O   0  0  0  0  0  0  0  0  0  0  0  0
    8.5345    3.0818   23.5898 C   0  0  0  0  0  0  0  0  0  0  0  0
    8.1405    4.2999   23.0240 C   0  0  0  0  0  0  0  0  0  0  0  0
    7.6999    5.3563   23.8394 C   0  0  0  0  0  0  0  0  0  0  0  0
    7.2503    6.6558   23.2153 C   0  0  0  0  0  0  0  0  0  0  0  0
    7.3886    7.5076   23.8873 H   0  0  0  0  0  0  0  0  0  0  0  0
    7.7908    6.8737   22.2901 H   0  0  0  0  0  0  0  0  0  0  0  0
    6.1855    6.6279   22.9621 H   0  0  0  0  0  0  0  0  0  0  0  0
    7.6568    5.1833   25.2255 C   0  0  0  0  0  0  0  0  0  0  0  0
    8.0523    3.9676   25.7937 C   0  0  0  0  0  0  0  0  0  0  0  0
    8.4907    2.9178   24.9890 C   0  0  0  0  0  0  0  0  0  0  0  0
    8.7991    1.9713   25.4215 H   0  0  0  0  0  0  0  0  0  0  0  0
    8.0092    3.8456   26.8730 H   0  0  0  0  0  0  0  0  0  0  0  0
    7.3064    6.0030   25.8510 H   0  0  0  0  0  0  0  0  0  0  0  0
    8.1742    4.4341   21.9458 H   0  0  0  0  0  0  0  0  0  0  0  0
    8.0519    2.2459   21.0265 H   0  0  0  0  0  0  0  0  0  0  0  0
    9.7472    2.7863   21.1192 H   0  0  0  0  0  0  0  0  0  0  0  0
   10.5090    0.4272   21.3814 H   0  0  0  0  0  0  0  0  0  0  0  0
    9.5677    0.6372   19.9158 H   0  0  0  0  0  0  0  0  0  0  0  0
    8.8583   -1.3025   22.4332 N   0  0  0  0  0  0  0  0  0  0  0  0
    8.0746   -2.7772   24.4405 H   0  0  0  0  0  0  0  0  0  0  0  0
    6.4361   -3.0537   23.8585 H   0  0  0  0  0  0  0  0  0  0  0  0
    7.3395   -4.6820   22.1240 H   0  0  0  0  0  0  0  0  0  0  0  0
    7.7672   -5.2041   23.7626 H   0  0  0  0  0  0  0  0  0  0  0  0
    8.9755   -4.4114   22.7384 H   0  0  0  0  0  0  0  0  0  0  0  0
  1  2  1  0
  2  3  1  0
  3  4  2  0
  4  5  1  0
  5  6  1  0
  6  7  2  0
  7  8  1  0
  8  9  2  0
  9 10  1  0
 10 11  2  0
 11 12  1  0
  9 13  1  0
  8 14  1  0
  7 15  1  0
  5 16  1  0
 16 17  1  0
 17 18  1  0
 18 19  1  0
 19 20  1  0
 20 21  2  0
 21 22  1  0
 22 23  1  0
 23 24  1  0
 23 25  1  0
 23 26  1  0
 22 27  2  0
 27 28  1  0
 28 29  2  0
 29 30  1  0
 28 31  1  0
 27 32  1  0
 21 33  1  0
 18 34  1  0
 18 35  1  0
 17 36  1  0
 17 37  1  0
 16 38  2  0
  2 39  1  0
  2 40  1  0
  1 41  1  0
  1 42  1  0
  1 43  1  0
 38  3  1  0
 11  6  1  0
 29 20  1  0
M  END
>  <cnnaffinity>  (1) 
-5.9622

>  <filename>  (1) 
CCc1nc(CCOc2cccc(C)c2)n(-c2cccnc2)n1

$$$$
