
     RDKit          3D

 45 48  0  0  0  0  0  0  0  0999 V2000
    5.3183   -2.3855   25.7297 C   0  0  0  0  0  0  0  0  0  0  0  0
    5.1239   -1.0048   26.3666 C   0  0  0  0  0  0  0  0  0  0  0  0
    6.0207    0.0388   25.7793 C   0  0  0  0  0  0  0  0  0  0  0  0
    7.0439    0.7993   26.2786 C   0  0  0  0  0  0  0  0  0  0  0  0
    7.5976    1.5812   25.2954 N   0  0  0  0  0  0  0  0  0  0  0  0
    6.9215    1.3207   24.2115 C   0  0  0  0  0  0  0  0  0  0  0  0
    7.2643    1.8464   22.8623 C   0  0  0  0  0  0  0  0  0  0  0  0
    8.2868    0.9448   22.2815 C   0  0  0  0  0  0  0  0  0  0  0  0
    9.5824    1.1065   22.4232 N   0  0  0  0  0  0  0  0  0  0  0  0
   10.1011   -0.0640   21.9664 C   0  0  0  0  0  0  0  0  0  0  0  0
   11.5540   -0.4554   21.8420 C   0  0  0  0  0  0  0  0  0  0  0  0
   11.7835   -1.6544   21.1492 C   0  0  0  0  0  0  0  0  0  0  0  0
   13.0728   -1.9783   20.7776 C   0  0  0  0  0  0  0  0  0  0  0  0
   14.1146   -1.2234   21.2837 C   0  0  0  0  0  0  0  0  0  0  0  0
   13.8260   -0.0954   22.0559 C   0  0  0  0  0  0  0  0  0  0  0  0
   12.5736    0.3036   22.3143 N   0  0  0  0  0  0  0  0  0  0  0  0
   14.6240    0.5377   22.4391 H   0  0  0  0  0  0  0  0  0  0  0  0
   15.1032   -1.5582   21.0565 H   0  0  0  0  0  0  0  0  0  0  0  0
   13.2692   -2.7867   20.0803 H   0  0  0  0  0  0  0  0  0  0  0  0
   10.9337   -2.2774   20.8954 H   0  0  0  0  0  0  0  0  0  0  0  0
    9.1600   -0.9142   21.5358 N   0  0  0  0  0  0  0  0  0  0  0  0
    8.0045   -0.2578   21.7397 N   0  0  0  0  0  0  0  0  0  0  0  0
    6.7520   -0.7747   21.1791 C   0  0  0  0  0  0  0  0  0  0  0  0
    6.2376   -0.0002   19.9802 C   0  0  0  0  0  0  0  0  0  0  0  0
    5.0252    0.7000   19.9714 C   0  0  0  0  0  0  0  0  0  0  0  0
    4.6748    1.4355   18.8341 C   0  0  0  0  0  0  0  0  0  0  0  0
    5.5353    1.4209   17.7338 C   0  0  0  0  0  0  0  0  0  0  0  0
    6.6885    0.7362   17.7119 N   0  0  0  0  0  0  0  0  0  0  0  0
    7.0235    0.0603   18.8164 C   0  0  0  0  0  0  0  0  0  0  0  0
    7.9758   -0.4666   18.7799 H   0  0  0  0  0  0  0  0  0  0  0  0
    5.2872    1.9735   16.8282 H   0  0  0  0  0  0  0  0  0  0  0  0
    3.7662    2.0259   18.7901 H   0  0  0  0  0  0  0  0  0  0  0  0
    4.3652    0.6928   20.8419 H   0  0  0  0  0  0  0  0  0  0  0  0
    5.9985   -0.8016   21.9705 H   0  0  0  0  0  0  0  0  0  0  0  0
    6.9708   -1.8118   20.9135 H   0  0  0  0  0  0  0  0  0  0  0  0
    6.3851    1.9267   22.2225 H   0  0  0  0  0  0  0  0  0  0  0  0
    7.7254    2.8228   22.9830 H   0  0  0  0  0  0  0  0  0  0  0  0
    5.9603    0.3888   24.4393 N   0  0  0  0  0  0  0  0  0  0  0  0
    5.2767    0.0693   23.7733 H   0  0  0  0  0  0  0  0  0  0  0  0
    7.4007    0.8488   27.2999 H   0  0  0  0  0  0  0  0  0  0  0  0
    5.3194   -1.0627   27.4425 H   0  0  0  0  0  0  0  0  0  0  0  0
    4.0754   -0.6867   26.2711 H   0  0  0  0  0  0  0  0  0  0  0  0
    6.3347   -2.7534   25.9017 H   0  0  0  0  0  0  0  0  0  0  0  0
    5.1599   -2.3449   24.6462 H   0  0  0  0  0  0  0  0  0  0  0  0
    4.6174   -3.1138   26.1478 H   0  0  0  0  0  0  0  0  0  0  0  0
  1  2  1  0
  2  3  1  0
  3  4  2  0
  4  5  1  0
  5  6  2  0
  6  7  1  0
  7  8  1  0
  8  9  2  0
  9 10  1  0
 10 11  1  0
 11 12  2  0
 12 13  1  0
 13 14  2  0
 14 15  1  0
 15 16  2  0
 15 17  1  0
 14 18  1  0
 13 19  1  0
 12 20  1  0
 10 21  2  0
 21 22  1  0
 22 23  1  0
 23 24  1  0
 24 25  2  0
 25 26  1  0
 26 27  2  0
 27 28  1  0
 28 29  2  0
 29 30  1  0
 27 31  1  0
 26 32  1  0
 25 33  1  0
 23 34  1  0
 23 35  1  0
  7 36  1  0
  7 37  1  0
  6 38  1  0
 38 39  1  0
  4 40  1  0
  2 41  1  0
  2 42  1  0
  1 43  1  0
  1 44  1  0
  1 45  1  0
 38  3  1  0
 22  8  1  0
 29 24  1  0
 16 11  1  0
M  END
>  <cnnaffinity>  (1) 
-6.59168

>  <filename>  (1) 
CCc1cnc(Cc2nc(-c3ccccn3)nn2Cc2cccnc2)[nH]1

$$$$
