
     RDKit          3D

 33 35  0  0  0  0  0  0  0  0999 V2000
    9.0913    1.9696   21.5549 C   0  0  0  0  0  0  0  0  0  0  0  0
    9.5191    0.6138   20.9790 C   0  0  0  0  0  0  0  0  0  0  0  0
    8.6226   -0.4938   21.4245 C   0  0  0  0  0  0  0  0  0  0  0  0
    8.8461   -1.3204   22.4195 N   0  0  0  0  0  0  0  0  0  0  0  0
    7.6726   -1.9980   22.5422 C   0  0  0  0  0  0  0  0  0  0  0  0
    7.4581   -3.0399   23.5767 C   0  0  0  0  0  0  0  0  0  0  0  0
    8.4821   -3.3612   24.4941 C   0  0  0  0  0  0  0  0  0  0  0  0
    8.2538   -4.3452   25.4563 C   0  0  0  0  0  0  0  0  0  0  0  0
    9.5126   -4.7433   26.5890 Cl  0  0  0  0  0  0  0  0  0  0  0  0
    7.0335   -5.0241   25.5358 C   0  0  0  0  0  0  0  0  0  0  0  0
    6.0247   -4.6980   24.6234 C   0  0  0  0  0  0  0  0  0  0  0  0
    6.2244   -3.7177   23.6517 C   0  0  0  0  0  0  0  0  0  0  0  0
    5.4306   -3.4654   22.9493 H   0  0  0  0  0  0  0  0  0  0  0  0
    5.0713   -5.2138   24.6747 H   0  0  0  0  0  0  0  0  0  0  0  0
    6.8822   -5.7866   26.2959 H   0  0  0  0  0  0  0  0  0  0  0  0
    9.4474   -2.8558   24.4681 H   0  0  0  0  0  0  0  0  0  0  0  0
    6.7451   -1.6378   21.6682 N   0  0  0  0  0  0  0  0  0  0  0  0
    7.3603   -0.6786   20.9395 N   0  0  0  0  0  0  0  0  0  0  0  0
    6.6586    0.0048   19.9021 C   0  0  0  0  0  0  0  0  0  0  0  0
    5.4403    0.6417   20.1686 C   0  0  0  0  0  0  0  0  0  0  0  0
    4.8127    1.3095   19.1098 C   0  0  0  0  0  0  0  0  0  0  0  0
    5.4030    1.2951   17.8383 C   0  0  0  0  0  0  0  0  0  0  0  0
    6.5619    0.6728   17.5749 N   0  0  0  0  0  0  0  0  0  0  0  0
    7.1685    0.0531   18.5929 C   0  0  0  0  0  0  0  0  0  0  0  0
    8.1142   -0.4348   18.3710 H   0  0  0  0  0  0  0  0  0  0  0  0
    4.9166    1.7831   16.9946 H   0  0  0  0  0  0  0  0  0  0  0  0
    3.8779    1.8412   19.2626 H   0  0  0  0  0  0  0  0  0  0  0  0
    5.0142    0.6122   21.1743 H   0  0  0  0  0  0  0  0  0  0  0  0
   10.5290    0.3537   21.3017 H   0  0  0  0  0  0  0  0  0  0  0  0
    9.5374    0.6639   19.8884 H   0  0  0  0  0  0  0  0  0  0  0  0
    9.0681    1.9209   22.6474 H   0  0  0  0  0  0  0  0  0  0  0  0
    8.0907    2.2504   21.2101 H   0  0  0  0  0  0  0  0  0  0  0  0
    9.7940    2.7541   21.2661 H   0  0  0  0  0  0  0  0  0  0  0  0
  1  2  1  0
  2  3  1  0
  3  4  2  0
  4  5  1  0
  5  6  1  0
  6  7  2  0
  7  8  1  0
  8  9  1  0
  8 10  2  0
 10 11  1  0
 11 12  2  0
 12 13  1  0
 11 14  1  0
 10 15  1  0
  7 16  1  0
  5 17  2  0
 17 18  1  0
 18 19  1  0
 19 20  2  0
 20 21  1  0
 21 22  2  0
 22 23  1  0
 23 24  2  0
 24 25  1  0
 22 26  1  0
 21 27  1  0
 20 28  1  0
  2 29  1  0
  2 30  1  0
  1 31  1  0
  1 32  1  0
  1 33  1  0
 18  3  1  0
 24 19  1  0
 12  6  1  0
M  END
>  <cnnaffinity>  (1) 
-5.46948

>  <filename>  (1) 
CCc1nc(-c2cccc(Cl)c2)nn1-c1cccnc1

$$$$
