
     RDKit          3D

 48 51  0  0  0  0  0  0  0  0999 V2000
    6.6324    2.1414   23.4571 C   0  0  0  0  0  0  0  0  0  0  0  0
    7.4991    3.0023   22.5265 C   0  0  0  0  0  0  0  0  0  0  0  0
    8.9677    2.7167   22.6338 C   0  0  0  0  0  0  0  0  0  0  0  0
    9.7249    3.3991   23.4910 N   0  0  0  0  0  0  0  0  0  0  0  0
   10.9456    2.8523   23.3780 N   0  0  0  0  0  0  0  0  0  0  0  0
   10.9948    1.8222   22.5024 C   0  0  0  0  0  0  0  0  0  0  0  0
   12.1893    0.9663   22.2470 C   0  0  0  0  0  0  0  0  0  0  0  0
   12.3384   -0.2201   23.2000 C   0  0  0  0  0  0  0  0  0  0  0  0
   11.3734   -0.7190   23.3543 H   0  0  0  0  0  0  0  0  0  0  0  0
   12.7335    0.0939   24.1730 H   0  0  0  0  0  0  0  0  0  0  0  0
   13.0294   -0.9627   22.7852 H   0  0  0  0  0  0  0  0  0  0  0  0
   12.0594    0.5827   21.2352 H   0  0  0  0  0  0  0  0  0  0  0  0
   13.1045    1.5669   22.2396 H   0  0  0  0  0  0  0  0  0  0  0  0
    9.7227    1.7095   21.9811 C   0  0  0  0  0  0  0  0  0  0  0  0
    9.2760    0.6690   20.9960 C   0  0  0  0  0  0  0  0  0  0  0  0
    8.3996   -0.4054   21.5510 C   0  0  0  0  0  0  0  0  0  0  0  0
    8.6439   -1.1550   22.6065 N   0  0  0  0  0  0  0  0  0  0  0  0
    7.5942   -2.0314   22.6310 C   0  0  0  0  0  0  0  0  0  0  0  0
    7.3778   -3.1150   23.6656 C   0  0  0  0  0  0  0  0  0  0  0  0
    6.0940   -3.6915   23.8009 C   0  0  0  0  0  0  0  0  0  0  0  0
    5.8867   -4.6506   24.7889 C   0  0  0  0  0  0  0  0  0  0  0  0
    6.9591   -5.0374   25.5926 C   0  0  0  0  0  0  0  0  0  0  0  0
    8.2067   -4.4522   25.3617 C   0  0  0  0  0  0  0  0  0  0  0  0
    8.4164   -3.5192   24.4291 N   0  0  0  0  0  0  0  0  0  0  0  0
    9.0729   -4.7361   25.9591 H   0  0  0  0  0  0  0  0  0  0  0  0
    6.8453   -5.7705   26.3817 H   0  0  0  0  0  0  0  0  0  0  0  0
    4.9013   -5.0895   24.9319 H   0  0  0  0  0  0  0  0  0  0  0  0
    5.2920   -3.3791   23.1390 H   0  0  0  0  0  0  0  0  0  0  0  0
    6.7176   -1.8365   21.6453 N   0  0  0  0  0  0  0  0  0  0  0  0
    7.2575   -0.8253   20.9328 N   0  0  0  0  0  0  0  0  0  0  0  0
    6.5438   -0.1803   19.8763 C   0  0  0  0  0  0  0  0  0  0  0  0
    5.4075    0.5864   20.1486 C   0  0  0  0  0  0  0  0  0  0  0  0
    4.8379    1.3173   19.1023 C   0  0  0  0  0  0  0  0  0  0  0  0
    5.4141    1.2450   17.8280 C   0  0  0  0  0  0  0  0  0  0  0  0
    6.4794    0.4756   17.5505 N   0  0  0  0  0  0  0  0  0  0  0  0
    7.0225   -0.2225   18.5553 C   0  0  0  0  0  0  0  0  0  0  0  0
    7.9052   -0.8172   18.3253 H   0  0  0  0  0  0  0  0  0  0  0  0
    5.0144    1.8355   17.0068 H   0  0  0  0  0  0  0  0  0  0  0  0
    3.9712    1.9490   19.2641 H   0  0  0  0  0  0  0  0  0  0  0  0
    5.0020    0.6297   21.1622 H   0  0  0  0  0  0  0  0  0  0  0  0
   10.1490    0.1426   20.5933 H   0  0  0  0  0  0  0  0  0  0  0  0
    8.7732    1.1398   20.1488 H   0  0  0  0  0  0  0  0  0  0  0  0
   11.6783    3.1869   23.9883 H   0  0  0  0  0  0  0  0  0  0  0  0
    7.1742    2.8354   21.4907 H   0  0  0  0  0  0  0  0  0  0  0  0
    7.3497    4.0631   22.7600 H   0  0  0  0  0  0  0  0  0  0  0  0
    6.8597    1.0742   23.3482 H   0  0  0  0  0  0  0  0  0  0  0  0
    5.5707    2.2852   23.2283 H   0  0  0  0  0  0  0  0  0  0  0  0
    6.7926    2.4110   24.5063 H   0  0  0  0  0  0  0  0  0  0  0  0
  1  2  1  0
  2  3  1  0
  3  4  2  0
  4  5  1  0
  5  6  1  0
  6  7  1  0
  7  8  1  0
  8  9  1  0
  8 10  1  0
  8 11  1  0
  7 12  1  0
  7 13  1  0
  6 14  2  0
 14 15  1  0
 15 16  1  0
 16 17  2  0
 17 18  1  0
 18 19  1  0
 19 20  2  0
 20 21  1  0
 21 22  2  0
 22 23  1  0
 23 24  2  0
 23 25  1  0
 22 26  1  0
 21 27  1  0
 20 28  1  0
 18 29  2  0
 29 30  1  0
 30 31  1  0
 31 32  2  0
 32 33  1  0
 33 34  2  0
 34 35  1  0
 35 36  2  0
 36 37  1  0
 34 38  1  0
 33 39  1  0
 32 40  1  0
 15 41  1  0
 15 42  1  0
  5 43  1  0
  2 44  1  0
  2 45  1  0
  1 46  1  0
  1 47  1  0
  1 48  1  0
 14  3  1  0
 30 16  1  0
 36 31  1  0
 24 19  1  0
M  END
>  <cnnaffinity>  (1) 
-6.30001

>  <filename>  (1) 
CCc1n[nH]c(CC)c1Cc1nc(-c2ccccn2)nn1-c1cccnc1

$$$$
