
     RDKit          3D

 42 44  0  0  0  0  0  0  0  0999 V2000
    7.7128   -4.4782   23.0147 C   0  0  0  0  0  0  0  0  0  0  0  0
    7.4168   -3.0688   23.5677 C   0  0  0  0  0  0  0  0  0  0  0  0
    7.6145   -2.0048   22.5512 C   0  0  0  0  0  0  0  0  0  0  0  0
    6.6684   -1.5873   21.7373 N   0  0  0  0  0  0  0  0  0  0  0  0
    7.3142   -0.6814   20.9612 N   0  0  0  0  0  0  0  0  0  0  0  0
    6.6384   -0.0136   19.9005 C   0  0  0  0  0  0  0  0  0  0  0  0
    5.4257    0.6330   20.1567 C   0  0  0  0  0  0  0  0  0  0  0  0
    4.8045    1.3094   19.1027 C   0  0  0  0  0  0  0  0  0  0  0  0
    5.3959    1.2952   17.8334 C   0  0  0  0  0  0  0  0  0  0  0  0
    6.5443    0.6539   17.5722 N   0  0  0  0  0  0  0  0  0  0  0  0
    7.1492    0.0255   18.5874 C   0  0  0  0  0  0  0  0  0  0  0  0
    8.0980   -0.4497   18.3463 H   0  0  0  0  0  0  0  0  0  0  0  0
    4.9371    1.8112   16.9923 H   0  0  0  0  0  0  0  0  0  0  0  0
    3.8762    1.8469   19.2520 H   0  0  0  0  0  0  0  0  0  0  0  0
    5.0089    0.5920   21.1644 H   0  0  0  0  0  0  0  0  0  0  0  0
    8.6024   -0.5731   21.3952 C   0  0  0  0  0  0  0  0  0  0  0  0
    9.6303    0.2803   20.7458 C   0  0  0  0  0  0  0  0  0  0  0  0
   10.5497    0.9403   21.7439 C   0  0  0  0  0  0  0  0  0  0  0  0
   11.7698    0.3135   22.0887 C   0  0  0  0  0  0  0  0  0  0  0  0
   12.1794   -1.0249   21.5083 C   0  0  0  0  0  0  0  0  0  0  0  0
   13.1530   -1.3492   21.8826 H   0  0  0  0  0  0  0  0  0  0  0  0
   11.4532   -1.7973   21.7765 H   0  0  0  0  0  0  0  0  0  0  0  0
   12.2533   -1.0196   20.4210 H   0  0  0  0  0  0  0  0  0  0  0  0
   12.5716    0.9029   23.0714 C   0  0  0  0  0  0  0  0  0  0  0  0
   12.1291    2.0322   23.7532 C   0  0  0  0  0  0  0  0  0  0  0  0
   10.8984    2.6149   23.4473 C   0  0  0  0  0  0  0  0  0  0  0  0
   10.0892    2.0794   22.4403 C   0  0  0  0  0  0  0  0  0  0  0  0
    8.7386    2.7120   22.1668 C   0  0  0  0  0  0  0  0  0  0  0  0
    7.9275    1.9761   22.1900 H   0  0  0  0  0  0  0  0  0  0  0  0
    8.5091    3.4783   22.9114 H   0  0  0  0  0  0  0  0  0  0  0  0
    8.7058    3.1898   21.1825 H   0  0  0  0  0  0  0  0  0  0  0  0
   10.5409    3.4782   24.0016 H   0  0  0  0  0  0  0  0  0  0  0  0
   12.7319    2.4110   24.5536 H   0  0  0  0  0  0  0  0  0  0  0  0
   13.5265    0.4486   23.3302 H   0  0  0  0  0  0  0  0  0  0  0  0
    9.1335    1.0450   20.1501 H   0  0  0  0  0  0  0  0  0  0  0  0
   10.1692   -0.4076   20.0886 H   0  0  0  0  0  0  0  0  0  0  0  0
    8.8276   -1.4279   22.3707 N   0  0  0  0  0  0  0  0  0  0  0  0
    6.3875   -2.9800   23.9270 H   0  0  0  0  0  0  0  0  0  0  0  0
    8.0863   -2.8192   24.3974 H   0  0  0  0  0  0  0  0  0  0  0  0
    8.7539   -4.5618   22.6783 H   0  0  0  0  0  0  0  0  0  0  0  0
    7.0699   -4.7075   22.1566 H   0  0  0  0  0  0  0  0  0  0  0  0
    7.5449   -5.2423   23.7804 H   0  0  0  0  0  0  0  0  0  0  0  0
  1  2  1  0
  2  3  1  0
  3  4  2  0
  4  5  1  0
  5  6  1  0
  6  7  2  0
  7  8  1  0
  8  9  2  0
  9 10  1  0
 10 11  2  0
 11 12  1  0
  9 13  1  0
  8 14  1  0
  7 15  1  0
  5 16  1  0
 16 17  1  0
 17 18  1  0
 18 19  2  0
 19 20  1  0
 20 21  1  0
 20 22  1  0
 20 23  1  0
 19 24  1  0
 24 25  2  0
 25 26  1  0
 26 27  2  0
 27 28  1  0
 28 29  1  0
 28 30  1  0
 28 31  1  0
 26 32  1  0
 25 33  1  0
 24 34  1  0
 17 35  1  0
 17 36  1  0
 16 37  2  0
  2 38  1  0
  2 39  1  0
  1 40  1  0
  1 41  1  0
  1 42  1  0
 37  3  1  0
 11  6  1  0
 27 18  1  0
M  END
>  <cnnaffinity>  (1) 
-6.12463

>  <filename>  (1) 
CCc1nc(Cc2c(C)cccc2C)n(-c2cccnc2)n1

$$$$
