
     RDKit          3D

 49 52  0  0  0  0  0  0  0  0999 V2000
    7.6338    1.0244   28.6964 C   0  0  0  0  0  0  0  0  0  0  0  0
    7.5924    0.0541   27.5114 C   0  0  0  0  0  0  0  0  0  0  0  0
    6.5098    0.3202   26.5119 C   0  0  0  0  0  0  0  0  0  0  0  0
    5.1760    0.0094   26.4379 C   0  0  0  0  0  0  0  0  0  0  0  0
    4.6600    0.3404   25.2041 N   0  0  0  0  0  0  0  0  0  0  0  0
    5.6624    0.8512   24.5400 C   0  0  0  0  0  0  0  0  0  0  0  0
    5.7194    1.1781   23.0759 C   0  0  0  0  0  0  0  0  0  0  0  0
    6.8504    0.4185   22.4409 C   0  0  0  0  0  0  0  0  0  0  0  0
    8.0943    0.6576   22.8055 N   0  0  0  0  0  0  0  0  0  0  0  0
    8.8007   -0.3793   22.2734 C   0  0  0  0  0  0  0  0  0  0  0  0
   10.2562   -0.5237   22.4310 C   0  0  0  0  0  0  0  0  0  0  0  0
   10.9586   -1.5613   21.7868 C   0  0  0  0  0  0  0  0  0  0  0  0
   12.3468   -1.5954   21.8404 C   0  0  0  0  0  0  0  0  0  0  0  0
   13.0167   -0.6323   22.5891 C   0  0  0  0  0  0  0  0  0  0  0  0
   14.3567   -0.7254   22.6521 F   0  0  0  0  0  0  0  0  0  0  0  0
   12.3549    0.3686   23.3130 C   0  0  0  0  0  0  0  0  0  0  0  0
   13.1236    1.3685   24.1275 C   0  0  0  0  0  0  0  0  0  0  0  0
   14.1186    0.9765   24.3261 H   0  0  0  0  0  0  0  0  0  0  0  0
   12.6347    1.5653   25.0841 H   0  0  0  0  0  0  0  0  0  0  0  0
   13.2312    2.3218   23.5982 H   0  0  0  0  0  0  0  0  0  0  0  0
   10.9623    0.4053   23.2167 C   0  0  0  0  0  0  0  0  0  0  0  0
   10.4203    1.1910   23.7406 H   0  0  0  0  0  0  0  0  0  0  0  0
   12.9436   -2.3412   21.3321 H   0  0  0  0  0  0  0  0  0  0  0  0
   10.4101   -2.3314   21.2490 H   0  0  0  0  0  0  0  0  0  0  0  0
    8.0604   -1.2243   21.5827 N   0  0  0  0  0  0  0  0  0  0  0  0
    6.8088   -0.7057   21.6883 N   0  0  0  0  0  0  0  0  0  0  0  0
    5.7912   -1.1655   20.7555 C   0  0  0  0  0  0  0  0  0  0  0  0
    5.6744   -0.2531   19.5583 C   0  0  0  0  0  0  0  0  0  0  0  0
    4.5867    0.6035   19.3684 C   0  0  0  0  0  0  0  0  0  0  0  0
    4.6146    1.4917   18.2898 C   0  0  0  0  0  0  0  0  0  0  0  0
    5.7237    1.4810   17.4397 C   0  0  0  0  0  0  0  0  0  0  0  0
    6.7715    0.6586   17.6020 N   0  0  0  0  0  0  0  0  0  0  0  0
    6.7400   -0.1747   18.6463 C   0  0  0  0  0  0  0  0  0  0  0  0
    7.6149   -0.8150   18.7865 H   0  0  0  0  0  0  0  0  0  0  0  0
    5.7765    2.1610   16.5888 H   0  0  0  0  0  0  0  0  0  0  0  0
    3.8096    2.1940   18.1124 H   0  0  0  0  0  0  0  0  0  0  0  0
    3.7401    0.5800   20.0576 H   0  0  0  0  0  0  0  0  0  0  0  0
    6.0917   -2.1796   20.4782 H   0  0  0  0  0  0  0  0  0  0  0  0
    4.8476   -1.2368   21.2872 H   0  0  0  0  0  0  0  0  0  0  0  0
    4.7507    0.9742   22.6221 H   0  0  0  0  0  0  0  0  0  0  0  0
    5.9386    2.2395   22.9548 H   0  0  0  0  0  0  0  0  0  0  0  0
    6.7806    0.9316   25.3040 N   0  0  0  0  0  0  0  0  0  0  0  0
    7.6847    1.0488   24.8663 H   0  0  0  0  0  0  0  0  0  0  0  0
    4.5739   -0.5035   27.1810 H   0  0  0  0  0  0  0  0  0  0  0  0
    8.5638    0.0778   26.9954 H   0  0  0  0  0  0  0  0  0  0  0  0
    7.4763   -0.9698   27.8841 H   0  0  0  0  0  0  0  0  0  0  0  0
    8.4749    0.7731   29.3516 H   0  0  0  0  0  0  0  0  0  0  0  0
    6.7138    0.9742   29.2871 H   0  0  0  0  0  0  0  0  0  0  0  0
    7.7672    2.0553   28.3536 H   0  0  0  0  0  0  0  0  0  0  0  0
  1  2  1  0
  2  3  1  0
  3  4  2  0
  4  5  1  0
  5  6  2  0
  6  7  1  0
  7  8  1  0
  8  9  2  0
  9 10  1  0
 10 11  1  0
 11 12  2  0
 12 13  1  0
 13 14  2  0
 14 15  1  0
 14 16  1  0
 16 17  1  0
 17 18  1  0
 17 19  1  0
 17 20  1  0
 16 21  2  0
 21 22  1  0
 13 23  1  0
 12 24  1  0
 10 25  2  0
 25 26  1  0
 26 27  1  0
 27 28  1  0
 28 29  2  0
 29 30  1  0
 30 31  2  0
 31 32  1  0
 32 33  2  0
 33 34  1  0
 31 35  1  0
 30 36  1  0
 29 37  1  0
 27 38  1  0
 27 39  1  0
  7 40  1  0
  7 41  1  0
  6 42  1  0
 42 43  1  0
  4 44  1  0
  2 45  1  0
  2 46  1  0
  1 47  1  0
  1 48  1  0
  1 49  1  0
 42  3  1  0
 26  8  1  0
 33 28  1  0
 21 11  1  0
M  END
>  <cnnaffinity>  (1) 
-6.63514

>  <filename>  (1) 
CCc1cnc(Cc2nc(-c3ccc(F)c(C)c3)nn2Cc2cccnc2)[nH]1

$$$$
