
     RDKit          3D

 38 40  0  0  0  0  0  0  0  0999 V2000
    7.7271   -4.5383   22.9178 C   0  0  0  0  0  0  0  0  0  0  0  0
    8.6766   -3.5663   22.1964 C   0  0  0  0  0  0  0  0  0  0  0  0
    8.1643   -2.1881   21.9614 C   0  0  0  0  0  0  0  0  0  0  0  0
    7.7136   -1.8459   20.7735 N   0  0  0  0  0  0  0  0  0  0  0  0
    7.3284   -0.5618   20.9449 N   0  0  0  0  0  0  0  0  0  0  0  0
    6.6298    0.0753   19.8920 C   0  0  0  0  0  0  0  0  0  0  0  0
    5.4017    0.7017   20.1201 C   0  0  0  0  0  0  0  0  0  0  0  0
    4.7847    1.3316   19.0376 C   0  0  0  0  0  0  0  0  0  0  0  0
    5.4111    1.3021   17.7876 C   0  0  0  0  0  0  0  0  0  0  0  0
    6.5562    0.6347   17.5509 N   0  0  0  0  0  0  0  0  0  0  0  0
    7.1397    0.0165   18.5822 C   0  0  0  0  0  0  0  0  0  0  0  0
    8.0432   -0.5581   18.3762 H   0  0  0  0  0  0  0  0  0  0  0  0
    4.9887    1.8420   16.9446 H   0  0  0  0  0  0  0  0  0  0  0  0
    3.8489    1.8615   19.1654 H   0  0  0  0  0  0  0  0  0  0  0  0
    4.9441    0.6610   21.1108 H   0  0  0  0  0  0  0  0  0  0  0  0
    7.6173   -0.1743   22.2253 C   0  0  0  0  0  0  0  0  0  0  0  0
    7.4446    1.2035   22.8187 C   0  0  0  0  0  0  0  0  0  0  0  0
    8.7414    1.7605   23.4057 C   0  0  0  0  0  0  0  0  0  0  0  0
    9.0379    1.6822   24.7731 C   0  0  0  0  0  0  0  0  0  0  0  0
   10.1907    2.0810   25.3248 N   0  0  0  0  0  0  0  0  0  0  0  0
   11.1107    2.5874   24.5012 C   0  0  0  0  0  0  0  0  0  0  0  0
   10.9343    2.7089   23.1285 C   0  0  0  0  0  0  0  0  0  0  0  0
    9.7458    2.2608   22.5552 C   0  0  0  0  0  0  0  0  0  0  0  0
    9.6023    2.2753   21.0683 C   0  0  0  0  0  0  0  0  0  0  0  0
    9.3516    1.2786   20.6908 H   0  0  0  0  0  0  0  0  0  0  0  0
    8.8131    2.9596   20.7463 H   0  0  0  0  0  0  0  0  0  0  0  0
   10.5321    2.5879   20.5879 H   0  0  0  0  0  0  0  0  0  0  0  0
   11.7192    3.1232   22.5052 H   0  0  0  0  0  0  0  0  0  0  0  0
   12.0437    2.9021   24.9520 H   0  0  0  0  0  0  0  0  0  0  0  0
    8.3102    1.2552   25.4636 H   0  0  0  0  0  0  0  0  0  0  0  0
    6.6670    1.1392   23.5873 H   0  0  0  0  0  0  0  0  0  0  0  0
    7.0610    1.8830   22.0521 H   0  0  0  0  0  0  0  0  0  0  0  0
    8.1327   -1.1954   22.8863 N   0  0  0  0  0  0  0  0  0  0  0  0
    9.6276   -3.4687   22.7276 H   0  0  0  0  0  0  0  0  0  0  0  0
    8.8641   -3.9575   21.1985 H   0  0  0  0  0  0  0  0  0  0  0  0
    8.2479   -5.4872   23.0865 H   0  0  0  0  0  0  0  0  0  0  0  0
    6.8427   -4.7519   22.3064 H   0  0  0  0  0  0  0  0  0  0  0  0
    7.3885   -4.1508   23.8853 H   0  0  0  0  0  0  0  0  0  0  0  0
  1  2  1  0
  2  3  1  0
  3  4  2  0
  4  5  1  0
  5  6  1  0
  6  7  2  0
  7  8  1  0
  8  9  2  0
  9 10  1  0
 10 11  2  0
 11 12  1  0
  9 13  1  0
  8 14  1  0
  7 15  1  0
  5 16  1  0
 16 17  1  0
 17 18  1  0
 18 19  2  0
 19 20  1  0
 20 21  2  0
 21 22  1  0
 22 23  2  0
 23 24  1  0
 24 25  1  0
 24 26  1  0
 24 27  1  0
 22 28  1  0
 21 29  1  0
 19 30  1  0
 17 31  1  0
 17 32  1  0
 16 33  2  0
  2 34  1  0
  2 35  1  0
  1 36  1  0
  1 37  1  0
  1 38  1  0
 33  3  1  0
 11  6  1  0
 23 18  1  0
M  END
>  <cnnaffinity>  (1) 
-5.85771

>  <filename>  (1) 
CCc1nc(Cc2cnccc2C)n(-c2cccnc2)n1

$$$$
