
     RDKit          3D

 46 48  0  0  0  0  0  0  0  0999 V2000
   12.2457   -0.1546   23.1705 C   0  0  0  0  0  0  0  0  0  0  0  0
   12.1666    1.1958   22.4511 C   0  0  0  0  0  0  0  0  0  0  0  0
   10.8689    1.9388   22.7026 C   0  0  0  0  0  0  0  0  0  0  0  0
   10.8315    2.9000   23.7235 C   0  0  0  0  0  0  0  0  0  0  0  0
    9.6641    3.6063   24.0186 C   0  0  0  0  0  0  0  0  0  0  0  0
    8.5003    3.3477   23.2911 C   0  0  0  0  0  0  0  0  0  0  0  0
    8.5186    2.3743   22.2906 C   0  0  0  0  0  0  0  0  0  0  0  0
    9.6890    1.6613   21.9905 C   0  0  0  0  0  0  0  0  0  0  0  0
    9.5761    0.5470   20.9539 C   0  0  0  0  0  0  0  0  0  0  0  0
    8.6230   -0.5144   21.3909 C   0  0  0  0  0  0  0  0  0  0  0  0
    8.8575   -1.3695   22.3685 N   0  0  0  0  0  0  0  0  0  0  0  0
    7.6765   -2.0314   22.4964 C   0  0  0  0  0  0  0  0  0  0  0  0
    7.3961   -3.0471   23.5926 C   0  0  0  0  0  0  0  0  0  0  0  0
    6.6881   -4.2059   23.1585 O   0  0  0  0  0  0  0  0  0  0  0  0
    5.8405   -3.8966   22.8016 H   0  0  0  0  0  0  0  0  0  0  0  0
    6.6622   -2.4032   24.7890 C   0  0  0  0  0  0  0  0  0  0  0  0
    6.4680   -3.3764   25.9524 C   0  0  0  0  0  0  0  0  0  0  0  0
    7.4292   -3.7467   26.3300 H   0  0  0  0  0  0  0  0  0  0  0  0
    5.8827   -4.2489   25.6423 H   0  0  0  0  0  0  0  0  0  0  0  0
    5.9489   -2.8931   26.7850 H   0  0  0  0  0  0  0  0  0  0  0  0
    5.6879   -2.0405   24.4341 H   0  0  0  0  0  0  0  0  0  0  0  0
    7.2178   -1.5178   25.1225 H   0  0  0  0  0  0  0  0  0  0  0  0
    8.3766   -3.4003   23.9249 H   0  0  0  0  0  0  0  0  0  0  0  0
    6.7313   -1.6351   21.6602 N   0  0  0  0  0  0  0  0  0  0  0  0
    7.3520   -0.6857   20.9202 N   0  0  0  0  0  0  0  0  0  0  0  0
    6.6470   -0.0017   19.8928 C   0  0  0  0  0  0  0  0  0  0  0  0
    5.4348    0.6382   20.1647 C   0  0  0  0  0  0  0  0  0  0  0  0
    4.8116    1.3101   19.1082 C   0  0  0  0  0  0  0  0  0  0  0  0
    5.3978    1.2966   17.8359 C   0  0  0  0  0  0  0  0  0  0  0  0
    6.5527    0.6689   17.5684 N   0  0  0  0  0  0  0  0  0  0  0  0
    7.1597    0.0448   18.5845 C   0  0  0  0  0  0  0  0  0  0  0  0
    8.1090   -0.4358   18.3603 H   0  0  0  0  0  0  0  0  0  0  0  0
    4.9211    1.7895   16.9928 H   0  0  0  0  0  0  0  0  0  0  0  0
    3.8811    1.8398   19.2596 H   0  0  0  0  0  0  0  0  0  0  0  0
    5.0112    0.6086   21.1732 H   0  0  0  0  0  0  0  0  0  0  0  0
    9.2252    0.9666   20.0123 H   0  0  0  0  0  0  0  0  0  0  0  0
   10.5326    0.0514   20.7705 H   0  0  0  0  0  0  0  0  0  0  0  0
    7.6115    2.1486   21.7306 H   0  0  0  0  0  0  0  0  0  0  0  0
    7.5854    3.8969   23.4957 H   0  0  0  0  0  0  0  0  0  0  0  0
    9.6703    4.3615   24.7989 H   0  0  0  0  0  0  0  0  0  0  0  0
   11.7462    3.0882   24.2791 H   0  0  0  0  0  0  0  0  0  0  0  0
   13.0008    1.8282   22.7760 H   0  0  0  0  0  0  0  0  0  0  0  0
   12.3115    1.0613   21.3771 H   0  0  0  0  0  0  0  0  0  0  0  0
   12.1134   -0.0170   24.2490 H   0  0  0  0  0  0  0  0  0  0  0  0
   13.2217   -0.6305   23.0181 H   0  0  0  0  0  0  0  0  0  0  0  0
   11.4593   -0.8413   22.8352 H   0  0  0  0  0  0  0  0  0  0  0  0
  1  2  1  0
  2  3  1  0
  3  4  2  0
  4  5  1  0
  5  6  2  0
  6  7  1  0
  7  8  2  0
  8  9  1  0
  9 10  1  0
 10 11  2  0
 11 12  1  0
 12 13  1  0
 13 14  1  0
 14 15  1  0
 13 16  1  0
 16 17  1  0
 17 18  1  0
 17 19  1  0
 17 20  1  0
 16 21  1  0
 16 22  1  0
 13 23  1  0
 12 24  2  0
 24 25  1  0
 25 26  1  0
 26 27  2  0
 27 28  1  0
 28 29  2  0
 29 30  1  0
 30 31  2  0
 31 32  1  0
 29 33  1  0
 28 34  1  0
 27 35  1  0
  9 36  1  0
  9 37  1  0
  7 38  1  0
  6 39  1  0
  5 40  1  0
  4 41  1  0
  2 42  1  0
  2 43  1  0
  1 44  1  0
  1 45  1  0
  1 46  1  0
  8  3  1  0
 25 10  1  0
 31 26  1  0
M  END
>  <cnnaffinity>  (1) 
-6.12778

>  <filename>  (1) 
CCc1ccccc1Cc1nc(C(O)CC)nn1-c1cccnc1

$$$$
