
     RDKit          3D

 42 45  0  0  0  0  0  0  0  0999 V2000
   11.8287    2.0103   23.7814 C   0  0  0  0  0  0  0  0  0  0  0  0
   10.4041    1.5048   24.0395 C   0  0  0  0  0  0  0  0  0  0  0  0
    9.3967    2.3192   23.2423 C   0  0  0  0  0  0  0  0  0  0  0  0
    8.9415    3.5506   23.7579 C   0  0  0  0  0  0  0  0  0  0  0  0
    8.0002    4.3302   23.0748 C   0  0  0  0  0  0  0  0  0  0  0  0
    7.4807    3.8763   21.8609 C   0  0  0  0  0  0  0  0  0  0  0  0
    7.9672    2.6821   21.3243 C   0  0  0  0  0  0  0  0  0  0  0  0
    8.9653    1.9387   21.9582 C   0  0  0  0  0  0  0  0  0  0  0  0
    9.4759    0.6944   21.2382 C   0  0  0  0  0  0  0  0  0  0  0  0
    8.5958   -0.4850   21.5147 C   0  0  0  0  0  0  0  0  0  0  0  0
    8.7858   -1.3886   22.4497 N   0  0  0  0  0  0  0  0  0  0  0  0
    7.6200   -2.1036   22.4444 C   0  0  0  0  0  0  0  0  0  0  0  0
    7.4010   -3.2039   23.4076 C   0  0  0  0  0  0  0  0  0  0  0  0
    6.3396   -3.9569   23.5454 N   0  0  0  0  0  0  0  0  0  0  0  0
    6.5067   -4.8470   24.5723 C   0  0  0  0  0  0  0  0  0  0  0  0
    7.7078   -4.7838   25.2171 C   0  0  0  0  0  0  0  0  0  0  0  0
    8.6820   -3.5594   24.5280 S   0  0  0  0  0  0  0  0  0  0  0  0
    8.0438   -5.3939   26.0433 H   0  0  0  0  0  0  0  0  0  0  0  0
    5.6952   -5.5244   24.8028 H   0  0  0  0  0  0  0  0  0  0  0  0
    6.7351   -1.6994   21.5545 N   0  0  0  0  0  0  0  0  0  0  0  0
    7.3682   -0.6773   20.9368 N   0  0  0  0  0  0  0  0  0  0  0  0
    6.6883   -0.0056   19.8794 C   0  0  0  0  0  0  0  0  0  0  0  0
    5.4592    0.6068   20.1388 C   0  0  0  0  0  0  0  0  0  0  0  0
    4.8338    1.2866   19.0928 C   0  0  0  0  0  0  0  0  0  0  0  0
    5.4262    1.2900   17.8240 C   0  0  0  0  0  0  0  0  0  0  0  0
    6.5757    0.6503   17.5570 N   0  0  0  0  0  0  0  0  0  0  0  0
    7.1847    0.0159   18.5674 C   0  0  0  0  0  0  0  0  0  0  0  0
    8.1044   -0.5118   18.3212 H   0  0  0  0  0  0  0  0  0  0  0  0
    4.9532    1.8077   16.9906 H   0  0  0  0  0  0  0  0  0  0  0  0
    3.8976    1.8060   19.2509 H   0  0  0  0  0  0  0  0  0  0  0  0
    5.0289    0.5472   21.1403 H   0  0  0  0  0  0  0  0  0  0  0  0
    9.5064    0.8660   20.1562 H   0  0  0  0  0  0  0  0  0  0  0  0
   10.4927    0.4441   21.5587 H   0  0  0  0  0  0  0  0  0  0  0  0
    7.5794    2.2973   20.3877 H   0  0  0  0  0  0  0  0  0  0  0  0
    6.7087    4.4424   21.3366 H   0  0  0  0  0  0  0  0  0  0  0  0
    7.6654    5.2772   23.4919 H   0  0  0  0  0  0  0  0  0  0  0  0
    9.3266    3.8917   24.7136 H   0  0  0  0  0  0  0  0  0  0  0  0
   10.1782    1.5882   25.1104 H   0  0  0  0  0  0  0  0  0  0  0  0
   10.3193    0.4306   23.8068 H   0  0  0  0  0  0  0  0  0  0  0  0
   11.9094    3.0813   24.0097 H   0  0  0  0  0  0  0  0  0  0  0  0
   12.5722    1.4822   24.3861 H   0  0  0  0  0  0  0  0  0  0  0  0
   12.0852    1.8822   22.7230 H   0  0  0  0  0  0  0  0  0  0  0  0
  1  2  1  0
  2  3  1  0
  3  4  2  0
  4  5  1  0
  5  6  2  0
  6  7  1  0
  7  8  2  0
  8  9  1  0
  9 10  1  0
 10 11  2  0
 11 12  1  0
 12 13  1  0
 13 14  2  0
 14 15  1  0
 15 16  2  0
 16 17  1  0
 16 18  1  0
 15 19  1  0
 12 20  2  0
 20 21  1  0
 21 22  1  0
 22 23  2  0
 23 24  1  0
 24 25  2  0
 25 26  1  0
 26 27  2  0
 27 28  1  0
 25 29  1  0
 24 30  1  0
 23 31  1  0
  9 32  1  0
  9 33  1  0
  7 34  1  0
  6 35  1  0
  5 36  1  0
  4 37  1  0
  2 38  1  0
  2 39  1  0
  1 40  1  0
  1 41  1  0
  1 42  1  0
  8  3  1  0
 21 10  1  0
 27 22  1  0
 17 13  1  0
M  END
>  <cnnaffinity>  (1) 
-5.97088

>  <filename>  (1) 
CCc1ccccc1Cc1nc(-c2nccs2)nn1-c1cccnc1

$$$$
