
     RDKit          3D

 48 50  0  0  0  0  0  0  0  0999 V2000
    7.6790   -4.5027   23.0623 C   0  0  0  0  0  0  0  0  0  0  0  0
    8.5016   -3.5026   22.2446 C   0  0  0  0  0  0  0  0  0  0  0  0
    7.8767   -2.1527   22.0921 C   0  0  0  0  0  0  0  0  0  0  0  0
    7.5130   -1.7032   20.9147 N   0  0  0  0  0  0  0  0  0  0  0  0
    7.0698   -0.4449   21.1788 N   0  0  0  0  0  0  0  0  0  0  0  0
    6.4628    0.2397   20.0934 C   0  0  0  0  0  0  0  0  0  0  0  0
    5.2906    0.9964   20.1917 C   0  0  0  0  0  0  0  0  0  0  0  0
    4.7640    1.5260   19.0029 C   0  0  0  0  0  0  0  0  0  0  0  0
    5.4272    1.3077   17.7934 C   0  0  0  0  0  0  0  0  0  0  0  0
    6.5480    0.5705   17.6951 N   0  0  0  0  0  0  0  0  0  0  0  0
    7.0331    0.0441   18.8215 C   0  0  0  0  0  0  0  0  0  0  0  0
    7.9196   -0.5846   18.7435 H   0  0  0  0  0  0  0  0  0  0  0  0
    5.0476    1.7297   16.8633 H   0  0  0  0  0  0  0  0  0  0  0  0
    3.8495    2.1083   19.0113 H   0  0  0  0  0  0  0  0  0  0  0  0
    4.7868    1.1428   21.1470 H   0  0  0  0  0  0  0  0  0  0  0  0
    7.2936   -0.1683   22.5016 C   0  0  0  0  0  0  0  0  0  0  0  0
    7.2722    1.2027   23.1385 C   0  0  0  0  0  0  0  0  0  0  0  0
    8.6552    1.7798   23.4707 C   0  0  0  0  0  0  0  0  0  0  0  0
    9.6299    2.2211   22.5846 C   0  0  0  0  0  0  0  0  0  0  0  0
    9.7743    1.8935   21.1281 C   0  0  0  0  0  0  0  0  0  0  0  0
   10.1377    0.4031   20.9283 C   0  0  0  0  0  0  0  0  0  0  0  0
    9.7665    0.0131   19.9708 H   0  0  0  0  0  0  0  0  0  0  0  0
    9.7110   -0.2218   21.7211 H   0  0  0  0  0  0  0  0  0  0  0  0
   11.2254    0.2611   20.9795 H   0  0  0  0  0  0  0  0  0  0  0  0
   10.5391    2.5426   20.6755 H   0  0  0  0  0  0  0  0  0  0  0  0
    8.8222    2.1448   20.6405 H   0  0  0  0  0  0  0  0  0  0  0  0
   10.6616    2.6847   23.3425 N   0  0  0  0  0  0  0  0  0  0  0  0
   11.9035    3.2528   22.8722 C   0  0  0  0  0  0  0  0  0  0  0  0
   11.7177    4.1462   22.2741 H   0  0  0  0  0  0  0  0  0  0  0  0
   12.4580    2.5356   22.2603 H   0  0  0  0  0  0  0  0  0  0  0  0
   12.4963    3.5179   23.7439 H   0  0  0  0  0  0  0  0  0  0  0  0
   10.4832    2.4472   24.6505 N   0  0  0  0  0  0  0  0  0  0  0  0
    9.2893    1.8769   24.7361 C   0  0  0  0  0  0  0  0  0  0  0  0
    8.7930    1.3514   26.0429 C   0  0  0  0  0  0  0  0  0  0  0  0
    7.8044    2.2816   26.7614 C   0  0  0  0  0  0  0  0  0  0  0  0
    8.2838    3.2256   27.0431 H   0  0  0  0  0  0  0  0  0  0  0  0
    6.9466    2.5219   26.1210 H   0  0  0  0  0  0  0  0  0  0  0  0
    7.4240    1.8142   27.6759 H   0  0  0  0  0  0  0  0  0  0  0  0
    8.3432    0.3603   25.8772 H   0  0  0  0  0  0  0  0  0  0  0  0
    9.6792    1.1846   26.6583 H   0  0  0  0  0  0  0  0  0  0  0  0
    6.7110    1.8829   22.4894 H   0  0  0  0  0  0  0  0  0  0  0  0
    6.6792    1.0997   24.0567 H   0  0  0  0  0  0  0  0  0  0  0  0
    7.7417   -1.2570   23.1069 N   0  0  0  0  0  0  0  0  0  0  0  0
    8.6665   -3.8732   21.2302 H   0  0  0  0  0  0  0  0  0  0  0  0
    9.4819   -3.3370   22.7061 H   0  0  0  0  0  0  0  0  0  0  0  0
    6.7249   -4.7151   22.5678 H   0  0  0  0  0  0  0  0  0  0  0  0
    7.4707   -4.1099   24.0634 H   0  0  0  0  0  0  0  0  0  0  0  0
    8.2206   -5.4488   23.1701 H   0  0  0  0  0  0  0  0  0  0  0  0
  1  2  1  0
  2  3  1  0
  3  4  2  0
  4  5  1  0
  5  6  1  0
  6  7  2  0
  7  8  1  0
  8  9  2  0
  9 10  1  0
 10 11  2  0
 11 12  1  0
  9 13  1  0
  8 14  1  0
  7 15  1  0
  5 16  1  0
 16 17  1  0
 17 18  1  0
 18 19  2  0
 19 20  1  0
 20 21  1  0
 21 22  1  0
 21 23  1  0
 21 24  1  0
 20 25  1  0
 20 26  1  0
 19 27  1  0
 27 28  1  0
 28 29  1  0
 28 30  1  0
 28 31  1  0
 27 32  1  0
 32 33  2  0
 33 34  1  0
 34 35  1  0
 35 36  1  0
 35 37  1  0
 35 38  1  0
 34 39  1  0
 34 40  1  0
 17 41  1  0
 17 42  1  0
 16 43  2  0
  2 44  1  0
  2 45  1  0
  1 46  1  0
  1 47  1  0
  1 48  1  0
 43  3  1  0
 11  6  1  0
 33 18  1  0
M  END
>  <cnnaffinity>  (1) 
-6.00611

>  <filename>  (1) 
CCc1nc(Cc2c(CC)nn(C)c2CC)n(-c2cccnc2)n1

$$$$
