
     RDKit          3D

 43 45  0  0  0  0  0  0  0  0999 V2000
    7.9571   -4.5526   22.7428 C   0  0  0  0  0  0  0  0  0  0  0  0
    8.8980   -3.4754   22.1737 C   0  0  0  0  0  0  0  0  0  0  0  0
    8.2999   -2.1423   21.9681 C   0  0  0  0  0  0  0  0  0  0  0  0
    7.8224   -1.8163   20.7848 N   0  0  0  0  0  0  0  0  0  0  0  0
    7.3678   -0.5638   20.9752 N   0  0  0  0  0  0  0  0  0  0  0  0
    6.6554    0.0663   19.9304 C   0  0  0  0  0  0  0  0  0  0  0  0
    5.4193    0.6770   20.1619 C   0  0  0  0  0  0  0  0  0  0  0  0
    4.7964    1.3134   19.0877 C   0  0  0  0  0  0  0  0  0  0  0  0
    5.4113    1.2866   17.8325 C   0  0  0  0  0  0  0  0  0  0  0  0
    6.5690    0.6422   17.5944 N   0  0  0  0  0  0  0  0  0  0  0  0
    7.1686    0.0351   18.6202 C   0  0  0  0  0  0  0  0  0  0  0  0
    8.1035   -0.4788   18.4024 H   0  0  0  0  0  0  0  0  0  0  0  0
    4.9618    1.7967   16.9848 H   0  0  0  0  0  0  0  0  0  0  0  0
    3.8622    1.8449   19.2278 H   0  0  0  0  0  0  0  0  0  0  0  0
    4.9631    0.6466   21.1502 H   0  0  0  0  0  0  0  0  0  0  0  0
    7.6438   -0.1915   22.2605 C   0  0  0  0  0  0  0  0  0  0  0  0
    7.2859    1.1262   22.8431 C   0  0  0  0  0  0  0  0  0  0  0  0
    8.2824    1.4568   23.7907 O   0  0  0  0  0  0  0  0  0  0  0  0
    8.0865    2.6292   24.4756 C   0  0  0  0  0  0  0  0  0  0  0  0
    8.5742    3.8226   23.9076 C   0  0  0  0  0  0  0  0  0  0  0  0
    9.2404    3.8400   22.5455 C   0  0  0  0  0  0  0  0  0  0  0  0
    9.7788    2.9043   22.3583 H   0  0  0  0  0  0  0  0  0  0  0  0
    9.9555    4.6662   22.4838 H   0  0  0  0  0  0  0  0  0  0  0  0
    8.5209    3.9710   21.7240 H   0  0  0  0  0  0  0  0  0  0  0  0
    8.4339    4.9979   24.6575 C   0  0  0  0  0  0  0  0  0  0  0  0
    7.8313    4.9830   25.9209 C   0  0  0  0  0  0  0  0  0  0  0  0
    7.3640    3.7755   26.4570 C   0  0  0  0  0  0  0  0  0  0  0  0
    7.4775    2.5708   25.7476 C   0  0  0  0  0  0  0  0  0  0  0  0
    6.9728    1.2599   26.3269 C   0  0  0  0  0  0  0  0  0  0  0  0
    6.0028    0.9593   25.9060 H   0  0  0  0  0  0  0  0  0  0  0  0
    7.6738    0.4431   26.1213 H   0  0  0  0  0  0  0  0  0  0  0  0
    6.8441    1.3387   27.4111 H   0  0  0  0  0  0  0  0  0  0  0  0
    6.9134    3.7452   27.4487 H   0  0  0  0  0  0  0  0  0  0  0  0
    7.7253    5.9079   26.4828 H   0  0  0  0  0  0  0  0  0  0  0  0
    8.8235    5.9215   24.2308 H   0  0  0  0  0  0  0  0  0  0  0  0
    6.3017    1.0350   23.3296 H   0  0  0  0  0  0  0  0  0  0  0  0
    7.2200    1.8818   22.0462 H   0  0  0  0  0  0  0  0  0  0  0  0
    8.2207   -1.1874   22.9078 N   0  0  0  0  0  0  0  0  0  0  0  0
    9.1600   -3.7124   21.1485 H   0  0  0  0  0  0  0  0  0  0  0  0
    9.8142   -3.3506   22.7678 H   0  0  0  0  0  0  0  0  0  0  0  0
    8.5044   -5.4874   22.9106 H   0  0  0  0  0  0  0  0  0  0  0  0
    7.5185   -4.2490   23.6985 H   0  0  0  0  0  0  0  0  0  0  0  0
    7.1325   -4.7599   22.0485 H   0  0  0  0  0  0  0  0  0  0  0  0
  1  2  1  0
  2  3  1  0
  3  4  2  0
  4  5  1  0
  5  6  1  0
  6  7  2  0
  7  8  1  0
  8  9  2  0
  9 10  1  0
 10 11  2  0
 11 12  1  0
  9 13  1  0
  8 14  1  0
  7 15  1  0
  5 16  1  0
 16 17  1  0
 17 18  1  0
 18 19  1  0
 19 20  2  0
 20 21  1  0
 21 22  1  0
 21 23  1  0
 21 24  1  0
 20 25  1  0
 25 26  2  0
 26 27  1  0
 27 28  2  0
 28 29  1  0
 29 30  1  0
 29 31  1  0
 29 32  1  0
 27 33  1  0
 26 34  1  0
 25 35  1  0
 17 36  1  0
 17 37  1  0
 16 38  2  0
  2 39  1  0
  2 40  1  0
  1 41  1  0
  1 42  1  0
  1 43  1  0
 38  3  1  0
 11  6  1  0
 28 19  1  0
M  END
>  <cnnaffinity>  (1) 
-5.20623

>  <filename>  (1) 
CCc1nc(COc2c(C)cccc2C)n(-c2cccnc2)n1

$$$$
