
     RDKit          3D

 46 49  0  0  0  0  0  0  0  0999 V2000
    8.7952   -1.3165   26.6796 C   0  0  0  0  0  0  0  0  0  0  0  0
    7.9024   -0.1799   27.2055 C   0  0  0  0  0  0  0  0  0  0  0  0
    6.9190    0.2841   26.1828 C   0  0  0  0  0  0  0  0  0  0  0  0
    5.6188   -0.0439   25.8829 C   0  0  0  0  0  0  0  0  0  0  0  0
    5.2500    0.4877   24.6665 N   0  0  0  0  0  0  0  0  0  0  0  0
    6.3065    1.1151   24.2300 C   0  0  0  0  0  0  0  0  0  0  0  0
    6.5411    1.6523   22.8572 C   0  0  0  0  0  0  0  0  0  0  0  0
    7.6663    0.8651   22.2775 C   0  0  0  0  0  0  0  0  0  0  0  0
    8.9236    1.1124   22.5614 N   0  0  0  0  0  0  0  0  0  0  0  0
    9.5870    0.0116   22.0887 C   0  0  0  0  0  0  0  0  0  0  0  0
   11.0703   -0.0871   22.2646 C   0  0  0  0  0  0  0  0  0  0  0  0
   11.7015    0.9297   23.0079 C   0  0  0  0  0  0  0  0  0  0  0  0
   13.0789    0.9134   23.1606 C   0  0  0  0  0  0  0  0  0  0  0  0
   13.6510    1.9006   23.8536 F   0  0  0  0  0  0  0  0  0  0  0  0
   13.8822   -0.0828   22.6265 C   0  0  0  0  0  0  0  0  0  0  0  0
   13.2389   -1.1092   21.9406 C   0  0  0  0  0  0  0  0  0  0  0  0
   14.0016   -2.0933   21.4466 F   0  0  0  0  0  0  0  0  0  0  0  0
   11.8596   -1.1326   21.7370 C   0  0  0  0  0  0  0  0  0  0  0  0
   11.4303   -1.9545   21.1773 H   0  0  0  0  0  0  0  0  0  0  0  0
   14.9510   -0.0585   22.7633 H   0  0  0  0  0  0  0  0  0  0  0  0
   11.1230    1.7299   23.4515 H   0  0  0  0  0  0  0  0  0  0  0  0
    8.7900   -0.8923   21.5385 N   0  0  0  0  0  0  0  0  0  0  0  0
    7.5502   -0.3434   21.6902 N   0  0  0  0  0  0  0  0  0  0  0  0
    6.3659   -0.8866   21.0242 C   0  0  0  0  0  0  0  0  0  0  0  0
    5.9581   -0.0768   19.8090 C   0  0  0  0  0  0  0  0  0  0  0  0
    4.7616    0.6428   19.7130 C   0  0  0  0  0  0  0  0  0  0  0  0
    4.5496    1.4454   18.5867 C   0  0  0  0  0  0  0  0  0  0  0  0
    5.5204    1.4594   17.5822 C   0  0  0  0  0  0  0  0  0  0  0  0
    6.6568    0.7503   17.6395 N   0  0  0  0  0  0  0  0  0  0  0  0
    6.8652    0.0229   18.7423 C   0  0  0  0  0  0  0  0  0  0  0  0
    7.8134   -0.5102   18.8010 H   0  0  0  0  0  0  0  0  0  0  0  0
    5.3734    2.0482   16.6787 H   0  0  0  0  0  0  0  0  0  0  0  0
    3.6659    2.0656   18.4830 H   0  0  0  0  0  0  0  0  0  0  0  0
    4.0098    0.5985   20.5053 H   0  0  0  0  0  0  0  0  0  0  0  0
    6.6070   -1.9182   20.7629 H   0  0  0  0  0  0  0  0  0  0  0  0
    5.5412   -0.9303   21.7359 H   0  0  0  0  0  0  0  0  0  0  0  0
    5.6255    1.6018   22.2675 H   0  0  0  0  0  0  0  0  0  0  0  0
    6.8653    2.6886   22.9254 H   0  0  0  0  0  0  0  0  0  0  0  0
    7.3202    1.0809   25.1302 N   0  0  0  0  0  0  0  0  0  0  0  0
    8.2726    1.2942   24.8594 H   0  0  0  0  0  0  0  0  0  0  0  0
    4.9403   -0.6698   26.4501 H   0  0  0  0  0  0  0  0  0  0  0  0
    8.5186    0.6738   27.5189 H   0  0  0  0  0  0  0  0  0  0  0  0
    7.3578   -0.5046   28.0963 H   0  0  0  0  0  0  0  0  0  0  0  0
    9.5058   -1.6474   27.4423 H   0  0  0  0  0  0  0  0  0  0  0  0
    9.3724   -0.9885   25.8055 H   0  0  0  0  0  0  0  0  0  0  0  0
    8.1940   -2.1807   26.3764 H   0  0  0  0  0  0  0  0  0  0  0  0
  1  2  1  0
  2  3  1  0
  3  4  2  0
  4  5  1  0
  5  6  2  0
  6  7  1  0
  7  8  1  0
  8  9  2  0
  9 10  1  0
 10 11  1  0
 11 12  2  0
 12 13  1  0
 13 14  1  0
 13 15  2  0
 15 16  1  0
 16 17  1  0
 16 18  2  0
 18 19  1  0
 15 20  1  0
 12 21  1  0
 10 22  2  0
 22 23  1  0
 23 24  1  0
 24 25  1  0
 25 26  2  0
 26 27  1  0
 27 28  2  0
 28 29  1  0
 29 30  2  0
 30 31  1  0
 28 32  1  0
 27 33  1  0
 26 34  1  0
 24 35  1  0
 24 36  1  0
  7 37  1  0
  7 38  1  0
  6 39  1  0
 39 40  1  0
  4 41  1  0
  2 42  1  0
  2 43  1  0
  1 44  1  0
  1 45  1  0
  1 46  1  0
 39  3  1  0
 23  8  1  0
 30 25  1  0
 18 11  1  0
M  END
>  <cnnaffinity>  (1) 
-6.52131

>  <filename>  (1) 
CCc1cnc(Cc2nc(-c3cc(F)cc(F)c3)nn2Cc2cccnc2)[nH]1

$$$$
