
     RDKit          3D

 51 53  0  0  0  0  0  0  0  0999 V2000
    7.0732    4.1511   22.9452 C   0  0  0  0  0  0  0  0  0  0  0  0
    7.4907    2.7548   22.4556 C   0  0  0  0  0  0  0  0  0  0  0  0
    8.9705    2.4394   22.5007 C   0  0  0  0  0  0  0  0  0  0  0  0
    9.7577    3.0251   23.3940 N   0  0  0  0  0  0  0  0  0  0  0  0
   10.9729    2.4808   23.2212 N   0  0  0  0  0  0  0  0  0  0  0  0
   11.9864    2.8670   24.1658 C   0  0  0  0  0  0  0  0  0  0  0  0
   11.8252    3.9184   24.4051 H   0  0  0  0  0  0  0  0  0  0  0  0
   11.8811    2.2732   25.0782 H   0  0  0  0  0  0  0  0  0  0  0  0
   12.9805    2.7464   23.7333 H   0  0  0  0  0  0  0  0  0  0  0  0
   10.9843    1.5293   22.2542 C   0  0  0  0  0  0  0  0  0  0  0  0
   12.1386    0.6163   21.9614 C   0  0  0  0  0  0  0  0  0  0  0  0
   12.3931   -0.4550   23.0195 C   0  0  0  0  0  0  0  0  0  0  0  0
   12.6508   -0.0187   23.9927 H   0  0  0  0  0  0  0  0  0  0  0  0
   11.4933   -1.0687   23.1477 H   0  0  0  0  0  0  0  0  0  0  0  0
   13.2101   -1.1131   22.6972 H   0  0  0  0  0  0  0  0  0  0  0  0
   11.8849    0.0935   21.0338 H   0  0  0  0  0  0  0  0  0  0  0  0
   13.0529    1.1866   21.7602 H   0  0  0  0  0  0  0  0  0  0  0  0
    9.7024    1.4757   21.7504 C   0  0  0  0  0  0  0  0  0  0  0  0
    9.2211    0.4269   20.7749 C   0  0  0  0  0  0  0  0  0  0  0  0
    8.3090   -0.6006   21.3592 C   0  0  0  0  0  0  0  0  0  0  0  0
    8.5903   -1.3898   22.3761 N   0  0  0  0  0  0  0  0  0  0  0  0
    7.4573   -2.1360   22.5096 C   0  0  0  0  0  0  0  0  0  0  0  0
    7.3004   -3.1334   23.6270 C   0  0  0  0  0  0  0  0  0  0  0  0
    8.3549   -4.2604   23.5664 C   0  0  0  0  0  0  0  0  0  0  0  0
    9.3683   -3.8569   23.6949 H   0  0  0  0  0  0  0  0  0  0  0  0
    8.1765   -4.9802   24.3744 H   0  0  0  0  0  0  0  0  0  0  0  0
    8.3240   -4.8104   22.6196 H   0  0  0  0  0  0  0  0  0  0  0  0
    7.3709   -2.4241   24.9982 C   0  0  0  0  0  0  0  0  0  0  0  0
    8.3508   -1.9480   25.1361 H   0  0  0  0  0  0  0  0  0  0  0  0
    6.6070   -1.6457   25.0999 H   0  0  0  0  0  0  0  0  0  0  0  0
    7.2267   -3.1468   25.8082 H   0  0  0  0  0  0  0  0  0  0  0  0
    6.2997   -3.5608   23.4847 H   0  0  0  0  0  0  0  0  0  0  0  0
    6.5137   -1.8683   21.6272 N   0  0  0  0  0  0  0  0  0  0  0  0
    7.0731   -0.8903   20.8682 N   0  0  0  0  0  0  0  0  0  0  0  0
    6.3862   -0.2305   19.8103 C   0  0  0  0  0  0  0  0  0  0  0  0
    5.2277    0.5110   20.0564 C   0  0  0  0  0  0  0  0  0  0  0  0
    4.7237    1.2993   19.0189 C   0  0  0  0  0  0  0  0  0  0  0  0
    5.3730    1.2996   17.7784 C   0  0  0  0  0  0  0  0  0  0  0  0
    6.4541    0.5446   17.5199 N   0  0  0  0  0  0  0  0  0  0  0  0
    6.9343   -0.2064   18.5129 C   0  0  0  0  0  0  0  0  0  0  0  0
    7.8246   -0.7937   18.2890 H   0  0  0  0  0  0  0  0  0  0  0  0
    5.0143    1.9172   16.9607 H   0  0  0  0  0  0  0  0  0  0  0  0
    3.8516    1.9271   19.1630 H   0  0  0  0  0  0  0  0  0  0  0  0
    4.7696    0.4773   21.0471 H   0  0  0  0  0  0  0  0  0  0  0  0
   10.0683   -0.1489   20.3880 H   0  0  0  0  0  0  0  0  0  0  0  0
    8.7507    0.8860   19.9039 H   0  0  0  0  0  0  0  0  0  0  0  0
    7.1339    2.5948   21.4305 H   0  0  0  0  0  0  0  0  0  0  0  0
    6.9726    1.9960   23.0591 H   0  0  0  0  0  0  0  0  0  0  0  0
    7.3062    4.2916   24.0070 H   0  0  0  0  0  0  0  0  0  0  0  0
    5.9926    4.2951   22.8199 H   0  0  0  0  0  0  0  0  0  0  0  0
    7.5805    4.9495   22.3927 H   0  0  0  0  0  0  0  0  0  0  0  0
  1  2  1  0
  2  3  1  0
  3  4  2  0
  4  5  1  0
  5  6  1  0
  6  7  1  0
  6  8  1  0
  6  9  1  0
  5 10  1  0
 10 11  1  0
 11 12  1  0
 12 13  1  0
 12 14  1  0
 12 15  1  0
 11 16  1  0
 11 17  1  0
 10 18  2  0
 18 19  1  0
 19 20  1  0
 20 21  2  0
 21 22  1  0
 22 23  1  0
 23 24  1  0
 24 25  1  0
 24 26  1  0
 24 27  1  0
 23 28  1  0
 28 29  1  0
 28 30  1  0
 28 31  1  0
 23 32  1  0
 22 33  2  0
 33 34  1  0
 34 35  1  0
 35 36  2  0
 36 37  1  0
 37 38  2  0
 38 39  1  0
 39 40  2  0
 40 41  1  0
 38 42  1  0
 37 43  1  0
 36 44  1  0
 19 45  1  0
 19 46  1  0
  2 47  1  0
  2 48  1  0
  1 49  1  0
  1 50  1  0
  1 51  1  0
 18  3  1  0
 34 20  1  0
 40 35  1  0
M  END
>  <cnnaffinity>  (1) 
-6.44794

>  <filename>  (1) 
CCc1nn(C)c(CC)c1Cc1nc(C(C)C)nn1-c1cccnc1

$$$$
