
     RDKit          3D

 47 50  0  0  0  0  0  0  0  0999 V2000
    6.3171   -4.6806   24.7456 C   0  0  0  0  0  0  0  0  0  0  0  0
    4.9974   -4.5166   23.9740 C   0  0  0  0  0  0  0  0  0  0  0  0
    5.1567   -4.7721   22.4837 C   0  0  0  0  0  0  0  0  0  0  0  0
    4.9137   -6.0722   22.0141 C   0  0  0  0  0  0  0  0  0  0  0  0
    5.2326   -6.4387   20.7070 C   0  0  0  0  0  0  0  0  0  0  0  0
    5.7508   -5.4990   19.8208 C   0  0  0  0  0  0  0  0  0  0  0  0
    5.9331   -4.1842   20.2496 C   0  0  0  0  0  0  0  0  0  0  0  0
    5.6404   -3.8098   21.5674 C   0  0  0  0  0  0  0  0  0  0  0  0
    5.8169   -2.3456   21.9326 C   0  0  0  0  0  0  0  0  0  0  0  0
    7.1345   -1.7435   21.5993 C   0  0  0  0  0  0  0  0  0  0  0  0
    8.2132   -2.0442   22.2858 N   0  0  0  0  0  0  0  0  0  0  0  0
    9.1507   -1.1644   21.8417 C   0  0  0  0  0  0  0  0  0  0  0  0
   10.5348   -1.0026   22.4446 C   0  0  0  0  0  0  0  0  0  0  0  0
   10.6060    0.0043   23.6233 C   0  0  0  0  0  0  0  0  0  0  0  0
   10.2121   -0.8658   24.8349 C   0  0  0  0  0  0  0  0  0  0  0  0
   10.4151   -2.3160   24.3298 C   0  0  0  0  0  0  0  0  0  0  0  0
   11.0241   -2.1945   23.0384 O   0  0  0  0  0  0  0  0  0  0  0  0
    9.4439   -2.8191   24.2339 H   0  0  0  0  0  0  0  0  0  0  0  0
   11.0851   -2.9524   24.9171 H   0  0  0  0  0  0  0  0  0  0  0  0
   10.8149   -0.6211   25.7159 H   0  0  0  0  0  0  0  0  0  0  0  0
    9.1642   -0.7174   25.1085 H   0  0  0  0  0  0  0  0  0  0  0  0
   11.6498    0.3289   23.7143 H   0  0  0  0  0  0  0  0  0  0  0  0
    9.9771    0.8932   23.4868 H   0  0  0  0  0  0  0  0  0  0  0  0
   11.2000   -0.7242   21.6226 H   0  0  0  0  0  0  0  0  0  0  0  0
    8.7209   -0.3652   20.8832 N   0  0  0  0  0  0  0  0  0  0  0  0
    7.4128   -0.7214   20.7343 N   0  0  0  0  0  0  0  0  0  0  0  0
    6.6553   -0.1445   19.6768 C   0  0  0  0  0  0  0  0  0  0  0  0
    5.3567    0.3584   19.8322 C   0  0  0  0  0  0  0  0  0  0  0  0
    4.7084    0.8673   18.6967 C   0  0  0  0  0  0  0  0  0  0  0  0
    5.3813    0.8665   17.4739 C   0  0  0  0  0  0  0  0  0  0  0  0
    6.6330    0.4073   17.3271 N   0  0  0  0  0  0  0  0  0  0  0  0
    7.2551   -0.0687   18.4077 C   0  0  0  0  0  0  0  0  0  0  0  0
    8.2744   -0.4247   18.2776 H   0  0  0  0  0  0  0  0  0  0  0  0
    4.9110    1.2552   16.5740 H   0  0  0  0  0  0  0  0  0  0  0  0
    3.7021    1.2647   18.7552 H   0  0  0  0  0  0  0  0  0  0  0  0
    4.8726    0.3938   20.8087 H   0  0  0  0  0  0  0  0  0  0  0  0
    5.0395   -1.7542   21.4519 H   0  0  0  0  0  0  0  0  0  0  0  0
    5.7361   -2.2299   23.0180 H   0  0  0  0  0  0  0  0  0  0  0  0
    6.2969   -3.4254   19.5608 H   0  0  0  0  0  0  0  0  0  0  0  0
    6.0068   -5.7915   18.8076 H   0  0  0  0  0  0  0  0  0  0  0  0
    5.0258   -7.4489   20.3728 H   0  0  0  0  0  0  0  0  0  0  0  0
    4.4809   -6.8100   22.6862 H   0  0  0  0  0  0  0  0  0  0  0  0
    4.2593   -5.2232   24.3715 H   0  0  0  0  0  0  0  0  0  0  0  0
    4.5730   -3.5241   24.1673 H   0  0  0  0  0  0  0  0  0  0  0  0
    6.1729   -4.5601   25.8265 H   0  0  0  0  0  0  0  0  0  0  0  0
    6.7476   -5.6751   24.5770 H   0  0  0  0  0  0  0  0  0  0  0  0
    7.0606   -3.9469   24.4094 H   0  0  0  0  0  0  0  0  0  0  0  0
  1  2  1  0
  2  3  1  0
  3  4  2  0
  4  5  1  0
  5  6  2  0
  6  7  1  0
  7  8  2  0
  8  9  1  0
  9 10  1  0
 10 11  2  0
 11 12  1  0
 12 13  1  0
 13 14  1  0
 14 15  1  0
 15 16  1  0
 16 17  1  0
 16 18  1  0
 16 19  1  0
 15 20  1  0
 15 21  1  0
 14 22  1  0
 14 23  1  0
 13 24  1  0
 12 25  2  0
 25 26  1  0
 26 27  1  0
 27 28  2  0
 28 29  1  0
 29 30  2  0
 30 31  1  0
 31 32  2  0
 32 33  1  0
 30 34  1  0
 29 35  1  0
 28 36  1  0
  9 37  1  0
  9 38  1  0
  7 39  1  0
  6 40  1  0
  5 41  1  0
  4 42  1  0
  2 43  1  0
  2 44  1  0
  1 45  1  0
  1 46  1  0
  1 47  1  0
  8  3  1  0
 26 10  1  0
 32 27  1  0
 17 13  1  0
M  END
>  <cnnaffinity>  (1) 
-6.44562

>  <filename>  (1) 
CCc1ccccc1Cc1nc(C2CCCO2)nn1-c1cccnc1

$$$$
