
     RDKit          3D

 45 48  0  0  0  0  0  0  0  0999 V2000
   11.8816    1.9881   23.7651 C   0  0  0  0  0  0  0  0  0  0  0  0
   10.4567    1.4952   24.0338 C   0  0  0  0  0  0  0  0  0  0  0  0
    9.4347    2.3118   23.2539 C   0  0  0  0  0  0  0  0  0  0  0  0
    8.9889    3.5388   23.7878 C   0  0  0  0  0  0  0  0  0  0  0  0
    8.0305    4.3196   23.1305 C   0  0  0  0  0  0  0  0  0  0  0  0
    7.4748    3.8763   21.9254 C   0  0  0  0  0  0  0  0  0  0  0  0
    7.9480    2.6851   21.3696 C   0  0  0  0  0  0  0  0  0  0  0  0
    8.9762    1.9490   21.9707 C   0  0  0  0  0  0  0  0  0  0  0  0
    9.4909    0.7282   21.2194 C   0  0  0  0  0  0  0  0  0  0  0  0
    8.6313   -0.4671   21.4732 C   0  0  0  0  0  0  0  0  0  0  0  0
    8.8664   -1.3628   22.4025 N   0  0  0  0  0  0  0  0  0  0  0  0
    7.7115   -2.0828   22.4595 C   0  0  0  0  0  0  0  0  0  0  0  0
    7.5090   -3.1754   23.4631 C   0  0  0  0  0  0  0  0  0  0  0  0
    6.3045   -3.9073   23.5448 C   0  0  0  0  0  0  0  0  0  0  0  0
    6.1815   -4.9159   24.5057 C   0  0  0  0  0  0  0  0  0  0  0  0
    7.1456   -5.2366   25.3791 N   0  0  0  0  0  0  0  0  0  0  0  0
    8.2842   -4.5326   25.3187 C   0  0  0  0  0  0  0  0  0  0  0  0
    8.5141   -3.5085   24.3957 C   0  0  0  0  0  0  0  0  0  0  0  0
    9.4591   -2.9744   24.4163 H   0  0  0  0  0  0  0  0  0  0  0  0
    9.0535   -4.7956   26.0424 H   0  0  0  0  0  0  0  0  0  0  0  0
    5.2620   -5.4932   24.5746 H   0  0  0  0  0  0  0  0  0  0  0  0
    5.4696   -3.6860   22.8868 H   0  0  0  0  0  0  0  0  0  0  0  0
    6.7921   -1.6995   21.5903 N   0  0  0  0  0  0  0  0  0  0  0  0
    7.3937   -0.6782   20.9318 N   0  0  0  0  0  0  0  0  0  0  0  0
    6.6834   -0.0229   19.8760 C   0  0  0  0  0  0  0  0  0  0  0  0
    5.4554    0.5960   20.1369 C   0  0  0  0  0  0  0  0  0  0  0  0
    4.8302    1.2814   19.0912 C   0  0  0  0  0  0  0  0  0  0  0  0
    5.4232    1.2878   17.8228 C   0  0  0  0  0  0  0  0  0  0  0  0
    6.5701    0.6457   17.5521 N   0  0  0  0  0  0  0  0  0  0  0  0
    7.1764    0.0049   18.5599 C   0  0  0  0  0  0  0  0  0  0  0  0
    8.0934   -0.5211   18.3030 H   0  0  0  0  0  0  0  0  0  0  0  0
    4.9529    1.8117   16.9921 H   0  0  0  0  0  0  0  0  0  0  0  0
    3.8945    1.8056   19.2472 H   0  0  0  0  0  0  0  0  0  0  0  0
    5.0195    0.5500   21.1372 H   0  0  0  0  0  0  0  0  0  0  0  0
   10.5158    0.4819   21.5161 H   0  0  0  0  0  0  0  0  0  0  0  0
    9.5089    0.9185   20.1435 H   0  0  0  0  0  0  0  0  0  0  0  0
    7.5270    2.3014   20.4450 H   0  0  0  0  0  0  0  0  0  0  0  0
    6.6913    4.4436   21.4187 H   0  0  0  0  0  0  0  0  0  0  0  0
    7.7005    5.2621   23.5665 H   0  0  0  0  0  0  0  0  0  0  0  0
    9.3916    3.8745   24.7418 H   0  0  0  0  0  0  0  0  0  0  0  0
   10.2386    1.5747   25.1069 H   0  0  0  0  0  0  0  0  0  0  0  0
   10.3647    0.4257   23.8022 H   0  0  0  0  0  0  0  0  0  0  0  0
   11.9691    3.0556   23.9970 H   0  0  0  0  0  0  0  0  0  0  0  0
   12.1306    1.8624   22.7052 H   0  0  0  0  0  0  0  0  0  0  0  0
   12.6241    1.4527   24.3629 H   0  0  0  0  0  0  0  0  0  0  0  0
  1  2  1  0
  2  3  1  0
  3  4  2  0
  4  5  1  0
  5  6  2  0
  6  7  1  0
  7  8  2  0
  8  9  1  0
  9 10  1  0
 10 11  2  0
 11 12  1  0
 12 13  1  0
 13 14  2  0
 14 15  1  0
 15 16  2  0
 16 17  1  0
 17 18  2  0
 18 19  1  0
 17 20  1  0
 15 21  1  0
 14 22  1  0
 12 23  2  0
 23 24  1  0
 24 25  1  0
 25 26  2  0
 26 27  1  0
 27 28  2  0
 28 29  1  0
 29 30  2  0
 30 31  1  0
 28 32  1  0
 27 33  1  0
 26 34  1  0
  9 35  1  0
  9 36  1  0
  7 37  1  0
  6 38  1  0
  5 39  1  0
  4 40  1  0
  2 41  1  0
  2 42  1  0
  1 43  1  0
  1 44  1  0
  1 45  1  0
  8  3  1  0
 24 10  1  0
 30 25  1  0
 18 13  1  0
M  END
>  <cnnaffinity>  (1) 
-6.31257

>  <filename>  (1) 
CCc1ccccc1Cc1nc(-c2ccncc2)nn1-c1cccnc1

$$$$
