
     RDKit          3D

 46 49  0  0  0  0  0  0  0  0999 V2000
   11.8193    2.0145   23.8024 C   0  0  0  0  0  0  0  0  0  0  0  0
   10.3920    1.5086   24.0454 C   0  0  0  0  0  0  0  0  0  0  0  0
    9.3860    2.3287   23.2472 C   0  0  0  0  0  0  0  0  0  0  0  0
    8.9284    3.5542   23.7693 C   0  0  0  0  0  0  0  0  0  0  0  0
    7.9811    4.3310   23.0927 C   0  0  0  0  0  0  0  0  0  0  0  0
    7.4478    3.8808   21.8799 C   0  0  0  0  0  0  0  0  0  0  0  0
    7.9309    2.6889   21.3406 C   0  0  0  0  0  0  0  0  0  0  0  0
    8.9495    1.9585   21.9587 C   0  0  0  0  0  0  0  0  0  0  0  0
    9.4822    0.7411   21.2142 C   0  0  0  0  0  0  0  0  0  0  0  0
    8.6348   -0.4586   21.4884 C   0  0  0  0  0  0  0  0  0  0  0  0
    8.8831   -1.3424   22.4252 N   0  0  0  0  0  0  0  0  0  0  0  0
    7.7459   -2.0937   22.4867 C   0  0  0  0  0  0  0  0  0  0  0  0
    7.5240   -3.1870   23.4638 C   0  0  0  0  0  0  0  0  0  0  0  0
    8.4441   -3.5549   24.3653 N   0  0  0  0  0  0  0  0  0  0  0  0
    7.8927   -4.5442   25.0620 N   0  0  0  0  0  0  0  0  0  0  0  0
    8.6242   -5.1378   26.1695 C   0  0  0  0  0  0  0  0  0  0  0  0
    9.6901   -4.9851   25.9837 H   0  0  0  0  0  0  0  0  0  0  0  0
    8.4045   -6.2075   26.2096 H   0  0  0  0  0  0  0  0  0  0  0  0
    8.3470   -4.6666   27.1197 H   0  0  0  0  0  0  0  0  0  0  0  0
    6.6326   -4.8281   24.6496 C   0  0  0  0  0  0  0  0  0  0  0  0
    6.3477   -3.9724   23.6125 C   0  0  0  0  0  0  0  0  0  0  0  0
    5.4399   -3.8771   23.0322 H   0  0  0  0  0  0  0  0  0  0  0  0
    6.0531   -5.6078   25.1263 H   0  0  0  0  0  0  0  0  0  0  0  0
    6.8185   -1.7233   21.6095 N   0  0  0  0  0  0  0  0  0  0  0  0
    7.3983   -0.6912   20.9525 N   0  0  0  0  0  0  0  0  0  0  0  0
    6.6843   -0.0416   19.8994 C   0  0  0  0  0  0  0  0  0  0  0  0
    5.4568    0.5776   20.1586 C   0  0  0  0  0  0  0  0  0  0  0  0
    4.8362    1.2651   19.1123 C   0  0  0  0  0  0  0  0  0  0  0  0
    5.4302    1.2702   17.8447 C   0  0  0  0  0  0  0  0  0  0  0  0
    6.5769    0.6264   17.5771 N   0  0  0  0  0  0  0  0  0  0  0  0
    7.1816   -0.0131   18.5862 C   0  0  0  0  0  0  0  0  0  0  0  0
    8.1021   -0.5376   18.3364 H   0  0  0  0  0  0  0  0  0  0  0  0
    4.9649    1.8003   17.0148 H   0  0  0  0  0  0  0  0  0  0  0  0
    3.9032    1.7927   19.2683 H   0  0  0  0  0  0  0  0  0  0  0  0
    5.0220    0.5295   21.1591 H   0  0  0  0  0  0  0  0  0  0  0  0
    9.4959    0.9154   20.1348 H   0  0  0  0  0  0  0  0  0  0  0  0
   10.5072    0.5050   21.5207 H   0  0  0  0  0  0  0  0  0  0  0  0
    7.5289    2.3039   20.4094 H   0  0  0  0  0  0  0  0  0  0  0  0
    6.6702    4.4426   21.3577 H   0  0  0  0  0  0  0  0  0  0  0  0
    7.6437    5.2712   23.5171 H   0  0  0  0  0  0  0  0  0  0  0  0
    9.3170    3.8928   24.7285 H   0  0  0  0  0  0  0  0  0  0  0  0
   10.3112    0.4360   23.8088 H   0  0  0  0  0  0  0  0  0  0  0  0
   10.1555    1.5881   25.1158 H   0  0  0  0  0  0  0  0  0  0  0  0
   12.5562    1.4861   24.4153 H   0  0  0  0  0  0  0  0  0  0  0  0
   12.0870    1.8865   22.7459 H   0  0  0  0  0  0  0  0  0  0  0  0
   11.8953    3.0850   24.0330 H   0  0  0  0  0  0  0  0  0  0  0  0
  1  2  1  0
  2  3  1  0
  3  4  2  0
  4  5  1  0
  5  6  2  0
  6  7  1  0
  7  8  2  0
  8  9  1  0
  9 10  1  0
 10 11  2  0
 11 12  1  0
 12 13  1  0
 13 14  2  0
 14 15  1  0
 15 16  1  0
 16 17  1  0
 16 18  1  0
 16 19  1  0
 15 20  1  0
 20 21  2  0
 21 22  1  0
 20 23  1  0
 12 24  2  0
 24 25  1  0
 25 26  1  0
 26 27  2  0
 27 28  1  0
 28 29  2  0
 29 30  1  0
 30 31  2  0
 31 32  1  0
 29 33  1  0
 28 34  1  0
 27 35  1  0
  9 36  1  0
  9 37  1  0
  7 38  1  0
  6 39  1  0
  5 40  1  0
  4 41  1  0
  2 42  1  0
  2 43  1  0
  1 44  1  0
  1 45  1  0
  1 46  1  0
  8  3  1  0
 25 10  1  0
 31 26  1  0
 21 13  1  0
M  END
>  <cnnaffinity>  (1) 
-5.96268

>  <filename>  (1) 
CCc1ccccc1Cc1nc(-c2ccn(C)n2)nn1-c1cccnc1

$$$$
