
     RDKit          3D

 39 41  0  0  0  0  0  0  0  0999 V2000
    7.7244   -4.5423   22.9508 C   0  0  0  0  0  0  0  0  0  0  0  0
    8.5455   -3.5219   22.1443 C   0  0  0  0  0  0  0  0  0  0  0  0
    7.9377   -2.1722   21.9231 C   0  0  0  0  0  0  0  0  0  0  0  0
    7.5584   -1.7928   20.7207 N   0  0  0  0  0  0  0  0  0  0  0  0
    7.1085   -0.5313   20.9128 N   0  0  0  0  0  0  0  0  0  0  0  0
    6.4803    0.1465   19.8291 C   0  0  0  0  0  0  0  0  0  0  0  0
    5.2654    0.8295   19.9773 C   0  0  0  0  0  0  0  0  0  0  0  0
    4.7168    1.4403   18.8442 C   0  0  0  0  0  0  0  0  0  0  0  0
    5.4042    1.3630   17.6280 C   0  0  0  0  0  0  0  0  0  0  0  0
    6.5601    0.6891   17.4798 N   0  0  0  0  0  0  0  0  0  0  0  0
    7.0668    0.0802   18.5521 C   0  0  0  0  0  0  0  0  0  0  0  0
    7.9825   -0.4939   18.4102 H   0  0  0  0  0  0  0  0  0  0  0  0
    5.0141    1.8448   16.7347 H   0  0  0  0  0  0  0  0  0  0  0  0
    3.7773    1.9797   18.8931 H   0  0  0  0  0  0  0  0  0  0  0  0
    4.7607    0.8603   20.9441 H   0  0  0  0  0  0  0  0  0  0  0  0
    7.3181   -0.1754   22.2153 C   0  0  0  0  0  0  0  0  0  0  0  0
    7.1596    1.2106   22.7849 C   0  0  0  0  0  0  0  0  0  0  0  0
    8.4336    1.6615   23.5055 C   0  0  0  0  0  0  0  0  0  0  0  0
    9.5205    2.1541   22.7763 C   0  0  0  0  0  0  0  0  0  0  0  0
    9.3500    2.4221   21.0651 Cl  0  0  0  0  0  0  0  0  0  0  0  0
   10.7805    2.3537   23.3516 C   0  0  0  0  0  0  0  0  0  0  0  0
   10.9686    2.0503   24.7003 C   0  0  0  0  0  0  0  0  0  0  0  0
    9.8959    1.5618   25.4544 C   0  0  0  0  0  0  0  0  0  0  0  0
    8.6256    1.3874   24.8807 C   0  0  0  0  0  0  0  0  0  0  0  0
    7.4682    0.8444   25.6895 C   0  0  0  0  0  0  0  0  0  0  0  0
    7.1815   -0.1362   25.2883 H   0  0  0  0  0  0  0  0  0  0  0  0
    6.5879    1.4945   25.6075 H   0  0  0  0  0  0  0  0  0  0  0  0
    7.6949    0.7314   26.7535 H   0  0  0  0  0  0  0  0  0  0  0  0
   10.0574    1.2583   26.4844 H   0  0  0  0  0  0  0  0  0  0  0  0
   11.9467    2.1655   25.1674 H   0  0  0  0  0  0  0  0  0  0  0  0
   11.5784    2.7050   22.7081 H   0  0  0  0  0  0  0  0  0  0  0  0
    6.3055    1.2013   23.4676 H   0  0  0  0  0  0  0  0  0  0  0  0
    6.9223    1.9159   21.9870 H   0  0  0  0  0  0  0  0  0  0  0  0
    7.8061   -1.2143   22.8790 N   0  0  0  0  0  0  0  0  0  0  0  0
    9.5153   -3.3654   22.6288 H   0  0  0  0  0  0  0  0  0  0  0  0
    8.7473   -3.9194   21.1465 H   0  0  0  0  0  0  0  0  0  0  0  0
    7.4943   -4.1716   23.9553 H   0  0  0  0  0  0  0  0  0  0  0  0
    6.7819   -4.7964   22.4520 H   0  0  0  0  0  0  0  0  0  0  0  0
    8.2991   -5.4699   23.0643 H   0  0  0  0  0  0  0  0  0  0  0  0
  1  2  1  0
  2  3  1  0
  3  4  2  0
  4  5  1  0
  5  6  1  0
  6  7  2  0
  7  8  1  0
  8  9  2  0
  9 10  1  0
 10 11  2  0
 11 12  1  0
  9 13  1  0
  8 14  1  0
  7 15  1  0
  5 16  1  0
 16 17  1  0
 17 18  1  0
 18 19  2  0
 19 20  1  0
 19 21  1  0
 21 22  2  0
 22 23  1  0
 23 24  2  0
 24 25  1  0
 25 26  1  0
 25 27  1  0
 25 28  1  0
 23 29  1  0
 22 30  1  0
 21 31  1  0
 17 32  1  0
 17 33  1  0
 16 34  2  0
  2 35  1  0
  2 36  1  0
  1 37  1  0
  1 38  1  0
  1 39  1  0
 34  3  1  0
 11  6  1  0
 24 18  1  0
M  END
>  <cnnaffinity>  (1) 
-5.5944

>  <filename>  (1) 
CCc1nc(Cc2c(C)cccc2Cl)n(-c2cccnc2)n1

$$$$
