
     RDKit          3D

 46 49  0  0  0  0  0  0  0  0999 V2000
    7.7824    0.8965   28.6741 C   0  0  0  0  0  0  0  0  0  0  0  0
    7.8243   -0.0643   27.4810 C   0  0  0  0  0  0  0  0  0  0  0  0
    6.9902    0.3998   26.3380 C   0  0  0  0  0  0  0  0  0  0  0  0
    5.7659    0.0575   25.8296 C   0  0  0  0  0  0  0  0  0  0  0  0
    5.5143    0.7455   24.6573 N   0  0  0  0  0  0  0  0  0  0  0  0
    6.5563    1.5072   24.4895 C   0  0  0  0  0  0  0  0  0  0  0  0
    6.9804    2.1448   23.2193 C   0  0  0  0  0  0  0  0  0  0  0  0
    7.9708    1.1792   22.6571 C   0  0  0  0  0  0  0  0  0  0  0  0
    9.2706    1.1612   22.8850 N   0  0  0  0  0  0  0  0  0  0  0  0
    9.6587   -0.0377   22.3492 C   0  0  0  0  0  0  0  0  0  0  0  0
   11.0460   -0.5123   22.1507 C   0  0  0  0  0  0  0  0  0  0  0  0
   11.2430   -1.6515   21.3402 C   0  0  0  0  0  0  0  0  0  0  0  0
   12.5018   -1.9276   20.8322 C   0  0  0  0  0  0  0  0  0  0  0  0
   13.5911   -1.1625   21.2071 C   0  0  0  0  0  0  0  0  0  0  0  0
   14.9506   -1.3629   20.1594 Cl  0  0  0  0  0  0  0  0  0  0  0  0
   13.4605   -0.1286   22.1394 C   0  0  0  0  0  0  0  0  0  0  0  0
   12.1780    0.2000   22.5966 C   0  0  0  0  0  0  0  0  0  0  0  0
   12.0605    1.0328   23.2846 H   0  0  0  0  0  0  0  0  0  0  0  0
   14.3369    0.4411   22.4350 H   0  0  0  0  0  0  0  0  0  0  0  0
   12.6898   -2.6349   20.0355 H   0  0  0  0  0  0  0  0  0  0  0  0
   10.3932   -2.2629   21.0486 H   0  0  0  0  0  0  0  0  0  0  0  0
    8.6494   -0.7494   21.8607 N   0  0  0  0  0  0  0  0  0  0  0  0
    7.5769    0.0343   22.0746 N   0  0  0  0  0  0  0  0  0  0  0  0
    6.2776   -0.2847   21.5117 C   0  0  0  0  0  0  0  0  0  0  0  0
    6.0412    0.3516   20.1597 C   0  0  0  0  0  0  0  0  0  0  0  0
    4.8955    1.1020   19.8868 C   0  0  0  0  0  0  0  0  0  0  0  0
    4.7255    1.6277   18.6023 C   0  0  0  0  0  0  0  0  0  0  0  0
    5.7105    1.3797   17.6422 C   0  0  0  0  0  0  0  0  0  0  0  0
    6.8201    0.6665   17.8855 N   0  0  0  0  0  0  0  0  0  0  0  0
    6.9754    0.1759   19.1209 C   0  0  0  0  0  0  0  0  0  0  0  0
    7.8899   -0.3863   19.3098 H   0  0  0  0  0  0  0  0  0  0  0  0
    5.5994    1.7604   16.6266 H   0  0  0  0  0  0  0  0  0  0  0  0
    3.8651    2.2383   18.3517 H   0  0  0  0  0  0  0  0  0  0  0  0
    4.1430    1.2609   20.6659 H   0  0  0  0  0  0  0  0  0  0  0  0
    5.5359    0.0627   22.2334 H   0  0  0  0  0  0  0  0  0  0  0  0
    6.2188   -1.3753   21.4821 H   0  0  0  0  0  0  0  0  0  0  0  0
    7.4612    3.1026   23.4011 H   0  0  0  0  0  0  0  0  0  0  0  0
    6.1183    2.2739   22.5652 H   0  0  0  0  0  0  0  0  0  0  0  0
    7.4623    1.3937   25.4971 N   0  0  0  0  0  0  0  0  0  0  0  0
    8.4433    1.5234   25.2702 H   0  0  0  0  0  0  0  0  0  0  0  0
    5.0821   -0.6922   26.2042 H   0  0  0  0  0  0  0  0  0  0  0  0
    8.8619   -0.1681   27.1264 H   0  0  0  0  0  0  0  0  0  0  0  0
    7.4946   -1.0676   27.7683 H   0  0  0  0  0  0  0  0  0  0  0  0
    8.1254    1.8899   28.3683 H   0  0  0  0  0  0  0  0  0  0  0  0
    6.7659    0.9996   29.0665 H   0  0  0  0  0  0  0  0  0  0  0  0
    8.4284    0.5504   29.4877 H   0  0  0  0  0  0  0  0  0  0  0  0
  1  2  1  0
  2  3  1  0
  3  4  2  0
  4  5  1  0
  5  6  2  0
  6  7  1  0
  7  8  1  0
  8  9  2  0
  9 10  1  0
 10 11  1  0
 11 12  2  0
 12 13  1  0
 13 14  2  0
 14 15  1  0
 14 16  1  0
 16 17  2  0
 17 18  1  0
 16 19  1  0
 13 20  1  0
 12 21  1  0
 10 22  2  0
 22 23  1  0
 23 24  1  0
 24 25  1  0
 25 26  2  0
 26 27  1  0
 27 28  2  0
 28 29  1  0
 29 30  2  0
 30 31  1  0
 28 32  1  0
 27 33  1  0
 26 34  1  0
 24 35  1  0
 24 36  1  0
  7 37  1  0
  7 38  1  0
  6 39  1  0
 39 40  1  0
  4 41  1  0
  2 42  1  0
  2 43  1  0
  1 44  1  0
  1 45  1  0
  1 46  1  0
 39  3  1  0
 23  8  1  0
 30 25  1  0
 17 11  1  0
M  END
>  <cnnaffinity>  (1) 
-6.65515

>  <filename>  (1) 
CCc1cnc(Cc2nc(-c3ccc(Cl)cc3)nn2Cc2cccnc2)[nH]1

$$$$
