
     RDKit          3D

 46 49  0  0  0  0  0  0  0  0999 V2000
    7.7742    0.8426   28.5840 C   0  0  0  0  0  0  0  0  0  0  0  0
    7.8932   -0.1105   27.3913 C   0  0  0  0  0  0  0  0  0  0  0  0
    7.1171    0.3159   26.1881 C   0  0  0  0  0  0  0  0  0  0  0  0
    5.9148   -0.0749   25.6614 C   0  0  0  0  0  0  0  0  0  0  0  0
    5.6873    0.5342   24.4483 N   0  0  0  0  0  0  0  0  0  0  0  0
    6.7122    1.3141   24.2584 C   0  0  0  0  0  0  0  0  0  0  0  0
    7.0797    1.9014   22.9447 C   0  0  0  0  0  0  0  0  0  0  0  0
    8.0878    0.9608   22.4022 C   0  0  0  0  0  0  0  0  0  0  0  0
    9.3850    1.0778   22.5790 N   0  0  0  0  0  0  0  0  0  0  0  0
    9.8708   -0.0815   22.0554 C   0  0  0  0  0  0  0  0  0  0  0  0
   11.3024   -0.4002   21.9097 C   0  0  0  0  0  0  0  0  0  0  0  0
   11.6451   -1.5723   21.2134 C   0  0  0  0  0  0  0  0  0  0  0  0
   12.9773   -1.8811   20.9830 C   0  0  0  0  0  0  0  0  0  0  0  0
   13.9762   -1.1003   21.5430 C   0  0  0  0  0  0  0  0  0  0  0  0
   13.6630    0.0714   22.2306 C   0  0  0  0  0  0  0  0  0  0  0  0
   12.3258    0.4399   22.3997 C   0  0  0  0  0  0  0  0  0  0  0  0
   12.0861    1.3841   22.8831 H   0  0  0  0  0  0  0  0  0  0  0  0
   14.4551    0.7242   22.5873 H   0  0  0  0  0  0  0  0  0  0  0  0
   14.9850   -1.4441   21.4203 H   0  0  0  0  0  0  0  0  0  0  0  0
   13.2428   -2.6972   20.3251 H   0  0  0  0  0  0  0  0  0  0  0  0
   10.8505   -2.2202   20.8535 H   0  0  0  0  0  0  0  0  0  0  0  0
    8.9286   -0.9043   21.6090 N   0  0  0  0  0  0  0  0  0  0  0  0
    7.7821   -0.2362   21.8619 N   0  0  0  0  0  0  0  0  0  0  0  0
    6.5077   -0.6929   21.3136 C   0  0  0  0  0  0  0  0  0  0  0  0
    6.1094    0.0449   20.0528 C   0  0  0  0  0  0  0  0  0  0  0  0
    4.9134    0.7605   19.9311 C   0  0  0  0  0  0  0  0  0  0  0  0
    4.6809    1.4803   18.7556 C   0  0  0  0  0  0  0  0  0  0  0  0
    5.6389    1.4355   17.7402 C   0  0  0  0  0  0  0  0  0  0  0  0
    6.7793    0.7333   17.8263 N   0  0  0  0  0  0  0  0  0  0  0  0
    7.0007    0.0660   18.9638 C   0  0  0  0  0  0  0  0  0  0  0  0
    7.9393   -0.4855   19.0334 H   0  0  0  0  0  0  0  0  0  0  0  0
    5.4780    1.9736   16.8081 H   0  0  0  0  0  0  0  0  0  0  0  0
    3.7897    2.0853   18.6273 H   0  0  0  0  0  0  0  0  0  0  0  0
    4.1767    0.7651   20.7394 H   0  0  0  0  0  0  0  0  0  0  0  0
    5.7549   -0.5644   22.0922 H   0  0  0  0  0  0  0  0  0  0  0  0
    6.6330   -1.7637   21.1396 H   0  0  0  0  0  0  0  0  0  0  0  0
    6.2017    1.9592   22.3004 H   0  0  0  0  0  0  0  0  0  0  0  0
    7.5341    2.8845   23.0438 H   0  0  0  0  0  0  0  0  0  0  0  0
    7.5945    1.2725   25.2968 N   0  0  0  0  0  0  0  0  0  0  0  0
    8.5706    1.4817   25.1343 H   0  0  0  0  0  0  0  0  0  0  0  0
    5.2020   -0.7755   26.0765 H   0  0  0  0  0  0  0  0  0  0  0  0
    7.5547   -1.1095   27.6898 H   0  0  0  0  0  0  0  0  0  0  0  0
    8.9524   -0.2204   27.1168 H   0  0  0  0  0  0  0  0  0  0  0  0
    6.7642    0.8313   29.0038 H   0  0  0  0  0  0  0  0  0  0  0  0
    8.0182    1.8709   28.2998 H   0  0  0  0  0  0  0  0  0  0  0  0
    8.4682    0.5439   29.3746 H   0  0  0  0  0  0  0  0  0  0  0  0
  1  2  1  0
  2  3  1  0
  3  4  2  0
  4  5  1  0
  5  6  2  0
  6  7  1  0
  7  8  1  0
  8  9  2  0
  9 10  1  0
 10 11  1  0
 11 12  2  0
 12 13  1  0
 13 14  2  0
 14 15  1  0
 15 16  2  0
 16 17  1  0
 15 18  1  0
 14 19  1  0
 13 20  1  0
 12 21  1  0
 10 22  2  0
 22 23  1  0
 23 24  1  0
 24 25  1  0
 25 26  2  0
 26 27  1  0
 27 28  2  0
 28 29  1  0
 29 30  2  0
 30 31  1  0
 28 32  1  0
 27 33  1  0
 26 34  1  0
 24 35  1  0
 24 36  1  0
  7 37  1  0
  7 38  1  0
  6 39  1  0
 39 40  1  0
  4 41  1  0
  2 42  1  0
  2 43  1  0
  1 44  1  0
  1 45  1  0
  1 46  1  0
 39  3  1  0
 23  8  1  0
 30 25  1  0
 16 11  1  0
M  END
>  <cnnaffinity>  (1) 
-6.62152

>  <filename>  (1) 
CCc1cnc(Cc2nc(-c3ccccc3)nn2Cc2cccnc2)[nH]1

$$$$
