
     RDKit          3D

 53 56  0  0  0  0  0  0  0  0999 V2000
    7.3683    4.5622   21.7264 C   0  0  0  0  0  0  0  0  0  0  0  0
    7.6804    3.0605   21.7839 C   0  0  0  0  0  0  0  0  0  0  0  0
    8.9833    2.6650   22.4274 C   0  0  0  0  0  0  0  0  0  0  0  0
    9.4110    3.2562   23.5399 N   0  0  0  0  0  0  0  0  0  0  0  0
   10.4751    2.5330   23.9179 N   0  0  0  0  0  0  0  0  0  0  0  0
   10.7450    1.4834   23.1095 C   0  0  0  0  0  0  0  0  0  0  0  0
   11.9063    0.5619   23.3007 C   0  0  0  0  0  0  0  0  0  0  0  0
   13.1467    1.0505   22.5443 C   0  0  0  0  0  0  0  0  0  0  0  0
   13.6086    1.8958   23.0617 H   0  0  0  0  0  0  0  0  0  0  0  0
   13.8954    0.2615   22.4419 H   0  0  0  0  0  0  0  0  0  0  0  0
   12.8612    1.4065   21.5501 H   0  0  0  0  0  0  0  0  0  0  0  0
   12.1325    0.4593   24.3683 H   0  0  0  0  0  0  0  0  0  0  0  0
   11.5976   -0.4341   22.9557 H   0  0  0  0  0  0  0  0  0  0  0  0
    9.8058    1.5485   22.0978 C   0  0  0  0  0  0  0  0  0  0  0  0
    9.6297    0.4848   21.0322 C   0  0  0  0  0  0  0  0  0  0  0  0
    8.6257   -0.5731   21.3965 C   0  0  0  0  0  0  0  0  0  0  0  0
    8.8283   -1.4557   22.3589 N   0  0  0  0  0  0  0  0  0  0  0  0
    7.6234   -2.0658   22.4893 C   0  0  0  0  0  0  0  0  0  0  0  0
    7.3682   -3.0644   23.5773 C   0  0  0  0  0  0  0  0  0  0  0  0
    6.5627   -2.4299   24.7491 C   0  0  0  0  0  0  0  0  0  0  0  0
    6.0578   -3.4601   25.7308 C   0  0  0  0  0  0  0  0  0  0  0  0
    6.0546   -4.7723   25.4926 C   0  0  0  0  0  0  0  0  0  0  0  0
    6.5405   -5.3855   24.1981 C   0  0  0  0  0  0  0  0  0  0  0  0
    6.6873   -4.3525   23.0657 C   0  0  0  0  0  0  0  0  0  0  0  0
    5.6991   -4.0911   22.6610 H   0  0  0  0  0  0  0  0  0  0  0  0
    7.2703   -4.7855   22.2436 H   0  0  0  0  0  0  0  0  0  0  0  0
    7.5038   -5.8867   24.3857 H   0  0  0  0  0  0  0  0  0  0  0  0
    5.8508   -6.1790   23.8849 H   0  0  0  0  0  0  0  0  0  0  0  0
    5.7107   -5.4591   26.2677 H   0  0  0  0  0  0  0  0  0  0  0  0
    5.6545   -3.0790   26.6700 H   0  0  0  0  0  0  0  0  0  0  0  0
    7.1933   -1.7003   25.2759 H   0  0  0  0  0  0  0  0  0  0  0  0
    5.7067   -1.8583   24.3610 H   0  0  0  0  0  0  0  0  0  0  0  0
    8.3614   -3.3218   23.9658 H   0  0  0  0  0  0  0  0  0  0  0  0
    6.6955   -1.6420   21.6495 N   0  0  0  0  0  0  0  0  0  0  0  0
    7.3544   -0.7050   20.9147 N   0  0  0  0  0  0  0  0  0  0  0  0
    6.6547   -0.0303   19.8691 C   0  0  0  0  0  0  0  0  0  0  0  0
    5.4364    0.6009   20.1378 C   0  0  0  0  0  0  0  0  0  0  0  0
    4.8146    1.3021   19.0990 C   0  0  0  0  0  0  0  0  0  0  0  0
    5.4077    1.3195   17.8319 C   0  0  0  0  0  0  0  0  0  0  0  0
    6.5486    0.6679   17.5530 N   0  0  0  0  0  0  0  0  0  0  0  0
    7.1462    0.0068   18.5546 C   0  0  0  0  0  0  0  0  0  0  0  0
    8.0570   -0.5315   18.3007 H   0  0  0  0  0  0  0  0  0  0  0  0
    4.9448    1.8588   17.0071 H   0  0  0  0  0  0  0  0  0  0  0  0
    3.8815    1.8339   19.2573 H   0  0  0  0  0  0  0  0  0  0  0  0
    4.9942    0.5376   21.1341 H   0  0  0  0  0  0  0  0  0  0  0  0
   10.5806   -0.0500   20.9120 H   0  0  0  0  0  0  0  0  0  0  0  0
    9.3930    0.9157   20.0570 H   0  0  0  0  0  0  0  0  0  0  0  0
   10.9997    2.8126   24.7285 H   0  0  0  0  0  0  0  0  0  0  0  0
    6.8771    2.5505   22.3382 H   0  0  0  0  0  0  0  0  0  0  0  0
    7.6515    2.5955   20.7903 H   0  0  0  0  0  0  0  0  0  0  0  0
    7.2634    4.9827   22.7339 H   0  0  0  0  0  0  0  0  0  0  0  0
    6.4232    4.7079   21.1891 H   0  0  0  0  0  0  0  0  0  0  0  0
    8.1437    5.1360   21.2026 H   0  0  0  0  0  0  0  0  0  0  0  0
  1  2  1  0
  2  3  1  0
  3  4  2  0
  4  5  1  0
  5  6  1  0
  6  7  1  0
  7  8  1  0
  8  9  1  0
  8 10  1  0
  8 11  1  0
  7 12  1  0
  7 13  1  0
  6 14  2  0
 14 15  1  0
 15 16  1  0
 16 17  2  0
 17 18  1  0
 18 19  1  0
 19 20  1  0
 20 21  1  0
 21 22  2  0
 22 23  1  0
 23 24  1  0
 24 25  1  0
 24 26  1  0
 23 27  1  0
 23 28  1  0
 22 29  1  0
 21 30  1  0
 20 31  1  0
 20 32  1  0
 19 33  1  0
 18 34  2  0
 34 35  1  0
 35 36  1  0
 36 37  2  0
 37 38  1  0
 38 39  2  0
 39 40  1  0
 40 41  2  0
 41 42  1  0
 39 43  1  0
 38 44  1  0
 37 45  1  0
 15 46  1  0
 15 47  1  0
  5 48  1  0
  2 49  1  0
  2 50  1  0
  1 51  1  0
  1 52  1  0
  1 53  1  0
 14  3  1  0
 35 16  1  0
 41 36  1  0
 24 19  1  0
M  END
>  <cnnaffinity>  (1) 
-6.62811

>  <filename>  (1) 
CCc1n[nH]c(CC)c1Cc1nc(C2CC=CCC2)nn1-c1cccnc1

$$$$
