
     RDKit          3D

 43 47  0  0  0  0  0  0  0  0999 V2000
   12.7422    1.8003   23.8100 C   0  0  0  0  0  0  0  0  0  0  0  0
   11.6472    2.8795   23.9071 C   0  0  0  0  0  0  0  0  0  0  0  0
   10.2745    2.3447   24.1986 C   0  0  0  0  0  0  0  0  0  0  0  0
    9.3846    2.1389   23.2763 N   0  0  0  0  0  0  0  0  0  0  0  0
    8.2310    1.5990   23.7939 C   0  0  0  0  0  0  0  0  0  0  0  0
    7.1840    1.1903   22.8118 C   0  0  0  0  0  0  0  0  0  0  0  0
    7.5063   -0.1578   22.2586 C   0  0  0  0  0  0  0  0  0  0  0  0
    8.1174   -1.1112   22.9345 N   0  0  0  0  0  0  0  0  0  0  0  0
    8.1748   -2.1272   22.0453 C   0  0  0  0  0  0  0  0  0  0  0  0
    8.9307   -3.3866   22.2596 C   0  0  0  0  0  0  0  0  0  0  0  0
    8.2667   -4.7141   22.0181 C   0  0  0  0  0  0  0  0  0  0  0  0
    8.9720   -4.4814   23.3614 C   0  0  0  0  0  0  0  0  0  0  0  0
    8.9360   -5.4890   24.4985 C   0  0  0  0  0  0  0  0  0  0  0  0
    9.9758   -4.3936   24.4773 C   0  0  0  0  0  0  0  0  0  0  0  0
   11.0097   -4.6799   24.2724 H   0  0  0  0  0  0  0  0  0  0  0  0
    9.8671   -3.5035   25.1036 H   0  0  0  0  0  0  0  0  0  0  0  0
    9.3116   -6.4764   24.2118 H   0  0  0  0  0  0  0  0  0  0  0  0
    8.0839   -5.5036   25.1758 H   0  0  0  0  0  0  0  0  0  0  0  0
    7.1831   -4.7108   22.1442 H   0  0  0  0  0  0  0  0  0  0  0  0
    8.6076   -5.4723   21.3139 H   0  0  0  0  0  0  0  0  0  0  0  0
    9.9539   -3.1811   21.9410 H   0  0  0  0  0  0  0  0  0  0  0  0
    7.6543   -1.8680   20.8546 N   0  0  0  0  0  0  0  0  0  0  0  0
    7.1781   -0.6063   21.0089 N   0  0  0  0  0  0  0  0  0  0  0  0
    6.5370    0.0630   19.9321 C   0  0  0  0  0  0  0  0  0  0  0  0
    5.3429    0.7711   20.1028 C   0  0  0  0  0  0  0  0  0  0  0  0
    4.7769    1.3948   18.9864 C   0  0  0  0  0  0  0  0  0  0  0  0
    5.4326    1.3043   17.7552 C   0  0  0  0  0  0  0  0  0  0  0  0
    6.5720    0.6086   17.5837 N   0  0  0  0  0  0  0  0  0  0  0  0
    7.0984   -0.0065   18.6465 C   0  0  0  0  0  0  0  0  0  0  0  0
    8.0064   -0.5850   18.4896 H   0  0  0  0  0  0  0  0  0  0  0  0
    5.0283    1.7998   16.8734 H   0  0  0  0  0  0  0  0  0  0  0  0
    3.8507    1.9532   19.0702 H   0  0  0  0  0  0  0  0  0  0  0  0
    4.8655    0.8063   21.0807 H   0  0  0  0  0  0  0  0  0  0  0  0
    7.1534    1.9412   22.0176 H   0  0  0  0  0  0  0  0  0  0  0  0
    6.1981    1.1508   23.2864 H   0  0  0  0  0  0  0  0  0  0  0  0
    8.2302    1.3993   25.1344 C   0  0  0  0  0  0  0  0  0  0  0  0
    9.7475    1.8817   25.7931 S   0  0  0  0  0  0  0  0  0  0  0  0
    7.4535    0.9789   25.7589 H   0  0  0  0  0  0  0  0  0  0  0  0
   11.5697    3.4000   22.9468 H   0  0  0  0  0  0  0  0  0  0  0  0
   11.9120    3.6312   24.6573 H   0  0  0  0  0  0  0  0  0  0  0  0
   13.7152    2.2770   23.6539 H   0  0  0  0  0  0  0  0  0  0  0  0
   12.5594    1.1286   22.9634 H   0  0  0  0  0  0  0  0  0  0  0  0
   12.8084    1.1888   24.7161 H   0  0  0  0  0  0  0  0  0  0  0  0
  1  2  1  0
  2  3  1  0
  3  4  2  0
  4  5  1  0
  5  6  1  0
  6  7  1  0
  7  8  2  0
  8  9  1  0
  9 10  1  0
 10 11  1  0
 11 12  1  0
 12 13  1  0
 13 14  1  0
 14 15  1  0
 14 16  1  0
 13 17  1  0
 13 18  1  0
 11 19  1  0
 11 20  1  0
 10 21  1  0
  9 22  2  0
 22 23  1  0
 23 24  1  0
 24 25  2  0
 25 26  1  0
 26 27  2  0
 27 28  1  0
 28 29  2  0
 29 30  1  0
 27 31  1  0
 26 32  1  0
 25 33  1  0
  6 34  1  0
  6 35  1  0
  5 36  2  0
 36 37  1  0
 36 38  1  0
  2 39  1  0
  2 40  1  0
  1 41  1  0
  1 42  1  0
  1 43  1  0
 37  3  1  0
 23  7  1  0
 29 24  1  0
 12 10  1  0
 14 12  1  0
M  END
>  <cnnaffinity>  (1) 
-6.5075

>  <filename>  (1) 
CCc1nc(Cc2nc(C3CC34CC4)nn2-c2cccnc2)cs1

$$$$
