
     RDKit          3D

 36 38  0  0  0  0  0  0  0  0999 V2000
    8.0199   -4.5975   22.6293 C   0  0  0  0  0  0  0  0  0  0  0  0
    8.8575   -3.4316   22.0938 C   0  0  0  0  0  0  0  0  0  0  0  0
    8.1739   -2.1259   21.9472 C   0  0  0  0  0  0  0  0  0  0  0  0
    7.9007   -1.6758   20.7419 N   0  0  0  0  0  0  0  0  0  0  0  0
    7.3017   -0.4897   20.9821 N   0  0  0  0  0  0  0  0  0  0  0  0
    6.5950    0.1234   19.9231 C   0  0  0  0  0  0  0  0  0  0  0  0
    5.3838    0.7889   20.1295 C   0  0  0  0  0  0  0  0  0  0  0  0
    4.7853    1.3739   19.0111 C   0  0  0  0  0  0  0  0  0  0  0  0
    5.4121    1.2898   17.7623 C   0  0  0  0  0  0  0  0  0  0  0  0
    6.5506    0.6028   17.5581 N   0  0  0  0  0  0  0  0  0  0  0  0
    7.1093    0.0111   18.6165 C   0  0  0  0  0  0  0  0  0  0  0  0
    8.0106   -0.5749   18.4447 H   0  0  0  0  0  0  0  0  0  0  0  0
    4.9937    1.7901   16.8915 H   0  0  0  0  0  0  0  0  0  0  0  0
    3.8362    1.8876   19.0942 H   0  0  0  0  0  0  0  0  0  0  0  0
    4.9345    0.8182   21.1262 H   0  0  0  0  0  0  0  0  0  0  0  0
    7.3408   -0.2481   22.3326 C   0  0  0  0  0  0  0  0  0  0  0  0
    6.9891    1.0411   22.9546 C   0  0  0  0  0  0  0  0  0  0  0  0
    6.1578    1.0158   24.0809 C   0  0  0  0  0  0  0  0  0  0  0  0
    5.6762    2.2055   24.6205 C   0  0  0  0  0  0  0  0  0  0  0  0
    6.0504    3.4299   24.0652 C   0  0  0  0  0  0  0  0  0  0  0  0
    6.9469    3.4478   22.9916 C   0  0  0  0  0  0  0  0  0  0  0  0
    7.4101    5.0135   22.3641 Cl  0  0  0  0  0  0  0  0  0  0  0  0
    7.4810    2.2729   22.4319 C   0  0  0  0  0  0  0  0  0  0  0  0
    8.5496    2.2778   21.3561 C   0  0  0  0  0  0  0  0  0  0  0  0
    8.1093    2.1332   20.3677 H   0  0  0  0  0  0  0  0  0  0  0  0
    9.2246    1.4299   21.5085 H   0  0  0  0  0  0  0  0  0  0  0  0
    9.1253    3.2039   21.3405 H   0  0  0  0  0  0  0  0  0  0  0  0
    5.6625    4.3670   24.4589 H   0  0  0  0  0  0  0  0  0  0  0  0
    4.9843    2.1831   25.4566 H   0  0  0  0  0  0  0  0  0  0  0  0
    5.8836    0.0579   24.5180 H   0  0  0  0  0  0  0  0  0  0  0  0
    7.8389   -1.2971   22.9637 N   0  0  0  0  0  0  0  0  0  0  0  0
    9.1769   -3.6467   21.0736 H   0  0  0  0  0  0  0  0  0  0  0  0
    9.7363   -3.2724   22.7266 H   0  0  0  0  0  0  0  0  0  0  0  0
    8.6692   -5.4731   22.7450 H   0  0  0  0  0  0  0  0  0  0  0  0
    7.2228   -4.8555   21.9230 H   0  0  0  0  0  0  0  0  0  0  0  0
    7.5708   -4.3656   23.6037 H   0  0  0  0  0  0  0  0  0  0  0  0
  1  2  1  0
  2  3  1  0
  3  4  2  0
  4  5  1  0
  5  6  1  0
  6  7  2  0
  7  8  1  0
  8  9  2  0
  9 10  1  0
 10 11  2  0
 11 12  1  0
  9 13  1  0
  8 14  1  0
  7 15  1  0
  5 16  1  0
 16 17  1  0
 17 18  2  0
 18 19  1  0
 19 20  2  0
 20 21  1  0
 21 22  1  0
 21 23  2  0
 23 24  1  0
 24 25  1  0
 24 26  1  0
 24 27  1  0
 20 28  1  0
 19 29  1  0
 18 30  1  0
 16 31  2  0
  2 32  1  0
  2 33  1  0
  1 34  1  0
  1 35  1  0
  1 36  1  0
 31  3  1  0
 11  6  1  0
 23 17  1  0
M  END
>  <cnnaffinity>  (1) 
-5.59164

>  <filename>  (1) 
CCc1nc(-c2cccc(Cl)c2C)n(-c2cccnc2)n1

$$$$
