
     RDKit          3D

 49 52  0  0  0  0  0  0  0  0999 V2000
    8.9150   -1.3402   26.7478 C   0  0  0  0  0  0  0  0  0  0  0  0
    8.0042   -0.1925   27.2135 C   0  0  0  0  0  0  0  0  0  0  0  0
    7.0478    0.2733   26.1644 C   0  0  0  0  0  0  0  0  0  0  0  0
    5.7299    0.0135   25.8835 C   0  0  0  0  0  0  0  0  0  0  0  0
    5.3707    0.5586   24.6717 N   0  0  0  0  0  0  0  0  0  0  0  0
    6.4414    1.1530   24.2285 C   0  0  0  0  0  0  0  0  0  0  0  0
    6.6388    1.7409   22.8703 C   0  0  0  0  0  0  0  0  0  0  0  0
    7.6749    0.9026   22.2126 C   0  0  0  0  0  0  0  0  0  0  0  0
    8.9557    1.0360   22.4786 N   0  0  0  0  0  0  0  0  0  0  0  0
    9.4950   -0.1184   21.9946 C   0  0  0  0  0  0  0  0  0  0  0  0
   10.9400   -0.3767   22.0423 C   0  0  0  0  0  0  0  0  0  0  0  0
   11.7945    0.5619   22.6349 C   0  0  0  0  0  0  0  0  0  0  0  0
   13.1777    0.3894   22.6078 C   0  0  0  0  0  0  0  0  0  0  0  0
   14.0602    1.4888   23.1227 C   0  0  0  0  0  0  0  0  0  0  0  0
   15.1082    1.3207   22.8755 H   0  0  0  0  0  0  0  0  0  0  0  0
   13.7722    2.4562   22.6977 H   0  0  0  0  0  0  0  0  0  0  0  0
   13.9603    1.5864   24.2043 H   0  0  0  0  0  0  0  0  0  0  0  0
   13.6989   -0.7789   22.0444 C   0  0  0  0  0  0  0  0  0  0  0  0
   12.8566   -1.7091   21.4315 C   0  0  0  0  0  0  0  0  0  0  0  0
   11.4818   -1.5207   21.4337 C   0  0  0  0  0  0  0  0  0  0  0  0
   10.8125   -2.2353   20.9634 H   0  0  0  0  0  0  0  0  0  0  0  0
   13.2983   -2.5285   20.8827 H   0  0  0  0  0  0  0  0  0  0  0  0
   14.7645   -0.9674   22.0810 H   0  0  0  0  0  0  0  0  0  0  0  0
   11.3816    1.4643   23.0816 H   0  0  0  0  0  0  0  0  0  0  0  0
    8.6128   -0.9438   21.4612 N   0  0  0  0  0  0  0  0  0  0  0  0
    7.4419   -0.2806   21.6036 N   0  0  0  0  0  0  0  0  0  0  0  0
    6.2430   -0.7961   20.9498 C   0  0  0  0  0  0  0  0  0  0  0  0
    5.8543    0.0016   19.7244 C   0  0  0  0  0  0  0  0  0  0  0  0
    4.6967    0.7823   19.6585 C   0  0  0  0  0  0  0  0  0  0  0  0
    4.4708    1.5632   18.5228 C   0  0  0  0  0  0  0  0  0  0  0  0
    5.4029    1.5185   17.4841 C   0  0  0  0  0  0  0  0  0  0  0  0
    6.5045    0.7538   17.5136 N   0  0  0  0  0  0  0  0  0  0  0  0
    6.7162    0.0265   18.6159 C   0  0  0  0  0  0  0  0  0  0  0  0
    7.6251   -0.5745   18.6156 H   0  0  0  0  0  0  0  0  0  0  0  0
    5.2582    2.1220   16.5897 H   0  0  0  0  0  0  0  0  0  0  0  0
    3.6069    2.2133   18.4432 H   0  0  0  0  0  0  0  0  0  0  0  0
    3.9751    0.7754   20.4772 H   0  0  0  0  0  0  0  0  0  0  0  0
    5.4281   -0.8141   21.6717 H   0  0  0  0  0  0  0  0  0  0  0  0
    6.4783   -1.8344   20.6958 H   0  0  0  0  0  0  0  0  0  0  0  0
    7.0287    2.7538   22.9601 H   0  0  0  0  0  0  0  0  0  0  0  0
    5.6963    1.7475   22.3221 H   0  0  0  0  0  0  0  0  0  0  0  0
    7.4775    1.0453   25.1029 N   0  0  0  0  0  0  0  0  0  0  0  0
    8.4368    1.2276   24.8393 H   0  0  0  0  0  0  0  0  0  0  0  0
    5.0140   -0.5465   26.4744 H   0  0  0  0  0  0  0  0  0  0  0  0
    7.4285   -0.5004   28.0910 H   0  0  0  0  0  0  0  0  0  0  0  0
    8.6182    0.6588   27.5336 H   0  0  0  0  0  0  0  0  0  0  0  0
    8.3299   -2.2197   26.4623 H   0  0  0  0  0  0  0  0  0  0  0  0
    9.5143   -1.0449   25.8774 H   0  0  0  0  0  0  0  0  0  0  0  0
    9.6076   -1.6384   27.5414 H   0  0  0  0  0  0  0  0  0  0  0  0
  1  2  1  0
  2  3  1  0
  3  4  2  0
  4  5  1  0
  5  6  2  0
  6  7  1  0
  7  8  1  0
  8  9  2  0
  9 10  1  0
 10 11  1  0
 11 12  2  0
 12 13  1  0
 13 14  1  0
 14 15  1  0
 14 16  1  0
 14 17  1  0
 13 18  2  0
 18 19  1  0
 19 20  2  0
 20 21  1  0
 19 22  1  0
 18 23  1  0
 12 24  1  0
 10 25  2  0
 25 26  1  0
 26 27  1  0
 27 28  1  0
 28 29  2  0
 29 30  1  0
 30 31  2  0
 31 32  1  0
 32 33  2  0
 33 34  1  0
 31 35  1  0
 30 36  1  0
 29 37  1  0
 27 38  1  0
 27 39  1  0
  7 40  1  0
  7 41  1  0
  6 42  1  0
 42 43  1  0
  4 44  1  0
  2 45  1  0
  2 46  1  0
  1 47  1  0
  1 48  1  0
  1 49  1  0
 42  3  1  0
 26  8  1  0
 33 28  1  0
 20 11  1  0
M  END
>  <cnnaffinity>  (1) 
-6.64718

>  <filename>  (1) 
CCc1cnc(Cc2nc(-c3cccc(C)c3)nn2Cc2cccnc2)[nH]1

$$$$
