
     RDKit          3D

 48 51  0  0  0  0  0  0  0  0999 V2000
    5.4422   -2.3508   25.7689 C   0  0  0  0  0  0  0  0  0  0  0  0
    4.9888   -1.0426   26.4319 C   0  0  0  0  0  0  0  0  0  0  0  0
    5.7783    0.1459   25.9913 C   0  0  0  0  0  0  0  0  0  0  0  0
    6.5861    1.0542   26.6289 C   0  0  0  0  0  0  0  0  0  0  0  0
    7.1507    1.9203   25.7215 N   0  0  0  0  0  0  0  0  0  0  0  0
    6.7061    1.5531   24.5533 C   0  0  0  0  0  0  0  0  0  0  0  0
    7.2302    2.0206   23.2390 C   0  0  0  0  0  0  0  0  0  0  0  0
    8.1968    1.0083   22.7428 C   0  0  0  0  0  0  0  0  0  0  0  0
    9.5010    1.0381   22.9122 N   0  0  0  0  0  0  0  0  0  0  0  0
    9.9109   -0.1357   22.3578 C   0  0  0  0  0  0  0  0  0  0  0  0
   11.2940   -0.5789   22.1074 C   0  0  0  0  0  0  0  0  0  0  0  0
   11.4440   -1.6948   21.2648 C   0  0  0  0  0  0  0  0  0  0  0  0
   12.6707   -1.9696   20.6910 C   0  0  0  0  0  0  0  0  0  0  0  0
   13.7916   -1.2423   21.0320 C   0  0  0  0  0  0  0  0  0  0  0  0
   14.9139   -1.4858   20.2150 N   0  0  0  0  0  0  0  0  0  0  0  0
   15.7602   -1.4480   20.7566 H   0  0  0  0  0  0  0  0  0  0  0  0
   14.9880   -0.7912   19.4835 H   0  0  0  0  0  0  0  0  0  0  0  0
   13.7044   -0.2366   22.0049 C   0  0  0  0  0  0  0  0  0  0  0  0
   12.4462    0.1187   22.5098 C   0  0  0  0  0  0  0  0  0  0  0  0
   12.3578    0.9710   23.1765 H   0  0  0  0  0  0  0  0  0  0  0  0
   14.5861    0.3508   22.2451 H   0  0  0  0  0  0  0  0  0  0  0  0
   12.8111   -2.6854   19.8868 H   0  0  0  0  0  0  0  0  0  0  0  0
   10.5723   -2.2903   21.0128 H   0  0  0  0  0  0  0  0  0  0  0  0
    8.9109   -0.8674   21.8764 N   0  0  0  0  0  0  0  0  0  0  0  0
    7.8122   -0.1359   22.1304 N   0  0  0  0  0  0  0  0  0  0  0  0
    6.5571   -0.5376   21.4942 C   0  0  0  0  0  0  0  0  0  0  0  0
    6.2588    0.1833   20.1951 C   0  0  0  0  0  0  0  0  0  0  0  0
    5.0704    0.8911   19.9863 C   0  0  0  0  0  0  0  0  0  0  0  0
    4.8738    1.5328   18.7599 C   0  0  0  0  0  0  0  0  0  0  0  0
    5.8676    1.4304   17.7835 C   0  0  0  0  0  0  0  0  0  0  0  0
    7.0057    0.7405   17.9544 N   0  0  0  0  0  0  0  0  0  0  0  0
    7.1887    0.1461   19.1398 C   0  0  0  0  0  0  0  0  0  0  0  0
    8.1161   -0.4134   19.2630 H   0  0  0  0  0  0  0  0  0  0  0  0
    5.7568    1.9443   16.8298 H   0  0  0  0  0  0  0  0  0  0  0  0
    3.9848    2.1221   18.5606 H   0  0  0  0  0  0  0  0  0  0  0  0
    4.3060    0.9447   20.7659 H   0  0  0  0  0  0  0  0  0  0  0  0
    6.6586   -1.6189   21.3514 H   0  0  0  0  0  0  0  0  0  0  0  0
    5.7465   -0.3727   22.1994 H   0  0  0  0  0  0  0  0  0  0  0  0
    7.7527    2.9653   23.3823 H   0  0  0  0  0  0  0  0  0  0  0  0
    6.4321    2.1347   22.5040 H   0  0  0  0  0  0  0  0  0  0  0  0
    5.8620    0.4967   24.6576 N   0  0  0  0  0  0  0  0  0  0  0  0
    5.3093    0.1099   23.9117 H   0  0  0  0  0  0  0  0  0  0  0  0
    6.8120    1.1212   27.6870 H   0  0  0  0  0  0  0  0  0  0  0  0
    5.0705   -1.1257   27.5213 H   0  0  0  0  0  0  0  0  0  0  0  0
    3.9247   -0.8651   26.2133 H   0  0  0  0  0  0  0  0  0  0  0  0
    4.7646   -3.1713   26.0251 H   0  0  0  0  0  0  0  0  0  0  0  0
    6.4551   -2.6244   26.0824 H   0  0  0  0  0  0  0  0  0  0  0  0
    5.4553   -2.2644   24.6761 H   0  0  0  0  0  0  0  0  0  0  0  0
  1  2  1  0
  2  3  1  0
  3  4  2  0
  4  5  1  0
  5  6  2  0
  6  7  1  0
  7  8  1  0
  8  9  2  0
  9 10  1  0
 10 11  1  0
 11 12  2  0
 12 13  1  0
 13 14  2  0
 14 15  1  0
 15 16  1  0
 15 17  1  0
 14 18  1  0
 18 19  2  0
 19 20  1  0
 18 21  1  0
 13 22  1  0
 12 23  1  0
 10 24  2  0
 24 25  1  0
 25 26  1  0
 26 27  1  0
 27 28  2  0
 28 29  1  0
 29 30  2  0
 30 31  1  0
 31 32  2  0
 32 33  1  0
 30 34  1  0
 29 35  1  0
 28 36  1  0
 26 37  1  0
 26 38  1  0
  7 39  1  0
  7 40  1  0
  6 41  1  0
 41 42  1  0
  4 43  1  0
  2 44  1  0
  2 45  1  0
  1 46  1  0
  1 47  1  0
  1 48  1  0
 41  3  1  0
 25  8  1  0
 32 27  1  0
 19 11  1  0
M  END
>  <cnnaffinity>  (1) 
-6.62338

>  <filename>  (1) 
CCc1cnc(Cc2nc(-c3ccc(N)cc3)nn2Cc2cccnc2)[nH]1

$$$$
