
     RDKit          3D

 45 48  0  0  0  0  0  0  0  0999 V2000
   11.8510    2.0020   23.7617 C   0  0  0  0  0  0  0  0  0  0  0  0
   10.4257    1.5046   24.0252 C   0  0  0  0  0  0  0  0  0  0  0  0
    9.4143    2.3183   23.2333 C   0  0  0  0  0  0  0  0  0  0  0  0
    8.9627    3.5470   23.7546 C   0  0  0  0  0  0  0  0  0  0  0  0
    8.0192    4.3319   23.0801 C   0  0  0  0  0  0  0  0  0  0  0  0
    7.4893    3.8827   21.8686 C   0  0  0  0  0  0  0  0  0  0  0  0
    7.9690    2.6870   21.3251 C   0  0  0  0  0  0  0  0  0  0  0  0
    8.9746    1.9429   21.9482 C   0  0  0  0  0  0  0  0  0  0  0  0
    9.4863    0.7069   21.2160 C   0  0  0  0  0  0  0  0  0  0  0  0
    8.6186   -0.4807   21.4871 C   0  0  0  0  0  0  0  0  0  0  0  0
    8.8325   -1.3826   22.4143 N   0  0  0  0  0  0  0  0  0  0  0  0
    7.6601   -2.0972   22.4622 C   0  0  0  0  0  0  0  0  0  0  0  0
    7.4573   -3.2086   23.4671 C   0  0  0  0  0  0  0  0  0  0  0  0
    8.4917   -3.5001   24.3847 C   0  0  0  0  0  0  0  0  0  0  0  0
    8.3136   -4.5147   25.3229 C   0  0  0  0  0  0  0  0  0  0  0  0
    7.1024   -5.2086   25.3243 C   0  0  0  0  0  0  0  0  0  0  0  0
    6.1282   -4.8558   24.3854 C   0  0  0  0  0  0  0  0  0  0  0  0
    6.2905   -3.8945   23.4733 N   0  0  0  0  0  0  0  0  0  0  0  0
    5.1681   -5.3668   24.3589 H   0  0  0  0  0  0  0  0  0  0  0  0
    6.9079   -6.0046   26.0319 H   0  0  0  0  0  0  0  0  0  0  0  0
    9.1007   -4.7570   26.0377 H   0  0  0  0  0  0  0  0  0  0  0  0
    9.4091   -2.9221   24.3477 H   0  0  0  0  0  0  0  0  0  0  0  0
    6.7567   -1.6853   21.5881 N   0  0  0  0  0  0  0  0  0  0  0  0
    7.3803   -0.6744   20.9406 N   0  0  0  0  0  0  0  0  0  0  0  0
    6.6860   -0.0138   19.8816 C   0  0  0  0  0  0  0  0  0  0  0  0
    5.4559    0.5982   20.1417 C   0  0  0  0  0  0  0  0  0  0  0  0
    4.8315    1.2808   19.0958 C   0  0  0  0  0  0  0  0  0  0  0  0
    5.4252    1.2877   17.8277 C   0  0  0  0  0  0  0  0  0  0  0  0
    6.5748    0.6490   17.5584 N   0  0  0  0  0  0  0  0  0  0  0  0
    7.1824    0.0121   18.5680 C   0  0  0  0  0  0  0  0  0  0  0  0
    8.1033   -0.5118   18.3185 H   0  0  0  0  0  0  0  0  0  0  0  0
    4.9537    1.8083   16.9959 H   0  0  0  0  0  0  0  0  0  0  0  0
    3.8967    1.8047   19.2526 H   0  0  0  0  0  0  0  0  0  0  0  0
    5.0236    0.5418   21.1428 H   0  0  0  0  0  0  0  0  0  0  0  0
    9.5059    0.8838   20.1364 H   0  0  0  0  0  0  0  0  0  0  0  0
   10.5077    0.4597   21.5234 H   0  0  0  0  0  0  0  0  0  0  0  0
    7.5733    2.3031   20.3912 H   0  0  0  0  0  0  0  0  0  0  0  0
    6.7174    4.4544   21.3502 H   0  0  0  0  0  0  0  0  0  0  0  0
    7.6882    5.2775   23.5027 H   0  0  0  0  0  0  0  0  0  0  0  0
    9.3528    3.8856   24.7118 H   0  0  0  0  0  0  0  0  0  0  0  0
   10.3364    0.4322   23.7965 H   0  0  0  0  0  0  0  0  0  0  0  0
   10.2033    1.5917   25.0967 H   0  0  0  0  0  0  0  0  0  0  0  0
   11.9377    3.0717   23.9913 H   0  0  0  0  0  0  0  0  0  0  0  0
   12.1043    1.8738   22.7024 H   0  0  0  0  0  0  0  0  0  0  0  0
   12.5923    1.4685   24.3635 H   0  0  0  0  0  0  0  0  0  0  0  0
  1  2  1  0
  2  3  1  0
  3  4  2  0
  4  5  1  0
  5  6  2  0
  6  7  1  0
  7  8  2  0
  8  9  1  0
  9 10  1  0
 10 11  2  0
 11 12  1  0
 12 13  1  0
 13 14  2  0
 14 15  1  0
 15 16  2  0
 16 17  1  0
 17 18  2  0
 17 19  1  0
 16 20  1  0
 15 21  1  0
 14 22  1  0
 12 23  2  0
 23 24  1  0
 24 25  1  0
 25 26  2  0
 26 27  1  0
 27 28  2  0
 28 29  1  0
 29 30  2  0
 30 31  1  0
 28 32  1  0
 27 33  1  0
 26 34  1  0
  9 35  1  0
  9 36  1  0
  7 37  1  0
  6 38  1  0
  5 39  1  0
  4 40  1  0
  2 41  1  0
  2 42  1  0
  1 43  1  0
  1 44  1  0
  1 45  1  0
  8  3  1  0
 24 10  1  0
 30 25  1  0
 18 13  1  0
M  END
>  <cnnaffinity>  (1) 
-6.70531

>  <filename>  (1) 
CCc1ccccc1Cc1nc(-c2ccccn2)nn1-c1cccnc1

$$$$
