
     RDKit          3D

 55 58  0  0  0  0  0  0  0  0999 V2000
    6.8694    3.3601   22.1488 C   0  0  0  0  0  0  0  0  0  0  0  0
    7.4585    2.4049   23.1949 C   0  0  0  0  0  0  0  0  0  0  0  0
    8.9388    2.1811   23.0582 C   0  0  0  0  0  0  0  0  0  0  0  0
    9.8268    2.7817   23.8401 N   0  0  0  0  0  0  0  0  0  0  0  0
   11.0178    2.2986   23.4422 N   0  0  0  0  0  0  0  0  0  0  0  0
   12.2271    2.7654   24.0712 C   0  0  0  0  0  0  0  0  0  0  0  0
   12.5045    2.1324   24.9202 H   0  0  0  0  0  0  0  0  0  0  0  0
   12.0562    3.7796   24.4224 H   0  0  0  0  0  0  0  0  0  0  0  0
   13.0492    2.7844   23.3512 H   0  0  0  0  0  0  0  0  0  0  0  0
   10.9130    1.3874   22.4420 C   0  0  0  0  0  0  0  0  0  0  0  0
   12.0924    0.5927   21.9656 C   0  0  0  0  0  0  0  0  0  0  0  0
   12.6277   -0.3822   23.0116 C   0  0  0  0  0  0  0  0  0  0  0  0
   13.1227    0.1153   23.8498 H   0  0  0  0  0  0  0  0  0  0  0  0
   11.7656   -0.9392   23.3897 H   0  0  0  0  0  0  0  0  0  0  0  0
   13.3605   -1.0724   22.5785 H   0  0  0  0  0  0  0  0  0  0  0  0
   11.7696    0.0022   21.1021 H   0  0  0  0  0  0  0  0  0  0  0  0
   12.8852    1.2710   21.6262 H   0  0  0  0  0  0  0  0  0  0  0  0
    9.5744    1.3352   22.1163 C   0  0  0  0  0  0  0  0  0  0  0  0
    8.8955    0.5563   21.0182 C   0  0  0  0  0  0  0  0  0  0  0  0
    8.0461   -0.5929   21.4846 C   0  0  0  0  0  0  0  0  0  0  0  0
    8.3147   -1.4276   22.4647 N   0  0  0  0  0  0  0  0  0  0  0  0
    7.2202   -2.2363   22.5031 C   0  0  0  0  0  0  0  0  0  0  0  0
    7.1021   -3.2617   23.5936 C   0  0  0  0  0  0  0  0  0  0  0  0
    8.4361   -3.9377   23.9839 C   0  0  0  0  0  0  0  0  0  0  0  0
    8.0177   -5.1672   24.8087 C   0  0  0  0  0  0  0  0  0  0  0  0
    6.5667   -5.4969   24.3668 C   0  0  0  0  0  0  0  0  0  0  0  0
    6.1798   -4.4514   23.3091 C   0  0  0  0  0  0  0  0  0  0  0  0
    5.1174   -4.1887   23.3297 H   0  0  0  0  0  0  0  0  0  0  0  0
    6.3942   -4.8405   22.3051 H   0  0  0  0  0  0  0  0  0  0  0  0
    5.8950   -5.4682   25.2323 H   0  0  0  0  0  0  0  0  0  0  0  0
    6.4583   -6.4826   23.9192 H   0  0  0  0  0  0  0  0  0  0  0  0
    8.0441   -4.9333   25.8802 H   0  0  0  0  0  0  0  0  0  0  0  0
    8.7080   -6.0061   24.6641 H   0  0  0  0  0  0  0  0  0  0  0  0
    8.9673   -4.2494   23.0753 H   0  0  0  0  0  0  0  0  0  0  0  0
    9.1043   -3.2552   24.5215 H   0  0  0  0  0  0  0  0  0  0  0  0
    6.7275   -2.7160   24.4759 H   0  0  0  0  0  0  0  0  0  0  0  0
    6.3066   -1.9744   21.5779 N   0  0  0  0  0  0  0  0  0  0  0  0
    6.8591   -0.9363   20.8992 N   0  0  0  0  0  0  0  0  0  0  0  0
    6.2018   -0.2863   19.8089 C   0  0  0  0  0  0  0  0  0  0  0  0
    5.0878    0.5343   20.0274 C   0  0  0  0  0  0  0  0  0  0  0  0
    4.6644    1.3590   18.9763 C   0  0  0  0  0  0  0  0  0  0  0  0
    5.3386    1.3017   17.7516 C   0  0  0  0  0  0  0  0  0  0  0  0
    6.3518    0.4545   17.5088 N   0  0  0  0  0  0  0  0  0  0  0  0
    6.7600   -0.3266   18.5169 C   0  0  0  0  0  0  0  0  0  0  0  0
    7.5889   -1.0031   18.3088 H   0  0  0  0  0  0  0  0  0  0  0  0
    5.0523    1.9559   16.9303 H   0  0  0  0  0  0  0  0  0  0  0  0
    3.8419    2.0571   19.1018 H   0  0  0  0  0  0  0  0  0  0  0  0
    4.5944    0.5420   21.0003 H   0  0  0  0  0  0  0  0  0  0  0  0
    8.2598    1.2461   20.4535 H   0  0  0  0  0  0  0  0  0  0  0  0
    9.6211    0.1560   20.3009 H   0  0  0  0  0  0  0  0  0  0  0  0
    6.9715    1.4218   23.1389 H   0  0  0  0  0  0  0  0  0  0  0  0
    7.2566    2.7900   24.1966 H   0  0  0  0  0  0  0  0  0  0  0  0
    5.7845    3.4632   22.2539 H   0  0  0  0  0  0  0  0  0  0  0  0
    7.0801    3.0028   21.1374 H   0  0  0  0  0  0  0  0  0  0  0  0
    7.3056    4.3591   22.2559 H   0  0  0  0  0  0  0  0  0  0  0  0
  1  2  1  0
  2  3  1  0
  3  4  2  0
  4  5  1  0
  5  6  1  0
  6  7  1  0
  6  8  1  0
  6  9  1  0
  5 10  1  0
 10 11  1  0
 11 12  1  0
 12 13  1  0
 12 14  1  0
 12 15  1  0
 11 16  1  0
 11 17  1  0
 10 18  2  0
 18 19  1  0
 19 20  1  0
 20 21  2  0
 21 22  1  0
 22 23  1  0
 23 24  1  0
 24 25  1  0
 25 26  1  0
 26 27  1  0
 27 28  1  0
 27 29  1  0
 26 30  1  0
 26 31  1  0
 25 32  1  0
 25 33  1  0
 24 34  1  0
 24 35  1  0
 23 36  1  0
 22 37  2  0
 37 38  1  0
 38 39  1  0
 39 40  2  0
 40 41  1  0
 41 42  2  0
 42 43  1  0
 43 44  2  0
 44 45  1  0
 42 46  1  0
 41 47  1  0
 40 48  1  0
 19 49  1  0
 19 50  1  0
  2 51  1  0
  2 52  1  0
  1 53  1  0
  1 54  1  0
  1 55  1  0
 18  3  1  0
 38 20  1  0
 44 39  1  0
 27 23  1  0
M  END
>  <cnnaffinity>  (1) 
-6.67397

>  <filename>  (1) 
CCc1nn(C)c(CC)c1Cc1nc(C2CCCC2)nn1-c1cccnc1

$$$$
