
     RDKit          3D

 45 48  0  0  0  0  0  0  0  0999 V2000
    8.8322   -1.1249   27.0699 C   0  0  0  0  0  0  0  0  0  0  0  0
    7.7162   -0.1406   27.4802 C   0  0  0  0  0  0  0  0  0  0  0  0
    7.0079    0.4205   26.2859 C   0  0  0  0  0  0  0  0  0  0  0  0
    5.8023    0.0427   25.9367 N   0  0  0  0  0  0  0  0  0  0  0  0
    5.5600    0.6447   24.7128 O   0  0  0  0  0  0  0  0  0  0  0  0
    6.6309    1.3545   24.3452 C   0  0  0  0  0  0  0  0  0  0  0  0
    6.7278    1.8537   22.9346 C   0  0  0  0  0  0  0  0  0  0  0  0
    7.7668    1.0186   22.2478 C   0  0  0  0  0  0  0  0  0  0  0  0
    9.0549    1.1906   22.4598 N   0  0  0  0  0  0  0  0  0  0  0  0
    9.6202    0.0656   21.9462 C   0  0  0  0  0  0  0  0  0  0  0  0
   11.0833   -0.1970   22.0029 C   0  0  0  0  0  0  0  0  0  0  0  0
   11.9529    0.7055   22.6500 C   0  0  0  0  0  0  0  0  0  0  0  0
   13.3021    0.3858   22.7584 C   0  0  0  0  0  0  0  0  0  0  0  0
   14.0975    1.2253   23.4380 F   0  0  0  0  0  0  0  0  0  0  0  0
   13.8368   -0.7758   22.2058 C   0  0  0  0  0  0  0  0  0  0  0  0
   12.9827   -1.6186   21.4937 C   0  0  0  0  0  0  0  0  0  0  0  0
   11.6161   -1.3576   21.4096 C   0  0  0  0  0  0  0  0  0  0  0  0
   10.9462   -2.0274   20.8771 H   0  0  0  0  0  0  0  0  0  0  0  0
   13.3990   -2.4897   21.0041 H   0  0  0  0  0  0  0  0  0  0  0  0
   14.8860   -1.0207   22.3016 H   0  0  0  0  0  0  0  0  0  0  0  0
   11.5983    1.6511   23.0557 H   0  0  0  0  0  0  0  0  0  0  0  0
    8.7382   -0.7745   21.4152 N   0  0  0  0  0  0  0  0  0  0  0  0
    7.5515   -0.1580   21.6207 N   0  0  0  0  0  0  0  0  0  0  0  0
    6.3223   -0.6781   21.0204 C   0  0  0  0  0  0  0  0  0  0  0  0
    5.9144    0.0505   19.7553 C   0  0  0  0  0  0  0  0  0  0  0  0
    4.7216    0.7737   19.6577 C   0  0  0  0  0  0  0  0  0  0  0  0
    4.4903    1.5349   18.5098 C   0  0  0  0  0  0  0  0  0  0  0  0
    5.4489    1.5208   17.4909 C   0  0  0  0  0  0  0  0  0  0  0  0
    6.5603    0.7707   17.5342 N   0  0  0  0  0  0  0  0  0  0  0  0
    6.7763    0.0563   18.6446 C   0  0  0  0  0  0  0  0  0  0  0  0
    7.6814   -0.5535   18.6601 H   0  0  0  0  0  0  0  0  0  0  0  0
    5.3240    2.1303   16.5974 H   0  0  0  0  0  0  0  0  0  0  0  0
    3.6019    2.1448   18.3963 H   0  0  0  0  0  0  0  0  0  0  0  0
    3.9866    0.7456   20.4683 H   0  0  0  0  0  0  0  0  0  0  0  0
    5.5269   -0.5942   21.7637 H   0  0  0  0  0  0  0  0  0  0  0  0
    6.4986   -1.7434   20.8420 H   0  0  0  0  0  0  0  0  0  0  0  0
    7.0980    2.8797   22.9327 H   0  0  0  0  0  0  0  0  0  0  0  0
    5.7584    1.8164   22.4370 H   0  0  0  0  0  0  0  0  0  0  0  0
    7.5699    1.2964   25.3220 C   0  0  0  0  0  0  0  0  0  0  0  0
    8.5662    1.7034   25.2799 H   0  0  0  0  0  0  0  0  0  0  0  0
    6.9808   -0.6255   28.1318 H   0  0  0  0  0  0  0  0  0  0  0  0
    8.1523    0.7024   28.0312 H   0  0  0  0  0  0  0  0  0  0  0  0
    9.5049   -0.6644   26.3328 H   0  0  0  0  0  0  0  0  0  0  0  0
    8.4162   -2.0297   26.6123 H   0  0  0  0  0  0  0  0  0  0  0  0
    9.4344   -1.4238   27.9319 H   0  0  0  0  0  0  0  0  0  0  0  0
  1  2  1  0
  2  3  1  0
  3  4  2  0
  4  5  1  0
  5  6  1  0
  6  7  1  0
  7  8  1  0
  8  9  2  0
  9 10  1  0
 10 11  1  0
 11 12  2  0
 12 13  1  0
 13 14  1  0
 13 15  2  0
 15 16  1  0
 16 17  2  0
 17 18  1  0
 16 19  1  0
 15 20  1  0
 12 21  1  0
 10 22  2  0
 22 23  1  0
 23 24  1  0
 24 25  1  0
 25 26  2  0
 26 27  1  0
 27 28  2  0
 28 29  1  0
 29 30  2  0
 30 31  1  0
 28 32  1  0
 27 33  1  0
 26 34  1  0
 24 35  1  0
 24 36  1  0
  7 37  1  0
  7 38  1  0
  6 39  2  0
 39 40  1  0
  2 41  1  0
  2 42  1  0
  1 43  1  0
  1 44  1  0
  1 45  1  0
 39  3  1  0
 23  8  1  0
 30 25  1  0
 17 11  1  0
M  END
>  <cnnaffinity>  (1) 
-6.23633

>  <filename>  (1) 
CCc1cc(Cc2nc(-c3cccc(F)c3)nn2Cc2cccnc2)on1

$$$$
