
     RDKit          3D

 45 48  0  0  0  0  0  0  0  0999 V2000
    7.9669    0.8134   28.3505 C   0  0  0  0  0  0  0  0  0  0  0  0
    8.2443   -0.2299   27.2589 C   0  0  0  0  0  0  0  0  0  0  0  0
    7.6066    0.1241   25.9562 C   0  0  0  0  0  0  0  0  0  0  0  0
    6.3487   -0.0835   25.4526 C   0  0  0  0  0  0  0  0  0  0  0  0
    6.1971    0.5491   24.2382 N   0  0  0  0  0  0  0  0  0  0  0  0
    7.3322    1.1474   24.0115 C   0  0  0  0  0  0  0  0  0  0  0  0
    7.6907    1.8667   22.7563 C   0  0  0  0  0  0  0  0  0  0  0  0
    8.7319    1.0683   22.0662 C   0  0  0  0  0  0  0  0  0  0  0  0
   10.0107    1.2103   22.3174 N   0  0  0  0  0  0  0  0  0  0  0  0
   10.5730    0.1332   21.6985 C   0  0  0  0  0  0  0  0  0  0  0  0
   12.0118   -0.2053   21.8885 C   0  0  0  0  0  0  0  0  0  0  0  0
   12.8664    0.6685   22.5846 C   0  0  0  0  0  0  0  0  0  0  0  0
   14.1649    0.2538   22.8749 C   0  0  0  0  0  0  0  0  0  0  0  0
   14.6554   -0.9398   22.5254 N   0  0  0  0  0  0  0  0  0  0  0  0
   13.8625   -1.7503   21.8139 C   0  0  0  0  0  0  0  0  0  0  0  0
   12.5504   -1.4343   21.4648 C   0  0  0  0  0  0  0  0  0  0  0  0
   11.9515   -2.1356   20.8947 H   0  0  0  0  0  0  0  0  0  0  0  0
   14.3001   -2.6928   21.5005 H   0  0  0  0  0  0  0  0  0  0  0  0
   14.8332    0.9055   23.4283 H   0  0  0  0  0  0  0  0  0  0  0  0
   12.4984    1.6338   22.9170 H   0  0  0  0  0  0  0  0  0  0  0  0
    9.6989   -0.6573   21.0958 N   0  0  0  0  0  0  0  0  0  0  0  0
    8.5162   -0.0509   21.3488 N   0  0  0  0  0  0  0  0  0  0  0  0
    7.2508   -0.6867   21.0042 C   0  0  0  0  0  0  0  0  0  0  0  0
    6.5254    0.0302   19.8932 C   0  0  0  0  0  0  0  0  0  0  0  0
    5.3075    0.6896   20.0814 C   0  0  0  0  0  0  0  0  0  0  0  0
    4.7328    1.3595   18.9989 C   0  0  0  0  0  0  0  0  0  0  0  0
    5.3993    1.3420   17.7701 C   0  0  0  0  0  0  0  0  0  0  0  0
    6.5664    0.7093   17.5686 N   0  0  0  0  0  0  0  0  0  0  0  0
    7.1071    0.0781   18.6160 C   0  0  0  0  0  0  0  0  0  0  0  0
    8.0548   -0.4296   18.4360 H   0  0  0  0  0  0  0  0  0  0  0  0
    4.9731    1.8492   16.9070 H   0  0  0  0  0  0  0  0  0  0  0  0
    3.7946    1.8939   19.0990 H   0  0  0  0  0  0  0  0  0  0  0  0
    4.8207    0.6804   21.0609 H   0  0  0  0  0  0  0  0  0  0  0  0
    6.6287   -0.7291   21.9085 H   0  0  0  0  0  0  0  0  0  0  0  0
    7.5091   -1.7090   20.7134 H   0  0  0  0  0  0  0  0  0  0  0  0
    6.7908    1.9779   22.1523 H   0  0  0  0  0  0  0  0  0  0  0  0
    8.1185    2.8425   22.9886 H   0  0  0  0  0  0  0  0  0  0  0  0
    8.2256    0.9349   25.0141 N   0  0  0  0  0  0  0  0  0  0  0  0
    9.2201    1.0211   24.8564 H   0  0  0  0  0  0  0  0  0  0  0  0
    5.5448   -0.6733   25.8765 H   0  0  0  0  0  0  0  0  0  0  0  0
    9.3270   -0.3439   27.1180 H   0  0  0  0  0  0  0  0  0  0  0  0
    7.8774   -1.2118   27.5775 H   0  0  0  0  0  0  0  0  0  0  0  0
    6.9082    0.8275   28.6243 H   0  0  0  0  0  0  0  0  0  0  0  0
    8.5518    0.6021   29.2510 H   0  0  0  0  0  0  0  0  0  0  0  0
    8.2350    1.8149   27.9987 H   0  0  0  0  0  0  0  0  0  0  0  0
  1  2  1  0
  2  3  1  0
  3  4  2  0
  4  5  1  0
  5  6  2  0
  6  7  1  0
  7  8  1  0
  8  9  2  0
  9 10  1  0
 10 11  1  0
 11 12  2  0
 12 13  1  0
 13 14  2  0
 14 15  1  0
 15 16  2  0
 16 17  1  0
 15 18  1  0
 13 19  1  0
 12 20  1  0
 10 21  2  0
 21 22  1  0
 22 23  1  0
 23 24  1  0
 24 25  2  0
 25 26  1  0
 26 27  2  0
 27 28  1  0
 28 29  2  0
 29 30  1  0
 27 31  1  0
 26 32  1  0
 25 33  1  0
 23 34  1  0
 23 35  1  0
  7 36  1  0
  7 37  1  0
  6 38  1  0
 38 39  1  0
  4 40  1  0
  2 41  1  0
  2 42  1  0
  1 43  1  0
  1 44  1  0
  1 45  1  0
 38  3  1  0
 22  8  1  0
 29 24  1  0
 16 11  1  0
M  END
>  <cnnaffinity>  (1) 
-6.72077

>  <filename>  (1) 
CCc1cnc(Cc2nc(-c3ccncc3)nn2Cc2cccnc2)[nH]1

$$$$
