
     RDKit          3D

 56 59  0  0  0  0  0  0  0  0999 V2000
    7.0673    4.1280   22.9757 C   0  0  0  0  0  0  0  0  0  0  0  0
    7.4985    2.7430   22.4730 C   0  0  0  0  0  0  0  0  0  0  0  0
    8.9818    2.4396   22.5223 C   0  0  0  0  0  0  0  0  0  0  0  0
    9.7650    3.0226   23.4203 N   0  0  0  0  0  0  0  0  0  0  0  0
   10.9838    2.4910   23.2379 N   0  0  0  0  0  0  0  0  0  0  0  0
   12.0031    2.8707   24.1770 C   0  0  0  0  0  0  0  0  0  0  0  0
   11.8190    3.9091   24.4525 H   0  0  0  0  0  0  0  0  0  0  0  0
   12.9898    2.7927   23.7203 H   0  0  0  0  0  0  0  0  0  0  0  0
   11.9369    2.2470   25.0733 H   0  0  0  0  0  0  0  0  0  0  0  0
   11.0007    1.5400   22.2706 C   0  0  0  0  0  0  0  0  0  0  0  0
   12.1596    0.6345   21.9742 C   0  0  0  0  0  0  0  0  0  0  0  0
   12.4189   -0.4429   23.0261 C   0  0  0  0  0  0  0  0  0  0  0  0
   12.6919   -0.0153   23.9996 H   0  0  0  0  0  0  0  0  0  0  0  0
   11.5200   -1.0539   23.1638 H   0  0  0  0  0  0  0  0  0  0  0  0
   13.2201   -1.1107   22.6858 H   0  0  0  0  0  0  0  0  0  0  0  0
   13.0760    1.2082   21.7784 H   0  0  0  0  0  0  0  0  0  0  0  0
   11.9057    0.1128   21.0462 H   0  0  0  0  0  0  0  0  0  0  0  0
    9.7190    1.4885   21.7619 C   0  0  0  0  0  0  0  0  0  0  0  0
    9.2470    0.4383   20.7847 C   0  0  0  0  0  0  0  0  0  0  0  0
    8.3176   -0.5813   21.3582 C   0  0  0  0  0  0  0  0  0  0  0  0
    8.5781   -1.3828   22.3748 N   0  0  0  0  0  0  0  0  0  0  0  0
    7.4590   -2.1476   22.4651 C   0  0  0  0  0  0  0  0  0  0  0  0
    7.3214   -3.1598   23.5702 C   0  0  0  0  0  0  0  0  0  0  0  0
    6.5267   -2.5434   24.7694 C   0  0  0  0  0  0  0  0  0  0  0  0
    6.0266   -3.6000   25.7288 C   0  0  0  0  0  0  0  0  0  0  0  0
    5.5665   -4.7668   25.2822 C   0  0  0  0  0  0  0  0  0  0  0  0
    5.5240   -5.0533   23.7958 C   0  0  0  0  0  0  0  0  0  0  0  0
    6.7997   -4.5523   23.0834 C   0  0  0  0  0  0  0  0  0  0  0  0
    6.6266   -4.5408   22.0012 H   0  0  0  0  0  0  0  0  0  0  0  0
    7.5963   -5.2864   23.2677 H   0  0  0  0  0  0  0  0  0  0  0  0
    5.4081   -6.1283   23.6208 H   0  0  0  0  0  0  0  0  0  0  0  0
    4.6395   -4.5668   23.3552 H   0  0  0  0  0  0  0  0  0  0  0  0
    5.2016   -5.5192   25.9825 H   0  0  0  0  0  0  0  0  0  0  0  0
    6.0078   -3.3691   26.7939 H   0  0  0  0  0  0  0  0  0  0  0  0
    7.1687   -1.8304   25.3005 H   0  0  0  0  0  0  0  0  0  0  0  0
    5.6710   -1.9705   24.3839 H   0  0  0  0  0  0  0  0  0  0  0  0
    8.3452   -3.3111   23.9308 H   0  0  0  0  0  0  0  0  0  0  0  0
    6.5267   -1.8743   21.5644 N   0  0  0  0  0  0  0  0  0  0  0  0
    7.0923   -0.8742   20.8372 N   0  0  0  0  0  0  0  0  0  0  0  0
    6.3990   -0.1990   19.7889 C   0  0  0  0  0  0  0  0  0  0  0  0
    5.2355    0.5310   20.0418 C   0  0  0  0  0  0  0  0  0  0  0  0
    4.7163    1.3154   19.0068 C   0  0  0  0  0  0  0  0  0  0  0  0
    5.3551    1.3205   17.7612 C   0  0  0  0  0  0  0  0  0  0  0  0
    6.4391    0.5764   17.4960 N   0  0  0  0  0  0  0  0  0  0  0  0
    6.9387   -0.1662   18.4871 C   0  0  0  0  0  0  0  0  0  0  0  0
    7.8380   -0.7361   18.2589 H   0  0  0  0  0  0  0  0  0  0  0  0
    4.9827    1.9341   16.9461 H   0  0  0  0  0  0  0  0  0  0  0  0
    3.8416    1.9339   19.1554 H   0  0  0  0  0  0  0  0  0  0  0  0
    4.7789    0.4998   21.0334 H   0  0  0  0  0  0  0  0  0  0  0  0
    8.7929    0.8925   19.9033 H   0  0  0  0  0  0  0  0  0  0  0  0
   10.0998   -0.1372   20.4096 H   0  0  0  0  0  0  0  0  0  0  0  0
    6.9826    1.9762   23.0662 H   0  0  0  0  0  0  0  0  0  0  0  0
    7.1431    2.5916   21.4464 H   0  0  0  0  0  0  0  0  0  0  0  0
    5.9856    4.2601   22.8574 H   0  0  0  0  0  0  0  0  0  0  0  0
    7.3007    4.2639   24.0368 H   0  0  0  0  0  0  0  0  0  0  0  0
    7.5601    4.9382   22.4295 H   0  0  0  0  0  0  0  0  0  0  0  0
  1  2  1  0
  2  3  1  0
  3  4  2  0
  4  5  1  0
  5  6  1  0
  6  7  1  0
  6  8  1  0
  6  9  1  0
  5 10  1  0
 10 11  1  0
 11 12  1  0
 12 13  1  0
 12 14  1  0
 12 15  1  0
 11 16  1  0
 11 17  1  0
 10 18  2  0
 18 19  1  0
 19 20  1  0
 20 21  2  0
 21 22  1  0
 22 23  1  0
 23 24  1  0
 24 25  1  0
 25 26  2  0
 26 27  1  0
 27 28  1  0
 28 29  1  0
 28 30  1  0
 27 31  1  0
 27 32  1  0
 26 33  1  0
 25 34  1  0
 24 35  1  0
 24 36  1  0
 23 37  1  0
 22 38  2  0
 38 39  1  0
 39 40  1  0
 40 41  2  0
 41 42  1  0
 42 43  2  0
 43 44  1  0
 44 45  2  0
 45 46  1  0
 43 47  1  0
 42 48  1  0
 41 49  1  0
 19 50  1  0
 19 51  1  0
  2 52  1  0
  2 53  1  0
  1 54  1  0
  1 55  1  0
  1 56  1  0
 18  3  1  0
 39 20  1  0
 45 40  1  0
 28 23  1  0
M  END
>  <cnnaffinity>  (1) 
-6.73762

>  <filename>  (1) 
CCc1nn(C)c(CC)c1Cc1nc(C2CC=CCC2)nn1-c1cccnc1

$$$$
