
     RDKit          3D

 36 38  0  0  0  0  0  0  0  0999 V2000
    7.6213   -4.4652   22.9995 C   0  0  0  0  0  0  0  0  0  0  0  0
    8.4761   -3.5242   22.1378 C   0  0  0  0  0  0  0  0  0  0  0  0
    7.8587   -2.1926   21.8638 C   0  0  0  0  0  0  0  0  0  0  0  0
    7.4516   -1.8129   20.6722 N   0  0  0  0  0  0  0  0  0  0  0  0
    7.0104   -0.5452   20.8856 N   0  0  0  0  0  0  0  0  0  0  0  0
    6.4287    0.1649   19.7994 C   0  0  0  0  0  0  0  0  0  0  0  0
    5.2447    0.8959   19.9252 C   0  0  0  0  0  0  0  0  0  0  0  0
    4.7310    1.5107   18.7766 C   0  0  0  0  0  0  0  0  0  0  0  0
    5.4192    1.3808   17.5675 C   0  0  0  0  0  0  0  0  0  0  0  0
    6.5544    0.6691   17.4406 N   0  0  0  0  0  0  0  0  0  0  0  0
    7.0394    0.0783   18.5356 C   0  0  0  0  0  0  0  0  0  0  0  0
    7.9717   -0.4750   18.4256 H   0  0  0  0  0  0  0  0  0  0  0  0
    5.0402    1.8569   16.6648 H   0  0  0  0  0  0  0  0  0  0  0  0
    3.8179    2.0941   18.8236 H   0  0  0  0  0  0  0  0  0  0  0  0
    4.7403    0.9760   20.8905 H   0  0  0  0  0  0  0  0  0  0  0  0
    7.2475   -0.2131   22.1923 C   0  0  0  0  0  0  0  0  0  0  0  0
    7.0588    1.1057   22.8761 C   0  0  0  0  0  0  0  0  0  0  0  0
    8.3879    1.6388   23.4032 C   0  0  0  0  0  0  0  0  0  0  0  0
    8.8272    1.3111   24.6960 C   0  0  0  0  0  0  0  0  0  0  0  0
   10.1502    1.5644   25.0575 C   0  0  0  0  0  0  0  0  0  0  0  0
   10.5830    1.1551   26.2535 F   0  0  0  0  0  0  0  0  0  0  0  0
   11.0481    2.2096   24.2135 C   0  0  0  0  0  0  0  0  0  0  0  0
   10.5844    2.6301   22.9662 C   0  0  0  0  0  0  0  0  0  0  0  0
    9.2791    2.3246   22.5653 C   0  0  0  0  0  0  0  0  0  0  0  0
    8.7954    2.7477   20.9567 Cl  0  0  0  0  0  0  0  0  0  0  0  0
   11.2213    3.1909   22.2911 H   0  0  0  0  0  0  0  0  0  0  0  0
   12.0818    2.3320   24.5295 H   0  0  0  0  0  0  0  0  0  0  0  0
    8.1694    0.8273   25.4113 H   0  0  0  0  0  0  0  0  0  0  0  0
    6.3774    0.9302   23.7090 H   0  0  0  0  0  0  0  0  0  0  0  0
    6.5851    1.8217   22.2063 H   0  0  0  0  0  0  0  0  0  0  0  0
    7.7419   -1.2533   22.8286 N   0  0  0  0  0  0  0  0  0  0  0  0
    9.4314   -3.3165   22.6324 H   0  0  0  0  0  0  0  0  0  0  0  0
    8.6847   -3.9877   21.1718 H   0  0  0  0  0  0  0  0  0  0  0  0
    6.6630   -4.6725   22.5114 H   0  0  0  0  0  0  0  0  0  0  0  0
    8.1407   -5.4171   23.1542 H   0  0  0  0  0  0  0  0  0  0  0  0
    7.4208   -4.0389   23.9891 H   0  0  0  0  0  0  0  0  0  0  0  0
  1  2  1  0
  2  3  1  0
  3  4  2  0
  4  5  1  0
  5  6  1  0
  6  7  2  0
  7  8  1  0
  8  9  2  0
  9 10  1  0
 10 11  2  0
 11 12  1  0
  9 13  1  0
  8 14  1  0
  7 15  1  0
  5 16  1  0
 16 17  1  0
 17 18  1  0
 18 19  2  0
 19 20  1  0
 20 21  1  0
 20 22  2  0
 22 23  1  0
 23 24  2  0
 24 25  1  0
 23 26  1  0
 22 27  1  0
 19 28  1  0
 17 29  1  0
 17 30  1  0
 16 31  2  0
  2 32  1  0
  2 33  1  0
  1 34  1  0
  1 35  1  0
  1 36  1  0
 31  3  1  0
 11  6  1  0
 24 18  1  0
M  END
>  <cnnaffinity>  (1) 
-5.58454

>  <filename>  (1) 
CCc1nc(Cc2cc(F)ccc2Cl)n(-c2cccnc2)n1

$$$$
