
     RDKit          3D

 40 42  0  0  0  0  0  0  0  0999 V2000
    7.6644   -4.4470   22.9352 C   0  0  0  0  0  0  0  0  0  0  0  0
    8.4627   -3.4410   22.0898 C   0  0  0  0  0  0  0  0  0  0  0  0
    7.7771   -2.1423   21.8129 C   0  0  0  0  0  0  0  0  0  0  0  0
    7.3697   -1.8193   20.6036 N   0  0  0  0  0  0  0  0  0  0  0  0
    6.8245   -0.5915   20.7751 N   0  0  0  0  0  0  0  0  0  0  0  0
    6.2856    0.1067   19.6667 C   0  0  0  0  0  0  0  0  0  0  0  0
    5.1114    0.8643   19.7517 C   0  0  0  0  0  0  0  0  0  0  0  0
    4.6841    1.5347   18.6006 C   0  0  0  0  0  0  0  0  0  0  0  0
    5.4362    1.4242   17.4283 C   0  0  0  0  0  0  0  0  0  0  0  0
    6.5515    0.6768   17.3366 N   0  0  0  0  0  0  0  0  0  0  0  0
    6.9538    0.0283   18.4312 C   0  0  0  0  0  0  0  0  0  0  0  0
    7.8550   -0.5767   18.3481 H   0  0  0  0  0  0  0  0  0  0  0  0
    5.1318    1.9434   16.5233 H   0  0  0  0  0  0  0  0  0  0  0  0
    3.7937    2.1536   18.6135 H   0  0  0  0  0  0  0  0  0  0  0  0
    4.5465    0.9254   20.6826 H   0  0  0  0  0  0  0  0  0  0  0  0
    6.9876   -0.2140   22.0752 C   0  0  0  0  0  0  0  0  0  0  0  0
    6.5916    1.0929   22.6782 C   0  0  0  0  0  0  0  0  0  0  0  0
    7.7156    1.6974   23.5014 C   0  0  0  0  0  0  0  0  0  0  0  0
    8.7413    2.0785   22.5692 O   0  0  0  0  0  0  0  0  0  0  0  0
    9.9524    2.4167   22.9964 C   0  0  0  0  0  0  0  0  0  0  0  0
   10.4656    2.3134   24.3661 C   0  0  0  0  0  0  0  0  0  0  0  0
   11.8171    2.5462   24.4564 C   0  0  0  0  0  0  0  0  0  0  0  0
   12.4376    3.0689   23.1425 C   0  0  0  0  0  0  0  0  0  0  0  0
   11.7340    4.9561   23.1662 F   0  0  0  0  0  0  0  0  0  0  0  0
   12.5757    2.9374   23.1389 C   0  0  0  0  0  0  0  0  0  0  0  0
   11.0492    2.7421   22.0784 C   0  0  0  0  0  0  0  0  0  0  0  0
   11.3044    1.4037   20.9450 Cl  0  0  0  0  0  0  0  0  0  0  0  0
   13.3828    3.7723   22.7328 H   0  0  0  0  0  0  0  0  0  0  0  0
   12.2931    2.2462   25.4307 H   0  0  0  0  0  0  0  0  0  0  0  0
    9.8776    2.0244   25.2349 H   0  0  0  0  0  0  0  0  0  0  0  0
    7.3889    2.5878   24.0496 H   0  0  0  0  0  0  0  0  0  0  0  0
    8.0942    0.9677   24.2290 H   0  0  0  0  0  0  0  0  0  0  0  0
    6.3035    1.8147   21.9117 H   0  0  0  0  0  0  0  0  0  0  0  0
    5.7298    0.9162   23.3292 H   0  0  0  0  0  0  0  0  0  0  0  0
    7.5659   -1.1869   22.7543 N   0  0  0  0  0  0  0  0  0  0  0  0
    9.4117   -3.2085   22.5852 H   0  0  0  0  0  0  0  0  0  0  0  0
    8.7030   -3.8743   21.1163 H   0  0  0  0  0  0  0  0  0  0  0  0
    7.4294   -4.0444   23.9266 H   0  0  0  0  0  0  0  0  0  0  0  0
    6.7219   -4.7239   22.4505 H   0  0  0  0  0  0  0  0  0  0  0  0
    8.2515   -5.3611   23.0757 H   0  0  0  0  0  0  0  0  0  0  0  0
  1  2  1  0
  2  3  1  0
  3  4  2  0
  4  5  1  0
  5  6  1  0
  6  7  2  0
  7  8  1  0
  8  9  2  0
  9 10  1  0
 10 11  2  0
 11 12  1  0
  9 13  1  0
  8 14  1  0
  7 15  1  0
  5 16  1  0
 16 17  1  0
 17 18  1  0
 18 19  1  0
 19 20  1  0
 20 21  2  0
 21 22  1  0
 22 23  2  0
 23 24  1  0
 23 25  1  0
 25 26  2  0
 26 27  1  0
 25 28  1  0
 22 29  1  0
 21 30  1  0
 18 31  1  0
 18 32  1  0
 17 33  1  0
 17 34  1  0
 16 35  2  0
  2 36  1  0
  2 37  1  0
  1 38  1  0
  1 39  1  0
  1 40  1  0
 35  3  1  0
 11  6  1  0
 26 20  1  0
M  END
>  <cnnaffinity>  (1) 
-5.69285

>  <filename>  (1) 
CCc1nc(CCOc2ccc(F)cc2Cl)n(-c2cccnc2)n1

$$$$
