
     RDKit          3D

 52 55  0  0  0  0  0  0  0  0999 V2000
    6.7294    2.0901   23.4070 C   0  0  0  0  0  0  0  0  0  0  0  0
    7.5890    2.8468   22.3732 C   0  0  0  0  0  0  0  0  0  0  0  0
    9.0468    2.4746   22.3420 C   0  0  0  0  0  0  0  0  0  0  0  0
    9.8709    3.0872   23.1851 N   0  0  0  0  0  0  0  0  0  0  0  0
   11.0550    2.4744   23.0417 N   0  0  0  0  0  0  0  0  0  0  0  0
   12.0915    2.7164   24.0142 C   0  0  0  0  0  0  0  0  0  0  0  0
   11.8875    3.6737   24.4919 H   0  0  0  0  0  0  0  0  0  0  0  0
   12.0920    1.9302   24.7752 H   0  0  0  0  0  0  0  0  0  0  0  0
   13.0635    2.7359   23.5190 H   0  0  0  0  0  0  0  0  0  0  0  0
   11.0134    1.4682   22.1326 C   0  0  0  0  0  0  0  0  0  0  0  0
   12.1337    0.5061   21.9044 C   0  0  0  0  0  0  0  0  0  0  0  0
   12.3691   -0.5064   23.0197 C   0  0  0  0  0  0  0  0  0  0  0  0
   11.4497   -1.0655   23.2341 H   0  0  0  0  0  0  0  0  0  0  0  0
   12.7143   -0.0300   23.9450 H   0  0  0  0  0  0  0  0  0  0  0  0
   13.1364   -1.2205   22.6972 H   0  0  0  0  0  0  0  0  0  0  0  0
   11.8879   -0.0607   20.9995 H   0  0  0  0  0  0  0  0  0  0  0  0
   13.0640    1.0589   21.7232 H   0  0  0  0  0  0  0  0  0  0  0  0
    9.7332    1.4611   21.6207 C   0  0  0  0  0  0  0  0  0  0  0  0
    9.1948    0.4134   20.6831 C   0  0  0  0  0  0  0  0  0  0  0  0
    8.3047   -0.6054   21.3249 C   0  0  0  0  0  0  0  0  0  0  0  0
    8.5671   -1.3654   22.3666 N   0  0  0  0  0  0  0  0  0  0  0  0
    7.4310   -2.1114   22.5079 C   0  0  0  0  0  0  0  0  0  0  0  0
    7.2642   -3.1191   23.5827 C   0  0  0  0  0  0  0  0  0  0  0  0
    6.0113   -3.7334   23.8024 C   0  0  0  0  0  0  0  0  0  0  0  0
    5.8498   -4.6740   24.8187 C   0  0  0  0  0  0  0  0  0  0  0  0
    6.9424   -5.0021   25.6170 C   0  0  0  0  0  0  0  0  0  0  0  0
    6.7856   -5.9099   26.5929 F   0  0  0  0  0  0  0  0  0  0  0  0
    8.1906   -4.4147   25.4304 C   0  0  0  0  0  0  0  0  0  0  0  0
    8.3484   -3.4732   24.4125 C   0  0  0  0  0  0  0  0  0  0  0  0
    9.3209   -3.0069   24.2563 H   0  0  0  0  0  0  0  0  0  0  0  0
    9.0067   -4.7094   26.0801 H   0  0  0  0  0  0  0  0  0  0  0  0
    4.9025   -5.1644   25.0082 H   0  0  0  0  0  0  0  0  0  0  0  0
    5.1690   -3.4639   23.1655 H   0  0  0  0  0  0  0  0  0  0  0  0
    6.4969   -1.8474   21.6039 N   0  0  0  0  0  0  0  0  0  0  0  0
    7.0723   -0.9010   20.8284 N   0  0  0  0  0  0  0  0  0  0  0  0
    6.3755   -0.2269   19.7825 C   0  0  0  0  0  0  0  0  0  0  0  0
    5.2648    0.5710   20.0657 C   0  0  0  0  0  0  0  0  0  0  0  0
    4.7460    1.3627   19.0379 C   0  0  0  0  0  0  0  0  0  0  0  0
    5.3403    1.3167   17.7727 C   0  0  0  0  0  0  0  0  0  0  0  0
    6.3782    0.5153   17.4810 N   0  0  0  0  0  0  0  0  0  0  0  0
    6.8708   -0.2418   18.4652 C   0  0  0  0  0  0  0  0  0  0  0  0
    7.7331   -0.8592   18.2141 H   0  0  0  0  0  0  0  0  0  0  0  0
    4.9715    1.9389   16.9621 H   0  0  0  0  0  0  0  0  0  0  0  0
    3.9079    2.0271   19.2105 H   0  0  0  0  0  0  0  0  0  0  0  0
    4.8530    0.5856   21.0759 H   0  0  0  0  0  0  0  0  0  0  0  0
    8.6728    0.8756   19.8425 H   0  0  0  0  0  0  0  0  0  0  0  0
   10.0121   -0.1585   20.2321 H   0  0  0  0  0  0  0  0  0  0  0  0
    7.5427    3.9195   22.5982 H   0  0  0  0  0  0  0  0  0  0  0  0
    7.1431    2.7058   21.3821 H   0  0  0  0  0  0  0  0  0  0  0  0
    6.7948    0.9996   23.3168 H   0  0  0  0  0  0  0  0  0  0  0  0
    7.0017    2.3409   24.4361 H   0  0  0  0  0  0  0  0  0  0  0  0
    5.6778    2.3706   23.2863 H   0  0  0  0  0  0  0  0  0  0  0  0
  1  2  1  0
  2  3  1  0
  3  4  2  0
  4  5  1  0
  5  6  1  0
  6  7  1  0
  6  8  1  0
  6  9  1  0
  5 10  1  0
 10 11  1  0
 11 12  1  0
 12 13  1  0
 12 14  1  0
 12 15  1  0
 11 16  1  0
 11 17  1  0
 10 18  2  0
 18 19  1  0
 19 20  1  0
 20 21  2  0
 21 22  1  0
 22 23  1  0
 23 24  2  0
 24 25  1  0
 25 26  2  0
 26 27  1  0
 26 28  1  0
 28 29  2  0
 29 30  1  0
 28 31  1  0
 25 32  1  0
 24 33  1  0
 22 34  2  0
 34 35  1  0
 35 36  1  0
 36 37  2  0
 37 38  1  0
 38 39  2  0
 39 40  1  0
 40 41  2  0
 41 42  1  0
 39 43  1  0
 38 44  1  0
 37 45  1  0
 19 46  1  0
 19 47  1  0
  2 48  1  0
  2 49  1  0
  1 50  1  0
  1 51  1  0
  1 52  1  0
 18  3  1  0
 35 20  1  0
 41 36  1  0
 29 23  1  0
M  END
>  <cnnaffinity>  (1) 
-6.5031

>  <filename>  (1) 
CCc1nn(C)c(CC)c1Cc1nc(-c2ccc(F)cc2)nn1-c1cccnc1

$$$$
