
     RDKit          3D

 46 49  0  0  0  0  0  0  0  0999 V2000
    7.1530    3.1455   21.9636 C   0  0  0  0  0  0  0  0  0  0  0  0
    7.6169    2.5396   23.3004 C   0  0  0  0  0  0  0  0  0  0  0  0
    9.1012    2.3277   23.3844 C   0  0  0  0  0  0  0  0  0  0  0  0
    9.8265    2.8833   24.3557 N   0  0  0  0  0  0  0  0  0  0  0  0
   11.0910    2.5271   24.0725 N   0  0  0  0  0  0  0  0  0  0  0  0
   11.2032    1.7738   22.9535 C   0  0  0  0  0  0  0  0  0  0  0  0
   12.4746    1.1685   22.4578 C   0  0  0  0  0  0  0  0  0  0  0  0
   12.6090   -0.2739   22.9690 C   0  0  0  0  0  0  0  0  0  0  0  0
   12.8963   -0.2518   24.0238 H   0  0  0  0  0  0  0  0  0  0  0  0
   11.6506   -0.8077   22.9183 H   0  0  0  0  0  0  0  0  0  0  0  0
   13.3360   -0.8691   22.4084 H   0  0  0  0  0  0  0  0  0  0  0  0
   12.4287    1.2042   21.3655 H   0  0  0  0  0  0  0  0  0  0  0  0
   13.3459    1.7722   22.7443 H   0  0  0  0  0  0  0  0  0  0  0  0
    9.9142    1.5686   22.5058 C   0  0  0  0  0  0  0  0  0  0  0  0
    9.4914    0.6597   21.3660 C   0  0  0  0  0  0  0  0  0  0  0  0
    8.4999   -0.4211   21.7169 C   0  0  0  0  0  0  0  0  0  0  0  0
    8.6519   -1.2877   22.6928 N   0  0  0  0  0  0  0  0  0  0  0  0
    7.5491   -2.0881   22.6052 C   0  0  0  0  0  0  0  0  0  0  0  0
    7.2573   -3.1791   23.5564 C   0  0  0  0  0  0  0  0  0  0  0  0
    6.1107   -3.8595   23.8722 C   0  0  0  0  0  0  0  0  0  0  0  0
    6.4367   -4.7108   24.9765 C   0  0  0  0  0  0  0  0  0  0  0  0
    7.7561   -4.5058   25.2301 C   0  0  0  0  0  0  0  0  0  0  0  0
    8.2655   -3.5900   24.3826 O   0  0  0  0  0  0  0  0  0  0  0  0
    8.4551   -4.9011   25.9530 H   0  0  0  0  0  0  0  0  0  0  0  0
    5.7793   -5.3673   25.5311 H   0  0  0  0  0  0  0  0  0  0  0  0
    5.1551   -3.7492   23.3730 H   0  0  0  0  0  0  0  0  0  0  0  0
    6.7282   -1.7625   21.6164 N   0  0  0  0  0  0  0  0  0  0  0  0
    7.3453   -0.7100   21.0280 N   0  0  0  0  0  0  0  0  0  0  0  0
    6.6860   -0.0346   19.9507 C   0  0  0  0  0  0  0  0  0  0  0  0
    5.4810    0.6391   20.1817 C   0  0  0  0  0  0  0  0  0  0  0  0
    4.8933    1.3295   19.1163 C   0  0  0  0  0  0  0  0  0  0  0  0
    5.5117    1.2974   17.8615 C   0  0  0  0  0  0  0  0  0  0  0  0
    6.6394    0.6121   17.6191 N   0  0  0  0  0  0  0  0  0  0  0  0
    7.2032   -0.0431   18.6433 C   0  0  0  0  0  0  0  0  0  0  0  0
    8.1089   -0.6028   18.4168 H   0  0  0  0  0  0  0  0  0  0  0  0
    5.0818    1.8327   17.0169 H   0  0  0  0  0  0  0  0  0  0  0  0
    3.9728    1.8887   19.2416 H   0  0  0  0  0  0  0  0  0  0  0  0
    5.0304    0.6247   21.1771 H   0  0  0  0  0  0  0  0  0  0  0  0
   10.3813    0.1435   20.9773 H   0  0  0  0  0  0  0  0  0  0  0  0
    9.0910    1.2439   20.5318 H   0  0  0  0  0  0  0  0  0  0  0  0
   11.8441    2.8636   24.6496 H   0  0  0  0  0  0  0  0  0  0  0  0
    7.1271    1.5676   23.4610 H   0  0  0  0  0  0  0  0  0  0  0  0
    7.3490    3.1771   24.1479 H   0  0  0  0  0  0  0  0  0  0  0  0
    6.0575    3.1993   21.9001 H   0  0  0  0  0  0  0  0  0  0  0  0
    7.5779    4.1451   21.7958 H   0  0  0  0  0  0  0  0  0  0  0  0
    7.4792    2.5111   21.1341 H   0  0  0  0  0  0  0  0  0  0  0  0
  1  2  1  0
  2  3  1  0
  3  4  2  0
  4  5  1  0
  5  6  1  0
  6  7  1  0
  7  8  1  0
  8  9  1  0
  8 10  1  0
  8 11  1  0
  7 12  1  0
  7 13  1  0
  6 14  2  0
 14 15  1  0
 15 16  1  0
 16 17  2  0
 17 18  1  0
 18 19  1  0
 19 20  2  0
 20 21  1  0
 21 22  2  0
 22 23  1  0
 22 24  1  0
 21 25  1  0
 20 26  1  0
 18 27  2  0
 27 28  1  0
 28 29  1  0
 29 30  2  0
 30 31  1  0
 31 32  2  0
 32 33  1  0
 33 34  2  0
 34 35  1  0
 32 36  1  0
 31 37  1  0
 30 38  1  0
 15 39  1  0
 15 40  1  0
  5 41  1  0
  2 42  1  0
  2 43  1  0
  1 44  1  0
  1 45  1  0
  1 46  1  0
 14  3  1  0
 28 16  1  0
 34 29  1  0
 23 19  1  0
M  END
>  <cnnaffinity>  (1) 
-6.20636

>  <filename>  (1) 
CCc1n[nH]c(CC)c1Cc1nc(-c2ccco2)nn1-c1cccnc1

$$$$
