
     RDKit          3D

 35 37  0  0  0  0  0  0  0  0999 V2000
   10.6614   -2.2001   22.5963 C   0  0  0  0  0  0  0  0  0  0  0  0
    9.2222   -2.7741   22.6029 C   0  0  0  0  0  0  0  0  0  0  0  0
    8.1643   -1.7640   22.2877 C   0  0  0  0  0  0  0  0  0  0  0  0
    7.7458   -1.4916   21.0687 N   0  0  0  0  0  0  0  0  0  0  0  0
    7.0183   -0.3490   21.2341 N   0  0  0  0  0  0  0  0  0  0  0  0
    6.4545    0.2554   20.0788 C   0  0  0  0  0  0  0  0  0  0  0  0
    5.2813    1.0223   20.1129 C   0  0  0  0  0  0  0  0  0  0  0  0
    4.8058    1.5512   18.9056 C   0  0  0  0  0  0  0  0  0  0  0  0
    5.5095    1.3087   17.7237 C   0  0  0  0  0  0  0  0  0  0  0  0
    6.6322    0.5674   17.6824 N   0  0  0  0  0  0  0  0  0  0  0  0
    7.0779    0.0521   18.8300 C   0  0  0  0  0  0  0  0  0  0  0  0
    7.9780   -0.5576   18.7802 H   0  0  0  0  0  0  0  0  0  0  0  0
    5.1632    1.7096   16.7727 H   0  0  0  0  0  0  0  0  0  0  0  0
    3.9019    2.1529   18.8712 H   0  0  0  0  0  0  0  0  0  0  0  0
    4.7492    1.1859   21.0500 H   0  0  0  0  0  0  0  0  0  0  0  0
    7.1166    0.0422   22.5489 C   0  0  0  0  0  0  0  0  0  0  0  0
    6.9616    1.4224   23.1559 C   0  0  0  0  0  0  0  0  0  0  0  0
    8.3180    1.8879   23.7152 C   0  0  0  0  0  0  0  0  0  0  0  0
    8.6223    1.8167   25.0865 C   0  0  0  0  0  0  0  0  0  0  0  0
    9.8508    1.9230   25.6044 N   0  0  0  0  0  0  0  0  0  0  0  0
   10.8670    2.0997   24.7552 C   0  0  0  0  0  0  0  0  0  0  0  0
   10.7070    2.2373   23.3794 C   0  0  0  0  0  0  0  0  0  0  0  0
    9.4111    2.1448   22.8735 C   0  0  0  0  0  0  0  0  0  0  0  0
    9.1671    2.3195   21.1653 Cl  0  0  0  0  0  0  0  0  0  0  0  0
   11.5554    2.3969   22.7253 H   0  0  0  0  0  0  0  0  0  0  0  0
   11.8574    2.1500   25.1998 H   0  0  0  0  0  0  0  0  0  0  0  0
    7.8114    1.6561   25.7979 H   0  0  0  0  0  0  0  0  0  0  0  0
    6.5837    2.1417   22.4244 H   0  0  0  0  0  0  0  0  0  0  0  0
    6.2398    1.3555   23.9753 H   0  0  0  0  0  0  0  0  0  0  0  0
    7.7284   -0.9057   23.2395 N   0  0  0  0  0  0  0  0  0  0  0  0
    8.9964   -3.1749   23.5984 H   0  0  0  0  0  0  0  0  0  0  0  0
    9.1234   -3.5935   21.8899 H   0  0  0  0  0  0  0  0  0  0  0  0
   11.3578   -2.9627   22.9587 H   0  0  0  0  0  0  0  0  0  0  0  0
   10.7278   -1.3383   23.2711 H   0  0  0  0  0  0  0  0  0  0  0  0
   11.0189   -1.8674   21.6127 H   0  0  0  0  0  0  0  0  0  0  0  0
  1  2  1  0
  2  3  1  0
  3  4  2  0
  4  5  1  0
  5  6  1  0
  6  7  2  0
  7  8  1  0
  8  9  2  0
  9 10  1  0
 10 11  2  0
 11 12  1  0
  9 13  1  0
  8 14  1  0
  7 15  1  0
  5 16  1  0
 16 17  1  0
 17 18  1  0
 18 19  2  0
 19 20  1  0
 20 21  2  0
 21 22  1  0
 22 23  2  0
 23 24  1  0
 22 25  1  0
 21 26  1  0
 19 27  1  0
 17 28  1  0
 17 29  1  0
 16 30  2  0
  2 31  1  0
  2 32  1  0
  1 33  1  0
  1 34  1  0
  1 35  1  0
 30  3  1  0
 11  6  1  0
 23 18  1  0
M  END
>  <cnnaffinity>  (1) 
-5.81372

>  <filename>  (1) 
CCc1nc(Cc2cnccc2Cl)n(-c2cccnc2)n1

$$$$
