
     RDKit          3D

 40 42  0  0  0  0  0  0  0  0999 V2000
    6.8516   -2.3240   24.8858 C   0  0  0  0  0  0  0  0  0  0  0  0
    7.4026   -2.9938   23.6105 C   0  0  0  0  0  0  0  0  0  0  0  0
    7.6653   -2.0155   22.5146 C   0  0  0  0  0  0  0  0  0  0  0  0
    6.7304   -1.6459   21.6623 N   0  0  0  0  0  0  0  0  0  0  0  0
    7.3429   -0.6800   20.9354 N   0  0  0  0  0  0  0  0  0  0  0  0
    6.6533    0.0062   19.9007 C   0  0  0  0  0  0  0  0  0  0  0  0
    5.4357    0.6408   20.1660 C   0  0  0  0  0  0  0  0  0  0  0  0
    4.8101    1.3053   19.1071 C   0  0  0  0  0  0  0  0  0  0  0  0
    5.3992    1.2942   17.8362 C   0  0  0  0  0  0  0  0  0  0  0  0
    6.5557    0.6674   17.5713 N   0  0  0  0  0  0  0  0  0  0  0  0
    7.1637    0.0516   18.5919 C   0  0  0  0  0  0  0  0  0  0  0  0
    8.1093   -0.4319   18.3618 H   0  0  0  0  0  0  0  0  0  0  0  0
    4.9225    1.7885   16.9936 H   0  0  0  0  0  0  0  0  0  0  0  0
    3.8804    1.8414   19.2542 H   0  0  0  0  0  0  0  0  0  0  0  0
    5.0193    0.6150   21.1788 H   0  0  0  0  0  0  0  0  0  0  0  0
    8.6015   -0.4957   21.4198 C   0  0  0  0  0  0  0  0  0  0  0  0
    9.5167    0.5927   20.9929 C   0  0  0  0  0  0  0  0  0  0  0  0
    9.3171    1.8800   21.7927 C   0  0  0  0  0  0  0  0  0  0  0  0
    8.0307    2.3999   21.4754 O   0  0  0  0  0  0  0  0  0  0  0  0
    7.5773    3.5427   22.0688 C   0  0  0  0  0  0  0  0  0  0  0  0
    6.3175    4.0086   21.6530 C   0  0  0  0  0  0  0  0  0  0  0  0
    5.7653    5.1662   22.2061 C   0  0  0  0  0  0  0  0  0  0  0  0
    6.4589    5.8748   23.1818 C   0  0  0  0  0  0  0  0  0  0  0  0
    5.9125    6.9788   23.7030 F   0  0  0  0  0  0  0  0  0  0  0  0
    7.7109    5.4238   23.6023 C   0  0  0  0  0  0  0  0  0  0  0  0
    8.5831    6.2951   24.8144 Cl  0  0  0  0  0  0  0  0  0  0  0  0
    8.2734    4.2634   23.0507 C   0  0  0  0  0  0  0  0  0  0  0  0
    9.2507    3.9471   23.3971 H   0  0  0  0  0  0  0  0  0  0  0  0
    4.8009    5.5530   21.8944 H   0  0  0  0  0  0  0  0  0  0  0  0
    5.7880    3.4650   20.8822 H   0  0  0  0  0  0  0  0  0  0  0  0
   10.1086    2.6029   21.5491 H   0  0  0  0  0  0  0  0  0  0  0  0
    9.3774    1.6368   22.8612 H   0  0  0  0  0  0  0  0  0  0  0  0
   10.5315    0.2248   21.1454 H   0  0  0  0  0  0  0  0  0  0  0  0
    9.4041    0.7950   19.9300 H   0  0  0  0  0  0  0  0  0  0  0  0
    8.8459   -1.3479   22.3941 N   0  0  0  0  0  0  0  0  0  0  0  0
    8.3430   -3.5062   23.8227 H   0  0  0  0  0  0  0  0  0  0  0  0
    6.6996   -3.7412   23.2368 H   0  0  0  0  0  0  0  0  0  0  0  0
    7.5593   -1.5854   25.2768 H   0  0  0  0  0  0  0  0  0  0  0  0
    5.9113   -1.8021   24.6799 H   0  0  0  0  0  0  0  0  0  0  0  0
    6.6630   -3.0601   25.6731 H   0  0  0  0  0  0  0  0  0  0  0  0
  1  2  1  0
  2  3  1  0
  3  4  2  0
  4  5  1  0
  5  6  1  0
  6  7  2  0
  7  8  1  0
  8  9  2  0
  9 10  1  0
 10 11  2  0
 11 12  1  0
  9 13  1  0
  8 14  1  0
  7 15  1  0
  5 16  1  0
 16 17  1  0
 17 18  1  0
 18 19  1  0
 19 20  1  0
 20 21  2  0
 21 22  1  0
 22 23  2  0
 23 24  1  0
 23 25  1  0
 25 26  1  0
 25 27  2  0
 27 28  1  0
 22 29  1  0
 21 30  1  0
 18 31  1  0
 18 32  1  0
 17 33  1  0
 17 34  1  0
 16 35  2  0
  2 36  1  0
  2 37  1  0
  1 38  1  0
  1 39  1  0
  1 40  1  0
 35  3  1  0
 11  6  1  0
 27 20  1  0
M  END
>  <cnnaffinity>  (1) 
-5.73733

>  <filename>  (1) 
CCc1nc(CCOc2ccc(F)c(Cl)c2)n(-c2cccnc2)n1

$$$$
