
     RDKit          3D

 46 49  0  0  0  0  0  0  0  0999 V2000
    7.0317   -1.3706   26.0889 C   0  0  0  0  0  0  0  0  0  0  0  0
    6.7361    0.0325   25.5308 C   0  0  0  0  0  0  0  0  0  0  0  0
    7.9597    0.8383   25.0852 C   0  0  0  0  0  0  0  0  0  0  0  0
    9.0648    0.9315   25.9466 C   0  0  0  0  0  0  0  0  0  0  0  0
   10.2042    1.6514   25.5821 C   0  0  0  0  0  0  0  0  0  0  0  0
   10.2559    2.3337   24.3667 C   0  0  0  0  0  0  0  0  0  0  0  0
    9.1556    2.2683   23.5072 C   0  0  0  0  0  0  0  0  0  0  0  0
    8.0324    1.4925   23.8280 C   0  0  0  0  0  0  0  0  0  0  0  0
    7.0150    1.1796   22.7378 C   0  0  0  0  0  0  0  0  0  0  0  0
    7.3029   -0.1683   22.1344 C   0  0  0  0  0  0  0  0  0  0  0  0
    7.9117   -1.1608   22.7573 N   0  0  0  0  0  0  0  0  0  0  0  0
    7.9925   -2.1328   21.8217 C   0  0  0  0  0  0  0  0  0  0  0  0
    8.6605   -3.4351   22.0788 C   0  0  0  0  0  0  0  0  0  0  0  0
    7.8688   -4.3906   22.9518 C   0  0  0  0  0  0  0  0  0  0  0  0
    8.1180   -5.8624   22.8270 C   0  0  0  0  0  0  0  0  0  0  0  0
    6.8238   -5.2703   22.3376 C   0  0  0  0  0  0  0  0  0  0  0  0
    6.6423   -5.1956   21.2675 H   0  0  0  0  0  0  0  0  0  0  0  0
    5.9261   -5.4631   22.9169 H   0  0  0  0  0  0  0  0  0  0  0  0
    8.8467   -6.1928   22.0924 H   0  0  0  0  0  0  0  0  0  0  0  0
    8.1113   -6.4668   23.7279 H   0  0  0  0  0  0  0  0  0  0  0  0
    7.6448   -4.0214   23.9553 H   0  0  0  0  0  0  0  0  0  0  0  0
    8.8505   -3.8735   21.0973 H   0  0  0  0  0  0  0  0  0  0  0  0
    9.6241   -3.2242   22.5516 H   0  0  0  0  0  0  0  0  0  0  0  0
    7.4877   -1.8089   20.6510 N   0  0  0  0  0  0  0  0  0  0  0  0
    7.0084   -0.5534   20.8541 N   0  0  0  0  0  0  0  0  0  0  0  0
    6.3976    0.1327   19.7709 C   0  0  0  0  0  0  0  0  0  0  0  0
    5.2239    0.8885   19.9056 C   0  0  0  0  0  0  0  0  0  0  0  0
    4.7161    1.5160   18.7619 C   0  0  0  0  0  0  0  0  0  0  0  0
    5.3890    1.3738   17.5465 C   0  0  0  0  0  0  0  0  0  0  0  0
    6.5014    0.6289   17.4068 N   0  0  0  0  0  0  0  0  0  0  0  0
    6.9783    0.0202   18.4932 C   0  0  0  0  0  0  0  0  0  0  0  0
    7.8737   -0.5856   18.3669 H   0  0  0  0  0  0  0  0  0  0  0  0
    5.0309    1.8678   16.6466 H   0  0  0  0  0  0  0  0  0  0  0  0
    3.8157    2.1208   18.8025 H   0  0  0  0  0  0  0  0  0  0  0  0
    4.7073    0.9682   20.8619 H   0  0  0  0  0  0  0  0  0  0  0  0
    7.0357    1.9322   21.9413 H   0  0  0  0  0  0  0  0  0  0  0  0
    5.9979    1.1584   23.1508 H   0  0  0  0  0  0  0  0  0  0  0  0
    9.1828    2.8153   22.5649 H   0  0  0  0  0  0  0  0  0  0  0  0
   11.1494    2.8722   24.0592 H   0  0  0  0  0  0  0  0  0  0  0  0
   11.0478    1.6419   26.2521 H   0  0  0  0  0  0  0  0  0  0  0  0
    9.0482    0.4000   26.8977 H   0  0  0  0  0  0  0  0  0  0  0  0
    6.1540    0.6211   26.2594 H   0  0  0  0  0  0  0  0  0  0  0  0
    6.0602   -0.1145   24.6861 H   0  0  0  0  0  0  0  0  0  0  0  0
    7.5811   -1.9728   25.3526 H   0  0  0  0  0  0  0  0  0  0  0  0
    6.0885   -1.8821   26.3159 H   0  0  0  0  0  0  0  0  0  0  0  0
    7.6218   -1.3494   27.0116 H   0  0  0  0  0  0  0  0  0  0  0  0
  1  2  1  0
  2  3  1  0
  3  4  2  0
  4  5  1  0
  5  6  2  0
  6  7  1  0
  7  8  2  0
  8  9  1  0
  9 10  1  0
 10 11  2  0
 11 12  1  0
 12 13  1  0
 13 14  1  0
 14 15  1  0
 15 16  1  0
 16 17  1  0
 16 18  1  0
 15 19  1  0
 15 20  1  0
 14 21  1  0
 13 22  1  0
 13 23  1  0
 12 24  2  0
 24 25  1  0
 25 26  1  0
 26 27  2  0
 27 28  1  0
 28 29  2  0
 29 30  1  0
 30 31  2  0
 31 32  1  0
 29 33  1  0
 28 34  1  0
 27 35  1  0
  9 36  1  0
  9 37  1  0
  7 38  1  0
  6 39  1  0
  5 40  1  0
  4 41  1  0
  2 42  1  0
  2 43  1  0
  1 44  1  0
  1 45  1  0
  1 46  1  0
  8  3  1  0
 25 10  1  0
 31 26  1  0
 16 14  1  0
M  END
>  <cnnaffinity>  (1) 
-6.7996

>  <filename>  (1) 
CCc1ccccc1Cc1nc(CC2CC2)nn1-c1cccnc1

$$$$
