
     RDKit          3D

 45 48  0  0  0  0  0  0  0  0999 V2000
   12.5300    0.5401   24.9708 C   0  0  0  0  0  0  0  0  0  0  0  0
   13.0075    1.1881   23.6624 C   0  0  0  0  0  0  0  0  0  0  0  0
   11.7987    1.5154   22.8525 C   0  0  0  0  0  0  0  0  0  0  0  0
   11.3362    0.6743   21.9845 N   0  0  0  0  0  0  0  0  0  0  0  0
   10.1028    1.0438   21.5334 C   0  0  0  0  0  0  0  0  0  0  0  0
    9.4321    0.1449   20.5549 C   0  0  0  0  0  0  0  0  0  0  0  0
    8.3914   -0.7045   21.1898 C   0  0  0  0  0  0  0  0  0  0  0  0
    8.6127   -1.4728   22.2340 N   0  0  0  0  0  0  0  0  0  0  0  0
    7.4291   -2.1105   22.4119 C   0  0  0  0  0  0  0  0  0  0  0  0
    7.2305   -3.1229   23.5075 C   0  0  0  0  0  0  0  0  0  0  0  0
    6.3060   -2.6932   24.6725 C   0  0  0  0  0  0  0  0  0  0  0  0
    5.8364   -4.0034   25.3406 C   0  0  0  0  0  0  0  0  0  0  0  0
    6.0981   -5.1375   24.3211 C   0  0  0  0  0  0  0  0  0  0  0  0
    6.6127   -4.4571   23.0417 C   0  0  0  0  0  0  0  0  0  0  0  0
    7.3334   -5.0764   22.4960 H   0  0  0  0  0  0  0  0  0  0  0  0
    5.7824   -4.2358   22.3607 H   0  0  0  0  0  0  0  0  0  0  0  0
    5.1985   -5.7316   24.1251 H   0  0  0  0  0  0  0  0  0  0  0  0
    6.8442   -5.8342   24.7217 H   0  0  0  0  0  0  0  0  0  0  0  0
    6.3846   -4.1966   26.2700 H   0  0  0  0  0  0  0  0  0  0  0  0
    4.7784   -3.9399   25.6182 H   0  0  0  0  0  0  0  0  0  0  0  0
    6.8160   -2.0276   25.3771 H   0  0  0  0  0  0  0  0  0  0  0  0
    5.4465   -2.1446   24.2792 H   0  0  0  0  0  0  0  0  0  0  0  0
    8.2339   -3.3006   23.9100 H   0  0  0  0  0  0  0  0  0  0  0  0
    6.4897   -1.7769   21.5389 N   0  0  0  0  0  0  0  0  0  0  0  0
    7.1169   -0.8873   20.7291 N   0  0  0  0  0  0  0  0  0  0  0  0
    6.4040   -0.2140   19.6887 C   0  0  0  0  0  0  0  0  0  0  0  0
    5.2520    0.5260   19.9819 C   0  0  0  0  0  0  0  0  0  0  0  0
    4.7179    1.3322   18.9720 C   0  0  0  0  0  0  0  0  0  0  0  0
    5.3093    1.3246   17.7050 C   0  0  0  0  0  0  0  0  0  0  0  0
    6.3384    0.5242   17.3849 N   0  0  0  0  0  0  0  0  0  0  0  0
    6.8560   -0.2390   18.3562 C   0  0  0  0  0  0  0  0  0  0  0  0
    7.6783   -0.8936   18.0666 H   0  0  0  0  0  0  0  0  0  0  0  0
    4.9412    1.9777   16.9173 H   0  0  0  0  0  0  0  0  0  0  0  0
    3.8631    1.9731   19.1604 H   0  0  0  0  0  0  0  0  0  0  0  0
    4.8032    0.4623   20.9730 H   0  0  0  0  0  0  0  0  0  0  0  0
    9.0210    0.7356   19.7370 H   0  0  0  0  0  0  0  0  0  0  0  0
   10.2055   -0.5258   20.1764 H   0  0  0  0  0  0  0  0  0  0  0  0
    9.6080    2.1870   22.0612 C   0  0  0  0  0  0  0  0  0  0  0  0
   10.7305    2.8523   23.1883 S   0  0  0  0  0  0  0  0  0  0  0  0
    8.6608    2.6474   21.8283 H   0  0  0  0  0  0  0  0  0  0  0  0
   13.6114    2.0818   23.8517 H   0  0  0  0  0  0  0  0  0  0  0  0
   13.5987    0.4753   23.0723 H   0  0  0  0  0  0  0  0  0  0  0  0
   13.3574    0.2710   25.6239 H   0  0  0  0  0  0  0  0  0  0  0  0
   11.9498   -0.3654   24.7602 H   0  0  0  0  0  0  0  0  0  0  0  0
   11.8717    1.2326   25.5003 H   0  0  0  0  0  0  0  0  0  0  0  0
  1  2  1  0
  2  3  1  0
  3  4  2  0
  4  5  1  0
  5  6  1  0
  6  7  1  0
  7  8  2  0
  8  9  1  0
  9 10  1  0
 10 11  1  0
 11 12  1  0
 12 13  1  0
 13 14  1  0
 14 15  1  0
 14 16  1  0
 13 17  1  0
 13 18  1  0
 12 19  1  0
 12 20  1  0
 11 21  1  0
 11 22  1  0
 10 23  1  0
  9 24  2  0
 24 25  1  0
 25 26  1  0
 26 27  2  0
 27 28  1  0
 28 29  2  0
 29 30  1  0
 30 31  2  0
 31 32  1  0
 29 33  1  0
 28 34  1  0
 27 35  1  0
  6 36  1  0
  6 37  1  0
  5 38  2  0
 38 39  1  0
 38 40  1  0
  2 41  1  0
  2 42  1  0
  1 43  1  0
  1 44  1  0
  1 45  1  0
 39  3  1  0
 25  7  1  0
 31 26  1  0
 14 10  1  0
M  END
>  <cnnaffinity>  (1) 
-6.21467

>  <filename>  (1) 
CCc1nc(Cc2nc(C3CCCC3)nn2-c2cccnc2)cs1

$$$$
