
     RDKit          3D

 42 45  0  0  0  0  0  0  0  0999 V2000
   11.8507    2.0022   23.7789 C   0  0  0  0  0  0  0  0  0  0  0  0
   10.4262    1.4989   24.0429 C   0  0  0  0  0  0  0  0  0  0  0  0
    9.4122    2.3194   23.2551 C   0  0  0  0  0  0  0  0  0  0  0  0
    8.9615    3.5460   23.7801 C   0  0  0  0  0  0  0  0  0  0  0  0
    8.0098    4.3237   23.1099 C   0  0  0  0  0  0  0  0  0  0  0  0
    7.4674    3.8774   21.8979 C   0  0  0  0  0  0  0  0  0  0  0  0
    7.9491    2.6816   21.3548 C   0  0  0  0  0  0  0  0  0  0  0  0
    8.9644    1.9452   21.9712 C   0  0  0  0  0  0  0  0  0  0  0  0
    9.4842    0.7177   21.2271 C   0  0  0  0  0  0  0  0  0  0  0  0
    8.6192   -0.4765   21.4835 C   0  0  0  0  0  0  0  0  0  0  0  0
    8.8370   -1.3776   22.4079 N   0  0  0  0  0  0  0  0  0  0  0  0
    7.6692   -2.0981   22.4558 C   0  0  0  0  0  0  0  0  0  0  0  0
    7.4868   -3.2007   23.4560 C   0  0  0  0  0  0  0  0  0  0  0  0
    8.4455   -3.5351   24.3789 C   0  0  0  0  0  0  0  0  0  0  0  0
    7.9067   -4.8103   25.3828 S   0  0  0  0  0  0  0  0  0  0  0  0
    6.4138   -4.8273   24.5065 C   0  0  0  0  0  0  0  0  0  0  0  0
    6.3247   -3.9654   23.5464 N   0  0  0  0  0  0  0  0  0  0  0  0
    5.6155   -5.5170   24.7593 H   0  0  0  0  0  0  0  0  0  0  0  0
    9.4219   -3.0843   24.5116 H   0  0  0  0  0  0  0  0  0  0  0  0
    6.7623   -1.6885   21.5831 N   0  0  0  0  0  0  0  0  0  0  0  0
    7.3805   -0.6731   20.9334 N   0  0  0  0  0  0  0  0  0  0  0  0
    6.6857   -0.0129   19.8742 C   0  0  0  0  0  0  0  0  0  0  0  0
    5.4556    0.5998   20.1324 C   0  0  0  0  0  0  0  0  0  0  0  0
    4.8296    1.2840   19.0881 C   0  0  0  0  0  0  0  0  0  0  0  0
    5.4216    1.2936   17.8193 C   0  0  0  0  0  0  0  0  0  0  0  0
    6.5706    0.6548   17.5513 N   0  0  0  0  0  0  0  0  0  0  0  0
    7.1801    0.0166   18.5593 C   0  0  0  0  0  0  0  0  0  0  0  0
    8.0986   -0.5054   18.3019 H   0  0  0  0  0  0  0  0  0  0  0  0
    4.9505    1.8153   16.9871 H   0  0  0  0  0  0  0  0  0  0  0  0
    3.8939    1.8062   19.2438 H   0  0  0  0  0  0  0  0  0  0  0  0
    5.0223    0.5439   21.1335 H   0  0  0  0  0  0  0  0  0  0  0  0
   10.5079    0.4679   21.5329 H   0  0  0  0  0  0  0  0  0  0  0  0
    9.5048    0.9032   20.1500 H   0  0  0  0  0  0  0  0  0  0  0  0
    7.5413    2.2976   20.4248 H   0  0  0  0  0  0  0  0  0  0  0  0
    6.6837    4.4355   21.3822 H   0  0  0  0  0  0  0  0  0  0  0  0
    7.6800    5.2685   23.5377 H   0  0  0  0  0  0  0  0  0  0  0  0
    9.3600    3.8835   24.7387 H   0  0  0  0  0  0  0  0  0  0  0  0
   10.2024    1.5816   25.1157 H   0  0  0  0  0  0  0  0  0  0  0  0
   10.3370    0.4269   23.8099 H   0  0  0  0  0  0  0  0  0  0  0  0
   12.5958    1.4730   24.3809 H   0  0  0  0  0  0  0  0  0  0  0  0
   12.1021    1.8748   22.7187 H   0  0  0  0  0  0  0  0  0  0  0  0
   11.9325    3.0722   24.0073 H   0  0  0  0  0  0  0  0  0  0  0  0
  1  2  1  0
  2  3  1  0
  3  4  2  0
  4  5  1  0
  5  6  2  0
  6  7  1  0
  7  8  2  0
  8  9  1  0
  9 10  1  0
 10 11  2  0
 11 12  1  0
 12 13  1  0
 13 14  2  0
 14 15  1  0
 15 16  1  0
 16 17  2  0
 16 18  1  0
 14 19  1  0
 12 20  2  0
 20 21  1  0
 21 22  1  0
 22 23  2  0
 23 24  1  0
 24 25  2  0
 25 26  1  0
 26 27  2  0
 27 28  1  0
 25 29  1  0
 24 30  1  0
 23 31  1  0
  9 32  1  0
  9 33  1  0
  7 34  1  0
  6 35  1  0
  5 36  1  0
  4 37  1  0
  2 38  1  0
  2 39  1  0
  1 40  1  0
  1 41  1  0
  1 42  1  0
  8  3  1  0
 21 10  1  0
 27 22  1  0
 17 13  1  0
M  END
>  <cnnaffinity>  (1) 
-6.09879

>  <filename>  (1) 
CCc1ccccc1Cc1nc(-c2cscn2)nn1-c1cccnc1

$$$$
