
     RDKit          3D

 36 38  0  0  0  0  0  0  0  0999 V2000
    7.7263   -4.3972   23.1583 C   0  0  0  0  0  0  0  0  0  0  0  0
    8.6287   -3.5737   22.2300 C   0  0  0  0  0  0  0  0  0  0  0  0
    8.1451   -2.1899   21.9441 C   0  0  0  0  0  0  0  0  0  0  0  0
    7.6017   -1.9287   20.7878 N   0  0  0  0  0  0  0  0  0  0  0  0
    7.3572   -0.6124   20.8782 N   0  0  0  0  0  0  0  0  0  0  0  0
    6.6876    0.0620   19.8755 C   0  0  0  0  0  0  0  0  0  0  0  0
    5.5034    0.7347   20.1539 C   0  0  0  0  0  0  0  0  0  0  0  0
    4.8568    1.3490   19.0843 C   0  0  0  0  0  0  0  0  0  0  0  0
    5.4146    1.2933   17.8002 C   0  0  0  0  0  0  0  0  0  0  0  0
    6.5391    0.6008   17.5324 N   0  0  0  0  0  0  0  0  0  0  0  0
    7.1567   -0.0180   18.5545 C   0  0  0  0  0  0  0  0  0  0  0  0
    8.0564   -0.5972   18.3513 H   0  0  0  0  0  0  0  0  0  0  0  0
    4.9337    1.8407   16.9961 H   0  0  0  0  0  0  0  0  0  0  0  0
    3.9270    1.8774   19.2382 H   0  0  0  0  0  0  0  0  0  0  0  0
    5.0890    0.7366   21.1649 H   0  0  0  0  0  0  0  0  0  0  0  0
    7.7957   -0.1083   22.0960 C   0  0  0  0  0  0  0  0  0  0  0  0
    7.7253    1.3412   22.5305 C   0  0  0  0  0  0  0  0  0  0  0  0
    7.9485    1.4787   24.0170 C   0  0  0  0  0  0  0  0  0  0  0  0
    6.8672    1.3206   24.8994 C   0  0  0  0  0  0  0  0  0  0  0  0
    5.0906    1.0833   24.2350 Br  0  0  0  0  0  0  0  0  0  0  0  0
    7.0823    1.3366   26.2782 C   0  0  0  0  0  0  0  0  0  0  0  0
    8.3623    1.5494   26.7875 C   0  0  0  0  0  0  0  0  0  0  0  0
    9.4412    1.7154   25.9124 C   0  0  0  0  0  0  0  0  0  0  0  0
    9.2393    1.6898   24.5330 C   0  0  0  0  0  0  0  0  0  0  0  0
   10.3018    1.8507   23.7097 F   0  0  0  0  0  0  0  0  0  0  0  0
   10.4491    1.8467   26.2897 H   0  0  0  0  0  0  0  0  0  0  0  0
    8.5004    1.5880   27.8620 H   0  0  0  0  0  0  0  0  0  0  0  0
    6.2495    1.1783   26.9561 H   0  0  0  0  0  0  0  0  0  0  0  0
    6.7437    1.7469   22.2744 H   0  0  0  0  0  0  0  0  0  0  0  0
    8.4669    1.9355   21.9871 H   0  0  0  0  0  0  0  0  0  0  0  0
    8.3058   -1.0993   22.7822 N   0  0  0  0  0  0  0  0  0  0  0  0
    8.6901   -4.0869   21.2721 H   0  0  0  0  0  0  0  0  0  0  0  0
    9.6265   -3.4920   22.6680 H   0  0  0  0  0  0  0  0  0  0  0  0
    8.1977   -5.3650   23.3577 H   0  0  0  0  0  0  0  0  0  0  0  0
    6.7517   -4.5865   22.6963 H   0  0  0  0  0  0  0  0  0  0  0  0
    7.5769   -3.8665   24.1049 H   0  0  0  0  0  0  0  0  0  0  0  0
  1  2  1  0
  2  3  1  0
  3  4  2  0
  4  5  1  0
  5  6  1  0
  6  7  2  0
  7  8  1  0
  8  9  2  0
  9 10  1  0
 10 11  2  0
 11 12  1  0
  9 13  1  0
  8 14  1  0
  7 15  1  0
  5 16  1  0
 16 17  1  0
 17 18  1  0
 18 19  2  0
 19 20  1  0
 19 21  1  0
 21 22  2  0
 22 23  1  0
 23 24  2  0
 24 25  1  0
 23 26  1  0
 22 27  1  0
 21 28  1  0
 17 29  1  0
 17 30  1  0
 16 31  2  0
  2 32  1  0
  2 33  1  0
  1 34  1  0
  1 35  1  0
  1 36  1  0
 31  3  1  0
 11  6  1  0
 24 18  1  0
M  END
>  <cnnaffinity>  (1) 
-5.89074

>  <filename>  (1) 
CCc1nc(Cc2c(F)cccc2Br)n(-c2cccnc2)n1

$$$$
