
     RDKit          3D

 33 35  0  0  0  0  0  0  0  0999 V2000
    7.8156   -4.6379   22.6438 C   0  0  0  0  0  0  0  0  0  0  0  0
    8.7440   -3.5325   22.1188 C   0  0  0  0  0  0  0  0  0  0  0  0
    8.1581   -2.1774   21.9541 C   0  0  0  0  0  0  0  0  0  0  0  0
    7.8157   -1.7730   20.7503 N   0  0  0  0  0  0  0  0  0  0  0  0
    7.3295   -0.5327   20.9597 N   0  0  0  0  0  0  0  0  0  0  0  0
    6.6305    0.1056   19.9080 C   0  0  0  0  0  0  0  0  0  0  0  0
    5.3923    0.7151   20.1284 C   0  0  0  0  0  0  0  0  0  0  0  0
    4.7744    1.3262   19.0362 C   0  0  0  0  0  0  0  0  0  0  0  0
    5.4132    1.2914   17.7909 C   0  0  0  0  0  0  0  0  0  0  0  0
    6.5626    0.6278   17.5636 N   0  0  0  0  0  0  0  0  0  0  0  0
    7.1490    0.0325   18.6040 C   0  0  0  0  0  0  0  0  0  0  0  0
    8.0576   -0.5417   18.4132 H   0  0  0  0  0  0  0  0  0  0  0  0
    4.9984    1.8277   16.9424 H   0  0  0  0  0  0  0  0  0  0  0  0
    3.8313    1.8484   19.1509 H   0  0  0  0  0  0  0  0  0  0  0  0
    4.9365    0.6848   21.1214 H   0  0  0  0  0  0  0  0  0  0  0  0
    7.4661   -0.2284   22.2844 C   0  0  0  0  0  0  0  0  0  0  0  0
    7.1353    1.0630   22.9046 C   0  0  0  0  0  0  0  0  0  0  0  0
    6.4569    1.0819   24.1316 C   0  0  0  0  0  0  0  0  0  0  0  0
    6.0788    2.2865   24.7144 C   0  0  0  0  0  0  0  0  0  0  0  0
    6.3944    3.4985   24.0885 C   0  0  0  0  0  0  0  0  0  0  0  0
    7.0959    3.4949   22.8798 C   0  0  0  0  0  0  0  0  0  0  0  0
    7.5113    4.9743   22.0853 Cl  0  0  0  0  0  0  0  0  0  0  0  0
    7.4757    2.2831   22.3012 C   0  0  0  0  0  0  0  0  0  0  0  0
    8.1647    2.2845   21.1569 F   0  0  0  0  0  0  0  0  0  0  0  0
    6.1043    4.4462   24.5283 H   0  0  0  0  0  0  0  0  0  0  0  0
    5.5325    2.2780   25.6520 H   0  0  0  0  0  0  0  0  0  0  0  0
    6.2221    0.1309   24.6040 H   0  0  0  0  0  0  0  0  0  0  0  0
    7.9554   -1.2670   22.9369 N   0  0  0  0  0  0  0  0  0  0  0  0
    9.6321   -3.4197   22.7461 H   0  0  0  0  0  0  0  0  0  0  0  0
    9.0505   -3.8028   21.1089 H   0  0  0  0  0  0  0  0  0  0  0  0
    7.3454   -4.3866   23.6017 H   0  0  0  0  0  0  0  0  0  0  0  0
    8.4086   -5.5481   22.7730 H   0  0  0  0  0  0  0  0  0  0  0  0
    7.0195   -4.8618   21.9253 H   0  0  0  0  0  0  0  0  0  0  0  0
  1  2  1  0
  2  3  1  0
  3  4  2  0
  4  5  1  0
  5  6  1  0
  6  7  2  0
  7  8  1  0
  8  9  2  0
  9 10  1  0
 10 11  2  0
 11 12  1  0
  9 13  1  0
  8 14  1  0
  7 15  1  0
  5 16  1  0
 16 17  1  0
 17 18  2  0
 18 19  1  0
 19 20  2  0
 20 21  1  0
 21 22  1  0
 21 23  2  0
 23 24  1  0
 20 25  1  0
 19 26  1  0
 18 27  1  0
 16 28  2  0
  2 29  1  0
  2 30  1  0
  1 31  1  0
  1 32  1  0
  1 33  1  0
 28  3  1  0
 11  6  1  0
 23 17  1  0
M  END
>  <cnnaffinity>  (1) 
-5.40634

>  <filename>  (1) 
CCc1nc(-c2cccc(Cl)c2F)n(-c2cccnc2)n1

$$$$
