
     RDKit          3D

 46 49  0  0  0  0  0  0  0  0999 V2000
    7.9191    6.1286   21.4846 C   0  0  0  0  0  0  0  0  0  0  0  0
    7.1802    4.9524   22.1440 C   0  0  0  0  0  0  0  0  0  0  0  0
    8.0379    3.7228   22.2641 C   0  0  0  0  0  0  0  0  0  0  0  0
    8.8789    3.5723   23.2591 N   0  0  0  0  0  0  0  0  0  0  0  0
    9.5609    2.3887   23.0123 O   0  0  0  0  0  0  0  0  0  0  0  0
    9.1270    1.8582   21.8695 C   0  0  0  0  0  0  0  0  0  0  0  0
    9.6579    0.5555   21.3625 C   0  0  0  0  0  0  0  0  0  0  0  0
    8.6727   -0.5401   21.5997 C   0  0  0  0  0  0  0  0  0  0  0  0
    8.8423   -1.3960   22.5708 N   0  0  0  0  0  0  0  0  0  0  0  0
    7.6674   -2.0830   22.5975 C   0  0  0  0  0  0  0  0  0  0  0  0
    7.4177   -3.0771   23.6841 C   0  0  0  0  0  0  0  0  0  0  0  0
    7.2553   -2.3328   25.0439 C   0  0  0  0  0  0  0  0  0  0  0  0
    7.3514   -3.2516   26.2356 C   0  0  0  0  0  0  0  0  0  0  0  0
    7.8203   -4.4996   26.1647 C   0  0  0  0  0  0  0  0  0  0  0  0
    8.3534   -5.1199   24.8937 C   0  0  0  0  0  0  0  0  0  0  0  0
    8.5881   -4.0835   23.7843 C   0  0  0  0  0  0  0  0  0  0  0  0
    8.7514   -4.5831   22.8223 H   0  0  0  0  0  0  0  0  0  0  0  0
    9.5006   -3.5103   23.9999 H   0  0  0  0  0  0  0  0  0  0  0  0
    7.6462   -5.8900   24.5519 H   0  0  0  0  0  0  0  0  0  0  0  0
    9.2873   -5.6558   25.1129 H   0  0  0  0  0  0  0  0  0  0  0  0
    7.8056   -5.1320   27.0522 H   0  0  0  0  0  0  0  0  0  0  0  0
    7.0553   -2.8321   27.1972 H   0  0  0  0  0  0  0  0  0  0  0  0
    8.0486   -1.5736   25.1310 H   0  0  0  0  0  0  0  0  0  0  0  0
    6.3103   -1.7734   25.0708 H   0  0  0  0  0  0  0  0  0  0  0  0
    6.4846   -3.5989   23.4385 H   0  0  0  0  0  0  0  0  0  0  0  0
    6.7967   -1.7252   21.6842 N   0  0  0  0  0  0  0  0  0  0  0  0
    7.4497   -0.7285   21.0117 N   0  0  0  0  0  0  0  0  0  0  0  0
    6.7642   -0.0601   19.9461 C   0  0  0  0  0  0  0  0  0  0  0  0
    5.5457    0.5856   20.1969 C   0  0  0  0  0  0  0  0  0  0  0  0
    4.9216    1.2602   19.1440 C   0  0  0  0  0  0  0  0  0  0  0  0
    5.5112    1.2407   17.8739 C   0  0  0  0  0  0  0  0  0  0  0  0
    6.6499    0.5778   17.6129 N   0  0  0  0  0  0  0  0  0  0  0  0
    7.2525   -0.0581   18.6277 C   0  0  0  0  0  0  0  0  0  0  0  0
    8.1565   -0.6099   18.3720 H   0  0  0  0  0  0  0  0  0  0  0  0
    5.0483    1.7658   17.0377 H   0  0  0  0  0  0  0  0  0  0  0  0
    3.9927    1.8008   19.2976 H   0  0  0  0  0  0  0  0  0  0  0  0
    5.1108    0.5473   21.1975 H   0  0  0  0  0  0  0  0  0  0  0  0
   10.5909    0.3010   21.8694 H   0  0  0  0  0  0  0  0  0  0  0  0
    9.8269    0.6366   20.2905 H   0  0  0  0  0  0  0  0  0  0  0  0
    8.1524    2.6356   21.3539 C   0  0  0  0  0  0  0  0  0  0  0  0
    7.6102    2.4289   20.4528 H   0  0  0  0  0  0  0  0  0  0  0  0
    6.2849    4.6933   21.5673 H   0  0  0  0  0  0  0  0  0  0  0  0
    6.8222    5.2458   23.1348 H   0  0  0  0  0  0  0  0  0  0  0  0
    8.3675    5.8339   20.5280 H   0  0  0  0  0  0  0  0  0  0  0  0
    7.2255    6.9484   21.2834 H   0  0  0  0  0  0  0  0  0  0  0  0
    8.7041    6.4882   22.1599 H   0  0  0  0  0  0  0  0  0  0  0  0
  1  2  1  0
  2  3  1  0
  3  4  2  0
  4  5  1  0
  5  6  1  0
  6  7  1  0
  7  8  1  0
  8  9  2  0
  9 10  1  0
 10 11  1  0
 11 12  1  0
 12 13  1  0
 13 14  2  0
 14 15  1  0
 15 16  1  0
 16 17  1  0
 16 18  1  0
 15 19  1  0
 15 20  1  0
 14 21  1  0
 13 22  1  0
 12 23  1  0
 12 24  1  0
 11 25  1  0
 10 26  2  0
 26 27  1  0
 27 28  1  0
 28 29  2  0
 29 30  1  0
 30 31  2  0
 31 32  1  0
 32 33  2  0
 33 34  1  0
 31 35  1  0
 30 36  1  0
 29 37  1  0
  7 38  1  0
  7 39  1  0
  6 40  2  0
 40 41  1  0
  2 42  1  0
  2 43  1  0
  1 44  1  0
  1 45  1  0
  1 46  1  0
 40  3  1  0
 27  8  1  0
 33 28  1  0
 16 11  1  0
M  END
>  <cnnaffinity>  (1) 
-6.36715

>  <filename>  (1) 
CCc1cc(Cc2nc(C3CC=CCC3)nn2-c2cccnc2)on1

$$$$
