
     RDKit          3D

 43 46  0  0  0  0  0  0  0  0999 V2000
    7.9735    0.7908   28.3235 C   0  0  0  0  0  0  0  0  0  0  0  0
    8.2251   -0.2718   27.2436 C   0  0  0  0  0  0  0  0  0  0  0  0
    7.6179    0.1035   25.9383 C   0  0  0  0  0  0  0  0  0  0  0  0
    6.3539   -0.0545   25.4311 C   0  0  0  0  0  0  0  0  0  0  0  0
    6.2292    0.5882   24.2195 N   0  0  0  0  0  0  0  0  0  0  0  0
    7.3856    1.1451   24.0049 C   0  0  0  0  0  0  0  0  0  0  0  0
    7.7829    1.8570   22.7618 C   0  0  0  0  0  0  0  0  0  0  0  0
    8.8129    1.0386   22.0901 C   0  0  0  0  0  0  0  0  0  0  0  0
   10.0961    1.1633   22.3266 N   0  0  0  0  0  0  0  0  0  0  0  0
   10.6242    0.0821   21.6905 C   0  0  0  0  0  0  0  0  0  0  0  0
   12.0478   -0.2240   21.7566 C   0  0  0  0  0  0  0  0  0  0  0  0
   12.6032   -1.3660   21.2412 C   0  0  0  0  0  0  0  0  0  0  0  0
   14.2871   -1.4060   21.4589 S   0  0  0  0  0  0  0  0  0  0  0  0
   14.2759    0.1262   22.2455 C   0  0  0  0  0  0  0  0  0  0  0  0
   13.0265    0.6376   22.3494 C   0  0  0  0  0  0  0  0  0  0  0  0
   12.8016    1.5792   22.8497 H   0  0  0  0  0  0  0  0  0  0  0  0
   15.1997    0.5914   22.5475 H   0  0  0  0  0  0  0  0  0  0  0  0
   12.0890   -2.1726   20.7350 H   0  0  0  0  0  0  0  0  0  0  0  0
    9.7348   -0.6822   21.0785 N   0  0  0  0  0  0  0  0  0  0  0  0
    8.5652   -0.0733   21.3697 N   0  0  0  0  0  0  0  0  0  0  0  0
    7.2877   -0.6829   21.0030 C   0  0  0  0  0  0  0  0  0  0  0  0
    6.5625    0.0479   19.8973 C   0  0  0  0  0  0  0  0  0  0  0  0
    5.3383    0.6936   20.0970 C   0  0  0  0  0  0  0  0  0  0  0  0
    4.7418    1.3559   19.0216 C   0  0  0  0  0  0  0  0  0  0  0  0
    5.3890    1.3349   17.7827 C   0  0  0  0  0  0  0  0  0  0  0  0
    6.5526    0.7017   17.5658 N   0  0  0  0  0  0  0  0  0  0  0  0
    7.1180    0.0814   18.6076 C   0  0  0  0  0  0  0  0  0  0  0  0
    8.0533   -0.4409   18.4049 H   0  0  0  0  0  0  0  0  0  0  0  0
    4.9492    1.8342   16.9221 H   0  0  0  0  0  0  0  0  0  0  0  0
    3.8006    1.8823   19.1308 H   0  0  0  0  0  0  0  0  0  0  0  0
    4.8527    0.6652   21.0769 H   0  0  0  0  0  0  0  0  0  0  0  0
    6.6552   -0.7374   21.8977 H   0  0  0  0  0  0  0  0  0  0  0  0
    7.5283   -1.7067   20.7015 H   0  0  0  0  0  0  0  0  0  0  0  0
    8.2138    2.8296   22.9964 H   0  0  0  0  0  0  0  0  0  0  0  0
    6.9017    1.9747   22.1360 H   0  0  0  0  0  0  0  0  0  0  0  0
    8.2691    0.9002   25.0071 N   0  0  0  0  0  0  0  0  0  0  0  0
    9.2660    0.9618   24.8545 H   0  0  0  0  0  0  0  0  0  0  0  0
    5.5330   -0.6101   25.8657 H   0  0  0  0  0  0  0  0  0  0  0  0
    7.8090   -1.2357   27.5578 H   0  0  0  0  0  0  0  0  0  0  0  0
    9.3039   -0.4327   27.1220 H   0  0  0  0  0  0  0  0  0  0  0  0
    8.2625    1.7862   27.9668 H   0  0  0  0  0  0  0  0  0  0  0  0
    8.5620    0.5783   29.2201 H   0  0  0  0  0  0  0  0  0  0  0  0
    6.9158    0.8207   28.6029 H   0  0  0  0  0  0  0  0  0  0  0  0
  1  2  1  0
  2  3  1  0
  3  4  2  0
  4  5  1  0
  5  6  2  0
  6  7  1  0
  7  8  1  0
  8  9  2  0
  9 10  1  0
 10 11  1  0
 11 12  2  0
 12 13  1  0
 13 14  1  0
 14 15  2  0
 15 16  1  0
 14 17  1  0
 12 18  1  0
 10 19  2  0
 19 20  1  0
 20 21  1  0
 21 22  1  0
 22 23  2  0
 23 24  1  0
 24 25  2  0
 25 26  1  0
 26 27  2  0
 27 28  1  0
 25 29  1  0
 24 30  1  0
 23 31  1  0
 21 32  1  0
 21 33  1  0
  7 34  1  0
  7 35  1  0
  6 36  1  0
 36 37  1  0
  4 38  1  0
  2 39  1  0
  2 40  1  0
  1 41  1  0
  1 42  1  0
  1 43  1  0
 36  3  1  0
 20  8  1  0
 27 22  1  0
 15 11  1  0
M  END
>  <cnnaffinity>  (1) 
-6.7654

>  <filename>  (1) 
CCc1cnc(Cc2nc(-c3ccsc3)nn2Cc2cccnc2)[nH]1

$$$$
