
     RDKit          3D

 49 52  0  0  0  0  0  0  0  0999 V2000
    7.9836    0.7879   28.3966 C   0  0  0  0  0  0  0  0  0  0  0  0
    8.2722   -0.2424   27.2965 C   0  0  0  0  0  0  0  0  0  0  0  0
    7.6290    0.1188   25.9983 C   0  0  0  0  0  0  0  0  0  0  0  0
    6.3880   -0.1021   25.4622 C   0  0  0  0  0  0  0  0  0  0  0  0
    6.2650    0.5208   24.2390 N   0  0  0  0  0  0  0  0  0  0  0  0
    7.4018    1.1299   24.0445 C   0  0  0  0  0  0  0  0  0  0  0  0
    7.8359    1.8057   22.7891 C   0  0  0  0  0  0  0  0  0  0  0  0
    8.8670    0.9333   22.1732 C   0  0  0  0  0  0  0  0  0  0  0  0
   10.1561    0.9618   22.4485 N   0  0  0  0  0  0  0  0  0  0  0  0
   10.6371   -0.1445   21.8083 C   0  0  0  0  0  0  0  0  0  0  0  0
   12.0780   -0.5101   21.6850 C   0  0  0  0  0  0  0  0  0  0  0  0
   12.4498   -1.6238   20.9087 C   0  0  0  0  0  0  0  0  0  0  0  0
   13.7339   -1.7802   20.3530 C   0  0  0  0  0  0  0  0  0  0  0  0
   14.7083   -0.7883   20.5507 C   0  0  0  0  0  0  0  0  0  0  0  0
   16.0183   -0.3236   19.6556 C   0  0  0  0  0  0  0  0  0  0  0  0
   16.4225    0.5394   20.1586 H   0  0  0  0  0  0  0  0  0  0  0  0
   16.8154   -1.0683   19.6512 H   0  0  0  0  0  0  0  0  0  0  0  0
   15.9449    0.1135   18.6496 H   0  0  0  0  0  0  0  0  0  0  0  0
   14.3968    0.0784   21.6631 C   0  0  0  0  0  0  0  0  0  0  0  0
   15.3310    0.9144   22.1483 F   0  0  0  0  0  0  0  0  0  0  0  0
   13.1260    0.2841   22.1847 C   0  0  0  0  0  0  0  0  0  0  0  0
   13.0090    1.1027   22.8921 H   0  0  0  0  0  0  0  0  0  0  0  0
   13.9297   -2.6929   19.7936 H   0  0  0  0  0  0  0  0  0  0  0  0
   11.6516   -2.3148   20.7060 H   0  0  0  0  0  0  0  0  0  0  0  0
    9.6874   -0.8642   21.2202 N   0  0  0  0  0  0  0  0  0  0  0  0
    8.5618   -0.1586   21.4489 N   0  0  0  0  0  0  0  0  0  0  0  0
    7.2549   -0.6811   21.0560 C   0  0  0  0  0  0  0  0  0  0  0  0
    6.5713    0.0786   19.9352 C   0  0  0  0  0  0  0  0  0  0  0  0
    5.3383    0.7224   20.0961 C   0  0  0  0  0  0  0  0  0  0  0  0
    4.7577    1.3624   18.9982 C   0  0  0  0  0  0  0  0  0  0  0  0
    5.4305    1.3375   17.7745 C   0  0  0  0  0  0  0  0  0  0  0  0
    6.6073    0.7172   17.5959 N   0  0  0  0  0  0  0  0  0  0  0  0
    7.1566    0.1168   18.6583 C   0  0  0  0  0  0  0  0  0  0  0  0
    8.1105   -0.3787   18.4827 H   0  0  0  0  0  0  0  0  0  0  0  0
    5.0072    1.8320   16.9011 H   0  0  0  0  0  0  0  0  0  0  0  0
    3.8132    1.8882   19.0795 H   0  0  0  0  0  0  0  0  0  0  0  0
    4.8306    0.7189   21.0644 H   0  0  0  0  0  0  0  0  0  0  0  0
    7.4427   -1.7184   20.7606 H   0  0  0  0  0  0  0  0  0  0  0  0
    6.6195   -0.6869   21.9481 H   0  0  0  0  0  0  0  0  0  0  0  0
    8.2917    2.7701   23.0118 H   0  0  0  0  0  0  0  0  0  0  0  0
    6.9694    1.9320   22.1374 H   0  0  0  0  0  0  0  0  0  0  0  0
    8.2598    0.9438   25.0799 N   0  0  0  0  0  0  0  0  0  0  0  0
    9.2568    1.0664   24.9634 H   0  0  0  0  0  0  0  0  0  0  0  0
    5.5718   -0.6906   25.8693 H   0  0  0  0  0  0  0  0  0  0  0  0
    9.3566   -0.3326   27.1473 H   0  0  0  0  0  0  0  0  0  0  0  0
    7.9270   -1.2357   27.6025 H   0  0  0  0  0  0  0  0  0  0  0  0
    8.2578    1.7923   28.0566 H   0  0  0  0  0  0  0  0  0  0  0  0
    6.9209    0.8023   28.6534 H   0  0  0  0  0  0  0  0  0  0  0  0
    8.5570    0.5660   29.3026 H   0  0  0  0  0  0  0  0  0  0  0  0
  1  2  1  0
  2  3  1  0
  3  4  2  0
  4  5  1  0
  5  6  2  0
  6  7  1  0
  7  8  1  0
  8  9  2  0
  9 10  1  0
 10 11  1  0
 11 12  2  0
 12 13  1  0
 13 14  2  0
 14 15  1  0
 15 16  1  0
 15 17  1  0
 15 18  1  0
 14 19  1  0
 19 20  1  0
 19 21  2  0
 21 22  1  0
 13 23  1  0
 12 24  1  0
 10 25  2  0
 25 26  1  0
 26 27  1  0
 27 28  1  0
 28 29  2  0
 29 30  1  0
 30 31  2  0
 31 32  1  0
 32 33  2  0
 33 34  1  0
 31 35  1  0
 30 36  1  0
 29 37  1  0
 27 38  1  0
 27 39  1  0
  7 40  1  0
  7 41  1  0
  6 42  1  0
 42 43  1  0
  4 44  1  0
  2 45  1  0
  2 46  1  0
  1 47  1  0
  1 48  1  0
  1 49  1  0
 42  3  1  0
 26  8  1  0
 33 28  1  0
 21 11  1  0
M  END
>  <cnnaffinity>  (1) 
-6.8964

>  <filename>  (1) 
CCc1cnc(Cc2nc(-c3ccc(C)c(F)c3)nn2Cc2cccnc2)[nH]1

$$$$
