
     RDKit          3D

 36 38  0  0  0  0  0  0  0  0999 V2000
    7.7179   -4.4981   22.9361 C   0  0  0  0  0  0  0  0  0  0  0  0
    7.4378   -3.1047   23.5250 C   0  0  0  0  0  0  0  0  0  0  0  0
    7.6418   -2.0230   22.5249 C   0  0  0  0  0  0  0  0  0  0  0  0
    6.6855   -1.6058   21.7197 N   0  0  0  0  0  0  0  0  0  0  0  0
    7.3209   -0.7002   20.9353 N   0  0  0  0  0  0  0  0  0  0  0  0
    6.6419   -0.0059   19.8994 C   0  0  0  0  0  0  0  0  0  0  0  0
    5.4328    0.6425   20.1655 C   0  0  0  0  0  0  0  0  0  0  0  0
    4.8129    1.3130   19.1086 C   0  0  0  0  0  0  0  0  0  0  0  0
    5.3984    1.2963   17.8365 C   0  0  0  0  0  0  0  0  0  0  0  0
    6.5543    0.6673   17.5732 N   0  0  0  0  0  0  0  0  0  0  0  0
    7.1598    0.0448   18.5902 C   0  0  0  0  0  0  0  0  0  0  0  0
    8.1099   -0.4322   18.3609 H   0  0  0  0  0  0  0  0  0  0  0  0
    4.9232    1.7885   16.9921 H   0  0  0  0  0  0  0  0  0  0  0  0
    3.8822    1.8408   19.2587 H   0  0  0  0  0  0  0  0  0  0  0  0
    5.0146    0.6039   21.1752 H   0  0  0  0  0  0  0  0  0  0  0  0
    8.6087   -0.5831   21.3643 C   0  0  0  0  0  0  0  0  0  0  0  0
    9.6252    0.3313   20.7881 C   0  0  0  0  0  0  0  0  0  0  0  0
   10.3532    1.1187   21.8539 C   0  0  0  0  0  0  0  0  0  0  0  0
   11.6104    0.6993   22.3019 C   0  0  0  0  0  0  0  0  0  0  0  0
   12.2554    1.3421   23.3614 C   0  0  0  0  0  0  0  0  0  0  0  0
   11.6244    2.4196   23.9870 C   0  0  0  0  0  0  0  0  0  0  0  0
   10.3638    2.8534   23.5749 C   0  0  0  0  0  0  0  0  0  0  0  0
    9.7404    2.1962   22.5134 C   0  0  0  0  0  0  0  0  0  0  0  0
    8.1461    2.7223   22.0493 Cl  0  0  0  0  0  0  0  0  0  0  0  0
    9.8605    3.6875   24.0564 H   0  0  0  0  0  0  0  0  0  0  0  0
   12.0971    2.9375   24.8060 H   0  0  0  0  0  0  0  0  0  0  0  0
   13.2355    1.0036   23.6868 H   0  0  0  0  0  0  0  0  0  0  0  0
   12.0666   -0.1624   21.8186 H   0  0  0  0  0  0  0  0  0  0  0  0
    9.1618    1.0195   20.0799 H   0  0  0  0  0  0  0  0  0  0  0  0
   10.3090   -0.3398   20.2657 H   0  0  0  0  0  0  0  0  0  0  0  0
    8.8526   -1.4448   22.3290 N   0  0  0  0  0  0  0  0  0  0  0  0
    8.1019   -2.8998   24.3700 H   0  0  0  0  0  0  0  0  0  0  0  0
    6.4098   -3.0307   23.8864 H   0  0  0  0  0  0  0  0  0  0  0  0
    7.0643   -4.6960   22.0794 H   0  0  0  0  0  0  0  0  0  0  0  0
    7.5478   -5.2785   23.6831 H   0  0  0  0  0  0  0  0  0  0  0  0
    8.7553   -4.5735   22.5923 H   0  0  0  0  0  0  0  0  0  0  0  0
  1  2  1  0
  2  3  1  0
  3  4  2  0
  4  5  1  0
  5  6  1  0
  6  7  2  0
  7  8  1  0
  8  9  2  0
  9 10  1  0
 10 11  2  0
 11 12  1  0
  9 13  1  0
  8 14  1  0
  7 15  1  0
  5 16  1  0
 16 17  1  0
 17 18  1  0
 18 19  2  0
 19 20  1  0
 20 21  2  0
 21 22  1  0
 22 23  2  0
 23 24  1  0
 22 25  1  0
 21 26  1  0
 20 27  1  0
 19 28  1  0
 17 29  1  0
 17 30  1  0
 16 31  2  0
  2 32  1  0
  2 33  1  0
  1 34  1  0
  1 35  1  0
  1 36  1  0
 31  3  1  0
 11  6  1  0
 23 18  1  0
M  END
>  <cnnaffinity>  (1) 
-5.9403

>  <filename>  (1) 
CCc1nc(Cc2ccccc2Cl)n(-c2cccnc2)n1

$$$$
