
     RDKit          3D

 46 49  0  0  0  0  0  0  0  0999 V2000
   11.8482    1.9888   23.7979 C   0  0  0  0  0  0  0  0  0  0  0  0
   10.4204    1.4900   24.0433 C   0  0  0  0  0  0  0  0  0  0  0  0
    9.4019    2.3008   23.2529 C   0  0  0  0  0  0  0  0  0  0  0  0
    8.9477    3.5229   23.7875 C   0  0  0  0  0  0  0  0  0  0  0  0
    7.9914    4.2989   23.1226 C   0  0  0  0  0  0  0  0  0  0  0  0
    7.4542    3.8544   21.9108 C   0  0  0  0  0  0  0  0  0  0  0  0
    7.9354    2.6694   21.3542 C   0  0  0  0  0  0  0  0  0  0  0  0
    8.9579    1.9357   21.9647 C   0  0  0  0  0  0  0  0  0  0  0  0
    9.4858    0.7138   21.2183 C   0  0  0  0  0  0  0  0  0  0  0  0
    8.6307   -0.4877   21.4724 C   0  0  0  0  0  0  0  0  0  0  0  0
    8.8684   -1.3788   22.4093 N   0  0  0  0  0  0  0  0  0  0  0  0
    7.7076   -2.0863   22.4707 C   0  0  0  0  0  0  0  0  0  0  0  0
    7.4643   -3.1363   23.4928 C   0  0  2  0  0  0  0  0  0  0  0  0
    6.3132   -3.0150   24.4637 C   0  0  0  0  0  0  0  0  0  0  0  0
    7.7212   -2.8640   24.9547 C   0  0  1  0  0  0  0  0  0  0  0  0
    8.3587   -3.9139   25.8307 C   0  0  0  0  0  0  0  0  0  0  0  0
    9.4498   -3.8840   25.7585 H   0  0  0  0  0  0  0  0  0  0  0  0
    8.0886   -3.7584   26.8795 H   0  0  0  0  0  0  0  0  0  0  0  0
    8.0369   -4.9246   25.5605 H   0  0  0  0  0  0  0  0  0  0  0  0
    8.0202   -1.8423   25.1930 H   0  0  0  0  0  0  0  0  0  0  0  0
    5.6966   -2.1221   24.3979 H   0  0  0  0  0  0  0  0  0  0  0  0
    5.7631   -3.9188   24.7194 H   0  0  0  0  0  0  0  0  0  0  0  0
    7.7015   -4.1352   23.1285 H   0  0  0  0  0  0  0  0  0  0  0  0
    6.7881   -1.7134   21.6013 N   0  0  0  0  0  0  0  0  0  0  0  0
    7.3928   -0.6975   20.9279 N   0  0  0  0  0  0  0  0  0  0  0  0
    6.6879   -0.0397   19.8689 C   0  0  0  0  0  0  0  0  0  0  0  0
    5.4588    0.5797   20.1321 C   0  0  0  0  0  0  0  0  0  0  0  0
    4.8323    1.2726   19.0934 C   0  0  0  0  0  0  0  0  0  0  0  0
    5.4278    1.2839   17.8268 C   0  0  0  0  0  0  0  0  0  0  0  0
    6.5760    0.6454   17.5516 N   0  0  0  0  0  0  0  0  0  0  0  0
    7.1855   -0.0017   18.5539 C   0  0  0  0  0  0  0  0  0  0  0  0
    8.1067   -0.5231   18.2958 H   0  0  0  0  0  0  0  0  0  0  0  0
    4.9583    1.8104   16.9995 H   0  0  0  0  0  0  0  0  0  0  0  0
    3.8998    1.8007   19.2576 H   0  0  0  0  0  0  0  0  0  0  0  0
    5.0349    0.5249   21.1359 H   0  0  0  0  0  0  0  0  0  0  0  0
    9.5181    0.9058   20.1434 H   0  0  0  0  0  0  0  0  0  0  0  0
   10.5084    0.4706   21.5239 H   0  0  0  0  0  0  0  0  0  0  0  0
    7.5380    2.2918   20.4179 H   0  0  0  0  0  0  0  0  0  0  0  0
    6.6941    4.4419   21.3947 H   0  0  0  0  0  0  0  0  0  0  0  0
    7.6579    5.2404   23.5436 H   0  0  0  0  0  0  0  0  0  0  0  0
    9.3442    3.8619   24.7439 H   0  0  0  0  0  0  0  0  0  0  0  0
   10.1818    1.5656   25.1131 H   0  0  0  0  0  0  0  0  0  0  0  0
   10.3383    0.4202   23.8083 H   0  0  0  0  0  0  0  0  0  0  0  0
   12.5807    1.4507   24.4069 H   0  0  0  0  0  0  0  0  0  0  0  0
   11.9226    3.0550   24.0388 H   0  0  0  0  0  0  0  0  0  0  0  0
   12.1177    1.8719   22.7415 H   0  0  0  0  0  0  0  0  0  0  0  0
  1  2  1  0
  2  3  1  0
  3  4  2  0
  4  5  1  0
  5  6  2  0
  6  7  1  0
  7  8  2  0
  8  9  1  0
  9 10  1  0
 10 11  2  0
 11 12  1  0
 12 13  1  0
 13 14  1  0
 14 15  1  0
 15 16  1  0
 16 17  1  0
 16 18  1  0
 16 19  1  0
 15 20  1  6
 14 21  1  0
 14 22  1  0
 13 23  1  6
 12 24  2  0
 24 25  1  0
 25 26  1  0
 26 27  2  0
 27 28  1  0
 28 29  2  0
 29 30  1  0
 30 31  2  0
 31 32  1  0
 29 33  1  0
 28 34  1  0
 27 35  1  0
  9 36  1  0
  9 37  1  0
  7 38  1  0
  6 39  1  0
  5 40  1  0
  4 41  1  0
  2 42  1  0
  2 43  1  0
  1 44  1  0
  1 45  1  0
  1 46  1  0
  8  3  1  0
 25 10  1  0
 31 26  1  0
 15 13  1  0
M  END
>  <cnnaffinity>  (1) 
-6.74595

>  <filename>  (1) 
CCc1ccccc1Cc1nc([C@@H]2C[C@H]2C)nn1-c1cccnc1

$$$$
