
     RDKit          3D

 40 42  0  0  0  0  0  0  0  0999 V2000
    6.8523   -2.3243   24.8860 C   0  0  0  0  0  0  0  0  0  0  0  0
    7.4036   -2.9943   23.6106 C   0  0  0  0  0  0  0  0  0  0  0  0
    7.6659   -2.0153   22.5148 C   0  0  0  0  0  0  0  0  0  0  0  0
    6.7310   -1.6468   21.6622 N   0  0  0  0  0  0  0  0  0  0  0  0
    7.3429   -0.6796   20.9354 N   0  0  0  0  0  0  0  0  0  0  0  0
    6.6534    0.0063   19.9008 C   0  0  0  0  0  0  0  0  0  0  0  0
    5.4360    0.6414   20.1652 C   0  0  0  0  0  0  0  0  0  0  0  0
    4.8101    1.3059   19.1071 C   0  0  0  0  0  0  0  0  0  0  0  0
    5.3989    1.2944   17.8363 C   0  0  0  0  0  0  0  0  0  0  0  0
    6.5556    0.6677   17.5718 N   0  0  0  0  0  0  0  0  0  0  0  0
    7.1640    0.0515   18.5920 C   0  0  0  0  0  0  0  0  0  0  0  0
    8.1095   -0.4323   18.3620 H   0  0  0  0  0  0  0  0  0  0  0  0
    4.9222    1.7885   16.9938 H   0  0  0  0  0  0  0  0  0  0  0  0
    3.8805    1.8411   19.2551 H   0  0  0  0  0  0  0  0  0  0  0  0
    5.0188    0.6157   21.1771 H   0  0  0  0  0  0  0  0  0  0  0  0
    8.6012   -0.4945   21.4204 C   0  0  0  0  0  0  0  0  0  0  0  0
    9.5148    0.5957   20.9938 C   0  0  0  0  0  0  0  0  0  0  0  0
    9.3150    1.8833   21.7951 C   0  0  0  0  0  0  0  0  0  0  0  0
    8.0275    2.4033   21.4797 O   0  0  0  0  0  0  0  0  0  0  0  0
    7.5751    3.5430   22.0729 C   0  0  0  0  0  0  0  0  0  0  0  0
    6.3144    4.0067   21.6596 C   0  0  0  0  0  0  0  0  0  0  0  0
    5.7630    5.1636   22.2134 C   0  0  0  0  0  0  0  0  0  0  0  0
    6.4508    5.8824   23.1925 C   0  0  0  0  0  0  0  0  0  0  0  0
    5.7606    7.3163   23.8820 Cl  0  0  0  0  0  0  0  0  0  0  0  0
    7.7024    5.4108   23.5920 C   0  0  0  0  0  0  0  0  0  0  0  0
    8.3902    6.0698   24.5247 F   0  0  0  0  0  0  0  0  0  0  0  0
    8.2752    4.2584   23.0515 C   0  0  0  0  0  0  0  0  0  0  0  0
    9.2528    3.9614   23.4096 H   0  0  0  0  0  0  0  0  0  0  0  0
    4.7952    5.5346   21.8919 H   0  0  0  0  0  0  0  0  0  0  0  0
    5.7856    3.4626   20.8909 H   0  0  0  0  0  0  0  0  0  0  0  0
   10.1059    2.6069   21.5516 H   0  0  0  0  0  0  0  0  0  0  0  0
    9.3774    1.6406   22.8638 H   0  0  0  0  0  0  0  0  0  0  0  0
   10.5301    0.2289   21.1454 H   0  0  0  0  0  0  0  0  0  0  0  0
    9.4031    0.7974   19.9304 H   0  0  0  0  0  0  0  0  0  0  0  0
    8.8459   -1.3466   22.3948 N   0  0  0  0  0  0  0  0  0  0  0  0
    8.3444   -3.5061   23.8227 H   0  0  0  0  0  0  0  0  0  0  0  0
    6.7005   -3.7414   23.2365 H   0  0  0  0  0  0  0  0  0  0  0  0
    7.5600   -1.5854   25.2766 H   0  0  0  0  0  0  0  0  0  0  0  0
    5.9116   -1.8028   24.6796 H   0  0  0  0  0  0  0  0  0  0  0  0
    6.6640   -3.0608   25.6729 H   0  0  0  0  0  0  0  0  0  0  0  0
  1  2  1  0
  2  3  1  0
  3  4  2  0
  4  5  1  0
  5  6  1  0
  6  7  2  0
  7  8  1  0
  8  9  2  0
  9 10  1  0
 10 11  2  0
 11 12  1  0
  9 13  1  0
  8 14  1  0
  7 15  1  0
  5 16  1  0
 16 17  1  0
 17 18  1  0
 18 19  1  0
 19 20  1  0
 20 21  2  0
 21 22  1  0
 22 23  2  0
 23 24  1  0
 23 25  1  0
 25 26  1  0
 25 27  2  0
 27 28  1  0
 22 29  1  0
 21 30  1  0
 18 31  1  0
 18 32  1  0
 17 33  1  0
 17 34  1  0
 16 35  2  0
  2 36  1  0
  2 37  1  0
  1 38  1  0
  1 39  1  0
  1 40  1  0
 35  3  1  0
 11  6  1  0
 27 20  1  0
M  END
>  <cnnaffinity>  (1) 
-5.72366

>  <filename>  (1) 
CCc1nc(CCOc2ccc(Cl)c(F)c2)n(-c2cccnc2)n1

$$$$
