
     RDKit          3D

 38 40  0  0  0  0  0  0  0  0999 V2000
    7.7361   -4.5332   22.9151 C   0  0  0  0  0  0  0  0  0  0  0  0
    8.6844   -3.5558   22.2011 C   0  0  0  0  0  0  0  0  0  0  0  0
    8.1732   -2.1745   21.9660 C   0  0  0  0  0  0  0  0  0  0  0  0
    7.7141   -1.8409   20.7795 N   0  0  0  0  0  0  0  0  0  0  0  0
    7.3286   -0.5565   20.9444 N   0  0  0  0  0  0  0  0  0  0  0  0
    6.6277    0.0768   19.8919 C   0  0  0  0  0  0  0  0  0  0  0  0
    5.3986    0.7023   20.1186 C   0  0  0  0  0  0  0  0  0  0  0  0
    4.7832    1.3322   19.0351 C   0  0  0  0  0  0  0  0  0  0  0  0
    5.4116    1.3019   17.7862 C   0  0  0  0  0  0  0  0  0  0  0  0
    6.5568    0.6344   17.5507 N   0  0  0  0  0  0  0  0  0  0  0  0
    7.1392    0.0160   18.5824 C   0  0  0  0  0  0  0  0  0  0  0  0
    8.0438   -0.5582   18.3798 H   0  0  0  0  0  0  0  0  0  0  0  0
    4.9886    1.8410   16.9429 H   0  0  0  0  0  0  0  0  0  0  0  0
    3.8473    1.8612   19.1632 H   0  0  0  0  0  0  0  0  0  0  0  0
    4.9421    0.6621   21.1091 H   0  0  0  0  0  0  0  0  0  0  0  0
    7.6252   -0.1585   22.2208 C   0  0  0  0  0  0  0  0  0  0  0  0
    7.4208    1.2153   22.7962 C   0  0  0  0  0  0  0  0  0  0  0  0
    8.7025    1.7531   23.4022 C   0  0  0  0  0  0  0  0  0  0  0  0
    8.9565    1.6198   24.7682 C   0  0  0  0  0  0  0  0  0  0  0  0
   10.1910    2.0309   25.2728 C   0  0  0  0  0  0  0  0  0  0  0  0
   11.1521    2.5829   24.5258 N   0  0  0  0  0  0  0  0  0  0  0  0
   10.9059    2.6866   23.2153 C   0  0  0  0  0  0  0  0  0  0  0  0
    9.7293    2.2571   22.5855 C   0  0  0  0  0  0  0  0  0  0  0  0
    9.6226    2.2867   21.0889 C   0  0  0  0  0  0  0  0  0  0  0  0
   10.5603    2.5948   20.6184 H   0  0  0  0  0  0  0  0  0  0  0  0
    9.3726    1.2959   20.6939 H   0  0  0  0  0  0  0  0  0  0  0  0
    8.8429    2.9747   20.7504 H   0  0  0  0  0  0  0  0  0  0  0  0
   11.7000    3.1181   22.6047 H   0  0  0  0  0  0  0  0  0  0  0  0
   10.4177    1.9067   26.3259 H   0  0  0  0  0  0  0  0  0  0  0  0
    8.2284    1.1676   25.4306 H   0  0  0  0  0  0  0  0  0  0  0  0
    7.0492    1.8978   22.0283 H   0  0  0  0  0  0  0  0  0  0  0  0
    6.6397    1.1511   23.5590 H   0  0  0  0  0  0  0  0  0  0  0  0
    8.1479   -1.1752   22.8849 N   0  0  0  0  0  0  0  0  0  0  0  0
    8.8736   -3.9466   21.2031 H   0  0  0  0  0  0  0  0  0  0  0  0
    9.6359   -3.4636   22.7325 H   0  0  0  0  0  0  0  0  0  0  0  0
    7.3937   -4.1555   23.8851 H   0  0  0  0  0  0  0  0  0  0  0  0
    6.8535   -4.7481   22.3016 H   0  0  0  0  0  0  0  0  0  0  0  0
    8.2609   -5.4810   23.0777 H   0  0  0  0  0  0  0  0  0  0  0  0
  1  2  1  0
  2  3  1  0
  3  4  2  0
  4  5  1  0
  5  6  1  0
  6  7  2  0
  7  8  1  0
  8  9  2  0
  9 10  1  0
 10 11  2  0
 11 12  1  0
  9 13  1  0
  8 14  1  0
  7 15  1  0
  5 16  1  0
 16 17  1  0
 17 18  1  0
 18 19  2  0
 19 20  1  0
 20 21  2  0
 21 22  1  0
 22 23  2  0
 23 24  1  0
 24 25  1  0
 24 26  1  0
 24 27  1  0
 22 28  1  0
 20 29  1  0
 19 30  1  0
 17 31  1  0
 17 32  1  0
 16 33  2  0
  2 34  1  0
  2 35  1  0
  1 36  1  0
  1 37  1  0
  1 38  1  0
 33  3  1  0
 11  6  1  0
 23 18  1  0
M  END
>  <cnnaffinity>  (1) 
-5.96661

>  <filename>  (1) 
CCc1nc(Cc2ccncc2C)n(-c2cccnc2)n1

$$$$
