
     RDKit          3D

 53 56  0  0  0  0  0  0  0  0999 V2000
   11.7433   -1.9154   21.9164 C   0  0  0  0  0  0  0  0  0  0  0  0
   12.0662   -0.4456   21.6963 C   0  0  0  0  0  0  0  0  0  0  0  0
   11.4545    0.5700   22.6299 C   0  0  0  0  0  0  0  0  0  0  0  0
   12.1514    0.9733   23.7781 C   0  0  0  0  0  0  0  0  0  0  0  0
   11.6591    2.0035   24.5759 C   0  0  0  0  0  0  0  0  0  0  0  0
   10.4907    2.6805   24.2391 C   0  0  0  0  0  0  0  0  0  0  0  0
    9.7817    2.2712   23.1101 C   0  0  0  0  0  0  0  0  0  0  0  0
   10.2107    1.1751   22.3527 C   0  0  0  0  0  0  0  0  0  0  0  0
    9.2608    0.6170   21.3216 C   0  0  0  0  0  0  0  0  0  0  0  0
    8.3833   -0.4963   21.8367 C   0  0  0  0  0  0  0  0  0  0  0  0
    8.4719   -1.2646   22.9195 N   0  0  0  0  0  0  0  0  0  0  0  0
    7.3290   -2.0244   22.8610 C   0  0  0  0  0  0  0  0  0  0  0  0
    6.8641   -3.0242   23.8970 C   0  0  0  0  0  0  0  0  0  0  0  0
    6.9839   -2.3763   25.2980 C   0  0  0  0  0  0  0  0  0  0  0  0
    8.4656   -2.3284   25.5708 N   0  0  0  0  0  4  0  0  0  0  0  0
    8.8650   -1.4047   26.6517 C   0  0  0  0  0  0  0  0  0  0  0  0
    9.9227   -1.5445   26.9023 H   0  0  0  0  0  0  0  0  0  0  0  0
    8.7222   -0.3639   26.3425 H   0  0  0  0  0  0  0  0  0  0  0  0
    8.2789   -1.5760   27.5657 H   0  0  0  0  0  0  0  0  0  0  0  0
    8.9125   -3.7564   25.8598 C   0  0  0  0  0  0  0  0  0  0  0  0
    8.1497   -4.7902   24.9820 C   0  0  0  0  0  0  0  0  0  0  0  0
    7.6333   -4.2369   23.7784 O   0  0  0  0  0  0  0  0  0  0  0  0
    7.3306   -5.2411   25.5649 H   0  0  0  0  0  0  0  0  0  0  0  0
    8.8162   -5.5958   24.6696 H   0  0  0  0  0  0  0  0  0  0  0  0
    9.9965   -3.8243   25.7163 H   0  0  0  0  0  0  0  0  0  0  0  0
    8.7027   -3.9937   26.9137 H   0  0  0  0  0  0  0  0  0  0  0  0
    8.9070   -1.9869   24.6688 H   0  0  0  0  0  0  0  0  0  0  0  0
    6.5247   -1.3834   25.3273 H   0  0  0  0  0  0  0  0  0  0  0  0
    6.4864   -2.9946   26.0600 H   0  0  0  0  0  0  0  0  0  0  0  0
    5.8233   -3.2427   23.6448 H   0  0  0  0  0  0  0  0  0  0  0  0
    6.5575   -1.7617   21.8332 N   0  0  0  0  0  0  0  0  0  0  0  0
    7.2507   -0.8233   21.1474 N   0  0  0  0  0  0  0  0  0  0  0  0
    6.6529   -0.1788   20.0331 C   0  0  0  0  0  0  0  0  0  0  0  0
    5.4637    0.5289   20.2208 C   0  0  0  0  0  0  0  0  0  0  0  0
    4.9476    1.2279   19.1318 C   0  0  0  0  0  0  0  0  0  0  0  0
    5.6241    1.1756   17.9046 C   0  0  0  0  0  0  0  0  0  0  0  0
    6.7478    0.4651   17.7143 N   0  0  0  0  0  0  0  0  0  0  0  0
    7.2455   -0.1983   18.7621 C   0  0  0  0  0  0  0  0  0  0  0  0
    8.1572   -0.7756   18.6024 H   0  0  0  0  0  0  0  0  0  0  0  0
    5.2508    1.7171   17.0395 H   0  0  0  0  0  0  0  0  0  0  0  0
    4.0444    1.8203   19.2240 H   0  0  0  0  0  0  0  0  0  0  0  0
    4.9883    0.5209   21.2051 H   0  0  0  0  0  0  0  0  0  0  0  0
    9.7774    0.2447   20.4318 H   0  0  0  0  0  0  0  0  0  0  0  0
    8.6101    1.4219   20.9610 H   0  0  0  0  0  0  0  0  0  0  0  0
    8.9050    2.8266   22.7851 H   0  0  0  0  0  0  0  0  0  0  0  0
   10.1153    3.4894   24.8650 H   0  0  0  0  0  0  0  0  0  0  0  0
   12.2141    2.3073   25.4412 H   0  0  0  0  0  0  0  0  0  0  0  0
   13.0975    0.4961   24.0290 H   0  0  0  0  0  0  0  0  0  0  0  0
   13.1572   -0.3330   21.7059 H   0  0  0  0  0  0  0  0  0  0  0  0
   11.7441   -0.2196   20.6781 H   0  0  0  0  0  0  0  0  0  0  0  0
   12.2070   -2.3364   22.8041 H   0  0  0  0  0  0  0  0  0  0  0  0
   10.6666   -2.1059   21.9504 H   0  0  0  0  0  0  0  0  0  0  0  0
   12.1812   -2.4364   21.0712 H   0  0  0  0  0  0  0  0  0  0  0  0
  1  2  1  0
  2  3  1  0
  3  4  2  0
  4  5  1  0
  5  6  2  0
  6  7  1  0
  7  8  2  0
  8  9  1  0
  9 10  1  0
 10 11  2  0
 11 12  1  0
 12 13  1  0
 13 14  1  0
 14 15  1  0
 15 16  1  0
 16 17  1  0
 16 18  1  0
 16 19  1  0
 15 20  1  0
 20 21  1  0
 21 22  1  0
 21 23  1  0
 21 24  1  0
 20 25  1  0
 20 26  1  0
 15 27  1  0
 14 28  1  0
 14 29  1  0
 13 30  1  0
 12 31  2  0
 31 32  1  0
 32 33  1  0
 33 34  2  0
 34 35  1  0
 35 36  2  0
 36 37  1  0
 37 38  2  0
 38 39  1  0
 36 40  1  0
 35 41  1  0
 34 42  1  0
  9 43  1  0
  9 44  1  0
  7 45  1  0
  6 46  1  0
  5 47  1  0
  4 48  1  0
  2 49  1  0
  2 50  1  0
  1 51  1  0
  1 52  1  0
  1 53  1  0
  8  3  1  0
 32 10  1  0
 38 33  1  0
 22 13  1  0
M  CHG  1  15   1
M  END
>  <cnnaffinity>  (1) 
-6.25747

>  <filename>  (1) 
CCc1ccccc1Cc1nc(C2C[NH+](C)CCO2)nn1-c1cccnc1

$$$$
