
     RDKit          3D

 39 41  0  0  0  0  0  0  0  0999 V2000
    4.9162    1.7823   16.9969 H   0  0  0  0  0  0  0  0  0  0  0  0
    5.4036    1.2923   17.8384 C   0  0  0  0  0  0  0  0  0  0  0  0
    6.5682    0.6768   17.5840 N   0  0  0  0  0  0  0  0  0  0  0  0
    7.1806    0.0555   18.6041 C   0  0  0  0  0  0  0  0  0  0  0  0
    8.1225   -0.4274   18.3563 H   0  0  0  0  0  0  0  0  0  0  0  0
    6.6852   -0.0140   19.9405 C   0  0  0  0  0  0  0  0  0  0  0  0
    7.2874   -0.7624   20.9658 N   0  0  0  0  0  0  0  0  0  0  0  0
    7.2879   -0.3605   22.3763 C   0  0  1  0  0  0  0  0  0  0  0  0
    6.2858   -0.0587   22.6970 H   0  0  0  0  0  0  0  0  0  0  0  0
    7.7236   -1.6663   23.0766 C   0  0  0  0  0  0  0  0  0  0  0  0
    8.3038   -1.4572   23.9769 H   0  0  0  0  0  0  0  0  0  0  0  0
    6.8468   -2.2434   23.3751 H   0  0  0  0  0  0  0  0  0  0  0  0
    8.5389   -2.4248   22.0068 C   0  0  0  0  0  0  0  0  0  0  0  0
    8.0323   -3.3474   21.7105 H   0  0  0  0  0  0  0  0  0  0  0  0
    9.5441   -2.7002   22.3332 H   0  0  0  0  0  0  0  0  0  0  0  0
    8.5755   -1.4431   20.8292 C   0  0  2  0  0  0  0  0  0  0  0  0
    8.6117   -1.9400   19.8750 H   0  0  0  0  0  0  0  0  0  0  0  0
    9.7600   -0.4651   20.8770 C   0  0  0  0  0  0  0  0  0  0  0  0
   10.6851   -1.0614   20.8754 H   0  0  0  0  0  0  0  0  0  0  0  0
    9.7416    0.0831   19.9319 H   0  0  0  0  0  0  0  0  0  0  0  0
    9.7364    0.5223   22.0742 C   0  0  2  0  0  0  0  0  0  0  0  0
   10.1089    1.4829   21.6929 H   0  0  0  0  0  0  0  0  0  0  0  0
   10.7091    0.0907   23.1952 C   0  0  0  0  0  0  0  0  0  0  0  0
   10.4538    0.6289   24.1179 H   0  0  0  0  0  0  0  0  0  0  0  0
   10.5755   -0.9748   23.4254 H   0  0  0  0  0  0  0  0  0  0  0  0
   12.1881    0.3721   22.8838 C   0  0  0  0  0  0  0  0  0  0  0  0
   12.8175   -0.2280   23.5498 H   0  0  0  0  0  0  0  0  0  0  0  0
   12.4249    0.0378   21.8657 H   0  0  0  0  0  0  0  0  0  0  0  0
   12.5825    1.8430   23.0388 C   0  0  0  0  0  0  0  0  0  0  0  0
   12.3574    2.1990   24.0502 H   0  0  0  0  0  0  0  0  0  0  0  0
   12.0419    2.4913   22.3391 H   0  0  0  0  0  0  0  0  0  0  0  0
   13.6539    1.9886   22.8666 H   0  0  0  0  0  0  0  0  0  0  0  0
    8.2888    0.7990   22.5916 C   0  0  0  0  0  0  0  0  0  0  0  0
    7.8808    1.6822   22.0849 H   0  0  0  0  0  0  0  0  0  0  0  0
    8.3107    1.0387   23.6617 H   0  0  0  0  0  0  0  0  0  0  0  0
    5.4604    0.6506   20.1701 C   0  0  0  0  0  0  0  0  0  0  0  0
    5.0127    0.6255   21.1619 H   0  0  0  0  0  0  0  0  0  0  0  0
    4.8235    1.3044   19.1106 C   0  0  0  0  0  0  0  0  0  0  0  0
    3.8880    1.8321   19.2658 H   0  0  0  0  0  0  0  0  0  0  0  0
  1  2  1  0
  2  3  2  0
  3  4  1  0
  4  5  1  0
  4  6  2  0
  6  7  1  0
  7  8  1  0
  8  9  1  1
  8 10  1  0
 10 11  1  0
 10 12  1  0
 10 13  1  0
 13 14  1  0
 13 15  1  0
 13 16  1  0
 16 17  1  6
 16 18  1  0
 18 19  1  0
 18 20  1  0
 18 21  1  0
 21 22  1  6
 21 23  1  0
 23 24  1  0
 23 25  1  0
 23 26  1  0
 26 27  1  0
 26 28  1  0
 26 29  1  0
 29 30  1  0
 29 31  1  0
 29 32  1  0
 21 33  1  0
 33 34  1  0
 33 35  1  0
  6 36  1  0
 36 37  1  0
 36 38  2  0
 38 39  1  0
 38  2  1  0
 16  7  1  0
 33  8  1  0
M  END
>  <cnnaffinity>  (1) 
-5.12086

>  <filename>  (1) 
CCC[C@H]1C[C@H]2CC[C@@H](C1)N2c1cccnc1

$$$$
