
     RDKit          3D

 46 48  0  0  0  0  0  0  0  0999 V2000
    4.9881    1.7174   16.8621 H   0  0  0  0  0  0  0  0  0  0  0  0
    5.3726    1.1794   17.7259 C   0  0  0  0  0  0  0  0  0  0  0  0
    6.5082    0.4891   17.5330 N   0  0  0  0  0  0  0  0  0  0  0  0
    7.0267   -0.1560   18.5836 C   0  0  0  0  0  0  0  0  0  0  0  0
    7.9530   -0.7053   18.4179 H   0  0  0  0  0  0  0  0  0  0  0  0
    6.4414   -0.1613   19.8658 C   0  0  0  0  0  0  0  0  0  0  0  0
    7.1277   -0.7675   20.9431 N   0  0  0  0  0  0  0  0  0  0  0  0
    6.6766   -1.6766   21.9020 C   0  0  0  0  0  0  0  0  0  0  0  0
    5.6679   -2.0547   21.8525 H   0  0  0  0  0  0  0  0  0  0  0  0
    7.6809   -1.9312   22.7846 C   0  0  0  0  0  0  0  0  0  0  0  0
    7.7794   -2.5512   23.6588 H   0  0  0  0  0  0  0  0  0  0  0  0
    8.7511   -1.1576   22.3721 N   0  0  0  0  0  0  0  0  0  0  0  0
    9.9832   -0.8763   22.8563 N   0  0  0  0  0  0  0  0  0  0  0  0
   10.4372    0.0387   21.9930 C   0  0  0  0  0  0  0  0  0  0  0  0
   11.7699    0.7045   22.1895 C   0  0  0  0  0  0  0  0  0  0  0  0
   12.4881   -0.0321   22.5636 H   0  0  0  0  0  0  0  0  0  0  0  0
   12.1133    1.0268   21.2007 H   0  0  0  0  0  0  0  0  0  0  0  0
   11.7602    1.9519   23.0972 C   0  0  0  0  0  0  0  0  0  0  0  0
   12.7782    2.3706   23.1157 H   0  0  0  0  0  0  0  0  0  0  0  0
   11.5360    1.6674   24.1336 H   0  0  0  0  0  0  0  0  0  0  0  0
   10.7783    3.0430   22.6420 C   0  0  0  0  0  0  0  0  0  0  0  0
   10.9654    3.2635   21.5803 H   0  0  0  0  0  0  0  0  0  0  0  0
    9.7560    2.6450   22.6882 H   0  0  0  0  0  0  0  0  0  0  0  0
   10.8702    4.3523   23.4541 C   0  0  0  0  0  0  0  0  0  0  0  0
   11.3204    4.1424   24.4373 H   0  0  0  0  0  0  0  0  0  0  0  0
    9.8558    4.7222   23.6675 H   0  0  0  0  0  0  0  0  0  0  0  0
   11.6776    5.5015   22.7924 C   0  0  0  0  0  0  0  0  0  0  0  0
   11.6443    6.3204   23.5394 H   0  0  0  0  0  0  0  0  0  0  0  0
   11.0877    5.8738   21.9313 H   0  0  0  0  0  0  0  0  0  0  0  0
   13.0860    5.0759   22.3615 C   0  0  0  0  0  0  0  0  0  0  0  0
   12.9341    4.2792   21.6040 H   0  0  0  0  0  0  0  0  0  0  0  0
   13.5409    4.5704   23.1970 H   0  0  0  0  0  0  0  0  0  0  0  0
   14.1997    6.0623   22.1370 C   0  0  0  0  0  0  0  0  0  0  0  0
   13.9030    6.6808   23.2653 H   0  0  0  0  0  0  0  0  0  0  0  0
   15.2376    5.5784   22.7881 H   0  0  0  0  0  0  0  0  0  0  0  0
   14.1990    6.1424   22.0602 C   0  0  0  0  0  0  0  0  0  0  0  0
   14.3005    7.9547   21.2121 H   0  0  0  0  0  0  0  0  0  0  0  0
   13.6737    7.8414   20.9567 H   0  0  0  0  0  0  0  0  0  0  0  0
   14.7957    5.9510   20.8794 H   0  0  0  0  0  0  0  0  0  0  0  0
    9.5268    0.3215   20.9500 C   0  0  0  0  0  0  0  0  0  0  0  0
    9.6441    0.9950   20.1249 H   0  0  0  0  0  0  0  0  0  0  0  0
    8.4345   -0.4640   21.2673 C   0  0  0  0  0  0  0  0  0  0  0  0
    5.2354    0.5290   20.0476 C   0  0  0  0  0  0  0  0  0  0  0  0
    4.7569    0.5572   21.0281 H   0  0  0  0  0  0  0  0  0  0  0  0
    4.7017    1.2201   18.9542 C   0  0  0  0  0  0  0  0  0  0  0  0
    3.7931    1.8059   19.0463 H   0  0  0  0  0  0  0  0  0  0  0  0
  1  2  1  0
  2  3  2  0
  3  4  1  0
  4  5  1  0
  4  6  2  0
  6  7  1  0
  7  8  1  0
  8  9  1  0
  8 10  2  0
 10 11  1  0
 10 12  1  0
 12 13  1  0
 13 14  2  0
 14 15  1  0
 15 16  1  0
 15 17  1  0
 15 18  1  0
 18 19  1  0
 18 20  1  0
 18 21  1  0
 21 22  1  0
 21 23  1  0
 21 24  1  0
 24 25  1  0
 24 26  1  0
 24 27  1  0
 27 28  1  0
 27 29  1  0
 27 30  1  0
 30 31  1  0
 30 32  1  0
 30 33  1  0
 33 34  1  0
 33 35  1  0
 33 36  1  0
 36 37  1  0
 36 38  1  0
 36 39  1  0
 14 40  1  0
 40 41  1  0
 40 42  2  0
  6 43  1  0
 43 44  1  0
 43 45  2  0
 45 46  1  0
 45  2  1  0
 42  7  1  0
 42 12  1  0
M  END
>  <cnnaffinity>  (1) 
-5.70465

>  <filename>  (1) 
CCCCCCCCc1cc2n(-c3cccnc3)ccn2n1

$$$$
