
     RDKit          3D

 36 38  0  0  0  0  0  0  0  0999 V2000
    8.3112   -5.9770   22.9581 C   0  0  0  0  0  0  0  0  0  0  0  0
    7.6554   -4.6229   22.7124 C   0  0  0  0  0  0  0  0  0  0  0  0
    8.6594   -3.5974   22.1536 C   0  0  0  0  0  0  0  0  0  0  0  0
    8.1394   -2.2175   21.9605 C   0  0  0  0  0  0  0  0  0  0  0  0
    7.7878   -1.8216   20.7582 N   0  0  0  0  0  0  0  0  0  0  0  0
    7.3411   -0.5637   20.9589 N   0  0  0  0  0  0  0  0  0  0  0  0
    6.6331    0.0771   19.9095 C   0  0  0  0  0  0  0  0  0  0  0  0
    5.3998    0.6974   20.1345 C   0  0  0  0  0  0  0  0  0  0  0  0
    4.7851    1.3175   19.0462 C   0  0  0  0  0  0  0  0  0  0  0  0
    5.4205    1.2842   17.8003 C   0  0  0  0  0  0  0  0  0  0  0  0
    6.5697    0.6203   17.5700 N   0  0  0  0  0  0  0  0  0  0  0  0
    7.1529    0.0151   18.6069 C   0  0  0  0  0  0  0  0  0  0  0  0
    8.0696   -0.5444   18.4173 H   0  0  0  0  0  0  0  0  0  0  0  0
    5.0043    1.8235   16.9547 H   0  0  0  0  0  0  0  0  0  0  0  0
    3.8444    1.8454   19.1645 H   0  0  0  0  0  0  0  0  0  0  0  0
    4.9589    0.6982   21.1334 H   0  0  0  0  0  0  0  0  0  0  0  0
    7.5052   -0.2411   22.2764 C   0  0  0  0  0  0  0  0  0  0  0  0
    7.2402    1.0896   22.8572 C   0  0  0  0  0  0  0  0  0  0  0  0
    6.7542    1.1500   24.1734 C   0  0  0  0  0  0  0  0  0  0  0  0
    6.4679    2.3862   24.7455 C   0  0  0  0  0  0  0  0  0  0  0  0
    5.8294    2.4329   26.3646 Cl  0  0  0  0  0  0  0  0  0  0  0  0
    6.6762    3.5771   24.0438 C   0  0  0  0  0  0  0  0  0  0  0  0
    7.1826    3.5134   22.7377 C   0  0  0  0  0  0  0  0  0  0  0  0
    7.4630    2.2837   22.1418 C   0  0  0  0  0  0  0  0  0  0  0  0
    7.8345    2.2467   21.1199 H   0  0  0  0  0  0  0  0  0  0  0  0
    7.3613    4.4274   22.1793 H   0  0  0  0  0  0  0  0  0  0  0  0
    6.4419    4.5268   24.5143 H   0  0  0  0  0  0  0  0  0  0  0  0
    6.5891    0.2315   24.7334 H   0  0  0  0  0  0  0  0  0  0  0  0
    7.9783   -1.2882   22.9334 N   0  0  0  0  0  0  0  0  0  0  0  0
    8.9443   -3.9179   21.1523 H   0  0  0  0  0  0  0  0  0  0  0  0
    9.5622   -3.5300   22.7678 H   0  0  0  0  0  0  0  0  0  0  0  0
    7.2004   -4.2562   23.6423 H   0  0  0  0  0  0  0  0  0  0  0  0
    6.8354   -4.7532   21.9950 H   0  0  0  0  0  0  0  0  0  0  0  0
    9.0253   -5.9246   23.7859 H   0  0  0  0  0  0  0  0  0  0  0  0
    7.5671   -6.7353   23.2117 H   0  0  0  0  0  0  0  0  0  0  0  0
    8.8512   -6.3281   22.0724 H   0  0  0  0  0  0  0  0  0  0  0  0
  1  2  1  0
  2  3  1  0
  3  4  1  0
  4  5  2  0
  5  6  1  0
  6  7  1  0
  7  8  2  0
  8  9  1  0
  9 10  2  0
 10 11  1  0
 11 12  2  0
 12 13  1  0
 10 14  1  0
  9 15  1  0
  8 16  1  0
  6 17  1  0
 17 18  1  0
 18 19  2  0
 19 20  1  0
 20 21  1  0
 20 22  2  0
 22 23  1  0
 23 24  2  0
 24 25  1  0
 23 26  1  0
 22 27  1  0
 19 28  1  0
 17 29  2  0
  3 30  1  0
  3 31  1  0
  2 32  1  0
  2 33  1  0
  1 34  1  0
  1 35  1  0
  1 36  1  0
 29  4  1  0
 12  7  1  0
 24 18  1  0
M  END
>  <cnnaffinity>  (1) 
-5.44179

>  <filename>  (1) 
CCCc1nc(-c2cccc(Cl)c2)n(-c2cccnc2)n1

$$$$
