
     RDKit          3D

 45 47  0  0  0  0  0  0  0  0999 V2000
    7.5574   -6.0554   21.3344 C   0  0  0  0  0  0  0  0  0  0  0  0
    7.0098   -4.7886   21.9663 C   0  0  0  0  0  0  0  0  0  0  0  0
    7.7681   -4.3635   23.2269 C   0  0  0  0  0  0  0  0  0  0  0  0
    7.2697   -3.0279   23.8349 C   0  0  0  0  0  0  0  0  0  0  0  0
    5.8197   -3.1039   24.3383 C   0  0  0  0  0  0  0  0  0  0  0  0
    5.7215   -3.9262   25.0584 H   0  0  0  0  0  0  0  0  0  0  0  0
    5.5282   -2.1873   24.8594 H   0  0  0  0  0  0  0  0  0  0  0  0
    5.0983   -3.2772   23.5309 H   0  0  0  0  0  0  0  0  0  0  0  0
    7.5491   -1.9266   22.8477 C   0  0  0  0  0  0  0  0  0  0  0  0
    6.7742   -1.6000   21.8333 N   0  0  0  0  0  0  0  0  0  0  0  0
    7.5297   -0.7023   21.1302 N   0  0  0  0  0  0  0  0  0  0  0  0
    6.8768   -0.0587   20.0230 C   0  0  0  0  0  0  0  0  0  0  0  0
    5.6497    0.5820   20.2506 C   0  0  0  0  0  0  0  0  0  0  0  0
    5.0354    1.2299   19.1796 C   0  0  0  0  0  0  0  0  0  0  0  0
    5.6292    1.1829   17.9148 C   0  0  0  0  0  0  0  0  0  0  0  0
    6.7673    0.5146   17.6716 N   0  0  0  0  0  0  0  0  0  0  0  0
    7.3666   -0.0942   18.7060 C   0  0  0  0  0  0  0  0  0  0  0  0
    8.2681   -0.6534   18.4648 H   0  0  0  0  0  0  0  0  0  0  0  0
    5.1786    1.7027   17.0714 H   0  0  0  0  0  0  0  0  0  0  0  0
    4.1016    1.7620   19.3160 H   0  0  0  0  0  0  0  0  0  0  0  0
    5.1856    0.5335   21.2371 H   0  0  0  0  0  0  0  0  0  0  0  0
    8.7039   -0.5130   21.8178 C   0  0  0  0  0  0  0  0  0  0  0  0
    9.7549    0.5143   21.5919 C   0  0  0  0  0  0  0  0  0  0  0  0
    9.1872    1.8238   21.9879 C   0  0  0  0  0  0  0  0  0  0  0  0
    9.2900    2.2656   23.2255 N   0  0  0  0  0  0  0  0  0  0  0  0
    8.5209    3.3584   23.2707 N   0  0  0  0  0  0  0  0  0  0  0  0
    8.3419    4.0681   24.5225 C   0  0  0  0  0  0  0  0  0  0  0  0
    9.0811    3.6840   25.2258 H   0  0  0  0  0  0  0  0  0  0  0  0
    7.3370    3.9017   24.9225 H   0  0  0  0  0  0  0  0  0  0  0  0
    8.4955    5.1397   24.3755 H   0  0  0  0  0  0  0  0  0  0  0  0
    7.9143    3.6092   22.0865 C   0  0  0  0  0  0  0  0  0  0  0  0
    8.3343    2.6249   21.2232 C   0  0  0  0  0  0  0  0  0  0  0  0
    8.0737    2.4042   20.2028 H   0  0  0  0  0  0  0  0  0  0  0  0
    7.2437    4.4475   21.9556 H   0  0  0  0  0  0  0  0  0  0  0  0
   10.0672    0.5091   20.5538 H   0  0  0  0  0  0  0  0  0  0  0  0
   10.6010    0.2723   22.2406 H   0  0  0  0  0  0  0  0  0  0  0  0
    8.7404   -1.2863   22.8756 N   0  0  0  0  0  0  0  0  0  0  0  0
    7.9149   -2.7913   24.6872 H   0  0  0  0  0  0  0  0  0  0  0  0
    7.7016   -5.1494   23.9917 H   0  0  0  0  0  0  0  0  0  0  0  0
    8.8382   -4.2497   22.9977 H   0  0  0  0  0  0  0  0  0  0  0  0
    7.0451   -3.9771   21.2296 H   0  0  0  0  0  0  0  0  0  0  0  0
    5.9490   -4.9296   22.2059 H   0  0  0  0  0  0  0  0  0  0  0  0
    8.6095   -5.9131   21.0703 H   0  0  0  0  0  0  0  0  0  0  0  0
    7.4835   -6.9184   22.0068 H   0  0  0  0  0  0  0  0  0  0  0  0
    7.0157   -6.2981   20.4153 H   0  0  0  0  0  0  0  0  0  0  0  0
  1  2  1  0
  2  3  1  0
  3  4  1  0
  4  5  1  0
  5  6  1  0
  5  7  1  0
  5  8  1  0
  4  9  1  0
  9 10  2  0
 10 11  1  0
 11 12  1  0
 12 13  2  0
 13 14  1  0
 14 15  2  0
 15 16  1  0
 16 17  2  0
 17 18  1  0
 15 19  1  0
 14 20  1  0
 13 21  1  0
 11 22  1  0
 22 23  1  0
 23 24  1  0
 24 25  2  0
 25 26  1  0
 26 27  1  0
 27 28  1  0
 27 29  1  0
 27 30  1  0
 26 31  1  0
 31 32  2  0
 32 33  1  0
 31 34  1  0
 23 35  1  0
 23 36  1  0
 22 37  2  0
  4 38  1  0
  3 39  1  0
  3 40  1  0
  2 41  1  0
  2 42  1  0
  1 43  1  0
  1 44  1  0
  1 45  1  0
 37  9  1  0
 17 12  1  0
 32 24  1  0
M  END
>  <cnnaffinity>  (1) 
-5.94922

>  <filename>  (1) 
CCCC(C)c1nc(Cc2ccn(C)n2)n(-c2cccnc2)n1

$$$$
