
     RDKit          3D

 39 40  0  0  0  0  0  0  0  0999 V2000
    4.9353    1.8227   16.9658 H   0  0  0  0  0  0  0  0  0  0  0  0
    5.4025    1.3167   17.8074 C   0  0  0  0  0  0  0  0  0  0  0  0
    6.5636    0.6922   17.5549 N   0  0  0  0  0  0  0  0  0  0  0  0
    7.1643    0.0699   18.5841 C   0  0  0  0  0  0  0  0  0  0  0  0
    8.1027   -0.4263   18.3317 H   0  0  0  0  0  0  0  0  0  0  0  0
    6.6504    0.0109   19.9030 C   0  0  0  0  0  0  0  0  0  0  0  0
    7.3229   -0.7031   21.0298 C   0  0  0  0  0  0  0  0  0  0  0  0
    6.8032   -1.6388   21.9661 C   0  0  0  0  0  0  0  0  0  0  0  0
    5.7938   -2.0110   22.0435 H   0  0  0  0  0  0  0  0  0  0  0  0
    7.7257   -2.0794   22.8142 N   0  0  0  0  0  0  0  0  0  0  0  0
    8.8316   -1.4128   22.4493 N   0  0  0  0  0  0  0  0  0  0  0  0
    9.6618   -1.5222   23.0097 H   0  0  0  0  0  0  0  0  0  0  0  0
    8.6526   -0.5701   21.3986 C   0  0  0  0  0  0  0  0  0  0  0  0
    9.6778    0.3776   20.8555 C   0  0  0  0  0  0  0  0  0  0  0  0
    9.6829    0.2436   19.7697 H   0  0  0  0  0  0  0  0  0  0  0  0
   10.6874    0.1108   21.1999 H   0  0  0  0  0  0  0  0  0  0  0  0
    9.3484    1.8583   21.1370 C   0  0  0  0  0  0  0  0  0  0  0  0
    8.4394    2.1180   20.5759 H   0  0  0  0  0  0  0  0  0  0  0  0
   10.1607    2.4832   20.7414 H   0  0  0  0  0  0  0  0  0  0  0  0
    9.1504    2.2116   22.6089 C   0  0  0  0  0  0  0  0  0  0  0  0
    8.8039    3.2507   22.6759 H   0  0  0  0  0  0  0  0  0  0  0  0
    8.3374    1.6010   23.0278 H   0  0  0  0  0  0  0  0  0  0  0  0
   10.4062    2.0467   23.4645 C   0  0  0  0  0  0  0  0  0  0  0  0
   11.1968    2.7180   23.0999 H   0  0  0  0  0  0  0  0  0  0  0  0
   10.8024    1.0298   23.3456 H   0  0  0  0  0  0  0  0  0  0  0  0
   10.1517    2.3277   24.9440 C   0  0  0  0  0  0  0  0  0  0  0  0
    9.4117    1.6059   25.3193 H   0  0  0  0  0  0  0  0  0  0  0  0
   11.0725    2.1141   25.5045 H   0  0  0  0  0  0  0  0  0  0  0  0
    9.6548    3.7579   25.2318 C   0  0  0  0  0  0  0  0  0  0  0  0
    8.7006    3.9267   24.7215 H   0  0  0  0  0  0  0  0  0  0  0  0
    9.4302    3.8367   26.3035 H   0  0  0  0  0  0  0  0  0  0  0  0
   10.6348    4.8676   24.8204 C   0  0  0  0  0  0  0  0  0  0  0  0
   10.6625    4.9982   23.7340 H   0  0  0  0  0  0  0  0  0  0  0  0
   11.6610    4.6596   25.1453 H   0  0  0  0  0  0  0  0  0  0  0  0
   10.3557    5.8376   25.2437 H   0  0  0  0  0  0  0  0  0  0  0  0
    5.4253    0.6628   20.1211 C   0  0  0  0  0  0  0  0  0  0  0  0
    4.9931    0.6670   21.1192 H   0  0  0  0  0  0  0  0  0  0  0  0
    4.7933    1.3244   19.0644 C   0  0  0  0  0  0  0  0  0  0  0  0
    3.8513    1.8484   19.2041 H   0  0  0  0  0  0  0  0  0  0  0  0
  1  2  1  0
  2  3  2  0
  3  4  1  0
  4  5  1  0
  4  6  2  0
  6  7  1  0
  7  8  1  0
  8  9  1  0
  8 10  2  0
 10 11  1  0
 11 12  1  0
 11 13  1  0
 13 14  1  0
 14 15  1  0
 14 16  1  0
 14 17  1  0
 17 18  1  0
 17 19  1  0
 17 20  1  0
 20 21  1  0
 20 22  1  0
 20 23  1  0
 23 24  1  0
 23 25  1  0
 23 26  1  0
 26 27  1  0
 26 28  1  0
 26 29  1  0
 29 30  1  0
 29 31  1  0
 29 32  1  0
 32 33  1  0
 32 34  1  0
 32 35  1  0
  6 36  1  0
 36 37  1  0
 36 38  2  0
 38 39  1  0
 38  2  1  0
 13  7  2  0
M  END
>  <cnnaffinity>  (1) 
-5.34235

>  <filename>  (1) 
CCCCCCCc1[nH]ncc1-c1cccnc1

$$$$
