
     RDKit          3D

 39 40  0  0  0  0  0  0  0  0999 V2000
    5.1432    1.7804   16.9489 H   0  0  0  0  0  0  0  0  0  0  0  0
    5.5517    1.2541   17.8087 C   0  0  0  0  0  0  0  0  0  0  0  0
    6.6889    0.5648   17.6027 N   0  0  0  0  0  0  0  0  0  0  0  0
    7.2139   -0.0855   18.6451 C   0  0  0  0  0  0  0  0  0  0  0  0
    8.1135   -0.6616   18.4512 H   0  0  0  0  0  0  0  0  0  0  0  0
    6.6654   -0.0664   19.9392 C   0  0  0  0  0  0  0  0  0  0  0  0
    7.3445   -0.7676   20.9688 N   0  0  0  0  0  0  0  0  0  0  0  0
    7.7865   -2.0120   20.6937 N   0  0  0  0  0  0  0  0  0  0  0  0
    8.3446   -2.4408   21.8061 C   0  0  0  0  0  0  0  0  0  0  0  0
    8.7794   -3.4334   21.8236 H   0  0  0  0  0  0  0  0  0  0  0  0
    8.2946   -1.4622   22.8187 C   0  0  0  0  0  0  0  0  0  0  0  0
    8.6955   -1.5290   23.8141 H   0  0  0  0  0  0  0  0  0  0  0  0
    7.6678   -0.3782   22.2501 C   0  0  0  0  0  0  0  0  0  0  0  0
    7.5023    1.0232   22.7665 C   0  0  0  0  0  0  0  0  0  0  0  0
    7.7135    1.0043   23.8467 H   0  0  0  0  0  0  0  0  0  0  0  0
    6.4529    1.3300   22.6592 H   0  0  0  0  0  0  0  0  0  0  0  0
    8.4373    2.0141   22.0408 C   0  0  0  0  0  0  0  0  0  0  0  0
    9.4779    1.6767   22.1801 H   0  0  0  0  0  0  0  0  0  0  0  0
    8.2434    1.9324   20.9603 H   0  0  0  0  0  0  0  0  0  0  0  0
    8.2995    3.4882   22.4587 C   0  0  0  0  0  0  0  0  0  0  0  0
    8.9926    4.0848   21.8567 H   0  0  0  0  0  0  0  0  0  0  0  0
    7.2954    3.8622   22.1902 H   0  0  0  0  0  0  0  0  0  0  0  0
    8.5555    3.8303   23.9385 C   0  0  0  0  0  0  0  0  0  0  0  0
    7.8403    3.2739   24.5611 H   0  0  0  0  0  0  0  0  0  0  0  0
    8.2988    4.8914   24.0613 H   0  0  0  0  0  0  0  0  0  0  0  0
    9.9645    3.5991   24.5342 C   0  0  0  0  0  0  0  0  0  0  0  0
   10.0665    2.5513   24.8504 H   0  0  0  0  0  0  0  0  0  0  0  0
    9.9884    4.1970   25.4578 H   0  0  0  0  0  0  0  0  0  0  0  0
   11.2003    3.9526   23.6835 C   0  0  0  0  0  0  0  0  0  0  0  0
   11.1230    3.4622   22.7022 H   0  0  0  0  0  0  0  0  0  0  0  0
   12.0733    3.4949   24.1672 H   0  0  0  0  0  0  0  0  0  0  0  0
   11.4852    5.4440   23.4915 C   0  0  0  0  0  0  0  0  0  0  0  0
   10.7019    5.9396   22.9087 H   0  0  0  0  0  0  0  0  0  0  0  0
   12.4302    5.5932   22.9544 H   0  0  0  0  0  0  0  0  0  0  0  0
   11.5548    5.9708   24.4513 H   0  0  0  0  0  0  0  0  0  0  0  0
    5.4629    0.6205   20.1404 C   0  0  0  0  0  0  0  0  0  0  0  0
    4.9662    0.6071   21.1113 H   0  0  0  0  0  0  0  0  0  0  0  0
    4.9065    1.2941   19.0484 C   0  0  0  0  0  0  0  0  0  0  0  0
    3.9847    1.8558   19.1535 H   0  0  0  0  0  0  0  0  0  0  0  0
  1  2  1  0
  2  3  2  0
  3  4  1  0
  4  5  1  0
  4  6  2  0
  6  7  1  0
  7  8  1  0
  8  9  2  0
  9 10  1  0
  9 11  1  0
 11 12  1  0
 11 13  2  0
 13 14  1  0
 14 15  1  0
 14 16  1  0
 14 17  1  0
 17 18  1  0
 17 19  1  0
 17 20  1  0
 20 21  1  0
 20 22  1  0
 20 23  1  0
 23 24  1  0
 23 25  1  0
 23 26  1  0
 26 27  1  0
 26 28  1  0
 26 29  1  0
 29 30  1  0
 29 31  1  0
 29 32  1  0
 32 33  1  0
 32 34  1  0
 32 35  1  0
  6 36  1  0
 36 37  1  0
 36 38  2  0
 38 39  1  0
 38  2  1  0
 13  7  1  0
M  END
>  <cnnaffinity>  (1) 
-5.28824

>  <filename>  (1) 
CCCCCCCc1ccnn1-c1cccnc1

$$$$
