
     RDKit          3D

 38 40  0  0  0  0  0  0  0  0999 V2000
    8.1216   -5.9512   23.0825 C   0  0  0  0  0  0  0  0  0  0  0  0
    7.5461   -4.5656   22.8219 C   0  0  0  0  0  0  0  0  0  0  0  0
    8.5954   -3.6221   22.2077 C   0  0  0  0  0  0  0  0  0  0  0  0
    8.1510   -2.2320   21.9528 C   0  0  0  0  0  0  0  0  0  0  0  0
    7.7119   -1.8604   20.7703 N   0  0  0  0  0  0  0  0  0  0  0  0
    7.3501   -0.5765   20.9517 N   0  0  0  0  0  0  0  0  0  0  0  0
    6.6318    0.0680   19.9085 C   0  0  0  0  0  0  0  0  0  0  0  0
    5.3796    0.6541   20.1223 C   0  0  0  0  0  0  0  0  0  0  0  0
    4.7715    1.2940   19.0385 C   0  0  0  0  0  0  0  0  0  0  0  0
    5.4104    1.2812   17.7964 C   0  0  0  0  0  0  0  0  0  0  0  0
    6.5653    0.6275   17.5716 N   0  0  0  0  0  0  0  0  0  0  0  0
    7.1548    0.0257   18.6066 C   0  0  0  0  0  0  0  0  0  0  0  0
    8.0819   -0.5120   18.4064 H   0  0  0  0  0  0  0  0  0  0  0  0
    4.9880    1.8203   16.9503 H   0  0  0  0  0  0  0  0  0  0  0  0
    3.8351    1.8256   19.1665 H   0  0  0  0  0  0  0  0  0  0  0  0
    4.9247    0.6471   21.1128 H   0  0  0  0  0  0  0  0  0  0  0  0
    7.6630   -0.2119   22.2314 C   0  0  0  0  0  0  0  0  0  0  0  0
    7.4912    1.1509   22.7837 C   0  0  0  0  0  0  0  0  0  0  0  0
    7.4049    1.3079   24.1824 C   0  0  0  0  0  0  0  0  0  0  0  0
    7.2293    2.5739   24.7146 C   0  0  0  0  0  0  0  0  0  0  0  0
    7.1474    3.6469   23.8132 C   0  0  0  0  0  0  0  0  0  0  0  0
    7.0304    5.0637   24.2487 C   0  0  0  0  0  0  0  0  0  0  0  0
    6.3724    5.8139   23.3421 F   0  0  0  0  0  0  0  0  0  0  0  0
    6.3774    5.1847   25.4174 F   0  0  0  0  0  0  0  0  0  0  0  0
    8.2422    5.6284   24.4139 F   0  0  0  0  0  0  0  0  0  0  0  0
    7.2483    3.4088   22.4394 C   0  0  0  0  0  0  0  0  0  0  0  0
    7.4288    2.2003   21.9319 N   0  0  0  0  0  0  0  0  0  0  0  0
    7.1483    4.2329   21.7344 H   0  0  0  0  0  0  0  0  0  0  0  0
    7.1395    2.7194   25.7947 H   0  0  0  0  0  0  0  0  0  0  0  0
    7.4771    0.4283   24.8103 H   0  0  0  0  0  0  0  0  0  0  0  0
    8.1488   -1.2630   22.8866 N   0  0  0  0  0  0  0  0  0  0  0  0
    8.8440   -3.9970   21.2210 H   0  0  0  0  0  0  0  0  0  0  0  0
    9.5104   -3.5816   22.8105 H   0  0  0  0  0  0  0  0  0  0  0  0
    7.1536   -4.1513   23.7570 H   0  0  0  0  0  0  0  0  0  0  0  0
    6.6862   -4.6597   22.1446 H   0  0  0  0  0  0  0  0  0  0  0  0
    8.8902   -5.9298   23.8629 H   0  0  0  0  0  0  0  0  0  0  0  0
    8.5720   -6.3736   22.1785 H   0  0  0  0  0  0  0  0  0  0  0  0
    7.3333   -6.6293   23.4089 H   0  0  0  0  0  0  0  0  0  0  0  0
  1  2  1  0
  2  3  1  0
  3  4  1  0
  4  5  2  0
  5  6  1  0
  6  7  1  0
  7  8  2  0
  8  9  1  0
  9 10  2  0
 10 11  1  0
 11 12  2  0
 12 13  1  0
 10 14  1  0
  9 15  1  0
  8 16  1  0
  6 17  1  0
 17 18  1  0
 18 19  2  0
 19 20  1  0
 20 21  2  0
 21 22  1  0
 22 23  1  0
 22 24  1  0
 22 25  1  0
 21 26  1  0
 26 27  2  0
 26 28  1  0
 20 29  1  0
 19 30  1  0
 17 31  2  0
  3 32  1  0
  3 33  1  0
  2 34  1  0
  2 35  1  0
  1 36  1  0
  1 37  1  0
  1 38  1  0
 31  4  1  0
 12  7  1  0
 27 18  1  0
M  END
>  <cnnaffinity>  (1) 
-5.5765

>  <filename>  (1) 
CCCc1nc(-c2ccc(C(F)(F)F)cn2)n(-c2cccnc2)n1

$$$$
