
     RDKit          3D

 36 37  0  0  0  0  0  0  0  0999 V2000
    4.9310    1.7817   16.9948 H   0  0  0  0  0  0  0  0  0  0  0  0
    5.4077    1.2896   17.8418 C   0  0  0  0  0  0  0  0  0  0  0  0
    6.5735    0.6665   17.5978 N   0  0  0  0  0  0  0  0  0  0  0  0
    7.1746    0.0379   18.6135 C   0  0  0  0  0  0  0  0  0  0  0  0
    8.1205   -0.4397   18.3769 H   0  0  0  0  0  0  0  0  0  0  0  0
    6.6587    0.0010   19.9205 C   0  0  0  0  0  0  0  0  0  0  0  0
    7.3812   -0.6727   20.9445 N   0  0  0  0  0  0  0  0  0  0  0  0
    7.7644   -1.9567   20.7759 N   0  0  0  0  0  0  0  0  0  0  0  0
    8.3983   -2.2785   21.8917 C   0  0  0  0  0  0  0  0  0  0  0  0
    8.7991   -3.2767   22.0086 H   0  0  0  0  0  0  0  0  0  0  0  0
    8.4534   -1.1988   22.7925 C   0  0  0  0  0  0  0  0  0  0  0  0
    8.9581   -1.1320   23.7481 H   0  0  0  0  0  0  0  0  0  0  0  0
    7.7958   -0.1727   22.1541 C   0  0  0  0  0  0  0  0  0  0  0  0
    7.6918    1.2709   22.5337 C   0  0  0  0  0  0  0  0  0  0  0  0
    6.6580    1.6289   22.4727 H   0  0  0  0  0  0  0  0  0  0  0  0
    7.9614    1.3354   23.5925 H   0  0  0  0  0  0  0  0  0  0  0  0
    8.6103    2.1823   21.6940 C   0  0  0  0  0  0  0  0  0  0  0  0
    8.5248    3.2107   22.0699 H   0  0  0  0  0  0  0  0  0  0  0  0
    8.2337    2.1944   20.6640 H   0  0  0  0  0  0  0  0  0  0  0  0
   10.0908    1.7773   21.6988 C   0  0  0  0  0  0  0  0  0  0  0  0
   10.1935    0.7594   21.3006 H   0  0  0  0  0  0  0  0  0  0  0  0
   10.6338    2.4194   20.9954 H   0  0  0  0  0  0  0  0  0  0  0  0
   10.7658    1.8706   23.0707 C   0  0  0  0  0  0  0  0  0  0  0  0
   10.5764    2.8653   23.4935 H   0  0  0  0  0  0  0  0  0  0  0  0
   10.2974    1.1619   23.7667 H   0  0  0  0  0  0  0  0  0  0  0  0
   12.2748    1.6094   23.0457 C   0  0  0  0  0  0  0  0  0  0  0  0
   12.7418    2.2716   22.3067 H   0  0  0  0  0  0  0  0  0  0  0  0
   12.7076    1.8940   24.0125 H   0  0  0  0  0  0  0  0  0  0  0  0
   12.6398    0.1591   22.7383 C   0  0  0  0  0  0  0  0  0  0  0  0
   12.3310   -0.1401   21.7324 H   0  0  0  0  0  0  0  0  0  0  0  0
   13.7161   -0.0194   22.8257 H   0  0  0  0  0  0  0  0  0  0  0  0
   12.1255   -0.5134   23.4298 H   0  0  0  0  0  0  0  0  0  0  0  0
    5.4414    0.6515   20.1721 C   0  0  0  0  0  0  0  0  0  0  0  0
    4.9984    0.6337   21.1699 H   0  0  0  0  0  0  0  0  0  0  0  0
    4.8117    1.3037   19.1068 C   0  0  0  0  0  0  0  0  0  0  0  0
    3.8800    1.8365   19.2582 H   0  0  0  0  0  0  0  0  0  0  0  0
  1  2  1  0
  2  3  2  0
  3  4  1  0
  4  5  1  0
  4  6  2  0
  6  7  1  0
  7  8  1  0
  8  9  2  0
  9 10  1  0
  9 11  1  0
 11 12  1  0
 11 13  2  0
 13 14  1  0
 14 15  1  0
 14 16  1  0
 14 17  1  0
 17 18  1  0
 17 19  1  0
 17 20  1  0
 20 21  1  0
 20 22  1  0
 20 23  1  0
 23 24  1  0
 23 25  1  0
 23 26  1  0
 26 27  1  0
 26 28  1  0
 26 29  1  0
 29 30  1  0
 29 31  1  0
 29 32  1  0
  6 33  1  0
 33 34  1  0
 33 35  2  0
 35 36  1  0
 35  2  1  0
 13  7  1  0
M  END
>  <cnnaffinity>  (1) 
-5.39963

>  <filename>  (1) 
CCCCCCc1ccnn1-c1cccnc1

$$$$
