
     RDKit          3D

 35 36  0  0  0  0  0  0  0  0999 V2000
    4.8643    1.6204   17.1966 H   0  0  0  0  0  0  0  0  0  0  0  0
    5.3385    1.1918   18.0772 C   0  0  0  0  0  0  0  0  0  0  0  0
    6.4712    0.5062   17.8568 N   0  0  0  0  0  0  0  0  0  0  0  0
    7.0890   -0.0204   18.9165 C   0  0  0  0  0  0  0  0  0  0  0  0
    7.9935   -0.5758   18.6854 H   0  0  0  0  0  0  0  0  0  0  0  0
    6.6365    0.1090   20.2532 C   0  0  0  0  0  0  0  0  0  0  0  0
    7.3542   -0.4310   21.4063 C   0  0  0  0  0  0  0  0  0  0  0  0
    8.5392   -1.1071   21.5742 C   0  0  0  0  0  0  0  0  0  0  0  0
    9.7605   -1.3512   20.7314 C   0  0  0  0  0  0  0  0  0  0  0  0
    9.6883   -2.3647   20.3091 H   0  0  0  0  0  0  0  0  0  0  0  0
    9.7745   -0.6495   19.8801 H   0  0  0  0  0  0  0  0  0  0  0  0
   11.1016   -1.2292   21.4743 C   0  0  0  0  0  0  0  0  0  0  0  0
   11.1745   -1.9993   22.2587 H   0  0  0  0  0  0  0  0  0  0  0  0
   11.9018   -1.4628   20.7589 H   0  0  0  0  0  0  0  0  0  0  0  0
   11.3936    0.1609   22.0657 C   0  0  0  0  0  0  0  0  0  0  0  0
   10.6095    0.4175   22.7958 H   0  0  0  0  0  0  0  0  0  0  0  0
   11.3344    0.9252   21.2742 H   0  0  0  0  0  0  0  0  0  0  0  0
   12.7864    0.2376   22.7172 C   0  0  0  0  0  0  0  0  0  0  0  0
   13.5532    0.2213   21.9264 H   0  0  0  0  0  0  0  0  0  0  0  0
   12.9548   -0.6741   23.3011 H   0  0  0  0  0  0  0  0  0  0  0  0
   13.0291    1.4331   23.6557 C   0  0  0  0  0  0  0  0  0  0  0  0
   12.2100    1.4848   24.3881 H   0  0  0  0  0  0  0  0  0  0  0  0
   13.9304    1.2167   24.2422 H   0  0  0  0  0  0  0  0  0  0  0  0
   13.2096    2.8045   22.9923 C   0  0  0  0  0  0  0  0  0  0  0  0
   13.1518    3.5981   23.7439 H   0  0  0  0  0  0  0  0  0  0  0  0
   12.4527    3.0213   22.2270 H   0  0  0  0  0  0  0  0  0  0  0  0
   14.1941    2.8885   22.5201 H   0  0  0  0  0  0  0  0  0  0  0  0
    8.2581   -1.4699   22.9750 C   0  0  0  0  0  0  0  0  0  0  0  0
    8.7507   -2.2131   23.7900 O   0  0  0  0  0  0  0  0  0  0  0  0
    7.0146   -0.5205   22.8744 C   0  0  0  0  0  0  0  0  0  0  0  0
    6.2288   -0.0169   23.6323 O   0  0  0  0  0  0  0  0  0  0  0  0
    5.4268    0.7979   20.4465 C   0  0  0  0  0  0  0  0  0  0  0  0
    5.0379    0.8766   21.4618 H   0  0  0  0  0  0  0  0  0  0  0  0
    4.7734    1.3463   19.3459 C   0  0  0  0  0  0  0  0  0  0  0  0
    3.8437    1.8904   19.4566 H   0  0  0  0  0  0  0  0  0  0  0  0
  1  2  1  0
  2  3  2  0
  3  4  1  0
  4  5  1  0
  4  6  2  0
  6  7  1  0
  7  8  2  0
  8  9  1  0
  9 10  1  0
  9 11  1  0
  9 12  1  0
 12 13  1  0
 12 14  1  0
 12 15  1  0
 15 16  1  0
 15 17  1  0
 15 18  1  0
 18 19  1  0
 18 20  1  0
 18 21  1  0
 21 22  1  0
 21 23  1  0
 21 24  1  0
 24 25  1  0
 24 26  1  0
 24 27  1  0
  8 28  1  0
 28 29  2  0
 28 30  1  0
 30 31  2  0
  6 32  1  0
 32 33  1  0
 32 34  2  0
 34 35  1  0
 34  2  1  0
 30  7  1  0
M  END
>  <cnnaffinity>  (1) 
-4.98131

>  <filename>  (1) 
CCCCCCc1c(-c2cccnc2)c(=O)c1=O

$$$$
