
     RDKit          3D

 44 46  0  0  0  0  0  0  0  0999 V2000
    5.6282   -2.5767   27.1913 C   0  0  0  0  0  0  0  0  0  0  0  0
    6.4854   -3.2893   26.1438 C   0  0  0  0  0  0  0  0  0  0  0  0
    6.5621   -2.5182   24.8218 C   0  0  0  0  0  0  0  0  0  0  0  0
    7.5078   -3.1450   23.7609 C   0  0  0  0  0  0  0  0  0  0  0  0
    7.0034   -4.4969   23.2309 C   0  0  0  0  0  0  0  0  0  0  0  0
    6.0247   -4.3844   22.7486 H   0  0  0  0  0  0  0  0  0  0  0  0
    7.6984   -4.9053   22.4892 H   0  0  0  0  0  0  0  0  0  0  0  0
    6.9086   -5.2311   24.0386 H   0  0  0  0  0  0  0  0  0  0  0  0
    7.7416   -2.1718   22.6331 C   0  0  0  0  0  0  0  0  0  0  0  0
    8.8178   -1.4175   22.5684 N   0  0  0  0  0  0  0  0  0  0  0  0
    8.5977   -0.6371   21.4793 N   0  0  0  0  0  0  0  0  0  0  0  0
    9.5257    0.4768   21.2325 C   0  0  0  0  0  0  0  0  0  0  0  0
    9.1020    1.7892   21.8207 C   0  0  0  0  0  0  0  0  0  0  0  0
    8.0557    2.6332   21.3531 C   0  0  0  0  0  0  0  0  0  0  0  0
    7.9920    4.2351   22.2091 C   0  0  0  0  0  0  0  0  0  0  0  0
    7.9207    3.9275   22.3403 C   0  0  0  0  0  0  0  0  0  0  0  0
    9.2560    3.3516   23.4235 C   0  0  0  0  0  0  0  0  0  0  0  0
    9.7585    2.2401   22.9720 N   0  0  0  0  0  0  0  0  0  0  0  0
    9.6410    3.7422   24.3879 H   0  0  0  0  0  0  0  0  0  0  0  0
    6.9701    4.6427   22.7316 H   0  0  0  0  0  0  0  0  0  0  0  0
    8.5846    5.0959   21.6107 H   0  0  0  0  0  0  0  0  0  0  0  0
    7.1012    2.1787   21.1063 H   0  0  0  0  0  0  0  0  0  0  0  0
    9.6888    0.5575   20.1563 H   0  0  0  0  0  0  0  0  0  0  0  0
   10.4669    0.1751   21.6964 H   0  0  0  0  0  0  0  0  0  0  0  0
    7.3766   -0.9473   20.9663 C   0  0  0  0  0  0  0  0  0  0  0  0
    6.7311   -0.2597   19.8405 C   0  0  0  0  0  0  0  0  0  0  0  0
    5.4322    0.2573   19.9606 C   0  0  0  0  0  0  0  0  0  0  0  0
    4.8957    0.9491   18.8761 C   0  0  0  0  0  0  0  0  0  0  0  0
    5.6613    1.0753   17.7101 C   0  0  0  0  0  0  0  0  0  0  0  0
    6.8884    0.5506   17.5716 N   0  0  0  0  0  0  0  0  0  0  0  0
    7.4024   -0.0964   18.6222 C   0  0  0  0  0  0  0  0  0  0  0  0
    8.3991   -0.5190   18.4851 H   0  0  0  0  0  0  0  0  0  0  0  0
    5.2689    1.6165   16.8515 H   0  0  0  0  0  0  0  0  0  0  0  0
    3.9125    1.4029   18.9274 H   0  0  0  0  0  0  0  0  0  0  0  0
    4.8716    0.1266   20.8920 H   0  0  0  0  0  0  0  0  0  0  0  0
    6.8217   -1.9198   21.6630 N   0  0  0  0  0  0  0  0  0  0  0  0
    8.4945   -3.2782   24.2224 H   0  0  0  0  0  0  0  0  0  0  0  0
    5.5548   -2.4176   24.3871 H   0  0  0  0  0  0  0  0  0  0  0  0
    6.9023   -1.4935   25.0358 H   0  0  0  0  0  0  0  0  0  0  0  0
    7.5028   -3.4264   26.5375 H   0  0  0  0  0  0  0  0  0  0  0  0
    6.0838   -4.2968   25.9732 H   0  0  0  0  0  0  0  0  0  0  0  0
    4.5992   -2.4429   26.8371 H   0  0  0  0  0  0  0  0  0  0  0  0
    5.5847   -3.1434   28.1269 H   0  0  0  0  0  0  0  0  0  0  0  0
    6.0283   -1.5822   27.4228 H   0  0  0  0  0  0  0  0  0  0  0  0
  1  2  1  0
  2  3  1  0
  3  4  1  0
  4  5  1  0
  5  6  1  0
  5  7  1  0
  5  8  1  0
  4  9  1  0
  9 10  2  0
 10 11  1  0
 11 12  1  0
 12 13  1  0
 13 14  2  0
 14 15  1  0
 15 16  2  0
 16 17  1  0
 17 18  2  0
 17 19  1  0
 16 20  1  0
 15 21  1  0
 14 22  1  0
 12 23  1  0
 12 24  1  0
 11 25  1  0
 25 26  1  0
 26 27  2  0
 27 28  1  0
 28 29  2  0
 29 30  1  0
 30 31  2  0
 31 32  1  0
 29 33  1  0
 28 34  1  0
 27 35  1  0
 25 36  2  0
  4 37  1  0
  3 38  1  0
  3 39  1  0
  2 40  1  0
  2 41  1  0
  1 42  1  0
  1 43  1  0
  1 44  1  0
 36  9  1  0
 18 13  1  0
 31 26  1  0
M  END
>  <cnnaffinity>  (1) 
-5.81781

>  <filename>  (1) 
CCCC(C)c1nc(-c2cccnc2)n(Cc2ccccn2)n1

$$$$
