
     RDKit          3D

 39 40  0  0  0  0  0  0  0  0999 V2000
    5.0208    1.7323   16.9103 H   0  0  0  0  0  0  0  0  0  0  0  0
    5.4477    1.2412   17.7814 C   0  0  0  0  0  0  0  0  0  0  0  0
    6.5843    0.5562   17.5687 N   0  0  0  0  0  0  0  0  0  0  0  0
    7.1173   -0.0780   18.6174 C   0  0  0  0  0  0  0  0  0  0  0  0
    8.0316   -0.6420   18.4192 H   0  0  0  0  0  0  0  0  0  0  0  0
    6.5843   -0.0328   19.9186 C   0  0  0  0  0  0  0  0  0  0  0  0
    7.2982   -0.7076   21.0078 C   0  0  0  0  0  0  0  0  0  0  0  0
    7.7787   -0.1028   22.1500 C   0  0  0  0  0  0  0  0  0  0  0  0
    7.7559    1.4027   22.2962 C   0  0  0  0  0  0  0  0  0  0  0  0
    7.9343    1.6802   23.3399 H   0  0  0  0  0  0  0  0  0  0  0  0
    6.7660    1.7984   22.0615 H   0  0  0  0  0  0  0  0  0  0  0  0
    8.7930    2.0686   21.3741 C   0  0  0  0  0  0  0  0  0  0  0  0
    8.5651    1.7830   20.3393 H   0  0  0  0  0  0  0  0  0  0  0  0
    8.6775    3.1581   21.4165 H   0  0  0  0  0  0  0  0  0  0  0  0
   10.2380    1.6949   21.7224 C   0  0  0  0  0  0  0  0  0  0  0  0
   10.9126    2.1725   21.0064 H   0  0  0  0  0  0  0  0  0  0  0  0
   10.3773    0.6171   21.5659 H   0  0  0  0  0  0  0  0  0  0  0  0
   10.6309    2.0575   23.1657 C   0  0  0  0  0  0  0  0  0  0  0  0
   10.5462    3.1497   23.2889 H   0  0  0  0  0  0  0  0  0  0  0  0
    9.9161    1.6027   23.8603 H   0  0  0  0  0  0  0  0  0  0  0  0
   12.0127    1.5854   23.6204 C   0  0  0  0  0  0  0  0  0  0  0  0
   12.0520    0.4903   23.5316 H   0  0  0  0  0  0  0  0  0  0  0  0
   12.1515    1.8058   24.6884 H   0  0  0  0  0  0  0  0  0  0  0  0
   13.1543    2.2167   22.8447 C   0  0  0  0  0  0  0  0  0  0  0  0
   14.1028    1.7304   23.0875 H   0  0  0  0  0  0  0  0  0  0  0  0
   13.2457    3.2798   23.0820 H   0  0  0  0  0  0  0  0  0  0  0  0
   12.9762    2.1523   21.7685 H   0  0  0  0  0  0  0  0  0  0  0  0
    8.4810   -0.9225   23.0937 C   0  0  0  0  0  0  0  0  0  0  0  0
    8.8902   -0.4353   23.9836 H   0  0  0  0  0  0  0  0  0  0  0  0
    8.6691   -2.2625   22.8832 C   0  0  0  0  0  0  0  0  0  0  0  0
    9.1871   -2.9147   23.5684 H   0  0  0  0  0  0  0  0  0  0  0  0
    8.1735   -2.9032   21.6693 C   0  0  0  0  0  0  0  0  0  0  0  0
    8.2723   -4.0846   21.3722 O   0  0  0  0  0  0  0  0  0  0  0  0
    7.5452   -2.0436   20.7935 N   0  0  0  0  0  0  0  0  0  0  0  0
    7.2406   -2.5000   19.9479 H   0  0  0  0  0  0  0  0  0  0  0  0
    5.3902    0.6793   20.1201 C   0  0  0  0  0  0  0  0  0  0  0  0
    4.9363    0.7145   21.1122 H   0  0  0  0  0  0  0  0  0  0  0  0
    4.8090    1.3197   19.0226 C   0  0  0  0  0  0  0  0  0  0  0  0
    3.8901    1.8848   19.1276 H   0  0  0  0  0  0  0  0  0  0  0  0
  1  2  1  0
  2  3  2  0
  3  4  1  0
  4  5  1  0
  4  6  2  0
  6  7  1  0
  7  8  2  0
  8  9  1  0
  9 10  1  0
  9 11  1  0
  9 12  1  0
 12 13  1  0
 12 14  1  0
 12 15  1  0
 15 16  1  0
 15 17  1  0
 15 18  1  0
 18 19  1  0
 18 20  1  0
 18 21  1  0
 21 22  1  0
 21 23  1  0
 21 24  1  0
 24 25  1  0
 24 26  1  0
 24 27  1  0
  8 28  1  0
 28 29  1  0
 28 30  2  0
 30 31  1  0
 30 32  1  0
 32 33  2  0
 32 34  1  0
 34 35  1  0
  6 36  1  0
 36 37  1  0
 36 38  2  0
 38 39  1  0
 38  2  1  0
 34  7  1  0
M  END
>  <cnnaffinity>  (1) 
-5.51532

>  <filename>  (1) 
CCCCCCc1ccc(=O)[nH]c1-c1cccnc1

$$$$
