
     RDKit          3D

 50 51  0  0  0  0  0  0  0  0999 V2000
    4.9150    1.7906   16.9839 H   0  0  0  0  0  0  0  0  0  0  0  0
    5.3931    1.2980   17.8255 C   0  0  0  0  0  0  0  0  0  0  0  0
    6.5565    0.6848   17.5664 N   0  0  0  0  0  0  0  0  0  0  0  0
    7.1632    0.0739   18.5944 C   0  0  0  0  0  0  0  0  0  0  0  0
    8.1064   -0.4151   18.3514 H   0  0  0  0  0  0  0  0  0  0  0  0
    6.6613    0.0215   19.9104 C   0  0  0  0  0  0  0  0  0  0  0  0
    7.4713   -0.6201   21.0398 C   0  0  2  0  0  0  0  0  0  0  0  0
    8.5705    0.3305   21.5455 C   0  0  0  0  0  0  0  0  0  0  0  0
    9.0861   -0.1561   22.3871 H   0  0  0  0  0  0  0  0  0  0  0  0
    9.3170    0.4405   20.7440 H   0  0  0  0  0  0  0  0  0  0  0  0
    8.0828    1.7160   21.9479 C   0  0  0  0  0  0  0  0  0  0  0  0
    7.2499    1.6286   22.6598 H   0  0  0  0  0  0  0  0  0  0  0  0
    7.6619    2.2179   21.0645 H   0  0  0  0  0  0  0  0  0  0  0  0
    9.2054    2.5624   22.5357 C   0  0  0  0  0  0  0  0  0  0  0  0
   10.0559    2.5610   21.8399 H   0  0  0  0  0  0  0  0  0  0  0  0
    9.5654    2.0886   23.4622 H   0  0  0  0  0  0  0  0  0  0  0  0
    8.7961    4.0047   22.8275 C   0  0  0  0  0  0  0  0  0  0  0  0
    8.3518    4.4417   21.9200 H   0  0  0  0  0  0  0  0  0  0  0  0
    9.6973    4.5959   23.0305 H   0  0  0  0  0  0  0  0  0  0  0  0
    7.8021    4.1451   23.9848 C   0  0  0  0  0  0  0  0  0  0  0  0
    8.2237    3.6653   24.8811 H   0  0  0  0  0  0  0  0  0  0  0  0
    6.8866    3.5863   23.7527 H   0  0  0  0  0  0  0  0  0  0  0  0
    7.4392    5.5948   24.3105 C   0  0  0  0  0  0  0  0  0  0  0  0
    7.1831    6.1209   23.3781 H   0  0  0  0  0  0  0  0  0  0  0  0
    6.5277    5.6102   24.9208 H   0  0  0  0  0  0  0  0  0  0  0  0
    8.5514    6.3657   25.0289 C   0  0  0  0  0  0  0  0  0  0  0  0
    9.4741    6.3291   24.4348 H   0  0  0  0  0  0  0  0  0  0  0  0
    8.7865    5.8511   25.9727 H   0  0  0  0  0  0  0  0  0  0  0  0
    8.2000    7.8262   25.3293 C   0  0  0  0  0  0  0  0  0  0  0  0
    7.8795    8.3167   24.3989 H   0  0  0  0  0  0  0  0  0  0  0  0
    9.1056    8.3552   25.6505 H   0  0  0  0  0  0  0  0  0  0  0  0
    7.1146    7.9909   26.3966 C   0  0  0  0  0  0  0  0  0  0  0  0
    6.1490    7.5898   26.0667 H   0  0  0  0  0  0  0  0  0  0  0  0
    6.9646    9.0448   26.6531 H   0  0  0  0  0  0  0  0  0  0  0  0
    7.3876    7.4592   27.3167 H   0  0  0  0  0  0  0  0  0  0  0  0
    8.0971   -1.9564   20.5949 C   0  0  0  0  0  0  0  0  0  0  0  0
    7.3090   -2.3811   19.9633 H   0  0  0  0  0  0  0  0  0  0  0  0
    9.0279   -1.8234   20.0288 H   0  0  0  0  0  0  0  0  0  0  0  0
    8.2995   -2.8319   21.7480 N   0  0  0  0  0  0  0  0  0  0  0  0
    9.2514   -2.7425   22.0897 H   0  0  0  0  0  0  0  0  0  0  0  0
    7.3552   -2.3778   22.7834 C   0  0  0  0  0  0  0  0  0  0  0  0
    6.6645   -3.1854   23.0641 H   0  0  0  0  0  0  0  0  0  0  0  0
    7.8935   -2.0726   23.6892 H   0  0  0  0  0  0  0  0  0  0  0  0
    6.5897   -1.1834   22.1809 C   0  0  0  0  0  0  0  0  0  0  0  0
    5.6521   -1.5424   21.7393 H   0  0  0  0  0  0  0  0  0  0  0  0
    6.3466   -0.4275   22.9326 H   0  0  0  0  0  0  0  0  0  0  0  0
    5.4333    0.6565   20.1451 C   0  0  0  0  0  0  0  0  0  0  0  0
    4.9949    0.6428   21.1450 H   0  0  0  0  0  0  0  0  0  0  0  0
    4.7999    1.3138   19.0904 C   0  0  0  0  0  0  0  0  0  0  0  0
    3.8715    1.8423   19.2483 H   0  0  0  0  0  0  0  0  0  0  0  0
  1  2  1  0
  2  3  2  0
  3  4  1  0
  4  5  1  0
  4  6  2  0
  6  7  1  0
  7  8  1  1
  8  9  1  0
  8 10  1  0
  8 11  1  0
 11 12  1  0
 11 13  1  0
 11 14  1  0
 14 15  1  0
 14 16  1  0
 14 17  1  0
 17 18  1  0
 17 19  1  0
 17 20  1  0
 20 21  1  0
 20 22  1  0
 20 23  1  0
 23 24  1  0
 23 25  1  0
 23 26  1  0
 26 27  1  0
 26 28  1  0
 26 29  1  0
 29 30  1  0
 29 31  1  0
 29 32  1  0
 32 33  1  0
 32 34  1  0
 32 35  1  0
  7 36  1  0
 36 37  1  0
 36 38  1  0
 36 39  1  0
 39 40  1  0
 39 41  1  0
 41 42  1  0
 41 43  1  0
 41 44  1  0
 44 45  1  0
 44 46  1  0
  6 47  1  0
 47 48  1  0
 47 49  2  0
 49 50  1  0
 49  2  1  0
 44  7  1  0
M  END
>  <cnnaffinity>  (1) 
-5.45745

>  <filename>  (1) 
CCCCCCCCC[C@]1(c2cccnc2)CCNC1

$$$$
