
     RDKit          3D

 41 43  0  0  0  0  0  0  0  0999 V2000
    8.0342   -1.6773   25.6241 C   0  0  0  0  0  0  0  0  0  0  0  0
    6.9083   -2.4194   24.9084 C   0  0  0  0  0  0  0  0  0  0  0  0
    7.4246   -3.0221   23.5968 C   0  0  0  0  0  0  0  0  0  0  0  0
    7.6361   -1.9643   22.5602 C   0  0  0  0  0  0  0  0  0  0  0  0
    6.7116   -1.6730   21.6789 N   0  0  0  0  0  0  0  0  0  0  0  0
    7.2914   -0.7041   20.9482 N   0  0  0  0  0  0  0  0  0  0  0  0
    6.6503   -0.0172   19.9152 C   0  0  0  0  0  0  0  0  0  0  0  0
    5.4275    0.6175   20.1471 C   0  0  0  0  0  0  0  0  0  0  0  0
    4.8238    1.2844   19.0820 C   0  0  0  0  0  0  0  0  0  0  0  0
    5.4505    1.3004   17.8345 C   0  0  0  0  0  0  0  0  0  0  0  0
    6.6227    0.6765   17.6040 N   0  0  0  0  0  0  0  0  0  0  0  0
    7.2116    0.0343   18.6304 C   0  0  0  0  0  0  0  0  0  0  0  0
    8.1577   -0.4739   18.4559 H   0  0  0  0  0  0  0  0  0  0  0  0
    4.9775    1.8510   17.0276 H   0  0  0  0  0  0  0  0  0  0  0  0
    3.8814    1.8074   19.2102 H   0  0  0  0  0  0  0  0  0  0  0  0
    4.9775    0.6046   21.1378 H   0  0  0  0  0  0  0  0  0  0  0  0
    8.5644   -0.4628   21.4365 C   0  0  0  0  0  0  0  0  0  0  0  0
    9.5052    0.5627   20.8746 C   0  0  0  0  0  0  0  0  0  0  0  0
    9.1651    1.9591   21.3987 C   0  0  0  0  0  0  0  0  0  0  0  0
    9.4713    1.9559   22.8614 C   0  0  0  0  0  0  0  0  0  0  0  0
   10.8011    2.0278   23.2722 C   0  0  0  0  0  0  0  0  0  0  0  0
   11.0657    1.9552   24.6319 C   0  0  0  0  0  0  0  0  0  0  0  0
    9.9859    1.7969   25.5085 C   0  0  0  0  0  0  0  0  0  0  0  0
    8.7041    1.7275   25.1199 N   0  0  0  0  0  0  0  0  0  0  0  0
    8.4467    1.7978   23.8045 C   0  0  0  0  0  0  0  0  0  0  0  0
    6.6405    1.6716   23.1828 Br  0  0  0  0  0  0  0  0  0  0  0  0
   10.1920    1.7167   26.5573 H   0  0  0  0  0  0  0  0  0  0  0  0
   12.0848    2.0069   25.0092 H   0  0  0  0  0  0  0  0  0  0  0  0
   11.5969    2.1158   22.5330 H   0  0  0  0  0  0  0  0  0  0  0  0
    9.7644    2.7245   20.8995 H   0  0  0  0  0  0  0  0  0  0  0  0
    8.1095    2.2088   21.2311 H   0  0  0  0  0  0  0  0  0  0  0  0
    9.4300    0.5525   19.7852 H   0  0  0  0  0  0  0  0  0  0  0  0
   10.5312    0.3006   21.1603 H   0  0  0  0  0  0  0  0  0  0  0  0
    8.8139   -1.2421   22.4506 N   0  0  0  0  0  0  0  0  0  0  0  0
    8.3697   -3.5400   23.7717 H   0  0  0  0  0  0  0  0  0  0  0  0
    6.7057   -3.7535   23.2180 H   0  0  0  0  0  0  0  0  0  0  0  0
    6.5328   -3.2200   25.5537 H   0  0  0  0  0  0  0  0  0  0  0  0
    6.0755   -1.7348   24.7115 H   0  0  0  0  0  0  0  0  0  0  0  0
    8.8398   -2.3740   25.8756 H   0  0  0  0  0  0  0  0  0  0  0  0
    8.4407   -0.8864   24.9848 H   0  0  0  0  0  0  0  0  0  0  0  0
    7.6636   -1.2242   26.5488 H   0  0  0  0  0  0  0  0  0  0  0  0
  1  2  1  0
  2  3  1  0
  3  4  1  0
  4  5  2  0
  5  6  1  0
  6  7  1  0
  7  8  2  0
  8  9  1  0
  9 10  2  0
 10 11  1  0
 11 12  2  0
 12 13  1  0
 10 14  1  0
  9 15  1  0
  8 16  1  0
  6 17  1  0
 17 18  1  0
 18 19  1  0
 19 20  1  0
 20 21  2  0
 21 22  1  0
 22 23  2  0
 23 24  1  0
 24 25  2  0
 25 26  1  0
 23 27  1  0
 22 28  1  0
 21 29  1  0
 19 30  1  0
 19 31  1  0
 18 32  1  0
 18 33  1  0
 17 34  2  0
  3 35  1  0
  3 36  1  0
  2 37  1  0
  2 38  1  0
  1 39  1  0
  1 40  1  0
  1 41  1  0
 34  4  1  0
 12  7  1  0
 25 20  1  0
M  END
>  <cnnaffinity>  (1) 
-5.97264

>  <filename>  (1) 
CCCc1nc(CCc2cccnc2Br)n(-c2cccnc2)n1

$$$$
