
     RDKit          3D

 38 39  0  0  0  0  0  0  0  0999 V2000
    4.9294    1.8124   16.9726 H   0  0  0  0  0  0  0  0  0  0  0  0
    5.3860    1.3054   17.8221 C   0  0  0  0  0  0  0  0  0  0  0  0
    6.5468    0.6850   17.5754 N   0  0  0  0  0  0  0  0  0  0  0  0
    7.1500    0.0696   18.5990 C   0  0  0  0  0  0  0  0  0  0  0  0
    8.0998   -0.4044   18.3545 H   0  0  0  0  0  0  0  0  0  0  0  0
    6.6339    0.0030   19.9080 C   0  0  0  0  0  0  0  0  0  0  0  0
    7.4068   -0.7153   21.0013 C   0  0  0  0  0  0  0  0  0  0  0  0
    6.8256   -0.7634   21.9309 H   0  0  0  0  0  0  0  0  0  0  0  0
    7.6213   -1.7563   20.7229 H   0  0  0  0  0  0  0  0  0  0  0  0
    8.6879   -0.0876   21.2947 N   0  0  0  0  0  0  0  0  0  0  0  0
    9.9132   -0.4813   20.8499 C   0  0  0  0  0  0  0  0  0  0  0  0
   10.0428   -1.3727   20.2570 H   0  0  0  0  0  0  0  0  0  0  0  0
   10.8446    0.3440   21.2258 N   0  0  0  0  0  0  0  0  0  0  0  0
   10.2280    1.3320   21.9492 N   0  0  0  0  0  0  0  0  0  0  0  0
    8.9440    1.0668   21.9878 C   0  0  0  0  0  0  0  0  0  0  0  0
    7.9444    1.9034   22.7226 C   0  0  0  0  0  0  0  0  0  0  0  0
    8.1585    2.9405   22.4500 H   0  0  0  0  0  0  0  0  0  0  0  0
    6.9342    1.6852   22.3566 H   0  0  0  0  0  0  0  0  0  0  0  0
    8.0252    1.7434   24.2601 C   0  0  0  0  0  0  0  0  0  0  0  0
    7.4778    2.5753   24.7219 H   0  0  0  0  0  0  0  0  0  0  0  0
    9.0752    1.8684   24.5659 H   0  0  0  0  0  0  0  0  0  0  0  0
    7.4726    0.4050   24.7847 C   0  0  0  0  0  0  0  0  0  0  0  0
    7.1117    0.5397   25.8147 H   0  0  0  0  0  0  0  0  0  0  0  0
    6.5817    0.1271   24.1949 H   0  0  0  0  0  0  0  0  0  0  0  0
    8.4709   -0.7692   24.7623 C   0  0  0  0  0  0  0  0  0  0  0  0
    9.3019   -0.5447   25.4513 H   0  0  0  0  0  0  0  0  0  0  0  0
    8.9294   -0.8537   23.7621 H   0  0  0  0  0  0  0  0  0  0  0  0
    7.8402   -2.1163   25.1672 C   0  0  0  0  0  0  0  0  0  0  0  0
    6.9907   -2.3375   24.5003 H   0  0  0  0  0  0  0  0  0  0  0  0
    8.5698   -2.9179   24.9847 H   0  0  0  0  0  0  0  0  0  0  0  0
    7.3774   -2.1759   26.6350 C   0  0  0  0  0  0  0  0  0  0  0  0
    6.5561   -1.4771   26.8360 H   0  0  0  0  0  0  0  0  0  0  0  0
    8.1930   -1.9189   27.3237 H   0  0  0  0  0  0  0  0  0  0  0  0
    7.0209   -3.1756   26.9094 H   0  0  0  0  0  0  0  0  0  0  0  0
    5.4148    0.6521   20.1398 C   0  0  0  0  0  0  0  0  0  0  0  0
    4.9640    0.6473   21.1360 H   0  0  0  0  0  0  0  0  0  0  0  0
    4.7814    1.3169   19.0829 C   0  0  0  0  0  0  0  0  0  0  0  0
    3.8530    1.8570   19.2237 H   0  0  0  0  0  0  0  0  0  0  0  0
  1  2  1  0
  2  3  2  0
  3  4  1  0
  4  5  1  0
  4  6  2  0
  6  7  1  0
  7  8  1  0
  7  9  1  0
  7 10  1  0
 10 11  1  0
 11 12  1  0
 11 13  2  0
 13 14  1  0
 14 15  2  0
 15 16  1  0
 16 17  1  0
 16 18  1  0
 16 19  1  0
 19 20  1  0
 19 21  1  0
 19 22  1  0
 22 23  1  0
 22 24  1  0
 22 25  1  0
 25 26  1  0
 25 27  1  0
 25 28  1  0
 28 29  1  0
 28 30  1  0
 28 31  1  0
 31 32  1  0
 31 33  1  0
 31 34  1  0
  6 35  1  0
 35 36  1  0
 35 37  2  0
 37 38  1  0
 37  2  1  0
 15 10  1  0
M  END
>  <cnnaffinity>  (1) 
-5.17233

>  <filename>  (1) 
CCCCCCc1nncn1Cc1cccnc1

$$$$
