
     RDKit          3D

 36 37  0  0  0  0  0  0  0  0999 V2000
    4.9466    1.8150   16.9792 H   0  0  0  0  0  0  0  0  0  0  0  0
    5.4018    1.2950   17.8193 C   0  0  0  0  0  0  0  0  0  0  0  0
    6.5534    0.6594   17.5632 N   0  0  0  0  0  0  0  0  0  0  0  0
    7.1570    0.0406   18.5901 C   0  0  0  0  0  0  0  0  0  0  0  0
    8.1000   -0.4513   18.3527 H   0  0  0  0  0  0  0  0  0  0  0  0
    6.6559    0.0047   19.9069 C   0  0  0  0  0  0  0  0  0  0  0  0
    7.3962   -0.6982   20.9935 C   0  0  0  0  0  0  0  0  0  0  0  0
    6.6196   -1.9498   21.8998 S   0  0  0  0  0  0  0  0  0  0  0  0
    8.0071   -2.2124   22.8799 C   0  0  0  0  0  0  0  0  0  0  0  0
    7.9785   -2.9551   23.6715 H   0  0  0  0  0  0  0  0  0  0  0  0
    9.0161   -1.3739   22.5295 C   0  0  0  0  0  0  0  0  0  0  0  0
    9.9878   -1.3429   23.0199 H   0  0  0  0  0  0  0  0  0  0  0  0
    8.6836   -0.4965   21.4463 C   0  0  0  0  0  0  0  0  0  0  0  0
    9.6040    0.6074   20.9939 C   0  0  0  0  0  0  0  0  0  0  0  0
    9.3518    0.8787   19.9645 H   0  0  0  0  0  0  0  0  0  0  0  0
   10.6290    0.2147   20.9625 H   0  0  0  0  0  0  0  0  0  0  0  0
    9.5474    1.8471   21.9106 C   0  0  0  0  0  0  0  0  0  0  0  0
    9.8349    1.5420   22.9268 H   0  0  0  0  0  0  0  0  0  0  0  0
   10.3092    2.5638   21.5822 H   0  0  0  0  0  0  0  0  0  0  0  0
    8.1672    2.5171   21.9343 C   0  0  0  0  0  0  0  0  0  0  0  0
    7.8782    2.7280   20.8962 H   0  0  0  0  0  0  0  0  0  0  0  0
    7.4334    1.7737   22.2774 H   0  0  0  0  0  0  0  0  0  0  0  0
    8.0455    3.7803   22.8165 C   0  0  0  0  0  0  0  0  0  0  0  0
    8.3729    3.5299   23.8358 H   0  0  0  0  0  0  0  0  0  0  0  0
    6.9826    4.0470   22.9020 H   0  0  0  0  0  0  0  0  0  0  0  0
    8.8314    5.0042   22.3257 C   0  0  0  0  0  0  0  0  0  0  0  0
    9.8991    4.7503   22.3112 H   0  0  0  0  0  0  0  0  0  0  0  0
    8.5371    5.2113   21.2884 H   0  0  0  0  0  0  0  0  0  0  0  0
    8.6896    6.3092   23.1178 C   0  0  0  0  0  0  0  0  0  0  0  0
    9.2850    7.0916   22.6323 H   0  0  0  0  0  0  0  0  0  0  0  0
    9.0580    6.2220   24.1456 H   0  0  0  0  0  0  0  0  0  0  0  0
    7.6605    6.6839   23.1614 H   0  0  0  0  0  0  0  0  0  0  0  0
    5.4304    0.6562   20.1379 C   0  0  0  0  0  0  0  0  0  0  0  0
    4.9923    0.6602   21.1382 H   0  0  0  0  0  0  0  0  0  0  0  0
    4.7926    1.3138   19.0811 C   0  0  0  0  0  0  0  0  0  0  0  0
    3.8554    1.8515   19.2183 H   0  0  0  0  0  0  0  0  0  0  0  0
  1  2  1  0
  2  3  2  0
  3  4  1  0
  4  5  1  0
  4  6  2  0
  6  7  1  0
  7  8  1  0
  8  9  1  0
  9 10  1  0
  9 11  2  0
 11 12  1  0
 11 13  1  0
 13 14  1  0
 14 15  1  0
 14 16  1  0
 14 17  1  0
 17 18  1  0
 17 19  1  0
 17 20  1  0
 20 21  1  0
 20 22  1  0
 20 23  1  0
 23 24  1  0
 23 25  1  0
 23 26  1  0
 26 27  1  0
 26 28  1  0
 26 29  1  0
 29 30  1  0
 29 31  1  0
 29 32  1  0
  6 33  1  0
 33 34  1  0
 33 35  2  0
 35 36  1  0
 35  2  1  0
 13  7  2  0
M  END
>  <cnnaffinity>  (1) 
-5.01449

>  <filename>  (1) 
CCCCCCc1ccsc1-c1cccnc1

$$$$
