
     RDKit          3D

 39 40  0  0  0  0  0  0  0  0999 V2000
    4.9313    1.7865   16.9868 H   0  0  0  0  0  0  0  0  0  0  0  0
    5.3986    1.2924   17.8325 C   0  0  0  0  0  0  0  0  0  0  0  0
    6.5604    0.6740   17.5812 N   0  0  0  0  0  0  0  0  0  0  0  0
    7.1671    0.0646   18.5994 C   0  0  0  0  0  0  0  0  0  0  0  0
    8.1179   -0.4152   18.3822 H   0  0  0  0  0  0  0  0  0  0  0  0
    6.6397    0.0120   19.9000 C   0  0  0  0  0  0  0  0  0  0  0  0
    7.4067   -0.7024   20.9127 C   0  0  0  0  0  0  0  0  0  0  0  0
    8.6587   -1.0812   20.8047 N   0  0  0  0  0  0  0  0  0  0  0  0
    8.9605   -1.6889   21.9854 C   0  0  0  0  0  0  0  0  0  0  0  0
    9.9445   -2.1048   22.1626 H   0  0  0  0  0  0  0  0  0  0  0  0
    7.8837   -1.7042   22.8349 C   0  0  0  0  0  0  0  0  0  0  0  0
    7.6877   -2.3785   24.1497 C   0  0  0  0  0  0  0  0  0  0  0  0
    6.8706   -1.9051   24.7164 H   0  0  0  0  0  0  0  0  0  0  0  0
    8.5982   -2.2274   24.7426 H   0  0  0  0  0  0  0  0  0  0  0  0
    7.4145   -3.8880   24.0012 C   0  0  0  0  0  0  0  0  0  0  0  0
    7.4606   -4.3690   24.9896 H   0  0  0  0  0  0  0  0  0  0  0  0
    8.2200   -4.3409   23.4057 H   0  0  0  0  0  0  0  0  0  0  0  0
    6.0758   -4.1990   23.3338 C   0  0  0  0  0  0  0  0  0  0  0  0
    5.2698   -3.6892   23.8801 H   0  0  0  0  0  0  0  0  0  0  0  0
    6.0507   -3.7816   22.3167 H   0  0  0  0  0  0  0  0  0  0  0  0
    5.8003   -5.6982   23.2636 C   0  0  0  0  0  0  0  0  0  0  0  0
    5.7519   -6.1021   24.2864 H   0  0  0  0  0  0  0  0  0  0  0  0
    6.6523   -6.1997   22.7821 H   0  0  0  0  0  0  0  0  0  0  0  0
    4.5142   -6.0521   22.5176 C   0  0  0  0  0  0  0  0  0  0  0  0
    4.5362   -5.5971   21.5166 H   0  0  0  0  0  0  0  0  0  0  0  0
    4.4871   -7.1352   22.3534 H   0  0  0  0  0  0  0  0  0  0  0  0
    3.2326   -5.6284   23.2393 C   0  0  0  0  0  0  0  0  0  0  0  0
    3.2529   -6.0268   24.2637 H   0  0  0  0  0  0  0  0  0  0  0  0
    3.2089   -4.5366   23.3515 H   0  0  0  0  0  0  0  0  0  0  0  0
    1.9706   -6.1084   22.5224 C   0  0  0  0  0  0  0  0  0  0  0  0
    1.9592   -7.2031   22.4359 H   0  0  0  0  0  0  0  0  0  0  0  0
    1.9139   -5.7048   21.5043 H   0  0  0  0  0  0  0  0  0  0  0  0
    1.0594   -5.8035   23.0500 H   0  0  0  0  0  0  0  0  0  0  0  0
    6.8916   -1.0561   22.1244 N   0  0  0  0  0  0  0  0  0  0  0  0
    5.9263   -0.9513   22.3919 H   0  0  0  0  0  0  0  0  0  0  0  0
    5.4166    0.6594   20.1559 C   0  0  0  0  0  0  0  0  0  0  0  0
    4.9767    0.6668   21.1585 H   0  0  0  0  0  0  0  0  0  0  0  0
    4.7979    1.3155   19.0953 C   0  0  0  0  0  0  0  0  0  0  0  0
    3.8685    1.8470   19.2458 H   0  0  0  0  0  0  0  0  0  0  0  0
  1  2  1  0
  2  3  2  0
  3  4  1  0
  4  5  1  0
  4  6  2  0
  6  7  1  0
  7  8  2  0
  8  9  1  0
  9 10  1  0
  9 11  2  0
 11 12  1  0
 12 13  1  0
 12 14  1  0
 12 15  1  0
 15 16  1  0
 15 17  1  0
 15 18  1  0
 18 19  1  0
 18 20  1  0
 18 21  1  0
 21 22  1  0
 21 23  1  0
 21 24  1  0
 24 25  1  0
 24 26  1  0
 24 27  1  0
 27 28  1  0
 27 29  1  0
 27 30  1  0
 30 31  1  0
 30 32  1  0
 30 33  1  0
 11 34  1  0
 34 35  1  0
  6 36  1  0
 36 37  1  0
 36 38  2  0
 38 39  1  0
 38  2  1  0
 34  7  1  0
M  END
>  <cnnaffinity>  (1) 
-5.5435

>  <filename>  (1) 
CCCCCCCc1cnc(-c2cccnc2)[nH]1

$$$$
