
     RDKit          3D

 35 37  0  0  0  0  0  0  0  0999 V2000
    7.0034   -4.5663   23.6171 C   0  0  0  0  0  0  0  0  0  0  0  0
    7.8413   -4.7044   22.3519 C   0  0  0  0  0  0  0  0  0  0  0  0
    8.7616   -3.4962   22.0929 C   0  0  0  0  0  0  0  0  0  0  0  0
    8.1132   -2.1649   21.9648 C   0  0  0  0  0  0  0  0  0  0  0  0
    7.7355   -1.7723   20.7664 N   0  0  0  0  0  0  0  0  0  0  0  0
    7.2547   -0.5310   20.9800 N   0  0  0  0  0  0  0  0  0  0  0  0
    6.5867    0.1075   19.9138 C   0  0  0  0  0  0  0  0  0  0  0  0
    5.3655    0.7493   20.1146 C   0  0  0  0  0  0  0  0  0  0  0  0
    4.7761    1.3686   19.0096 C   0  0  0  0  0  0  0  0  0  0  0  0
    5.4245    1.3175   17.7710 C   0  0  0  0  0  0  0  0  0  0  0  0
    6.5745    0.6491   17.5679 N   0  0  0  0  0  0  0  0  0  0  0  0
    7.1224    0.0316   18.6165 C   0  0  0  0  0  0  0  0  0  0  0  0
    8.0233   -0.5526   18.4400 H   0  0  0  0  0  0  0  0  0  0  0  0
    5.0045    1.8194   16.9011 H   0  0  0  0  0  0  0  0  0  0  0  0
    3.8240    1.8747   19.1011 H   0  0  0  0  0  0  0  0  0  0  0  0
    4.8967    0.7312   21.0980 H   0  0  0  0  0  0  0  0  0  0  0  0
    7.3954   -0.2245   22.3037 C   0  0  0  0  0  0  0  0  0  0  0  0
    7.0812    1.0963   22.9162 C   0  0  0  0  0  0  0  0  0  0  0  0
    6.4258    1.1786   24.1599 C   0  0  0  0  0  0  0  0  0  0  0  0
    6.0957    2.4194   24.7003 C   0  0  0  0  0  0  0  0  0  0  0  0
    6.4029    3.5814   24.1043 N   0  0  0  0  0  0  0  0  0  0  0  0
    7.0591    3.5253   22.9557 C   0  0  0  0  0  0  0  0  0  0  0  0
    7.4560    5.0303   22.1954 Cl  0  0  0  0  0  0  0  0  0  0  0  0
    7.4314    2.3194   22.3206 C   0  0  0  0  0  0  0  0  0  0  0  0
    8.1100    2.3481   21.1710 F   0  0  0  0  0  0  0  0  0  0  0  0
    5.5548    2.4925   25.6408 H   0  0  0  0  0  0  0  0  0  0  0  0
    6.1652    0.2792   24.7050 H   0  0  0  0  0  0  0  0  0  0  0  0
    7.9058   -1.2616   22.9513 N   0  0  0  0  0  0  0  0  0  0  0  0
    9.5418   -3.4205   22.8587 H   0  0  0  0  0  0  0  0  0  0  0  0
    9.2106   -3.6066   21.1059 H   0  0  0  0  0  0  0  0  0  0  0  0
    7.1815   -4.8515   21.4830 H   0  0  0  0  0  0  0  0  0  0  0  0
    8.4753   -5.6022   22.4228 H   0  0  0  0  0  0  0  0  0  0  0  0
    6.3195   -5.4152   23.7098 H   0  0  0  0  0  0  0  0  0  0  0  0
    6.4089   -3.6463   23.5962 H   0  0  0  0  0  0  0  0  0  0  0  0
    7.6335   -4.5297   24.5137 H   0  0  0  0  0  0  0  0  0  0  0  0
  1  2  1  0
  2  3  1  0
  3  4  1  0
  4  5  2  0
  5  6  1  0
  6  7  1  0
  7  8  2  0
  8  9  1  0
  9 10  2  0
 10 11  1  0
 11 12  2  0
 12 13  1  0
 10 14  1  0
  9 15  1  0
  8 16  1  0
  6 17  1  0
 17 18  1  0
 18 19  2  0
 19 20  1  0
 20 21  2  0
 21 22  1  0
 22 23  1  0
 22 24  2  0
 24 25  1  0
 20 26  1  0
 19 27  1  0
 17 28  2  0
  3 29  1  0
  3 30  1  0
  2 31  1  0
  2 32  1  0
  1 33  1  0
  1 34  1  0
  1 35  1  0
 28  4  1  0
 12  7  1  0
 24 18  1  0
M  END
>  <cnnaffinity>  (1) 
-5.64031

>  <filename>  (1) 
CCCc1nc(-c2ccnc(Cl)c2F)n(-c2cccnc2)n1

$$$$
