
     RDKit          3D

 39 40  0  0  0  0  0  0  0  0999 V2000
    5.2975    2.1118   16.8083 H   0  0  0  0  0  0  0  0  0  0  0  0
    5.5061    1.4628   17.6576 C   0  0  0  0  0  0  0  0  0  0  0  0
    6.5966    0.6887   17.5469 N   0  0  0  0  0  0  0  0  0  0  0  0
    6.8905   -0.1210   18.5732 C   0  0  0  0  0  0  0  0  0  0  0  0
    7.7904   -0.7271   18.4862 H   0  0  0  0  0  0  0  0  0  0  0  0
    6.1048   -0.2180   19.7381 C   0  0  0  0  0  0  0  0  0  0  0  0
    6.5350   -1.0314   20.8551 N   0  0  0  0  0  0  0  0  0  0  0  0
    7.1075   -0.3663   21.9202 C   0  0  0  0  0  0  0  0  0  0  0  0
    6.9302    0.7044   21.9378 H   0  0  0  0  0  0  0  0  0  0  0  0
    7.8594   -0.9851   22.8757 C   0  0  0  0  0  0  0  0  0  0  0  0
    8.5632   -0.1381   23.9172 C   0  0  0  0  0  0  0  0  0  0  0  0
    7.8740    0.6625   24.2338 H   0  0  0  0  0  0  0  0  0  0  0  0
    8.7796   -0.7337   24.8148 H   0  0  0  0  0  0  0  0  0  0  0  0
    9.8550    0.5370   23.4078 C   0  0  0  0  0  0  0  0  0  0  0  0
    9.6597    1.0129   22.4346 H   0  0  0  0  0  0  0  0  0  0  0  0
   10.6299   -0.2207   23.2225 H   0  0  0  0  0  0  0  0  0  0  0  0
   10.4009    1.6054   24.3638 C   0  0  0  0  0  0  0  0  0  0  0  0
   10.6266    1.1578   25.3432 H   0  0  0  0  0  0  0  0  0  0  0  0
    9.6192    2.3549   24.5533 H   0  0  0  0  0  0  0  0  0  0  0  0
   11.6507    2.3227   23.8484 C   0  0  0  0  0  0  0  0  0  0  0  0
   12.3924    1.5717   23.5423 H   0  0  0  0  0  0  0  0  0  0  0  0
   12.1061    2.8719   24.6785 H   0  0  0  0  0  0  0  0  0  0  0  0
   11.4378    3.3150   22.7012 C   0  0  0  0  0  0  0  0  0  0  0  0
   10.7017    4.0725   23.0029 H   0  0  0  0  0  0  0  0  0  0  0  0
   11.0117    2.8123   21.8220 H   0  0  0  0  0  0  0  0  0  0  0  0
   12.7422    4.0178   22.3325 C   0  0  0  0  0  0  0  0  0  0  0  0
   13.4760    3.3077   21.9407 H   0  0  0  0  0  0  0  0  0  0  0  0
   12.5905    4.7920   21.5763 H   0  0  0  0  0  0  0  0  0  0  0  0
   13.1803    4.4918   23.2197 H   0  0  0  0  0  0  0  0  0  0  0  0
    7.9817   -2.4115   22.7937 C   0  0  0  0  0  0  0  0  0  0  0  0
    8.5639   -2.9351   23.5531 H   0  0  0  0  0  0  0  0  0  0  0  0
    7.3665   -3.1127   21.8016 C   0  0  0  0  0  0  0  0  0  0  0  0
    7.4284   -4.1863   21.6903 H   0  0  0  0  0  0  0  0  0  0  0  0
    6.5495   -2.4658   20.7817 C   0  0  0  0  0  0  0  0  0  0  0  0
    5.9372   -3.0770   19.9234 O   0  0  0  0  0  0  0  0  0  0  0  0
    4.9743    0.5981   19.8452 C   0  0  0  0  0  0  0  0  0  0  0  0
    4.3659    0.5569   20.7494 H   0  0  0  0  0  0  0  0  0  0  0  0
    4.6706    1.4610   18.7810 C   0  0  0  0  0  0  0  0  0  0  0  0
    3.8270    2.1396   18.8225 H   0  0  0  0  0  0  0  0  0  0  0  0
  1  2  1  0
  2  3  2  0
  3  4  1  0
  4  5  1  0
  4  6  2  0
  6  7  1  0
  7  8  1  0
  8  9  1  0
  8 10  2  0
 10 11  1  0
 11 12  1  0
 11 13  1  0
 11 14  1  0
 14 15  1  0
 14 16  1  0
 14 17  1  0
 17 18  1  0
 17 19  1  0
 17 20  1  0
 20 21  1  0
 20 22  1  0
 20 23  1  0
 23 24  1  0
 23 25  1  0
 23 26  1  0
 26 27  1  0
 26 28  1  0
 26 29  1  0
 10 30  1  0
 30 31  1  0
 30 32  2  0
 32 33  1  0
 32 34  1  0
 34 35  2  0
  6 36  1  0
 36 37  1  0
 36 38  2  0
 38 39  1  0
 38  2  1  0
 34  7  1  0
M  END
>  <cnnaffinity>  (1) 
-5.47348

>  <filename>  (1) 
CCCCCCc1ccc(=O)n(-c2cccnc2)c1

$$$$
