
     RDKit          3D

 39 41  0  0  0  0  0  0  0  0999 V2000
    6.9497   -4.4914   23.7276 C   0  0  0  0  0  0  0  0  0  0  0  0
    7.7216   -4.6861   22.4227 C   0  0  0  0  0  0  0  0  0  0  0  0
    8.6525   -3.5091   22.0342 C   0  0  0  0  0  0  0  0  0  0  0  0
    8.0484   -2.1407   21.9202 C   0  0  0  0  0  0  0  0  0  0  0  0
    7.6587   -1.7306   20.7333 N   0  0  0  0  0  0  0  0  0  0  0  0
    7.1586   -0.4954   20.9634 N   0  0  0  0  0  0  0  0  0  0  0  0
    6.5052    0.1581   19.8882 C   0  0  0  0  0  0  0  0  0  0  0  0
    5.2982    0.8549   20.0419 C   0  0  0  0  0  0  0  0  0  0  0  0
    4.7429    1.4444   18.9012 C   0  0  0  0  0  0  0  0  0  0  0  0
    5.4078    1.3292   17.6760 C   0  0  0  0  0  0  0  0  0  0  0  0
    6.5530    0.6404   17.5227 N   0  0  0  0  0  0  0  0  0  0  0  0
    7.0686    0.0495   18.5995 C   0  0  0  0  0  0  0  0  0  0  0  0
    7.9631   -0.5542   18.4555 H   0  0  0  0  0  0  0  0  0  0  0  0
    5.0191    1.8054   16.7794 H   0  0  0  0  0  0  0  0  0  0  0  0
    3.8164    2.0067   18.9508 H   0  0  0  0  0  0  0  0  0  0  0  0
    4.8174    0.9405   21.0170 H   0  0  0  0  0  0  0  0  0  0  0  0
    7.3317   -0.1952   22.2941 C   0  0  0  0  0  0  0  0  0  0  0  0
    7.0906    1.1399   22.8830 C   0  0  0  0  0  0  0  0  0  0  0  0
    6.5688    1.2565   24.1787 C   0  0  0  0  0  0  0  0  0  0  0  0
    6.2690    0.1462   24.8717 F   0  0  0  0  0  0  0  0  0  0  0  0
    6.3083    2.4899   24.8002 C   0  0  0  0  0  0  0  0  0  0  0  0
    5.7109    2.5270   26.1877 C   0  0  0  0  0  0  0  0  0  0  0  0
    6.3043    1.9243   26.8818 H   0  0  0  0  0  0  0  0  0  0  0  0
    4.7008    2.1036   26.1820 H   0  0  0  0  0  0  0  0  0  0  0  0
    5.6527    3.5425   26.5901 H   0  0  0  0  0  0  0  0  0  0  0  0
    6.6055    3.6534   24.0791 C   0  0  0  0  0  0  0  0  0  0  0  0
    7.1534    3.5798   22.7931 C   0  0  0  0  0  0  0  0  0  0  0  0
    7.3939    2.3433   22.2082 C   0  0  0  0  0  0  0  0  0  0  0  0
    7.8208    2.3012   21.2088 H   0  0  0  0  0  0  0  0  0  0  0  0
    7.3945    4.4916   22.2468 H   0  0  0  0  0  0  0  0  0  0  0  0
    6.4127    4.6216   24.5384 H   0  0  0  0  0  0  0  0  0  0  0  0
    7.8603   -1.2445   22.9188 N   0  0  0  0  0  0  0  0  0  0  0  0
    9.5037   -3.4505   22.7201 H   0  0  0  0  0  0  0  0  0  0  0  0
    9.0494   -3.6950   21.0337 H   0  0  0  0  0  0  0  0  0  0  0  0
    7.0221   -4.8913   21.6012 H   0  0  0  0  0  0  0  0  0  0  0  0
    8.3434   -5.5921   22.4908 H   0  0  0  0  0  0  0  0  0  0  0  0
    6.3768   -3.5543   23.7132 H   0  0  0  0  0  0  0  0  0  0  0  0
    7.6315   -4.4518   24.5850 H   0  0  0  0  0  0  0  0  0  0  0  0
    6.2508   -5.3204   23.8960 H   0  0  0  0  0  0  0  0  0  0  0  0
  1  2  1  0
  2  3  1  0
  3  4  1  0
  4  5  2  0
  5  6  1  0
  6  7  1  0
  7  8  2  0
  8  9  1  0
  9 10  2  0
 10 11  1  0
 11 12  2  0
 12 13  1  0
 10 14  1  0
  9 15  1  0
  8 16  1  0
  6 17  1  0
 17 18  1  0
 18 19  2  0
 19 20  1  0
 19 21  1  0
 21 22  1  0
 22 23  1  0
 22 24  1  0
 22 25  1  0
 21 26  2  0
 26 27  1  0
 27 28  2  0
 28 29  1  0
 27 30  1  0
 26 31  1  0
 17 32  2  0
  3 33  1  0
  3 34  1  0
  2 35  1  0
  2 36  1  0
  1 37  1  0
  1 38  1  0
  1 39  1  0
 32  4  1  0
 12  7  1  0
 28 18  1  0
M  END
>  <cnnaffinity>  (1) 
-5.55751

>  <filename>  (1) 
CCCc1nc(-c2cccc(C)c2F)n(-c2cccnc2)n1

$$$$
