
     RDKit          3D

 41 43  0  0  0  0  0  0  0  0999 V2000
    8.3619   -5.8738   23.1674 C   0  0  0  0  0  0  0  0  0  0  0  0
    7.7172   -4.5144   22.9091 C   0  0  0  0  0  0  0  0  0  0  0  0
    8.6798   -3.5572   22.1859 C   0  0  0  0  0  0  0  0  0  0  0  0
    8.1772   -2.1783   21.9514 C   0  0  0  0  0  0  0  0  0  0  0  0
    7.7277   -1.8333   20.7647 N   0  0  0  0  0  0  0  0  0  0  0  0
    7.3271   -0.5553   20.9443 N   0  0  0  0  0  0  0  0  0  0  0  0
    6.6247    0.0790   19.8924 C   0  0  0  0  0  0  0  0  0  0  0  0
    5.3983    0.7084   20.1189 C   0  0  0  0  0  0  0  0  0  0  0  0
    4.7839    1.3362   19.0338 C   0  0  0  0  0  0  0  0  0  0  0  0
    5.4101    1.3040   17.7833 C   0  0  0  0  0  0  0  0  0  0  0  0
    6.5542    0.6340   17.5483 N   0  0  0  0  0  0  0  0  0  0  0  0
    7.1340    0.0157   18.5814 C   0  0  0  0  0  0  0  0  0  0  0  0
    8.0347   -0.5638   18.3794 H   0  0  0  0  0  0  0  0  0  0  0  0
    4.9897    1.8437   16.9393 H   0  0  0  0  0  0  0  0  0  0  0  0
    3.8466    1.8641   19.1576 H   0  0  0  0  0  0  0  0  0  0  0  0
    4.9368    0.6696   21.1076 H   0  0  0  0  0  0  0  0  0  0  0  0
    7.6088   -0.1721   22.2280 C   0  0  0  0  0  0  0  0  0  0  0  0
    7.4357    1.2061   22.8219 C   0  0  0  0  0  0  0  0  0  0  0  0
    8.7316    1.7623   23.4118 C   0  0  0  0  0  0  0  0  0  0  0  0
    9.0225    1.6855   24.7800 C   0  0  0  0  0  0  0  0  0  0  0  0
   10.1752    2.0780   25.3361 N   0  0  0  0  0  0  0  0  0  0  0  0
   11.1007    2.5797   24.5162 C   0  0  0  0  0  0  0  0  0  0  0  0
   10.9276    2.7051   23.1435 C   0  0  0  0  0  0  0  0  0  0  0  0
    9.7400    2.2609   22.5645 C   0  0  0  0  0  0  0  0  0  0  0  0
    9.6032    2.2740   21.0765 C   0  0  0  0  0  0  0  0  0  0  0  0
    8.8173    2.9604   20.7501 H   0  0  0  0  0  0  0  0  0  0  0  0
   10.5375    2.5824   20.6016 H   0  0  0  0  0  0  0  0  0  0  0  0
    9.3505    1.2768   20.7012 H   0  0  0  0  0  0  0  0  0  0  0  0
   11.7162    3.1189   22.5253 H   0  0  0  0  0  0  0  0  0  0  0  0
   12.0355    2.8883   24.9705 H   0  0  0  0  0  0  0  0  0  0  0  0
    8.2897    1.2616   25.4682 H   0  0  0  0  0  0  0  0  0  0  0  0
    6.6563    1.1464   23.5891 H   0  0  0  0  0  0  0  0  0  0  0  0
    7.0545    1.8881   22.0568 H   0  0  0  0  0  0  0  0  0  0  0  0
    8.1264   -1.1954   22.8852 N   0  0  0  0  0  0  0  0  0  0  0  0
    9.6296   -3.4708   22.7219 H   0  0  0  0  0  0  0  0  0  0  0  0
    8.8651   -3.9541   21.1882 H   0  0  0  0  0  0  0  0  0  0  0  0
    6.8231   -4.6624   22.2887 H   0  0  0  0  0  0  0  0  0  0  0  0
    7.3798   -4.0725   23.8576 H   0  0  0  0  0  0  0  0  0  0  0  0
    7.6234   -6.5800   23.5488 H   0  0  0  0  0  0  0  0  0  0  0  0
    8.7844   -6.3033   22.2504 H   0  0  0  0  0  0  0  0  0  0  0  0
    9.1650   -5.7983   23.9086 H   0  0  0  0  0  0  0  0  0  0  0  0
  1  2  1  0
  2  3  1  0
  3  4  1  0
  4  5  2  0
  5  6  1  0
  6  7  1  0
  7  8  2  0
  8  9  1  0
  9 10  2  0
 10 11  1  0
 11 12  2  0
 12 13  1  0
 10 14  1  0
  9 15  1  0
  8 16  1  0
  6 17  1  0
 17 18  1  0
 18 19  1  0
 19 20  2  0
 20 21  1  0
 21 22  2  0
 22 23  1  0
 23 24  2  0
 24 25  1  0
 25 26  1  0
 25 27  1  0
 25 28  1  0
 23 29  1  0
 22 30  1  0
 20 31  1  0
 18 32  1  0
 18 33  1  0
 17 34  2  0
  3 35  1  0
  3 36  1  0
  2 37  1  0
  2 38  1  0
  1 39  1  0
  1 40  1  0
  1 41  1  0
 34  4  1  0
 12  7  1  0
 24 19  1  0
M  END
>  <cnnaffinity>  (1) 
-5.45592

>  <filename>  (1) 
CCCc1nc(Cc2cnccc2C)n(-c2cccnc2)n1

$$$$
