
     RDKit          3D

 44 46  0  0  0  0  0  0  0  0999 V2000
    6.6425   -5.6597   21.9504 C   0  0  0  0  0  0  0  0  0  0  0  0
    8.0306   -5.1175   22.3048 C   0  0  0  0  0  0  0  0  0  0  0  0
    8.1091   -4.4626   23.6924 C   0  0  0  0  0  0  0  0  0  0  0  0
    7.2542   -3.1824   23.8305 C   0  0  0  0  0  0  0  0  0  0  0  0
    7.3771   -2.5328   25.2202 C   0  0  0  0  0  0  0  0  0  0  0  0
    7.2053   -3.2666   26.0138 H   0  0  0  0  0  0  0  0  0  0  0  0
    8.3720   -2.0929   25.3643 H   0  0  0  0  0  0  0  0  0  0  0  0
    6.6421   -1.7279   25.3286 H   0  0  0  0  0  0  0  0  0  0  0  0
    7.6050   -2.2029   22.7472 C   0  0  0  0  0  0  0  0  0  0  0  0
    6.7865   -1.9066   21.7652 N   0  0  0  0  0  0  0  0  0  0  0  0
    7.4775   -0.9682   21.0577 N   0  0  0  0  0  0  0  0  0  0  0  0
    6.8236   -0.2607   20.0042 C   0  0  0  0  0  0  0  0  0  0  0  0
    5.6221    0.4195   20.2484 C   0  0  0  0  0  0  0  0  0  0  0  0
    5.0762    1.1791   19.2096 C   0  0  0  0  0  0  0  0  0  0  0  0
    5.7100    1.1826   17.9616 C   0  0  0  0  0  0  0  0  0  0  0  0
    6.8352    0.4978   17.7103 N   0  0  0  0  0  0  0  0  0  0  0  0
    7.3758   -0.2033   18.7159 C   0  0  0  0  0  0  0  0  0  0  0  0
    8.2945   -0.7457   18.4974 H   0  0  0  0  0  0  0  0  0  0  0  0
    5.2953    1.7472   17.1291 H   0  0  0  0  0  0  0  0  0  0  0  0
    4.1884    1.7816   19.3577 H   0  0  0  0  0  0  0  0  0  0  0  0
    5.1677    0.3695   21.2386 H   0  0  0  0  0  0  0  0  0  0  0  0
    8.6738   -0.7500   21.6850 C   0  0  0  0  0  0  0  0  0  0  0  0
    9.6134    0.3580   21.3303 C   0  0  0  0  0  0  0  0  0  0  0  0
    9.0088    1.6797   21.6897 C   0  0  0  0  0  0  0  0  0  0  0  0
    8.1019    2.4547   21.0684 C   0  0  0  0  0  0  0  0  0  0  0  0
    7.7743    3.4843   21.9074 O   0  0  0  0  0  0  0  0  0  0  0  0
    8.5041    3.2511   23.0199 C   0  0  0  0  0  0  0  0  0  0  0  0
    8.3571    4.1810   24.1655 C   0  0  0  0  0  0  0  0  0  0  0  0
    7.3741    4.0760   24.6315 H   0  0  0  0  0  0  0  0  0  0  0  0
    8.4698    5.2135   23.8348 H   0  0  0  0  0  0  0  0  0  0  0  0
    9.1172    3.9437   24.9070 H   0  0  0  0  0  0  0  0  0  0  0  0
    9.2440    2.1959   22.9528 N   0  0  0  0  0  0  0  0  0  0  0  0
    7.5518    2.3976   20.1394 H   0  0  0  0  0  0  0  0  0  0  0  0
   10.5132    0.2405   21.9353 H   0  0  0  0  0  0  0  0  0  0  0  0
    9.8824    0.2798   20.2772 H   0  0  0  0  0  0  0  0  0  0  0  0
    8.7929   -1.5388   22.7250 N   0  0  0  0  0  0  0  0  0  0  0  0
    6.2010   -3.4344   23.6461 H   0  0  0  0  0  0  0  0  0  0  0  0
    7.7910   -5.1830   24.4577 H   0  0  0  0  0  0  0  0  0  0  0  0
    9.1556   -4.2198   23.9238 H   0  0  0  0  0  0  0  0  0  0  0  0
    8.3499   -4.3795   21.5529 H   0  0  0  0  0  0  0  0  0  0  0  0
    8.7521   -5.9434   22.2588 H   0  0  0  0  0  0  0  0  0  0  0  0
    6.6504   -6.1428   20.9670 H   0  0  0  0  0  0  0  0  0  0  0  0
    6.3100   -6.4017   22.6898 H   0  0  0  0  0  0  0  0  0  0  0  0
    5.8918   -4.8591   21.9150 H   0  0  0  0  0  0  0  0  0  0  0  0
  1  2  1  0
  2  3  1  0
  3  4  1  0
  4  5  1  0
  5  6  1  0
  5  7  1  0
  5  8  1  0
  4  9  1  0
  9 10  2  0
 10 11  1  0
 11 12  1  0
 12 13  2  0
 13 14  1  0
 14 15  2  0
 15 16  1  0
 16 17  2  0
 17 18  1  0
 15 19  1  0
 14 20  1  0
 13 21  1  0
 11 22  1  0
 22 23  1  0
 23 24  1  0
 24 25  2  0
 25 26  1  0
 26 27  1  0
 27 28  1  0
 28 29  1  0
 28 30  1  0
 28 31  1  0
 27 32  2  0
 25 33  1  0
 23 34  1  0
 23 35  1  0
 22 36  2  0
  4 37  1  0
  3 38  1  0
  3 39  1  0
  2 40  1  0
  2 41  1  0
  1 42  1  0
  1 43  1  0
  1 44  1  0
 36  9  1  0
 17 12  1  0
 32 24  1  0
M  END
>  <cnnaffinity>  (1) 
-5.91396

>  <filename>  (1) 
CCCC(C)c1nc(Cc2coc(C)n2)n(-c2cccnc2)n1

$$$$
