
     RDKit          3D

 42 43  0  0  0  0  0  0  0  0999 V2000
    4.9222    1.8091   16.9636 H   0  0  0  0  0  0  0  0  0  0  0  0
    5.3873    1.3077   17.8136 C   0  0  0  0  0  0  0  0  0  0  0  0
    6.5494    0.6854   17.5618 N   0  0  0  0  0  0  0  0  0  0  0  0
    7.1485    0.0712   18.5941 C   0  0  0  0  0  0  0  0  0  0  0  0
    8.0927   -0.4219   18.3677 H   0  0  0  0  0  0  0  0  0  0  0  0
    6.6383    0.0127   19.9020 C   0  0  0  0  0  0  0  0  0  0  0  0
    7.3766   -0.6743   20.9862 C   0  0  0  0  0  0  0  0  0  0  0  0
    8.6947   -0.5689   21.3925 C   0  0  0  0  0  0  0  0  0  0  0  0
    9.7005    0.3804   20.8207 C   0  0  0  0  0  0  0  0  0  0  0  0
    9.6953    0.2075   19.7413 H   0  0  0  0  0  0  0  0  0  0  0  0
   10.6993    0.1367   21.2028 H   0  0  0  0  0  0  0  0  0  0  0  0
    9.3738    1.8528   21.0989 C   0  0  0  0  0  0  0  0  0  0  0  0
   10.1540    2.4894   20.6609 H   0  0  0  0  0  0  0  0  0  0  0  0
    8.4251    2.0963   20.5970 H   0  0  0  0  0  0  0  0  0  0  0  0
    9.3008    2.2080   22.5809 C   0  0  0  0  0  0  0  0  0  0  0  0
   10.2605    1.9460   23.0562 H   0  0  0  0  0  0  0  0  0  0  0  0
    8.5360    1.5887   23.0702 H   0  0  0  0  0  0  0  0  0  0  0  0
    9.0138    3.6942   22.8110 C   0  0  0  0  0  0  0  0  0  0  0  0
    9.7731    4.2971   22.2977 H   0  0  0  0  0  0  0  0  0  0  0  0
    8.0456    3.9544   22.3508 H   0  0  0  0  0  0  0  0  0  0  0  0
    9.0210    4.0989   24.2854 C   0  0  0  0  0  0  0  0  0  0  0  0
    9.9562    3.7429   24.7475 H   0  0  0  0  0  0  0  0  0  0  0  0
    9.0515    5.1949   24.3555 H   0  0  0  0  0  0  0  0  0  0  0  0
    7.8252    3.5584   25.0751 C   0  0  0  0  0  0  0  0  0  0  0  0
    7.8061    2.4610   25.0007 H   0  0  0  0  0  0  0  0  0  0  0  0
    6.8963    3.9058   24.5956 H   0  0  0  0  0  0  0  0  0  0  0  0
    7.8257    3.9766   26.5504 C   0  0  0  0  0  0  0  0  0  0  0  0
    7.0751    3.3839   27.0899 H   0  0  0  0  0  0  0  0  0  0  0  0
    8.7952    3.7039   26.9901 H   0  0  0  0  0  0  0  0  0  0  0  0
    7.5531    5.4712   26.7675 C   0  0  0  0  0  0  0  0  0  0  0  0
    7.4685    5.7141   27.8323 H   0  0  0  0  0  0  0  0  0  0  0  0
    8.3473    6.1019   26.3496 H   0  0  0  0  0  0  0  0  0  0  0  0
    6.6162    5.7744   26.2829 H   0  0  0  0  0  0  0  0  0  0  0  0
    8.8004   -1.4310   22.5057 C   0  0  0  0  0  0  0  0  0  0  0  0
    9.6696   -1.6101   23.1364 H   0  0  0  0  0  0  0  0  0  0  0  0
    7.6433   -2.0199   22.7888 N   0  0  0  0  0  0  0  0  0  0  0  0
    6.7965   -1.5306   21.8653 N   0  0  0  0  0  0  0  0  0  0  0  0
    5.8274   -1.8204   21.8643 H   0  0  0  0  0  0  0  0  0  0  0  0
    5.4127    0.6598   20.1368 C   0  0  0  0  0  0  0  0  0  0  0  0
    4.9865    0.6600   21.1394 H   0  0  0  0  0  0  0  0  0  0  0  0
    4.7884    1.3210   19.0777 C   0  0  0  0  0  0  0  0  0  0  0  0
    3.8585    1.8575   19.2235 H   0  0  0  0  0  0  0  0  0  0  0  0
  1  2  1  0
  2  3  2  0
  3  4  1  0
  4  5  1  0
  4  6  2  0
  6  7  1  0
  7  8  2  0
  8  9  1  0
  9 10  1  0
  9 11  1  0
  9 12  1  0
 12 13  1  0
 12 14  1  0
 12 15  1  0
 15 16  1  0
 15 17  1  0
 15 18  1  0
 18 19  1  0
 18 20  1  0
 18 21  1  0
 21 22  1  0
 21 23  1  0
 21 24  1  0
 24 25  1  0
 24 26  1  0
 24 27  1  0
 27 28  1  0
 27 29  1  0
 27 30  1  0
 30 31  1  0
 30 32  1  0
 30 33  1  0
  8 34  1  0
 34 35  1  0
 34 36  2  0
 36 37  1  0
 37 38  1  0
  6 39  1  0
 39 40  1  0
 39 41  2  0
 41 42  1  0
 41  2  1  0
 37  7  1  0
M  END
>  <cnnaffinity>  (1) 
-5.00109

>  <filename>  (1) 
CCCCCCCCc1cn[nH]c1-c1cccnc1

$$$$
