
     RDKit          3D

 36 37  0  0  0  0  0  0  0  0999 V2000
    4.9172    1.8011   16.9733 H   0  0  0  0  0  0  0  0  0  0  0  0
    5.3857    1.3008   17.8169 C   0  0  0  0  0  0  0  0  0  0  0  0
    6.5469    0.6789   17.5548 N   0  0  0  0  0  0  0  0  0  0  0  0
    7.1518    0.0655   18.5819 C   0  0  0  0  0  0  0  0  0  0  0  0
    8.1050   -0.4222   18.3627 H   0  0  0  0  0  0  0  0  0  0  0  0
    6.6459    0.0325   19.8938 C   0  0  0  0  0  0  0  0  0  0  0  0
    7.3567   -0.7054   20.9750 C   0  0  0  0  0  0  0  0  0  0  0  0
    7.4155   -2.1328   20.9015 C   0  0  0  0  0  0  0  0  0  0  0  0
    6.9009   -2.5923   20.0582 H   0  0  0  0  0  0  0  0  0  0  0  0
    8.0515   -2.8735   21.8543 C   0  0  0  0  0  0  0  0  0  0  0  0
    8.1102   -3.9512   21.8629 H   0  0  0  0  0  0  0  0  0  0  0  0
    8.7007   -2.2121   22.9796 C   0  0  0  0  0  0  0  0  0  0  0  0
    9.3002   -2.7464   23.8968 O   0  0  0  0  0  0  0  0  0  0  0  0
    8.5980   -0.8307   22.9728 N   0  0  0  0  0  0  0  0  0  0  0  0
    9.0853   -0.4398   23.7655 H   0  0  0  0  0  0  0  0  0  0  0  0
    7.9466   -0.0520   22.0410 C   0  0  0  0  0  0  0  0  0  0  0  0
    8.0504    1.4351   22.1893 C   0  0  0  0  0  0  0  0  0  0  0  0
    8.2453    1.7268   23.2327 H   0  0  0  0  0  0  0  0  0  0  0  0
    7.0939    1.8916   21.9076 H   0  0  0  0  0  0  0  0  0  0  0  0
    9.1021    2.0306   21.2250 C   0  0  0  0  0  0  0  0  0  0  0  0
    9.0538    3.1282   21.2553 H   0  0  0  0  0  0  0  0  0  0  0  0
    8.7554    1.7203   20.2334 H   0  0  0  0  0  0  0  0  0  0  0  0
   10.5510    1.5919   21.4824 C   0  0  0  0  0  0  0  0  0  0  0  0
   10.6096    0.4929   21.4685 H   0  0  0  0  0  0  0  0  0  0  0  0
   11.2007    1.9405   20.6648 H   0  0  0  0  0  0  0  0  0  0  0  0
   11.1185    2.1170   22.8095 C   0  0  0  0  0  0  0  0  0  0  0  0
   10.5046    1.7515   23.6459 H   0  0  0  0  0  0  0  0  0  0  0  0
   11.0234    3.2140   22.8313 H   0  0  0  0  0  0  0  0  0  0  0  0
   12.5789    1.7171   23.0347 C   0  0  0  0  0  0  0  0  0  0  0  0
   13.2181    2.1073   22.2340 H   0  0  0  0  0  0  0  0  0  0  0  0
   12.9658    2.1027   23.9848 H   0  0  0  0  0  0  0  0  0  0  0  0
   12.6943    0.6250   23.0439 H   0  0  0  0  0  0  0  0  0  0  0  0
    5.4272    0.6756   20.1417 C   0  0  0  0  0  0  0  0  0  0  0  0
    5.0063    0.6415   21.1504 H   0  0  0  0  0  0  0  0  0  0  0  0
    4.7903    1.3215   19.0823 C   0  0  0  0  0  0  0  0  0  0  0  0
    3.8618    1.8506   19.2361 H   0  0  0  0  0  0  0  0  0  0  0  0
  1  2  1  0
  2  3  2  0
  3  4  1  0
  4  5  1  0
  4  6  2  0
  6  7  1  0
  7  8  1  0
  8  9  1  0
  8 10  2  0
 10 11  1  0
 10 12  1  0
 12 13  2  0
 12 14  1  0
 14 15  1  0
 14 16  1  0
 16 17  1  0
 17 18  1  0
 17 19  1  0
 17 20  1  0
 20 21  1  0
 20 22  1  0
 20 23  1  0
 23 24  1  0
 23 25  1  0
 23 26  1  0
 26 27  1  0
 26 28  1  0
 26 29  1  0
 29 30  1  0
 29 31  1  0
 29 32  1  0
  6 33  1  0
 33 34  1  0
 33 35  2  0
 35 36  1  0
 35  2  1  0
 16  7  2  0
M  END
>  <cnnaffinity>  (1) 
-4.88712

>  <filename>  (1) 
CCCCCc1[nH]c(=O)ccc1-c1cccnc1

$$$$
