
     RDKit          3D

 43 44  0  0  0  0  0  0  0  0999 V2000
    5.0409    1.8516   16.9098 H   0  0  0  0  0  0  0  0  0  0  0  0
    5.4534    1.3142   17.7605 C   0  0  0  0  0  0  0  0  0  0  0  0
    6.6023    0.6511   17.5421 N   0  0  0  0  0  0  0  0  0  0  0  0
    7.1423   -0.0153   18.5632 C   0  0  0  0  0  0  0  0  0  0  0  0
    8.0586   -0.5719   18.3704 H   0  0  0  0  0  0  0  0  0  0  0  0
    6.5850   -0.0256   19.8576 C   0  0  0  0  0  0  0  0  0  0  0  0
    7.2666   -0.7067   20.9094 N   0  0  0  0  0  0  0  0  0  0  0  0
    7.8592   -1.9035   20.6982 N   0  0  0  0  0  0  0  0  0  0  0  0
    8.3966   -2.2601   21.8053 N   0  0  0  0  0  0  0  0  0  0  0  0
    8.2046   -1.3277   22.7581 N   0  0  0  0  0  0  0  0  0  0  0  0
    7.5166   -0.3557   22.2020 C   0  0  0  0  0  0  0  0  0  0  0  0
    7.1956    0.9419   22.8774 C   0  0  0  0  0  0  0  0  0  0  0  0
    6.8646    1.6796   22.1378 H   0  0  0  0  0  0  0  0  0  0  0  0
    6.3539    0.7820   23.5616 H   0  0  0  0  0  0  0  0  0  0  0  0
    8.4115    1.5063   23.6335 C   0  0  0  0  0  0  0  0  0  0  0  0
    8.7003    0.8080   24.4326 H   0  0  0  0  0  0  0  0  0  0  0  0
    8.1222    2.4456   24.1238 H   0  0  0  0  0  0  0  0  0  0  0  0
    9.5974    1.7383   22.6834 C   0  0  0  0  0  0  0  0  0  0  0  0
    9.7842    0.8173   22.1120 H   0  0  0  0  0  0  0  0  0  0  0  0
    9.3145    2.4963   21.9350 H   0  0  0  0  0  0  0  0  0  0  0  0
   10.9099    2.1394   23.3580 C   0  0  0  0  0  0  0  0  0  0  0  0
   11.2737    1.2947   23.9652 H   0  0  0  0  0  0  0  0  0  0  0  0
   11.6692    2.2727   22.5805 H   0  0  0  0  0  0  0  0  0  0  0  0
   10.8376    3.3777   24.2525 C   0  0  0  0  0  0  0  0  0  0  0  0
   11.8449    3.5858   24.6371 H   0  0  0  0  0  0  0  0  0  0  0  0
   10.2353    3.0823   25.1159 H   0  0  0  0  0  0  0  0  0  0  0  0
   10.2148    4.6565   23.6760 C   0  0  0  0  0  0  0  0  0  0  0  0
   10.8064    4.9974   22.8155 H   0  0  0  0  0  0  0  0  0  0  0  0
    9.2130    4.4293   23.2817 H   0  0  0  0  0  0  0  0  0  0  0  0
   10.1176    5.7607   24.7451 C   0  0  0  0  0  0  0  0  0  0  0  0
    9.4733    5.4036   25.5642 H   0  0  0  0  0  0  0  0  0  0  0  0
   11.1147    5.9252   25.1845 H   0  0  0  0  0  0  0  0  0  0  0  0
    9.5878    7.1255   24.2839 C   0  0  0  0  0  0  0  0  0  0  0  0
   10.1402    7.4345   23.3918 H   0  0  0  0  0  0  0  0  0  0  0  0
    9.8126    7.8627   25.0714 H   0  0  0  0  0  0  0  0  0  0  0  0
    8.0886    7.2003   23.9576 C   0  0  0  0  0  0  0  0  0  0  0  0
    7.8834    6.8969   22.9239 H   0  0  0  0  0  0  0  0  0  0  0  0
    7.4830    6.5698   24.6188 H   0  0  0  0  0  0  0  0  0  0  0  0
    7.7171    8.2220   24.0736 H   0  0  0  0  0  0  0  0  0  0  0  0
    5.3680    0.6337   20.0725 C   0  0  0  0  0  0  0  0  0  0  0  0
    4.8795    0.6038   21.0467 H   0  0  0  0  0  0  0  0  0  0  0  0
    4.7960    1.3193   18.9942 C   0  0  0  0  0  0  0  0  0  0  0  0
    3.8656    1.8633   19.1060 H   0  0  0  0  0  0  0  0  0  0  0  0
  1  2  1  0
  2  3  2  0
  3  4  1  0
  4  5  1  0
  4  6  2  0
  6  7  1  0
  7  8  1  0
  8  9  2  0
  9 10  1  0
 10 11  2  0
 11 12  1  0
 12 13  1  0
 12 14  1  0
 12 15  1  0
 15 16  1  0
 15 17  1  0
 15 18  1  0
 18 19  1  0
 18 20  1  0
 18 21  1  0
 21 22  1  0
 21 23  1  0
 21 24  1  0
 24 25  1  0
 24 26  1  0
 24 27  1  0
 27 28  1  0
 27 29  1  0
 27 30  1  0
 30 31  1  0
 30 32  1  0
 30 33  1  0
 33 34  1  0
 33 35  1  0
 33 36  1  0
 36 37  1  0
 36 38  1  0
 36 39  1  0
  6 40  1  0
 40 41  1  0
 40 42  2  0
 42 43  1  0
 42  2  1  0
 11  7  1  0
M  END
>  <cnnaffinity>  (1) 
-5.55615

>  <filename>  (1) 
CCCCCCCCCc1nnnn1-c1cccnc1

$$$$
