
     RDKit          3D

 38 39  0  0  0  0  0  0  0  0999 V2000
    4.9808    1.8502   17.0064 H   0  0  0  0  0  0  0  0  0  0  0  0
    5.4384    1.3005   17.8270 C   0  0  0  0  0  0  0  0  0  0  0  0
    6.5843    0.6580   17.5475 N   0  0  0  0  0  0  0  0  0  0  0  0
    7.1852   -0.0249   18.5366 C   0  0  0  0  0  0  0  0  0  0  0  0
    8.1031   -0.5518   18.2711 H   0  0  0  0  0  0  0  0  0  0  0  0
    6.6850   -0.1006   19.8615 C   0  0  0  0  0  0  0  0  0  0  0  0
    7.3168   -0.8126   20.9047 N   0  0  0  0  0  0  0  0  0  0  0  0
    6.7822   -0.7839   21.7694 H   0  0  0  0  0  0  0  0  0  0  0  0
    8.7142   -0.7696   21.1323 C   0  0  0  0  0  0  0  0  0  0  0  0
    9.6594    0.2227   20.7682 C   0  0  0  0  0  0  0  0  0  0  0  0
    9.4675    1.1251   20.2094 H   0  0  0  0  0  0  0  0  0  0  0  0
   10.8850   -0.0643   21.1972 N   0  0  0  0  0  0  0  0  0  0  0  0
   10.7275   -1.2351   21.8304 N   0  0  0  0  0  0  0  0  0  0  0  0
   11.5253   -1.6629   22.2758 H   0  0  0  0  0  0  0  0  0  0  0  0
    9.4518   -1.7045   21.8427 C   0  0  0  0  0  0  0  0  0  0  0  0
    9.0466   -2.8390   22.7401 C   0  0  0  0  0  0  0  0  0  0  0  0
    9.8151   -3.6198   22.7396 H   0  0  0  0  0  0  0  0  0  0  0  0
    8.1440   -3.3071   22.3314 H   0  0  0  0  0  0  0  0  0  0  0  0
    8.7933   -2.3685   24.1898 C   0  0  0  0  0  0  0  0  0  0  0  0
    9.7401   -2.0357   24.6401 H   0  0  0  0  0  0  0  0  0  0  0  0
    8.4676   -3.2287   24.7914 H   0  0  0  0  0  0  0  0  0  0  0  0
    7.7362   -1.2575   24.2731 C   0  0  0  0  0  0  0  0  0  0  0  0
    6.8032   -1.6699   23.8513 H   0  0  0  0  0  0  0  0  0  0  0  0
    8.0189   -0.4051   23.6339 H   0  0  0  0  0  0  0  0  0  0  0  0
    7.4082   -0.7935   25.6953 C   0  0  0  0  0  0  0  0  0  0  0  0
    7.2089   -1.7050   26.2727 H   0  0  0  0  0  0  0  0  0  0  0  0
    6.4500   -0.2521   25.6683 H   0  0  0  0  0  0  0  0  0  0  0  0
    8.4108    0.0508   26.5052 C   0  0  0  0  0  0  0  0  0  0  0  0
    9.3978   -0.4364   26.5846 H   0  0  0  0  0  0  0  0  0  0  0  0
    8.5897    1.0097   26.0026 H   0  0  0  0  0  0  0  0  0  0  0  0
    7.8201    0.3246   27.8999 C   0  0  0  0  0  0  0  0  0  0  0  0
    7.1038    1.1523   27.8598 H   0  0  0  0  0  0  0  0  0  0  0  0
    7.2770   -0.5564   28.2555 H   0  0  0  0  0  0  0  0  0  0  0  0
    8.5608    0.5719   28.6659 H   0  0  0  0  0  0  0  0  0  0  0  0
    5.4694    0.5480   20.1165 C   0  0  0  0  0  0  0  0  0  0  0  0
    5.0330    0.4980   21.1127 H   0  0  0  0  0  0  0  0  0  0  0  0
    4.8415    1.2643   19.0925 C   0  0  0  0  0  0  0  0  0  0  0  0
    3.9098    1.7943   19.2599 H   0  0  0  0  0  0  0  0  0  0  0  0
  1  2  1  0
  2  3  2  0
  3  4  1  0
  4  5  1  0
  4  6  2  0
  6  7  1  0
  7  8  1  0
  7  9  1  0
  9 10  1  0
 10 11  1  0
 10 12  2  0
 12 13  1  0
 13 14  1  0
 13 15  1  0
 15 16  1  0
 16 17  1  0
 16 18  1  0
 16 19  1  0
 19 20  1  0
 19 21  1  0
 19 22  1  0
 22 23  1  0
 22 24  1  0
 22 25  1  0
 25 26  1  0
 25 27  1  0
 25 28  1  0
 28 29  1  0
 28 30  1  0
 28 31  1  0
 31 32  1  0
 31 33  1  0
 31 34  1  0
  6 35  1  0
 35 36  1  0
 35 37  2  0
 37 38  1  0
 37  2  1  0
 15  9  2  0
M  END
>  <cnnaffinity>  (1) 
-5.50465

>  <filename>  (1) 
CCCCCCc1[nH]ncc1Nc1cccnc1

$$$$
