
     RDKit          3D

 41 42  0  0  0  0  0  0  0  0999 V2000
    4.9136    1.7862   16.9944 H   0  0  0  0  0  0  0  0  0  0  0  0
    5.3960    1.2970   17.8371 C   0  0  0  0  0  0  0  0  0  0  0  0
    6.5598    0.6814   17.5717 N   0  0  0  0  0  0  0  0  0  0  0  0
    7.1722    0.0594   18.5900 C   0  0  0  0  0  0  0  0  0  0  0  0
    8.1213   -0.4290   18.3747 H   0  0  0  0  0  0  0  0  0  0  0  0
    6.6621   -0.0126   19.9104 C   0  0  0  0  0  0  0  0  0  0  0  0
    7.3259   -0.7077   20.9288 N   0  0  0  0  0  0  0  0  0  0  0  0
    6.7633   -1.1264   21.6580 H   0  0  0  0  0  0  0  0  0  0  0  0
    8.7078   -0.6829   21.1500 C   0  0  0  0  0  0  0  0  0  0  0  0
    9.6774    0.2252   20.6695 C   0  0  0  0  0  0  0  0  0  0  0  0
    9.4991    1.0448   19.9955 H   0  0  0  0  0  0  0  0  0  0  0  0
   10.8923   -0.0326   21.1423 N   0  0  0  0  0  0  0  0  0  0  0  0
   10.7024   -1.1108   21.9155 N   0  0  0  0  0  0  0  0  0  0  0  0
   11.4902   -1.4882   22.4152 H   0  0  0  0  0  0  0  0  0  0  0  0
    9.4144   -1.5511   21.9582 C   0  0  0  0  0  0  0  0  0  0  0  0
    8.9617   -2.6662   22.8333 C   0  0  0  0  0  0  0  0  0  0  0  0
    7.9992   -3.0263   22.4476 H   0  0  0  0  0  0  0  0  0  0  0  0
    9.6595   -3.5092   22.7668 H   0  0  0  0  0  0  0  0  0  0  0  0
    8.7967   -2.2290   24.2959 C   0  0  0  0  0  0  0  0  0  0  0  0
    8.5936   -3.1142   24.9109 H   0  0  0  0  0  0  0  0  0  0  0  0
    9.7496   -1.8171   24.6546 H   0  0  0  0  0  0  0  0  0  0  0  0
    7.6930   -1.1947   24.5022 C   0  0  0  0  0  0  0  0  0  0  0  0
    6.7369   -1.5970   24.1323 H   0  0  0  0  0  0  0  0  0  0  0  0
    7.8977   -0.2920   23.9045 H   0  0  0  0  0  0  0  0  0  0  0  0
    7.5316   -0.8059   25.9686 C   0  0  0  0  0  0  0  0  0  0  0  0
    7.3269   -1.7079   26.5649 H   0  0  0  0  0  0  0  0  0  0  0  0
    8.4856   -0.4112   26.3469 H   0  0  0  0  0  0  0  0  0  0  0  0
    6.4145    0.2092   26.1947 C   0  0  0  0  0  0  0  0  0  0  0  0
    5.4876   -0.1743   25.7472 H   0  0  0  0  0  0  0  0  0  0  0  0
    6.6549    1.1332   25.6483 H   0  0  0  0  0  0  0  0  0  0  0  0
    6.1648    0.5428   27.6678 C   0  0  0  0  0  0  0  0  0  0  0  0
    5.9997   -0.3905   28.2242 H   0  0  0  0  0  0  0  0  0  0  0  0
    5.2332    1.1150   27.7536 H   0  0  0  0  0  0  0  0  0  0  0  0
    7.3029    1.3300   28.3185 C   0  0  0  0  0  0  0  0  0  0  0  0
    8.2270    0.7433   28.3711 H   0  0  0  0  0  0  0  0  0  0  0  0
    7.5245    2.2380   27.7452 H   0  0  0  0  0  0  0  0  0  0  0  0
    7.0424    1.6322   29.3375 H   0  0  0  0  0  0  0  0  0  0  0  0
    5.4404    0.6315   20.1626 C   0  0  0  0  0  0  0  0  0  0  0  0
    5.0191    0.6226   21.1679 H   0  0  0  0  0  0  0  0  0  0  0  0
    4.8113    1.3056   19.1084 C   0  0  0  0  0  0  0  0  0  0  0  0
    3.8816    1.8379   19.2638 H   0  0  0  0  0  0  0  0  0  0  0  0
  1  2  1  0
  2  3  2  0
  3  4  1  0
  4  5  1  0
  4  6  2  0
  6  7  1  0
  7  8  1  0
  7  9  1  0
  9 10  1  0
 10 11  1  0
 10 12  2  0
 12 13  1  0
 13 14  1  0
 13 15  1  0
 15 16  1  0
 16 17  1  0
 16 18  1  0
 16 19  1  0
 19 20  1  0
 19 21  1  0
 19 22  1  0
 22 23  1  0
 22 24  1  0
 22 25  1  0
 25 26  1  0
 25 27  1  0
 25 28  1  0
 28 29  1  0
 28 30  1  0
 28 31  1  0
 31 32  1  0
 31 33  1  0
 31 34  1  0
 34 35  1  0
 34 36  1  0
 34 37  1  0
  6 38  1  0
 38 39  1  0
 38 40  2  0
 40 41  1  0
 40  2  1  0
 15  9  2  0
M  END
>  <cnnaffinity>  (1) 
-5.6493

>  <filename>  (1) 
CCCCCCCc1[nH]ncc1Nc1cccnc1

$$$$
