
     RDKit          3D

 42 44  0  0  0  0  0  0  0  0999 V2000
    6.7197   -4.7156   22.6946 C   0  0  0  0  0  0  0  0  0  0  0  0
    8.0587   -4.3169   23.3113 C   0  0  0  0  0  0  0  0  0  0  0  0
    8.8866   -3.5121   22.2991 C   0  0  0  0  0  0  0  0  0  0  0  0
    8.3244   -2.1775   21.9754 C   0  0  0  0  0  0  0  0  0  0  0  0
    7.7577   -1.9182   20.8148 N   0  0  0  0  0  0  0  0  0  0  0  0
    7.3690   -0.6267   20.9480 N   0  0  0  0  0  0  0  0  0  0  0  0
    6.6496    0.0198   19.9101 C   0  0  0  0  0  0  0  0  0  0  0  0
    5.4316    0.6665   20.1570 C   0  0  0  0  0  0  0  0  0  0  0  0
    4.8080    1.3133   19.0866 C   0  0  0  0  0  0  0  0  0  0  0  0
    5.4176    1.2889   17.8282 C   0  0  0  0  0  0  0  0  0  0  0  0
    6.5730    0.6445   17.5827 N   0  0  0  0  0  0  0  0  0  0  0  0
    7.1646    0.0150   18.6021 C   0  0  0  0  0  0  0  0  0  0  0  0
    8.0974   -0.5038   18.3929 H   0  0  0  0  0  0  0  0  0  0  0  0
    4.9618    1.8021   16.9842 H   0  0  0  0  0  0  0  0  0  0  0  0
    3.8734    1.8458   19.2279 H   0  0  0  0  0  0  0  0  0  0  0  0
    4.9848    0.6447   21.1527 H   0  0  0  0  0  0  0  0  0  0  0  0
    7.7710   -0.1719   22.1685 C   0  0  0  0  0  0  0  0  0  0  0  0
    7.6903    1.2527   22.5824 C   0  0  0  0  0  0  0  0  0  0  0  0
    8.6535    2.1853   21.8181 C   0  0  0  0  0  0  0  0  0  0  0  0
    8.4683    3.5971   22.2911 C   0  0  0  0  0  0  0  0  0  0  0  0
    7.4035    4.3513   21.7776 C   0  0  0  0  0  0  0  0  0  0  0  0
    7.3563    5.7099   22.0553 C   0  0  0  0  0  0  0  0  0  0  0  0
    6.4473    6.4765   21.4344 F   0  0  0  0  0  0  0  0  0  0  0  0
    8.2423    6.3069   22.9494 C   0  0  0  0  0  0  0  0  0  0  0  0
    9.1749    5.4903   23.5797 C   0  0  0  0  0  0  0  0  0  0  0  0
   10.0003    6.0277   24.4906 F   0  0  0  0  0  0  0  0  0  0  0  0
    9.3270    4.1520   23.2477 C   0  0  0  0  0  0  0  0  0  0  0  0
   10.1198    3.5764   23.7108 H   0  0  0  0  0  0  0  0  0  0  0  0
    8.2278    7.3714   23.1155 H   0  0  0  0  0  0  0  0  0  0  0  0
    6.6463    3.8857   21.1495 H   0  0  0  0  0  0  0  0  0  0  0  0
    9.7004    1.8808   21.9692 H   0  0  0  0  0  0  0  0  0  0  0  0
    8.4446    2.1371   20.7402 H   0  0  0  0  0  0  0  0  0  0  0  0
    7.9078    1.2948   23.6522 H   0  0  0  0  0  0  0  0  0  0  0  0
    6.6612    1.6042   22.4499 H   0  0  0  0  0  0  0  0  0  0  0  0
    8.3654   -1.1345   22.8406 N   0  0  0  0  0  0  0  0  0  0  0  0
    9.9191   -3.3731   22.6388 H   0  0  0  0  0  0  0  0  0  0  0  0
    8.8785   -4.0408   21.3484 H   0  0  0  0  0  0  0  0  0  0  0  0
    7.9125   -3.7303   24.2294 H   0  0  0  0  0  0  0  0  0  0  0  0
    8.6272   -5.2113   23.5969 H   0  0  0  0  0  0  0  0  0  0  0  0
    6.1358   -3.8343   22.4018 H   0  0  0  0  0  0  0  0  0  0  0  0
    6.1111   -5.3141   23.3790 H   0  0  0  0  0  0  0  0  0  0  0  0
    6.8846   -5.3122   21.7875 H   0  0  0  0  0  0  0  0  0  0  0  0
  1  2  1  0
  2  3  1  0
  3  4  1  0
  4  5  2  0
  5  6  1  0
  6  7  1  0
  7  8  2  0
  8  9  1  0
  9 10  2  0
 10 11  1  0
 11 12  2  0
 12 13  1  0
 10 14  1  0
  9 15  1  0
  8 16  1  0
  6 17  1  0
 17 18  1  0
 18 19  1  0
 19 20  1  0
 20 21  2  0
 21 22  1  0
 22 23  1  0
 22 24  2  0
 24 25  1  0
 25 26  1  0
 25 27  2  0
 27 28  1  0
 24 29  1  0
 21 30  1  0
 19 31  1  0
 19 32  1  0
 18 33  1  0
 18 34  1  0
 17 35  2  0
  3 36  1  0
  3 37  1  0
  2 38  1  0
  2 39  1  0
  1 40  1  0
  1 41  1  0
  1 42  1  0
 35  4  1  0
 12  7  1  0
 27 20  1  0
M  END
>  <cnnaffinity>  (1) 
-5.52208

>  <filename>  (1) 
CCCc1nc(CCc2cc(F)cc(F)c2)n(-c2cccnc2)n1

$$$$
