
     RDKit          3D

 48 49  0  0  0  0  0  0  0  0999 V2000
   10.1916   -0.3559   22.6908 H   0  0  0  0  0  0  0  0  0  0  0  0
    9.3142   -0.9115   22.3617 C   0  0  0  0  0  0  0  0  0  0  0  0
    8.7206   -1.8127   23.1488 C   0  0  0  0  0  0  0  0  0  0  0  0
    9.1446   -2.0540   24.5834 C   0  0  0  0  0  0  0  0  0  0  0  0
    8.7653   -3.0310   24.9138 H   0  0  0  0  0  0  0  0  0  0  0  0
   10.2412   -2.1123   24.6373 H   0  0  0  0  0  0  0  0  0  0  0  0
    8.6601   -0.9404   25.5294 C   0  0  0  0  0  0  0  0  0  0  0  0
    9.1084    0.0068   25.1929 H   0  0  0  0  0  0  0  0  0  0  0  0
    7.5729   -0.8163   25.4194 H   0  0  0  0  0  0  0  0  0  0  0  0
    8.9901   -1.1007   27.0162 C   0  0  0  0  0  0  0  0  0  0  0  0
    8.5895   -2.0477   27.4097 H   0  0  0  0  0  0  0  0  0  0  0  0
   10.0809   -1.1598   27.1414 H   0  0  0  0  0  0  0  0  0  0  0  0
    8.4862    0.1033   27.8295 C   0  0  0  0  0  0  0  0  0  0  0  0
    9.0173    0.1345   28.7922 H   0  0  0  0  0  0  0  0  0  0  0  0
    8.7855    1.0098   27.2825 H   0  0  0  0  0  0  0  0  0  0  0  0
    6.9734    0.2103   28.1049 C   0  0  0  0  0  0  0  0  0  0  0  0
    6.5693   -0.7637   28.4114 H   0  0  0  0  0  0  0  0  0  0  0  0
    6.4260    0.4625   27.1826 H   0  0  0  0  0  0  0  0  0  0  0  0
    6.6634    1.2643   29.1911 C   0  0  0  0  0  0  0  0  0  0  0  0
    5.6044    1.2038   29.4836 H   0  0  0  0  0  0  0  0  0  0  0  0
    7.2343    1.0064   30.0991 H   0  0  0  0  0  0  0  0  0  0  0  0
    7.0007    2.6992   28.7556 C   0  0  0  0  0  0  0  0  0  0  0  0
    8.0355    2.7316   28.3966 H   0  0  0  0  0  0  0  0  0  0  0  0
    6.3803    2.9486   27.8825 H   0  0  0  0  0  0  0  0  0  0  0  0
    6.8217    3.7656   29.8377 C   0  0  0  0  0  0  0  0  0  0  0  0
    7.3879    3.5210   30.7459 H   0  0  0  0  0  0  0  0  0  0  0  0
    5.7648    3.8755   30.1105 H   0  0  0  0  0  0  0  0  0  0  0  0
    7.1865    4.7371   29.4846 H   0  0  0  0  0  0  0  0  0  0  0  0
    7.5044   -2.5158   22.5685 C   0  0  0  0  0  0  0  0  0  0  0  0
    7.8127   -3.2919   21.8535 H   0  0  0  0  0  0  0  0  0  0  0  0
    6.9280   -3.0139   23.3506 H   0  0  0  0  0  0  0  0  0  0  0  0
    6.6189   -1.4846   21.8578 C   0  0  0  0  0  0  0  0  0  0  0  0
    5.7388   -1.9698   21.4220 H   0  0  0  0  0  0  0  0  0  0  0  0
    6.2545   -0.7684   22.6130 H   0  0  0  0  0  0  0  0  0  0  0  0
    7.3666   -0.8000   20.8020 N   0  0  0  0  0  0  0  0  0  0  0  0
    6.6916   -0.0704   19.8145 C   0  0  0  0  0  0  0  0  0  0  0  0
    7.1957    0.0771   18.4885 C   0  0  0  0  0  0  0  0  0  0  0  0
    8.1550   -0.3722   18.2311 H   0  0  0  0  0  0  0  0  0  0  0  0
    6.5770    0.7333   17.4947 N   0  0  0  0  0  0  0  0  0  0  0  0
    5.4088    1.3317   17.7816 C   0  0  0  0  0  0  0  0  0  0  0  0
    4.9298    1.8757   16.9679 H   0  0  0  0  0  0  0  0  0  0  0  0
    4.8235    1.2770   19.0502 C   0  0  0  0  0  0  0  0  0  0  0  0
    3.8856    1.7922   19.2303 H   0  0  0  0  0  0  0  0  0  0  0  0
    5.4589    0.5683   20.0761 C   0  0  0  0  0  0  0  0  0  0  0  0
    5.0438    0.5331   21.0827 H   0  0  0  0  0  0  0  0  0  0  0  0
    8.8225   -0.6436   20.9517 C   0  0  0  0  0  0  0  0  0  0  0  0
    9.1146    0.3716   20.6597 H   0  0  0  0  0  0  0  0  0  0  0  0
    9.3532   -1.3140   20.2546 H   0  0  0  0  0  0  0  0  0  0  0  0
  1  2  1  0
  2  3  2  0
  3  4  1  0
  4  5  1  0
  4  6  1  0
  4  7  1  0
  7  8  1  0
  7  9  1  0
  7 10  1  0
 10 11  1  0
 10 12  1  0
 10 13  1  0
 13 14  1  0
 13 15  1  0
 13 16  1  0
 16 17  1  0
 16 18  1  0
 16 19  1  0
 19 20  1  0
 19 21  1  0
 19 22  1  0
 22 23  1  0
 22 24  1  0
 22 25  1  0
 25 26  1  0
 25 27  1  0
 25 28  1  0
  3 29  1  0
 29 30  1  0
 29 31  1  0
 29 32  1  0
 32 33  1  0
 32 34  1  0
 32 35  1  0
 35 36  1  0
 36 37  2  0
 37 38  1  0
 37 39  1  0
 39 40  2  0
 40 41  1  0
 40 42  1  0
 42 43  1  0
 42 44  2  0
 44 45  1  0
 35 46  1  0
 46 47  1  0
 46 48  1  0
 46  2  1  0
 44 36  1  0
M  END
>  <cnnaffinity>  (1) 
-4.87738

>  <filename>  (1) 
CCCCCCCCC1=CCN(c2cccnc2)CC1

$$$$
