
     RDKit          3D

 36 37  0  0  0  0  0  0  0  0999 V2000
    4.9825    1.8129   16.9483 H   0  0  0  0  0  0  0  0  0  0  0  0
    5.4390    1.2968   17.7911 C   0  0  0  0  0  0  0  0  0  0  0  0
    6.5986    0.6656   17.5401 N   0  0  0  0  0  0  0  0  0  0  0  0
    7.2005    0.0467   18.5641 C   0  0  0  0  0  0  0  0  0  0  0  0
    8.1340   -0.4568   18.3161 H   0  0  0  0  0  0  0  0  0  0  0  0
    6.7008    0.0234   19.8892 C   0  0  0  0  0  0  0  0  0  0  0  0
    7.4347   -0.6143   21.0114 C   0  0  0  0  0  0  0  0  0  0  0  0
    8.7483   -1.7121   20.7317 S   0  0  0  0  0  0  0  0  0  0  0  0
    8.9424   -2.0046   22.4128 C   0  0  0  0  0  0  0  0  0  0  0  0
    9.6602   -2.7328   22.7615 H   0  0  0  0  0  0  0  0  0  0  0  0
    8.0936   -1.2642   23.1778 C   0  0  0  0  0  0  0  0  0  0  0  0
    8.0368   -1.3026   24.6886 C   0  0  0  0  0  0  0  0  0  0  0  0
    8.9361   -1.7966   25.0844 H   0  0  0  0  0  0  0  0  0  0  0  0
    8.0687   -0.2775   25.0793 H   0  0  0  0  0  0  0  0  0  0  0  0
    6.7732   -1.9914   25.2373 C   0  0  0  0  0  0  0  0  0  0  0  0
    5.8967   -1.4306   24.8820 H   0  0  0  0  0  0  0  0  0  0  0  0
    6.7621   -1.9077   26.3338 H   0  0  0  0  0  0  0  0  0  0  0  0
    6.6085   -3.4597   24.8247 C   0  0  0  0  0  0  0  0  0  0  0  0
    6.5712   -3.5204   23.7272 H   0  0  0  0  0  0  0  0  0  0  0  0
    5.6249   -3.8024   25.1687 H   0  0  0  0  0  0  0  0  0  0  0  0
    7.6989   -4.4109   25.3378 C   0  0  0  0  0  0  0  0  0  0  0  0
    8.6321   -4.2112   24.7927 H   0  0  0  0  0  0  0  0  0  0  0  0
    7.9142   -4.2064   26.3988 H   0  0  0  0  0  0  0  0  0  0  0  0
    7.3476   -5.8967   25.1945 C   0  0  0  0  0  0  0  0  0  0  0  0
    7.0971   -6.1140   24.1428 H   0  0  0  0  0  0  0  0  0  0  0  0
    8.2409   -6.4869   25.4346 H   0  0  0  0  0  0  0  0  0  0  0  0
    6.2120   -6.3718   26.1119 C   0  0  0  0  0  0  0  0  0  0  0  0
    6.0336   -7.4468   26.0051 H   0  0  0  0  0  0  0  0  0  0  0  0
    5.2625   -5.8712   25.8934 H   0  0  0  0  0  0  0  0  0  0  0  0
    6.4409   -6.1996   27.1709 H   0  0  0  0  0  0  0  0  0  0  0  0
    7.2276   -0.4645   22.3558 C   0  0  0  0  0  0  0  0  0  0  0  0
    6.4873    0.2130   22.7716 H   0  0  0  0  0  0  0  0  0  0  0  0
    5.4614    0.6526   20.1075 C   0  0  0  0  0  0  0  0  0  0  0  0
    4.9993    0.6266   21.0932 H   0  0  0  0  0  0  0  0  0  0  0  0
    4.8265    1.3020   19.0465 C   0  0  0  0  0  0  0  0  0  0  0  0
    3.8842    1.8226   19.1837 H   0  0  0  0  0  0  0  0  0  0  0  0
  1  2  1  0
  2  3  2  0
  3  4  1  0
  4  5  1  0
  4  6  2  0
  6  7  1  0
  7  8  1  0
  8  9  1  0
  9 10  1  0
  9 11  2  0
 11 12  1  0
 12 13  1  0
 12 14  1  0
 12 15  1  0
 15 16  1  0
 15 17  1  0
 15 18  1  0
 18 19  1  0
 18 20  1  0
 18 21  1  0
 21 22  1  0
 21 23  1  0
 21 24  1  0
 24 25  1  0
 24 26  1  0
 24 27  1  0
 27 28  1  0
 27 29  1  0
 27 30  1  0
 11 31  1  0
 31 32  1  0
  6 33  1  0
 33 34  1  0
 33 35  2  0
 35 36  1  0
 35  2  1  0
 31  7  2  0
M  END
>  <cnnaffinity>  (1) 
-5.13221

>  <filename>  (1) 
CCCCCCc1csc(-c2cccnc2)c1

$$$$
