
     RDKit          3D

 44 45  0  0  0  0  0  0  0  0999 V2000
    4.9249    1.7747   17.0033 H   0  0  0  0  0  0  0  0  0  0  0  0
    5.4074    1.2849   17.8471 C   0  0  0  0  0  0  0  0  0  0  0  0
    6.5679    0.6649   17.5905 N   0  0  0  0  0  0  0  0  0  0  0  0
    7.1882    0.0661   18.6099 C   0  0  0  0  0  0  0  0  0  0  0  0
    8.1296   -0.4214   18.3723 H   0  0  0  0  0  0  0  0  0  0  0  0
    6.6794    0.0175   19.9136 C   0  0  0  0  0  0  0  0  0  0  0  0
    7.4345   -0.7036   20.9606 C   0  0  0  0  0  0  0  0  0  0  0  0
    8.7766   -0.6817   20.8899 N   0  0  0  0  0  0  0  0  0  0  0  0
    9.4475   -1.2964   21.8718 C   0  0  0  0  0  0  0  0  0  0  0  0
   10.5294   -1.2473   21.8103 H   0  0  0  0  0  0  0  0  0  0  0  0
    8.8490   -1.9999   22.9136 C   0  0  0  0  0  0  0  0  0  0  0  0
    9.4533   -2.4816   23.6714 H   0  0  0  0  0  0  0  0  0  0  0  0
    7.4553   -2.0809   22.9580 C   0  0  0  0  0  0  0  0  0  0  0  0
    6.7426   -2.7717   24.0822 C   0  0  0  0  0  0  0  0  0  0  0  0
    5.7989   -3.1961   23.7150 H   0  0  0  0  0  0  0  0  0  0  0  0
    7.3544   -3.6110   24.4344 H   0  0  0  0  0  0  0  0  0  0  0  0
    6.4564   -1.8218   25.2447 C   0  0  0  0  0  0  0  0  0  0  0  0
    5.8581   -0.9750   24.8837 H   0  0  0  0  0  0  0  0  0  0  0  0
    7.3985   -1.3839   25.5989 H   0  0  0  0  0  0  0  0  0  0  0  0
    5.7407   -2.5099   26.3943 C   0  0  0  0  0  0  0  0  0  0  0  0
    4.7997   -2.9457   26.0277 H   0  0  0  0  0  0  0  0  0  0  0  0
    6.3473   -3.3574   26.7448 H   0  0  0  0  0  0  0  0  0  0  0  0
    5.4548   -1.5707   27.5532 C   0  0  0  0  0  0  0  0  0  0  0  0
    6.3986   -1.1344   27.9102 H   0  0  0  0  0  0  0  0  0  0  0  0
    4.8529   -0.7239   27.1925 H   0  0  0  0  0  0  0  0  0  0  0  0
    4.7361   -2.2569   28.7038 C   0  0  0  0  0  0  0  0  0  0  0  0
    5.3339   -3.1121   29.0461 H   0  0  0  0  0  0  0  0  0  0  0  0
    3.7950   -2.6879   28.3352 H   0  0  0  0  0  0  0  0  0  0  0  0
    4.4436   -1.3118   29.8630 C   0  0  0  0  0  0  0  0  0  0  0  0
    3.9088   -0.4338   29.4770 H   0  0  0  0  0  0  0  0  0  0  0  0
    5.3949   -0.9334   30.2630 H   0  0  0  0  0  0  0  0  0  0  0  0
    3.6326   -1.9473   30.9918 C   0  0  0  0  0  0  0  0  0  0  0  0
    3.2999   -1.1622   31.6804 H   0  0  0  0  0  0  0  0  0  0  0  0
    2.7199   -2.3889   30.5709 H   0  0  0  0  0  0  0  0  0  0  0  0
    4.4002   -3.0121   31.7719 C   0  0  0  0  0  0  0  0  0  0  0  0
    5.3411   -2.6071   32.1575 H   0  0  0  0  0  0  0  0  0  0  0  0
    4.6490   -3.8792   31.1502 H   0  0  0  0  0  0  0  0  0  0  0  0
    3.8236   -3.3704   32.6295 H   0  0  0  0  0  0  0  0  0  0  0  0
    6.7572   -1.4033   21.9619 C   0  0  0  0  0  0  0  0  0  0  0  0
    5.6802   -1.4306   21.9268 H   0  0  0  0  0  0  0  0  0  0  0  0
    5.4465    0.6465   20.1639 C   0  0  0  0  0  0  0  0  0  0  0  0
    5.0022    0.6432   21.1629 H   0  0  0  0  0  0  0  0  0  0  0  0
    4.8140    1.3054   19.1132 C   0  0  0  0  0  0  0  0  0  0  0  0
    3.8806    1.8373   19.2608 H   0  0  0  0  0  0  0  0  0  0  0  0
  1  2  1  0
  2  3  2  0
  3  4  1  0
  4  5  1  0
  4  6  2  0
  6  7  1  0
  7  8  2  0
  8  9  1  0
  9 10  1  0
  9 11  2  0
 11 12  1  0
 11 13  1  0
 13 14  1  0
 14 15  1  0
 14 16  1  0
 14 17  1  0
 17 18  1  0
 17 19  1  0
 17 20  1  0
 20 21  1  0
 20 22  1  0
 20 23  1  0
 23 24  1  0
 23 25  1  0
 23 26  1  0
 26 27  1  0
 26 28  1  0
 26 29  1  0
 29 30  1  0
 29 31  1  0
 29 32  1  0
 32 33  1  0
 32 34  1  0
 32 35  1  0
 35 36  1  0
 35 37  1  0
 35 38  1  0
 13 39  2  0
 39 40  1  0
  6 41  1  0
 41 42  1  0
 41 43  2  0
 43 44  1  0
 43  2  1  0
 39  7  1  0
M  END
>  <cnnaffinity>  (1) 
-5.32256

>  <filename>  (1) 
CCCCCCCCc1ccnc(-c2cccnc2)c1

$$$$
