
     RDKit          3D

 40 42  0  0  0  0  0  0  0  0999 V2000
    8.4306   -4.8346   22.5303 C   0  0  0  0  0  0  0  0  0  0  0  0
    7.0994   -4.4575   23.1741 C   0  0  0  0  0  0  0  0  0  0  0  0
    7.1477   -3.0075   23.7060 C   0  0  0  0  0  0  0  0  0  0  0  0
    7.4367   -1.9932   22.6342 C   0  0  0  0  0  0  0  0  0  0  0  0
    6.5417   -1.6290   21.7395 N   0  0  0  0  0  0  0  0  0  0  0  0
    7.2395   -0.8073   20.9137 N   0  0  0  0  0  0  0  0  0  0  0  0
    6.5722   -0.1050   19.8713 C   0  0  0  0  0  0  0  0  0  0  0  0
    5.3859    0.5897   20.1331 C   0  0  0  0  0  0  0  0  0  0  0  0
    4.8047    1.3094   19.0870 C   0  0  0  0  0  0  0  0  0  0  0  0
    5.4107    1.3006   17.8244 C   0  0  0  0  0  0  0  0  0  0  0  0
    6.5303    0.6120   17.5595 N   0  0  0  0  0  0  0  0  0  0  0  0
    7.0869   -0.0752   18.5631 C   0  0  0  0  0  0  0  0  0  0  0  0
    7.9934   -0.6275   18.3253 H   0  0  0  0  0  0  0  0  0  0  0  0
    4.9763    1.8544   16.9944 H   0  0  0  0  0  0  0  0  0  0  0  0
    3.8908    1.8705   19.2393 H   0  0  0  0  0  0  0  0  0  0  0  0
    4.9473    0.5557   21.1322 H   0  0  0  0  0  0  0  0  0  0  0  0
    8.5107   -0.6827   21.3929 C   0  0  0  0  0  0  0  0  0  0  0  0
    9.5725    0.1090   20.6768 C   0  0  0  0  0  0  0  0  0  0  0  0
   10.5746    0.6924   21.4950 O   0  0  0  0  0  0  0  0  0  0  0  0
   10.2701    1.6499   22.4180 C   0  0  0  0  0  0  0  0  0  0  0  0
    8.9946    2.2127   22.6089 C   0  0  0  0  0  0  0  0  0  0  0  0
    8.7808    3.1652   23.6139 C   0  0  0  0  0  0  0  0  0  0  0  0
    9.8375    3.6137   24.4041 C   0  0  0  0  0  0  0  0  0  0  0  0
   11.1152    3.0879   24.2039 C   0  0  0  0  0  0  0  0  0  0  0  0
   11.3262    2.0895   23.2515 C   0  0  0  0  0  0  0  0  0  0  0  0
   12.8950    1.3497   23.1603 Cl  0  0  0  0  0  0  0  0  0  0  0  0
   11.9549    3.4417   24.7912 H   0  0  0  0  0  0  0  0  0  0  0  0
    9.6571    4.3426   25.1909 H   0  0  0  0  0  0  0  0  0  0  0  0
    7.7735    3.5355   23.7926 H   0  0  0  0  0  0  0  0  0  0  0  0
    8.1646    1.9138   21.9736 H   0  0  0  0  0  0  0  0  0  0  0  0
    9.1310    0.8667   20.0207 H   0  0  0  0  0  0  0  0  0  0  0  0
   10.1248   -0.5863   20.0457 H   0  0  0  0  0  0  0  0  0  0  0  0
    8.6681   -1.4409   22.4605 N   0  0  0  0  0  0  0  0  0  0  0  0
    6.2133   -2.7430   24.2126 H   0  0  0  0  0  0  0  0  0  0  0  0
    7.9550   -2.9349   24.4425 H   0  0  0  0  0  0  0  0  0  0  0  0
    6.2692   -4.5822   22.4638 H   0  0  0  0  0  0  0  0  0  0  0  0
    6.9014   -5.1318   24.0184 H   0  0  0  0  0  0  0  0  0  0  0  0
    8.4295   -5.8544   22.1346 H   0  0  0  0  0  0  0  0  0  0  0  0
    9.2309   -4.7666   23.2773 H   0  0  0  0  0  0  0  0  0  0  0  0
    8.6837   -4.1415   21.7186 H   0  0  0  0  0  0  0  0  0  0  0  0
  1  2  1  0
  2  3  1  0
  3  4  1  0
  4  5  2  0
  5  6  1  0
  6  7  1  0
  7  8  2  0
  8  9  1  0
  9 10  2  0
 10 11  1  0
 11 12  2  0
 12 13  1  0
 10 14  1  0
  9 15  1  0
  8 16  1  0
  6 17  1  0
 17 18  1  0
 18 19  1  0
 19 20  1  0
 20 21  2  0
 21 22  1  0
 22 23  2  0
 23 24  1  0
 24 25  2  0
 25 26  1  0
 24 27  1  0
 23 28  1  0
 22 29  1  0
 21 30  1  0
 18 31  1  0
 18 32  1  0
 17 33  2  0
  3 34  1  0
  3 35  1  0
  2 36  1  0
  2 37  1  0
  1 38  1  0
  1 39  1  0
  1 40  1  0
 33  4  1  0
 12  7  1  0
 25 20  1  0
M  END
>  <cnnaffinity>  (1) 
-6.07571

>  <filename>  (1) 
CCCc1nc(COc2ccccc2Cl)n(-c2cccnc2)n1

$$$$
