
     RDKit          3D

 42 43  0  0  0  0  0  0  0  0999 V2000
    4.9882    1.7764   16.8327 H   0  0  0  0  0  0  0  0  0  0  0  0
    5.3947    1.3678   17.7557 C   0  0  0  0  0  0  0  0  0  0  0  0
    6.6056    0.7959   17.6612 N   0  0  0  0  0  0  0  0  0  0  0  0
    7.1332    0.2695   18.7693 C   0  0  0  0  0  0  0  0  0  0  0  0
    8.1183   -0.1795   18.6548 H   0  0  0  0  0  0  0  0  0  0  0  0
    6.4943    0.2706   20.0284 C   0  0  0  0  0  0  0  0  0  0  0  0
    7.0987   -0.3815   21.1349 N   0  0  0  0  0  0  0  0  0  0  0  0
    6.8380   -0.2530   22.4800 C   0  0  0  0  0  0  0  0  0  0  0  0
    6.2040    0.5362   22.8660 H   0  0  0  0  0  0  0  0  0  0  0  0
    7.5041   -1.1174   23.2003 N   0  0  0  0  0  0  0  0  0  0  0  0
    8.2655   -1.8485   22.3182 C   0  0  0  0  0  0  0  0  0  0  0  0
    9.1652   -2.9490   22.8227 C   0  0  0  0  0  0  0  0  0  0  0  0
    9.9876   -3.1021   22.1142 H   0  0  0  0  0  0  0  0  0  0  0  0
    9.6145   -2.6004   23.7620 H   0  0  0  0  0  0  0  0  0  0  0  0
    8.4515   -4.2903   23.1074 C   0  0  0  0  0  0  0  0  0  0  0  0
    7.6984   -4.0986   23.8875 H   0  0  0  0  0  0  0  0  0  0  0  0
    9.1706   -4.9921   23.5561 H   0  0  0  0  0  0  0  0  0  0  0  0
    7.8000   -4.9988   21.9013 C   0  0  0  0  0  0  0  0  0  0  0  0
    8.5660   -5.5663   21.3593 H   0  0  0  0  0  0  0  0  0  0  0  0
    7.4262   -4.2576   21.1791 H   0  0  0  0  0  0  0  0  0  0  0  0
    6.6412   -5.9414   22.3056 C   0  0  0  0  0  0  0  0  0  0  0  0
    6.6556   -6.8426   21.6768 H   0  0  0  0  0  0  0  0  0  0  0  0
    6.7978   -6.3018   23.3356 H   0  0  0  0  0  0  0  0  0  0  0  0
    5.2489   -5.2912   22.1708 C   0  0  0  0  0  0  0  0  0  0  0  0
    5.0520   -5.1335   21.1007 H   0  0  0  0  0  0  0  0  0  0  0  0
    4.4840   -6.0050   22.5129 H   0  0  0  0  0  0  0  0  0  0  0  0
    5.0473   -3.9573   22.9089 C   0  0  0  0  0  0  0  0  0  0  0  0
    4.1224   -3.4957   22.5376 H   0  0  0  0  0  0  0  0  0  0  0  0
    5.8496   -3.2422   22.6508 H   0  0  0  0  0  0  0  0  0  0  0  0
    4.9438   -4.0974   24.4349 C   0  0  0  0  0  0  0  0  0  0  0  0
    5.8403   -4.6066   24.8208 H   0  0  0  0  0  0  0  0  0  0  0  0
    4.0980   -4.7634   24.6752 H   0  0  0  0  0  0  0  0  0  0  0  0
    4.7702   -2.7512   25.1415 C   0  0  0  0  0  0  0  0  0  0  0  0
    5.5743   -2.0578   24.8614 H   0  0  0  0  0  0  0  0  0  0  0  0
    4.7836   -2.8664   26.2313 H   0  0  0  0  0  0  0  0  0  0  0  0
    3.8116   -2.2896   24.8700 H   0  0  0  0  0  0  0  0  0  0  0  0
    8.0373   -1.4055   21.0486 C   0  0  0  0  0  0  0  0  0  0  0  0
    8.5027   -1.6727   20.1149 H   0  0  0  0  0  0  0  0  0  0  0  0
    5.2392    0.8935   20.1203 C   0  0  0  0  0  0  0  0  0  0  0  0
    4.6926    0.9438   21.0620 H   0  0  0  0  0  0  0  0  0  0  0  0
    4.6834    1.4377   18.9572 C   0  0  0  0  0  0  0  0  0  0  0  0
    3.7098    1.9165   18.9686 H   0  0  0  0  0  0  0  0  0  0  0  0
  1  2  1  0
  2  3  2  0
  3  4  1  0
  4  5  1  0
  4  6  2  0
  6  7  1  0
  7  8  1  0
  8  9  1  0
  8 10  2  0
 10 11  1  0
 11 12  1  0
 12 13  1  0
 12 14  1  0
 12 15  1  0
 15 16  1  0
 15 17  1  0
 15 18  1  0
 18 19  1  0
 18 20  1  0
 18 21  1  0
 21 22  1  0
 21 23  1  0
 21 24  1  0
 24 25  1  0
 24 26  1  0
 24 27  1  0
 27 28  1  0
 27 29  1  0
 27 30  1  0
 30 31  1  0
 30 32  1  0
 30 33  1  0
 33 34  1  0
 33 35  1  0
 33 36  1  0
 11 37  2  0
 37 38  1  0
  6 39  1  0
 39 40  1  0
 39 41  2  0
 41 42  1  0
 41  2  1  0
 37  7  1  0
M  END
>  <cnnaffinity>  (1) 
-4.96956

>  <filename>  (1) 
CCCCCCCCc1cn(-c2cccnc2)cn1

$$$$
