
     RDKit          3D

 43 44  0  0  0  0  0  0  0  0999 V2000
   10.4713   -1.2276   21.8943 H   0  0  0  0  0  0  0  0  0  0  0  0
    9.3842   -1.2990   21.8910 C   0  0  0  0  0  0  0  0  0  0  0  0
    8.7659   -0.6899   20.8819 N   0  0  0  0  0  0  0  0  0  0  0  0
    7.4293   -0.7435   20.8999 C   0  0  0  0  0  0  0  0  0  0  0  0
    6.7080    0.0015   19.8584 C   0  0  0  0  0  0  0  0  0  0  0  0
    7.2367    0.0636   18.5627 C   0  0  0  0  0  0  0  0  0  0  0  0
    8.1864   -0.4204   18.3463 H   0  0  0  0  0  0  0  0  0  0  0  0
    6.6318    0.6775   17.5408 N   0  0  0  0  0  0  0  0  0  0  0  0
    5.4643    1.2896   17.7936 C   0  0  0  0  0  0  0  0  0  0  0  0
    4.9833    1.7805   16.9493 H   0  0  0  0  0  0  0  0  0  0  0  0
    4.8629    1.3118   19.0565 C   0  0  0  0  0  0  0  0  0  0  0  0
    3.9243    1.8341   19.1980 H   0  0  0  0  0  0  0  0  0  0  0  0
    5.4954    0.6610   20.1131 C   0  0  0  0  0  0  0  0  0  0  0  0
    5.0764    0.6881   21.1228 H   0  0  0  0  0  0  0  0  0  0  0  0
    6.7423   -1.4682   21.8693 C   0  0  0  0  0  0  0  0  0  0  0  0
    5.6761   -1.6146   21.7946 H   0  0  0  0  0  0  0  0  0  0  0  0
    7.4771   -2.0277   22.9059 C   0  0  0  0  0  0  0  0  0  0  0  0
    6.8119   -2.7316   24.0709 C   0  0  0  0  0  0  0  0  0  0  0  0
    6.0117   -3.3698   23.6780 H   0  0  0  0  0  0  0  0  0  0  0  0
    7.5670   -3.3886   24.5132 H   0  0  0  0  0  0  0  0  0  0  0  0
    6.2241   -1.8520   25.2034 C   0  0  0  0  0  0  0  0  0  0  0  0
    5.8296   -2.5316   25.9688 H   0  0  0  0  0  0  0  0  0  0  0  0
    5.3610   -1.2724   24.8439 H   0  0  0  0  0  0  0  0  0  0  0  0
    7.2461   -0.9050   25.8414 C   0  0  0  0  0  0  0  0  0  0  0  0
    7.0482   -0.7806   26.9157 H   0  0  0  0  0  0  0  0  0  0  0  0
    8.2406   -1.3726   25.7863 H   0  0  0  0  0  0  0  0  0  0  0  0
    7.2769    0.4803   25.1806 C   0  0  0  0  0  0  0  0  0  0  0  0
    6.4102    1.0586   25.5258 H   0  0  0  0  0  0  0  0  0  0  0  0
    7.1569    0.3789   24.0909 H   0  0  0  0  0  0  0  0  0  0  0  0
    8.5667    1.2384   25.4817 C   0  0  0  0  0  0  0  0  0  0  0  0
    8.7841    1.1663   26.5618 H   0  0  0  0  0  0  0  0  0  0  0  0
    8.4476    2.3081   25.2490 H   0  0  0  0  0  0  0  0  0  0  0  0
    9.7631    0.6941   24.6954 C   0  0  0  0  0  0  0  0  0  0  0  0
    9.9467   -0.3563   24.9704 H   0  0  0  0  0  0  0  0  0  0  0  0
    9.5272    0.6898   23.6214 H   0  0  0  0  0  0  0  0  0  0  0  0
   11.0328    1.4970   24.9520 C   0  0  0  0  0  0  0  0  0  0  0  0
   11.0997    1.6237   26.0379 H   0  0  0  0  0  0  0  0  0  0  0  0
   10.9181    2.5048   24.5240 H   0  0  0  0  0  0  0  0  0  0  0  0
   12.3259    0.8378   24.4672 C   0  0  0  0  0  0  0  0  0  0  0  0
   12.4638   -0.1349   24.9631 H   0  0  0  0  0  0  0  0  0  0  0  0
   13.1843    1.4754   24.7092 H   0  0  0  0  0  0  0  0  0  0  0  0
   12.3399    0.6720   23.3810 H   0  0  0  0  0  0  0  0  0  0  0  0
    8.8204   -1.9629   22.8996 N   0  0  0  0  0  0  0  0  0  0  0  0
  1  2  1  0
  2  3  2  0
  3  4  1  0
  4  5  1  0
  5  6  2  0
  6  7  1  0
  6  8  1  0
  8  9  2  0
  9 10  1  0
  9 11  1  0
 11 12  1  0
 11 13  2  0
 13 14  1  0
  4 15  2  0
 15 16  1  0
 15 17  1  0
 17 18  1  0
 18 19  1  0
 18 20  1  0
 18 21  1  0
 21 22  1  0
 21 23  1  0
 21 24  1  0
 24 25  1  0
 24 26  1  0
 24 27  1  0
 27 28  1  0
 27 29  1  0
 27 30  1  0
 30 31  1  0
 30 32  1  0
 30 33  1  0
 33 34  1  0
 33 35  1  0
 33 36  1  0
 36 37  1  0
 36 38  1  0
 36 39  1  0
 39 40  1  0
 39 41  1  0
 39 42  1  0
 17 43  2  0
 43  2  1  0
 13  5  1  0
M  END
>  <cnnaffinity>  (1) 
-5.38518

>  <filename>  (1) 
CCCCCCCCc1cc(-c2cccnc2)ncn1

$$$$
