
     RDKit          3D

 32 32  0  0  0  0  0  0  0  0999 V2000
    4.9795    1.8545   16.9182 H   0  0  0  0  0  0  0  0  0  0  0  0
    5.4208    1.3225   17.7592 C   0  0  0  0  0  0  0  0  0  0  0  0
    6.5693    0.6755   17.5098 N   0  0  0  0  0  0  0  0  0  0  0  0
    7.1407    0.0250   18.5315 C   0  0  0  0  0  0  0  0  0  0  0  0
    8.0737   -0.4942   18.3004 H   0  0  0  0  0  0  0  0  0  0  0  0
    6.6192   -0.0318   19.8383 C   0  0  0  0  0  0  0  0  0  0  0  0
    7.3825   -0.7338   20.9436 C   0  0  0  0  0  0  0  0  0  0  0  0
    6.6936   -0.9842   21.7632 H   0  0  0  0  0  0  0  0  0  0  0  0
    7.7646   -1.6931   20.5665 H   0  0  0  0  0  0  0  0  0  0  0  0
    8.5577    0.0898   21.5105 C   0  0  0  0  0  0  0  0  0  0  0  0
    9.1304   -0.5525   22.1943 H   0  0  0  0  0  0  0  0  0  0  0  0
    9.2452    0.3490   20.6917 H   0  0  0  0  0  0  0  0  0  0  0  0
    8.1312    1.3573   22.2543 C   0  0  0  0  0  0  0  0  0  0  0  0
    7.4266    1.0838   23.0552 H   0  0  0  0  0  0  0  0  0  0  0  0
    7.5776    2.0176   21.5709 H   0  0  0  0  0  0  0  0  0  0  0  0
    9.3111    2.1298   22.8552 C   0  0  0  0  0  0  0  0  0  0  0  0
    9.9125    1.4311   23.4634 H   0  0  0  0  0  0  0  0  0  0  0  0
    9.9658    2.4291   22.0133 H   0  0  0  0  0  0  0  0  0  0  0  0
    8.8805    3.3373   23.6907 C   0  0  0  0  0  0  0  0  0  0  0  0
    8.0761    2.9646   24.3843 H   0  0  0  0  0  0  0  0  0  0  0  0
    8.2407    3.8625   22.9551 H   0  0  0  0  0  0  0  0  0  0  0  0
    9.7420    4.3373   24.2547 C   0  0  0  0  0  0  0  0  0  0  0  0
    8.9637    5.3776   24.0053 H   0  0  0  0  0  0  0  0  0  0  0  0
   10.3300    4.8506   23.2624 H   0  0  0  0  0  0  0  0  0  0  0  0
   10.0358    4.2407   24.3635 C   0  0  0  0  0  0  0  0  0  0  0  0
    9.4663    4.4815   25.5264 H   0  0  0  0  0  0  0  0  0  0  0  0
   11.3981    4.6130   24.9733 H   0  0  0  0  0  0  0  0  0  0  0  0
   11.1259    3.1223   24.6484 H   0  0  0  0  0  0  0  0  0  0  0  0
    5.4061    0.6366   20.0625 C   0  0  0  0  0  0  0  0  0  0  0  0
    4.9479    0.6177   21.0536 H   0  0  0  0  0  0  0  0  0  0  0  0
    4.7996    1.3275   19.0100 C   0  0  0  0  0  0  0  0  0  0  0  0
    3.8739    1.8746   19.1490 H   0  0  0  0  0  0  0  0  0  0  0  0
  1  2  1  0
  2  3  2  0
  3  4  1  0
  4  5  1  0
  4  6  2  0
  6  7  1  0
  7  8  1  0
  7  9  1  0
  7 10  1  0
 10 11  1  0
 10 12  1  0
 10 13  1  0
 13 14  1  0
 13 15  1  0
 13 16  1  0
 16 17  1  0
 16 18  1  0
 16 19  1  0
 19 20  1  0
 19 21  1  0
 19 22  1  0
 22 23  1  0
 22 24  1  0
 22 25  1  0
 25 26  1  0
 25 27  1  0
 25 28  1  0
  6 29  1  0
 29 30  1  0
 29 31  2  0
 31 32  1  0
 31  2  1  0
M  END
>  <cnnaffinity>  (1) 
-4.1873

>  <filename>  (1) 
CCCCCCCc1cccnc1

$$$$
