
     RDKit          3D

 37 38  0  0  0  0  0  0  0  0999 V2000
    9.1607   -2.6654   23.6555 H   0  0  0  0  0  0  0  0  0  0  0  0
    8.5881   -2.1260   22.9016 C   0  0  0  0  0  0  0  0  0  0  0  0
    8.0851   -2.8411   21.8987 N   0  0  0  0  0  0  0  0  0  0  0  0
    7.4291   -2.1462   20.9687 C   0  0  0  0  0  0  0  0  0  0  0  0
    6.9828   -2.7255   20.1614 H   0  0  0  0  0  0  0  0  0  0  0  0
    7.2789   -0.7595   20.9851 C   0  0  0  0  0  0  0  0  0  0  0  0
    6.6107   -0.0267   19.8534 C   0  0  0  0  0  0  0  0  0  0  0  0
    7.1274   -0.0071   18.5388 C   0  0  0  0  0  0  0  0  0  0  0  0
    8.0635   -0.5258   18.3195 H   0  0  0  0  0  0  0  0  0  0  0  0
    6.5571    0.6403   17.5133 N   0  0  0  0  0  0  0  0  0  0  0  0
    5.4147    1.3057   17.7608 C   0  0  0  0  0  0  0  0  0  0  0  0
    4.9732    1.8232   16.9121 H   0  0  0  0  0  0  0  0  0  0  0  0
    4.8075    1.3441   19.0187 C   0  0  0  0  0  0  0  0  0  0  0  0
    3.8891    1.9015   19.1630 H   0  0  0  0  0  0  0  0  0  0  0  0
    5.4208    0.6771   20.0799 C   0  0  0  0  0  0  0  0  0  0  0  0
    5.0104    0.6878   21.0904 H   0  0  0  0  0  0  0  0  0  0  0  0
    7.8043   -0.1236   22.1284 C   0  0  0  0  0  0  0  0  0  0  0  0
    7.7796    1.3804   22.2864 C   0  0  0  0  0  0  0  0  0  0  0  0
    7.9721    1.6192   23.3362 H   0  0  0  0  0  0  0  0  0  0  0  0
    6.7883    1.7796   22.0602 H   0  0  0  0  0  0  0  0  0  0  0  0
    8.8139    2.0723   21.3769 C   0  0  0  0  0  0  0  0  0  0  0  0
    8.7242    3.1594   21.4981 H   0  0  0  0  0  0  0  0  0  0  0  0
    8.5419    1.8620   20.3338 H   0  0  0  0  0  0  0  0  0  0  0  0
   10.2623    1.6320   21.6521 C   0  0  0  0  0  0  0  0  0  0  0  0
   10.9390    2.1904   20.9966 H   0  0  0  0  0  0  0  0  0  0  0  0
   10.3696    0.5796   21.3584 H   0  0  0  0  0  0  0  0  0  0  0  0
   10.6772    1.7776   23.1261 C   0  0  0  0  0  0  0  0  0  0  0  0
   10.5036    2.8148   23.4530 H   0  0  0  0  0  0  0  0  0  0  0  0
   10.0088    1.1551   23.7265 H   0  0  0  0  0  0  0  0  0  0  0  0
   12.1144    1.3601   23.4546 C   0  0  0  0  0  0  0  0  0  0  0  0
   12.2504    1.3457   24.5479 H   0  0  0  0  0  0  0  0  0  0  0  0
   12.2707    0.3186   23.1315 H   0  0  0  0  0  0  0  0  0  0  0  0
   13.1851    2.2705   22.8496 C   0  0  0  0  0  0  0  0  0  0  0  0
   12.9867    2.5115   21.8004 H   0  0  0  0  0  0  0  0  0  0  0  0
   13.2328    3.2318   23.3752 H   0  0  0  0  0  0  0  0  0  0  0  0
   14.1720    1.7981   22.9089 H   0  0  0  0  0  0  0  0  0  0  0  0
    8.4678   -0.8108   23.0681 N   0  0  0  0  0  0  0  0  0  0  0  0
  1  2  1  0
  2  3  2  0
  3  4  1  0
  4  5  1  0
  4  6  2  0
  6  7  1  0
  7  8  2  0
  8  9  1  0
  8 10  1  0
 10 11  2  0
 11 12  1  0
 11 13  1  0
 13 14  1  0
 13 15  2  0
 15 16  1  0
  6 17  1  0
 17 18  1  0
 18 19  1  0
 18 20  1  0
 18 21  1  0
 21 22  1  0
 21 23  1  0
 21 24  1  0
 24 25  1  0
 24 26  1  0
 24 27  1  0
 27 28  1  0
 27 29  1  0
 27 30  1  0
 30 31  1  0
 30 32  1  0
 30 33  1  0
 33 34  1  0
 33 35  1  0
 33 36  1  0
 17 37  2  0
 37  2  1  0
 15  7  1  0
M  END
>  <cnnaffinity>  (1) 
-5.19163

>  <filename>  (1) 
CCCCCCc1ncncc1-c1cccnc1

$$$$
