
     RDKit          3D

 45 47  0  0  0  0  0  0  0  0999 V2000
    8.3344   -5.9760   25.5537 C   0  0  0  0  0  0  0  0  0  0  0  0
    9.0075   -5.3487   24.3333 C   0  0  0  0  0  0  0  0  0  0  0  0
    8.3722   -4.0104   23.9558 C   0  0  0  0  0  0  0  0  0  0  0  0
    8.9621   -3.3276   22.7079 C   0  0  0  0  0  0  0  0  0  0  0  0
   10.4397   -2.8931   22.8596 C   0  0  0  0  0  0  0  0  0  0  0  0
   10.8599   -2.5881   21.8929 H   0  0  0  0  0  0  0  0  0  0  0  0
   11.0682   -3.6871   23.2672 H   0  0  0  0  0  0  0  0  0  0  0  0
   10.5207   -2.0404   23.5471 H   0  0  0  0  0  0  0  0  0  0  0  0
    8.1391   -2.1207   22.3731 C   0  0  0  0  0  0  0  0  0  0  0  0
    7.7078   -1.8318   21.1668 N   0  0  0  0  0  0  0  0  0  0  0  0
    7.1928   -0.5768   21.3281 N   0  0  0  0  0  0  0  0  0  0  0  0
    6.5967    0.0866   20.2290 C   0  0  0  0  0  0  0  0  0  0  0  0
    5.4093    0.8229   20.3324 C   0  0  0  0  0  0  0  0  0  0  0  0
    4.8679    1.3474   19.1544 C   0  0  0  0  0  0  0  0  0  0  0  0
    5.5457    1.1614   17.9477 C   0  0  0  0  0  0  0  0  0  0  0  0
    6.7027    0.4818   17.8540 N   0  0  0  0  0  0  0  0  0  0  0  0
    7.2016   -0.0544   18.9681 C   0  0  0  0  0  0  0  0  0  0  0  0
    8.1412   -0.6026   18.8924 H   0  0  0  0  0  0  0  0  0  0  0  0
    5.1518    1.5592   17.0171 H   0  0  0  0  0  0  0  0  0  0  0  0
    3.9418    1.9104   19.1672 H   0  0  0  0  0  0  0  0  0  0  0  0
    4.9228    0.9735   21.2974 H   0  0  0  0  0  0  0  0  0  0  0  0
    7.4248   -0.1593   22.6046 C   0  0  0  0  0  0  0  0  0  0  0  0
    7.5190    1.2815   22.9897 C   0  0  0  0  0  0  0  0  0  0  0  0
    8.8203    1.9399   22.3521 C   0  0  0  0  0  0  0  0  0  0  0  0
    9.9960    1.2979   22.7528 C   0  0  0  0  0  0  0  0  0  0  0  0
   11.2613    1.7296   22.2077 N   0  0  0  0  0  0  0  0  0  0  0  0
   11.5315    2.6615   21.3220 C   0  0  0  0  0  0  0  0  0  0  0  0
   12.0068    3.3277   20.4998 O   0  0  0  0  0  0  0  0  0  0  0  0
    8.7379    3.4289   21.8674 C   0  0  0  0  0  0  0  0  0  0  0  0
    8.5774    2.5156   20.9703 C   0  0  0  0  0  0  0  0  0  0  0  0
    8.2481    2.2656   19.9794 H   0  0  0  0  0  0  0  0  0  0  0  0
    8.8661    4.4649   22.1512 H   0  0  0  0  0  0  0  0  0  0  0  0
   12.0493    1.1194   22.4563 H   0  0  0  0  0  0  0  0  0  0  0  0
   10.0282    0.4957   23.4670 H   0  0  0  0  0  0  0  0  0  0  0  0
    6.6364    1.8240   22.6514 H   0  0  0  0  0  0  0  0  0  0  0  0
    7.5541    1.3444   24.0783 H   0  0  0  0  0  0  0  0  0  0  0  0
    7.9349   -1.1513   23.3101 N   0  0  0  0  0  0  0  0  0  0  0  0
    8.8592   -3.9978   21.8491 H   0  0  0  0  0  0  0  0  0  0  0  0
    8.4349   -3.3071   24.7985 H   0  0  0  0  0  0  0  0  0  0  0  0
    7.2975   -4.1777   23.7818 H   0  0  0  0  0  0  0  0  0  0  0  0
    8.9314   -6.0333   23.4764 H   0  0  0  0  0  0  0  0  0  0  0  0
   10.0783   -5.2210   24.5370 H   0  0  0  0  0  0  0  0  0  0  0  0
    8.8029   -6.9231   25.8347 H   0  0  0  0  0  0  0  0  0  0  0  0
    8.3817   -5.3113   26.4246 H   0  0  0  0  0  0  0  0  0  0  0  0
    7.2757   -6.1728   25.3553 H   0  0  0  0  0  0  0  0  0  0  0  0
  1  2  1  0
  2  3  1  0
  3  4  1  0
  4  5  1  0
  5  6  1  0
  5  7  1  0
  5  8  1  0
  4  9  1  0
  9 10  2  0
 10 11  1  0
 11 12  1  0
 12 13  2  0
 13 14  1  0
 14 15  2  0
 15 16  1  0
 16 17  2  0
 17 18  1  0
 15 19  1  0
 14 20  1  0
 13 21  1  0
 11 22  1  0
 22 23  1  0
 23 24  1  0
 24 25  2  0
 25 26  1  0
 26 27  1  0
 27 28  2  0
 27 29  1  0
 29 30  2  0
 30 31  1  0
 29 32  1  0
 26 33  1  0
 25 34  1  0
 23 35  1  0
 23 36  1  0
 22 37  2  0
  4 38  1  0
  3 39  1  0
  3 40  1  0
  2 41  1  0
  2 42  1  0
  1 43  1  0
  1 44  1  0
  1 45  1  0
 37  9  1  0
 17 12  1  0
 30 24  1  0
M  END
>  <cnnaffinity>  (1) 
-6.19737

>  <filename>  (1) 
CCCC(C)c1nc(Cc2ccc(=O)[nH]c2)n(-c2cccnc2)n1

$$$$
