
     RDKit          3D

 38 38  0  0  0  0  0  0  0  0999 V2000
    5.1242    1.7788   16.9952 H   0  0  0  0  0  0  0  0  0  0  0  0
    5.5315    1.2789   17.8701 C   0  0  0  0  0  0  0  0  0  0  0  0
    6.6798    0.6107   17.6803 N   0  0  0  0  0  0  0  0  0  0  0  0
    7.1934   -0.0402   18.7194 C   0  0  0  0  0  0  0  0  0  0  0  0
    8.1278   -0.5760   18.5446 H   0  0  0  0  0  0  0  0  0  0  0  0
    6.5820   -0.0300   19.9653 C   0  0  0  0  0  0  0  0  0  0  0  0
    7.4461   -0.8920   21.2010 S   0  0  0  0  0  0  0  0  0  0  0  0
    8.2281   -1.9199   20.5207 O   0  0  0  0  0  0  0  0  0  0  0  0
    6.4886   -1.2685   22.2384 O   0  0  0  0  0  0  0  0  0  0  0  0
    8.6782    0.3611   21.9173 C   0  0  0  0  0  0  0  0  0  0  0  0
    9.8600    0.5303   20.9448 C   0  0  0  0  0  0  0  0  0  0  0  0
   10.6116    1.2088   21.3735 H   0  0  0  0  0  0  0  0  0  0  0  0
    9.5340    0.9483   19.9906 H   0  0  0  0  0  0  0  0  0  0  0  0
   10.3493   -0.4253   20.7313 H   0  0  0  0  0  0  0  0  0  0  0  0
    8.0182    1.7272   22.2108 C   0  0  0  0  0  0  0  0  0  0  0  0
    8.7432    2.3666   22.7361 H   0  0  0  0  0  0  0  0  0  0  0  0
    7.7202    2.2655   21.3025 H   0  0  0  0  0  0  0  0  0  0  0  0
    7.1401    1.6295   22.8602 H   0  0  0  0  0  0  0  0  0  0  0  0
    9.1431   -0.2787   23.2467 C   0  0  0  0  0  0  0  0  0  0  0  0
    8.2708   -0.3343   23.9133 H   0  0  0  0  0  0  0  0  0  0  0  0
    9.8514    0.4109   23.7410 H   0  0  0  0  0  0  0  0  0  0  0  0
    9.7685   -1.6755   23.1407 C   0  0  0  0  0  0  0  0  0  0  0  0
   10.6720   -1.6408   22.5128 H   0  0  0  0  0  0  0  0  0  0  0  0
    9.0777   -2.3575   22.6335 H   0  0  0  0  0  0  0  0  0  0  0  0
   10.1258   -2.2067   24.5240 C   0  0  0  0  0  0  0  0  0  0  0  0
   10.8812   -1.5264   24.9315 H   0  0  0  0  0  0  0  0  0  0  0  0
    9.2455   -2.1276   25.1800 H   0  0  0  0  0  0  0  0  0  0  0  0
   10.6705   -3.6380   24.5900 C   0  0  0  0  0  0  0  0  0  0  0  0
   11.1288   -3.7915   25.5713 H   0  0  0  0  0  0  0  0  0  0  0  0
   11.4704   -3.7539   23.8477 H   0  0  0  0  0  0  0  0  0  0  0  0
    9.6413   -4.7540   24.4236 C   0  0  0  0  0  0  0  0  0  0  0  0
   10.1079   -5.7381   24.5494 H   0  0  0  0  0  0  0  0  0  0  0  0
    8.8596   -4.6622   25.1886 H   0  0  0  0  0  0  0  0  0  0  0  0
    9.1763   -4.7563   23.4322 H   0  0  0  0  0  0  0  0  0  0  0  0
    5.3849    0.6566   20.1940 C   0  0  0  0  0  0  0  0  0  0  0  0
    4.8888    0.6924   21.1701 H   0  0  0  0  0  0  0  0  0  0  0  0
    4.8547    1.3240   19.0936 C   0  0  0  0  0  0  0  0  0  0  0  0
    3.9312    1.8891   19.1613 H   0  0  0  0  0  0  0  0  0  0  0  0
  1  2  1  0
  2  3  2  0
  3  4  1  0
  4  5  1  0
  4  6  2  0
  6  7  1  0
  7  8  2  0
  7  9  2  0
  7 10  1  0
 10 11  1  0
 11 12  1  0
 11 13  1  0
 11 14  1  0
 10 15  1  0
 15 16  1  0
 15 17  1  0
 15 18  1  0
 10 19  1  0
 19 20  1  0
 19 21  1  0
 19 22  1  0
 22 23  1  0
 22 24  1  0
 22 25  1  0
 25 26  1  0
 25 27  1  0
 25 28  1  0
 28 29  1  0
 28 30  1  0
 28 31  1  0
 31 32  1  0
 31 33  1  0
 31 34  1  0
  6 35  1  0
 35 36  1  0
 35 37  2  0
 37 38  1  0
 37  2  1  0
M  END
>  <cnnaffinity>  (1) 
-5.14148

>  <filename>  (1) 
CCCCCC(C)(C)S(=O)(=O)c1cccnc1

$$$$
