
     RDKit          3D

 39 40  0  0  0  0  0  0  0  0999 V2000
    4.9673    1.8589   16.9349 H   0  0  0  0  0  0  0  0  0  0  0  0
    5.4036    1.3250   17.7766 C   0  0  0  0  0  0  0  0  0  0  0  0
    6.5668    0.7013   17.5374 N   0  0  0  0  0  0  0  0  0  0  0  0
    7.1460    0.0695   18.5641 C   0  0  0  0  0  0  0  0  0  0  0  0
    8.0828   -0.4407   18.3416 H   0  0  0  0  0  0  0  0  0  0  0  0
    6.6174    0.0174   19.8632 C   0  0  0  0  0  0  0  0  0  0  0  0
    7.4140   -0.6377   20.9741 C   0  0  0  0  0  0  0  0  0  0  0  0
    7.6499   -1.6732   20.7089 H   0  0  0  0  0  0  0  0  0  0  0  0
    6.8018   -0.6711   21.8828 H   0  0  0  0  0  0  0  0  0  0  0  0
    8.6713    0.0418   21.2845 N   0  0  0  0  0  0  0  0  0  0  0  0
    9.9323   -0.3754   20.9499 C   0  0  0  0  0  0  0  0  0  0  0  0
   10.1039   -1.3375   20.4825 H   0  0  0  0  0  0  0  0  0  0  0  0
   10.8505    0.4984   21.2840 N   0  0  0  0  0  0  0  0  0  0  0  0
   10.1657    1.5330   21.8613 C   0  0  0  0  0  0  0  0  0  0  0  0
   10.6958    2.3747   22.2937 H   0  0  0  0  0  0  0  0  0  0  0  0
    8.8122    1.2761   21.8917 C   0  0  0  0  0  0  0  0  0  0  0  0
    7.7032    1.9152   22.6682 C   0  0  0  0  0  0  0  0  0  0  0  0
    7.9307    2.9778   22.8006 H   0  0  0  0  0  0  0  0  0  0  0  0
    6.7709    1.8774   22.0922 H   0  0  0  0  0  0  0  0  0  0  0  0
    7.4896    1.2294   24.0351 C   0  0  0  0  0  0  0  0  0  0  0  0
    6.6228    1.6759   24.5383 H   0  0  0  0  0  0  0  0  0  0  0  0
    7.2211    0.1832   23.8395 H   0  0  0  0  0  0  0  0  0  0  0  0
    8.7118    1.2830   24.9641 C   0  0  0  0  0  0  0  0  0  0  0  0
    8.8920    2.3276   25.2502 H   0  0  0  0  0  0  0  0  0  0  0  0
    9.6109    0.9643   24.4171 H   0  0  0  0  0  0  0  0  0  0  0  0
    8.5827    0.4400   26.2352 C   0  0  0  0  0  0  0  0  0  0  0  0
    9.4709    0.6101   26.8625 H   0  0  0  0  0  0  0  0  0  0  0  0
    7.7123    0.7868   26.8139 H   0  0  0  0  0  0  0  0  0  0  0  0
    8.4562   -1.0733   26.0133 C   0  0  0  0  0  0  0  0  0  0  0  0
    9.3789   -1.4678   25.5651 H   0  0  0  0  0  0  0  0  0  0  0  0
    7.6563   -1.2967   25.2950 H   0  0  0  0  0  0  0  0  0  0  0  0
    8.1740   -1.8157   27.3172 C   0  0  0  0  0  0  0  0  0  0  0  0
    8.8985   -1.5179   28.0836 H   0  0  0  0  0  0  0  0  0  0  0  0
    7.1685   -1.5803   27.6895 H   0  0  0  0  0  0  0  0  0  0  0  0
    8.2282   -2.9025   27.1977 H   0  0  0  0  0  0  0  0  0  0  0  0
    5.3772    0.6323   20.0770 C   0  0  0  0  0  0  0  0  0  0  0  0
    4.9011    0.5944   21.0601 H   0  0  0  0  0  0  0  0  0  0  0  0
    4.7600    1.3065   19.0180 C   0  0  0  0  0  0  0  0  0  0  0  0
    3.8212    1.8346   19.1500 H   0  0  0  0  0  0  0  0  0  0  0  0
  1  2  1  0
  2  3  2  0
  3  4  1  0
  4  5  1  0
  4  6  2  0
  6  7  1  0
  7  8  1  0
  7  9  1  0
  7 10  1  0
 10 11  1  0
 11 12  1  0
 11 13  2  0
 13 14  1  0
 14 15  1  0
 14 16  2  0
 16 17  1  0
 17 18  1  0
 17 19  1  0
 17 20  1  0
 20 21  1  0
 20 22  1  0
 20 23  1  0
 23 24  1  0
 23 25  1  0
 23 26  1  0
 26 27  1  0
 26 28  1  0
 26 29  1  0
 29 30  1  0
 29 31  1  0
 29 32  1  0
 32 33  1  0
 32 34  1  0
 32 35  1  0
  6 36  1  0
 36 37  1  0
 36 38  2  0
 38 39  1  0
 38  2  1  0
 16 10  1  0
M  END
>  <cnnaffinity>  (1) 
-5.15885

>  <filename>  (1) 
CCCCCCc1cncn1Cc1cccnc1

$$$$
