
     RDKit          3D

 42 44  0  0  0  0  0  0  0  0999 V2000
    6.7606   -2.9897   26.1849 C   0  0  0  0  0  0  0  0  0  0  0  0
    7.0613   -2.0737   25.0050 C   0  0  0  0  0  0  0  0  0  0  0  0
    7.3996   -2.8550   23.7226 C   0  0  0  0  0  0  0  0  0  0  0  0
    7.6672   -1.9644   22.5602 C   0  0  0  0  0  0  0  0  0  0  0  0
    6.7358   -1.6082   21.7023 N   0  0  0  0  0  0  0  0  0  0  0  0
    7.3593   -0.6736   20.9389 N   0  0  0  0  0  0  0  0  0  0  0  0
    6.6568   -0.0002   19.9012 C   0  0  0  0  0  0  0  0  0  0  0  0
    5.4408    0.6408   20.1654 C   0  0  0  0  0  0  0  0  0  0  0  0
    4.8135    1.3093   19.1099 C   0  0  0  0  0  0  0  0  0  0  0  0
    5.3988    1.2962   17.8382 C   0  0  0  0  0  0  0  0  0  0  0  0
    6.5567    0.6700   17.5754 N   0  0  0  0  0  0  0  0  0  0  0  0
    7.1650    0.0465   18.5907 C   0  0  0  0  0  0  0  0  0  0  0  0
    8.1116   -0.4363   18.3634 H   0  0  0  0  0  0  0  0  0  0  0  0
    4.9226    1.7880   16.9931 H   0  0  0  0  0  0  0  0  0  0  0  0
    3.8830    1.8388   19.2606 H   0  0  0  0  0  0  0  0  0  0  0  0
    5.0268    0.6131   21.1769 H   0  0  0  0  0  0  0  0  0  0  0  0
    8.6359   -0.5105   21.4002 C   0  0  0  0  0  0  0  0  0  0  0  0
    9.5236    0.6047   20.9508 C   0  0  0  0  0  0  0  0  0  0  0  0
    9.1039    1.9881   21.5270 C   0  0  0  0  0  0  0  0  0  0  0  0
    9.1074    1.9858   23.0402 C   0  0  0  0  0  0  0  0  0  0  0  0
    7.9616    1.7519   23.8097 C   0  0  0  0  0  0  0  0  0  0  0  0
    6.7803    1.6186   23.1810 F   0  0  0  0  0  0  0  0  0  0  0  0
    7.9673    1.6536   25.1955 C   0  0  0  0  0  0  0  0  0  0  0  0
    9.1838    1.7711   25.8642 C   0  0  0  0  0  0  0  0  0  0  0  0
   10.3718    1.9641   25.1548 C   0  0  0  0  0  0  0  0  0  0  0  0
   10.2986    2.0626   23.7706 C   0  0  0  0  0  0  0  0  0  0  0  0
   11.4466    2.2416   23.0865 F   0  0  0  0  0  0  0  0  0  0  0  0
   11.3465    2.0322   25.6174 H   0  0  0  0  0  0  0  0  0  0  0  0
    9.1723    1.6968   26.9406 H   0  0  0  0  0  0  0  0  0  0  0  0
    7.0354    1.4664   25.7173 H   0  0  0  0  0  0  0  0  0  0  0  0
    9.7945    2.7569   21.1619 H   0  0  0  0  0  0  0  0  0  0  0  0
    8.1010    2.2492   21.1677 H   0  0  0  0  0  0  0  0  0  0  0  0
    9.5348    0.6546   19.8600 H   0  0  0  0  0  0  0  0  0  0  0  0
   10.5399    0.3605   21.2700 H   0  0  0  0  0  0  0  0  0  0  0  0
    8.8708   -1.3496   22.3902 N   0  0  0  0  0  0  0  0  0  0  0  0
    8.2968   -3.4572   23.8808 H   0  0  0  0  0  0  0  0  0  0  0  0
    6.5802   -3.5241   23.4534 H   0  0  0  0  0  0  0  0  0  0  0  0
    7.9032   -1.4137   25.2510 H   0  0  0  0  0  0  0  0  0  0  0  0
    6.2010   -1.4175   24.8122 H   0  0  0  0  0  0  0  0  0  0  0  0
    7.6192   -3.6301   26.4190 H   0  0  0  0  0  0  0  0  0  0  0  0
    5.9098   -3.6469   25.9693 H   0  0  0  0  0  0  0  0  0  0  0  0
    6.5191   -2.4160   27.0856 H   0  0  0  0  0  0  0  0  0  0  0  0
  1  2  1  0
  2  3  1  0
  3  4  1  0
  4  5  2  0
  5  6  1  0
  6  7  1  0
  7  8  2  0
  8  9  1  0
  9 10  2  0
 10 11  1  0
 11 12  2  0
 12 13  1  0
 10 14  1  0
  9 15  1  0
  8 16  1  0
  6 17  1  0
 17 18  1  0
 18 19  1  0
 19 20  1  0
 20 21  2  0
 21 22  1  0
 21 23  1  0
 23 24  2  0
 24 25  1  0
 25 26  2  0
 26 27  1  0
 25 28  1  0
 24 29  1  0
 23 30  1  0
 19 31  1  0
 19 32  1  0
 18 33  1  0
 18 34  1  0
 17 35  2  0
  3 36  1  0
  3 37  1  0
  2 38  1  0
  2 39  1  0
  1 40  1  0
  1 41  1  0
  1 42  1  0
 35  4  1  0
 12  7  1  0
 26 20  1  0
M  END
>  <cnnaffinity>  (1) 
-6.02019

>  <filename>  (1) 
CCCc1nc(CCc2c(F)cccc2F)n(-c2cccnc2)n1

$$$$
