
     RDKit          3D

 44 46  0  0  0  0  0  0  0  0999 V2000
    8.3973    0.6988   25.0186 C   0  0  0  0  0  0  0  0  0  0  0  0
    9.7873    0.1130   25.2770 C   0  0  0  0  0  0  0  0  0  0  0  0
   10.1299   -1.1880   24.5438 C   0  0  0  0  0  0  0  0  0  0  0  0
   10.3196   -1.0839   23.0202 C   0  0  0  0  0  0  0  0  0  0  0  0
   10.9563   -2.3672   22.4390 C   0  0  0  0  0  0  0  0  0  0  0  0
   11.9538   -2.5579   22.8454 H   0  0  0  0  0  0  0  0  0  0  0  0
   10.3326   -3.2468   22.6510 H   0  0  0  0  0  0  0  0  0  0  0  0
   11.0621   -2.2665   21.3545 H   0  0  0  0  0  0  0  0  0  0  0  0
    9.0000   -0.8398   22.3433 C   0  0  0  0  0  0  0  0  0  0  0  0
    8.8231   -0.0505   21.2993 N   0  0  0  0  0  0  0  0  0  0  0  0
    7.5161   -0.2733   20.9773 N   0  0  0  0  0  0  0  0  0  0  0  0
    6.8701    0.3914   19.8981 C   0  0  0  0  0  0  0  0  0  0  0  0
    5.6390    1.0432   20.0657 C   0  0  0  0  0  0  0  0  0  0  0  0
    4.9796    1.5149   18.9269 C   0  0  0  0  0  0  0  0  0  0  0  0
    5.5837    1.3499   17.6789 C   0  0  0  0  0  0  0  0  0  0  0  0
    6.7999    0.7955   17.5249 N   0  0  0  0  0  0  0  0  0  0  0  0
    7.4340    0.3525   18.6140 C   0  0  0  0  0  0  0  0  0  0  0  0
    8.4229   -0.0799   18.4707 H   0  0  0  0  0  0  0  0  0  0  0  0
    5.0765    1.6585   16.7682 H   0  0  0  0  0  0  0  0  0  0  0  0
    4.0114    1.9989   18.9992 H   0  0  0  0  0  0  0  0  0  0  0  0
    5.2205    1.1893   21.0610 H   0  0  0  0  0  0  0  0  0  0  0  0
    7.0177   -1.2337   21.7986 C   0  0  0  0  0  0  0  0  0  0  0  0
    5.7317   -1.9433   21.5482 C   0  0  0  0  0  0  0  0  0  0  0  0
    5.7704   -2.9076   20.3978 C   0  0  0  0  0  0  0  0  0  0  0  0
    5.3716   -2.7112   19.1217 C   0  0  0  0  0  0  0  0  0  0  0  0
    5.4227   -3.8455   18.4413 O   0  0  0  0  0  0  0  0  0  0  0  0
    5.9145   -4.8471   19.2502 N   0  0  0  0  0  0  0  0  0  0  0  0
    6.1807   -4.2796   20.3960 C   0  0  0  0  0  0  0  0  0  0  0  0
    6.8558   -5.0271   21.4913 C   0  0  0  0  0  0  0  0  0  0  0  0
    6.9994   -6.0801   21.2343 H   0  0  0  0  0  0  0  0  0  0  0  0
    6.2686   -4.9489   22.4072 H   0  0  0  0  0  0  0  0  0  0  0  0
    7.8359   -4.5740   21.6852 H   0  0  0  0  0  0  0  0  0  0  0  0
    5.0418   -1.8548   18.5464 H   0  0  0  0  0  0  0  0  0  0  0  0
    4.9655   -1.1985   21.3341 H   0  0  0  0  0  0  0  0  0  0  0  0
    5.4670   -2.4646   22.4729 H   0  0  0  0  0  0  0  0  0  0  0  0
    7.9157   -1.5898   22.6849 N   0  0  0  0  0  0  0  0  0  0  0  0
   10.9662   -0.2348   22.7652 H   0  0  0  0  0  0  0  0  0  0  0  0
   11.0644   -1.5492   24.9608 H   0  0  0  0  0  0  0  0  0  0  0  0
    9.3646   -1.9517   24.7564 H   0  0  0  0  0  0  0  0  0  0  0  0
   10.5511    0.8678   25.0383 H   0  0  0  0  0  0  0  0  0  0  0  0
    9.8925   -0.0842   26.3530 H   0  0  0  0  0  0  0  0  0  0  0  0
    8.2226    1.5498   25.6875 H   0  0  0  0  0  0  0  0  0  0  0  0
    8.2835    1.0671   23.9932 H   0  0  0  0  0  0  0  0  0  0  0  0
    7.6142   -0.0523   25.1860 H   0  0  0  0  0  0  0  0  0  0  0  0
  1  2  1  0
  2  3  1  0
  3  4  1  0
  4  5  1  0
  5  6  1  0
  5  7  1  0
  5  8  1  0
  4  9  1  0
  9 10  2  0
 10 11  1  0
 11 12  1  0
 12 13  2  0
 13 14  1  0
 14 15  2  0
 15 16  1  0
 16 17  2  0
 17 18  1  0
 15 19  1  0
 14 20  1  0
 13 21  1  0
 11 22  1  0
 22 23  1  0
 23 24  1  0
 24 25  2  0
 25 26  1  0
 26 27  1  0
 27 28  2  0
 28 29  1  0
 29 30  1  0
 29 31  1  0
 29 32  1  0
 25 33  1  0
 23 34  1  0
 23 35  1  0
 22 36  2  0
  4 37  1  0
  3 38  1  0
  3 39  1  0
  2 40  1  0
  2 41  1  0
  1 42  1  0
  1 43  1  0
  1 44  1  0
 36  9  1  0
 17 12  1  0
 28 24  1  0
M  END
>  <cnnaffinity>  (1) 
-5.76141

>  <filename>  (1) 
CCCC(C)c1nc(Cc2conc2C)n(-c2cccnc2)n1

$$$$
