
     RDKit          3D

 41 43  0  0  0  0  0  0  0  0999 V2000
    6.7622   -4.7642   22.6481 C   0  0  0  0  0  0  0  0  0  0  0  0
    8.0942   -4.3389   23.2652 C   0  0  0  0  0  0  0  0  0  0  0  0
    8.8825   -3.4757   22.2687 C   0  0  0  0  0  0  0  0  0  0  0  0
    8.2816   -2.1373   21.9924 C   0  0  0  0  0  0  0  0  0  0  0  0
    7.7930   -1.8388   20.8083 N   0  0  0  0  0  0  0  0  0  0  0  0
    7.3627   -0.5612   20.9679 N   0  0  0  0  0  0  0  0  0  0  0  0
    6.6463    0.0657   19.9165 C   0  0  0  0  0  0  0  0  0  0  0  0
    5.4239    0.6993   20.1505 C   0  0  0  0  0  0  0  0  0  0  0  0
    4.8007    1.3279   19.0708 C   0  0  0  0  0  0  0  0  0  0  0  0
    5.4137    1.2942   17.8141 C   0  0  0  0  0  0  0  0  0  0  0  0
    6.5621    0.6356   17.5741 N   0  0  0  0  0  0  0  0  0  0  0  0
    7.1510    0.0167   18.6039 C   0  0  0  0  0  0  0  0  0  0  0  0
    8.0572   -0.5466   18.3851 H   0  0  0  0  0  0  0  0  0  0  0  0
    4.9683    1.8112   16.9677 H   0  0  0  0  0  0  0  0  0  0  0  0
    3.8649    1.8527   19.2047 H   0  0  0  0  0  0  0  0  0  0  0  0
    4.9692    0.6700   21.1436 H   0  0  0  0  0  0  0  0  0  0  0  0
    7.6700   -0.1385   22.2274 C   0  0  0  0  0  0  0  0  0  0  0  0
    7.5977    1.2971   22.6582 C   0  0  0  0  0  0  0  0  0  0  0  0
    8.5311    2.2509   21.8532 C   0  0  0  0  0  0  0  0  0  0  0  0
    9.9768    1.8538   21.9606 C   0  0  0  0  0  0  0  0  0  0  0  0
   10.5565    0.8447   21.2646 C   0  0  0  0  0  0  0  0  0  0  0  0
   11.8242    0.4717   21.6091 N   0  0  0  0  0  0  0  0  0  0  0  0
   12.2646    1.2067   22.5816 C   0  0  0  0  0  0  0  0  0  0  0  0
   13.6474    1.0549   23.1243 C   0  0  0  0  0  0  0  0  0  0  0  0
   14.2608    1.8980   22.7916 H   0  0  0  0  0  0  0  0  0  0  0  0
   14.0703    0.1394   22.7078 H   0  0  0  0  0  0  0  0  0  0  0  0
   13.6840    1.0084   24.2156 H   0  0  0  0  0  0  0  0  0  0  0  0
   11.1339    2.4118   23.1369 S   0  0  0  0  0  0  0  0  0  0  0  0
   10.0570    0.3084   20.4759 H   0  0  0  0  0  0  0  0  0  0  0  0
    8.3646    3.2800   22.1836 H   0  0  0  0  0  0  0  0  0  0  0  0
    8.2514    2.2310   20.7906 H   0  0  0  0  0  0  0  0  0  0  0  0
    6.5672    1.6531   22.5880 H   0  0  0  0  0  0  0  0  0  0  0  0
    7.8594    1.3408   23.7185 H   0  0  0  0  0  0  0  0  0  0  0  0
    8.2259   -1.1294   22.9060 N   0  0  0  0  0  0  0  0  0  0  0  0
    9.9211   -3.3334   22.5867 H   0  0  0  0  0  0  0  0  0  0  0  0
    8.8653   -3.9765   21.3026 H   0  0  0  0  0  0  0  0  0  0  0  0
    7.9408   -3.7794   24.1994 H   0  0  0  0  0  0  0  0  0  0  0  0
    8.6917   -5.2255   23.5139 H   0  0  0  0  0  0  0  0  0  0  0  0
    6.1583   -3.8927   22.3671 H   0  0  0  0  0  0  0  0  0  0  0  0
    6.9408   -5.3485   21.7344 H   0  0  0  0  0  0  0  0  0  0  0  0
    6.1633   -5.3819   23.3240 H   0  0  0  0  0  0  0  0  0  0  0  0
  1  2  1  0
  2  3  1  0
  3  4  1  0
  4  5  2  0
  5  6  1  0
  6  7  1  0
  7  8  2  0
  8  9  1  0
  9 10  2  0
 10 11  1  0
 11 12  2  0
 12 13  1  0
 10 14  1  0
  9 15  1  0
  8 16  1  0
  6 17  1  0
 17 18  1  0
 18 19  1  0
 19 20  1  0
 20 21  2  0
 21 22  1  0
 22 23  2  0
 23 24  1  0
 24 25  1  0
 24 26  1  0
 24 27  1  0
 23 28  1  0
 21 29  1  0
 19 30  1  0
 19 31  1  0
 18 32  1  0
 18 33  1  0
 17 34  2  0
  3 35  1  0
  3 36  1  0
  2 37  1  0
  2 38  1  0
  1 39  1  0
  1 40  1  0
  1 41  1  0
 34  4  1  0
 12  7  1  0
 28 20  1  0
M  END
>  <cnnaffinity>  (1) 
-5.47242

>  <filename>  (1) 
CCCc1nc(CCc2cnc(C)s2)n(-c2cccnc2)n1

$$$$
