
     RDKit          3D

 39 41  0  0  0  0  0  0  0  0999 V2000
    7.2872   -1.3395   25.5117 C   0  0  0  0  0  0  0  0  0  0  0  0
    6.5367   -2.5327   24.9013 C   0  0  0  0  0  0  0  0  0  0  0  0
    7.2715   -3.2290   23.7232 C   0  0  0  0  0  0  0  0  0  0  0  0
    7.6177   -2.2630   22.6350 C   0  0  0  0  0  0  0  0  0  0  0  0
    6.8242   -1.9745   21.6272 N   0  0  0  0  0  0  0  0  0  0  0  0
    7.4185   -0.8830   21.0624 N   0  0  0  0  0  0  0  0  0  0  0  0
    6.7433   -0.2440   19.9689 C   0  0  0  0  0  0  0  0  0  0  0  0
    5.5209    0.3893   20.1974 C   0  0  0  0  0  0  0  0  0  0  0  0
    4.9282    1.0815   19.1396 C   0  0  0  0  0  0  0  0  0  0  0  0
    5.5305    1.0487   17.8767 C   0  0  0  0  0  0  0  0  0  0  0  0
    6.6481    0.3544   17.6266 N   0  0  0  0  0  0  0  0  0  0  0  0
    7.2320   -0.2870   18.6502 C   0  0  0  0  0  0  0  0  0  0  0  0
    8.1157   -0.8719   18.4068 H   0  0  0  0  0  0  0  0  0  0  0  0
    5.0914    1.5927   17.0416 H   0  0  0  0  0  0  0  0  0  0  0  0
    4.0243    1.6590   19.2832 H   0  0  0  0  0  0  0  0  0  0  0  0
    5.0696    0.3634   21.1900 H   0  0  0  0  0  0  0  0  0  0  0  0
    8.5294   -0.5670   21.7992 C   0  0  0  0  0  0  0  0  0  0  0  0
    9.3980    0.6514   21.7476 C   0  0  0  0  0  0  0  0  0  0  0  0
    8.8957    1.7735   22.6526 C   0  0  0  0  0  0  0  0  0  0  0  0
    9.2855    1.8943   23.9963 C   0  0  0  0  0  0  0  0  0  0  0  0
    8.8784    2.9876   24.7669 C   0  0  0  0  0  0  0  0  0  0  0  0
    8.0170    3.9479   24.2246 C   0  0  0  0  0  0  0  0  0  0  0  0
    7.5499    3.8019   22.9148 C   0  0  0  0  0  0  0  0  0  0  0  0
    6.4654    4.9622   22.2235 Cl  0  0  0  0  0  0  0  0  0  0  0  0
    7.9732    2.7031   22.1632 C   0  0  0  0  0  0  0  0  0  0  0  0
    7.4384    2.4836   20.9552 F   0  0  0  0  0  0  0  0  0  0  0  0
    7.7111    4.7986   24.8176 H   0  0  0  0  0  0  0  0  0  0  0  0
    9.2282    3.0854   25.7903 H   0  0  0  0  0  0  0  0  0  0  0  0
    9.9095    1.1189   24.4325 H   0  0  0  0  0  0  0  0  0  0  0  0
    9.5199    0.9823   20.7137 H   0  0  0  0  0  0  0  0  0  0  0  0
   10.3813    0.3146   22.0935 H   0  0  0  0  0  0  0  0  0  0  0  0
    8.7034   -1.4575   22.7519 N   0  0  0  0  0  0  0  0  0  0  0  0
    8.2175   -3.6518   24.0735 H   0  0  0  0  0  0  0  0  0  0  0  0
    6.6652   -4.0451   23.3135 H   0  0  0  0  0  0  0  0  0  0  0  0
    6.3492   -3.2830   25.6822 H   0  0  0  0  0  0  0  0  0  0  0  0
    5.5539   -2.1890   24.5511 H   0  0  0  0  0  0  0  0  0  0  0  0
    7.4436   -0.5349   24.7824 H   0  0  0  0  0  0  0  0  0  0  0  0
    6.7283   -0.9182   26.3553 H   0  0  0  0  0  0  0  0  0  0  0  0
    8.2777   -1.6330   25.8765 H   0  0  0  0  0  0  0  0  0  0  0  0
  1  2  1  0
  2  3  1  0
  3  4  1  0
  4  5  2  0
  5  6  1  0
  6  7  1  0
  7  8  2  0
  8  9  1  0
  9 10  2  0
 10 11  1  0
 11 12  2  0
 12 13  1  0
 10 14  1  0
  9 15  1  0
  8 16  1  0
  6 17  1  0
 17 18  1  0
 18 19  1  0
 19 20  2  0
 20 21  1  0
 21 22  2  0
 22 23  1  0
 23 24  1  0
 23 25  2  0
 25 26  1  0
 22 27  1  0
 21 28  1  0
 20 29  1  0
 18 30  1  0
 18 31  1  0
 17 32  2  0
  3 33  1  0
  3 34  1  0
  2 35  1  0
  2 36  1  0
  1 37  1  0
  1 38  1  0
  1 39  1  0
 32  4  1  0
 12  7  1  0
 25 19  1  0
M  END
>  <cnnaffinity>  (1) 
-5.78915

>  <filename>  (1) 
CCCc1nc(Cc2cccc(Cl)c2F)n(-c2cccnc2)n1

$$$$
