
     RDKit          3D

 43 44  0  0  0  0  0  0  0  0999 V2000
    8.6491   -1.7746   19.8371 H   0  0  0  0  0  0  0  0  0  0  0  0
    8.3206   -1.5510   20.8493 C   0  0  0  0  0  0  0  0  0  0  0  0
    8.9175   -2.2594   21.8224 N   0  0  0  0  0  0  0  0  0  0  0  0
    8.5918   -1.9181   23.0791 C   0  0  0  0  0  0  0  0  0  0  0  0
    9.0599   -2.4839   23.8889 H   0  0  0  0  0  0  0  0  0  0  0  0
    7.7003   -0.8517   23.3589 C   0  0  0  0  0  0  0  0  0  0  0  0
    7.6056   -0.3212   24.7609 C   0  0  0  0  0  0  0  0  0  0  0  0
    6.6840    0.2652   24.8645 H   0  0  0  0  0  0  0  0  0  0  0  0
    7.5595   -1.1635   25.4623 H   0  0  0  0  0  0  0  0  0  0  0  0
    8.8404    0.5334   25.0982 C   0  0  0  0  0  0  0  0  0  0  0  0
    9.7512   -0.0766   24.9741 H   0  0  0  0  0  0  0  0  0  0  0  0
    8.7986    0.7980   26.1653 H   0  0  0  0  0  0  0  0  0  0  0  0
    8.9911    1.8083   24.2533 C   0  0  0  0  0  0  0  0  0  0  0  0
    9.2591    1.5559   23.2160 H   0  0  0  0  0  0  0  0  0  0  0  0
    8.0309    2.3494   24.1972 H   0  0  0  0  0  0  0  0  0  0  0  0
   10.0681    2.6977   24.8701 C   0  0  0  0  0  0  0  0  0  0  0  0
    9.8203    2.7911   25.9352 H   0  0  0  0  0  0  0  0  0  0  0  0
   11.0297    2.1615   24.8178 H   0  0  0  0  0  0  0  0  0  0  0  0
   10.2296    4.1079   24.2885 C   0  0  0  0  0  0  0  0  0  0  0  0
    9.3780    4.7269   24.6058 H   0  0  0  0  0  0  0  0  0  0  0  0
   11.1247    4.5761   24.7279 H   0  0  0  0  0  0  0  0  0  0  0  0
   10.3344    4.1577   22.7607 C   0  0  0  0  0  0  0  0  0  0  0  0
    9.3985    3.7752   22.3306 H   0  0  0  0  0  0  0  0  0  0  0  0
   10.4042    5.2115   22.4549 H   0  0  0  0  0  0  0  0  0  0  0  0
   11.5332    3.3969   22.1787 C   0  0  0  0  0  0  0  0  0  0  0  0
   11.3807    3.2172   21.1088 H   0  0  0  0  0  0  0  0  0  0  0  0
   11.5947    2.4003   22.6314 H   0  0  0  0  0  0  0  0  0  0  0  0
   12.8493    4.1394   22.3847 C   0  0  0  0  0  0  0  0  0  0  0  0
   13.6778    3.6630   21.8606 H   0  0  0  0  0  0  0  0  0  0  0  0
   13.1193    4.2066   23.4418 H   0  0  0  0  0  0  0  0  0  0  0  0
   12.7803    5.1648   22.0103 H   0  0  0  0  0  0  0  0  0  0  0  0
    7.0330   -0.2197   22.3733 N   0  0  0  0  0  0  0  0  0  0  0  0
    7.3302   -0.5668   21.1028 C   0  0  0  0  0  0  0  0  0  0  0  0
    6.6002    0.1415   20.0115 C   0  0  0  0  0  0  0  0  0  0  0  0
    7.1638    0.1653   18.7241 C   0  0  0  0  0  0  0  0  0  0  0  0
    8.1346   -0.2923   18.5374 H   0  0  0  0  0  0  0  0  0  0  0  0
    6.5960    0.7274   17.6573 N   0  0  0  0  0  0  0  0  0  0  0  0
    5.4061    1.3144   17.8392 C   0  0  0  0  0  0  0  0  0  0  0  0
    4.9527    1.7495   16.9523 H   0  0  0  0  0  0  0  0  0  0  0  0
    4.7546    1.3730   19.0765 C   0  0  0  0  0  0  0  0  0  0  0  0
    3.7955    1.8787   19.1493 H   0  0  0  0  0  0  0  0  0  0  0  0
    5.3646    0.7942   20.1904 C   0  0  0  0  0  0  0  0  0  0  0  0
    4.9001    0.8581   21.1776 H   0  0  0  0  0  0  0  0  0  0  0  0
  1  2  1  0
  2  3  2  0
  3  4  1  0
  4  5  1  0
  4  6  2  0
  6  7  1  0
  7  8  1  0
  7  9  1  0
  7 10  1  0
 10 11  1  0
 10 12  1  0
 10 13  1  0
 13 14  1  0
 13 15  1  0
 13 16  1  0
 16 17  1  0
 16 18  1  0
 16 19  1  0
 19 20  1  0
 19 21  1  0
 19 22  1  0
 22 23  1  0
 22 24  1  0
 22 25  1  0
 25 26  1  0
 25 27  1  0
 25 28  1  0
 28 29  1  0
 28 30  1  0
 28 31  1  0
  6 32  1  0
 32 33  2  0
 33 34  1  0
 34 35  2  0
 35 36  1  0
 35 37  1  0
 37 38  2  0
 38 39  1  0
 38 40  1  0
 40 41  1  0
 40 42  2  0
 42 43  1  0
 33  2  1  0
 42 34  1  0
M  END
>  <cnnaffinity>  (1) 
-5.53646

>  <filename>  (1) 
CCCCCCCCc1cncc(-c2cccnc2)n1

$$$$
