
     RDKit          3D

 42 43  0  0  0  0  0  0  0  0999 V2000
    4.9587    1.7878   17.0139 H   0  0  0  0  0  0  0  0  0  0  0  0
    5.4161    1.2803   17.8577 C   0  0  0  0  0  0  0  0  0  0  0  0
    6.5847    0.6617   17.6127 N   0  0  0  0  0  0  0  0  0  0  0  0
    7.1897    0.0593   18.6340 C   0  0  0  0  0  0  0  0  0  0  0  0
    8.1487   -0.4006   18.3983 H   0  0  0  0  0  0  0  0  0  0  0  0
    6.6748    0.0208   19.9389 C   0  0  0  0  0  0  0  0  0  0  0  0
    7.3951   -0.6433   20.9572 N   0  0  0  0  0  0  0  0  0  0  0  0
    7.1149   -0.4414   22.2579 N   0  0  0  0  0  0  0  0  0  0  0  0
    7.9189   -1.2527   22.9283 C   0  0  0  0  0  0  0  0  0  0  0  0
    7.8941   -1.2849   24.4293 C   0  0  0  0  0  0  0  0  0  0  0  0
    8.8110   -1.7630   24.7971 H   0  0  0  0  0  0  0  0  0  0  0  0
    7.9278   -0.2508   24.7897 H   0  0  0  0  0  0  0  0  0  0  0  0
    6.6600   -1.9989   25.0061 C   0  0  0  0  0  0  0  0  0  0  0  0
    5.7633   -1.4871   24.6348 H   0  0  0  0  0  0  0  0  0  0  0  0
    6.6523   -1.8685   26.0963 H   0  0  0  0  0  0  0  0  0  0  0  0
    6.5907   -3.4868   24.6525 C   0  0  0  0  0  0  0  0  0  0  0  0
    7.4626   -3.9989   25.0824 H   0  0  0  0  0  0  0  0  0  0  0  0
    6.6865   -3.6038   23.5661 H   0  0  0  0  0  0  0  0  0  0  0  0
    5.3052   -4.1909   25.1060 C   0  0  0  0  0  0  0  0  0  0  0  0
    5.3335   -5.2380   24.7712 H   0  0  0  0  0  0  0  0  0  0  0  0
    4.4527   -3.7337   24.5860 H   0  0  0  0  0  0  0  0  0  0  0  0
    5.0312   -4.1450   26.6151 C   0  0  0  0  0  0  0  0  0  0  0  0
    4.8559   -3.1022   26.9203 H   0  0  0  0  0  0  0  0  0  0  0  0
    4.0917   -4.6744   26.8271 H   0  0  0  0  0  0  0  0  0  0  0  0
    6.1380   -4.7063   27.5123 C   0  0  0  0  0  0  0  0  0  0  0  0
    5.8397   -4.5292   28.5548 H   0  0  0  0  0  0  0  0  0  0  0  0
    7.0558   -4.1169   27.3778 H   0  0  0  0  0  0  0  0  0  0  0  0
    6.5069   -6.1896   27.3895 C   0  0  0  0  0  0  0  0  0  0  0  0
    5.6013   -6.8111   27.4378 H   0  0  0  0  0  0  0  0  0  0  0  0
    6.9672   -6.4122   26.4138 H   0  0  0  0  0  0  0  0  0  0  0  0
    7.4780   -6.5447   28.5235 C   0  0  0  0  0  0  0  0  0  0  0  0
    8.4604   -6.0851   28.3464 H   0  0  0  0  0  0  0  0  0  0  0  0
    7.0899   -6.1627   29.4785 H   0  0  0  0  0  0  0  0  0  0  0  0
    7.6239   -7.6232   28.6475 H   0  0  0  0  0  0  0  0  0  0  0  0
    8.7221   -2.0127   22.0468 C   0  0  0  0  0  0  0  0  0  0  0  0
    9.4111   -2.7954   22.3294 H   0  0  0  0  0  0  0  0  0  0  0  0
    8.3739   -1.5737   20.7963 C   0  0  0  0  0  0  0  0  0  0  0  0
    8.7561   -1.7845   19.8092 H   0  0  0  0  0  0  0  0  0  0  0  0
    5.4413    0.6512   20.1899 C   0  0  0  0  0  0  0  0  0  0  0  0
    5.0229    0.6468   21.1952 H   0  0  0  0  0  0  0  0  0  0  0  0
    4.8125    1.2893   19.1195 C   0  0  0  0  0  0  0  0  0  0  0  0
    3.8738    1.8165   19.2593 H   0  0  0  0  0  0  0  0  0  0  0  0
  1  2  1  0
  2  3  2  0
  3  4  1  0
  4  5  1  0
  4  6  2  0
  6  7  1  0
  7  8  1  0
  8  9  2  0
  9 10  1  0
 10 11  1  0
 10 12  1  0
 10 13  1  0
 13 14  1  0
 13 15  1  0
 13 16  1  0
 16 17  1  0
 16 18  1  0
 16 19  1  0
 19 20  1  0
 19 21  1  0
 19 22  1  0
 22 23  1  0
 22 24  1  0
 22 25  1  0
 25 26  1  0
 25 27  1  0
 25 28  1  0
 28 29  1  0
 28 30  1  0
 28 31  1  0
 31 32  1  0
 31 33  1  0
 31 34  1  0
  9 35  1  0
 35 36  1  0
 35 37  2  0
 37 38  1  0
  6 39  1  0
 39 40  1  0
 39 41  2  0
 41 42  1  0
 41  2  1  0
 37  7  1  0
M  END
>  <cnnaffinity>  (1) 
-5.19384

>  <filename>  (1) 
CCCCCCCCc1ccn(-c2cccnc2)n1

$$$$
