
     RDKit          3D

 45 47  0  0  0  0  0  0  0  0999 V2000
    7.9018   -5.7444   23.7199 C   0  0  0  0  0  0  0  0  0  0  0  0
    8.0495   -4.5545   22.7768 C   0  0  0  0  0  0  0  0  0  0  0  0
    7.5293   -3.2402   23.3911 C   0  0  0  0  0  0  0  0  0  0  0  0
    7.6919   -2.0791   22.4722 C   0  0  0  0  0  0  0  0  0  0  0  0
    6.7842   -1.7215   21.5912 N   0  0  0  0  0  0  0  0  0  0  0  0
    7.3746   -0.6815   20.9455 N   0  0  0  0  0  0  0  0  0  0  0  0
    6.6724   -0.0276   19.8888 C   0  0  0  0  0  0  0  0  0  0  0  0
    5.4434    0.5924   20.1422 C   0  0  0  0  0  0  0  0  0  0  0  0
    4.8267    1.2796   19.0943 C   0  0  0  0  0  0  0  0  0  0  0  0
    5.4262    1.2834   17.8291 C   0  0  0  0  0  0  0  0  0  0  0  0
    6.5761    0.6424   17.5660 N   0  0  0  0  0  0  0  0  0  0  0  0
    7.1767    0.0025   18.5779 C   0  0  0  0  0  0  0  0  0  0  0  0
    8.0987   -0.5221   18.3330 H   0  0  0  0  0  0  0  0  0  0  0  0
    4.9607    1.8045   16.9950 H   0  0  0  0  0  0  0  0  0  0  0  0
    3.8925    1.8062   19.2480 H   0  0  0  0  0  0  0  0  0  0  0  0
    5.0067    0.5440   21.1412 H   0  0  0  0  0  0  0  0  0  0  0  0
    8.6016   -0.4536   21.5043 C   0  0  0  0  0  0  0  0  0  0  0  0
    9.4566    0.7457   21.2461 C   0  0  0  0  0  0  0  0  0  0  0  0
    8.9098    1.9679   21.9753 C   0  0  0  0  0  0  0  0  0  0  0  0
    7.9010    2.6936   21.3375 C   0  0  0  0  0  0  0  0  0  0  0  0
    7.3996    3.8842   21.8729 C   0  0  0  0  0  0  0  0  0  0  0  0
    7.9178    4.3326   23.0914 C   0  0  0  0  0  0  0  0  0  0  0  0
    8.8650    3.5679   23.7827 C   0  0  0  0  0  0  0  0  0  0  0  0
    9.3331    2.3401   23.2679 C   0  0  0  0  0  0  0  0  0  0  0  0
   10.3338    1.5321   24.0878 C   0  0  0  0  0  0  0  0  0  0  0  0
   11.7603    2.0419   23.8656 C   0  0  0  0  0  0  0  0  0  0  0  0
   12.4872    1.5195   24.4950 H   0  0  0  0  0  0  0  0  0  0  0  0
   11.8196    3.1127   24.0944 H   0  0  0  0  0  0  0  0  0  0  0  0
   12.0446    1.9118   22.8141 H   0  0  0  0  0  0  0  0  0  0  0  0
   10.0764    1.6155   25.1514 H   0  0  0  0  0  0  0  0  0  0  0  0
   10.2674    0.4583   23.8636 H   0  0  0  0  0  0  0  0  0  0  0  0
    9.2385    3.9229   24.7423 H   0  0  0  0  0  0  0  0  0  0  0  0
    7.5617    5.2740   23.4995 H   0  0  0  0  0  0  0  0  0  0  0  0
    6.6317    4.4539   21.3465 H   0  0  0  0  0  0  0  0  0  0  0  0
    7.5275    2.3066   20.3948 H   0  0  0  0  0  0  0  0  0  0  0  0
   10.4749    0.5126   21.5713 H   0  0  0  0  0  0  0  0  0  0  0  0
    9.5018    0.9169   20.1673 H   0  0  0  0  0  0  0  0  0  0  0  0
    8.8351   -1.3423   22.4437 N   0  0  0  0  0  0  0  0  0  0  0  0
    6.4690   -3.3296   23.6574 H   0  0  0  0  0  0  0  0  0  0  0  0
    8.0912   -3.0094   24.3029 H   0  0  0  0  0  0  0  0  0  0  0  0
    9.1090   -4.4209   22.5236 H   0  0  0  0  0  0  0  0  0  0  0  0
    7.5153   -4.7529   21.8361 H   0  0  0  0  0  0  0  0  0  0  0  0
    8.4747   -5.5936   24.6444 H   0  0  0  0  0  0  0  0  0  0  0  0
    6.8521   -5.9024   23.9986 H   0  0  0  0  0  0  0  0  0  0  0  0
    8.2690   -6.6583   23.2411 H   0  0  0  0  0  0  0  0  0  0  0  0
  1  2  1  0
  2  3  1  0
  3  4  1  0
  4  5  2  0
  5  6  1  0
  6  7  1  0
  7  8  2  0
  8  9  1  0
  9 10  2  0
 10 11  1  0
 11 12  2  0
 12 13  1  0
 10 14  1  0
  9 15  1  0
  8 16  1  0
  6 17  1  0
 17 18  1  0
 18 19  1  0
 19 20  2  0
 20 21  1  0
 21 22  2  0
 22 23  1  0
 23 24  2  0
 24 25  1  0
 25 26  1  0
 26 27  1  0
 26 28  1  0
 26 29  1  0
 25 30  1  0
 25 31  1  0
 23 32  1  0
 22 33  1  0
 21 34  1  0
 20 35  1  0
 18 36  1  0
 18 37  1  0
 17 38  2  0
  3 39  1  0
  3 40  1  0
  2 41  1  0
  2 42  1  0
  1 43  1  0
  1 44  1  0
  1 45  1  0
 38  4  1  0
 12  7  1  0
 24 19  1  0
M  END
>  <cnnaffinity>  (1) 
-6.10954

>  <filename>  (1) 
CCCc1nc(Cc2ccccc2CC)n(-c2cccnc2)n1

$$$$
