
     RDKit          3D

 42 44  0  0  0  0  0  0  0  0999 V2000
    6.5351   -4.7274   22.6436 C   0  0  0  0  0  0  0  0  0  0  0  0
    7.8808   -4.3764   23.2793 C   0  0  0  0  0  0  0  0  0  0  0  0
    8.7369   -3.5794   22.2794 C   0  0  0  0  0  0  0  0  0  0  0  0
    8.2163   -2.2140   21.9870 C   0  0  0  0  0  0  0  0  0  0  0  0
    7.6998   -1.8972   20.8172 N   0  0  0  0  0  0  0  0  0  0  0  0
    7.3221   -0.6027   20.9895 N   0  0  0  0  0  0  0  0  0  0  0  0
    6.6366    0.0531   19.9325 C   0  0  0  0  0  0  0  0  0  0  0  0
    5.4189    0.7070   20.1473 C   0  0  0  0  0  0  0  0  0  0  0  0
    4.8161    1.3350   19.0500 C   0  0  0  0  0  0  0  0  0  0  0  0
    5.4428    1.2929   17.8022 C   0  0  0  0  0  0  0  0  0  0  0  0
    6.5884    0.6205   17.5806 N   0  0  0  0  0  0  0  0  0  0  0  0
    7.1523    0.0005   18.6261 C   0  0  0  0  0  0  0  0  0  0  0  0
    8.0448   -0.5845   18.4183 H   0  0  0  0  0  0  0  0  0  0  0  0
    5.0168    1.8142   16.9462 H   0  0  0  0  0  0  0  0  0  0  0  0
    3.8714    1.8537   19.1586 H   0  0  0  0  0  0  0  0  0  0  0  0
    4.9346    0.6769   21.1255 H   0  0  0  0  0  0  0  0  0  0  0  0
    7.6775   -0.1961   22.2483 C   0  0  0  0  0  0  0  0  0  0  0  0
    7.6602    1.2074   22.7727 C   0  0  0  0  0  0  0  0  0  0  0  0
    9.0178    1.9441   22.5548 C   0  0  0  0  0  0  0  0  0  0  0  0
    9.3778    1.9559   21.0685 C   0  0  0  0  0  0  0  0  0  0  0  0
    8.5669    2.4247   20.4931 H   0  0  0  0  0  0  0  0  0  0  0  0
   10.3127    2.4938   20.8786 H   0  0  0  0  0  0  0  0  0  0  0  0
    9.4958    0.9288   20.7025 H   0  0  0  0  0  0  0  0  0  0  0  0
    8.9838    3.3040   23.1247 N   0  0  0  0  0  0  0  0  0  0  0  0
    8.1878    4.3489   22.7664 C   0  0  0  0  0  0  0  0  0  0  0  0
    8.5361    5.4120   23.5707 C   0  0  0  0  0  0  0  0  0  0  0  0
    9.5775    4.9078   24.3791 C   0  0  0  0  0  0  0  0  0  0  0  0
    9.8396    3.6419   24.1064 N   0  0  0  0  0  0  0  0  0  0  0  0
   10.1576    5.4192   25.1396 H   0  0  0  0  0  0  0  0  0  0  0  0
    8.1021    6.4054   23.5881 H   0  0  0  0  0  0  0  0  0  0  0  0
    7.4578    4.2722   21.9664 H   0  0  0  0  0  0  0  0  0  0  0  0
    9.7950    1.4266   23.1312 H   0  0  0  0  0  0  0  0  0  0  0  0
    7.4339    1.1655   23.8413 H   0  0  0  0  0  0  0  0  0  0  0  0
    6.8679    1.7811   22.2854 H   0  0  0  0  0  0  0  0  0  0  0  0
    8.2396   -1.2021   22.8928 N   0  0  0  0  0  0  0  0  0  0  0  0
    9.7675   -3.4670   22.6349 H   0  0  0  0  0  0  0  0  0  0  0  0
    8.7282   -4.1059   21.3226 H   0  0  0  0  0  0  0  0  0  0  0  0
    8.4190   -5.2945   23.5519 H   0  0  0  0  0  0  0  0  0  0  0  0
    7.7508   -3.7943   24.2048 H   0  0  0  0  0  0  0  0  0  0  0  0
    5.9843   -3.8259   22.3489 H   0  0  0  0  0  0  0  0  0  0  0  0
    5.8977   -5.3092   23.3159 H   0  0  0  0  0  0  0  0  0  0  0  0
    6.6913   -5.3255   21.7348 H   0  0  0  0  0  0  0  0  0  0  0  0
  1  2  1  0
  2  3  1  0
  3  4  1  0
  4  5  2  0
  5  6  1  0
  6  7  1  0
  7  8  2  0
  8  9  1  0
  9 10  2  0
 10 11  1  0
 11 12  2  0
 12 13  1  0
 10 14  1  0
  9 15  1  0
  8 16  1  0
  6 17  1  0
 17 18  1  0
 18 19  1  0
 19 20  1  0
 20 21  1  0
 20 22  1  0
 20 23  1  0
 19 24  1  0
 24 25  1  0
 25 26  2  0
 26 27  1  0
 27 28  2  0
 27 29  1  0
 26 30  1  0
 25 31  1  0
 19 32  1  0
 18 33  1  0
 18 34  1  0
 17 35  2  0
  3 36  1  0
  3 37  1  0
  2 38  1  0
  2 39  1  0
  1 40  1  0
  1 41  1  0
  1 42  1  0
 35  4  1  0
 12  7  1  0
 28 24  1  0
M  END
>  <cnnaffinity>  (1) 
-5.54056

>  <filename>  (1) 
CCCc1nc(CC(C)n2cccn2)n(-c2cccnc2)n1

$$$$
