
     RDKit          3D

 38 39  0  0  0  0  0  0  0  0999 V2000
    4.8185    1.6317   17.2232 H   0  0  0  0  0  0  0  0  0  0  0  0
    5.3009    1.1968   18.0981 C   0  0  0  0  0  0  0  0  0  0  0  0
    6.4206    0.4989   17.8598 N   0  0  0  0  0  0  0  0  0  0  0  0
    7.0484   -0.0421   18.9092 C   0  0  0  0  0  0  0  0  0  0  0  0
    7.9439   -0.6000   18.6471 H   0  0  0  0  0  0  0  0  0  0  0  0
    6.6069    0.0735   20.2547 C   0  0  0  0  0  0  0  0  0  0  0  0
    7.2983   -0.5141   21.4056 C   0  0  0  0  0  0  0  0  0  0  0  0
    8.4583   -1.2315   21.5520 C   0  0  0  0  0  0  0  0  0  0  0  0
    9.6697   -1.4621   20.6905 C   0  0  0  0  0  0  0  0  0  0  0  0
    9.6152   -2.4713   20.2724 H   0  0  0  0  0  0  0  0  0  0  0  0
    9.6537   -0.7614   19.8434 H   0  0  0  0  0  0  0  0  0  0  0  0
   10.9988   -1.2938   21.4296 C   0  0  0  0  0  0  0  0  0  0  0  0
   11.1060   -2.0826   22.1867 H   0  0  0  0  0  0  0  0  0  0  0  0
   11.8251   -1.4454   20.7238 H   0  0  0  0  0  0  0  0  0  0  0  0
   11.1498    0.0852   22.0772 C   0  0  0  0  0  0  0  0  0  0  0  0
   11.0766    0.8731   21.3129 H   0  0  0  0  0  0  0  0  0  0  0  0
   10.3058    0.2606   22.7615 H   0  0  0  0  0  0  0  0  0  0  0  0
   12.4699    0.2661   22.8463 C   0  0  0  0  0  0  0  0  0  0  0  0
   13.2695    0.5956   22.1664 H   0  0  0  0  0  0  0  0  0  0  0  0
   12.8078   -0.6984   23.2387 H   0  0  0  0  0  0  0  0  0  0  0  0
   12.3590    1.2255   24.0424 C   0  0  0  0  0  0  0  0  0  0  0  0
   11.6193    0.8172   24.7478 H   0  0  0  0  0  0  0  0  0  0  0  0
   13.3073    1.2281   24.6048 H   0  0  0  0  0  0  0  0  0  0  0  0
   11.9528    2.6728   23.7117 C   0  0  0  0  0  0  0  0  0  0  0  0
   10.9276    2.7099   23.3135 H   0  0  0  0  0  0  0  0  0  0  0  0
   11.9093    3.2247   24.6560 H   0  0  0  0  0  0  0  0  0  0  0  0
   12.8755    3.4183   22.7343 C   0  0  0  0  0  0  0  0  0  0  0  0
   12.8062    4.4994   22.8769 H   0  0  0  0  0  0  0  0  0  0  0  0
   13.9276    3.1368   22.8559 H   0  0  0  0  0  0  0  0  0  0  0  0
   12.6178    3.2232   21.6861 H   0  0  0  0  0  0  0  0  0  0  0  0
    8.2312   -1.5286   22.9801 C   0  0  0  0  0  0  0  0  0  0  0  0
    8.7616   -2.2192   23.8160 O   0  0  0  0  0  0  0  0  0  0  0  0
    6.9960   -0.5628   22.8871 C   0  0  0  0  0  0  0  0  0  0  0  0
    6.2416   -0.0337   23.6623 O   0  0  0  0  0  0  0  0  0  0  0  0
    5.4193    0.7974   20.4668 C   0  0  0  0  0  0  0  0  0  0  0  0
    5.0388    0.8979   21.4836 H   0  0  0  0  0  0  0  0  0  0  0  0
    4.7608    1.3609   19.3736 C   0  0  0  0  0  0  0  0  0  0  0  0
    3.8457    1.9260   19.4933 H   0  0  0  0  0  0  0  0  0  0  0  0
  1  2  1  0
  2  3  2  0
  3  4  1  0
  4  5  1  0
  4  6  2  0
  6  7  1  0
  7  8  2  0
  8  9  1  0
  9 10  1  0
  9 11  1  0
  9 12  1  0
 12 13  1  0
 12 14  1  0
 12 15  1  0
 15 16  1  0
 15 17  1  0
 15 18  1  0
 18 19  1  0
 18 20  1  0
 18 21  1  0
 21 22  1  0
 21 23  1  0
 21 24  1  0
 24 25  1  0
 24 26  1  0
 24 27  1  0
 27 28  1  0
 27 29  1  0
 27 30  1  0
  8 31  1  0
 31 32  2  0
 31 33  1  0
 33 34  2  0
  6 35  1  0
 35 36  1  0
 35 37  2  0
 37 38  1  0
 37  2  1  0
 33  7  1  0
M  END
>  <cnnaffinity>  (1) 
-5.13617

>  <filename>  (1) 
CCCCCCCc1c(-c2cccnc2)c(=O)c1=O

$$$$
