
     RDKit          3D

 36 38  0  0  0  0  0  0  0  0999 V2000
    8.3403   -5.8953   22.9638 C   0  0  0  0  0  0  0  0  0  0  0  0
    7.6645   -4.5597   22.6461 C   0  0  0  0  0  0  0  0  0  0  0  0
    8.6597   -3.5036   22.1049 C   0  0  0  0  0  0  0  0  0  0  0  0
    8.1254   -2.1144   21.9370 C   0  0  0  0  0  0  0  0  0  0  0  0
    7.7693   -1.6927   20.7439 N   0  0  0  0  0  0  0  0  0  0  0  0
    7.2230   -0.4800   20.9798 N   0  0  0  0  0  0  0  0  0  0  0  0
    6.5591    0.1701   19.9123 C   0  0  0  0  0  0  0  0  0  0  0  0
    5.3642    0.8780   20.0881 C   0  0  0  0  0  0  0  0  0  0  0  0
    4.7930    1.4682   18.9564 C   0  0  0  0  0  0  0  0  0  0  0  0
    5.4396    1.3528   17.7225 C   0  0  0  0  0  0  0  0  0  0  0  0
    6.5805    0.6607   17.5481 N   0  0  0  0  0  0  0  0  0  0  0  0
    7.1067    0.0619   18.6177 C   0  0  0  0  0  0  0  0  0  0  0  0
    7.9994   -0.5398   18.4593 H   0  0  0  0  0  0  0  0  0  0  0  0
    5.0037    1.7926   16.8283 H   0  0  0  0  0  0  0  0  0  0  0  0
    3.8490    2.0029   19.0205 H   0  0  0  0  0  0  0  0  0  0  0  0
    4.9088    0.9584   21.0760 H   0  0  0  0  0  0  0  0  0  0  0  0
    7.3453   -0.1935   22.3174 C   0  0  0  0  0  0  0  0  0  0  0  0
    6.9636    1.0960   22.9544 C   0  0  0  0  0  0  0  0  0  0  0  0
    6.1237    1.0870   24.0879 C   0  0  0  0  0  0  0  0  0  0  0  0
    5.6863    2.2786   24.6727 C   0  0  0  0  0  0  0  0  0  0  0  0
    6.1084    3.5096   24.1584 C   0  0  0  0  0  0  0  0  0  0  0  0
    6.9799    3.5430   23.0680 C   0  0  0  0  0  0  0  0  0  0  0  0
    7.4082    2.3510   22.4767 C   0  0  0  0  0  0  0  0  0  0  0  0
    8.5374    2.4681   21.1551 Cl  0  0  0  0  0  0  0  0  0  0  0  0
    7.3288    4.4887   22.6608 H   0  0  0  0  0  0  0  0  0  0  0  0
    5.7650    4.4423   24.6042 H   0  0  0  0  0  0  0  0  0  0  0  0
    5.0281    2.2473   25.5370 H   0  0  0  0  0  0  0  0  0  0  0  0
    5.8284    0.1248   24.5047 H   0  0  0  0  0  0  0  0  0  0  0  0
    7.8825   -1.2317   22.9393 N   0  0  0  0  0  0  0  0  0  0  0  0
    8.9513   -3.7946   21.0941 H   0  0  0  0  0  0  0  0  0  0  0  0
    9.5550   -3.4637   22.7352 H   0  0  0  0  0  0  0  0  0  0  0  0
    6.8708   -4.7303   21.9068 H   0  0  0  0  0  0  0  0  0  0  0  0
    7.1704   -4.1814   23.5475 H   0  0  0  0  0  0  0  0  0  0  0  0
    7.6029   -6.6835   23.1549 H   0  0  0  0  0  0  0  0  0  0  0  0
    8.9581   -6.2175   22.1197 H   0  0  0  0  0  0  0  0  0  0  0  0
    8.9911   -5.8305   23.8450 H   0  0  0  0  0  0  0  0  0  0  0  0
  1  2  1  0
  2  3  1  0
  3  4  1  0
  4  5  2  0
  5  6  1  0
  6  7  1  0
  7  8  2  0
  8  9  1  0
  9 10  2  0
 10 11  1  0
 11 12  2  0
 12 13  1  0
 10 14  1  0
  9 15  1  0
  8 16  1  0
  6 17  1  0
 17 18  1  0
 18 19  2  0
 19 20  1  0
 20 21  2  0
 21 22  1  0
 22 23  2  0
 23 24  1  0
 22 25  1  0
 21 26  1  0
 20 27  1  0
 19 28  1  0
 17 29  2  0
  3 30  1  0
  3 31  1  0
  2 32  1  0
  2 33  1  0
  1 34  1  0
  1 35  1  0
  1 36  1  0
 29  4  1  0
 12  7  1  0
 23 18  1  0
M  END
>  <cnnaffinity>  (1) 
-4.96332

>  <filename>  (1) 
CCCc1nc(-c2ccccc2Cl)n(-c2cccnc2)n1

$$$$
