
     RDKit          3D

 39 40  0  0  0  0  0  0  0  0999 V2000
    4.9757    1.8188   16.9133 H   0  0  0  0  0  0  0  0  0  0  0  0
    5.4316    1.3109   17.7585 C   0  0  0  0  0  0  0  0  0  0  0  0
    6.5823    0.6651   17.5106 N   0  0  0  0  0  0  0  0  0  0  0  0
    7.1604    0.0213   18.5336 C   0  0  0  0  0  0  0  0  0  0  0  0
    8.1000   -0.4751   18.2956 H   0  0  0  0  0  0  0  0  0  0  0  0
    6.6424   -0.0113   19.8544 C   0  0  0  0  0  0  0  0  0  0  0  0
    7.3103   -0.7055   20.9703 C   0  0  0  0  0  0  0  0  0  0  0  0
    7.5399   -0.3441   22.2887 C   0  0  0  0  0  0  0  0  0  0  0  0
    7.4079    1.0068   22.9150 C   0  0  0  0  0  0  0  0  0  0  0  0
    7.6044    0.9041   23.9890 H   0  0  0  0  0  0  0  0  0  0  0  0
    6.3935    1.4090   22.8052 H   0  0  0  0  0  0  0  0  0  0  0  0
    8.4014    1.9779   22.2509 C   0  0  0  0  0  0  0  0  0  0  0  0
    8.1677    2.0093   21.1769 H   0  0  0  0  0  0  0  0  0  0  0  0
    8.2452    2.9981   22.6238 H   0  0  0  0  0  0  0  0  0  0  0  0
    9.8871    1.6167   22.3977 C   0  0  0  0  0  0  0  0  0  0  0  0
   10.1801    1.5541   23.4519 H   0  0  0  0  0  0  0  0  0  0  0  0
   10.0950    0.6195   21.9860 H   0  0  0  0  0  0  0  0  0  0  0  0
   10.7173    2.6664   21.6707 C   0  0  0  0  0  0  0  0  0  0  0  0
   10.4882    3.6526   22.1063 H   0  0  0  0  0  0  0  0  0  0  0  0
   10.3463    2.6853   20.6408 H   0  0  0  0  0  0  0  0  0  0  0  0
   12.2299    2.4736   21.5841 C   0  0  0  0  0  0  0  0  0  0  0  0
   12.4315    1.4583   21.2167 H   0  0  0  0  0  0  0  0  0  0  0  0
   12.5821    3.1692   20.8054 H   0  0  0  0  0  0  0  0  0  0  0  0
   13.0586    2.7524   22.8472 C   0  0  0  0  0  0  0  0  0  0  0  0
   12.7969    2.0512   23.6509 H   0  0  0  0  0  0  0  0  0  0  0  0
   14.1114    2.5539   22.6018 H   0  0  0  0  0  0  0  0  0  0  0  0
   12.9221    4.1998   23.3391 C   0  0  0  0  0  0  0  0  0  0  0  0
   13.7913    4.5088   23.9220 H   0  0  0  0  0  0  0  0  0  0  0  0
   12.8533    4.9011   22.4989 H   0  0  0  0  0  0  0  0  0  0  0  0
   12.0350    4.3489   23.9631 H   0  0  0  0  0  0  0  0  0  0  0  0
    8.2648   -1.3215   22.9232 N   0  0  0  0  0  0  0  0  0  0  0  0
    8.4836   -2.2459   22.0363 C   0  0  0  0  0  0  0  0  0  0  0  0
    9.0665   -3.1417   22.2115 H   0  0  0  0  0  0  0  0  0  0  0  0
    7.9476   -1.9218   20.8295 N   0  0  0  0  0  0  0  0  0  0  0  0
    7.8548   -2.5394   20.0408 H   0  0  0  0  0  0  0  0  0  0  0  0
    5.4411    0.6817   20.0765 C   0  0  0  0  0  0  0  0  0  0  0  0
    5.0039    0.6776   21.0749 H   0  0  0  0  0  0  0  0  0  0  0  0
    4.8183    1.3412   19.0174 C   0  0  0  0  0  0  0  0  0  0  0  0
    3.8851    1.8739   19.1548 H   0  0  0  0  0  0  0  0  0  0  0  0
  1  2  1  0
  2  3  2  0
  3  4  1  0
  4  5  1  0
  4  6  2  0
  6  7  1  0
  7  8  2  0
  8  9  1  0
  9 10  1  0
  9 11  1  0
  9 12  1  0
 12 13  1  0
 12 14  1  0
 12 15  1  0
 15 16  1  0
 15 17  1  0
 15 18  1  0
 18 19  1  0
 18 20  1  0
 18 21  1  0
 21 22  1  0
 21 23  1  0
 21 24  1  0
 24 25  1  0
 24 26  1  0
 24 27  1  0
 27 28  1  0
 27 29  1  0
 27 30  1  0
  8 31  1  0
 31 32  2  0
 32 33  1  0
 32 34  1  0
 34 35  1  0
  6 36  1  0
 36 37  1  0
 36 38  2  0
 38 39  1  0
 38  2  1  0
 34  7  1  0
M  END
>  <cnnaffinity>  (1) 
-5.08963

>  <filename>  (1) 
CCCCCCCc1nc[nH]c1-c1cccnc1

$$$$
