
     RDKit          3D

 43 44  0  0  0  0  0  0  0  0999 V2000
    8.9921   -2.7675   23.7090 H   0  0  0  0  0  0  0  0  0  0  0  0
    8.4782   -2.1894   22.9402 C   0  0  0  0  0  0  0  0  0  0  0  0
    7.9854   -2.8642   21.9036 N   0  0  0  0  0  0  0  0  0  0  0  0
    7.3933   -2.1198   20.9674 C   0  0  0  0  0  0  0  0  0  0  0  0
    6.9482   -2.6585   20.1304 H   0  0  0  0  0  0  0  0  0  0  0  0
    7.2828   -0.7305   21.0159 C   0  0  0  0  0  0  0  0  0  0  0  0
    6.6417    0.0265   19.8878 C   0  0  0  0  0  0  0  0  0  0  0  0
    7.1648    0.0441   18.5736 C   0  0  0  0  0  0  0  0  0  0  0  0
    8.0977   -0.4801   18.3550 H   0  0  0  0  0  0  0  0  0  0  0  0
    6.5870    0.6718   17.5413 N   0  0  0  0  0  0  0  0  0  0  0  0
    5.4339    1.3166   17.7822 C   0  0  0  0  0  0  0  0  0  0  0  0
    4.9847    1.8198   16.9302 H   0  0  0  0  0  0  0  0  0  0  0  0
    4.8181    1.3596   19.0387 C   0  0  0  0  0  0  0  0  0  0  0  0
    3.8930    1.9074   19.1740 H   0  0  0  0  0  0  0  0  0  0  0  0
    5.4402    0.7102   20.1061 C   0  0  0  0  0  0  0  0  0  0  0  0
    5.0191    0.7186   21.1144 H   0  0  0  0  0  0  0  0  0  0  0  0
    7.7649   -0.1391   22.2072 C   0  0  0  0  0  0  0  0  0  0  0  0
    7.5877    1.3252   22.5782 C   0  0  0  0  0  0  0  0  0  0  0  0
    7.1024    1.8816   21.7706 H   0  0  0  0  0  0  0  0  0  0  0  0
    6.8904    1.3384   23.4235 H   0  0  0  0  0  0  0  0  0  0  0  0
    8.8683    2.0621   23.0110 C   0  0  0  0  0  0  0  0  0  0  0  0
    9.4365    1.4210   23.6996 H   0  0  0  0  0  0  0  0  0  0  0  0
    8.5762    2.9467   23.5866 H   0  0  0  0  0  0  0  0  0  0  0  0
    9.7471    2.5684   21.8654 C   0  0  0  0  0  0  0  0  0  0  0  0
    9.1285    3.2144   21.2244 H   0  0  0  0  0  0  0  0  0  0  0  0
   10.5335    3.2163   22.2741 H   0  0  0  0  0  0  0  0  0  0  0  0
   10.4124    1.5187   20.9753 C   0  0  0  0  0  0  0  0  0  0  0  0
    9.6284    0.9997   20.4053 H   0  0  0  0  0  0  0  0  0  0  0  0
   11.0254    2.0569   20.2379 H   0  0  0  0  0  0  0  0  0  0  0  0
   11.2905    0.4673   21.6686 C   0  0  0  0  0  0  0  0  0  0  0  0
   10.6787   -0.0952   22.3881 H   0  0  0  0  0  0  0  0  0  0  0  0
   11.5902   -0.2486   20.8891 H   0  0  0  0  0  0  0  0  0  0  0  0
   12.5342    1.0292   22.3834 C   0  0  0  0  0  0  0  0  0  0  0  0
   12.9891    1.8097   21.7572 H   0  0  0  0  0  0  0  0  0  0  0  0
   12.2001    1.5411   23.3007 H   0  0  0  0  0  0  0  0  0  0  0  0
   13.5971   -0.0157   22.7936 C   0  0  0  0  0  0  0  0  0  0  0  0
   13.2188   -0.5256   23.6846 H   0  0  0  0  0  0  0  0  0  0  0  0
   14.5051    0.5081   23.1217 H   0  0  0  0  0  0  0  0  0  0  0  0
   14.0049   -1.0526   21.7372 C   0  0  0  0  0  0  0  0  0  0  0  0
   14.7011   -1.7834   22.1606 H   0  0  0  0  0  0  0  0  0  0  0  0
   13.1450   -1.6201   21.3639 H   0  0  0  0  0  0  0  0  0  0  0  0
   14.5031   -0.5959   20.8739 H   0  0  0  0  0  0  0  0  0  0  0  0
    8.3992   -0.8749   23.1292 N   0  0  0  0  0  0  0  0  0  0  0  0
  1  2  1  0
  2  3  2  0
  3  4  1  0
  4  5  1  0
  4  6  2  0
  6  7  1  0
  7  8  2  0
  8  9  1  0
  8 10  1  0
 10 11  2  0
 11 12  1  0
 11 13  1  0
 13 14  1  0
 13 15  2  0
 15 16  1  0
  6 17  1  0
 17 18  1  0
 18 19  1  0
 18 20  1  0
 18 21  1  0
 21 22  1  0
 21 23  1  0
 21 24  1  0
 24 25  1  0
 24 26  1  0
 24 27  1  0
 27 28  1  0
 27 29  1  0
 27 30  1  0
 30 31  1  0
 30 32  1  0
 30 33  1  0
 33 34  1  0
 33 35  1  0
 33 36  1  0
 36 37  1  0
 36 38  1  0
 36 39  1  0
 39 40  1  0
 39 41  1  0
 39 42  1  0
 17 43  2  0
 43  2  1  0
 15  7  1  0
M  END
>  <cnnaffinity>  (1) 
-5.46888

>  <filename>  (1) 
CCCCCCCCc1ncncc1-c1cccnc1

$$$$
