
     RDKit          3D

 38 39  0  0  0  0  0  0  0  0999 V2000
    4.9151    1.7805   16.9949 H   0  0  0  0  0  0  0  0  0  0  0  0
    5.4017    1.2947   17.8381 C   0  0  0  0  0  0  0  0  0  0  0  0
    6.5656    0.6762   17.5793 N   0  0  0  0  0  0  0  0  0  0  0  0
    7.1757    0.0617   18.5998 C   0  0  0  0  0  0  0  0  0  0  0  0
    8.1152   -0.4361   18.3733 H   0  0  0  0  0  0  0  0  0  0  0  0
    6.6585    0.0026   19.9070 C   0  0  0  0  0  0  0  0  0  0  0  0
    7.3460   -0.6936   20.9495 N   0  0  0  0  0  0  0  0  0  0  0  0
    6.5634   -1.4257   21.8120 N   0  0  0  0  0  0  0  0  0  0  0  0
    7.1402   -2.0688   22.7854 C   0  0  0  0  0  0  0  0  0  0  0  0
    6.2826   -2.9285   23.6789 C   0  0  0  0  0  0  0  0  0  0  0  0
    5.2812   -2.5084   23.7425 H   0  0  0  0  0  0  0  0  0  0  0  0
    6.6967   -2.9152   24.6921 H   0  0  0  0  0  0  0  0  0  0  0  0
    6.2146   -4.3809   23.1842 C   0  0  0  0  0  0  0  0  0  0  0  0
    5.7685   -4.3875   22.1818 H   0  0  0  0  0  0  0  0  0  0  0  0
    7.2334   -4.7724   23.0781 H   0  0  0  0  0  0  0  0  0  0  0  0
    5.4167   -5.3028   24.1030 C   0  0  0  0  0  0  0  0  0  0  0  0
    5.5776   -6.3433   23.7908 H   0  0  0  0  0  0  0  0  0  0  0  0
    5.8133   -5.2296   25.1265 H   0  0  0  0  0  0  0  0  0  0  0  0
    3.9175   -5.0204   24.1212 C   0  0  0  0  0  0  0  0  0  0  0  0
    3.7262   -4.0094   24.5052 H   0  0  0  0  0  0  0  0  0  0  0  0
    3.5363   -5.0221   23.0907 H   0  0  0  0  0  0  0  0  0  0  0  0
    3.1342   -6.0309   24.9497 C   0  0  0  0  0  0  0  0  0  0  0  0
    3.5204   -6.0309   25.9768 H   0  0  0  0  0  0  0  0  0  0  0  0
    3.3164   -7.0390   24.5559 H   0  0  0  0  0  0  0  0  0  0  0  0
    1.6389   -5.7481   24.9619 C   0  0  0  0  0  0  0  0  0  0  0  0
    1.0980   -6.4856   25.5614 H   0  0  0  0  0  0  0  0  0  0  0  0
    1.4339   -4.7560   25.3789 H   0  0  0  0  0  0  0  0  0  0  0  0
    1.2296   -5.7696   23.9457 H   0  0  0  0  0  0  0  0  0  0  0  0
    8.6224   -2.0755   23.0307 C   0  0  0  0  0  0  0  0  0  0  0  0
    9.1591   -2.7119   23.9318 O   0  0  0  0  0  0  0  0  0  0  0  0
    9.3644   -1.2586   22.0916 C   0  0  0  0  0  0  0  0  0  0  0  0
   10.4390   -1.2095   22.2244 H   0  0  0  0  0  0  0  0  0  0  0  0
    8.7115   -0.6076   21.1088 C   0  0  0  0  0  0  0  0  0  0  0  0
    9.2330    0.0358   20.3955 H   0  0  0  0  0  0  0  0  0  0  0  0
    5.4392    0.6461   20.1656 C   0  0  0  0  0  0  0  0  0  0  0  0
    5.0203    0.6115   21.1725 H   0  0  0  0  0  0  0  0  0  0  0  0
    4.8115    1.3123   19.1090 C   0  0  0  0  0  0  0  0  0  0  0  0
    3.8772    1.8424   19.2623 H   0  0  0  0  0  0  0  0  0  0  0  0
  1  2  1  0
  2  3  2  0
  3  4  1  0
  4  5  1  0
  4  6  2  0
  6  7  1  0
  7  8  1  0
  8  9  2  0
  9 10  1  0
 10 11  1  0
 10 12  1  0
 10 13  1  0
 13 14  1  0
 13 15  1  0
 13 16  1  0
 16 17  1  0
 16 18  1  0
 16 19  1  0
 19 20  1  0
 19 21  1  0
 19 22  1  0
 22 23  1  0
 22 24  1  0
 22 25  1  0
 25 26  1  0
 25 27  1  0
 25 28  1  0
  9 29  1  0
 29 30  2  0
 29 31  1  0
 31 32  1  0
 31 33  2  0
 33 34  1  0
  6 35  1  0
 35 36  1  0
 35 37  2  0
 37 38  1  0
 37  2  1  0
 33  7  1  0
M  END
>  <cnnaffinity>  (1) 
-5.33104

>  <filename>  (1) 
CCCCCCc1nn(-c2cccnc2)ccc1=O

$$$$
