
     RDKit          3D

 44 46  0  0  0  0  0  0  0  0999 V2000
    7.5342   -3.6643   26.7272 C   0  0  0  0  0  0  0  0  0  0  0  0
    6.2698   -3.3205   25.9414 C   0  0  0  0  0  0  0  0  0  0  0  0
    6.5075   -2.4473   24.7058 C   0  0  0  0  0  0  0  0  0  0  0  0
    7.3683   -3.0612   23.5744 C   0  0  0  0  0  0  0  0  0  0  0  0
    6.7922   -4.3721   23.0134 C   0  0  0  0  0  0  0  0  0  0  0  0
    5.7790   -4.2183   22.6278 H   0  0  0  0  0  0  0  0  0  0  0  0
    7.4033   -4.7623   22.1932 H   0  0  0  0  0  0  0  0  0  0  0  0
    6.7492   -5.1460   23.7866 H   0  0  0  0  0  0  0  0  0  0  0  0
    7.6065   -2.0332   22.5009 C   0  0  0  0  0  0  0  0  0  0  0  0
    6.6878   -1.6354   21.6430 N   0  0  0  0  0  0  0  0  0  0  0  0
    7.3452   -0.7028   20.9005 N   0  0  0  0  0  0  0  0  0  0  0  0
    6.6500   -0.0215   19.8631 C   0  0  0  0  0  0  0  0  0  0  0  0
    5.4335    0.6180   20.1331 C   0  0  0  0  0  0  0  0  0  0  0  0
    4.8028    1.3046   19.0925 C   0  0  0  0  0  0  0  0  0  0  0  0
    5.3949    1.3017   17.8219 C   0  0  0  0  0  0  0  0  0  0  0  0
    6.5335    0.6487   17.5423 N   0  0  0  0  0  0  0  0  0  0  0  0
    7.1462    0.0085   18.5460 C   0  0  0  0  0  0  0  0  0  0  0  0
    8.0737   -0.5095   18.3024 H   0  0  0  0  0  0  0  0  0  0  0  0
    4.9369    1.8471   17.0018 H   0  0  0  0  0  0  0  0  0  0  0  0
    3.8769    1.8475   19.2549 H   0  0  0  0  0  0  0  0  0  0  0  0
    5.0061    0.5573   21.1361 H   0  0  0  0  0  0  0  0  0  0  0  0
    8.6194   -0.5745   21.3866 C   0  0  0  0  0  0  0  0  0  0  0  0
    9.6804    0.3721   20.9212 C   0  0  0  0  0  0  0  0  0  0  0  0
    9.9646    1.4288   21.9434 C   0  0  0  0  0  0  0  0  0  0  0  0
    9.1391    2.3880   22.4357 C   0  0  0  0  0  0  0  0  0  0  0  0
    7.7531    2.8115   22.1044 C   0  0  0  0  0  0  0  0  0  0  0  0
    7.5284    3.8209   22.4524 H   0  0  0  0  0  0  0  0  0  0  0  0
    7.0255    2.1206   22.5434 H   0  0  0  0  0  0  0  0  0  0  0  0
    7.6140    2.7650   21.0233 H   0  0  0  0  0  0  0  0  0  0  0  0
    9.7820    2.9765   23.4919 O   0  0  0  0  0  0  0  0  0  0  0  0
   10.9720    2.3480   23.5570 C   0  0  0  0  0  0  0  0  0  0  0  0
   11.1459    1.4252   22.6727 N   0  0  0  0  0  0  0  0  0  0  0  0
   11.6505    2.6334   24.3508 H   0  0  0  0  0  0  0  0  0  0  0  0
    9.3881    0.7994   19.9619 H   0  0  0  0  0  0  0  0  0  0  0  0
   10.6027   -0.1961   20.7824 H   0  0  0  0  0  0  0  0  0  0  0  0
    8.8034   -1.4057   22.3860 N   0  0  0  0  0  0  0  0  0  0  0  0
    8.3757   -3.2474   23.9593 H   0  0  0  0  0  0  0  0  0  0  0  0
    5.5397   -2.1631   24.2795 H   0  0  0  0  0  0  0  0  0  0  0  0
    6.9780   -1.5082   25.0268 H   0  0  0  0  0  0  0  0  0  0  0  0
    5.7460   -4.2394   25.6536 H   0  0  0  0  0  0  0  0  0  0  0  0
    5.5716   -2.7863   26.5973 H   0  0  0  0  0  0  0  0  0  0  0  0
    7.3061   -4.1906   27.6589 H   0  0  0  0  0  0  0  0  0  0  0  0
    8.0923   -2.7611   26.9956 H   0  0  0  0  0  0  0  0  0  0  0  0
    8.2079   -4.3069   26.1518 H   0  0  0  0  0  0  0  0  0  0  0  0
  1  2  1  0
  2  3  1  0
  3  4  1  0
  4  5  1  0
  5  6  1  0
  5  7  1  0
  5  8  1  0
  4  9  1  0
  9 10  2  0
 10 11  1  0
 11 12  1  0
 12 13  2  0
 13 14  1  0
 14 15  2  0
 15 16  1  0
 16 17  2  0
 17 18  1  0
 15 19  1  0
 14 20  1  0
 13 21  1  0
 11 22  1  0
 22 23  1  0
 23 24  1  0
 24 25  2  0
 25 26  1  0
 26 27  1  0
 26 28  1  0
 26 29  1  0
 25 30  1  0
 30 31  1  0
 31 32  2  0
 31 33  1  0
 23 34  1  0
 23 35  1  0
 22 36  2  0
  4 37  1  0
  3 38  1  0
  3 39  1  0
  2 40  1  0
  2 41  1  0
  1 42  1  0
  1 43  1  0
  1 44  1  0
 36  9  1  0
 17 12  1  0
 32 24  1  0
M  END
>  <cnnaffinity>  (1) 
-5.82641

>  <filename>  (1) 
CCCC(C)c1nc(Cc2ncoc2C)n(-c2cccnc2)n1

$$$$
