
     RDKit          3D

 44 46  0  0  0  0  0  0  0  0999 V2000
    8.4256   -5.7707   23.3856 C   0  0  0  0  0  0  0  0  0  0  0  0
    7.7903   -4.4161   23.0966 C   0  0  0  0  0  0  0  0  0  0  0  0
    8.7137   -3.5378   22.2395 C   0  0  0  0  0  0  0  0  0  0  0  0
    8.2261   -2.1573   21.9741 C   0  0  0  0  0  0  0  0  0  0  0  0
    7.7398   -1.8423   20.7947 N   0  0  0  0  0  0  0  0  0  0  0  0
    7.3793   -0.5489   20.9500 N   0  0  0  0  0  0  0  0  0  0  0  0
    6.6537    0.0923   19.9145 C   0  0  0  0  0  0  0  0  0  0  0  0
    5.4233    0.7179   20.1448 C   0  0  0  0  0  0  0  0  0  0  0  0
    4.8018    1.3311   19.0522 C   0  0  0  0  0  0  0  0  0  0  0  0
    5.4240    1.2928   17.7995 C   0  0  0  0  0  0  0  0  0  0  0  0
    6.5704    0.6256   17.5652 N   0  0  0  0  0  0  0  0  0  0  0  0
    7.1560    0.0224   18.6029 C   0  0  0  0  0  0  0  0  0  0  0  0
    8.0606   -0.5560   18.4135 H   0  0  0  0  0  0  0  0  0  0  0  0
    4.9935    1.8205   16.9520 H   0  0  0  0  0  0  0  0  0  0  0  0
    3.8609    1.8545   19.1740 H   0  0  0  0  0  0  0  0  0  0  0  0
    4.9535    0.6770   21.1301 H   0  0  0  0  0  0  0  0  0  0  0  0
    7.7401   -0.1288   22.1995 C   0  0  0  0  0  0  0  0  0  0  0  0
    7.7238    1.3142   22.5985 C   0  0  0  0  0  0  0  0  0  0  0  0
    8.6984    2.2094   21.7890 C   0  0  0  0  0  0  0  0  0  0  0  0
    8.6428    3.6380   22.2618 C   0  0  0  0  0  0  0  0  0  0  0  0
    7.6760    4.3799   21.7076 N   0  0  0  0  0  0  0  0  0  0  0  0
    7.5967    5.6715   22.0386 C   0  0  0  0  0  0  0  0  0  0  0  0
    8.4099    6.2538   23.0070 C   0  0  0  0  0  0  0  0  0  0  0  0
    9.3602    5.4564   23.6545 C   0  0  0  0  0  0  0  0  0  0  0  0
    9.5132    4.1207   23.2736 C   0  0  0  0  0  0  0  0  0  0  0  0
   10.5495    3.2261   23.9215 C   0  0  0  0  0  0  0  0  0  0  0  0
   11.2811    2.8473   23.2000 H   0  0  0  0  0  0  0  0  0  0  0  0
   11.1258    3.7403   24.6899 H   0  0  0  0  0  0  0  0  0  0  0  0
   10.0820    2.3521   24.3901 H   0  0  0  0  0  0  0  0  0  0  0  0
    9.9896    5.8651   24.4465 H   0  0  0  0  0  0  0  0  0  0  0  0
    8.2918    7.3024   23.2445 H   0  0  0  0  0  0  0  0  0  0  0  0
    6.8501    6.2549   21.5032 H   0  0  0  0  0  0  0  0  0  0  0  0
    8.4218    2.2111   20.7319 H   0  0  0  0  0  0  0  0  0  0  0  0
    9.7211    1.8207   21.8560 H   0  0  0  0  0  0  0  0  0  0  0  0
    6.7155    1.7180   22.4779 H   0  0  0  0  0  0  0  0  0  0  0  0
    7.9488    1.3894   23.6680 H   0  0  0  0  0  0  0  0  0  0  0  0
    8.2492   -1.1417   22.8760 N   0  0  0  0  0  0  0  0  0  0  0  0
    8.8091   -3.9960   21.2540 H   0  0  0  0  0  0  0  0  0  0  0  0
    9.7089   -3.4586   22.6922 H   0  0  0  0  0  0  0  0  0  0  0  0
    6.8410   -4.5772   22.5671 H   0  0  0  0  0  0  0  0  0  0  0  0
    7.5512   -3.9010   24.0375 H   0  0  0  0  0  0  0  0  0  0  0  0
    8.7420   -6.2747   22.4636 H   0  0  0  0  0  0  0  0  0  0  0  0
    9.3005   -5.6614   24.0340 H   0  0  0  0  0  0  0  0  0  0  0  0
    7.7202   -6.4253   23.8980 H   0  0  0  0  0  0  0  0  0  0  0  0
  1  2  1  0
  2  3  1  0
  3  4  1  0
  4  5  2  0
  5  6  1  0
  6  7  1  0
  7  8  2  0
  8  9  1  0
  9 10  2  0
 10 11  1  0
 11 12  2  0
 12 13  1  0
 10 14  1  0
  9 15  1  0
  8 16  1  0
  6 17  1  0
 17 18  1  0
 18 19  1  0
 19 20  1  0
 20 21  2  0
 21 22  1  0
 22 23  2  0
 23 24  1  0
 24 25  2  0
 25 26  1  0
 26 27  1  0
 26 28  1  0
 26 29  1  0
 24 30  1  0
 23 31  1  0
 22 32  1  0
 19 33  1  0
 19 34  1  0
 18 35  1  0
 18 36  1  0
 17 37  2  0
  3 38  1  0
  3 39  1  0
  2 40  1  0
  2 41  1  0
  1 42  1  0
  1 43  1  0
  1 44  1  0
 37  4  1  0
 12  7  1  0
 25 20  1  0
M  END
>  <cnnaffinity>  (1) 
-5.81511

>  <filename>  (1) 
CCCc1nc(CCc2ncccc2C)n(-c2cccnc2)n1

$$$$
