
     RDKit          3D

 45 47  0  0  0  0  0  0  0  0999 V2000
    6.7705    0.3677   24.8227 C   0  0  0  0  0  0  0  0  0  0  0  0
    6.4476   -1.0201   25.3982 C   0  0  0  0  0  0  0  0  0  0  0  0
    7.5020   -2.1167   25.1546 C   0  0  0  0  0  0  0  0  0  0  0  0
    7.3975   -2.8478   23.7921 C   0  0  0  0  0  0  0  0  0  0  0  0
    8.3797   -4.0330   23.7267 C   0  0  0  0  0  0  0  0  0  0  0  0
    9.4128   -3.6826   23.8412 H   0  0  0  0  0  0  0  0  0  0  0  0
    8.3161   -4.5575   22.7671 H   0  0  0  0  0  0  0  0  0  0  0  0
    8.1749   -4.7542   24.5257 H   0  0  0  0  0  0  0  0  0  0  0  0
    7.6372   -1.8973   22.6537 C   0  0  0  0  0  0  0  0  0  0  0  0
    6.7236   -1.5374   21.7784 N   0  0  0  0  0  0  0  0  0  0  0  0
    7.3906   -0.6560   20.9746 N   0  0  0  0  0  0  0  0  0  0  0  0
    6.6960    0.0011   19.9074 C   0  0  0  0  0  0  0  0  0  0  0  0
    5.4638    0.6259   20.1538 C   0  0  0  0  0  0  0  0  0  0  0  0
    4.8251    1.2857   19.1013 C   0  0  0  0  0  0  0  0  0  0  0  0
    5.4147    1.2758   17.8322 C   0  0  0  0  0  0  0  0  0  0  0  0
    6.5676    0.6395   17.5738 N   0  0  0  0  0  0  0  0  0  0  0  0
    7.1877    0.0206   18.5872 C   0  0  0  0  0  0  0  0  0  0  0  0
    8.1120   -0.4948   18.3284 H   0  0  0  0  0  0  0  0  0  0  0  0
    4.9513    1.8024   16.9994 H   0  0  0  0  0  0  0  0  0  0  0  0
    3.8884    1.8117   19.2537 H   0  0  0  0  0  0  0  0  0  0  0  0
    5.0252    0.5709   21.1507 H   0  0  0  0  0  0  0  0  0  0  0  0
    8.6621   -0.5207   21.4603 C   0  0  0  0  0  0  0  0  0  0  0  0
    9.5955    0.5705   21.0772 C   0  0  0  0  0  0  0  0  0  0  0  0
    9.0683    1.8216   21.6955 C   0  0  0  0  0  0  0  0  0  0  0  0
    8.1491    2.5870   21.0799 C   0  0  0  0  0  0  0  0  0  0  0  0
    7.7958    3.5661   21.9837 N   0  0  0  0  0  0  0  0  0  0  0  0
    8.5082    3.3162   23.1204 C   0  0  0  0  0  0  0  0  0  0  0  0
    8.3103    4.0993   24.3707 C   0  0  0  0  0  0  0  0  0  0  0  0
    8.2143    5.1624   24.1490 H   0  0  0  0  0  0  0  0  0  0  0  0
    7.3751    3.7829   24.8429 H   0  0  0  0  0  0  0  0  0  0  0  0
    9.1317    3.9415   25.0719 H   0  0  0  0  0  0  0  0  0  0  0  0
    9.2734    2.2542   22.9810 N   0  0  0  0  0  0  0  0  0  0  0  0
    7.3192    4.4284   21.7709 H   0  0  0  0  0  0  0  0  0  0  0  0
    7.7264    2.4184   20.1026 H   0  0  0  0  0  0  0  0  0  0  0  0
   10.5830    0.3274   21.4595 H   0  0  0  0  0  0  0  0  0  0  0  0
    9.6128    0.6561   19.9848 H   0  0  0  0  0  0  0  0  0  0  0  0
    8.8542   -1.3149   22.4813 N   0  0  0  0  0  0  0  0  0  0  0  0
    6.3703   -3.2072   23.6530 H   0  0  0  0  0  0  0  0  0  0  0  0
    7.4261   -2.8787   25.9425 H   0  0  0  0  0  0  0  0  0  0  0  0
    8.5116   -1.6861   25.2446 H   0  0  0  0  0  0  0  0  0  0  0  0
    5.4814   -1.3636   25.0002 H   0  0  0  0  0  0  0  0  0  0  0  0
    6.2941   -0.9238   26.4818 H   0  0  0  0  0  0  0  0  0  0  0  0
    7.7667    0.7190   25.1232 H   0  0  0  0  0  0  0  0  0  0  0  0
    6.0441    1.1122   25.1715 H   0  0  0  0  0  0  0  0  0  0  0  0
    6.7429    0.3799   23.7281 H   0  0  0  0  0  0  0  0  0  0  0  0
  1  2  1  0
  2  3  1  0
  3  4  1  0
  4  5  1  0
  5  6  1  0
  5  7  1  0
  5  8  1  0
  4  9  1  0
  9 10  2  0
 10 11  1  0
 11 12  1  0
 12 13  2  0
 13 14  1  0
 14 15  2  0
 15 16  1  0
 16 17  2  0
 17 18  1  0
 15 19  1  0
 14 20  1  0
 13 21  1  0
 11 22  1  0
 22 23  1  0
 23 24  1  0
 24 25  2  0
 25 26  1  0
 26 27  1  0
 27 28  1  0
 28 29  1  0
 28 30  1  0
 28 31  1  0
 27 32  2  0
 26 33  1  0
 25 34  1  0
 23 35  1  0
 23 36  1  0
 22 37  2  0
  4 38  1  0
  3 39  1  0
  3 40  1  0
  2 41  1  0
  2 42  1  0
  1 43  1  0
  1 44  1  0
  1 45  1  0
 37  9  1  0
 17 12  1  0
 32 24  1  0
M  END
>  <cnnaffinity>  (1) 
-6.07901

>  <filename>  (1) 
CCCC(C)c1nc(Cc2c[nH]c(C)n2)n(-c2cccnc2)n1

$$$$
