
     RDKit          3D

 43 44  0  0  0  0  0  0  0  0999 V2000
    6.7832   -3.4457   22.7651 H   0  0  0  0  0  0  0  0  0  0  0  0
    7.3014   -2.5587   22.3917 C   0  0  0  0  0  0  0  0  0  0  0  0
    8.5039   -2.3006   22.9001 N   0  0  0  0  0  0  0  0  0  0  0  0
    9.1259   -1.2115   22.4381 C   0  0  0  0  0  0  0  0  0  0  0  0
   10.1125   -0.9986   22.8692 H   0  0  0  0  0  0  0  0  0  0  0  0
    8.5975   -0.3644   21.4704 C   0  0  0  0  0  0  0  0  0  0  0  0
    9.2969    0.9245   21.0660 C   0  0  0  0  0  0  0  0  0  0  0  0
    9.3529    0.9546   19.9756 H   0  0  0  0  0  0  0  0  0  0  0  0
   10.3399    0.9152   21.4145 H   0  0  0  0  0  0  0  0  0  0  0  0
    8.5709    2.1807   21.5773 C   0  0  0  0  0  0  0  0  0  0  0  0
    8.9984    3.0645   21.0911 H   0  0  0  0  0  0  0  0  0  0  0  0
    7.5291    2.1318   21.2381 H   0  0  0  0  0  0  0  0  0  0  0  0
    8.5912    2.3715   23.1036 C   0  0  0  0  0  0  0  0  0  0  0  0
    8.0867    1.5161   23.5755 H   0  0  0  0  0  0  0  0  0  0  0  0
    7.9784    3.2540   23.3467 H   0  0  0  0  0  0  0  0  0  0  0  0
    9.9914    2.5266   23.7287 C   0  0  0  0  0  0  0  0  0  0  0  0
   10.5709    1.6005   23.5745 H   0  0  0  0  0  0  0  0  0  0  0  0
    9.8677    2.6216   24.8188 H   0  0  0  0  0  0  0  0  0  0  0  0
   10.7917    3.7314   23.2031 C   0  0  0  0  0  0  0  0  0  0  0  0
   10.1945    4.6343   23.3998 H   0  0  0  0  0  0  0  0  0  0  0  0
   10.8999    3.6651   22.1126 H   0  0  0  0  0  0  0  0  0  0  0  0
   12.1807    3.8604   23.8438 C   0  0  0  0  0  0  0  0  0  0  0  0
   12.0223    3.8743   24.9280 H   0  0  0  0  0  0  0  0  0  0  0  0
   12.7749    2.9644   23.6132 H   0  0  0  0  0  0  0  0  0  0  0  0
   13.0270    5.0901   23.4788 C   0  0  0  0  0  0  0  0  0  0  0  0
   13.2063    5.1005   22.3955 H   0  0  0  0  0  0  0  0  0  0  0  0
   14.0133    4.9898   23.9557 H   0  0  0  0  0  0  0  0  0  0  0  0
   12.4129    6.4097   23.9375 C   0  0  0  0  0  0  0  0  0  0  0  0
   13.0805    7.2587   23.7553 H   0  0  0  0  0  0  0  0  0  0  0  0
   12.2139    6.3731   25.0154 H   0  0  0  0  0  0  0  0  0  0  0  0
   11.4674    6.6016   23.4198 H   0  0  0  0  0  0  0  0  0  0  0  0
    7.3233   -0.7614   21.0032 C   0  0  0  0  0  0  0  0  0  0  0  0
    6.6107   -0.0269   19.9412 C   0  0  0  0  0  0  0  0  0  0  0  0
    7.1576   -0.0240   18.6546 C   0  0  0  0  0  0  0  0  0  0  0  0
    8.0768   -0.5727   18.4505 H   0  0  0  0  0  0  0  0  0  0  0  0
    6.6168    0.6203   17.6096 N   0  0  0  0  0  0  0  0  0  0  0  0
    5.4730    1.2820   17.8310 C   0  0  0  0  0  0  0  0  0  0  0  0
    5.0391    1.7992   16.9759 H   0  0  0  0  0  0  0  0  0  0  0  0
    4.8212    1.3088   19.0705 C   0  0  0  0  0  0  0  0  0  0  0  0
    3.8907    1.8557   19.1758 H   0  0  0  0  0  0  0  0  0  0  0  0
    5.3884    0.6241   20.1479 C   0  0  0  0  0  0  0  0  0  0  0  0
    4.8955    0.5989   21.1234 H   0  0  0  0  0  0  0  0  0  0  0  0
    6.6777   -1.8428   21.4579 N   0  0  0  0  0  0  0  0  0  0  0  0
  1  2  1  0
  2  3  2  0
  3  4  1  0
  4  5  1  0
  4  6  2  0
  6  7  1  0
  7  8  1  0
  7  9  1  0
  7 10  1  0
 10 11  1  0
 10 12  1  0
 10 13  1  0
 13 14  1  0
 13 15  1  0
 13 16  1  0
 16 17  1  0
 16 18  1  0
 16 19  1  0
 19 20  1  0
 19 21  1  0
 19 22  1  0
 22 23  1  0
 22 24  1  0
 22 25  1  0
 25 26  1  0
 25 27  1  0
 25 28  1  0
 28 29  1  0
 28 30  1  0
 28 31  1  0
  6 32  1  0
 32 33  1  0
 33 34  2  0
 34 35  1  0
 34 36  1  0
 36 37  2  0
 37 38  1  0
 37 39  1  0
 39 40  1  0
 39 41  2  0
 41 42  1  0
 32 43  2  0
 43  2  1  0
 41 33  1  0
M  END
>  <cnnaffinity>  (1) 
-5.57589

>  <filename>  (1) 
CCCCCCCCc1cncnc1-c1cccnc1

$$$$
