
     RDKit          3D

 42 44  0  0  0  0  0  0  0  0999 V2000
    8.2246   -5.8084   23.3653 C   0  0  0  0  0  0  0  0  0  0  0  0
    7.6570   -4.4263   23.0640 C   0  0  0  0  0  0  0  0  0  0  0  0
    8.6297   -3.6148   22.1935 C   0  0  0  0  0  0  0  0  0  0  0  0
    8.2026   -2.2233   21.9012 C   0  0  0  0  0  0  0  0  0  0  0  0
    7.6796   -1.8942   20.7412 N   0  0  0  0  0  0  0  0  0  0  0  0
    7.3574   -0.5920   20.9070 N   0  0  0  0  0  0  0  0  0  0  0  0
    6.6352    0.0704   19.8854 C   0  0  0  0  0  0  0  0  0  0  0  0
    5.4089    0.6994   20.1232 C   0  0  0  0  0  0  0  0  0  0  0  0
    4.7876    1.3319   19.0410 C   0  0  0  0  0  0  0  0  0  0  0  0
    5.4057    1.3046   17.7873 C   0  0  0  0  0  0  0  0  0  0  0  0
    6.5518    0.6395   17.5471 N   0  0  0  0  0  0  0  0  0  0  0  0
    7.1351    0.0195   18.5745 C   0  0  0  0  0  0  0  0  0  0  0  0
    8.0426   -0.5477   18.3715 H   0  0  0  0  0  0  0  0  0  0  0  0
    4.9765    1.8411   16.9436 H   0  0  0  0  0  0  0  0  0  0  0  0
    3.8505    1.8593   19.1705 H   0  0  0  0  0  0  0  0  0  0  0  0
    4.9380    0.6500   21.1076 H   0  0  0  0  0  0  0  0  0  0  0  0
    7.7608   -0.1877   22.1467 C   0  0  0  0  0  0  0  0  0  0  0  0
    7.7395    1.2373   22.6484 C   0  0  0  0  0  0  0  0  0  0  0  0
    7.3184    1.3806   24.0482 N   0  0  0  0  0  0  0  0  0  0  0  0
    5.9847    1.3434   24.3575 C   0  0  0  0  0  0  0  0  0  0  0  0
    5.5488    1.3605   25.6530 C   0  0  0  0  0  0  0  0  0  0  0  0
    4.0787    1.4605   25.9499 C   0  0  0  0  0  0  0  0  0  0  0  0
    3.3329    0.8163   25.0289 F   0  0  0  0  0  0  0  0  0  0  0  0
    3.7670    0.9385   27.1488 F   0  0  0  0  0  0  0  0  0  0  0  0
    3.6489    2.7378   25.9620 F   0  0  0  0  0  0  0  0  0  0  0  0
    6.5001    1.3127   26.7176 C   0  0  0  0  0  0  0  0  0  0  0  0
    7.8265    1.3004   26.4269 C   0  0  0  0  0  0  0  0  0  0  0  0
    8.3288    1.3799   25.0681 C   0  0  0  0  0  0  0  0  0  0  0  0
    9.5163    1.4263   24.7851 O   0  0  0  0  0  0  0  0  0  0  0  0
    8.6059    1.2367   27.1700 H   0  0  0  0  0  0  0  0  0  0  0  0
    6.1700    1.2582   27.7575 H   0  0  0  0  0  0  0  0  0  0  0  0
    5.2972    1.2835   23.5111 H   0  0  0  0  0  0  0  0  0  0  0  0
    7.1137    1.8717   22.0156 H   0  0  0  0  0  0  0  0  0  0  0  0
    8.7535    1.6397   22.5907 H   0  0  0  0  0  0  0  0  0  0  0  0
    8.2967   -1.2065   22.7919 N   0  0  0  0  0  0  0  0  0  0  0  0
    9.6195   -3.5664   22.6658 H   0  0  0  0  0  0  0  0  0  0  0  0
    8.7110   -4.1071   21.2226 H   0  0  0  0  0  0  0  0  0  0  0  0
    7.4480   -3.8848   23.9989 H   0  0  0  0  0  0  0  0  0  0  0  0
    6.6988   -4.5443   22.5372 H   0  0  0  0  0  0  0  0  0  0  0  0
    8.4998   -6.3427   22.4460 H   0  0  0  0  0  0  0  0  0  0  0  0
    7.4813   -6.4038   23.8914 H   0  0  0  0  0  0  0  0  0  0  0  0
    9.1119   -5.7461   24.0052 H   0  0  0  0  0  0  0  0  0  0  0  0
  1  2  1  0
  2  3  1  0
  3  4  1  0
  4  5  2  0
  5  6  1  0
  6  7  1  0
  7  8  2  0
  8  9  1  0
  9 10  2  0
 10 11  1  0
 11 12  2  0
 12 13  1  0
 10 14  1  0
  9 15  1  0
  8 16  1  0
  6 17  1  0
 17 18  1  0
 18 19  1  0
 19 20  1  0
 20 21  2  0
 21 22  1  0
 22 23  1  0
 22 24  1  0
 22 25  1  0
 21 26  1  0
 26 27  2  0
 27 28  1  0
 28 29  2  0
 27 30  1  0
 26 31  1  0
 20 32  1  0
 18 33  1  0
 18 34  1  0
 17 35  2  0
  3 36  1  0
  3 37  1  0
  2 38  1  0
  2 39  1  0
  1 40  1  0
  1 41  1  0
  1 42  1  0
 35  4  1  0
 12  7  1  0
 28 19  1  0
M  END
>  <cnnaffinity>  (1) 
-5.82777

>  <filename>  (1) 
CCCc1nc(Cn2cc(C(F)(F)F)ccc2=O)n(-c2cccnc2)n1

$$$$
