
     RDKit          3D

 43 43  0  0  0  0  0  0  0  0999 V2000
    4.9432    1.8364   17.0215 H   0  0  0  0  0  0  0  0  0  0  0  0
    5.4250    1.2938   17.8318 C   0  0  0  0  0  0  0  0  0  0  0  0
    6.5801    0.6777   17.5397 N   0  0  0  0  0  0  0  0  0  0  0  0
    7.2059    0.0255   18.5374 C   0  0  0  0  0  0  0  0  0  0  0  0
    8.1482   -0.4539   18.2791 H   0  0  0  0  0  0  0  0  0  0  0  0
    6.7191   -0.0600   19.8691 C   0  0  0  0  0  0  0  0  0  0  0  0
    7.3638   -0.7779   20.9147 N   0  0  0  0  0  0  0  0  0  0  0  0
    6.6544   -1.0315   21.5977 H   0  0  0  0  0  0  0  0  0  0  0  0
    8.4888   -0.1590   21.6690 C   0  0  0  0  0  0  0  0  0  0  0  0
    9.6815   -0.0033   20.7249 C   0  0  0  0  0  0  0  0  0  0  0  0
    9.4785    0.7560   19.9632 H   0  0  0  0  0  0  0  0  0  0  0  0
   10.5876    0.3018   21.2615 H   0  0  0  0  0  0  0  0  0  0  0  0
    9.8825   -0.9531   20.2228 H   0  0  0  0  0  0  0  0  0  0  0  0
    8.7998   -1.1728   22.7747 C   0  0  0  0  0  0  0  0  0  0  0  0
    8.9595   -2.1643   22.3378 H   0  0  0  0  0  0  0  0  0  0  0  0
    9.6922   -0.9062   23.3521 H   0  0  0  0  0  0  0  0  0  0  0  0
    7.9551   -1.2399   23.4740 H   0  0  0  0  0  0  0  0  0  0  0  0
    8.0661    1.2087   22.2682 C   0  0  0  0  0  0  0  0  0  0  0  0
    7.8018    1.8745   21.4329 H   0  0  0  0  0  0  0  0  0  0  0  0
    7.1314    1.0605   22.8347 H   0  0  0  0  0  0  0  0  0  0  0  0
    9.1085    1.8934   23.1673 C   0  0  0  0  0  0  0  0  0  0  0  0
    9.3830    1.2257   23.9940 H   0  0  0  0  0  0  0  0  0  0  0  0
   10.0322    2.0688   22.5939 H   0  0  0  0  0  0  0  0  0  0  0  0
    8.6499    3.2318   23.7623 C   0  0  0  0  0  0  0  0  0  0  0  0
    7.6867    3.0971   24.2831 H   0  0  0  0  0  0  0  0  0  0  0  0
    9.3692    3.5404   24.5366 H   0  0  0  0  0  0  0  0  0  0  0  0
    8.5419    4.3631   22.7292 C   0  0  0  0  0  0  0  0  0  0  0  0
    7.8349    4.0778   21.9347 H   0  0  0  0  0  0  0  0  0  0  0  0
    9.5219    4.4814   22.2482 H   0  0  0  0  0  0  0  0  0  0  0  0
    8.1163    5.6969   23.3477 C   0  0  0  0  0  0  0  0  0  0  0  0
    7.2057    5.5265   23.9403 H   0  0  0  0  0  0  0  0  0  0  0  0
    8.8873    6.0249   24.0657 H   0  0  0  0  0  0  0  0  0  0  0  0
    7.8206    6.8395   22.3634 C   0  0  0  0  0  0  0  0  0  0  0  0
    8.7476    7.1619   21.8743 H   0  0  0  0  0  0  0  0  0  0  0  0
    7.1597    6.4896   21.5555 H   0  0  0  0  0  0  0  0  0  0  0  0
    7.1554    8.0244   23.0790 C   0  0  0  0  0  0  0  0  0  0  0  0
    6.8199    8.8136   22.3949 H   0  0  0  0  0  0  0  0  0  0  0  0
    7.8376    8.4847   23.8054 H   0  0  0  0  0  0  0  0  0  0  0  0
    6.2769    7.6737   23.6319 H   0  0  0  0  0  0  0  0  0  0  0  0
    5.4965    0.5758   20.1324 C   0  0  0  0  0  0  0  0  0  0  0  0
    5.1000    0.5602   21.1502 H   0  0  0  0  0  0  0  0  0  0  0  0
    4.8434    1.2647   19.1061 C   0  0  0  0  0  0  0  0  0  0  0  0
    3.9115    1.7882   19.2818 H   0  0  0  0  0  0  0  0  0  0  0  0
  1  2  1  0
  2  3  2  0
  3  4  1  0
  4  5  1  0
  4  6  2  0
  6  7  1  0
  7  8  1  0
  7  9  1  0
  9 10  1  0
 10 11  1  0
 10 12  1  0
 10 13  1  0
  9 14  1  0
 14 15  1  0
 14 16  1  0
 14 17  1  0
  9 18  1  0
 18 19  1  0
 18 20  1  0
 18 21  1  0
 21 22  1  0
 21 23  1  0
 21 24  1  0
 24 25  1  0
 24 26  1  0
 24 27  1  0
 27 28  1  0
 27 29  1  0
 27 30  1  0
 30 31  1  0
 30 32  1  0
 30 33  1  0
 33 34  1  0
 33 35  1  0
 33 36  1  0
 36 37  1  0
 36 38  1  0
 36 39  1  0
  6 40  1  0
 40 41  1  0
 40 42  2  0
 42 43  1  0
 42  2  1  0
M  END
>  <cnnaffinity>  (1) 
-4.8047

>  <filename>  (1) 
CCCCCCCC(C)(C)Nc1cccnc1

$$$$
