
     RDKit          3D

 40 43  0  0  0  0  0  0  0  0999 V2000
    8.5206   -5.7979   23.2807 C   0  0  0  0  0  0  0  0  0  0  0  0
    7.8396   -4.4656   22.9817 C   0  0  0  0  0  0  0  0  0  0  0  0
    8.7263   -3.5343   22.1424 C   0  0  0  0  0  0  0  0  0  0  0  0
    8.1758   -2.1682   21.9229 C   0  0  0  0  0  0  0  0  0  0  0  0
    7.7892   -1.8125   20.7161 N   0  0  0  0  0  0  0  0  0  0  0  0
    7.2509   -0.5948   20.9155 N   0  0  0  0  0  0  0  0  0  0  0  0
    6.5667    0.0447   19.8646 C   0  0  0  0  0  0  0  0  0  0  0  0
    5.3502    0.6967   20.0803 C   0  0  0  0  0  0  0  0  0  0  0  0
    4.7780    1.3587   18.9964 C   0  0  0  0  0  0  0  0  0  0  0  0
    5.4204    1.3249   17.7552 C   0  0  0  0  0  0  0  0  0  0  0  0
    6.5645    0.6494   17.5364 N   0  0  0  0  0  0  0  0  0  0  0  0
    7.1128    0.0102   18.5719 C   0  0  0  0  0  0  0  0  0  0  0  0
    8.0266   -0.5538   18.3913 H   0  0  0  0  0  0  0  0  0  0  0  0
    5.0005    1.8500   16.9024 H   0  0  0  0  0  0  0  0  0  0  0  0
    3.8479    1.9007   19.1104 H   0  0  0  0  0  0  0  0  0  0  0  0
    4.8682    0.6716   21.0577 H   0  0  0  0  0  0  0  0  0  0  0  0
    7.4331   -0.2251   22.2182 C   0  0  0  0  0  0  0  0  0  0  0  0
    7.1629    1.1869   22.6617 C   0  0  0  0  0  0  0  0  0  0  0  0
    7.6787    2.3262   21.6975 C   0  0  0  0  0  0  0  0  0  0  0  0
    8.5762    2.7616   22.8258 C   0  0  0  0  0  0  0  0  0  0  0  0
    8.1044    1.7836   23.6948 C   0  0  0  0  0  0  0  0  0  0  0  0
    8.6915    1.5580   24.9250 C   0  0  0  0  0  0  0  0  0  0  0  0
    8.1293    0.3225   26.0088 Cl  0  0  0  0  0  0  0  0  0  0  0  0
    9.7872    2.3610   25.2743 C   0  0  0  0  0  0  0  0  0  0  0  0
   10.2392    3.3626   24.3990 C   0  0  0  0  0  0  0  0  0  0  0  0
    9.6471    3.5861   23.1419 C   0  0  0  0  0  0  0  0  0  0  0  0
   10.0336    4.3333   22.4507 H   0  0  0  0  0  0  0  0  0  0  0  0
   11.1004    3.9578   24.6824 H   0  0  0  0  0  0  0  0  0  0  0  0
   10.2715    2.1422   26.2188 H   0  0  0  0  0  0  0  0  0  0  0  0
    6.8929    3.0298   21.4103 H   0  0  0  0  0  0  0  0  0  0  0  0
    8.2061    1.9693   20.8075 H   0  0  0  0  0  0  0  0  0  0  0  0
    6.1042    1.3024   22.9189 H   0  0  0  0  0  0  0  0  0  0  0  0
    7.9797   -1.2260   22.8867 N   0  0  0  0  0  0  0  0  0  0  0  0
    8.8324   -3.9603   21.1408 H   0  0  0  0  0  0  0  0  0  0  0  0
    9.7179   -3.4384   22.5989 H   0  0  0  0  0  0  0  0  0  0  0  0
    6.9049   -4.6511   22.4362 H   0  0  0  0  0  0  0  0  0  0  0  0
    7.5649   -3.9632   23.9178 H   0  0  0  0  0  0  0  0  0  0  0  0
    8.9325   -6.2516   22.3712 H   0  0  0  0  0  0  0  0  0  0  0  0
    7.8058   -6.5082   23.7007 H   0  0  0  0  0  0  0  0  0  0  0  0
    9.3389   -5.6797   24.0015 H   0  0  0  0  0  0  0  0  0  0  0  0
  1  2  1  0
  2  3  1  0
  3  4  1  0
  4  5  2  0
  5  6  1  0
  6  7  1  0
  7  8  2  0
  8  9  1  0
  9 10  2  0
 10 11  1  0
 11 12  2  0
 12 13  1  0
 10 14  1  0
  9 15  1  0
  8 16  1  0
  6 17  1  0
 17 18  1  0
 18 19  1  0
 19 20  1  0
 20 21  2  0
 21 22  1  0
 22 23  1  0
 22 24  2  0
 24 25  1  0
 25 26  2  0
 26 27  1  0
 25 28  1  0
 24 29  1  0
 19 30  1  0
 19 31  1  0
 18 32  1  0
 17 33  2  0
  3 34  1  0
  3 35  1  0
  2 36  1  0
  2 37  1  0
  1 38  1  0
  1 39  1  0
  1 40  1  0
 33  4  1  0
 12  7  1  0
 21 18  1  0
 26 20  1  0
M  END
>  <cnnaffinity>  (1) 
-5.9908

>  <filename>  (1) 
CCCc1nc(C2Cc3cccc(Cl)c32)n(-c2cccnc2)n1

$$$$
