
     RDKit          3D

 47 49  0  0  0  0  0  0  0  0999 V2000
    7.2973   -3.7794   25.1753 C   0  0  0  0  0  0  0  0  0  0  0  0
    6.6849   -4.1482   23.8233 C   0  0  0  0  0  0  0  0  0  0  0  0
    7.6939   -4.5252   22.7344 C   0  0  0  0  0  0  0  0  0  0  0  0
    8.7262   -3.4375   22.3416 C   0  0  0  0  0  0  0  0  0  0  0  0
    9.9354   -3.3229   23.3048 C   0  0  0  0  0  0  0  0  0  0  0  0
   10.8454   -3.0440   22.7664 H   0  0  0  0  0  0  0  0  0  0  0  0
    9.7902   -2.5530   24.0717 H   0  0  0  0  0  0  0  0  0  0  0  0
   10.1425   -4.2654   23.8273 H   0  0  0  0  0  0  0  0  0  0  0  0
    8.0882   -2.1038   22.0607 C   0  0  0  0  0  0  0  0  0  0  0  0
    7.7048   -1.7863   20.8411 N   0  0  0  0  0  0  0  0  0  0  0  0
    7.2142   -0.5284   20.9888 N   0  0  0  0  0  0  0  0  0  0  0  0
    6.5498    0.0863   19.8987 C   0  0  0  0  0  0  0  0  0  0  0  0
    5.3381    0.7584   20.0777 C   0  0  0  0  0  0  0  0  0  0  0  0
    4.7747    1.3890   18.9637 C   0  0  0  0  0  0  0  0  0  0  0  0
    5.4388    1.3207   17.7344 C   0  0  0  0  0  0  0  0  0  0  0  0
    6.5733    0.6231   17.5495 N   0  0  0  0  0  0  0  0  0  0  0  0
    7.1009   -0.0034   18.6062 C   0  0  0  0  0  0  0  0  0  0  0  0
    7.9876   -0.6082   18.4286 H   0  0  0  0  0  0  0  0  0  0  0  0
    5.0266    1.8117   16.8545 H   0  0  0  0  0  0  0  0  0  0  0  0
    3.8372    1.9278   19.0448 H   0  0  0  0  0  0  0  0  0  0  0  0
    4.8563    0.7663   21.0564 H   0  0  0  0  0  0  0  0  0  0  0  0
    7.4097   -0.1178   22.2813 C   0  0  0  0  0  0  0  0  0  0  0  0
    7.3201    1.2891   22.8335 C   0  0  0  0  0  0  0  0  0  0  0  0
    8.6416    1.7586   23.4581 C   0  0  0  0  0  0  0  0  0  0  0  0
    8.8780    1.6387   24.8346 C   0  0  0  0  0  0  0  0  0  0  0  0
   10.0546    1.8687   25.4348 N   0  0  0  0  0  0  0  0  0  0  0  0
   11.0572    2.2679   24.6502 C   0  0  0  0  0  0  0  0  0  0  0  0
   10.9385    2.4660   23.2788 C   0  0  0  0  0  0  0  0  0  0  0  0
    9.7207    2.1768   22.6555 C   0  0  0  0  0  0  0  0  0  0  0  0
    9.5941    2.2784   21.1689 C   0  0  0  0  0  0  0  0  0  0  0  0
    9.3289    1.3116   20.7286 H   0  0  0  0  0  0  0  0  0  0  0  0
   10.5330    2.6066   20.7226 H   0  0  0  0  0  0  0  0  0  0  0  0
    8.8124    2.9895   20.8888 H   0  0  0  0  0  0  0  0  0  0  0  0
   11.7803    2.8535   22.7114 H   0  0  0  0  0  0  0  0  0  0  0  0
   12.0182    2.4484   25.1273 H   0  0  0  0  0  0  0  0  0  0  0  0
    8.0597    1.3278   25.4854 H   0  0  0  0  0  0  0  0  0  0  0  0
    6.9982    1.9795   22.0435 H   0  0  0  0  0  0  0  0  0  0  0  0
    6.5484    1.2853   23.6115 H   0  0  0  0  0  0  0  0  0  0  0  0
    7.9015   -1.1267   22.9808 N   0  0  0  0  0  0  0  0  0  0  0  0
    9.0692   -3.7186   21.3435 H   0  0  0  0  0  0  0  0  0  0  0  0
    7.1484   -4.8319   21.8298 H   0  0  0  0  0  0  0  0  0  0  0  0
    8.2574   -5.4107   23.0596 H   0  0  0  0  0  0  0  0  0  0  0  0
    6.0154   -5.0051   23.9624 H   0  0  0  0  0  0  0  0  0  0  0  0
    6.0590   -3.3177   23.4649 H   0  0  0  0  0  0  0  0  0  0  0  0
    8.0255   -4.5263   25.5169 H   0  0  0  0  0  0  0  0  0  0  0  0
    6.5206   -3.7002   25.9429 H   0  0  0  0  0  0  0  0  0  0  0  0
    7.8042   -2.8120   25.1268 H   0  0  0  0  0  0  0  0  0  0  0  0
  1  2  1  0
  2  3  1  0
  3  4  1  0
  4  5  1  0
  5  6  1  0
  5  7  1  0
  5  8  1  0
  4  9  1  0
  9 10  2  0
 10 11  1  0
 11 12  1  0
 12 13  2  0
 13 14  1  0
 14 15  2  0
 15 16  1  0
 16 17  2  0
 17 18  1  0
 15 19  1  0
 14 20  1  0
 13 21  1  0
 11 22  1  0
 22 23  1  0
 23 24  1  0
 24 25  2  0
 25 26  1  0
 26 27  2  0
 27 28  1  0
 28 29  2  0
 29 30  1  0
 30 31  1  0
 30 32  1  0
 30 33  1  0
 28 34  1  0
 27 35  1  0
 25 36  1  0
 23 37  1  0
 23 38  1  0
 22 39  2  0
  4 40  1  0
  3 41  1  0
  3 42  1  0
  2 43  1  0
  2 44  1  0
  1 45  1  0
  1 46  1  0
  1 47  1  0
 39  9  1  0
 17 12  1  0
 29 24  1  0
M  END
>  <cnnaffinity>  (1) 
-6.28853

>  <filename>  (1) 
CCCC(C)c1nc(Cc2cnccc2C)n(-c2cccnc2)n1

$$$$
