
     RDKit          3D

 38 39  0  0  0  0  0  0  0  0999 V2000
    4.9249    1.7830   16.9916 H   0  0  0  0  0  0  0  0  0  0  0  0
    5.4001    1.2931   17.8361 C   0  0  0  0  0  0  0  0  0  0  0  0
    6.5614    0.6769   17.5754 N   0  0  0  0  0  0  0  0  0  0  0  0
    7.1614    0.0667   18.5972 C   0  0  0  0  0  0  0  0  0  0  0  0
    8.1060   -0.4107   18.3563 H   0  0  0  0  0  0  0  0  0  0  0  0
    6.6473    0.0143   19.9028 C   0  0  0  0  0  0  0  0  0  0  0  0
    7.3797   -0.6967   20.9462 C   0  0  0  0  0  0  0  0  0  0  0  0
    6.9213   -0.7114   22.2614 N   0  0  0  0  0  0  0  0  0  0  0  0
    7.7940   -1.4159   22.9016 C   0  0  0  0  0  0  0  0  0  0  0  0
    7.7837   -1.8096   24.3361 C   0  0  0  0  0  0  0  0  0  0  0  0
    8.7813   -1.6518   24.7547 H   0  0  0  0  0  0  0  0  0  0  0  0
    7.1077   -1.1132   24.8341 H   0  0  0  0  0  0  0  0  0  0  0  0
    7.3142   -3.2535   24.5730 C   0  0  0  0  0  0  0  0  0  0  0  0
    7.4640   -3.5048   25.6301 H   0  0  0  0  0  0  0  0  0  0  0  0
    7.9576   -3.9376   24.0102 H   0  0  0  0  0  0  0  0  0  0  0  0
    5.8550   -3.4830   24.1732 C   0  0  0  0  0  0  0  0  0  0  0  0
    5.6873   -3.1222   23.1503 H   0  0  0  0  0  0  0  0  0  0  0  0
    5.2069   -2.8586   24.8011 H   0  0  0  0  0  0  0  0  0  0  0  0
    5.4152   -4.9473   24.2676 C   0  0  0  0  0  0  0  0  0  0  0  0
    6.0240   -5.5404   23.5725 H   0  0  0  0  0  0  0  0  0  0  0  0
    4.3818   -5.0339   23.9062 H   0  0  0  0  0  0  0  0  0  0  0  0
    5.4954   -5.5730   25.6636 C   0  0  0  0  0  0  0  0  0  0  0  0
    5.2107   -6.6304   25.5921 H   0  0  0  0  0  0  0  0  0  0  0  0
    6.5353   -5.5803   26.0142 H   0  0  0  0  0  0  0  0  0  0  0  0
    4.6147   -4.8908   26.7095 C   0  0  0  0  0  0  0  0  0  0  0  0
    3.5974   -4.7954   26.3126 H   0  0  0  0  0  0  0  0  0  0  0  0
    4.9562   -3.8631   26.8769 H   0  0  0  0  0  0  0  0  0  0  0  0
    4.5839   -5.6407   28.0362 C   0  0  0  0  0  0  0  0  0  0  0  0
    4.1994   -6.6584   27.9043 H   0  0  0  0  0  0  0  0  0  0  0  0
    3.9517   -5.1371   28.7740 H   0  0  0  0  0  0  0  0  0  0  0  0
    5.5892   -5.7281   28.4630 H   0  0  0  0  0  0  0  0  0  0  0  0
    8.8019   -1.8853   22.1288 O   0  0  0  0  0  0  0  0  0  0  0  0
    8.5260   -1.4123   20.8796 C   0  0  0  0  0  0  0  0  0  0  0  0
    9.2142   -1.6530   20.0825 H   0  0  0  0  0  0  0  0  0  0  0  0
    5.4254    0.6583   20.1627 C   0  0  0  0  0  0  0  0  0  0  0  0
    5.0068    0.6339   21.1742 H   0  0  0  0  0  0  0  0  0  0  0  0
    4.8018    1.3116   19.1027 C   0  0  0  0  0  0  0  0  0  0  0  0
    3.8719    1.8443   19.2516 H   0  0  0  0  0  0  0  0  0  0  0  0
  1  2  1  0
  2  3  2  0
  3  4  1  0
  4  5  1  0
  4  6  2  0
  6  7  1  0
  7  8  1  0
  8  9  2  0
  9 10  1  0
 10 11  1  0
 10 12  1  0
 10 13  1  0
 13 14  1  0
 13 15  1  0
 13 16  1  0
 16 17  1  0
 16 18  1  0
 16 19  1  0
 19 20  1  0
 19 21  1  0
 19 22  1  0
 22 23  1  0
 22 24  1  0
 22 25  1  0
 25 26  1  0
 25 27  1  0
 25 28  1  0
 28 29  1  0
 28 30  1  0
 28 31  1  0
  9 32  1  0
 32 33  1  0
 33 34  1  0
  6 35  1  0
 35 36  1  0
 35 37  2  0
 37 38  1  0
 37  2  1  0
 33  7  2  0
M  END
>  <cnnaffinity>  (1) 
-4.97653

>  <filename>  (1) 
CCCCCCCc1nc(-c2cccnc2)co1

$$$$
