
     RDKit          3D

 45 46  0  0  0  0  0  0  0  0999 V2000
    4.9086    1.8045   16.9781 H   0  0  0  0  0  0  0  0  0  0  0  0
    5.3832    1.3033   17.8176 C   0  0  0  0  0  0  0  0  0  0  0  0
    6.5413    0.6838   17.5432 N   0  0  0  0  0  0  0  0  0  0  0  0
    7.1594    0.0760   18.5670 C   0  0  0  0  0  0  0  0  0  0  0  0
    8.1072   -0.4166   18.3397 H   0  0  0  0  0  0  0  0  0  0  0  0
    6.6571    0.0277   19.8803 C   0  0  0  0  0  0  0  0  0  0  0  0
    7.3688   -0.7195   20.9528 C   0  0  0  0  0  0  0  0  0  0  0  0
    6.7782   -1.9176   21.4665 C   0  0  0  0  0  0  0  0  0  0  0  0
    5.8271   -2.2193   21.0262 H   0  0  0  0  0  0  0  0  0  0  0  0
    7.3875   -2.6526   22.4387 C   0  0  0  0  0  0  0  0  0  0  0  0
    6.9964   -3.5696   22.8543 H   0  0  0  0  0  0  0  0  0  0  0  0
    8.6567   -2.2089   23.0051 C   0  0  0  0  0  0  0  0  0  0  0  0
    9.3055   -2.7574   23.8804 O   0  0  0  0  0  0  0  0  0  0  0  0
    9.1481   -1.0335   22.4625 N   0  0  0  0  0  0  0  0  0  0  0  0
   10.0102   -0.7745   22.9154 H   0  0  0  0  0  0  0  0  0  0  0  0
    8.5691   -0.2730   21.4744 C   0  0  0  0  0  0  0  0  0  0  0  0
    9.2568    1.0128   21.1371 C   0  0  0  0  0  0  0  0  0  0  0  0
    8.8601    1.3537   20.1797 H   0  0  0  0  0  0  0  0  0  0  0  0
   10.3341    0.8474   20.9991 H   0  0  0  0  0  0  0  0  0  0  0  0
    9.0276    2.1342   22.1721 C   0  0  0  0  0  0  0  0  0  0  0  0
    9.6408    3.0059   21.8996 H   0  0  0  0  0  0  0  0  0  0  0  0
    9.3881    1.8010   23.1568 H   0  0  0  0  0  0  0  0  0  0  0  0
    7.5540    2.5549   22.2898 C   0  0  0  0  0  0  0  0  0  0  0  0
    6.9449    1.6741   22.5435 H   0  0  0  0  0  0  0  0  0  0  0  0
    7.1808    2.8875   21.3067 H   0  0  0  0  0  0  0  0  0  0  0  0
    7.3195    3.6631   23.3198 C   0  0  0  0  0  0  0  0  0  0  0  0
    7.7576    3.3627   24.2849 H   0  0  0  0  0  0  0  0  0  0  0  0
    6.2391    3.7669   23.4988 H   0  0  0  0  0  0  0  0  0  0  0  0
    7.8827    5.0271   22.8930 C   0  0  0  0  0  0  0  0  0  0  0  0
    8.9828    4.9837   22.8503 H   0  0  0  0  0  0  0  0  0  0  0  0
    7.5507    5.2469   21.8675 H   0  0  0  0  0  0  0  0  0  0  0  0
    7.4609    6.1775   23.8139 C   0  0  0  0  0  0  0  0  0  0  0  0
    7.7434    7.1343   23.3509 H   0  0  0  0  0  0  0  0  0  0  0  0
    6.3612    6.1935   23.8932 H   0  0  0  0  0  0  0  0  0  0  0  0
    8.0661    6.1013   25.2209 C   0  0  0  0  0  0  0  0  0  0  0  0
    9.1603    6.0152   25.1339 H   0  0  0  0  0  0  0  0  0  0  0  0
    7.7333    5.1784   25.7182 H   0  0  0  0  0  0  0  0  0  0  0  0
    7.7051    7.3157   26.0785 C   0  0  0  0  0  0  0  0  0  0  0  0
    8.0616    8.2433   25.6122 H   0  0  0  0  0  0  0  0  0  0  0  0
    6.6172    7.4066   26.1944 H   0  0  0  0  0  0  0  0  0  0  0  0
    8.1458    7.2506   27.0790 H   0  0  0  0  0  0  0  0  0  0  0  0
    5.4344    0.6568   20.1366 C   0  0  0  0  0  0  0  0  0  0  0  0
    5.0184    0.6236   21.1476 H   0  0  0  0  0  0  0  0  0  0  0  0
    4.7948    1.3191   19.0880 C   0  0  0  0  0  0  0  0  0  0  0  0
    3.8646    1.8472   19.2426 H   0  0  0  0  0  0  0  0  0  0  0  0
  1  2  1  0
  2  3  2  0
  3  4  1  0
  4  5  1  0
  4  6  2  0
  6  7  1  0
  7  8  1  0
  8  9  1  0
  8 10  2  0
 10 11  1  0
 10 12  1  0
 12 13  2  0
 12 14  1  0
 14 15  1  0
 14 16  1  0
 16 17  1  0
 17 18  1  0
 17 19  1  0
 17 20  1  0
 20 21  1  0
 20 22  1  0
 20 23  1  0
 23 24  1  0
 23 25  1  0
 23 26  1  0
 26 27  1  0
 26 28  1  0
 26 29  1  0
 29 30  1  0
 29 31  1  0
 29 32  1  0
 32 33  1  0
 32 34  1  0
 32 35  1  0
 35 36  1  0
 35 37  1  0
 35 38  1  0
 38 39  1  0
 38 40  1  0
 38 41  1  0
  6 42  1  0
 42 43  1  0
 42 44  2  0
 44 45  1  0
 44  2  1  0
 16  7  2  0
M  END
>  <cnnaffinity>  (1) 
-5.42038

>  <filename>  (1) 
CCCCCCCCc1[nH]c(=O)ccc1-c1cccnc1

$$$$
