
     RDKit          3D

 42 43  0  0  0  0  0  0  0  0999 V2000
    4.9929    1.9121   16.8129 H   0  0  0  0  0  0  0  0  0  0  0  0
    5.4417    1.3906   17.6552 C   0  0  0  0  0  0  0  0  0  0  0  0
    6.5975    0.7538   17.4060 N   0  0  0  0  0  0  0  0  0  0  0  0
    7.1756    0.1152   18.4274 C   0  0  0  0  0  0  0  0  0  0  0  0
    8.1246   -0.3666   18.1878 H   0  0  0  0  0  0  0  0  0  0  0  0
    6.6515    0.0467   19.7343 C   0  0  0  0  0  0  0  0  0  0  0  0
    7.3646   -0.6916   20.7929 C   0  0  0  0  0  0  0  0  0  0  0  0
    6.7537   -0.7633   22.4162 S   0  0  0  0  0  0  0  0  0  0  0  0
    8.0858   -1.7181   22.9619 C   0  0  0  0  0  0  0  0  0  0  0  0
    8.2998   -2.0517   24.4101 C   0  0  0  0  0  0  0  0  0  0  0  0
    7.4130   -1.7947   25.0015 H   0  0  0  0  0  0  0  0  0  0  0  0
    8.4334   -3.1376   24.5148 H   0  0  0  0  0  0  0  0  0  0  0  0
    9.5390   -1.3349   24.9796 C   0  0  0  0  0  0  0  0  0  0  0  0
    9.6824   -1.6403   26.0220 H   0  0  0  0  0  0  0  0  0  0  0  0
   10.4227   -1.6916   24.4315 H   0  0  0  0  0  0  0  0  0  0  0  0
    9.5138    0.1986   24.8671 C   0  0  0  0  0  0  0  0  0  0  0  0
    9.3392    0.4626   23.8132 H   0  0  0  0  0  0  0  0  0  0  0  0
   10.5201    0.5586   25.1112 H   0  0  0  0  0  0  0  0  0  0  0  0
    8.5082    0.9950   25.7243 C   0  0  0  0  0  0  0  0  0  0  0  0
    8.9482    1.9915   25.8804 H   0  0  0  0  0  0  0  0  0  0  0  0
    7.5771    1.1720   25.1687 H   0  0  0  0  0  0  0  0  0  0  0  0
    8.1455    0.4349   27.1026 C   0  0  0  0  0  0  0  0  0  0  0  0
    7.4649   -0.4255   27.0056 H   0  0  0  0  0  0  0  0  0  0  0  0
    9.0453    0.0468   27.6057 H   0  0  0  0  0  0  0  0  0  0  0  0
    7.4863    1.5056   27.9787 C   0  0  0  0  0  0  0  0  0  0  0  0
    8.1331    2.3935   27.9840 H   0  0  0  0  0  0  0  0  0  0  0  0
    6.5335    1.8329   27.5326 H   0  0  0  0  0  0  0  0  0  0  0  0
    7.2650    1.0728   29.4286 C   0  0  0  0  0  0  0  0  0  0  0  0
    6.7520    0.1019   29.4407 H   0  0  0  0  0  0  0  0  0  0  0  0
    6.5802    1.7854   29.9020 H   0  0  0  0  0  0  0  0  0  0  0  0
    8.5619    1.0335   30.2440 C   0  0  0  0  0  0  0  0  0  0  0  0
    8.3984    0.6796   31.2676 H   0  0  0  0  0  0  0  0  0  0  0  0
    9.3264    0.3899   29.7905 H   0  0  0  0  0  0  0  0  0  0  0  0
    8.9792    2.0457   30.3037 H   0  0  0  0  0  0  0  0  0  0  0  0
    8.9416   -1.9761   21.9266 C   0  0  0  0  0  0  0  0  0  0  0  0
    9.8535   -2.5515   22.0559 H   0  0  0  0  0  0  0  0  0  0  0  0
    8.5358   -1.3906   20.6971 C   0  0  0  0  0  0  0  0  0  0  0  0
    9.1024   -1.4753   19.7760 H   0  0  0  0  0  0  0  0  0  0  0  0
    5.4340    0.7233   19.9686 C   0  0  0  0  0  0  0  0  0  0  0  0
    4.9903    0.7222   20.9640 H   0  0  0  0  0  0  0  0  0  0  0  0
    4.8272    1.4022   18.9114 C   0  0  0  0  0  0  0  0  0  0  0  0
    3.9035    1.9508   19.0554 H   0  0  0  0  0  0  0  0  0  0  0  0
  1  2  1  0
  2  3  2  0
  3  4  1  0
  4  5  1  0
  4  6  2  0
  6  7  1  0
  7  8  1  0
  8  9  1  0
  9 10  1  0
 10 11  1  0
 10 12  1  0
 10 13  1  0
 13 14  1  0
 13 15  1  0
 13 16  1  0
 16 17  1  0
 16 18  1  0
 16 19  1  0
 19 20  1  0
 19 21  1  0
 19 22  1  0
 22 23  1  0
 22 24  1  0
 22 25  1  0
 25 26  1  0
 25 27  1  0
 25 28  1  0
 28 29  1  0
 28 30  1  0
 28 31  1  0
 31 32  1  0
 31 33  1  0
 31 34  1  0
  9 35  2  0
 35 36  1  0
 35 37  1  0
 37 38  1  0
  6 39  1  0
 39 40  1  0
 39 41  2  0
 41 42  1  0
 41  2  1  0
 37  7  2  0
M  END
>  <cnnaffinity>  (1) 
-4.92774

>  <filename>  (1) 
CCCCCCCCc1ccc(-c2cccnc2)s1

$$$$
