
     RDKit          3D

 35 36  0  0  0  0  0  0  0  0999 V2000
    4.9163    1.8130   16.9844 H   0  0  0  0  0  0  0  0  0  0  0  0
    5.3879    1.3048   17.8255 C   0  0  0  0  0  0  0  0  0  0  0  0
    6.5442    0.6792   17.5576 N   0  0  0  0  0  0  0  0  0  0  0  0
    7.1646    0.0615   18.5716 C   0  0  0  0  0  0  0  0  0  0  0  0
    8.1048   -0.4302   18.3280 H   0  0  0  0  0  0  0  0  0  0  0  0
    6.6663    0.0127   19.8948 C   0  0  0  0  0  0  0  0  0  0  0  0
    7.3438   -0.6656   20.9563 N   0  0  0  0  0  0  0  0  0  0  0  0
    6.8244   -1.6452   21.7704 C   0  0  0  0  0  0  0  0  0  0  0  0
    5.8190   -2.0214   21.6684 H   0  0  0  0  0  0  0  0  0  0  0  0
    7.7037   -2.0649   22.6330 N   0  0  0  0  0  0  0  0  0  0  0  0
    8.8488   -1.3364   22.4258 N   0  0  0  0  0  0  0  0  0  0  0  0
    8.6283   -0.5031   21.4452 C   0  0  0  0  0  0  0  0  0  0  0  0
    9.5925    0.5552   21.0053 C   0  0  0  0  0  0  0  0  0  0  0  0
    9.3946    0.7967   19.9570 H   0  0  0  0  0  0  0  0  0  0  0  0
   10.5966    0.1296   21.0539 H   0  0  0  0  0  0  0  0  0  0  0  0
    9.5004    1.8284   21.8735 C   0  0  0  0  0  0  0  0  0  0  0  0
   10.3010    2.5265   21.5815 H   0  0  0  0  0  0  0  0  0  0  0  0
    9.6823    1.5671   22.9277 H   0  0  0  0  0  0  0  0  0  0  0  0
    8.1446    2.5235   21.7156 C   0  0  0  0  0  0  0  0  0  0  0  0
    7.3300    1.8832   22.0907 H   0  0  0  0  0  0  0  0  0  0  0  0
    7.9501    2.5947   20.6363 H   0  0  0  0  0  0  0  0  0  0  0  0
    8.0960    3.8825   22.4408 C   0  0  0  0  0  0  0  0  0  0  0  0
    8.9766    4.4874   22.1747 H   0  0  0  0  0  0  0  0  0  0  0  0
    8.1936    3.7018   23.5264 H   0  0  0  0  0  0  0  0  0  0  0  0
    6.8283    4.7179   22.1967 C   0  0  0  0  0  0  0  0  0  0  0  0
    6.7190    4.9148   21.1197 H   0  0  0  0  0  0  0  0  0  0  0  0
    6.9611    5.7083   22.6566 H   0  0  0  0  0  0  0  0  0  0  0  0
    5.5495    4.0658   22.7396 C   0  0  0  0  0  0  0  0  0  0  0  0
    5.3120    3.1377   22.2033 H   0  0  0  0  0  0  0  0  0  0  0  0
    5.6558    3.8067   23.8014 H   0  0  0  0  0  0  0  0  0  0  0  0
    4.6844    4.7325   22.6450 H   0  0  0  0  0  0  0  0  0  0  0  0
    5.4485    0.6521   20.1511 C   0  0  0  0  0  0  0  0  0  0  0  0
    5.0451    0.6215   21.1644 H   0  0  0  0  0  0  0  0  0  0  0  0
    4.8054    1.3149   19.0964 C   0  0  0  0  0  0  0  0  0  0  0  0
    3.8707    1.8417   19.2430 H   0  0  0  0  0  0  0  0  0  0  0  0
  1  2  1  0
  2  3  2  0
  3  4  1  0
  4  5  1  0
  4  6  2  0
  6  7  1  0
  7  8  1  0
  8  9  1  0
  8 10  2  0
 10 11  1  0
 11 12  2  0
 12 13  1  0
 13 14  1  0
 13 15  1  0
 13 16  1  0
 16 17  1  0
 16 18  1  0
 16 19  1  0
 19 20  1  0
 19 21  1  0
 19 22  1  0
 22 23  1  0
 22 24  1  0
 22 25  1  0
 25 26  1  0
 25 27  1  0
 25 28  1  0
 28 29  1  0
 28 30  1  0
 28 31  1  0
  6 32  1  0
 32 33  1  0
 32 34  2  0
 34 35  1  0
 34  2  1  0
 12  7  1  0
M  END
>  <cnnaffinity>  (1) 
-4.84498

>  <filename>  (1) 
CCCCCCc1nncn1-c1cccnc1

$$$$
