
     RDKit          3D

 41 43  0  0  0  0  0  0  0  0999 V2000
    8.4483   -5.7547   23.4097 C   0  0  0  0  0  0  0  0  0  0  0  0
    7.7859   -4.4108   23.1190 C   0  0  0  0  0  0  0  0  0  0  0  0
    8.6835   -3.5404   22.2272 C   0  0  0  0  0  0  0  0  0  0  0  0
    8.2094   -2.1566   21.9702 C   0  0  0  0  0  0  0  0  0  0  0  0
    7.7434   -1.8165   20.7894 N   0  0  0  0  0  0  0  0  0  0  0  0
    7.3862   -0.5229   20.9607 N   0  0  0  0  0  0  0  0  0  0  0  0
    6.6608    0.1167   19.9230 C   0  0  0  0  0  0  0  0  0  0  0  0
    5.4357    0.7556   20.1435 C   0  0  0  0  0  0  0  0  0  0  0  0
    4.8192    1.3645   19.0456 C   0  0  0  0  0  0  0  0  0  0  0  0
    5.4381    1.3092   17.7937 C   0  0  0  0  0  0  0  0  0  0  0  0
    6.5823    0.6359   17.5692 N   0  0  0  0  0  0  0  0  0  0  0  0
    7.1578    0.0318   18.6114 C   0  0  0  0  0  0  0  0  0  0  0  0
    8.0500   -0.5600   18.4163 H   0  0  0  0  0  0  0  0  0  0  0  0
    4.9971    1.8094   16.9347 H   0  0  0  0  0  0  0  0  0  0  0  0
    3.8659    1.8686   19.1535 H   0  0  0  0  0  0  0  0  0  0  0  0
    4.9622    0.7285   21.1261 H   0  0  0  0  0  0  0  0  0  0  0  0
    7.7299   -0.1300   22.2239 C   0  0  0  0  0  0  0  0  0  0  0  0
    7.6856    1.3008   22.6609 C   0  0  0  0  0  0  0  0  0  0  0  0
    8.6248    2.2518   21.8736 C   0  0  0  0  0  0  0  0  0  0  0  0
    8.4704    3.6877   22.3214 C   0  0  0  0  0  0  0  0  0  0  0  0
    7.4005    4.4642   21.8505 C   0  0  0  0  0  0  0  0  0  0  0  0
    7.3374    5.8158   22.1817 C   0  0  0  0  0  0  0  0  0  0  0  0
    8.3379    6.3389   23.0072 C   0  0  0  0  0  0  0  0  0  0  0  0
    9.3159    5.4696   23.4962 C   0  0  0  0  0  0  0  0  0  0  0  0
    9.3694    4.1650   23.1983 N   0  0  0  0  0  0  0  0  0  0  0  0
   10.0762    5.8242   24.1913 H   0  0  0  0  0  0  0  0  0  0  0  0
    8.3629    7.3863   23.2771 H   0  0  0  0  0  0  0  0  0  0  0  0
    6.5332    6.4363   21.7876 H   0  0  0  0  0  0  0  0  0  0  0  0
    6.6380    4.0090   21.2220 H   0  0  0  0  0  0  0  0  0  0  0  0
    9.6739    1.9668   22.0083 H   0  0  0  0  0  0  0  0  0  0  0  0
    8.4103    2.1770   20.7992 H   0  0  0  0  0  0  0  0  0  0  0  0
    6.6585    1.6661   22.5592 H   0  0  0  0  0  0  0  0  0  0  0  0
    7.9305    1.3537   23.7241 H   0  0  0  0  0  0  0  0  0  0  0  0
    8.2235   -1.1554   22.8912 N   0  0  0  0  0  0  0  0  0  0  0  0
    9.6833   -3.4679   22.6705 H   0  0  0  0  0  0  0  0  0  0  0  0
    8.7632   -4.0136   21.2458 H   0  0  0  0  0  0  0  0  0  0  0  0
    6.8206   -4.5781   22.6207 H   0  0  0  0  0  0  0  0  0  0  0  0
    7.5758   -3.8826   24.0583 H   0  0  0  0  0  0  0  0  0  0  0  0
    8.7666   -6.2516   22.4843 H   0  0  0  0  0  0  0  0  0  0  0  0
    7.7560   -6.4236   23.9227 H   0  0  0  0  0  0  0  0  0  0  0  0
    9.3317   -5.6316   24.0485 H   0  0  0  0  0  0  0  0  0  0  0  0
  1  2  1  0
  2  3  1  0
  3  4  1  0
  4  5  2  0
  5  6  1  0
  6  7  1  0
  7  8  2  0
  8  9  1  0
  9 10  2  0
 10 11  1  0
 11 12  2  0
 12 13  1  0
 10 14  1  0
  9 15  1  0
  8 16  1  0
  6 17  1  0
 17 18  1  0
 18 19  1  0
 19 20  1  0
 20 21  2  0
 21 22  1  0
 22 23  2  0
 23 24  1  0
 24 25  2  0
 24 26  1  0
 23 27  1  0
 22 28  1  0
 21 29  1  0
 19 30  1  0
 19 31  1  0
 18 32  1  0
 18 33  1  0
 17 34  2  0
  3 35  1  0
  3 36  1  0
  2 37  1  0
  2 38  1  0
  1 39  1  0
  1 40  1  0
  1 41  1  0
 34  4  1  0
 12  7  1  0
 25 20  1  0
M  END
>  <cnnaffinity>  (1) 
-5.46391

>  <filename>  (1) 
CCCc1nc(CCc2ccccn2)n(-c2cccnc2)n1

$$$$
