
     RDKit          3D

 51 53  0  0  0  0  0  0  0  0999 V2000
    6.0886   -5.0771   21.2269 C   0  0  0  0  0  0  0  0  0  0  0  0
    7.5844   -4.8975   21.5103 C   0  0  0  0  0  0  0  0  0  0  0  0
    7.9466   -4.5434   22.9636 C   0  0  0  0  0  0  0  0  0  0  0  0
    7.4386   -3.1729   23.5012 C   0  0  0  0  0  0  0  0  0  0  0  0
    6.0079   -3.2027   24.0691 C   0  0  0  0  0  0  0  0  0  0  0  0
    5.7666   -2.2576   24.5697 H   0  0  0  0  0  0  0  0  0  0  0  0
    5.9015   -4.0081   24.8048 H   0  0  0  0  0  0  0  0  0  0  0  0
    5.2572   -3.3541   23.2850 H   0  0  0  0  0  0  0  0  0  0  0  0
    7.6248   -2.0849   22.4753 C   0  0  0  0  0  0  0  0  0  0  0  0
    6.6956   -1.6591   21.6417 N   0  0  0  0  0  0  0  0  0  0  0  0
    7.3401   -0.7050   20.9182 N   0  0  0  0  0  0  0  0  0  0  0  0
    6.6492   -0.0193   19.8852 C   0  0  0  0  0  0  0  0  0  0  0  0
    5.4340    0.6239   20.1515 C   0  0  0  0  0  0  0  0  0  0  0  0
    4.8026    1.3090   19.1071 C   0  0  0  0  0  0  0  0  0  0  0  0
    5.3964    1.3015   17.8388 C   0  0  0  0  0  0  0  0  0  0  0  0
    6.5442    0.6631   17.5691 N   0  0  0  0  0  0  0  0  0  0  0  0
    7.1548    0.0299   18.5752 C   0  0  0  0  0  0  0  0  0  0  0  0
    8.0983   -0.4602   18.3376 H   0  0  0  0  0  0  0  0  0  0  0  0
    4.9331    1.8257   17.0047 H   0  0  0  0  0  0  0  0  0  0  0  0
    3.8711    1.8501   19.2584 H   0  0  0  0  0  0  0  0  0  0  0  0
    5.0101    0.5846   21.1552 H   0  0  0  0  0  0  0  0  0  0  0  0
    8.6198   -0.5961   21.3772 C   0  0  0  0  0  0  0  0  0  0  0  0
    9.6354    0.4144   20.9342 C   0  0  0  0  0  0  0  0  0  0  0  0
    9.9068    1.4748   21.9767 C   0  0  0  0  0  0  0  0  0  0  0  0
    9.0557    2.4934   22.3504 C   0  0  0  0  0  0  0  0  0  0  0  0
    7.7264    2.8725   21.7614 C   0  0  0  0  0  0  0  0  0  0  0  0
    7.7055    2.5450   20.7189 H   0  0  0  0  0  0  0  0  0  0  0  0
    6.8965    2.3702   22.2797 H   0  0  0  0  0  0  0  0  0  0  0  0
    7.5277    3.9498   21.7862 H   0  0  0  0  0  0  0  0  0  0  0  0
    9.6035    3.0432   23.4695 N   0  0  0  0  0  0  0  0  0  0  0  0
    9.1031    4.1590   24.2399 C   0  0  0  0  0  0  0  0  0  0  0  0
    9.7590    4.2836   25.1035 H   0  0  0  0  0  0  0  0  0  0  0  0
    9.1095    5.0687   23.6310 H   0  0  0  0  0  0  0  0  0  0  0  0
    8.0801    3.9554   24.5730 H   0  0  0  0  0  0  0  0  0  0  0  0
   10.7384    2.4244   23.8541 N   0  0  0  0  0  0  0  0  0  0  0  0
   10.9235    1.4676   22.9562 C   0  0  0  0  0  0  0  0  0  0  0  0
   12.0132    0.4536   23.0407 C   0  0  0  0  0  0  0  0  0  0  0  0
   12.5860    0.4264   22.1052 H   0  0  0  0  0  0  0  0  0  0  0  0
   11.5451   -0.5310   23.1708 H   0  0  0  0  0  0  0  0  0  0  0  0
   12.6944    0.6415   23.8744 H   0  0  0  0  0  0  0  0  0  0  0  0
    9.2862    0.8673   20.0066 H   0  0  0  0  0  0  0  0  0  0  0  0
   10.5499   -0.1443   20.7049 H   0  0  0  0  0  0  0  0  0  0  0  0
    8.8326   -1.4819   22.3311 N   0  0  0  0  0  0  0  0  0  0  0  0
    8.1280   -2.8847   24.3059 H   0  0  0  0  0  0  0  0  0  0  0  0
    7.5968   -5.3320   23.6491 H   0  0  0  0  0  0  0  0  0  0  0  0
    9.0432   -4.5383   23.0375 H   0  0  0  0  0  0  0  0  0  0  0  0
    8.1266   -5.8163   21.2559 H   0  0  0  0  0  0  0  0  0  0  0  0
    7.9982   -4.1168   20.8546 H   0  0  0  0  0  0  0  0  0  0  0  0
    5.5813   -4.1075   21.1792 H   0  0  0  0  0  0  0  0  0  0  0  0
    5.9191   -5.5809   20.2689 H   0  0  0  0  0  0  0  0  0  0  0  0
    5.6002   -5.6828   22.0031 H   0  0  0  0  0  0  0  0  0  0  0  0
  1  2  1  0
  2  3  1  0
  3  4  1  0
  4  5  1  0
  5  6  1  0
  5  7  1  0
  5  8  1  0
  4  9  1  0
  9 10  2  0
 10 11  1  0
 11 12  1  0
 12 13  2  0
 13 14  1  0
 14 15  2  0
 15 16  1  0
 16 17  2  0
 17 18  1  0
 15 19  1  0
 14 20  1  0
 13 21  1  0
 11 22  1  0
 22 23  1  0
 23 24  1  0
 24 25  2  0
 25 26  1  0
 26 27  1  0
 26 28  1  0
 26 29  1  0
 25 30  1  0
 30 31  1  0
 31 32  1  0
 31 33  1  0
 31 34  1  0
 30 35  1  0
 35 36  2  0
 36 37  1  0
 37 38  1  0
 37 39  1  0
 37 40  1  0
 23 41  1  0
 23 42  1  0
 22 43  2  0
  4 44  1  0
  3 45  1  0
  3 46  1  0
  2 47  1  0
  2 48  1  0
  1 49  1  0
  1 50  1  0
  1 51  1  0
 43  9  1  0
 17 12  1  0
 36 24  1  0
M  END
>  <cnnaffinity>  (1) 
-6.32063

>  <filename>  (1) 
CCCC(C)c1nc(Cc2c(C)nn(C)c2C)n(-c2cccnc2)n1

$$$$
