
     RDKit          3D

 44 45  0  0  0  0  0  0  0  0999 V2000
    4.9530    1.8259   16.9722 H   0  0  0  0  0  0  0  0  0  0  0  0
    5.3932    1.2921   17.8129 C   0  0  0  0  0  0  0  0  0  0  0  0
    6.5428    0.6485   17.5745 N   0  0  0  0  0  0  0  0  0  0  0  0
    7.1307    0.0364   18.6085 C   0  0  0  0  0  0  0  0  0  0  0  0
    8.0840   -0.4425   18.3928 H   0  0  0  0  0  0  0  0  0  0  0  0
    6.6090    0.0014   19.9138 C   0  0  0  0  0  0  0  0  0  0  0  0
    7.3433   -0.7116   20.9881 C   0  0  0  0  0  0  0  0  0  0  0  0
    6.6390   -1.4965   21.7769 N   0  0  0  0  0  0  0  0  0  0  0  0
    7.2553   -2.2013   22.7956 C   0  0  0  0  0  0  0  0  0  0  0  0
    6.3760   -3.1078   23.6258 C   0  0  0  0  0  0  0  0  0  0  0  0
    6.7591   -3.1582   24.6554 H   0  0  0  0  0  0  0  0  0  0  0  0
    5.3815   -2.6537   23.6883 H   0  0  0  0  0  0  0  0  0  0  0  0
    6.2548   -4.5416   23.0690 C   0  0  0  0  0  0  0  0  0  0  0  0
    7.2581   -4.9483   22.8914 H   0  0  0  0  0  0  0  0  0  0  0  0
    5.7743   -4.5019   22.0814 H   0  0  0  0  0  0  0  0  0  0  0  0
    5.4974   -5.5212   23.9787 C   0  0  0  0  0  0  0  0  0  0  0  0
    6.0408   -5.6217   24.9277 H   0  0  0  0  0  0  0  0  0  0  0  0
    5.5266   -6.5183   23.5188 H   0  0  0  0  0  0  0  0  0  0  0  0
    4.0369   -5.1561   24.2791 C   0  0  0  0  0  0  0  0  0  0  0  0
    3.5996   -5.9221   24.9334 H   0  0  0  0  0  0  0  0  0  0  0  0
    4.0050   -4.2279   24.8641 H   0  0  0  0  0  0  0  0  0  0  0  0
    3.1561   -4.9828   23.0360 C   0  0  0  0  0  0  0  0  0  0  0  0
    3.5715   -4.1635   22.4314 H   0  0  0  0  0  0  0  0  0  0  0  0
    2.1606   -4.6384   23.3480 H   0  0  0  0  0  0  0  0  0  0  0  0
    3.0257   -6.2054   22.1123 C   0  0  0  0  0  0  0  0  0  0  0  0
    3.9845   -6.3692   21.5986 H   0  0  0  0  0  0  0  0  0  0  0  0
    2.2898   -5.9427   21.3448 H   0  0  0  0  0  0  0  0  0  0  0  0
    2.5412   -7.5333   22.7084 C   0  0  0  0  0  0  0  0  0  0  0  0
    2.5434   -8.2787   21.9028 H   0  0  0  0  0  0  0  0  0  0  0  0
    3.2437   -7.9073   23.4648 H   0  0  0  0  0  0  0  0  0  0  0  0
    1.1144   -7.4602   23.2473 C   0  0  0  0  0  0  0  0  0  0  0  0
    0.4523   -7.1037   22.4486 H   0  0  0  0  0  0  0  0  0  0  0  0
    1.0189   -6.7642   24.0882 H   0  0  0  0  0  0  0  0  0  0  0  0
    0.7474   -8.4372   23.5791 H   0  0  0  0  0  0  0  0  0  0  0  0
    8.5959   -2.0966   23.0381 C   0  0  0  0  0  0  0  0  0  0  0  0
    9.0922   -2.6199   23.8508 H   0  0  0  0  0  0  0  0  0  0  0  0
    9.3636   -1.2997   22.2208 N   0  0  0  0  0  0  0  0  0  0  0  0
   10.3602   -1.1351   22.3017 H   0  0  0  0  0  0  0  0  0  0  0  0
    8.8490   -0.5557   21.1658 C   0  0  0  0  0  0  0  0  0  0  0  0
    9.6515    0.1162   20.5360 O   0  0  0  0  0  0  0  0  0  0  0  0
    5.3777    0.6425   20.1344 C   0  0  0  0  0  0  0  0  0  0  0  0
    4.9064    0.6203   21.1189 H   0  0  0  0  0  0  0  0  0  0  0  0
    4.7783    1.3175   19.0691 C   0  0  0  0  0  0  0  0  0  0  0  0
    3.8565    1.8697   19.1976 H   0  0  0  0  0  0  0  0  0  0  0  0
  1  2  1  0
  2  3  2  0
  3  4  1  0
  4  5  1  0
  4  6  2  0
  6  7  1  0
  7  8  2  0
  8  9  1  0
  9 10  1  0
 10 11  1  0
 10 12  1  0
 10 13  1  0
 13 14  1  0
 13 15  1  0
 13 16  1  0
 16 17  1  0
 16 18  1  0
 16 19  1  0
 19 20  1  0
 19 21  1  0
 19 22  1  0
 22 23  1  0
 22 24  1  0
 22 25  1  0
 25 26  1  0
 25 27  1  0
 25 28  1  0
 28 29  1  0
 28 30  1  0
 28 31  1  0
 31 32  1  0
 31 33  1  0
 31 34  1  0
  9 35  2  0
 35 36  1  0
 35 37  1  0
 37 38  1  0
 37 39  1  0
 39 40  2  0
  6 41  1  0
 41 42  1  0
 41 43  2  0
 43 44  1  0
 43  2  1  0
 39  7  1  0
M  END
>  <cnnaffinity>  (1) 
-5.37418

>  <filename>  (1) 
CCCCCCCCc1c[nH]c(=O)c(-c2cccnc2)n1

$$$$
