
     RDKit          3D

 39 41  0  0  0  0  0  0  0  0999 V2000
    8.4133   -4.8094   22.4666 C   0  0  0  0  0  0  0  0  0  0  0  0
    7.0806   -4.4544   23.1057 C   0  0  0  0  0  0  0  0  0  0  0  0
    7.0981   -3.0191   23.6658 C   0  0  0  0  0  0  0  0  0  0  0  0
    7.4022   -1.9824   22.6224 C   0  0  0  0  0  0  0  0  0  0  0  0
    6.5392   -1.6497   21.6869 N   0  0  0  0  0  0  0  0  0  0  0  0
    7.2426   -0.7869   20.9036 N   0  0  0  0  0  0  0  0  0  0  0  0
    6.5761   -0.0923   19.8501 C   0  0  0  0  0  0  0  0  0  0  0  0
    5.3830    0.5932   20.1086 C   0  0  0  0  0  0  0  0  0  0  0  0
    4.7987    1.3204   19.0693 C   0  0  0  0  0  0  0  0  0  0  0  0
    5.4083    1.3164   17.8077 C   0  0  0  0  0  0  0  0  0  0  0  0
    6.5280    0.6266   17.5397 N   0  0  0  0  0  0  0  0  0  0  0  0
    7.0907   -0.0632   18.5404 C   0  0  0  0  0  0  0  0  0  0  0  0
    7.9933   -0.6218   18.3010 H   0  0  0  0  0  0  0  0  0  0  0  0
    4.9690    1.8641   16.9786 H   0  0  0  0  0  0  0  0  0  0  0  0
    3.8854    1.8827   19.2257 H   0  0  0  0  0  0  0  0  0  0  0  0
    4.9469    0.5369   21.1078 H   0  0  0  0  0  0  0  0  0  0  0  0
    8.4995   -0.6356   21.4326 C   0  0  0  0  0  0  0  0  0  0  0  0
    9.6286    0.1615   20.8416 C   0  0  0  0  0  0  0  0  0  0  0  0
   10.3599    1.0094   21.8687 C   0  0  0  0  0  0  0  0  0  0  0  0
   11.6427    0.6403   22.3000 C   0  0  0  0  0  0  0  0  0  0  0  0
   12.2442    1.3123   23.3605 C   0  0  0  0  0  0  0  0  0  0  0  0
   13.4710    0.9381   23.7628 F   0  0  0  0  0  0  0  0  0  0  0  0
   11.6061    2.3692   24.0014 C   0  0  0  0  0  0  0  0  0  0  0  0
   10.3581    2.7957   23.5382 C   0  0  0  0  0  0  0  0  0  0  0  0
    9.7471    2.1203   22.4758 C   0  0  0  0  0  0  0  0  0  0  0  0
    8.1939    2.6894   21.9210 Cl  0  0  0  0  0  0  0  0  0  0  0  0
    9.8614    3.6540   23.9829 H   0  0  0  0  0  0  0  0  0  0  0  0
   12.0794    2.8472   24.8446 H   0  0  0  0  0  0  0  0  0  0  0  0
   12.1788   -0.1751   21.8239 H   0  0  0  0  0  0  0  0  0  0  0  0
   10.3315   -0.5600   20.4109 H   0  0  0  0  0  0  0  0  0  0  0  0
    9.2668    0.8062   20.0384 H   0  0  0  0  0  0  0  0  0  0  0  0
    8.6174   -1.3842   22.5158 N   0  0  0  0  0  0  0  0  0  0  0  0
    7.8856   -2.9344   24.4199 H   0  0  0  0  0  0  0  0  0  0  0  0
    6.1419   -2.7880   24.1428 H   0  0  0  0  0  0  0  0  0  0  0  0
    6.2662   -4.5683   22.3818 H   0  0  0  0  0  0  0  0  0  0  0  0
    6.8687   -5.1581   23.9205 H   0  0  0  0  0  0  0  0  0  0  0  0
    9.2003   -4.7680   23.2271 H   0  0  0  0  0  0  0  0  0  0  0  0
    8.6805   -4.1000   21.6761 H   0  0  0  0  0  0  0  0  0  0  0  0
    8.4014   -5.8087   22.0270 H   0  0  0  0  0  0  0  0  0  0  0  0
  1  2  1  0
  2  3  1  0
  3  4  1  0
  4  5  2  0
  5  6  1  0
  6  7  1  0
  7  8  2  0
  8  9  1  0
  9 10  2  0
 10 11  1  0
 11 12  2  0
 12 13  1  0
 10 14  1  0
  9 15  1  0
  8 16  1  0
  6 17  1  0
 17 18  1  0
 18 19  1  0
 19 20  2  0
 20 21  1  0
 21 22  1  0
 21 23  2  0
 23 24  1  0
 24 25  2  0
 25 26  1  0
 24 27  1  0
 23 28  1  0
 20 29  1  0
 18 30  1  0
 18 31  1  0
 17 32  2  0
  3 33  1  0
  3 34  1  0
  2 35  1  0
  2 36  1  0
  1 37  1  0
  1 38  1  0
  1 39  1  0
 32  4  1  0
 12  7  1  0
 25 19  1  0
M  END
>  <cnnaffinity>  (1) 
-6.2451

>  <filename>  (1) 
CCCc1nc(Cc2cc(F)ccc2Cl)n(-c2cccnc2)n1

$$$$
