
     RDKit          3D

 41 42  0  0  0  0  0  0  0  0999 V2000
    5.2439    1.7870   16.8572 H   0  0  0  0  0  0  0  0  0  0  0  0
    5.6640    1.2633   17.7124 C   0  0  0  0  0  0  0  0  0  0  0  0
    6.8318    0.6406   17.4979 N   0  0  0  0  0  0  0  0  0  0  0  0
    7.3745   -0.0166   18.5273 C   0  0  0  0  0  0  0  0  0  0  0  0
    8.3375   -0.4919   18.3551 H   0  0  0  0  0  0  0  0  0  0  0  0
    6.7698   -0.1197   19.7873 C   0  0  0  0  0  0  0  0  0  0  0  0
    7.4583   -0.9171   20.8251 C   0  0  0  0  0  0  0  0  0  0  0  0
    8.7964   -0.9470   20.7355 N   0  0  0  0  0  0  0  0  0  0  0  0
    9.4915   -1.4949   21.7377 C   0  0  0  0  0  0  0  0  0  0  0  0
   10.9855   -1.2360   21.7718 C   0  0  0  0  0  0  0  0  0  0  0  0
   11.3299   -0.9907   20.7612 H   0  0  0  0  0  0  0  0  0  0  0  0
   11.5125   -2.1506   22.0730 H   0  0  0  0  0  0  0  0  0  0  0  0
   11.3363   -0.0960   22.7614 C   0  0  0  0  0  0  0  0  0  0  0  0
   12.4214    0.0722   22.7345 H   0  0  0  0  0  0  0  0  0  0  0  0
   11.0975   -0.4482   23.7796 H   0  0  0  0  0  0  0  0  0  0  0  0
   10.5751    1.2137   22.4739 C   0  0  0  0  0  0  0  0  0  0  0  0
    9.5030    0.9841   22.3996 H   0  0  0  0  0  0  0  0  0  0  0  0
   10.8507    1.6008   21.4792 H   0  0  0  0  0  0  0  0  0  0  0  0
   10.7325    2.3453   23.5002 C   0  0  0  0  0  0  0  0  0  0  0  0
   10.2420    2.0547   24.4409 H   0  0  0  0  0  0  0  0  0  0  0  0
   10.1519    3.2022   23.1354 H   0  0  0  0  0  0  0  0  0  0  0  0
   12.1628    2.8022   23.8255 C   0  0  0  0  0  0  0  0  0  0  0  0
   12.0930    3.7286   24.4163 H   0  0  0  0  0  0  0  0  0  0  0  0
   12.6134    2.0628   24.4998 H   0  0  0  0  0  0  0  0  0  0  0  0
   13.1281    2.9879   22.6417 C   0  0  0  0  0  0  0  0  0  0  0  0
   14.1488    2.8616   23.0199 H   0  0  0  0  0  0  0  0  0  0  0  0
   12.9765    2.1540   21.9431 H   0  0  0  0  0  0  0  0  0  0  0  0
   13.1108    4.3282   21.9002 C   0  0  0  0  0  0  0  0  0  0  0  0
   13.9831    4.3714   21.2396 H   0  0  0  0  0  0  0  0  0  0  0  0
   12.2231    4.5250   21.2843 H   0  0  0  0  0  0  0  0  0  0  0  0
   13.2213    5.1521   22.6132 H   0  0  0  0  0  0  0  0  0  0  0  0
    8.8609   -2.1726   22.7970 C   0  0  0  0  0  0  0  0  0  0  0  0
    9.4725   -2.6054   23.5799 H   0  0  0  0  0  0  0  0  0  0  0  0
    7.4668   -2.2266   22.8471 C   0  0  0  0  0  0  0  0  0  0  0  0
    6.9469   -2.7232   23.6666 H   0  0  0  0  0  0  0  0  0  0  0  0
    6.7544   -1.5781   21.8382 C   0  0  0  0  0  0  0  0  0  0  0  0
    5.6724   -1.5811   21.8175 H   0  0  0  0  0  0  0  0  0  0  0  0
    5.5621    0.5590   20.0085 C   0  0  0  0  0  0  0  0  0  0  0  0
    5.0864    0.5684   20.9917 H   0  0  0  0  0  0  0  0  0  0  0  0
    4.9994    1.2620   18.9436 C   0  0  0  0  0  0  0  0  0  0  0  0
    4.0716    1.8130   19.0511 H   0  0  0  0  0  0  0  0  0  0  0  0
  1  2  1  0
  2  3  2  0
  3  4  1  0
  4  5  1  0
  4  6  2  0
  6  7  1  0
  7  8  2  0
  8  9  1  0
  9 10  1  0
 10 11  1  0
 10 12  1  0
 10 13  1  0
 13 14  1  0
 13 15  1  0
 13 16  1  0
 16 17  1  0
 16 18  1  0
 16 19  1  0
 19 20  1  0
 19 21  1  0
 19 22  1  0
 22 23  1  0
 22 24  1  0
 22 25  1  0
 25 26  1  0
 25 27  1  0
 25 28  1  0
 28 29  1  0
 28 30  1  0
 28 31  1  0
  9 32  2  0
 32 33  1  0
 32 34  1  0
 34 35  1  0
 34 36  2  0
 36 37  1  0
  6 38  1  0
 38 39  1  0
 38 40  2  0
 40 41  1  0
 40  2  1  0
 36  7  1  0
M  END
>  <cnnaffinity>  (1) 
-5.01908

>  <filename>  (1) 
CCCCCCCc1cccc(-c2cccnc2)n1

$$$$
