
     RDKit          3D

 39 40  0  0  0  0  0  0  0  0999 V2000
    4.9289    1.8077   16.9806 H   0  0  0  0  0  0  0  0  0  0  0  0
    5.3956    1.3012   17.8262 C   0  0  0  0  0  0  0  0  0  0  0  0
    6.5563    0.6807   17.5708 N   0  0  0  0  0  0  0  0  0  0  0  0
    7.1728    0.0664   18.5890 C   0  0  0  0  0  0  0  0  0  0  0  0
    8.1112   -0.4238   18.3405 H   0  0  0  0  0  0  0  0  0  0  0  0
    6.6666    0.0088   19.9082 C   0  0  0  0  0  0  0  0  0  0  0  0
    7.3488   -0.6772   20.9651 N   0  0  0  0  0  0  0  0  0  0  0  0
    6.8160   -1.6582   21.7713 C   0  0  0  0  0  0  0  0  0  0  0  0
    5.8081   -2.0156   21.6163 H   0  0  0  0  0  0  0  0  0  0  0  0
    7.6639   -2.1036   22.6614 N   0  0  0  0  0  0  0  0  0  0  0  0
    8.8077   -1.3730   22.4558 C   0  0  0  0  0  0  0  0  0  0  0  0
    9.6823   -1.5157   23.0853 H   0  0  0  0  0  0  0  0  0  0  0  0
    8.6515   -0.4826   21.4245 C   0  0  0  0  0  0  0  0  0  0  0  0
    9.5302    0.6155   20.9248 C   0  0  0  0  0  0  0  0  0  0  0  0
    9.6068    0.5775   19.8351 H   0  0  0  0  0  0  0  0  0  0  0  0
   10.5407    0.4477   21.3137 H   0  0  0  0  0  0  0  0  0  0  0  0
    9.0381    2.0222   21.3170 C   0  0  0  0  0  0  0  0  0  0  0  0
    9.7498    2.7662   20.9392 H   0  0  0  0  0  0  0  0  0  0  0  0
    8.0886    2.2064   20.7980 H   0  0  0  0  0  0  0  0  0  0  0  0
    8.8496    2.2286   22.8275 C   0  0  0  0  0  0  0  0  0  0  0  0
    8.0791    1.5265   23.1796 H   0  0  0  0  0  0  0  0  0  0  0  0
    8.4443    3.2356   23.0011 H   0  0  0  0  0  0  0  0  0  0  0  0
   10.1174    2.0467   23.6853 C   0  0  0  0  0  0  0  0  0  0  0  0
    9.8545    2.2230   24.7377 H   0  0  0  0  0  0  0  0  0  0  0  0
   10.4338    0.9932   23.6506 H   0  0  0  0  0  0  0  0  0  0  0  0
   11.3108    2.9453   23.3030 C   0  0  0  0  0  0  0  0  0  0  0  0
   11.6782    2.6456   22.3087 H   0  0  0  0  0  0  0  0  0  0  0  0
   12.1432    2.7275   23.9898 H   0  0  0  0  0  0  0  0  0  0  0  0
   11.0336    4.4650   23.2948 C   0  0  0  0  0  0  0  0  0  0  0  0
   10.2562    4.6860   22.5468 H   0  0  0  0  0  0  0  0  0  0  0  0
   11.9418    4.9717   22.9422 H   0  0  0  0  0  0  0  0  0  0  0  0
   10.6557    5.0556   24.6609 C   0  0  0  0  0  0  0  0  0  0  0  0
    9.7481    4.5921   25.0718 H   0  0  0  0  0  0  0  0  0  0  0  0
   11.4858    4.9032   25.3576 H   0  0  0  0  0  0  0  0  0  0  0  0
   10.4833    6.1392   24.6215 H   0  0  0  0  0  0  0  0  0  0  0  0
    5.4438    0.6458   20.1558 C   0  0  0  0  0  0  0  0  0  0  0  0
    5.0314    0.6338   21.1660 H   0  0  0  0  0  0  0  0  0  0  0  0
    4.8108    1.3068   19.0963 C   0  0  0  0  0  0  0  0  0  0  0  0
    3.8801    1.8361   19.2435 H   0  0  0  0  0  0  0  0  0  0  0  0
  1  2  1  0
  2  3  2  0
  3  4  1  0
  4  5  1  0
  4  6  2  0
  6  7  1  0
  7  8  1  0
  8  9  1  0
  8 10  2  0
 10 11  1  0
 11 12  1  0
 11 13  2  0
 13 14  1  0
 14 15  1  0
 14 16  1  0
 14 17  1  0
 17 18  1  0
 17 19  1  0
 17 20  1  0
 20 21  1  0
 20 22  1  0
 20 23  1  0
 23 24  1  0
 23 25  1  0
 23 26  1  0
 26 27  1  0
 26 28  1  0
 26 29  1  0
 29 30  1  0
 29 31  1  0
 29 32  1  0
 32 33  1  0
 32 34  1  0
 32 35  1  0
  6 36  1  0
 36 37  1  0
 36 38  2  0
 38 39  1  0
 38  2  1  0
 13  7  1  0
M  END
>  <cnnaffinity>  (1) 
-5.21206

>  <filename>  (1) 
CCCCCCCc1cncn1-c1cccnc1

$$$$
