
     RDKit          3D

 48 50  0  0  0  0  0  0  0  0999 V2000
    6.8138   -0.1376   26.5596 C   0  0  0  0  0  0  0  0  0  0  0  0
    7.5020   -0.9078   25.4285 C   0  0  0  0  0  0  0  0  0  0  0  0
    6.6506   -2.0752   24.8990 C   0  0  0  0  0  0  0  0  0  0  0  0
    7.2923   -2.8882   23.7402 C   0  0  0  0  0  0  0  0  0  0  0  0
    6.4787   -4.1430   23.3841 C   0  0  0  0  0  0  0  0  0  0  0  0
    6.3547   -4.7799   24.2680 H   0  0  0  0  0  0  0  0  0  0  0  0
    6.9916   -4.7357   22.6184 H   0  0  0  0  0  0  0  0  0  0  0  0
    5.4879   -3.8753   23.0002 H   0  0  0  0  0  0  0  0  0  0  0  0
    7.5509   -2.0045   22.5462 C   0  0  0  0  0  0  0  0  0  0  0  0
    6.6303   -1.6026   21.6902 N   0  0  0  0  0  0  0  0  0  0  0  0
    7.3171   -0.7349   20.8873 N   0  0  0  0  0  0  0  0  0  0  0  0
    6.6195   -0.0508   19.8541 C   0  0  0  0  0  0  0  0  0  0  0  0
    5.4082    0.5993   20.1195 C   0  0  0  0  0  0  0  0  0  0  0  0
    4.7982    1.3048   19.0772 C   0  0  0  0  0  0  0  0  0  0  0  0
    5.3914    1.3087   17.8080 C   0  0  0  0  0  0  0  0  0  0  0  0
    6.5267    0.6485   17.5348 N   0  0  0  0  0  0  0  0  0  0  0  0
    7.1174   -0.0098   18.5405 C   0  0  0  0  0  0  0  0  0  0  0  0
    8.0342   -0.5420   18.2996 H   0  0  0  0  0  0  0  0  0  0  0  0
    4.9384    1.8583   16.9823 H   0  0  0  0  0  0  0  0  0  0  0  0
    3.8770    1.8540   19.2363 H   0  0  0  0  0  0  0  0  0  0  0  0
    4.9633    0.5438   21.1163 H   0  0  0  0  0  0  0  0  0  0  0  0
    8.6011   -0.6327   21.3435 C   0  0  0  0  0  0  0  0  0  0  0  0
    9.6908    0.3098   20.9077 C   0  0  0  0  0  0  0  0  0  0  0  0
   10.0541    1.3085   22.0038 C   0  0  0  0  0  0  0  0  0  0  0  0
    9.1639    2.2112   22.5661 C   0  0  0  0  0  0  0  0  0  0  0  0
    7.7357    2.5509   22.2464 C   0  0  0  0  0  0  0  0  0  0  0  0
    7.4675    3.5451   22.6162 H   0  0  0  0  0  0  0  0  0  0  0  0
    7.5340    2.5374   21.1731 H   0  0  0  0  0  0  0  0  0  0  0  0
    7.0497    1.8320   22.7122 H   0  0  0  0  0  0  0  0  0  0  0  0
    9.7966    2.7652   23.6346 N   0  0  0  0  0  0  0  0  0  0  0  0
    9.2211    3.7046   24.5777 C   0  0  0  0  0  0  0  0  0  0  0  0
   10.0034    4.0077   25.2608 H   0  0  0  0  0  0  0  0  0  0  0  0
    8.4086    3.2270   25.1442 H   0  0  0  0  0  0  0  0  0  0  0  0
    8.8508    4.5984   24.0578 H   0  0  0  0  0  0  0  0  0  0  0  0
   11.0484    2.3040   23.7955 N   0  0  0  0  0  0  0  0  0  0  0  0
   11.2148    1.4275   22.8103 C   0  0  0  0  0  0  0  0  0  0  0  0
   12.1637    0.9010   22.7323 H   0  0  0  0  0  0  0  0  0  0  0  0
    9.3833    0.8218   19.9916 H   0  0  0  0  0  0  0  0  0  0  0  0
   10.5463   -0.3218   20.6516 H   0  0  0  0  0  0  0  0  0  0  0  0
    8.7768   -1.4586   22.3582 N   0  0  0  0  0  0  0  0  0  0  0  0
    8.2941   -3.2052   24.0562 H   0  0  0  0  0  0  0  0  0  0  0  0
    6.4364   -2.7680   25.7283 H   0  0  0  0  0  0  0  0  0  0  0  0
    5.6790   -1.6896   24.5546 H   0  0  0  0  0  0  0  0  0  0  0  0
    7.7403   -0.2089   24.6116 H   0  0  0  0  0  0  0  0  0  0  0  0
    8.4670   -1.2962   25.7867 H   0  0  0  0  0  0  0  0  0  0  0  0
    6.5932   -0.7885   27.4153 H   0  0  0  0  0  0  0  0  0  0  0  0
    7.4502    0.6797   26.9176 H   0  0  0  0  0  0  0  0  0  0  0  0
    5.8687    0.3045   26.2199 H   0  0  0  0  0  0  0  0  0  0  0  0
  1  2  1  0
  2  3  1  0
  3  4  1  0
  4  5  1  0
  5  6  1  0
  5  7  1  0
  5  8  1  0
  4  9  1  0
  9 10  2  0
 10 11  1  0
 11 12  1  0
 12 13  2  0
 13 14  1  0
 14 15  2  0
 15 16  1  0
 16 17  2  0
 17 18  1  0
 15 19  1  0
 14 20  1  0
 13 21  1  0
 11 22  1  0
 22 23  1  0
 23 24  1  0
 24 25  2  0
 25 26  1  0
 26 27  1  0
 26 28  1  0
 26 29  1  0
 25 30  1  0
 30 31  1  0
 31 32  1  0
 31 33  1  0
 31 34  1  0
 30 35  1  0
 35 36  2  0
 36 37  1  0
 23 38  1  0
 23 39  1  0
 22 40  2  0
  4 41  1  0
  3 42  1  0
  3 43  1  0
  2 44  1  0
  2 45  1  0
  1 46  1  0
  1 47  1  0
  1 48  1  0
 40  9  1  0
 17 12  1  0
 36 24  1  0
M  END
>  <cnnaffinity>  (1) 
-5.98708

>  <filename>  (1) 
CCCC(C)c1nc(Cc2cnn(C)c2C)n(-c2cccnc2)n1

$$$$
