
     RDKit          3D

 48 50  0  0  0  0  0  0  0  0999 V2000
    9.0164   -5.4705   25.6297 C   0  0  0  0  0  0  0  0  0  0  0  0
    8.1165   -5.4473   24.3875 C   0  0  0  0  0  0  0  0  0  0  0  0
    8.3439   -4.2681   23.4199 C   0  0  0  0  0  0  0  0  0  0  0  0
    7.3636   -3.0802   23.6188 C   0  0  0  0  0  0  0  0  0  0  0  0
    7.5208   -2.4271   25.0097 C   0  0  0  0  0  0  0  0  0  0  0  0
    7.2868   -3.1449   25.8035 H   0  0  0  0  0  0  0  0  0  0  0  0
    6.8444   -1.5732   25.1359 H   0  0  0  0  0  0  0  0  0  0  0  0
    8.5511   -2.0717   25.1595 H   0  0  0  0  0  0  0  0  0  0  0  0
    7.5599   -2.0696   22.5188 C   0  0  0  0  0  0  0  0  0  0  0  0
    6.6245   -1.6841   21.6749 N   0  0  0  0  0  0  0  0  0  0  0  0
    7.2719   -0.7905   20.8749 N   0  0  0  0  0  0  0  0  0  0  0  0
    6.5854   -0.1048   19.8359 C   0  0  0  0  0  0  0  0  0  0  0  0
    5.3888    0.5744   20.1000 C   0  0  0  0  0  0  0  0  0  0  0  0
    4.8061    1.3058   19.0622 C   0  0  0  0  0  0  0  0  0  0  0  0
    5.4129    1.3205   17.8011 C   0  0  0  0  0  0  0  0  0  0  0  0
    6.5329    0.6324   17.5261 N   0  0  0  0  0  0  0  0  0  0  0  0
    7.0941   -0.0588   18.5249 C   0  0  0  0  0  0  0  0  0  0  0  0
    8.0004   -0.6096   18.2812 H   0  0  0  0  0  0  0  0  0  0  0  0
    4.9803    1.8888   16.9788 H   0  0  0  0  0  0  0  0  0  0  0  0
    3.8921    1.8691   19.2182 H   0  0  0  0  0  0  0  0  0  0  0  0
    4.9420    0.5185   21.0952 H   0  0  0  0  0  0  0  0  0  0  0  0
    8.5527   -0.6543   21.3257 C   0  0  0  0  0  0  0  0  0  0  0  0
    9.5852    0.3080   20.8329 C   0  0  0  0  0  0  0  0  0  0  0  0
    9.8727    1.3269   21.8334 N   0  0  0  0  0  0  0  0  0  0  0  0
   11.0408    1.2029   22.4939 N   0  0  0  0  0  0  0  0  0  0  0  0
   10.9893    2.0730   23.4805 C   0  0  0  0  0  0  0  0  0  0  0  0
   12.0734    2.1719   24.4913 C   0  0  0  0  0  0  0  0  0  0  0  0
   12.0055    3.1613   24.9409 H   0  0  0  0  0  0  0  0  0  0  0  0
   13.0637    2.0390   24.0455 H   0  0  0  0  0  0  0  0  0  0  0  0
   11.9248    1.4080   25.2647 H   0  0  0  0  0  0  0  0  0  0  0  0
    9.7748    2.7790   23.4653 C   0  0  0  0  0  0  0  0  0  0  0  0
    9.0592    2.2694   22.4059 C   0  0  0  0  0  0  0  0  0  0  0  0
    7.6753    2.6520   21.9642 C   0  0  0  0  0  0  0  0  0  0  0  0
    6.9041    1.9959   22.3911 H   0  0  0  0  0  0  0  0  0  0  0  0
    7.5860    2.6013   20.8773 H   0  0  0  0  0  0  0  0  0  0  0  0
    7.4537    3.6698   22.3084 H   0  0  0  0  0  0  0  0  0  0  0  0
    9.4848    3.5747   24.1378 H   0  0  0  0  0  0  0  0  0  0  0  0
   10.5118   -0.2585   20.7227 H   0  0  0  0  0  0  0  0  0  0  0  0
    9.3251    0.7672   19.8788 H   0  0  0  0  0  0  0  0  0  0  0  0
    8.7669   -1.4682   22.3324 N   0  0  0  0  0  0  0  0  0  0  0  0
    6.3319   -3.4444   23.5085 H   0  0  0  0  0  0  0  0  0  0  0  0
    8.2339   -4.6201   22.3843 H   0  0  0  0  0  0  0  0  0  0  0  0
    9.3779   -3.8901   23.4961 H   0  0  0  0  0  0  0  0  0  0  0  0
    8.2704   -6.3848   23.8386 H   0  0  0  0  0  0  0  0  0  0  0  0
    7.0612   -5.4545   24.7024 H   0  0  0  0  0  0  0  0  0  0  0  0
    8.7604   -6.3182   26.2754 H   0  0  0  0  0  0  0  0  0  0  0  0
    8.9250   -4.5567   26.2284 H   0  0  0  0  0  0  0  0  0  0  0  0
   10.0740   -5.5715   25.3543 H   0  0  0  0  0  0  0  0  0  0  0  0
  1  2  1  0
  2  3  1  0
  3  4  1  0
  4  5  1  0
  5  6  1  0
  5  7  1  0
  5  8  1  0
  4  9  1  0
  9 10  2  0
 10 11  1  0
 11 12  1  0
 12 13  2  0
 13 14  1  0
 14 15  2  0
 15 16  1  0
 16 17  2  0
 17 18  1  0
 15 19  1  0
 14 20  1  0
 13 21  1  0
 11 22  1  0
 22 23  1  0
 23 24  1  0
 24 25  1  0
 25 26  2  0
 26 27  1  0
 27 28  1  0
 27 29  1  0
 27 30  1  0
 26 31  1  0
 31 32  2  0
 32 33  1  0
 33 34  1  0
 33 35  1  0
 33 36  1  0
 31 37  1  0
 23 38  1  0
 23 39  1  0
 22 40  2  0
  4 41  1  0
  3 42  1  0
  3 43  1  0
  2 44  1  0
  2 45  1  0
  1 46  1  0
  1 47  1  0
  1 48  1  0
 40  9  1  0
 17 12  1  0
 32 24  1  0
M  END
>  <cnnaffinity>  (1) 
-6.19934

>  <filename>  (1) 
CCCC(C)c1nc(Cn2nc(C)cc2C)n(-c2cccnc2)n1

$$$$
