
     RDKit          3D

 52 54  0  0  0  0  0  0  0  0999 V2000
    6.7279   -4.1220   26.6119 C   0  0  0  0  0  0  0  0  0  0  0  0
    6.8058   -2.6475   26.2235 C   0  0  0  0  0  0  0  0  0  0  0  0
    6.3953   -2.3261   24.7780 C   0  0  0  0  0  0  0  0  0  0  0  0
    7.2908   -2.9947   23.6901 C   0  0  0  0  0  0  0  0  0  0  0  0
    6.7595   -4.3527   23.1881 C   0  0  0  0  0  0  0  0  0  0  0  0
    6.6041   -5.0416   24.0262 H   0  0  0  0  0  0  0  0  0  0  0  0
    5.8059   -4.2344   22.6568 H   0  0  0  0  0  0  0  0  0  0  0  0
    7.4768   -4.8204   22.5020 H   0  0  0  0  0  0  0  0  0  0  0  0
    7.5547   -2.0329   22.5598 C   0  0  0  0  0  0  0  0  0  0  0  0
    6.6425   -1.6493   21.6860 N   0  0  0  0  0  0  0  0  0  0  0  0
    7.3159   -0.7619   20.9082 N   0  0  0  0  0  0  0  0  0  0  0  0
    6.6344   -0.0640   19.8684 C   0  0  0  0  0  0  0  0  0  0  0  0
    5.4378    0.6076   20.1402 C   0  0  0  0  0  0  0  0  0  0  0  0
    4.8256    1.3080   19.0969 C   0  0  0  0  0  0  0  0  0  0  0  0
    5.4192    1.3056   17.8282 C   0  0  0  0  0  0  0  0  0  0  0  0
    6.5537    0.6441   17.5548 N   0  0  0  0  0  0  0  0  0  0  0  0
    7.1357   -0.0252   18.5565 C   0  0  0  0  0  0  0  0  0  0  0  0
    8.0531   -0.5594   18.3171 H   0  0  0  0  0  0  0  0  0  0  0  0
    4.9606    1.8364   16.9948 H   0  0  0  0  0  0  0  0  0  0  0  0
    3.8988    1.8491   19.2521 H   0  0  0  0  0  0  0  0  0  0  0  0
    5.0099    0.5760   21.1425 H   0  0  0  0  0  0  0  0  0  0  0  0
    8.5789   -0.6094   21.4009 C   0  0  0  0  0  0  0  0  0  0  0  0
    9.6227    0.2689   20.7587 C   0  0  0  0  0  0  0  0  0  0  0  0
   10.6469    0.7941   21.6710 N   0  0  0  0  0  0  0  0  0  0  0  0
   11.7538   -0.1103   22.0180 C   0  0  0  0  0  0  0  0  0  0  0  0
   12.9367    0.7254   22.4781 C   0  0  0  0  0  0  0  0  0  0  0  0
   12.5771    1.5083   23.7379 C   0  0  0  0  0  0  0  0  0  0  0  0
   11.3446    2.4008   23.4565 C   0  0  0  0  0  0  0  0  0  0  0  0
   11.6764    3.7312   22.7874 C   0  0  0  0  0  0  0  0  0  0  0  0
   12.6306    4.4094   23.4587 F   0  0  0  0  0  0  0  0  0  0  0  0
   10.6189    4.5418   22.7153 F   0  0  0  0  0  0  0  0  0  0  0  0
   12.1306    3.5471   21.5316 F   0  0  0  0  0  0  0  0  0  0  0  0
   10.2769    1.8204   22.5226 C   0  0  0  0  0  0  0  0  0  0  0  0
    9.1661    2.3150   22.5097 O   0  0  0  0  0  0  0  0  0  0  0  0
   10.8237    2.6612   24.3796 H   0  0  0  0  0  0  0  0  0  0  0  0
   12.3558    0.8184   24.5652 H   0  0  0  0  0  0  0  0  0  0  0  0
   13.4293    2.1213   24.0599 H   0  0  0  0  0  0  0  0  0  0  0  0
   13.1445    1.4452   21.6859 H   0  0  0  0  0  0  0  0  0  0  0  0
   13.8159    0.0901   22.6201 H   0  0  0  0  0  0  0  0  0  0  0  0
   12.0320   -0.6786   21.1211 H   0  0  0  0  0  0  0  0  0  0  0  0
   11.4205   -0.8392   22.7790 H   0  0  0  0  0  0  0  0  0  0  0  0
   10.1020   -0.3677   20.0034 H   0  0  0  0  0  0  0  0  0  0  0  0
    9.1488    1.1003   20.2253 H   0  0  0  0  0  0  0  0  0  0  0  0
    8.7590   -1.4296   22.4189 N   0  0  0  0  0  0  0  0  0  0  0  0
    8.2831   -3.1662   24.1281 H   0  0  0  0  0  0  0  0  0  0  0  0
    6.4352   -1.2319   24.6682 H   0  0  0  0  0  0  0  0  0  0  0  0
    5.3424   -2.6083   24.6119 H   0  0  0  0  0  0  0  0  0  0  0  0
    6.1637   -2.0627   26.8947 H   0  0  0  0  0  0  0  0  0  0  0  0
    7.8320   -2.2831   26.3892 H   0  0  0  0  0  0  0  0  0  0  0  0
    5.7353   -4.5368   26.3917 H   0  0  0  0  0  0  0  0  0  0  0  0
    7.4728   -4.7189   26.0733 H   0  0  0  0  0  0  0  0  0  0  0  0
    6.9162   -4.2506   27.6833 H   0  0  0  0  0  0  0  0  0  0  0  0
  1  2  1  0
  2  3  1  0
  3  4  1  0
  4  5  1  0
  5  6  1  0
  5  7  1  0
  5  8  1  0
  4  9  1  0
  9 10  2  0
 10 11  1  0
 11 12  1  0
 12 13  2  0
 13 14  1  0
 14 15  2  0
 15 16  1  0
 16 17  2  0
 17 18  1  0
 15 19  1  0
 14 20  1  0
 13 21  1  0
 11 22  1  0
 22 23  1  0
 23 24  1  0
 24 25  1  0
 25 26  1  0
 26 27  1  0
 27 28  1  0
 28 29  1  0
 29 30  1  0
 29 31  1  0
 29 32  1  0
 28 33  1  0
 33 34  2  0
 28 35  1  0
 27 36  1  0
 27 37  1  0
 26 38  1  0
 26 39  1  0
 25 40  1  0
 25 41  1  0
 23 42  1  0
 23 43  1  0
 22 44  2  0
  4 45  1  0
  3 46  1  0
  3 47  1  0
  2 48  1  0
  2 49  1  0
  1 50  1  0
  1 51  1  0
  1 52  1  0
 44  9  1  0
 17 12  1  0
 33 24  1  0
M  END
>  <cnnaffinity>  (1) 
-6.46947

>  <filename>  (1) 
CCCC(C)c1nc(CN2CCCC(C(F)(F)F)C2=O)n(-c2cccnc2)n1

$$$$
