
     RDKit          3D

 42 43  0  0  0  0  0  0  0  0999 V2000
    4.9483    1.8265   16.9926 H   0  0  0  0  0  0  0  0  0  0  0  0
    5.4174    1.3086   17.8256 C   0  0  0  0  0  0  0  0  0  0  0  0
    6.5678    0.6696   17.5608 N   0  0  0  0  0  0  0  0  0  0  0  0
    7.1784    0.0328   18.5702 C   0  0  0  0  0  0  0  0  0  0  0  0
    8.1127   -0.4783   18.3219 H   0  0  0  0  0  0  0  0  0  0  0  0
    6.6728    0.0026   19.8880 C   0  0  0  0  0  0  0  0  0  0  0  0
    7.3436   -0.6730   20.9594 N   0  0  0  0  0  0  0  0  0  0  0  0
    8.6129   -0.4609   21.4640 C   0  0  0  0  0  0  0  0  0  0  0  0
    9.4879    0.6388   20.9767 C   0  0  0  0  0  0  0  0  0  0  0  0
   10.4902    0.4650   21.3805 H   0  0  0  0  0  0  0  0  0  0  0  0
    9.5585    0.5676   19.8889 H   0  0  0  0  0  0  0  0  0  0  0  0
    8.9641    2.0270   21.3868 C   0  0  0  0  0  0  0  0  0  0  0  0
    9.6725    2.7810   21.0227 H   0  0  0  0  0  0  0  0  0  0  0  0
    8.0118    2.2183   20.8774 H   0  0  0  0  0  0  0  0  0  0  0  0
    8.7623    2.1795   22.9063 C   0  0  0  0  0  0  0  0  0  0  0  0
    8.3794    3.1872   23.1197 H   0  0  0  0  0  0  0  0  0  0  0  0
    7.9730    1.4921   23.2401 H   0  0  0  0  0  0  0  0  0  0  0  0
   10.0244    1.9224   23.7461 C   0  0  0  0  0  0  0  0  0  0  0  0
   10.3169    0.8699   23.6491 H   0  0  0  0  0  0  0  0  0  0  0  0
    9.7796    2.0697   24.8066 H   0  0  0  0  0  0  0  0  0  0  0  0
   11.2158    2.8159   23.3987 C   0  0  0  0  0  0  0  0  0  0  0  0
   12.0561    2.5843   24.0644 H   0  0  0  0  0  0  0  0  0  0  0  0
   11.5717    2.5990   22.3806 H   0  0  0  0  0  0  0  0  0  0  0  0
   10.9024    4.3033   23.5071 C   0  0  0  0  0  0  0  0  0  0  0  0
   10.5445    4.5313   24.5227 H   0  0  0  0  0  0  0  0  0  0  0  0
   10.0700    4.5603   22.8426 H   0  0  0  0  0  0  0  0  0  0  0  0
   12.0757    5.2168   23.1705 C   0  0  0  0  0  0  0  0  0  0  0  0
   11.7103    6.2516   23.1817 H   0  0  0  0  0  0  0  0  0  0  0  0
   12.4168    5.0260   22.1376 H   0  0  0  0  0  0  0  0  0  0  0  0
   13.2654    5.1188   24.1316 C   0  0  0  0  0  0  0  0  0  0  0  0
   13.8542    6.0210   23.9929 H   0  0  0  0  0  0  0  0  0  0  0  0
   12.9610    5.0894   25.1867 H   0  0  0  0  0  0  0  0  0  0  0  0
   13.9072    4.2446   23.9583 H   0  0  0  0  0  0  0  0  0  0  0  0
    8.8934   -1.2780   22.4504 N   0  0  0  0  0  0  0  0  0  0  0  0
    7.7699   -2.0500   22.6167 C   0  0  0  0  0  0  0  0  0  0  0  0
    7.7367   -2.8311   23.3623 H   0  0  0  0  0  0  0  0  0  0  0  0
    6.8030   -1.6887   21.7273 C   0  0  0  0  0  0  0  0  0  0  0  0
    5.7954   -2.0404   21.5725 H   0  0  0  0  0  0  0  0  0  0  0  0
    5.4550    0.6522   20.1375 C   0  0  0  0  0  0  0  0  0  0  0  0
    5.0383    0.6560   21.1450 H   0  0  0  0  0  0  0  0  0  0  0  0
    4.8193    1.3178   19.0877 C   0  0  0  0  0  0  0  0  0  0  0  0
    3.8789    1.8389   19.2372 H   0  0  0  0  0  0  0  0  0  0  0  0
  1  2  1  0
  2  3  2  0
  3  4  1  0
  4  5  1  0
  4  6  2  0
  6  7  1  0
  7  8  1  0
  8  9  1  0
  9 10  1  0
  9 11  1  0
  9 12  1  0
 12 13  1  0
 12 14  1  0
 12 15  1  0
 15 16  1  0
 15 17  1  0
 15 18  1  0
 18 19  1  0
 18 20  1  0
 18 21  1  0
 21 22  1  0
 21 23  1  0
 21 24  1  0
 24 25  1  0
 24 26  1  0
 24 27  1  0
 27 28  1  0
 27 29  1  0
 27 30  1  0
 30 31  1  0
 30 32  1  0
 30 33  1  0
  8 34  2  0
 34 35  1  0
 35 36  1  0
 35 37  2  0
 37 38  1  0
  6 39  1  0
 39 40  1  0
 39 41  2  0
 41 42  1  0
 41  2  1  0
 37  7  1  0
M  END
>  <cnnaffinity>  (1) 
-5.15818

>  <filename>  (1) 
CCCCCCCCc1nccn1-c1cccnc1

$$$$
