
     RDKit          3D

 40 41  0  0  0  0  0  0  0  0999 V2000
    5.0525    1.7683   16.9417 H   0  0  0  0  0  0  0  0  0  0  0  0
    5.4781    1.2946   17.8225 C   0  0  0  0  0  0  0  0  0  0  0  0
    6.6486    0.6569   17.6477 N   0  0  0  0  0  0  0  0  0  0  0  0
    7.1845    0.0430   18.7108 C   0  0  0  0  0  0  0  0  0  0  0  0
    8.1401   -0.4621   18.5516 H   0  0  0  0  0  0  0  0  0  0  0  0
    6.5971    0.0428   19.9871 C   0  0  0  0  0  0  0  0  0  0  0  0
    7.2356   -0.6615   21.0532 N   0  0  0  0  0  0  0  0  0  0  0  0
    7.5345   -2.0030   21.0053 C   0  0  0  0  0  0  0  0  0  0  0  0
    7.1272   -2.5892   20.1967 H   0  0  0  0  0  0  0  0  0  0  0  0
    8.2749   -2.3409   22.1039 C   0  0  0  0  0  0  0  0  0  0  0  0
    8.6671   -3.3296   22.3292 H   0  0  0  0  0  0  0  0  0  0  0  0
    8.4321   -1.1504   22.8698 C   0  0  0  0  0  0  0  0  0  0  0  0
    9.0083   -1.0463   23.7857 H   0  0  0  0  0  0  0  0  0  0  0  0
    7.7745   -0.1287   22.2161 C   0  0  0  0  0  0  0  0  0  0  0  0
    7.6632    1.3400   22.5082 C   0  0  0  0  0  0  0  0  0  0  0  0
    6.6281    1.6816   22.4169 H   0  0  0  0  0  0  0  0  0  0  0  0
    7.9207    1.5138   23.5586 H   0  0  0  0  0  0  0  0  0  0  0  0
    8.5753    2.1954   21.6006 C   0  0  0  0  0  0  0  0  0  0  0  0
    8.2686    2.0717   20.5546 H   0  0  0  0  0  0  0  0  0  0  0  0
    8.4274    3.2602   21.8243 H   0  0  0  0  0  0  0  0  0  0  0  0
   10.0560    1.8266   21.7598 C   0  0  0  0  0  0  0  0  0  0  0  0
   10.6719    2.4678   21.1174 H   0  0  0  0  0  0  0  0  0  0  0  0
   10.2060    0.8005   21.3892 H   0  0  0  0  0  0  0  0  0  0  0  0
   10.5476    1.9034   23.2128 C   0  0  0  0  0  0  0  0  0  0  0  0
   10.4320    2.9280   23.5948 H   0  0  0  0  0  0  0  0  0  0  0  0
    9.8993    1.2793   23.8380 H   0  0  0  0  0  0  0  0  0  0  0  0
   11.9737    1.3954   23.4367 C   0  0  0  0  0  0  0  0  0  0  0  0
   12.2235    1.4816   24.5034 H   0  0  0  0  0  0  0  0  0  0  0  0
   11.9682    0.3182   23.2229 H   0  0  0  0  0  0  0  0  0  0  0  0
   13.0504    2.0445   22.5655 C   0  0  0  0  0  0  0  0  0  0  0  0
   14.0083    1.5350   22.7287 H   0  0  0  0  0  0  0  0  0  0  0  0
   12.7791    1.8442   21.5231 H   0  0  0  0  0  0  0  0  0  0  0  0
   13.2383    3.5506   22.7338 C   0  0  0  0  0  0  0  0  0  0  0  0
   13.9893    3.9282   22.0325 H   0  0  0  0  0  0  0  0  0  0  0  0
   13.5782    3.8152   23.7385 H   0  0  0  0  0  0  0  0  0  0  0  0
   12.3083    4.0967   22.5407 H   0  0  0  0  0  0  0  0  0  0  0  0
    5.3840    0.7246   20.1617 C   0  0  0  0  0  0  0  0  0  0  0  0
    4.9143    0.7460   21.1457 H   0  0  0  0  0  0  0  0  0  0  0  0
    4.8115    1.3465   19.0494 C   0  0  0  0  0  0  0  0  0  0  0  0
    3.8651    1.8678   19.1345 H   0  0  0  0  0  0  0  0  0  0  0  0
  1  2  1  0
  2  3  2  0
  3  4  1  0
  4  5  1  0
  4  6  2  0
  6  7  1  0
  7  8  1  0
  8  9  1  0
  8 10  2  0
 10 11  1  0
 10 12  1  0
 12 13  1  0
 12 14  2  0
 14 15  1  0
 15 16  1  0
 15 17  1  0
 15 18  1  0
 18 19  1  0
 18 20  1  0
 18 21  1  0
 21 22  1  0
 21 23  1  0
 21 24  1  0
 24 25  1  0
 24 26  1  0
 24 27  1  0
 27 28  1  0
 27 29  1  0
 27 30  1  0
 30 31  1  0
 30 32  1  0
 30 33  1  0
 33 34  1  0
 33 35  1  0
 33 36  1  0
  6 37  1  0
 37 38  1  0
 37 39  2  0
 39 40  1  0
 39  2  1  0
 14  7  1  0
M  END
>  <cnnaffinity>  (1) 
-5.14557

>  <filename>  (1) 
CCCCCCCc1cccn1-c1cccnc1

$$$$
