
     RDKit          3D

 39 40  0  0  0  0  0  0  0  0999 V2000
    4.9124    1.8061   16.9682 H   0  0  0  0  0  0  0  0  0  0  0  0
    5.3900    1.3096   17.8117 C   0  0  0  0  0  0  0  0  0  0  0  0
    6.5567    0.6986   17.5444 N   0  0  0  0  0  0  0  0  0  0  0  0
    7.1747    0.0960   18.5688 C   0  0  0  0  0  0  0  0  0  0  0  0
    8.1179   -0.4023   18.3322 H   0  0  0  0  0  0  0  0  0  0  0  0
    6.6603    0.0324   19.8828 C   0  0  0  0  0  0  0  0  0  0  0  0
    7.3872   -0.6795   20.9556 C   0  0  0  0  0  0  0  0  0  0  0  0
    8.7190   -0.4297   21.1953 C   0  0  0  0  0  0  0  0  0  0  0  0
    9.2230    0.3241   20.5916 H   0  0  0  0  0  0  0  0  0  0  0  0
    9.4580   -1.0879   22.2229 C   0  0  0  0  0  0  0  0  0  0  0  0
   10.9037   -0.7405   22.5148 C   0  0  0  0  0  0  0  0  0  0  0  0
   11.3652   -0.3215   21.6095 H   0  0  0  0  0  0  0  0  0  0  0  0
   11.4775   -1.6469   22.7519 H   0  0  0  0  0  0  0  0  0  0  0  0
   11.0463    0.2739   23.6698 C   0  0  0  0  0  0  0  0  0  0  0  0
   10.5582   -0.1275   24.5735 H   0  0  0  0  0  0  0  0  0  0  0  0
   12.1108    0.3814   23.9276 H   0  0  0  0  0  0  0  0  0  0  0  0
   10.4562    1.6592   23.3590 C   0  0  0  0  0  0  0  0  0  0  0  0
   10.9028    2.0498   22.4289 H   0  0  0  0  0  0  0  0  0  0  0  0
    9.3742    1.5690   23.1602 H   0  0  0  0  0  0  0  0  0  0  0  0
   10.6829    2.6529   24.5071 C   0  0  0  0  0  0  0  0  0  0  0  0
   11.7698    2.7849   24.6498 H   0  0  0  0  0  0  0  0  0  0  0  0
   10.3019    2.2036   25.4376 H   0  0  0  0  0  0  0  0  0  0  0  0
   10.0272    4.0297   24.3040 C   0  0  0  0  0  0  0  0  0  0  0  0
   10.0736    4.6004   25.2411 H   0  0  0  0  0  0  0  0  0  0  0  0
    8.9557    3.8842   24.0922 H   0  0  0  0  0  0  0  0  0  0  0  0
   10.6675    4.8323   23.1692 C   0  0  0  0  0  0  0  0  0  0  0  0
   10.2257    5.8284   23.0686 H   0  0  0  0  0  0  0  0  0  0  0  0
   10.5284    4.2998   22.2282 H   0  0  0  0  0  0  0  0  0  0  0  0
   11.7480    4.9539   23.3135 H   0  0  0  0  0  0  0  0  0  0  0  0
    8.7939   -1.9879   23.0118 C   0  0  0  0  0  0  0  0  0  0  0  0
    9.2738   -2.5047   23.8386 H   0  0  0  0  0  0  0  0  0  0  0  0
    7.4748   -2.2427   22.7840 N   0  0  0  0  0  0  0  0  0  0  0  0
    6.8830   -2.9087   23.2602 H   0  0  0  0  0  0  0  0  0  0  0  0
    6.6981   -1.7112   21.7600 C   0  0  0  0  0  0  0  0  0  0  0  0
    5.5835   -2.1961   21.6409 O   0  0  0  0  0  0  0  0  0  0  0  0
    5.4351    0.6659   20.1280 C   0  0  0  0  0  0  0  0  0  0  0  0
    5.0117    0.6103   21.1289 H   0  0  0  0  0  0  0  0  0  0  0  0
    4.7958    1.3274   19.0780 C   0  0  0  0  0  0  0  0  0  0  0  0
    3.8603    1.8527   19.2284 H   0  0  0  0  0  0  0  0  0  0  0  0
  1  2  1  0
  2  3  2  0
  3  4  1  0
  4  5  1  0
  4  6  2  0
  6  7  1  0
  7  8  2  0
  8  9  1  0
  8 10  1  0
 10 11  1  0
 11 12  1  0
 11 13  1  0
 11 14  1  0
 14 15  1  0
 14 16  1  0
 14 17  1  0
 17 18  1  0
 17 19  1  0
 17 20  1  0
 20 21  1  0
 20 22  1  0
 20 23  1  0
 23 24  1  0
 23 25  1  0
 23 26  1  0
 26 27  1  0
 26 28  1  0
 26 29  1  0
 10 30  2  0
 30 31  1  0
 30 32  1  0
 32 33  1  0
 32 34  1  0
 34 35  2  0
  6 36  1  0
 36 37  1  0
 36 38  2  0
 38 39  1  0
 38  2  1  0
 34  7  1  0
M  END
>  <cnnaffinity>  (1) 
-5.55695

>  <filename>  (1) 
CCCCCCc1c[nH]c(=O)c(-c2cccnc2)c1

$$$$
