
     RDKit          3D

 41 43  0  0  0  0  0  0  0  0999 V2000
    8.0991   -1.6863   25.6802 C   0  0  0  0  0  0  0  0  0  0  0  0
    6.9613   -2.3896   24.9404 C   0  0  0  0  0  0  0  0  0  0  0  0
    7.3933   -3.0190   23.5925 C   0  0  0  0  0  0  0  0  0  0  0  0
    7.6680   -2.0295   22.5021 C   0  0  0  0  0  0  0  0  0  0  0  0
    6.7308   -1.6387   21.6655 N   0  0  0  0  0  0  0  0  0  0  0  0
    7.3524   -0.6965   20.9145 N   0  0  0  0  0  0  0  0  0  0  0  0
    6.6615   -0.0308   19.8668 C   0  0  0  0  0  0  0  0  0  0  0  0
    5.4588    0.6252   20.1498 C   0  0  0  0  0  0  0  0  0  0  0  0
    4.8293    1.3070   19.1062 C   0  0  0  0  0  0  0  0  0  0  0  0
    5.4105    1.2990   17.8346 C   0  0  0  0  0  0  0  0  0  0  0  0
    6.5380    0.6295   17.5452 N   0  0  0  0  0  0  0  0  0  0  0  0
    7.1431   -0.0241   18.5436 C   0  0  0  0  0  0  0  0  0  0  0  0
    8.0590   -0.5643   18.2940 H   0  0  0  0  0  0  0  0  0  0  0  0
    4.9553    1.8545   17.0175 H   0  0  0  0  0  0  0  0  0  0  0  0
    3.9018    1.8413   19.2733 H   0  0  0  0  0  0  0  0  0  0  0  0
    5.0609    0.5903   21.1633 H   0  0  0  0  0  0  0  0  0  0  0  0
    8.6264   -0.5332   21.3743 C   0  0  0  0  0  0  0  0  0  0  0  0
    9.5221    0.5451   20.8611 C   0  0  0  0  0  0  0  0  0  0  0  0
    9.1701    1.9760   21.3430 C   0  0  0  0  0  0  0  0  0  0  0  0
    9.3312    2.0740   22.8434 C   0  0  0  0  0  0  0  0  0  0  0  0
   10.6258    2.1111   23.3850 C   0  0  0  0  0  0  0  0  0  0  0  0
   10.8196    2.0495   24.7645 C   0  0  0  0  0  0  0  0  0  0  0  0
    9.6880    1.9850   25.5740 C   0  0  0  0  0  0  0  0  0  0  0  0
    8.4384    1.9629   25.1007 N   0  0  0  0  0  0  0  0  0  0  0  0
    8.2855    1.9698   23.7808 C   0  0  0  0  0  0  0  0  0  0  0  0
    6.6440    1.7862   23.2458 Cl  0  0  0  0  0  0  0  0  0  0  0  0
    9.7611    1.9137   26.6469 H   0  0  0  0  0  0  0  0  0  0  0  0
   11.8149    2.0248   25.1937 H   0  0  0  0  0  0  0  0  0  0  0  0
   11.4776    2.1544   22.7105 H   0  0  0  0  0  0  0  0  0  0  0  0
    9.8532    2.6777   20.8529 H   0  0  0  0  0  0  0  0  0  0  0  0
    8.1642    2.2741   21.0331 H   0  0  0  0  0  0  0  0  0  0  0  0
    9.5312    0.5002   19.7707 H   0  0  0  0  0  0  0  0  0  0  0  0
   10.5375    0.3136   21.1891 H   0  0  0  0  0  0  0  0  0  0  0  0
    8.8735   -1.4083   22.3346 N   0  0  0  0  0  0  0  0  0  0  0  0
    8.2957   -3.6176   23.7393 H   0  0  0  0  0  0  0  0  0  0  0  0
    6.6171   -3.6976   23.2283 H   0  0  0  0  0  0  0  0  0  0  0  0
    6.5486   -3.1857   25.5719 H   0  0  0  0  0  0  0  0  0  0  0  0
    6.1332   -1.6873   24.7731 H   0  0  0  0  0  0  0  0  0  0  0  0
    8.8664   -2.4021   25.9943 H   0  0  0  0  0  0  0  0  0  0  0  0
    8.5827   -0.9435   25.0374 H   0  0  0  0  0  0  0  0  0  0  0  0
    7.7475   -1.1678   26.5800 H   0  0  0  0  0  0  0  0  0  0  0  0
  1  2  1  0
  2  3  1  0
  3  4  1  0
  4  5  2  0
  5  6  1  0
  6  7  1  0
  7  8  2  0
  8  9  1  0
  9 10  2  0
 10 11  1  0
 11 12  2  0
 12 13  1  0
 10 14  1  0
  9 15  1  0
  8 16  1  0
  6 17  1  0
 17 18  1  0
 18 19  1  0
 19 20  1  0
 20 21  2  0
 21 22  1  0
 22 23  2  0
 23 24  1  0
 24 25  2  0
 25 26  1  0
 23 27  1  0
 22 28  1  0
 21 29  1  0
 19 30  1  0
 19 31  1  0
 18 32  1  0
 18 33  1  0
 17 34  2  0
  3 35  1  0
  3 36  1  0
  2 37  1  0
  2 38  1  0
  1 39  1  0
  1 40  1  0
  1 41  1  0
 34  4  1  0
 12  7  1  0
 25 20  1  0
M  END
>  <cnnaffinity>  (1) 
-6.01649

>  <filename>  (1) 
CCCc1nc(CCc2cccnc2Cl)n(-c2cccnc2)n1

$$$$
