
     RDKit          3D

 44 46  0  0  0  0  0  0  0  0999 V2000
    6.7734   -0.5211   26.6741 C   0  0  0  0  0  0  0  0  0  0  0  0
    6.6046   -1.1440   25.2818 C   0  0  0  0  0  0  0  0  0  0  0  0
    7.5784   -2.3033   25.0382 C   0  0  0  0  0  0  0  0  0  0  0  0
    7.3961   -2.9807   23.6587 C   0  0  0  0  0  0  0  0  0  0  0  0
    8.3074   -4.2162   23.5249 C   0  0  0  0  0  0  0  0  0  0  0  0
    9.3662   -3.9402   23.6227 H   0  0  0  0  0  0  0  0  0  0  0  0
    8.0716   -4.9443   24.3098 H   0  0  0  0  0  0  0  0  0  0  0  0
    8.1752   -4.7089   22.5557 H   0  0  0  0  0  0  0  0  0  0  0  0
    7.6300   -1.9895   22.5484 C   0  0  0  0  0  0  0  0  0  0  0  0
    6.6900   -1.5975   21.7173 N   0  0  0  0  0  0  0  0  0  0  0  0
    7.3334   -0.6891   20.9302 N   0  0  0  0  0  0  0  0  0  0  0  0
    6.6414   -0.0104   19.8926 C   0  0  0  0  0  0  0  0  0  0  0  0
    5.4288    0.6355   20.1554 C   0  0  0  0  0  0  0  0  0  0  0  0
    4.8073    1.3121   19.1028 C   0  0  0  0  0  0  0  0  0  0  0  0
    5.3936    1.2970   17.8331 C   0  0  0  0  0  0  0  0  0  0  0  0
    6.5460    0.6640   17.5708 N   0  0  0  0  0  0  0  0  0  0  0  0
    7.1542    0.0361   18.5833 C   0  0  0  0  0  0  0  0  0  0  0  0
    8.1043   -0.4438   18.3538 H   0  0  0  0  0  0  0  0  0  0  0  0
    4.9278    1.8019   16.9899 H   0  0  0  0  0  0  0  0  0  0  0  0
    3.8783    1.8438   19.2541 H   0  0  0  0  0  0  0  0  0  0  0  0
    5.0066    0.5927   21.1603 H   0  0  0  0  0  0  0  0  0  0  0  0
    8.6127   -0.5580   21.3853 C   0  0  0  0  0  0  0  0  0  0  0  0
    9.6320    0.4082   20.9037 C   0  0  0  0  0  0  0  0  0  0  0  0
    9.9958    1.3549   22.0022 C   0  0  0  0  0  0  0  0  0  0  0  0
   11.1616    1.3067   22.5884 N   0  0  0  0  0  0  0  0  0  0  0  0
   11.1193    2.2452   23.5990 O   0  0  0  0  0  0  0  0  0  0  0  0
    9.9126    2.8298   23.5835 C   0  0  0  0  0  0  0  0  0  0  0  0
    9.1282    2.3329   22.5937 C   0  0  0  0  0  0  0  0  0  0  0  0
    7.7010    2.6634   22.2409 C   0  0  0  0  0  0  0  0  0  0  0  0
    7.0051    1.9024   22.6202 H   0  0  0  0  0  0  0  0  0  0  0  0
    7.3946    3.6253   22.6620 H   0  0  0  0  0  0  0  0  0  0  0  0
    7.5436    2.7035   21.1570 H   0  0  0  0  0  0  0  0  0  0  0  0
    9.7489    3.5862   24.3387 H   0  0  0  0  0  0  0  0  0  0  0  0
    9.2358    0.9683   20.0584 H   0  0  0  0  0  0  0  0  0  0  0  0
   10.5122   -0.1631   20.6081 H   0  0  0  0  0  0  0  0  0  0  0  0
    8.8341   -1.3854   22.3796 N   0  0  0  0  0  0  0  0  0  0  0  0
    6.3457   -3.2793   23.5397 H   0  0  0  0  0  0  0  0  0  0  0  0
    8.6169   -1.9374   25.1198 H   0  0  0  0  0  0  0  0  0  0  0  0
    7.4496   -3.0663   25.8218 H   0  0  0  0  0  0  0  0  0  0  0  0
    6.7501   -0.3820   24.4965 H   0  0  0  0  0  0  0  0  0  0  0  0
    5.5729   -1.5098   25.1544 H   0  0  0  0  0  0  0  0  0  0  0  0
    6.0684    0.3017   26.8390 H   0  0  0  0  0  0  0  0  0  0  0  0
    7.7877   -0.1222   26.8100 H   0  0  0  0  0  0  0  0  0  0  0  0
    6.6079   -1.2636   27.4673 H   0  0  0  0  0  0  0  0  0  0  0  0
  1  2  1  0
  2  3  1  0
  3  4  1  0
  4  5  1  0
  5  6  1  0
  5  7  1  0
  5  8  1  0
  4  9  1  0
  9 10  2  0
 10 11  1  0
 11 12  1  0
 12 13  2  0
 13 14  1  0
 14 15  2  0
 15 16  1  0
 16 17  2  0
 17 18  1  0
 15 19  1  0
 14 20  1  0
 13 21  1  0
 11 22  1  0
 22 23  1  0
 23 24  1  0
 24 25  2  0
 25 26  1  0
 26 27  1  0
 27 28  2  0
 28 29  1  0
 29 30  1  0
 29 31  1  0
 29 32  1  0
 27 33  1  0
 23 34  1  0
 23 35  1  0
 22 36  2  0
  4 37  1  0
  3 38  1  0
  3 39  1  0
  2 40  1  0
  2 41  1  0
  1 42  1  0
  1 43  1  0
  1 44  1  0
 36  9  1  0
 17 12  1  0
 28 24  1  0
M  END
>  <cnnaffinity>  (1) 
-5.84333

>  <filename>  (1) 
CCCC(C)c1nc(Cc2nocc2C)n(-c2cccnc2)n1

$$$$
