
     RDKit          3D

 39 40  0  0  0  0  0  0  0  0999 V2000
    4.9206    1.7876   16.9915 H   0  0  0  0  0  0  0  0  0  0  0  0
    5.3980    1.2940   17.8350 C   0  0  0  0  0  0  0  0  0  0  0  0
    6.5590    0.6781   17.5674 N   0  0  0  0  0  0  0  0  0  0  0  0
    7.1750    0.0680   18.5845 C   0  0  0  0  0  0  0  0  0  0  0  0
    8.1167   -0.4185   18.3478 H   0  0  0  0  0  0  0  0  0  0  0  0
    6.6800    0.0099   19.9025 C   0  0  0  0  0  0  0  0  0  0  0  0
    7.4149   -0.6997   20.9653 C   0  0  0  0  0  0  0  0  0  0  0  0
    9.1089   -1.0563   20.9061 S   0  0  0  0  0  0  0  0  0  0  0  0
    9.0487   -1.8223   22.4400 C   0  0  0  0  0  0  0  0  0  0  0  0
    9.9381   -2.2267   22.8865 H   0  0  0  0  0  0  0  0  0  0  0  0
    7.8017   -1.8422   22.9842 C   0  0  0  0  0  0  0  0  0  0  0  0
    7.4622   -2.3939   24.3473 C   0  0  0  0  0  0  0  0  0  0  0  0
    6.3766   -2.5480   24.4235 H   0  0  0  0  0  0  0  0  0  0  0  0
    7.9098   -3.3902   24.4640 H   0  0  0  0  0  0  0  0  0  0  0  0
    7.9365   -1.4761   25.4911 C   0  0  0  0  0  0  0  0  0  0  0  0
    9.0235   -1.3660   25.4026 H   0  0  0  0  0  0  0  0  0  0  0  0
    7.7614   -1.9716   26.4551 H   0  0  0  0  0  0  0  0  0  0  0  0
    7.3046   -0.0737   25.4981 C   0  0  0  0  0  0  0  0  0  0  0  0
    7.7643    0.5145   26.3029 H   0  0  0  0  0  0  0  0  0  0  0  0
    7.5716    0.4482   24.5682 H   0  0  0  0  0  0  0  0  0  0  0  0
    5.7765   -0.0423   25.6629 C   0  0  0  0  0  0  0  0  0  0  0  0
    5.4469    1.0051   25.6854 H   0  0  0  0  0  0  0  0  0  0  0  0
    5.3029   -0.4689   24.7714 H   0  0  0  0  0  0  0  0  0  0  0  0
    5.2352   -0.7511   26.9077 C   0  0  0  0  0  0  0  0  0  0  0  0
    5.4739   -1.8227   26.8649 H   0  0  0  0  0  0  0  0  0  0  0  0
    4.1389   -0.7021   26.8959 H   0  0  0  0  0  0  0  0  0  0  0  0
    5.7468   -0.1712   28.2257 C   0  0  0  0  0  0  0  0  0  0  0  0
    5.5766    0.9130   28.2263 H   0  0  0  0  0  0  0  0  0  0  0  0
    6.8350   -0.2918   28.2899 H   0  0  0  0  0  0  0  0  0  0  0  0
    5.0856   -0.8026   29.4468 C   0  0  0  0  0  0  0  0  0  0  0  0
    3.9995   -0.6533   29.4263 H   0  0  0  0  0  0  0  0  0  0  0  0
    5.2626   -1.8840   29.4791 H   0  0  0  0  0  0  0  0  0  0  0  0
    5.4645   -0.3762   30.3811 H   0  0  0  0  0  0  0  0  0  0  0  0
    6.8803   -1.1917   22.1155 C   0  0  0  0  0  0  0  0  0  0  0  0
    5.8411   -1.0870   22.3386 H   0  0  0  0  0  0  0  0  0  0  0  0
    5.4482    0.6460   20.1563 C   0  0  0  0  0  0  0  0  0  0  0  0
    5.0142    0.6406   21.1597 H   0  0  0  0  0  0  0  0  0  0  0  0
    4.8089    1.3078   19.1043 C   0  0  0  0  0  0  0  0  0  0  0  0
    3.8778    1.8387   19.2547 H   0  0  0  0  0  0  0  0  0  0  0  0
  1  2  1  0
  2  3  2  0
  3  4  1  0
  4  5  1  0
  4  6  2  0
  6  7  1  0
  7  8  1  0
  8  9  1  0
  9 10  1  0
  9 11  2  0
 11 12  1  0
 12 13  1  0
 12 14  1  0
 12 15  1  0
 15 16  1  0
 15 17  1  0
 15 18  1  0
 18 19  1  0
 18 20  1  0
 18 21  1  0
 21 22  1  0
 21 23  1  0
 21 24  1  0
 24 25  1  0
 24 26  1  0
 24 27  1  0
 27 28  1  0
 27 29  1  0
 27 30  1  0
 30 31  1  0
 30 32  1  0
 30 33  1  0
 11 34  1  0
 34 35  1  0
  6 36  1  0
 36 37  1  0
 36 38  2  0
 38 39  1  0
 38  2  1  0
 34  7  2  0
M  END
>  <cnnaffinity>  (1) 
-5.24852

>  <filename>  (1) 
CCCCCCCc1csc(-c2cccnc2)c1

$$$$
