
     RDKit          3D

 42 43  0  0  0  0  0  0  0  0999 V2000
    5.0424    1.9032   16.9984 H   0  0  0  0  0  0  0  0  0  0  0  0
    5.4912    1.3458   17.8178 C   0  0  0  0  0  0  0  0  0  0  0  0
    6.6423    0.7117   17.5425 N   0  0  0  0  0  0  0  0  0  0  0  0
    7.2324    0.0366   18.5362 C   0  0  0  0  0  0  0  0  0  0  0  0
    8.1601   -0.4825   18.2983 H   0  0  0  0  0  0  0  0  0  0  0  0
    6.7042   -0.0543   19.8414 C   0  0  0  0  0  0  0  0  0  0  0  0
    7.3504   -0.7932   20.8768 N   0  0  0  0  0  0  0  0  0  0  0  0
    8.6271   -0.5436   21.4146 C   0  0  0  0  0  0  0  0  0  0  0  0
    9.4520    0.5990   20.9383 C   0  0  0  0  0  0  0  0  0  0  0  0
   10.4805    0.4689   21.2921 H   0  0  0  0  0  0  0  0  0  0  0  0
    9.5014    0.5561   19.8472 H   0  0  0  0  0  0  0  0  0  0  0  0
    8.8941    1.9730   21.3715 C   0  0  0  0  0  0  0  0  0  0  0  0
    9.5708    2.7538   21.0056 H   0  0  0  0  0  0  0  0  0  0  0  0
    7.9361    2.1346   20.8598 H   0  0  0  0  0  0  0  0  0  0  0  0
    8.6921    2.1235   22.8891 C   0  0  0  0  0  0  0  0  0  0  0  0
    8.2642    3.1159   23.0936 H   0  0  0  0  0  0  0  0  0  0  0  0
    7.9267    1.4021   23.2087 H   0  0  0  0  0  0  0  0  0  0  0  0
    9.9612    1.9194   23.7369 C   0  0  0  0  0  0  0  0  0  0  0  0
   10.2820    0.8710   23.6550 H   0  0  0  0  0  0  0  0  0  0  0  0
    9.6938    2.0672   24.7941 H   0  0  0  0  0  0  0  0  0  0  0  0
   11.1388    2.8401   23.3742 C   0  0  0  0  0  0  0  0  0  0  0  0
   11.9629    2.6392   24.0699 H   0  0  0  0  0  0  0  0  0  0  0  0
   11.5336    2.5827   22.3795 H   0  0  0  0  0  0  0  0  0  0  0  0
   10.7610    4.3236   23.3985 C   0  0  0  0  0  0  0  0  0  0  0  0
   10.3573    4.5721   24.3919 H   0  0  0  0  0  0  0  0  0  0  0  0
    9.9395    4.4923   22.6897 H   0  0  0  0  0  0  0  0  0  0  0  0
   11.8612    5.3223   23.0351 C   0  0  0  0  0  0  0  0  0  0  0  0
   11.4228    6.3268   23.0989 H   0  0  0  0  0  0  0  0  0  0  0  0
   12.1442    5.1874   21.9826 H   0  0  0  0  0  0  0  0  0  0  0  0
   13.1167    5.3008   23.9062 C   0  0  0  0  0  0  0  0  0  0  0  0
   12.8704    5.2560   24.9716 H   0  0  0  0  0  0  0  0  0  0  0  0
   13.7772    4.4516   23.6999 H   0  0  0  0  0  0  0  0  0  0  0  0
   13.6843    6.2176   23.7208 H   0  0  0  0  0  0  0  0  0  0  0  0
    8.7778   -1.4179   22.4211 C   0  0  0  0  0  0  0  0  0  0  0  0
    9.5869   -1.6296   23.1027 H   0  0  0  0  0  0  0  0  0  0  0  0
    7.6425   -2.1920   22.5476 O   0  0  0  0  0  0  0  0  0  0  0  0
    6.7371   -1.8186   21.5965 C   0  0  0  0  0  0  0  0  0  0  0  0
    5.6585   -2.3303   21.4233 O   0  0  0  0  0  0  0  0  0  0  0  0
    5.4953    0.5937   20.1076 C   0  0  0  0  0  0  0  0  0  0  0  0
    5.0713    0.5066   21.1067 H   0  0  0  0  0  0  0  0  0  0  0  0
    4.8818    1.3066   19.0761 C   0  0  0  0  0  0  0  0  0  0  0  0
    3.9483    1.8292   19.2417 H   0  0  0  0  0  0  0  0  0  0  0  0
  1  2  1  0
  2  3  2  0
  3  4  1  0
  4  5  1  0
  4  6  2  0
  6  7  1  0
  7  8  1  0
  8  9  1  0
  9 10  1  0
  9 11  1  0
  9 12  1  0
 12 13  1  0
 12 14  1  0
 12 15  1  0
 15 16  1  0
 15 17  1  0
 15 18  1  0
 18 19  1  0
 18 20  1  0
 18 21  1  0
 21 22  1  0
 21 23  1  0
 21 24  1  0
 24 25  1  0
 24 26  1  0
 24 27  1  0
 27 28  1  0
 27 29  1  0
 27 30  1  0
 30 31  1  0
 30 32  1  0
 30 33  1  0
  8 34  2  0
 34 35  1  0
 34 36  1  0
 36 37  1  0
 37 38  2  0
  6 39  1  0
 39 40  1  0
 39 41  2  0
 41 42  1  0
 41  2  1  0
 37  7  1  0
M  END
>  <cnnaffinity>  (1) 
-5.23168

>  <filename>  (1) 
CCCCCCCCc1coc(=O)n1-c1cccnc1

$$$$
