
     RDKit          3D

 47 49  0  0  0  0  0  0  0  0999 V2000
    7.2918   -3.7726   25.1535 C   0  0  0  0  0  0  0  0  0  0  0  0
    6.6919   -4.1302   23.7930 C   0  0  0  0  0  0  0  0  0  0  0  0
    7.7140   -4.5305   22.7226 C   0  0  0  0  0  0  0  0  0  0  0  0
    8.7610   -3.4432   22.3385 C   0  0  0  0  0  0  0  0  0  0  0  0
    9.9447   -3.3281   23.3292 C   0  0  0  0  0  0  0  0  0  0  0  0
   10.8572   -3.0366   22.7957 H   0  0  0  0  0  0  0  0  0  0  0  0
    9.7618   -2.5648   24.0956 H   0  0  0  0  0  0  0  0  0  0  0  0
   10.1335   -4.2787   23.8477 H   0  0  0  0  0  0  0  0  0  0  0  0
    8.1604   -2.0965   22.0541 C   0  0  0  0  0  0  0  0  0  0  0  0
    7.6806   -1.8157   20.8590 N   0  0  0  0  0  0  0  0  0  0  0  0
    7.2441   -0.5383   21.0015 N   0  0  0  0  0  0  0  0  0  0  0  0
    6.5700    0.0657   19.9161 C   0  0  0  0  0  0  0  0  0  0  0  0
    5.3616    0.7324   20.1120 C   0  0  0  0  0  0  0  0  0  0  0  0
    4.7874    1.3650   19.0089 C   0  0  0  0  0  0  0  0  0  0  0  0
    5.4402    1.3076   17.7734 C   0  0  0  0  0  0  0  0  0  0  0  0
    6.5760    0.6136   17.5710 N   0  0  0  0  0  0  0  0  0  0  0  0
    7.1090   -0.0201   18.6208 C   0  0  0  0  0  0  0  0  0  0  0  0
    8.0033   -0.6138   18.4405 H   0  0  0  0  0  0  0  0  0  0  0  0
    5.0207    1.8134   16.9076 H   0  0  0  0  0  0  0  0  0  0  0  0
    3.8443    1.8897   19.1053 H   0  0  0  0  0  0  0  0  0  0  0  0
    4.8967    0.7384   21.1001 H   0  0  0  0  0  0  0  0  0  0  0  0
    7.5189   -0.1001   22.2683 C   0  0  0  0  0  0  0  0  0  0  0  0
    7.3645    1.2843   22.8181 C   0  0  0  0  0  0  0  0  0  0  0  0
    8.6877    1.7466   23.4038 C   0  0  0  0  0  0  0  0  0  0  0  0
    8.7920    1.6673   24.7347 N   0  0  0  0  0  0  0  0  0  0  0  0
    9.9657    1.9789   25.3035 C   0  0  0  0  0  0  0  0  0  0  0  0
   11.0686    2.4189   24.5779 C   0  0  0  0  0  0  0  0  0  0  0  0
   10.9498    2.5531   23.1928 C   0  0  0  0  0  0  0  0  0  0  0  0
    9.7551    2.1737   22.5703 C   0  0  0  0  0  0  0  0  0  0  0  0
    9.6483    2.2044   21.0715 C   0  0  0  0  0  0  0  0  0  0  0  0
    9.4165    1.2089   20.6712 H   0  0  0  0  0  0  0  0  0  0  0  0
   10.5937    2.5357   20.6299 H   0  0  0  0  0  0  0  0  0  0  0  0
    8.8553    2.8839   20.7348 H   0  0  0  0  0  0  0  0  0  0  0  0
   11.7774    2.9463   22.5989 H   0  0  0  0  0  0  0  0  0  0  0  0
   11.9977    2.6325   25.0836 H   0  0  0  0  0  0  0  0  0  0  0  0
   10.0276    1.8709   26.3849 H   0  0  0  0  0  0  0  0  0  0  0  0
    7.0023    1.9744   22.0482 H   0  0  0  0  0  0  0  0  0  0  0  0
    6.6292    1.2430   23.6254 H   0  0  0  0  0  0  0  0  0  0  0  0
    8.0676   -1.0852   22.9526 N   0  0  0  0  0  0  0  0  0  0  0  0
    9.1073   -3.7205   21.3416 H   0  0  0  0  0  0  0  0  0  0  0  0
    7.1812   -4.8301   21.8091 H   0  0  0  0  0  0  0  0  0  0  0  0
    8.2641   -5.4259   23.0607 H   0  0  0  0  0  0  0  0  0  0  0  0
    5.9861   -4.9625   23.9134 H   0  0  0  0  0  0  0  0  0  0  0  0
    6.1063   -3.2764   23.4236 H   0  0  0  0  0  0  0  0  0  0  0  0
    8.0117   -4.5291   25.4918 H   0  0  0  0  0  0  0  0  0  0  0  0
    6.5119   -3.6821   25.9168 H   0  0  0  0  0  0  0  0  0  0  0  0
    7.8111   -2.8103   25.1024 H   0  0  0  0  0  0  0  0  0  0  0  0
  1  2  1  0
  2  3  1  0
  3  4  1  0
  4  5  1  0
  5  6  1  0
  5  7  1  0
  5  8  1  0
  4  9  1  0
  9 10  2  0
 10 11  1  0
 11 12  1  0
 12 13  2  0
 13 14  1  0
 14 15  2  0
 15 16  1  0
 16 17  2  0
 17 18  1  0
 15 19  1  0
 14 20  1  0
 13 21  1  0
 11 22  1  0
 22 23  1  0
 23 24  1  0
 24 25  2  0
 25 26  1  0
 26 27  2  0
 27 28  1  0
 28 29  2  0
 29 30  1  0
 30 31  1  0
 30 32  1  0
 30 33  1  0
 28 34  1  0
 27 35  1  0
 26 36  1  0
 23 37  1  0
 23 38  1  0
 22 39  2  0
  4 40  1  0
  3 41  1  0
  3 42  1  0
  2 43  1  0
  2 44  1  0
  1 45  1  0
  1 46  1  0
  1 47  1  0
 39  9  1  0
 17 12  1  0
 29 24  1  0
M  END
>  <cnnaffinity>  (1) 
-6.25582

>  <filename>  (1) 
CCCC(C)c1nc(Cc2ncccc2C)n(-c2cccnc2)n1

$$$$
