
     RDKit          3D

 48 50  0  0  0  0  0  0  0  0999 V2000
    9.5617   -5.7846   24.7550 C   0  0  0  0  0  0  0  0  0  0  0  0
    8.4780   -5.4816   23.7120 C   0  0  0  0  0  0  0  0  0  0  0  0
    8.0587   -4.0106   23.5207 C   0  0  0  0  0  0  0  0  0  0  0  0
    8.8864   -3.2142   22.4788 C   0  0  0  0  0  0  0  0  0  0  0  0
   10.3119   -2.8891   22.9703 C   0  0  0  0  0  0  0  0  0  0  0  0
   10.8251   -3.7732   23.3555 H   0  0  0  0  0  0  0  0  0  0  0  0
   10.2636   -2.1514   23.7821 H   0  0  0  0  0  0  0  0  0  0  0  0
   10.9362   -2.4760   22.1693 H   0  0  0  0  0  0  0  0  0  0  0  0
    8.1749   -1.9507   22.0709 C   0  0  0  0  0  0  0  0  0  0  0  0
    7.7582   -1.7032   20.8457 N   0  0  0  0  0  0  0  0  0  0  0  0
    7.1625   -0.4835   20.9603 N   0  0  0  0  0  0  0  0  0  0  0  0
    6.5093    0.1150   19.8550 C   0  0  0  0  0  0  0  0  0  0  0  0
    5.2964    0.8049   19.9870 C   0  0  0  0  0  0  0  0  0  0  0  0
    4.7684    1.4279   18.8522 C   0  0  0  0  0  0  0  0  0  0  0  0
    5.4518    1.3223   17.6381 C   0  0  0  0  0  0  0  0  0  0  0  0
    6.5867    0.6144   17.4970 N   0  0  0  0  0  0  0  0  0  0  0  0
    7.0923    0.0179   18.5790 C   0  0  0  0  0  0  0  0  0  0  0  0
    8.0063   -0.5571   18.4499 H   0  0  0  0  0  0  0  0  0  0  0  0
    5.0723    1.8125   16.7436 H   0  0  0  0  0  0  0  0  0  0  0  0
    3.8493    2.0003   18.9057 H   0  0  0  0  0  0  0  0  0  0  0  0
    4.7653    0.8395   20.9387 H   0  0  0  0  0  0  0  0  0  0  0  0
    7.3156   -0.0398   22.2405 C   0  0  0  0  0  0  0  0  0  0  0  0
    6.9271    1.3199   22.7717 C   0  0  0  0  0  0  0  0  0  0  0  0
    7.9150    1.8362   23.7408 N   0  0  0  0  0  0  0  0  0  0  0  0
    9.0883    2.3739   23.2741 C   0  0  0  0  0  0  0  0  0  0  0  0
   10.2191    2.3819   24.0432 C   0  0  0  0  0  0  0  0  0  0  0  0
   11.4861    3.0319   23.5714 C   0  0  0  0  0  0  0  0  0  0  0  0
   11.7272    4.1793   24.2366 F   0  0  0  0  0  0  0  0  0  0  0  0
   11.4799    3.3327   22.2598 F   0  0  0  0  0  0  0  0  0  0  0  0
   12.5446    2.2274   23.7941 F   0  0  0  0  0  0  0  0  0  0  0  0
   10.2099    1.7219   25.3096 C   0  0  0  0  0  0  0  0  0  0  0  0
    9.0430    1.2646   25.8215 C   0  0  0  0  0  0  0  0  0  0  0  0
    7.7933    1.3661   25.0910 C   0  0  0  0  0  0  0  0  0  0  0  0
    6.7100    1.0422   25.5478 O   0  0  0  0  0  0  0  0  0  0  0  0
    8.9547    0.8024   26.7938 H   0  0  0  0  0  0  0  0  0  0  0  0
   11.1429    1.5902   25.8527 H   0  0  0  0  0  0  0  0  0  0  0  0
    9.0615    2.7437   22.2486 H   0  0  0  0  0  0  0  0  0  0  0  0
    6.7882    2.0521   21.9697 H   0  0  0  0  0  0  0  0  0  0  0  0
    5.9828    1.2060   23.3107 H   0  0  0  0  0  0  0  0  0  0  0  0
    7.9165   -0.9625   22.9641 N   0  0  0  0  0  0  0  0  0  0  0  0
    8.9101   -3.8075   21.5594 H   0  0  0  0  0  0  0  0  0  0  0  0
    8.0748   -3.4790   24.4841 H   0  0  0  0  0  0  0  0  0  0  0  0
    7.0083   -4.0045   23.1967 H   0  0  0  0  0  0  0  0  0  0  0  0
    8.7669   -5.8940   22.7360 H   0  0  0  0  0  0  0  0  0  0  0  0
    7.5851   -6.0435   24.0121 H   0  0  0  0  0  0  0  0  0  0  0  0
    9.6959   -6.8670   24.8526 H   0  0  0  0  0  0  0  0  0  0  0  0
    9.2802   -5.3978   25.7401 H   0  0  0  0  0  0  0  0  0  0  0  0
   10.5463   -5.3694   24.5212 H   0  0  0  0  0  0  0  0  0  0  0  0
  1  2  1  0
  2  3  1  0
  3  4  1  0
  4  5  1  0
  5  6  1  0
  5  7  1  0
  5  8  1  0
  4  9  1  0
  9 10  2  0
 10 11  1  0
 11 12  1  0
 12 13  2  0
 13 14  1  0
 14 15  2  0
 15 16  1  0
 16 17  2  0
 17 18  1  0
 15 19  1  0
 14 20  1  0
 13 21  1  0
 11 22  1  0
 22 23  1  0
 23 24  1  0
 24 25  1  0
 25 26  2  0
 26 27  1  0
 27 28  1  0
 27 29  1  0
 27 30  1  0
 26 31  1  0
 31 32  2  0
 32 33  1  0
 33 34  2  0
 32 35  1  0
 31 36  1  0
 25 37  1  0
 23 38  1  0
 23 39  1  0
 22 40  2  0
  4 41  1  0
  3 42  1  0
  3 43  1  0
  2 44  1  0
  2 45  1  0
  1 46  1  0
  1 47  1  0
  1 48  1  0
 40  9  1  0
 17 12  1  0
 33 24  1  0
M  END
>  <cnnaffinity>  (1) 
-6.76745

>  <filename>  (1) 
CCCC(C)c1nc(Cn2cc(C(F)(F)F)ccc2=O)n(-c2cccnc2)n1

$$$$
