
     RDKit          3D

 44 46  0  0  0  0  0  0  0  0999 V2000
    8.5296   -4.8061   22.5483 C   0  0  0  0  0  0  0  0  0  0  0  0
    7.1338   -4.4579   23.0569 C   0  0  0  0  0  0  0  0  0  0  0  0
    7.1210   -3.0136   23.5943 C   0  0  0  0  0  0  0  0  0  0  0  0
    7.4734   -1.9936   22.5551 C   0  0  0  0  0  0  0  0  0  0  0  0
    6.5955   -1.5778   21.6700 N   0  0  0  0  0  0  0  0  0  0  0  0
    7.3137   -0.7059   20.9109 N   0  0  0  0  0  0  0  0  0  0  0  0
    6.6544   -0.0196   19.8592 C   0  0  0  0  0  0  0  0  0  0  0  0
    5.4441    0.6296   20.1255 C   0  0  0  0  0  0  0  0  0  0  0  0
    4.8257    1.3226   19.0836 C   0  0  0  0  0  0  0  0  0  0  0  0
    5.4233    1.3246   17.8161 C   0  0  0  0  0  0  0  0  0  0  0  0
    6.5638    0.6714   17.5416 N   0  0  0  0  0  0  0  0  0  0  0  0
    7.1570    0.0148   18.5483 C   0  0  0  0  0  0  0  0  0  0  0  0
    8.0638   -0.5356   18.3038 H   0  0  0  0  0  0  0  0  0  0  0  0
    4.9546    1.8518   16.9878 H   0  0  0  0  0  0  0  0  0  0  0  0
    3.8926    1.8490   19.2460 H   0  0  0  0  0  0  0  0  0  0  0  0
    5.0091    0.5634   21.1248 H   0  0  0  0  0  0  0  0  0  0  0  0
    8.5742   -0.5939   21.4322 C   0  0  0  0  0  0  0  0  0  0  0  0
    9.5868    0.4396   21.0356 C   0  0  0  0  0  0  0  0  0  0  0  0
    9.4986    1.7633   21.8650 C   0  0  0  0  0  0  0  0  0  0  0  0
    8.1161    2.4041   21.6754 C   0  0  0  0  0  0  0  0  0  0  0  0
    8.1042    3.4456   22.0178 H   0  0  0  0  0  0  0  0  0  0  0  0
    7.8223    2.3628   20.6218 H   0  0  0  0  0  0  0  0  0  0  0  0
    7.3418    1.8540   22.2229 H   0  0  0  0  0  0  0  0  0  0  0  0
    9.8563    1.5503   23.3366 C   0  0  0  0  0  0  0  0  0  0  0  0
    8.9166    1.1164   24.2883 C   0  0  0  0  0  0  0  0  0  0  0  0
    9.3424    0.7885   25.5774 C   0  0  0  0  0  0  0  0  0  0  0  0
   10.6984    0.8848   25.8901 C   0  0  0  0  0  0  0  0  0  0  0  0
   11.6084    1.3466   25.0220 N   0  0  0  0  0  0  0  0  0  0  0  0
   11.1850    1.6820   23.7938 C   0  0  0  0  0  0  0  0  0  0  0  0
   11.9601    2.0857   23.1408 H   0  0  0  0  0  0  0  0  0  0  0  0
   11.0637    0.5727   26.8714 H   0  0  0  0  0  0  0  0  0  0  0  0
    8.6371    0.4545   26.3299 H   0  0  0  0  0  0  0  0  0  0  0  0
    7.8660    0.9836   24.0229 H   0  0  0  0  0  0  0  0  0  0  0  0
   10.2549    2.4326   21.4293 H   0  0  0  0  0  0  0  0  0  0  0  0
    9.4651    0.6753   19.9734 H   0  0  0  0  0  0  0  0  0  0  0  0
   10.5765   -0.0107   21.1559 H   0  0  0  0  0  0  0  0  0  0  0  0
    8.7120   -1.4472   22.4320 N   0  0  0  0  0  0  0  0  0  0  0  0
    7.8682   -2.9241   24.3860 H   0  0  0  0  0  0  0  0  0  0  0  0
    6.1418   -2.7502   24.0090 H   0  0  0  0  0  0  0  0  0  0  0  0
    6.3795   -4.5614   22.2664 H   0  0  0  0  0  0  0  0  0  0  0  0
    6.8425   -5.1378   23.8692 H   0  0  0  0  0  0  0  0  0  0  0  0
    9.2315   -4.7598   23.3915 H   0  0  0  0  0  0  0  0  0  0  0  0
    8.8489   -4.0587   21.8113 H   0  0  0  0  0  0  0  0  0  0  0  0
    8.5993   -5.7997   22.0900 H   0  0  0  0  0  0  0  0  0  0  0  0
  1  2  1  0
  2  3  1  0
  3  4  1  0
  4  5  2  0
  5  6  1  0
  6  7  1  0
  7  8  2  0
  8  9  1  0
  9 10  2  0
 10 11  1  0
 11 12  2  0
 12 13  1  0
 10 14  1  0
  9 15  1  0
  8 16  1  0
  6 17  1  0
 17 18  1  0
 18 19  1  0
 19 20  1  0
 20 21  1  0
 20 22  1  0
 20 23  1  0
 19 24  1  0
 24 25  2  0
 25 26  1  0
 26 27  2  0
 27 28  1  0
 28 29  2  0
 29 30  1  0
 27 31  1  0
 26 32  1  0
 25 33  1  0
 19 34  1  0
 18 35  1  0
 18 36  1  0
 17 37  2  0
  3 38  1  0
  3 39  1  0
  2 40  1  0
  2 41  1  0
  1 42  1  0
  1 43  1  0
  1 44  1  0
 37  4  1  0
 12  7  1  0
 29 24  1  0
M  END
>  <cnnaffinity>  (1) 
-5.87493

>  <filename>  (1) 
CCCc1nc(CC(C)c2cccnc2)n(-c2cccnc2)n1

$$$$
