
     RDKit          3D

 42 44  0  0  0  0  0  0  0  0999 V2000
    8.3428   -5.7854   23.1555 C   0  0  0  0  0  0  0  0  0  0  0  0
    7.6168   -4.4572   22.9400 C   0  0  0  0  0  0  0  0  0  0  0  0
    8.4907   -3.4754   22.1434 C   0  0  0  0  0  0  0  0  0  0  0  0
    7.8919   -2.1402   21.8720 C   0  0  0  0  0  0  0  0  0  0  0  0
    7.5855   -1.7432   20.6578 N   0  0  0  0  0  0  0  0  0  0  0  0
    7.0488   -0.5136   20.8561 N   0  0  0  0  0  0  0  0  0  0  0  0
    6.4401    0.1766   19.7804 C   0  0  0  0  0  0  0  0  0  0  0  0
    5.2496    0.8995   19.9245 C   0  0  0  0  0  0  0  0  0  0  0  0
    4.7272    1.5226   18.7848 C   0  0  0  0  0  0  0  0  0  0  0  0
    5.4012    1.4011   17.5667 C   0  0  0  0  0  0  0  0  0  0  0  0
    6.5368    0.6950   17.4243 N   0  0  0  0  0  0  0  0  0  0  0  0
    7.0359    0.0978   18.5095 C   0  0  0  0  0  0  0  0  0  0  0  0
    7.9621   -0.4580   18.3955 H   0  0  0  0  0  0  0  0  0  0  0  0
    5.0137    1.8720   16.6649 H   0  0  0  0  0  0  0  0  0  0  0  0
    3.8100    2.0972   18.8359 H   0  0  0  0  0  0  0  0  0  0  0  0
    4.7319    0.9643   20.8811 H   0  0  0  0  0  0  0  0  0  0  0  0
    7.1374   -0.2080   22.1800 C   0  0  0  0  0  0  0  0  0  0  0  0
    6.7781    1.1014   22.8101 C   0  0  0  0  0  0  0  0  0  0  0  0
    7.8764    1.5985   23.6274 N   0  0  0  0  0  0  0  0  0  0  0  0
    8.9305    2.1643   23.0237 N   0  0  0  0  0  0  0  0  0  0  0  0
    9.8578    2.2845   23.9729 C   0  0  0  0  0  0  0  0  0  0  0  0
   11.2646    2.8097   23.7224 C   0  0  0  0  0  0  0  0  0  0  0  0
   12.1703    2.0018   24.3235 F   0  0  0  0  0  0  0  0  0  0  0  0
   11.4567    4.0391   24.2459 F   0  0  0  0  0  0  0  0  0  0  0  0
   11.5778    2.8605   22.4268 F   0  0  0  0  0  0  0  0  0  0  0  0
    9.3990    1.7629   25.2023 C   0  0  0  0  0  0  0  0  0  0  0  0
    8.1227    1.3149   24.9426 C   0  0  0  0  0  0  0  0  0  0  0  0
    7.1557    0.5619   25.8014 C   0  0  0  0  0  0  0  0  0  0  0  0
    7.5415    0.5063   26.8227 H   0  0  0  0  0  0  0  0  0  0  0  0
    6.1654    1.0339   25.8374 H   0  0  0  0  0  0  0  0  0  0  0  0
    7.0128   -0.4565   25.4137 H   0  0  0  0  0  0  0  0  0  0  0  0
    9.9398    1.6644   26.1365 H   0  0  0  0  0  0  0  0  0  0  0  0
    5.9200    0.9512   23.4678 H   0  0  0  0  0  0  0  0  0  0  0  0
    6.5331    1.8663   22.0740 H   0  0  0  0  0  0  0  0  0  0  0  0
    7.6271   -1.2308   22.8481 N   0  0  0  0  0  0  0  0  0  0  0  0
    9.4374   -3.3199   22.6716 H   0  0  0  0  0  0  0  0  0  0  0  0
    8.7125   -3.9040   21.1611 H   0  0  0  0  0  0  0  0  0  0  0  0
    6.6839   -4.6259   22.3880 H   0  0  0  0  0  0  0  0  0  0  0  0
    7.3388   -4.0205   23.9107 H   0  0  0  0  0  0  0  0  0  0  0  0
    7.6605   -6.5655   23.4988 H   0  0  0  0  0  0  0  0  0  0  0  0
    8.7903   -6.1518   22.2234 H   0  0  0  0  0  0  0  0  0  0  0  0
    9.1417   -5.6836   23.9002 H   0  0  0  0  0  0  0  0  0  0  0  0
  1  2  1  0
  2  3  1  0
  3  4  1  0
  4  5  2  0
  5  6  1  0
  6  7  1  0
  7  8  2  0
  8  9  1  0
  9 10  2  0
 10 11  1  0
 11 12  2  0
 12 13  1  0
 10 14  1  0
  9 15  1  0
  8 16  1  0
  6 17  1  0
 17 18  1  0
 18 19  1  0
 19 20  1  0
 20 21  2  0
 21 22  1  0
 22 23  1  0
 22 24  1  0
 22 25  1  0
 21 26  1  0
 26 27  2  0
 27 28  1  0
 28 29  1  0
 28 30  1  0
 28 31  1  0
 26 32  1  0
 18 33  1  0
 18 34  1  0
 17 35  2  0
  3 36  1  0
  3 37  1  0
  2 38  1  0
  2 39  1  0
  1 40  1  0
  1 41  1  0
  1 42  1  0
 35  4  1  0
 12  7  1  0
 27 19  1  0
M  END
>  <cnnaffinity>  (1) 
-6.20352

>  <filename>  (1) 
CCCc1nc(Cn2nc(C(F)(F)F)cc2C)n(-c2cccnc2)n1

$$$$
