
     RDKit          3D

 52 54  0  0  0  0  0  0  0  0999 V2000
    7.5716   -4.9194   25.3714 C   0  0  0  0  0  0  0  0  0  0  0  0
    6.9979   -4.1121   24.1975 C   0  0  0  0  0  0  0  0  0  0  0  0
    7.5674   -4.5227   22.8252 C   0  0  0  0  0  0  0  0  0  0  0  0
    8.7129   -3.6057   22.3127 C   0  0  0  0  0  0  0  0  0  0  0  0
    9.9178   -3.5729   23.2727 C   0  0  0  0  0  0  0  0  0  0  0  0
    9.7021   -2.9146   24.1240 H   0  0  0  0  0  0  0  0  0  0  0  0
   10.1700   -4.5671   23.6625 H   0  0  0  0  0  0  0  0  0  0  0  0
   10.8098   -3.1680   22.7871 H   0  0  0  0  0  0  0  0  0  0  0  0
    8.2465   -2.2146   21.9839 C   0  0  0  0  0  0  0  0  0  0  0  0
    7.6868   -1.9502   20.8187 N   0  0  0  0  0  0  0  0  0  0  0  0
    7.3652   -0.6383   20.9273 N   0  0  0  0  0  0  0  0  0  0  0  0
    6.6411    0.0033   19.8916 C   0  0  0  0  0  0  0  0  0  0  0  0
    5.4237    0.6472   20.1465 C   0  0  0  0  0  0  0  0  0  0  0  0
    4.7945    1.3057   19.0856 C   0  0  0  0  0  0  0  0  0  0  0  0
    5.4042    1.2892   17.8273 C   0  0  0  0  0  0  0  0  0  0  0  0
    6.5585    0.6435   17.5730 N   0  0  0  0  0  0  0  0  0  0  0  0
    7.1534    0.0093   18.5843 C   0  0  0  0  0  0  0  0  0  0  0  0
    8.0999   -0.4854   18.3699 H   0  0  0  0  0  0  0  0  0  0  0  0
    4.9568    1.8128   16.9856 H   0  0  0  0  0  0  0  0  0  0  0  0
    3.8666    1.8505   19.2305 H   0  0  0  0  0  0  0  0  0  0  0  0
    5.0053    0.6390   21.1551 H   0  0  0  0  0  0  0  0  0  0  0  0
    7.7821   -0.1734   22.1381 C   0  0  0  0  0  0  0  0  0  0  0  0
    7.7212    1.2371   22.6183 C   0  0  0  0  0  0  0  0  0  0  0  0
    7.1827    1.3346   24.0631 C   0  0  2  0  0  0  0  0  0  0  0  0
    5.7497    0.7846   24.1563 C   0  0  0  0  0  0  0  0  0  0  0  0
    5.1680    0.9012   25.5740 C   0  0  0  0  0  0  0  0  0  0  0  0
    5.2696    2.3429   26.1124 C   0  0  0  0  0  0  0  0  0  0  0  0
    6.7175    2.8614   26.0191 C   0  0  0  0  0  0  0  0  0  0  0  0
    7.2732    2.7634   24.5930 C   0  0  1  0  0  0  0  0  0  0  0  0
    8.6442    3.1415   24.5728 O   0  0  0  0  0  0  0  0  0  0  0  0
    8.6870    4.0983   24.6473 H   0  0  0  0  0  0  0  0  0  0  0  0
    6.6803    3.4081   23.9152 H   0  0  0  0  0  0  0  0  0  0  0  0
    7.3850    2.2673   26.6625 H   0  0  0  0  0  0  0  0  0  0  0  0
    6.7995    3.9013   26.3591 H   0  0  0  0  0  0  0  0  0  0  0  0
    4.9058    2.4043   27.1465 H   0  0  0  0  0  0  0  0  0  0  0  0
    4.6106    3.0023   25.5258 H   0  0  0  0  0  0  0  0  0  0  0  0
    4.1292    0.5479   25.5871 H   0  0  0  0  0  0  0  0  0  0  0  0
    5.7274    0.2245   26.2369 H   0  0  0  0  0  0  0  0  0  0  0  0
    5.0976    1.3210   23.4430 H   0  0  0  0  0  0  0  0  0  0  0  0
    5.8027   -0.2636   23.8351 H   0  0  0  0  0  0  0  0  0  0  0  0
    7.8244    0.7179   24.7167 H   0  0  0  0  0  0  0  0  0  0  0  0
    8.7366    1.6509   22.5913 H   0  0  0  0  0  0  0  0  0  0  0  0
    7.1094    1.8307   21.9281 H   0  0  0  0  0  0  0  0  0  0  0  0
    8.3247   -1.1599   22.8286 N   0  0  0  0  0  0  0  0  0  0  0  0
    8.9477   -3.9811   21.3156 H   0  0  0  0  0  0  0  0  0  0  0  0
    7.9704   -5.5480   22.8710 H   0  0  0  0  0  0  0  0  0  0  0  0
    6.7781   -4.5433   22.0597 H   0  0  0  0  0  0  0  0  0  0  0  0
    5.9061   -4.2205   24.1908 H   0  0  0  0  0  0  0  0  0  0  0  0
    7.1811   -3.0379   24.3520 H   0  0  0  0  0  0  0  0  0  0  0  0
    7.1629   -4.5946   26.3348 H   0  0  0  0  0  0  0  0  0  0  0  0
    8.6620   -4.8264   25.4385 H   0  0  0  0  0  0  0  0  0  0  0  0
    7.3489   -5.9893   25.2683 H   0  0  0  0  0  0  0  0  0  0  0  0
  1  2  1  0
  2  3  1  0
  3  4  1  0
  4  5  1  0
  5  6  1  0
  5  7  1  0
  5  8  1  0
  4  9  1  0
  9 10  2  0
 10 11  1  0
 11 12  1  0
 12 13  2  0
 13 14  1  0
 14 15  2  0
 15 16  1  0
 16 17  2  0
 17 18  1  0
 15 19  1  0
 14 20  1  0
 13 21  1  0
 11 22  1  0
 22 23  1  0
 23 24  1  0
 24 25  1  0
 25 26  1  0
 26 27  1  0
 27 28  1  0
 28 29  1  0
 29 30  1  0
 30 31  1  0
 29 32  1  6
 28 33  1  0
 28 34  1  0
 27 35  1  0
 27 36  1  0
 26 37  1  0
 26 38  1  0
 25 39  1  0
 25 40  1  0
 24 41  1  1
 23 42  1  0
 23 43  1  0
 22 44  2  0
  4 45  1  0
  3 46  1  0
  3 47  1  0
  2 48  1  0
  2 49  1  0
  1 50  1  0
  1 51  1  0
  1 52  1  0
 44  9  1  0
 17 12  1  0
 29 24  1  0
M  END
>  <cnnaffinity>  (1) 
-5.75678

>  <filename>  (1) 
CCCC(C)c1nc(C[C@@H]2CCCC[C@H]2O)n(-c2cccnc2)n1

$$$$
