
     RDKit          3D

 42 43  0  0  0  0  0  0  0  0999 V2000
    4.9176    1.7813   16.9976 H   0  0  0  0  0  0  0  0  0  0  0  0
    5.4005    1.2926   17.8386 C   0  0  0  0  0  0  0  0  0  0  0  0
    6.5599    0.6727   17.5789 N   0  0  0  0  0  0  0  0  0  0  0  0
    7.1662    0.0533   18.5983 C   0  0  0  0  0  0  0  0  0  0  0  0
    8.1173   -0.4298   18.3740 H   0  0  0  0  0  0  0  0  0  0  0  0
    6.6458    0.0016   19.9002 C   0  0  0  0  0  0  0  0  0  0  0  0
    7.3833   -0.7007   20.9520 C   0  0  0  0  0  0  0  0  0  0  0  0
    8.5961   -0.2807   21.4644 C   0  0  0  0  0  0  0  0  0  0  0  0
    9.2664    1.0168   21.0817 C   0  0  0  0  0  0  0  0  0  0  0  0
    8.8870    1.3505   20.1140 H   0  0  0  0  0  0  0  0  0  0  0  0
   10.3421    0.8320   20.9677 H   0  0  0  0  0  0  0  0  0  0  0  0
    9.0489    2.1342   22.1099 C   0  0  0  0  0  0  0  0  0  0  0  0
    9.6791    2.9902   21.8366 H   0  0  0  0  0  0  0  0  0  0  0  0
    9.4031    1.7947   23.0932 H   0  0  0  0  0  0  0  0  0  0  0  0
    7.5864    2.5698   22.2283 C   0  0  0  0  0  0  0  0  0  0  0  0
    7.2155    2.8863   21.2423 H   0  0  0  0  0  0  0  0  0  0  0  0
    6.9682    1.7044   22.5068 H   0  0  0  0  0  0  0  0  0  0  0  0
    7.3642    3.6990   23.2327 C   0  0  0  0  0  0  0  0  0  0  0  0
    7.8391    3.4381   24.1906 H   0  0  0  0  0  0  0  0  0  0  0  0
    6.2892    3.7892   23.4419 H   0  0  0  0  0  0  0  0  0  0  0  0
    7.8861    5.0572   22.7683 C   0  0  0  0  0  0  0  0  0  0  0  0
    7.4571    5.2939   21.7835 H   0  0  0  0  0  0  0  0  0  0  0  0
    8.9737    5.0185   22.6151 H   0  0  0  0  0  0  0  0  0  0  0  0
    7.5541    6.1775   23.7485 C   0  0  0  0  0  0  0  0  0  0  0  0
    6.4652    6.2275   23.8866 H   0  0  0  0  0  0  0  0  0  0  0  0
    7.9796    5.9382   24.7318 H   0  0  0  0  0  0  0  0  0  0  0  0
    8.0681    7.5305   23.2828 C   0  0  0  0  0  0  0  0  0  0  0  0
    7.8202    8.3254   23.9943 H   0  0  0  0  0  0  0  0  0  0  0  0
    7.6272    7.7931   22.3125 H   0  0  0  0  0  0  0  0  0  0  0  0
    9.1586    7.5144   23.1601 H   0  0  0  0  0  0  0  0  0  0  0  0
    9.1853   -1.0680   22.5048 C   0  0  0  0  0  0  0  0  0  0  0  0
   10.1349   -0.7243   22.9271 H   0  0  0  0  0  0  0  0  0  0  0  0
    8.5880   -2.1993   22.9657 C   0  0  0  0  0  0  0  0  0  0  0  0
    9.0093   -2.8175   23.7406 H   0  0  0  0  0  0  0  0  0  0  0  0
    7.3124   -2.6538   22.4399 C   0  0  0  0  0  0  0  0  0  0  0  0
    6.7020   -3.6532   22.7777 O   0  0  0  0  0  0  0  0  0  0  0  0
    6.7901   -1.8371   21.4515 N   0  0  0  0  0  0  0  0  0  0  0  0
    5.9105   -2.1631   21.0952 H   0  0  0  0  0  0  0  0  0  0  0  0
    5.4255    0.6439   20.1562 C   0  0  0  0  0  0  0  0  0  0  0  0
    5.0016    0.6270   21.1669 H   0  0  0  0  0  0  0  0  0  0  0  0
    4.8022    1.3120   19.1049 C   0  0  0  0  0  0  0  0  0  0  0  0
    3.8715    1.8459   19.2577 H   0  0  0  0  0  0  0  0  0  0  0  0
  1  2  1  0
  2  3  2  0
  3  4  1  0
  4  5  1  0
  4  6  2  0
  6  7  1  0
  7  8  2  0
  8  9  1  0
  9 10  1  0
  9 11  1  0
  9 12  1  0
 12 13  1  0
 12 14  1  0
 12 15  1  0
 15 16  1  0
 15 17  1  0
 15 18  1  0
 18 19  1  0
 18 20  1  0
 18 21  1  0
 21 22  1  0
 21 23  1  0
 21 24  1  0
 24 25  1  0
 24 26  1  0
 24 27  1  0
 27 28  1  0
 27 29  1  0
 27 30  1  0
  8 31  1  0
 31 32  1  0
 31 33  2  0
 33 34  1  0
 33 35  1  0
 35 36  2  0
 35 37  1  0
 37 38  1  0
  6 39  1  0
 39 40  1  0
 39 41  2  0
 41 42  1  0
 41  2  1  0
 37  7  1  0
M  END
>  <cnnaffinity>  (1) 
-5.51982

>  <filename>  (1) 
CCCCCCCc1ccc(=O)[nH]c1-c1cccnc1

$$$$
