
     RDKit          3D

 41 42  0  0  0  0  0  0  0  0999 V2000
    5.1967    1.6911   17.2982 H   0  0  0  0  0  0  0  0  0  0  0  0
    5.5710    1.1362   18.1600 C   0  0  0  0  0  0  0  0  0  0  0  0
    6.6876    0.4167   17.9604 N   0  0  0  0  0  0  0  0  0  0  0  0
    7.1764   -0.2600   19.0041 C   0  0  0  0  0  0  0  0  0  0  0  0
    8.0456   -0.8748   18.7891 H   0  0  0  0  0  0  0  0  0  0  0  0
    6.6313   -0.2313   20.3101 C   0  0  0  0  0  0  0  0  0  0  0  0
    7.3099   -0.8506   21.4417 C   0  0  0  0  0  0  0  0  0  0  0  0
    8.5459   -1.4581   21.5826 C   0  0  0  0  0  0  0  0  0  0  0  0
    9.8890   -1.4329   20.8946 C   0  0  0  0  0  0  0  0  0  0  0  0
   10.3624   -2.4192   20.9414 H   0  0  0  0  0  0  0  0  0  0  0  0
    9.7215   -1.1710   19.8439 H   0  0  0  0  0  0  0  0  0  0  0  0
   10.8432   -0.3637   21.4600 C   0  0  0  0  0  0  0  0  0  0  0  0
   11.8095   -0.4664   20.9478 H   0  0  0  0  0  0  0  0  0  0  0  0
   11.0524   -0.5423   22.5235 H   0  0  0  0  0  0  0  0  0  0  0  0
   10.2695    1.0401   21.2237 C   0  0  0  0  0  0  0  0  0  0  0  0
    9.8629    1.0521   20.2046 H   0  0  0  0  0  0  0  0  0  0  0  0
    9.3846    1.1845   21.8549 H   0  0  0  0  0  0  0  0  0  0  0  0
   11.2697    2.2099   21.3453 C   0  0  0  0  0  0  0  0  0  0  0  0
   12.2973    1.8294   21.2564 H   0  0  0  0  0  0  0  0  0  0  0  0
   11.1345    2.8436   20.4579 H   0  0  0  0  0  0  0  0  0  0  0  0
   11.2085    3.0978   22.6096 C   0  0  0  0  0  0  0  0  0  0  0  0
   11.8042    3.9990   22.3977 H   0  0  0  0  0  0  0  0  0  0  0  0
   11.7133    2.5955   23.4488 H   0  0  0  0  0  0  0  0  0  0  0  0
    9.7949    3.5030   23.0548 C   0  0  0  0  0  0  0  0  0  0  0  0
    9.2530    3.9340   22.2027 H   0  0  0  0  0  0  0  0  0  0  0  0
    9.2297    2.6018   23.3327 H   0  0  0  0  0  0  0  0  0  0  0  0
    9.7256    4.4646   24.2473 C   0  0  0  0  0  0  0  0  0  0  0  0
    8.6852    4.4977   24.5982 H   0  0  0  0  0  0  0  0  0  0  0  0
   10.2983    4.0286   25.0703 H   0  0  0  0  0  0  0  0  0  0  0  0
   10.2004    5.8968   24.0005 C   0  0  0  0  0  0  0  0  0  0  0  0
    9.5455    6.4255   23.3003 H   0  0  0  0  0  0  0  0  0  0  0  0
   10.1773    6.4626   24.9357 H   0  0  0  0  0  0  0  0  0  0  0  0
   11.2244    5.9504   23.6131 H   0  0  0  0  0  0  0  0  0  0  0  0
    8.2797   -1.9157   22.9480 C   0  0  0  0  0  0  0  0  0  0  0  0
    8.7859   -2.7103   23.7008 O   0  0  0  0  0  0  0  0  0  0  0  0
    7.0170   -0.9786   22.9265 C   0  0  0  0  0  0  0  0  0  0  0  0
    6.2808   -0.4934   23.7486 O   0  0  0  0  0  0  0  0  0  0  0  0
    5.4246    0.4754   20.4745 C   0  0  0  0  0  0  0  0  0  0  0  0
    4.9366    0.4769   21.4494 H   0  0  0  0  0  0  0  0  0  0  0  0
    4.8928    1.1720   19.3842 C   0  0  0  0  0  0  0  0  0  0  0  0
    3.9756    1.7500   19.4669 H   0  0  0  0  0  0  0  0  0  0  0  0
  1  2  1  0
  2  3  2  0
  3  4  1  0
  4  5  1  0
  4  6  2  0
  6  7  1  0
  7  8  2  0
  8  9  1  0
  9 10  1  0
  9 11  1  0
  9 12  1  0
 12 13  1  0
 12 14  1  0
 12 15  1  0
 15 16  1  0
 15 17  1  0
 15 18  1  0
 18 19  1  0
 18 20  1  0
 18 21  1  0
 21 22  1  0
 21 23  1  0
 21 24  1  0
 24 25  1  0
 24 26  1  0
 24 27  1  0
 27 28  1  0
 27 29  1  0
 27 30  1  0
 30 31  1  0
 30 32  1  0
 30 33  1  0
  8 34  1  0
 34 35  2  0
 34 36  1  0
 36 37  2  0
  6 38  1  0
 38 39  1  0
 38 40  2  0
 40 41  1  0
 40  2  1  0
 36  7  1  0
M  END
>  <cnnaffinity>  (1) 
-5.29884

>  <filename>  (1) 
CCCCCCCCc1c(-c2cccnc2)c(=O)c1=O

$$$$
