
     RDKit          3D

 45 46  0  0  0  0  0  0  0  0999 V2000
    8.3304   -3.8198   21.7932 H   0  0  0  0  0  0  0  0  0  0  0  0
    8.0367   -2.7881   21.9731 C   0  0  0  0  0  0  0  0  0  0  0  0
    7.7721   -2.3413   23.2009 C   0  0  0  0  0  0  0  0  0  0  0  0
    7.8331   -3.2193   24.4233 C   0  0  0  0  0  0  0  0  0  0  0  0
    8.3127   -2.6584   25.2371 H   0  0  0  0  0  0  0  0  0  0  0  0
    8.4772   -4.0871   24.2162 H   0  0  0  0  0  0  0  0  0  0  0  0
    6.4457   -3.7158   24.8819 C   0  0  0  0  0  0  0  0  0  0  0  0
    5.8017   -2.8476   25.0956 H   0  0  0  0  0  0  0  0  0  0  0  0
    6.5552   -4.2572   25.8334 H   0  0  0  0  0  0  0  0  0  0  0  0
    5.7517   -4.6235   23.8571 C   0  0  0  0  0  0  0  0  0  0  0  0
    5.5916   -4.0737   22.9148 H   0  0  0  0  0  0  0  0  0  0  0  0
    6.4174   -5.4650   23.5991 H   0  0  0  0  0  0  0  0  0  0  0  0
    4.4161   -5.1730   24.3620 C   0  0  0  0  0  0  0  0  0  0  0  0
    4.5813   -5.7248   25.3035 H   0  0  0  0  0  0  0  0  0  0  0  0
    3.7483   -4.3355   24.6223 H   0  0  0  0  0  0  0  0  0  0  0  0
    3.7283   -6.0931   23.3464 C   0  0  0  0  0  0  0  0  0  0  0  0
    3.5128   -5.5196   22.4295 H   0  0  0  0  0  0  0  0  0  0  0  0
    4.4334   -6.8850   23.0476 H   0  0  0  0  0  0  0  0  0  0  0  0
    2.4313   -6.7308   23.8684 C   0  0  0  0  0  0  0  0  0  0  0  0
    2.6456   -7.2488   24.8163 H   0  0  0  0  0  0  0  0  0  0  0  0
    2.1127   -7.5144   23.1675 H   0  0  0  0  0  0  0  0  0  0  0  0
    1.2916   -5.7221   24.0707 C   0  0  0  0  0  0  0  0  0  0  0  0
    0.3588   -6.2193   24.3589 H   0  0  0  0  0  0  0  0  0  0  0  0
    1.5270   -4.9915   24.8544 H   0  0  0  0  0  0  0  0  0  0  0  0
    1.0956   -5.1561   23.1509 H   0  0  0  0  0  0  0  0  0  0  0  0
    7.2332   -0.9315   23.3844 C   0  0  0  0  0  0  0  0  0  0  0  0
    6.1386   -0.9894   23.4072 H   0  0  0  0  0  0  0  0  0  0  0  0
    7.5458   -0.5196   24.3503 H   0  0  0  0  0  0  0  0  0  0  0  0
    7.6513   -0.0136   22.2275 C   0  0  0  0  0  0  0  0  0  0  0  0
    8.7402    0.1725   22.2753 H   0  0  0  0  0  0  0  0  0  0  0  0
    7.1447    0.9575   22.2781 H   0  0  0  0  0  0  0  0  0  0  0  0
    7.3210   -0.6495   20.9640 N   0  0  0  0  0  0  0  0  0  0  0  0
    6.6692    0.0119   19.9086 C   0  0  0  0  0  0  0  0  0  0  0  0
    7.1606    0.0522   18.5735 C   0  0  0  0  0  0  0  0  0  0  0  0
    8.1079   -0.4276   18.3344 H   0  0  0  0  0  0  0  0  0  0  0  0
    6.5487    0.6757   17.5542 N   0  0  0  0  0  0  0  0  0  0  0  0
    5.3906    1.3021   17.8143 C   0  0  0  0  0  0  0  0  0  0  0  0
    4.9214    1.8099   16.9731 H   0  0  0  0  0  0  0  0  0  0  0  0
    4.8020    1.3186   19.0854 C   0  0  0  0  0  0  0  0  0  0  0  0
    3.8682    1.8472   19.2432 H   0  0  0  0  0  0  0  0  0  0  0  0
    5.4492    0.6693   20.1421 C   0  0  0  0  0  0  0  0  0  0  0  0
    5.0357    0.6384   21.1475 H   0  0  0  0  0  0  0  0  0  0  0  0
    7.9049   -1.9514   20.7300 C   0  0  0  0  0  0  0  0  0  0  0  0
    8.8994   -1.8912   20.2445 H   0  0  0  0  0  0  0  0  0  0  0  0
    7.2175   -2.4675   20.0485 H   0  0  0  0  0  0  0  0  0  0  0  0
  1  2  1  0
  2  3  2  0
  3  4  1  0
  4  5  1  0
  4  6  1  0
  4  7  1  0
  7  8  1  0
  7  9  1  0
  7 10  1  0
 10 11  1  0
 10 12  1  0
 10 13  1  0
 13 14  1  0
 13 15  1  0
 13 16  1  0
 16 17  1  0
 16 18  1  0
 16 19  1  0
 19 20  1  0
 19 21  1  0
 19 22  1  0
 22 23  1  0
 22 24  1  0
 22 25  1  0
  3 26  1  0
 26 27  1  0
 26 28  1  0
 26 29  1  0
 29 30  1  0
 29 31  1  0
 29 32  1  0
 32 33  1  0
 33 34  2  0
 34 35  1  0
 34 36  1  0
 36 37  2  0
 37 38  1  0
 37 39  1  0
 39 40  1  0
 39 41  2  0
 41 42  1  0
 32 43  1  0
 43 44  1  0
 43 45  1  0
 43  2  1  0
 41 33  1  0
M  END
>  <cnnaffinity>  (1) 
-5.34249

>  <filename>  (1) 
CCCCCCCC1=CCN(c2cccnc2)CC1

$$$$
