
     RDKit          3D

 48 50  0  0  0  0  0  0  0  0999 V2000
    4.9191   -2.2859   25.5193 C   0  0  0  0  0  0  0  0  0  0  0  0
    6.3777   -1.8358   25.4529 C   0  0  0  0  0  0  0  0  0  0  0  0
    7.4043   -2.9725   25.3267 C   0  0  0  0  0  0  0  0  0  0  0  0
    7.5485   -3.5941   23.9143 C   0  0  0  0  0  0  0  0  0  0  0  0
    8.6530   -4.6675   23.9073 C   0  0  0  0  0  0  0  0  0  0  0  0
    9.6374   -4.2180   24.0868 H   0  0  0  0  0  0  0  0  0  0  0  0
    8.6927   -5.2006   22.9524 H   0  0  0  0  0  0  0  0  0  0  0  0
    8.4765   -5.4073   24.6964 H   0  0  0  0  0  0  0  0  0  0  0  0
    7.8008   -2.5228   22.8812 C   0  0  0  0  0  0  0  0  0  0  0  0
    7.0172   -2.3293   21.8432 N   0  0  0  0  0  0  0  0  0  0  0  0
    7.5526   -1.2327   21.2395 N   0  0  0  0  0  0  0  0  0  0  0  0
    6.8049   -0.5867   20.2030 C   0  0  0  0  0  0  0  0  0  0  0  0
    5.6940    0.1801   20.5592 C   0  0  0  0  0  0  0  0  0  0  0  0
    5.0656    0.9350   19.5738 C   0  0  0  0  0  0  0  0  0  0  0  0
    5.4828    0.7865   18.2445 C   0  0  0  0  0  0  0  0  0  0  0  0
    6.5005   -0.0129   17.8864 N   0  0  0  0  0  0  0  0  0  0  0  0
    7.1592   -0.6694   18.8494 C   0  0  0  0  0  0  0  0  0  0  0  0
    8.0199   -1.2610   18.5385 H   0  0  0  0  0  0  0  0  0  0  0  0
    4.9949    1.3331   17.4424 H   0  0  0  0  0  0  0  0  0  0  0  0
    4.3437    1.6976   19.8587 H   0  0  0  0  0  0  0  0  0  0  0  0
    5.4200    0.3184   21.6064 H   0  0  0  0  0  0  0  0  0  0  0  0
    8.6125   -0.8016   21.9869 C   0  0  0  0  0  0  0  0  0  0  0  0
    9.4081    0.4675   21.7626 C   0  0  0  0  0  0  0  0  0  0  0  0
    8.8394    1.6933   22.3835 N   0  0  0  0  0  0  0  0  0  0  0  0
    9.0015    1.9042   23.7673 C   0  0  0  0  0  0  0  0  0  0  0  0
    8.3693    2.9337   24.4267 C   0  0  0  0  0  0  0  0  0  0  0  0
    6.7889    3.5170   23.8681 C   0  0  0  0  0  0  0  0  0  0  0  0
    7.0942    3.7600   23.7692 C   0  0  0  0  0  0  0  0  0  0  0  0
    7.4207    3.9257   22.2329 C   0  0  0  0  0  0  0  0  0  0  0  0
    8.4482    4.8161   22.5041 F   0  0  0  0  0  0  0  0  0  0  0  0
    5.4388    2.7138   21.9164 F   0  0  0  0  0  0  0  0  0  0  0  0
    6.5567    4.5277   21.4143 F   0  0  0  0  0  0  0  0  0  0  0  0
    7.9295    2.4898   21.6245 C   0  0  0  0  0  0  0  0  0  0  0  0
    7.5784    2.1192   20.5327 O   0  0  0  0  0  0  0  0  0  0  0  0
    5.7377    3.3219   24.1994 H   0  0  0  0  0  0  0  0  0  0  0  0
    8.4894    3.0020   25.5102 H   0  0  0  0  0  0  0  0  0  0  0  0
    9.6734    1.1961   24.2522 H   0  0  0  0  0  0  0  0  0  0  0  0
   10.3978    0.3002   22.2023 H   0  0  0  0  0  0  0  0  0  0  0  0
    9.5393    0.6413   20.6910 H   0  0  0  0  0  0  0  0  0  0  0  0
    8.8175   -1.6233   22.9982 N   0  0  0  0  0  0  0  0  0  0  0  0
    6.5987   -4.0581   23.6160 H   0  0  0  0  0  0  0  0  0  0  0  0
    7.1578   -3.7727   26.0407 H   0  0  0  0  0  0  0  0  0  0  0  0
    8.3898   -2.5878   25.6237 H   0  0  0  0  0  0  0  0  0  0  0  0
    6.5068   -1.1353   24.6173 H   0  0  0  0  0  0  0  0  0  0  0  0
    6.6110   -1.2598   26.3564 H   0  0  0  0  0  0  0  0  0  0  0  0
    4.2537   -1.4337   25.6942 H   0  0  0  0  0  0  0  0  0  0  0  0
    4.5973   -2.7700   24.5903 H   0  0  0  0  0  0  0  0  0  0  0  0
    4.7640   -2.9988   26.3367 H   0  0  0  0  0  0  0  0  0  0  0  0
  1  2  1  0
  2  3  1  0
  3  4  1  0
  4  5  1  0
  5  6  1  0
  5  7  1  0
  5  8  1  0
  4  9  1  0
  9 10  2  0
 10 11  1  0
 11 12  1  0
 12 13  2  0
 13 14  1  0
 14 15  2  0
 15 16  1  0
 16 17  2  0
 17 18  1  0
 15 19  1  0
 14 20  1  0
 13 21  1  0
 11 22  1  0
 22 23  1  0
 23 24  1  0
 24 25  1  0
 25 26  2  0
 26 27  1  0
 27 28  2  0
 28 29  1  0
 29 30  1  0
 29 31  1  0
 29 32  1  0
 28 33  1  0
 33 34  2  0
 27 35  1  0
 26 36  1  0
 25 37  1  0
 23 38  1  0
 23 39  1  0
 22 40  2  0
  4 41  1  0
  3 42  1  0
  3 43  1  0
  2 44  1  0
  2 45  1  0
  1 46  1  0
  1 47  1  0
  1 48  1  0
 40  9  1  0
 17 12  1  0
 33 24  1  0
M  END
>  <cnnaffinity>  (1) 
-6.089

>  <filename>  (1) 
CCCC(C)c1nc(Cn2cccc(C(F)(F)F)c2=O)n(-c2cccnc2)n1

$$$$
