
     RDKit          3D

 42 43  0  0  0  0  0  0  0  0999 V2000
    4.9890    1.7607   16.8542 H   0  0  0  0  0  0  0  0  0  0  0  0
    5.4627    1.2846   17.7106 C   0  0  0  0  0  0  0  0  0  0  0  0
    6.5949    0.6037   17.4593 N   0  0  0  0  0  0  0  0  0  0  0  0
    7.2098    0.0231   18.4970 C   0  0  0  0  0  0  0  0  0  0  0  0
    8.1287   -0.5144   18.2535 H   0  0  0  0  0  0  0  0  0  0  0  0
    6.7542    0.0884   19.8340 C   0  0  0  0  0  0  0  0  0  0  0  0
    7.4843   -0.5551   20.9415 C   0  0  0  0  0  0  0  0  0  0  0  0
    7.8295   -0.1735   22.2260 C   0  0  0  0  0  0  0  0  0  0  0  0
    7.6243    1.1260   22.9389 C   0  0  0  0  0  0  0  0  0  0  0  0
    7.8513    0.9292   23.9924 H   0  0  0  0  0  0  0  0  0  0  0  0
    6.5658    1.4144   22.8985 H   0  0  0  0  0  0  0  0  0  0  0  0
    8.4690    2.3313   22.4830 C   0  0  0  0  0  0  0  0  0  0  0  0
    8.1278    2.7148   21.5114 H   0  0  0  0  0  0  0  0  0  0  0  0
    9.5119    2.0234   22.3279 H   0  0  0  0  0  0  0  0  0  0  0  0
    8.4013    3.4510   23.5304 C   0  0  0  0  0  0  0  0  0  0  0  0
    7.3792    3.8681   23.5331 H   0  0  0  0  0  0  0  0  0  0  0  0
    8.5528    3.0242   24.5347 H   0  0  0  0  0  0  0  0  0  0  0  0
    9.3561    4.6233   23.2819 C   0  0  0  0  0  0  0  0  0  0  0  0
    9.1065    5.4127   23.9987 H   0  0  0  0  0  0  0  0  0  0  0  0
    9.1074    5.0291   22.2921 H   0  0  0  0  0  0  0  0  0  0  0  0
   10.8719    4.3765   23.3445 C   0  0  0  0  0  0  0  0  0  0  0  0
   11.1678    4.1600   24.3790 H   0  0  0  0  0  0  0  0  0  0  0  0
   11.1317    3.4815   22.7711 H   0  0  0  0  0  0  0  0  0  0  0  0
   11.6391    5.5846   22.7881 C   0  0  0  0  0  0  0  0  0  0  0  0
   11.2464    6.4920   23.2588 H   0  0  0  0  0  0  0  0  0  0  0  0
   11.3736    5.6775   21.7273 H   0  0  0  0  0  0  0  0  0  0  0  0
   13.1672    5.5924   22.9035 C   0  0  0  0  0  0  0  0  0  0  0  0
   13.5416    6.5439   22.4978 H   0  0  0  0  0  0  0  0  0  0  0  0
   13.4657    5.5881   23.9611 H   0  0  0  0  0  0  0  0  0  0  0  0
   13.8670    4.4344   22.1926 C   0  0  0  0  0  0  0  0  0  0  0  0
   13.4898    4.2613   21.1774 H   0  0  0  0  0  0  0  0  0  0  0  0
   14.9267    4.6559   22.0796 H   0  0  0  0  0  0  0  0  0  0  0  0
   13.7615    3.4976   22.7524 H   0  0  0  0  0  0  0  0  0  0  0  0
    8.4723   -1.2106   22.8595 N   0  0  0  0  0  0  0  0  0  0  0  0
    8.5453   -2.1820   21.9924 C   0  0  0  0  0  0  0  0  0  0  0  0
    8.9954   -3.1546   22.1628 H   0  0  0  0  0  0  0  0  0  0  0  0
    7.9835   -1.8322   20.8103 N   0  0  0  0  0  0  0  0  0  0  0  0
    7.7998   -2.4356   20.0285 H   0  0  0  0  0  0  0  0  0  0  0  0
    5.5537    0.7798   20.0612 C   0  0  0  0  0  0  0  0  0  0  0  0
    5.1327    0.8109   21.0673 H   0  0  0  0  0  0  0  0  0  0  0  0
    4.9003    1.3846   18.9874 C   0  0  0  0  0  0  0  0  0  0  0  0
    3.9790    1.9372   19.1235 H   0  0  0  0  0  0  0  0  0  0  0  0
  1  2  1  0
  2  3  2  0
  3  4  1  0
  4  5  1  0
  4  6  2  0
  6  7  1  0
  7  8  2  0
  8  9  1  0
  9 10  1  0
  9 11  1  0
  9 12  1  0
 12 13  1  0
 12 14  1  0
 12 15  1  0
 15 16  1  0
 15 17  1  0
 15 18  1  0
 18 19  1  0
 18 20  1  0
 18 21  1  0
 21 22  1  0
 21 23  1  0
 21 24  1  0
 24 25  1  0
 24 26  1  0
 24 27  1  0
 27 28  1  0
 27 29  1  0
 27 30  1  0
 30 31  1  0
 30 32  1  0
 30 33  1  0
  8 34  1  0
 34 35  2  0
 35 36  1  0
 35 37  1  0
 37 38  1  0
  6 39  1  0
 39 40  1  0
 39 41  2  0
 41 42  1  0
 41  2  1  0
 37  7  1  0
M  END
>  <cnnaffinity>  (1) 
-5.37861

>  <filename>  (1) 
CCCCCCCCc1nc[nH]c1-c1cccnc1

$$$$
