
     RDKit          3D

 48 50  0  0  0  0  0  0  0  0999 V2000
    7.5167   -6.0895   21.0886 C   0  0  0  0  0  0  0  0  0  0  0  0
    6.9648   -4.8472   21.7633 C   0  0  0  0  0  0  0  0  0  0  0  0
    7.8055   -4.4485   22.9837 C   0  0  0  0  0  0  0  0  0  0  0  0
    7.3959   -3.0779   23.5801 C   0  0  0  0  0  0  0  0  0  0  0  0
    5.9773   -3.1116   24.1649 C   0  0  0  0  0  0  0  0  0  0  0  0
    5.7326   -2.1873   24.6988 H   0  0  0  0  0  0  0  0  0  0  0  0
    5.8799   -3.9470   24.8694 H   0  0  0  0  0  0  0  0  0  0  0  0
    5.2406   -3.2452   23.3645 H   0  0  0  0  0  0  0  0  0  0  0  0
    7.5848   -1.9999   22.5433 C   0  0  0  0  0  0  0  0  0  0  0  0
    6.6649   -1.5946   21.6831 N   0  0  0  0  0  0  0  0  0  0  0  0
    7.3430   -0.7049   20.9040 N   0  0  0  0  0  0  0  0  0  0  0  0
    6.6500   -0.0280   19.8643 C   0  0  0  0  0  0  0  0  0  0  0  0
    5.4339    0.6058   20.1358 C   0  0  0  0  0  0  0  0  0  0  0  0
    4.8106    1.3038   19.0984 C   0  0  0  0  0  0  0  0  0  0  0  0
    5.4014    1.3117   17.8283 C   0  0  0  0  0  0  0  0  0  0  0  0
    6.5445    0.6651   17.5508 N   0  0  0  0  0  0  0  0  0  0  0  0
    7.1492    0.0121   18.5519 C   0  0  0  0  0  0  0  0  0  0  0  0
    8.0689   -0.5178   18.3046 H   0  0  0  0  0  0  0  0  0  0  0  0
    4.9356    1.8537   17.0082 H   0  0  0  0  0  0  0  0  0  0  0  0
    3.8851    1.8415   19.2618 H   0  0  0  0  0  0  0  0  0  0  0  0
    5.0012    0.5454   21.1364 H   0  0  0  0  0  0  0  0  0  0  0  0
    8.6138   -0.5855   21.3832 C   0  0  0  0  0  0  0  0  0  0  0  0
    9.6592    0.3923   20.9477 C   0  0  0  0  0  0  0  0  0  0  0  0
    9.9316    1.4341   22.0024 C   0  0  0  0  0  0  0  0  0  0  0  0
    9.0857    2.4491   22.3983 C   0  0  0  0  0  0  0  0  0  0  0  0
    7.7422    2.8407   21.8700 C   0  0  0  0  0  0  0  0  0  0  0  0
    7.6537    2.5082   20.8311 H   0  0  0  0  0  0  0  0  0  0  0  0
    7.5586    3.9211   21.9162 H   0  0  0  0  0  0  0  0  0  0  0  0
    6.9462    2.3145   22.4129 H   0  0  0  0  0  0  0  0  0  0  0  0
    9.6919    3.0149   23.4754 N   0  0  0  0  0  0  0  0  0  0  0  0
   10.8547    2.4209   23.8197 N   0  0  0  0  0  0  0  0  0  0  0  0
   11.0009    1.4475   22.9312 C   0  0  0  0  0  0  0  0  0  0  0  0
   12.1040    0.4420   23.0005 C   0  0  0  0  0  0  0  0  0  0  0  0
   11.6600   -0.5556   23.1186 H   0  0  0  0  0  0  0  0  0  0  0  0
   12.7776    0.6407   23.8369 H   0  0  0  0  0  0  0  0  0  0  0  0
   12.6871    0.4287   22.0734 H   0  0  0  0  0  0  0  0  0  0  0  0
    9.3621    3.8005   24.0166 H   0  0  0  0  0  0  0  0  0  0  0  0
    9.3775    0.8604   20.0048 H   0  0  0  0  0  0  0  0  0  0  0  0
   10.5714   -0.1836   20.7544 H   0  0  0  0  0  0  0  0  0  0  0  0
    8.8005   -1.4258   22.3816 N   0  0  0  0  0  0  0  0  0  0  0  0
    8.1111   -2.8295   24.3722 H   0  0  0  0  0  0  0  0  0  0  0  0
    8.8702   -4.4125   22.7017 H   0  0  0  0  0  0  0  0  0  0  0  0
    7.7194   -5.2157   23.7698 H   0  0  0  0  0  0  0  0  0  0  0  0
    5.9260   -5.0262   22.0723 H   0  0  0  0  0  0  0  0  0  0  0  0
    6.9410   -4.0042   21.0569 H   0  0  0  0  0  0  0  0  0  0  0  0
    6.9676   -6.3536   20.1811 H   0  0  0  0  0  0  0  0  0  0  0  0
    7.4735   -6.9509   21.7694 H   0  0  0  0  0  0  0  0  0  0  0  0
    8.5580   -5.9057   20.7980 H   0  0  0  0  0  0  0  0  0  0  0  0
  1  2  1  0
  2  3  1  0
  3  4  1  0
  4  5  1  0
  5  6  1  0
  5  7  1  0
  5  8  1  0
  4  9  1  0
  9 10  2  0
 10 11  1  0
 11 12  1  0
 12 13  2  0
 13 14  1  0
 14 15  2  0
 15 16  1  0
 16 17  2  0
 17 18  1  0
 15 19  1  0
 14 20  1  0
 13 21  1  0
 11 22  1  0
 22 23  1  0
 23 24  1  0
 24 25  2  0
 25 26  1  0
 26 27  1  0
 26 28  1  0
 26 29  1  0
 25 30  1  0
 30 31  1  0
 31 32  2  0
 32 33  1  0
 33 34  1  0
 33 35  1  0
 33 36  1  0
 30 37  1  0
 23 38  1  0
 23 39  1  0
 22 40  2  0
  4 41  1  0
  3 42  1  0
  3 43  1  0
  2 44  1  0
  2 45  1  0
  1 46  1  0
  1 47  1  0
  1 48  1  0
 40  9  1  0
 17 12  1  0
 32 24  1  0
M  END
>  <cnnaffinity>  (1) 
-6.14584

>  <filename>  (1) 
CCCC(C)c1nc(Cc2c(C)n[nH]c2C)n(-c2cccnc2)n1

$$$$
