
     RDKit          3D

 41 42  0  0  0  0  0  0  0  0999 V2000
    9.4370   -0.7844   20.2619 H   0  0  0  0  0  0  0  0  0  0  0  0
    8.7221   -1.0352   21.0330 C   0  0  0  0  0  0  0  0  0  0  0  0
    9.1337   -1.6938   22.1642 N   0  0  0  0  0  0  0  0  0  0  0  0
    8.1341   -1.8747   22.9742 C   0  0  0  0  0  0  0  0  0  0  0  0
    8.2857   -2.5113   24.3239 C   0  0  0  0  0  0  0  0  0  0  0  0
    8.8886   -3.4154   24.1995 H   0  0  0  0  0  0  0  0  0  0  0  0
    7.3094   -2.8223   24.7050 H   0  0  0  0  0  0  0  0  0  0  0  0
    8.9591   -1.5731   25.3373 C   0  0  0  0  0  0  0  0  0  0  0  0
    9.1841   -2.1394   26.2504 H   0  0  0  0  0  0  0  0  0  0  0  0
    9.9226   -1.2393   24.9320 H   0  0  0  0  0  0  0  0  0  0  0  0
    8.1066   -0.3602   25.6931 C   0  0  0  0  0  0  0  0  0  0  0  0
    7.1324   -0.6982   26.0746 H   0  0  0  0  0  0  0  0  0  0  0  0
    7.8892    0.2216   24.7881 H   0  0  0  0  0  0  0  0  0  0  0  0
    8.7709    0.5304   26.7389 C   0  0  0  0  0  0  0  0  0  0  0  0
    9.7157    0.9199   26.3312 H   0  0  0  0  0  0  0  0  0  0  0  0
    9.0439   -0.0783   27.6121 H   0  0  0  0  0  0  0  0  0  0  0  0
    7.8999    1.6988   27.1974 C   0  0  0  0  0  0  0  0  0  0  0  0
    8.3509    2.1667   28.0805 H   0  0  0  0  0  0  0  0  0  0  0  0
    6.9249    1.3177   27.5336 H   0  0  0  0  0  0  0  0  0  0  0  0
    7.6822    2.7686   26.1323 C   0  0  0  0  0  0  0  0  0  0  0  0
    7.1439    2.3435   25.2738 H   0  0  0  0  0  0  0  0  0  0  0  0
    8.6561    3.0954   25.7410 H   0  0  0  0  0  0  0  0  0  0  0  0
    6.9194    3.9781   26.6591 C   0  0  0  0  0  0  0  0  0  0  0  0
    5.9509    3.6479   27.0567 H   0  0  0  0  0  0  0  0  0  0  0  0
    7.4678    4.4109   27.5066 H   0  0  0  0  0  0  0  0  0  0  0  0
    6.7010    5.0432   25.5941 C   0  0  0  0  0  0  0  0  0  0  0  0
    7.6589    5.4046   25.2019 H   0  0  0  0  0  0  0  0  0  0  0  0
    6.1302    4.6382   24.7503 H   0  0  0  0  0  0  0  0  0  0  0  0
    6.1520    5.9006   25.9944 H   0  0  0  0  0  0  0  0  0  0  0  0
    6.6252   -1.2464   22.4113 S   0  0  0  0  0  0  0  0  0  0  0  0
    7.3986   -0.7016   20.9663 C   0  0  0  0  0  0  0  0  0  0  0  0
    6.6641    0.0092   19.9062 C   0  0  0  0  0  0  0  0  0  0  0  0
    7.1685    0.0683   18.5919 C   0  0  0  0  0  0  0  0  0  0  0  0
    8.1116   -0.4268   18.3652 H   0  0  0  0  0  0  0  0  0  0  0  0
    6.5626    0.6809   17.5714 N   0  0  0  0  0  0  0  0  0  0  0  0
    5.3989    1.2943   17.8365 C   0  0  0  0  0  0  0  0  0  0  0  0
    4.9130    1.7805   16.9951 H   0  0  0  0  0  0  0  0  0  0  0  0
    4.8044    1.3117   19.1049 C   0  0  0  0  0  0  0  0  0  0  0  0
    3.8726    1.8442   19.2602 H   0  0  0  0  0  0  0  0  0  0  0  0
    5.4392    0.6524   20.1560 C   0  0  0  0  0  0  0  0  0  0  0  0
    5.0104    0.6309   21.1628 H   0  0  0  0  0  0  0  0  0  0  0  0
  1  2  1  0
  2  3  1  0
  3  4  2  0
  4  5  1  0
  5  6  1  0
  5  7  1  0
  5  8  1  0
  8  9  1  0
  8 10  1  0
  8 11  1  0
 11 12  1  0
 11 13  1  0
 11 14  1  0
 14 15  1  0
 14 16  1  0
 14 17  1  0
 17 18  1  0
 17 19  1  0
 17 20  1  0
 20 21  1  0
 20 22  1  0
 20 23  1  0
 23 24  1  0
 23 25  1  0
 23 26  1  0
 26 27  1  0
 26 28  1  0
 26 29  1  0
  4 30  1  0
 30 31  1  0
 31 32  1  0
 32 33  2  0
 33 34  1  0
 33 35  1  0
 35 36  2  0
 36 37  1  0
 36 38  1  0
 38 39  1  0
 38 40  2  0
 40 41  1  0
 31  2  2  0
 40 32  1  0
M  END
>  <cnnaffinity>  (1) 
-5.2042

>  <filename>  (1) 
CCCCCCCCc1ncc(-c2cccnc2)s1

$$$$
