
     RDKit          3D

 44 46  0  0  0  0  0  0  0  0999 V2000
    6.6853   -0.4134   26.6270 C   0  0  0  0  0  0  0  0  0  0  0  0
    7.4487   -1.1038   25.4997 C   0  0  0  0  0  0  0  0  0  0  0  0
    6.6662   -2.2696   24.8875 C   0  0  0  0  0  0  0  0  0  0  0  0
    7.3769   -3.0129   23.7217 C   0  0  0  0  0  0  0  0  0  0  0  0
    8.6543   -3.7327   24.1793 C   0  0  0  0  0  0  0  0  0  0  0  0
    8.4405   -4.4295   24.9955 H   0  0  0  0  0  0  0  0  0  0  0  0
    9.4069   -3.0183   24.5290 H   0  0  0  0  0  0  0  0  0  0  0  0
    9.1054   -4.2935   23.3556 H   0  0  0  0  0  0  0  0  0  0  0  0
    7.6638   -2.0710   22.5779 C   0  0  0  0  0  0  0  0  0  0  0  0
    6.7621   -1.6826   21.7004 N   0  0  0  0  0  0  0  0  0  0  0  0
    7.4201   -0.7178   20.9887 N   0  0  0  0  0  0  0  0  0  0  0  0
    6.7281   -0.0520   19.9284 C   0  0  0  0  0  0  0  0  0  0  0  0
    5.5067    0.5868   20.1846 C   0  0  0  0  0  0  0  0  0  0  0  0
    4.8890    1.2770   19.1365 C   0  0  0  0  0  0  0  0  0  0  0  0
    5.4891    1.2670   17.8696 C   0  0  0  0  0  0  0  0  0  0  0  0
    6.6325    0.6141   17.6053 N   0  0  0  0  0  0  0  0  0  0  0  0
    7.2279   -0.0368   18.6148 C   0  0  0  0  0  0  0  0  0  0  0  0
    8.1333   -0.5907   18.3646 H   0  0  0  0  0  0  0  0  0  0  0  0
    5.0230    1.7774   17.0280 H   0  0  0  0  0  0  0  0  0  0  0  0
    3.9523    1.8078   19.2882 H   0  0  0  0  0  0  0  0  0  0  0  0
    5.0702    0.5321   21.1849 H   0  0  0  0  0  0  0  0  0  0  0  0
    8.6699   -0.5598   21.5192 C   0  0  0  0  0  0  0  0  0  0  0  0
    9.5904    0.6147   21.3222 C   0  0  0  0  0  0  0  0  0  0  0  0
    9.0862    1.8426   22.0367 C   0  0  0  0  0  0  0  0  0  0  0  0
    8.1494    2.6572   21.4537 C   0  0  0  0  0  0  0  0  0  0  0  0
    7.7011    3.8391   22.1459 C   0  0  0  0  0  0  0  0  0  0  0  0
    8.0985    4.1365   23.3601 N   0  0  0  0  0  0  0  0  0  0  0  0
    8.9708    3.2813   23.9366 N   0  0  0  0  0  0  0  0  0  0  0  0
    9.5519    2.1371   23.4092 C   0  0  0  0  0  0  0  0  0  0  0  0
   10.3555    1.5191   24.0881 O   0  0  0  0  0  0  0  0  0  0  0  0
    9.2926    3.4575   24.8836 H   0  0  0  0  0  0  0  0  0  0  0  0
    7.0227    4.5728   21.7221 H   0  0  0  0  0  0  0  0  0  0  0  0
    7.7724    2.4033   20.4693 H   0  0  0  0  0  0  0  0  0  0  0  0
   10.5644    0.3375   21.7355 H   0  0  0  0  0  0  0  0  0  0  0  0
    9.7099    0.8134   20.2539 H   0  0  0  0  0  0  0  0  0  0  0  0
    8.8642   -1.4429   22.4692 N   0  0  0  0  0  0  0  0  0  0  0  0
    6.6684   -3.7513   23.3325 H   0  0  0  0  0  0  0  0  0  0  0  0
    6.4354   -3.0016   25.6737 H   0  0  0  0  0  0  0  0  0  0  0  0
    5.6984   -1.9016   24.5243 H   0  0  0  0  0  0  0  0  0  0  0  0
    8.4103   -1.4641   25.8862 H   0  0  0  0  0  0  0  0  0  0  0  0
    7.7041   -0.3772   24.7186 H   0  0  0  0  0  0  0  0  0  0  0  0
    7.2670    0.4132   27.0457 H   0  0  0  0  0  0  0  0  0  0  0  0
    5.7312   -0.0049   26.2760 H   0  0  0  0  0  0  0  0  0  0  0  0
    6.4614   -1.1100   27.4428 H   0  0  0  0  0  0  0  0  0  0  0  0
  1  2  1  0
  2  3  1  0
  3  4  1  0
  4  5  1  0
  5  6  1  0
  5  7  1  0
  5  8  1  0
  4  9  1  0
  9 10  2  0
 10 11  1  0
 11 12  1  0
 12 13  2  0
 13 14  1  0
 14 15  2  0
 15 16  1  0
 16 17  2  0
 17 18  1  0
 15 19  1  0
 14 20  1  0
 13 21  1  0
 11 22  1  0
 22 23  1  0
 23 24  1  0
 24 25  2  0
 25 26  1  0
 26 27  2  0
 27 28  1  0
 28 29  1  0
 29 30  2  0
 28 31  1  0
 26 32  1  0
 25 33  1  0
 23 34  1  0
 23 35  1  0
 22 36  2  0
  4 37  1  0
  3 38  1  0
  3 39  1  0
  2 40  1  0
  2 41  1  0
  1 42  1  0
  1 43  1  0
  1 44  1  0
 36  9  1  0
 17 12  1  0
 29 24  1  0
M  END
>  <cnnaffinity>  (1) 
-5.86581

>  <filename>  (1) 
CCCC(C)c1nc(Cc2ccn[nH]c2=O)n(-c2cccnc2)n1

$$$$
