
     RDKit          3D

 44 46  0  0  0  0  0  0  0  0999 V2000
    8.4580   -5.7407   23.4368 C   0  0  0  0  0  0  0  0  0  0  0  0
    7.7938   -4.3978   23.1440 C   0  0  0  0  0  0  0  0  0  0  0  0
    8.6824   -3.5368   22.2312 C   0  0  0  0  0  0  0  0  0  0  0  0
    8.2066   -2.1522   21.9690 C   0  0  0  0  0  0  0  0  0  0  0  0
    7.7231   -1.8200   20.7932 N   0  0  0  0  0  0  0  0  0  0  0  0
    7.3507   -0.5304   20.9703 N   0  0  0  0  0  0  0  0  0  0  0  0
    6.6471    0.1208   19.9210 C   0  0  0  0  0  0  0  0  0  0  0  0
    5.4338    0.7858   20.1352 C   0  0  0  0  0  0  0  0  0  0  0  0
    4.8222    1.3896   19.0325 C   0  0  0  0  0  0  0  0  0  0  0  0
    5.4391    1.3129   17.7808 C   0  0  0  0  0  0  0  0  0  0  0  0
    6.5844    0.6374   17.5662 N   0  0  0  0  0  0  0  0  0  0  0  0
    7.1549    0.0368   18.6129 C   0  0  0  0  0  0  0  0  0  0  0  0
    8.0527   -0.5498   18.4208 H   0  0  0  0  0  0  0  0  0  0  0  0
    5.0010    1.7970   16.9119 H   0  0  0  0  0  0  0  0  0  0  0  0
    3.8755    1.9106   19.1343 H   0  0  0  0  0  0  0  0  0  0  0  0
    4.9659    0.7867   21.1203 H   0  0  0  0  0  0  0  0  0  0  0  0
    7.6936   -0.1319   22.2312 C   0  0  0  0  0  0  0  0  0  0  0  0
    7.6277    1.2917   22.6978 C   0  0  0  0  0  0  0  0  0  0  0  0
    8.5555    2.2357   21.8931 C   0  0  0  0  0  0  0  0  0  0  0  0
    8.4252    3.7021   22.2527 C   0  0  0  0  0  0  0  0  0  0  0  0
    7.3941    4.4918   21.7220 C   0  0  0  0  0  0  0  0  0  0  0  0
    7.3287    5.8678   21.9721 C   0  0  0  0  0  0  0  0  0  0  0  0
    6.2587    6.7147   21.3232 C   0  0  0  0  0  0  0  0  0  0  0  0
    6.4522    7.7884   21.4162 H   0  0  0  0  0  0  0  0  0  0  0  0
    6.2037    6.5017   20.2519 H   0  0  0  0  0  0  0  0  0  0  0  0
    5.2719    6.4985   21.7549 H   0  0  0  0  0  0  0  0  0  0  0  0
    8.2622    6.3787   22.8859 C   0  0  0  0  0  0  0  0  0  0  0  0
    9.2136    5.6448   23.4761 N   0  0  0  0  0  0  0  0  0  0  0  0
    9.3038    4.3532   23.1342 C   0  0  0  0  0  0  0  0  0  0  0  0
   10.1192    3.8155   23.6142 H   0  0  0  0  0  0  0  0  0  0  0  0
    8.2074    7.4205   23.1983 H   0  0  0  0  0  0  0  0  0  0  0  0
    6.6200    4.0412   21.0982 H   0  0  0  0  0  0  0  0  0  0  0  0
    8.3113    2.1156   20.8328 H   0  0  0  0  0  0  0  0  0  0  0  0
    9.5969    1.9016   22.0075 H   0  0  0  0  0  0  0  0  0  0  0  0
    7.9011    1.3063   23.7554 H   0  0  0  0  0  0  0  0  0  0  0  0
    6.5934    1.6462   22.6184 H   0  0  0  0  0  0  0  0  0  0  0  0
    8.2179   -1.1507   22.8880 N   0  0  0  0  0  0  0  0  0  0  0  0
    8.7545   -4.0172   21.2533 H   0  0  0  0  0  0  0  0  0  0  0  0
    9.6877   -3.4649   22.6592 H   0  0  0  0  0  0  0  0  0  0  0  0
    7.5945   -3.8628   24.0812 H   0  0  0  0  0  0  0  0  0  0  0  0
    6.8192   -4.5614   22.6664 H   0  0  0  0  0  0  0  0  0  0  0  0
    8.7646   -6.2448   22.5116 H   0  0  0  0  0  0  0  0  0  0  0  0
    9.3517   -5.6116   24.0582 H   0  0  0  0  0  0  0  0  0  0  0  0
    7.7822   -6.4102   23.9710 H   0  0  0  0  0  0  0  0  0  0  0  0
  1  2  1  0
  2  3  1  0
  3  4  1  0
  4  5  2  0
  5  6  1  0
  6  7  1  0
  7  8  2  0
  8  9  1  0
  9 10  2  0
 10 11  1  0
 11 12  2  0
 12 13  1  0
 10 14  1  0
  9 15  1  0
  8 16  1  0
  6 17  1  0
 17 18  1  0
 18 19  1  0
 19 20  1  0
 20 21  2  0
 21 22  1  0
 22 23  1  0
 23 24  1  0
 23 25  1  0
 23 26  1  0
 22 27  2  0
 27 28  1  0
 28 29  2  0
 29 30  1  0
 27 31  1  0
 21 32  1  0
 19 33  1  0
 19 34  1  0
 18 35  1  0
 18 36  1  0
 17 37  2  0
  3 38  1  0
  3 39  1  0
  2 40  1  0
  2 41  1  0
  1 42  1  0
  1 43  1  0
  1 44  1  0
 37  4  1  0
 12  7  1  0
 29 20  1  0
M  END
>  <cnnaffinity>  (1) 
-5.55727

>  <filename>  (1) 
CCCc1nc(CCc2cncc(C)c2)n(-c2cccnc2)n1

$$$$
