
     RDKit          3D

 40 43  0  0  0  0  0  0  0  0999 V2000
    7.3090   -5.0271   21.8986 C   0  0  0  0  0  0  0  0  0  0  0  0
    8.0031   -4.4800   23.1457 C   0  0  0  0  0  0  0  0  0  0  0  0
    7.3923   -3.1388   23.5954 C   0  0  0  0  0  0  0  0  0  0  0  0
    7.5768   -2.0951   22.5434 C   0  0  0  0  0  0  0  0  0  0  0  0
    6.6527   -1.6625   21.7135 N   0  0  0  0  0  0  0  0  0  0  0  0
    7.3341   -0.7758   20.9336 N   0  0  0  0  0  0  0  0  0  0  0  0
    6.6602   -0.0612   19.9009 C   0  0  0  0  0  0  0  0  0  0  0  0
    5.4462    0.5883   20.1610 C   0  0  0  0  0  0  0  0  0  0  0  0
    4.8344    1.2872   19.1148 C   0  0  0  0  0  0  0  0  0  0  0  0
    5.4286    1.2910   17.8478 C   0  0  0  0  0  0  0  0  0  0  0  0
    6.5773    0.6493   17.5839 N   0  0  0  0  0  0  0  0  0  0  0  0
    7.1718    0.0012   18.5925 C   0  0  0  0  0  0  0  0  0  0  0  0
    8.0996   -0.5125   18.3516 H   0  0  0  0  0  0  0  0  0  0  0  0
    4.9666    1.8242   17.0173 H   0  0  0  0  0  0  0  0  0  0  0  0
    3.9073    1.8275   19.2689 H   0  0  0  0  0  0  0  0  0  0  0  0
    5.0061    0.5519   21.1594 H   0  0  0  0  0  0  0  0  0  0  0  0
    8.6199   -0.6938   21.3954 C   0  0  0  0  0  0  0  0  0  0  0  0
    9.5742    0.3508   20.9330 C   0  0  0  0  0  0  0  0  0  0  0  0
   10.9096    0.5643   21.7252 C   0  0  0  0  0  0  0  0  0  0  0  0
   10.4212    1.9763   21.9947 C   0  0  0  0  0  0  0  0  0  0  0  0
    9.2259    1.7890   21.3090 C   0  0  0  0  0  0  0  0  0  0  0  0
    8.1650    2.6766   21.3719 C   0  0  0  0  0  0  0  0  0  0  0  0
    8.3989    3.8828   22.0523 C   0  0  0  0  0  0  0  0  0  0  0  0
    9.6236    4.1370   22.6779 C   0  0  0  0  0  0  0  0  0  0  0  0
   10.6499    3.1764   22.6561 C   0  0  0  0  0  0  0  0  0  0  0  0
   12.1495    3.5547   23.4498 Cl  0  0  0  0  0  0  0  0  0  0  0  0
    9.8034    5.0789   23.1845 H   0  0  0  0  0  0  0  0  0  0  0  0
    7.6126    4.6336   22.0731 H   0  0  0  0  0  0  0  0  0  0  0  0
    7.2016    2.4851   20.9053 H   0  0  0  0  0  0  0  0  0  0  0  0
   11.7851    0.5300   21.0819 H   0  0  0  0  0  0  0  0  0  0  0  0
   11.0753   -0.1023   22.5810 H   0  0  0  0  0  0  0  0  0  0  0  0
    9.7154    0.2254   19.8627 H   0  0  0  0  0  0  0  0  0  0  0  0
    8.8092   -1.5540   22.3682 N   0  0  0  0  0  0  0  0  0  0  0  0
    7.9044   -2.7724   24.4926 H   0  0  0  0  0  0  0  0  0  0  0  0
    6.3261   -3.2378   23.8282 H   0  0  0  0  0  0  0  0  0  0  0  0
    7.9403   -5.2001   23.9720 H   0  0  0  0  0  0  0  0  0  0  0  0
    9.0741   -4.3237   22.9441 H   0  0  0  0  0  0  0  0  0  0  0  0
    7.4220   -4.3394   21.0505 H   0  0  0  0  0  0  0  0  0  0  0  0
    7.7203   -5.9995   21.6084 H   0  0  0  0  0  0  0  0  0  0  0  0
    6.2324   -5.1516   22.0769 H   0  0  0  0  0  0  0  0  0  0  0  0
  1  2  1  0
  2  3  1  0
  3  4  1  0
  4  5  2  0
  5  6  1  0
  6  7  1  0
  7  8  2  0
  8  9  1  0
  9 10  2  0
 10 11  1  0
 11 12  2  0
 12 13  1  0
 10 14  1  0
  9 15  1  0
  8 16  1  0
  6 17  1  0
 17 18  1  0
 18 19  1  0
 19 20  1  0
 20 21  2  0
 21 22  1  0
 22 23  2  0
 23 24  1  0
 24 25  2  0
 25 26  1  0
 24 27  1  0
 23 28  1  0
 22 29  1  0
 19 30  1  0
 19 31  1  0
 18 32  1  0
 17 33  2  0
  3 34  1  0
  3 35  1  0
  2 36  1  0
  2 37  1  0
  1 38  1  0
  1 39  1  0
  1 40  1  0
 33  4  1  0
 12  7  1  0
 21 18  1  0
 25 20  1  0
M  END
>  <cnnaffinity>  (1) 
-6.36261

>  <filename>  (1) 
CCCc1nc(C2Cc3c(Cl)cccc32)n(-c2cccnc2)n1

$$$$
