
     RDKit          3D

 41 43  0  0  0  0  0  0  0  0999 V2000
    6.7247   -3.1603   26.0873 C   0  0  0  0  0  0  0  0  0  0  0  0
    6.9985   -2.1973   24.9374 C   0  0  0  0  0  0  0  0  0  0  0  0
    7.4129   -2.9464   23.6645 C   0  0  0  0  0  0  0  0  0  0  0  0
    7.6547   -1.9710   22.5479 C   0  0  0  0  0  0  0  0  0  0  0  0
    6.7188   -1.6504   21.6885 N   0  0  0  0  0  0  0  0  0  0  0  0
    7.3141   -0.7010   20.9317 N   0  0  0  0  0  0  0  0  0  0  0  0
    6.6660    0.0028   19.9105 C   0  0  0  0  0  0  0  0  0  0  0  0
    5.4476    0.6419   20.1626 C   0  0  0  0  0  0  0  0  0  0  0  0
    4.8193    1.3058   19.1057 C   0  0  0  0  0  0  0  0  0  0  0  0
    5.4025    1.2950   17.8305 C   0  0  0  0  0  0  0  0  0  0  0  0
    6.5741    0.6796   17.5820 N   0  0  0  0  0  0  0  0  0  0  0  0
    7.1902    0.0597   18.6059 C   0  0  0  0  0  0  0  0  0  0  0  0
    8.1304   -0.4408   18.3999 H   0  0  0  0  0  0  0  0  0  0  0  0
    4.8892    1.7915   17.0129 H   0  0  0  0  0  0  0  0  0  0  0  0
    3.8823    1.8334   19.2618 H   0  0  0  0  0  0  0  0  0  0  0  0
    5.0077    0.6269   21.1623 H   0  0  0  0  0  0  0  0  0  0  0  0
    8.5998   -0.4840   21.4099 C   0  0  0  0  0  0  0  0  0  0  0  0
    9.5425    0.5952   20.9584 C   0  0  0  0  0  0  0  0  0  0  0  0
    9.2342    1.9054   21.7054 C   0  0  0  0  0  0  0  0  0  0  0  0
    9.4998    1.7580   23.1834 C   0  0  0  0  0  0  0  0  0  0  0  0
   10.8145    1.7681   23.6399 C   0  0  0  0  0  0  0  0  0  0  0  0
   11.0881    1.6061   24.9944 C   0  0  0  0  0  0  0  0  0  0  0  0
   10.1227    1.4449   25.9072 N   0  0  0  0  0  0  0  0  0  0  0  0
    8.8473    1.4364   25.4831 C   0  0  0  0  0  0  0  0  0  0  0  0
    8.4864    1.5920   24.1372 C   0  0  0  0  0  0  0  0  0  0  0  0
    6.6291    1.5641   23.6584 Br  0  0  0  0  0  0  0  0  0  0  0  0
    8.0602    1.3008   26.2183 H   0  0  0  0  0  0  0  0  0  0  0  0
   12.1222    1.6117   25.3155 H   0  0  0  0  0  0  0  0  0  0  0  0
   11.6358    1.8934   22.9463 H   0  0  0  0  0  0  0  0  0  0  0  0
    9.8724    2.7008   21.3099 H   0  0  0  0  0  0  0  0  0  0  0  0
    8.1938    2.2046   21.5360 H   0  0  0  0  0  0  0  0  0  0  0  0
   10.5741    0.2819   21.1588 H   0  0  0  0  0  0  0  0  0  0  0  0
    9.4298    0.7471   19.8824 H   0  0  0  0  0  0  0  0  0  0  0  0
    8.8579   -1.3009   22.3882 N   0  0  0  0  0  0  0  0  0  0  0  0
    6.6234   -3.6439   23.3733 H   0  0  0  0  0  0  0  0  0  0  0  0
    8.3201   -3.5246   23.8550 H   0  0  0  0  0  0  0  0  0  0  0  0
    6.0968   -1.6098   24.7414 H   0  0  0  0  0  0  0  0  0  0  0  0
    7.7916   -1.5046   25.2340 H   0  0  0  0  0  0  0  0  0  0  0  0
    5.9163   -3.8490   25.8267 H   0  0  0  0  0  0  0  0  0  0  0  0
    6.4297   -2.6026   26.9814 H   0  0  0  0  0  0  0  0  0  0  0  0
    7.6198   -3.7427   26.3227 H   0  0  0  0  0  0  0  0  0  0  0  0
  1  2  1  0
  2  3  1  0
  3  4  1  0
  4  5  2  0
  5  6  1  0
  6  7  1  0
  7  8  2  0
  8  9  1  0
  9 10  2  0
 10 11  1  0
 11 12  2  0
 12 13  1  0
 10 14  1  0
  9 15  1  0
  8 16  1  0
  6 17  1  0
 17 18  1  0
 18 19  1  0
 19 20  1  0
 20 21  2  0
 21 22  1  0
 22 23  2  0
 23 24  1  0
 24 25  2  0
 25 26  1  0
 24 27  1  0
 22 28  1  0
 21 29  1  0
 19 30  1  0
 19 31  1  0
 18 32  1  0
 18 33  1  0
 17 34  2  0
  3 35  1  0
  3 36  1  0
  2 37  1  0
  2 38  1  0
  1 39  1  0
  1 40  1  0
  1 41  1  0
 34  4  1  0
 12  7  1  0
 25 20  1  0
M  END
>  <cnnaffinity>  (1) 
-6.02061

>  <filename>  (1) 
CCCc1nc(CCc2ccncc2Br)n(-c2cccnc2)n1

$$$$
