
     RDKit          3D

 45 47  0  0  0  0  0  0  0  0999 V2000
    6.3873   -0.3109   26.5090 C   0  0  0  0  0  0  0  0  0  0  0  0
    6.3638   -1.0714   25.1837 C   0  0  0  0  0  0  0  0  0  0  0  0
    7.3705   -2.2246   25.1369 C   0  0  0  0  0  0  0  0  0  0  0  0
    7.3491   -3.0513   23.8251 C   0  0  0  0  0  0  0  0  0  0  0  0
    8.3632   -4.2008   23.8840 C   0  0  0  0  0  0  0  0  0  0  0  0
    9.3707   -3.7944   24.0254 H   0  0  0  0  0  0  0  0  0  0  0  0
    8.1400   -4.8781   24.7147 H   0  0  0  0  0  0  0  0  0  0  0  0
    8.3656   -4.7790   22.9545 H   0  0  0  0  0  0  0  0  0  0  0  0
    7.6400   -2.1458   22.6639 C   0  0  0  0  0  0  0  0  0  0  0  0
    6.7325   -1.6939   21.8276 N   0  0  0  0  0  0  0  0  0  0  0  0
    7.4145   -0.7606   21.1058 N   0  0  0  0  0  0  0  0  0  0  0  0
    6.7667   -0.0784   20.0316 C   0  0  0  0  0  0  0  0  0  0  0  0
    5.5539    0.5917   20.2478 C   0  0  0  0  0  0  0  0  0  0  0  0
    4.9793    1.2666   19.1694 C   0  0  0  0  0  0  0  0  0  0  0  0
    5.6163    1.2371   17.9239 C   0  0  0  0  0  0  0  0  0  0  0  0
    6.7667    0.5803   17.7039 N   0  0  0  0  0  0  0  0  0  0  0  0
    7.3208   -0.0629   18.7391 C   0  0  0  0  0  0  0  0  0  0  0  0
    8.2470   -0.5981   18.5286 H   0  0  0  0  0  0  0  0  0  0  0  0
    5.1915    1.7715   17.0788 H   0  0  0  0  0  0  0  0  0  0  0  0
    4.0554    1.8223   19.2857 H   0  0  0  0  0  0  0  0  0  0  0  0
    5.0936    0.5802   21.2380 H   0  0  0  0  0  0  0  0  0  0  0  0
    8.6837   -0.6794   21.6030 C   0  0  0  0  0  0  0  0  0  0  0  0
    9.6284    0.4611   21.3643 C   0  0  0  0  0  0  0  0  0  0  0  0
    9.0866    1.7184   21.8623 N   0  0  0  0  0  0  0  0  0  0  0  0
    8.2015    2.5074   21.1881 C   0  0  0  0  0  0  0  0  0  0  0  0
    7.6896    3.4445   21.9330 N   0  0  0  0  0  0  0  0  0  0  0  0
    8.2625    3.2686   23.1728 C   0  0  0  0  0  0  0  0  0  0  0  0
    7.9227    4.0956   24.3914 C   0  0  0  0  0  0  0  0  0  0  0  0
    7.8420    5.4119   24.1425 F   0  0  0  0  0  0  0  0  0  0  0  0
    8.8631    3.9258   25.3502 F   0  0  0  0  0  0  0  0  0  0  0  0
    6.7487    3.7261   24.9440 F   0  0  0  0  0  0  0  0  0  0  0  0
    9.1225    2.1993   23.1545 C   0  0  0  0  0  0  0  0  0  0  0  0
    9.7948    1.8311   23.9199 H   0  0  0  0  0  0  0  0  0  0  0  0
    7.9981    2.3085   20.1433 H   0  0  0  0  0  0  0  0  0  0  0  0
    9.8438    0.5603   20.2985 H   0  0  0  0  0  0  0  0  0  0  0  0
   10.5494    0.2527   21.9119 H   0  0  0  0  0  0  0  0  0  0  0  0
    8.8774   -1.5933   22.5242 N   0  0  0  0  0  0  0  0  0  0  0  0
    6.3386   -3.4450   23.6621 H   0  0  0  0  0  0  0  0  0  0  0  0
    7.2021   -2.9003   25.9860 H   0  0  0  0  0  0  0  0  0  0  0  0
    8.3845   -1.8160   25.2605 H   0  0  0  0  0  0  0  0  0  0  0  0
    5.3573   -1.4678   25.0029 H   0  0  0  0  0  0  0  0  0  0  0  0
    6.5600   -0.3690   24.3619 H   0  0  0  0  0  0  0  0  0  0  0  0
    6.2186   -0.9863   27.3544 H   0  0  0  0  0  0  0  0  0  0  0  0
    5.6179    0.4672   26.5488 H   0  0  0  0  0  0  0  0  0  0  0  0
    7.3529    0.1814   26.6699 H   0  0  0  0  0  0  0  0  0  0  0  0
  1  2  1  0
  2  3  1  0
  3  4  1  0
  4  5  1  0
  5  6  1  0
  5  7  1  0
  5  8  1  0
  4  9  1  0
  9 10  2  0
 10 11  1  0
 11 12  1  0
 12 13  2  0
 13 14  1  0
 14 15  2  0
 15 16  1  0
 16 17  2  0
 17 18  1  0
 15 19  1  0
 14 20  1  0
 13 21  1  0
 11 22  1  0
 22 23  1  0
 23 24  1  0
 24 25  1  0
 25 26  2  0
 26 27  1  0
 27 28  1  0
 28 29  1  0
 28 30  1  0
 28 31  1  0
 27 32  2  0
 32 33  1  0
 25 34  1  0
 23 35  1  0
 23 36  1  0
 22 37  2  0
  4 38  1  0
  3 39  1  0
  3 40  1  0
  2 41  1  0
  2 42  1  0
  1 43  1  0
  1 44  1  0
  1 45  1  0
 37  9  1  0
 17 12  1  0
 32 24  1  0
M  END
>  <cnnaffinity>  (1) 
-6.20678

>  <filename>  (1) 
CCCC(C)c1nc(Cn2cnc(C(F)(F)F)c2)n(-c2cccnc2)n1

$$$$
