
     RDKit          3D

 45 46  0  0  0  0  0  0  0  0999 V2000
    4.9697    1.8834   16.9385 H   0  0  0  0  0  0  0  0  0  0  0  0
    5.4296    1.3490   17.7678 C   0  0  0  0  0  0  0  0  0  0  0  0
    6.6041    0.7518   17.5080 N   0  0  0  0  0  0  0  0  0  0  0  0
    7.2000    0.1069   18.5190 C   0  0  0  0  0  0  0  0  0  0  0  0
    8.1539   -0.3694   18.2856 H   0  0  0  0  0  0  0  0  0  0  0  0
    6.6592   -0.0178   19.8187 C   0  0  0  0  0  0  0  0  0  0  0  0
    7.3889   -0.7523   20.8881 C   0  0  0  0  0  0  0  0  0  0  0  0
    8.7144   -0.4661   21.1653 C   0  0  0  0  0  0  0  0  0  0  0  0
    9.2244    0.2799   20.5556 H   0  0  0  0  0  0  0  0  0  0  0  0
    9.4378   -1.0857   22.2321 C   0  0  0  0  0  0  0  0  0  0  0  0
   10.8817   -0.7316   22.5381 C   0  0  0  0  0  0  0  0  0  0  0  0
   11.3450   -0.3392   21.6215 H   0  0  0  0  0  0  0  0  0  0  0  0
   11.4367   -1.6471   22.7901 H   0  0  0  0  0  0  0  0  0  0  0  0
   11.0688    0.2968   23.6767 C   0  0  0  0  0  0  0  0  0  0  0  0
   12.1459    0.4005   23.8672 H   0  0  0  0  0  0  0  0  0  0  0  0
   10.6386   -0.1007   24.6077 H   0  0  0  0  0  0  0  0  0  0  0  0
   10.4700    1.6742   23.3679 C   0  0  0  0  0  0  0  0  0  0  0  0
   10.9252    2.0591   22.4424 H   0  0  0  0  0  0  0  0  0  0  0  0
    9.3992    1.5575   23.1500 H   0  0  0  0  0  0  0  0  0  0  0  0
   10.6339    2.7203   24.4752 C   0  0  0  0  0  0  0  0  0  0  0  0
   11.7049    2.8587   24.6914 H   0  0  0  0  0  0  0  0  0  0  0  0
   10.1814    2.3433   25.4045 H   0  0  0  0  0  0  0  0  0  0  0  0
   10.0056    4.0748   24.1048 C   0  0  0  0  0  0  0  0  0  0  0  0
   10.4762    4.4182   23.1710 H   0  0  0  0  0  0  0  0  0  0  0  0
    8.9402    3.9276   23.8744 H   0  0  0  0  0  0  0  0  0  0  0  0
   10.1550    5.1790   25.1632 C   0  0  0  0  0  0  0  0  0  0  0  0
    9.8962    6.1506   24.7110 H   0  0  0  0  0  0  0  0  0  0  0  0
   11.2239    5.2341   25.4332 H   0  0  0  0  0  0  0  0  0  0  0  0
    9.3504    5.0016   26.4636 C   0  0  0  0  0  0  0  0  0  0  0  0
    9.7384    5.7377   27.1799 H   0  0  0  0  0  0  0  0  0  0  0  0
    9.5349    4.0027   26.8672 H   0  0  0  0  0  0  0  0  0  0  0  0
    7.8308    5.2100   26.4266 C   0  0  0  0  0  0  0  0  0  0  0  0
    7.4558    5.1481   27.4557 H   0  0  0  0  0  0  0  0  0  0  0  0
    7.5886    6.2035   26.0405 H   0  0  0  0  0  0  0  0  0  0  0  0
    7.2903    4.4574   25.8399 H   0  0  0  0  0  0  0  0  0  0  0  0
    8.7786   -2.0048   23.0016 C   0  0  0  0  0  0  0  0  0  0  0  0
    9.2532   -2.5061   23.8437 H   0  0  0  0  0  0  0  0  0  0  0  0
    7.4801   -2.3198   22.7241 N   0  0  0  0  0  0  0  0  0  0  0  0
    6.9391   -3.0037   23.2308 H   0  0  0  0  0  0  0  0  0  0  0  0
    6.7118   -1.8197   21.6699 C   0  0  0  0  0  0  0  0  0  0  0  0
    5.6180   -2.3369   21.5106 O   0  0  0  0  0  0  0  0  0  0  0  0
    5.4215    0.6018   20.0548 C   0  0  0  0  0  0  0  0  0  0  0  0
    4.9665    0.5358   21.0424 H   0  0  0  0  0  0  0  0  0  0  0  0
    4.8062    1.3060   19.0177 C   0  0  0  0  0  0  0  0  0  0  0  0
    3.8697    1.8306   19.1661 H   0  0  0  0  0  0  0  0  0  0  0  0
  1  2  1  0
  2  3  2  0
  3  4  1  0
  4  5  1  0
  4  6  2  0
  6  7  1  0
  7  8  2  0
  8  9  1  0
  8 10  1  0
 10 11  1  0
 11 12  1  0
 11 13  1  0
 11 14  1  0
 14 15  1  0
 14 16  1  0
 14 17  1  0
 17 18  1  0
 17 19  1  0
 17 20  1  0
 20 21  1  0
 20 22  1  0
 20 23  1  0
 23 24  1  0
 23 25  1  0
 23 26  1  0
 26 27  1  0
 26 28  1  0
 26 29  1  0
 29 30  1  0
 29 31  1  0
 29 32  1  0
 32 33  1  0
 32 34  1  0
 32 35  1  0
 10 36  2  0
 36 37  1  0
 36 38  1  0
 38 39  1  0
 38 40  1  0
 40 41  2  0
  6 42  1  0
 42 43  1  0
 42 44  2  0
 44 45  1  0
 44  2  1  0
 40  7  1  0
M  END
>  <cnnaffinity>  (1) 
-5.66237

>  <filename>  (1) 
CCCCCCCCc1c[nH]c(=O)c(-c2cccnc2)c1

$$$$
