
     RDKit          3D

 35 35  0  0  0  0  0  0  0  0999 V2000
    4.9106    1.7801   16.9962 H   0  0  0  0  0  0  0  0  0  0  0  0
    5.4003    1.2954   17.8372 C   0  0  0  0  0  0  0  0  0  0  0  0
    6.5649    0.6842   17.5723 N   0  0  0  0  0  0  0  0  0  0  0  0
    7.1670    0.0645   18.5946 C   0  0  0  0  0  0  0  0  0  0  0  0
    8.1163   -0.4235   18.3758 H   0  0  0  0  0  0  0  0  0  0  0  0
    6.6463   -0.0084   19.8965 C   0  0  0  0  0  0  0  0  0  0  0  0
    7.4124   -0.7112   20.9869 C   0  0  0  0  0  0  0  0  0  0  0  0
    6.7234   -0.9702   21.8042 H   0  0  0  0  0  0  0  0  0  0  0  0
    7.8140   -1.6551   20.5980 H   0  0  0  0  0  0  0  0  0  0  0  0
    8.5534    0.1519   21.5408 C   0  0  0  0  0  0  0  0  0  0  0  0
    9.1551   -0.4603   22.2238 H   0  0  0  0  0  0  0  0  0  0  0  0
    9.2170    0.4454   20.7167 H   0  0  0  0  0  0  0  0  0  0  0  0
    8.0765    1.4036   22.2692 C   0  0  0  0  0  0  0  0  0  0  0  0
    7.3679    1.1177   23.0595 H   0  0  0  0  0  0  0  0  0  0  0  0
    7.5172    2.0561   21.5846 H   0  0  0  0  0  0  0  0  0  0  0  0
    9.2189    2.1925   22.8862 C   0  0  0  0  0  0  0  0  0  0  0  0
    9.7710    1.5461   23.5835 H   0  0  0  0  0  0  0  0  0  0  0  0
    9.9346    2.4665   22.0999 H   0  0  0  0  0  0  0  0  0  0  0  0
    8.7425    3.4399   23.6228 C   0  0  0  0  0  0  0  0  0  0  0  0
    8.2500    4.1145   22.9106 H   0  0  0  0  0  0  0  0  0  0  0  0
    7.9761    3.1515   24.3542 H   0  0  0  0  0  0  0  0  0  0  0  0
    9.8565    4.1962   24.3363 C   0  0  0  0  0  0  0  0  0  0  0  0
   10.3938    3.4811   24.9646 H   0  0  0  0  0  0  0  0  0  0  0  0
    9.4168    4.9394   25.0135 H   0  0  0  0  0  0  0  0  0  0  0  0
   10.8479    4.8860   23.4044 C   0  0  0  0  0  0  0  0  0  0  0  0
   11.3634    4.1436   22.7845 H   0  0  0  0  0  0  0  0  0  0  0  0
   10.2932    5.5280   22.7108 H   0  0  0  0  0  0  0  0  0  0  0  0
   11.8761    5.7169   24.1566 C   0  0  0  0  0  0  0  0  0  0  0  0
   11.3855    6.4938   24.7528 H   0  0  0  0  0  0  0  0  0  0  0  0
   12.4568    5.0900   24.8415 H   0  0  0  0  0  0  0  0  0  0  0  0
   12.5720    6.2050   23.4694 H   0  0  0  0  0  0  0  0  0  0  0  0
    5.4392    0.6484   20.1502 C   0  0  0  0  0  0  0  0  0  0  0  0
    5.0103    0.6330   21.1598 H   0  0  0  0  0  0  0  0  0  0  0  0
    4.8011    1.3149   19.1024 C   0  0  0  0  0  0  0  0  0  0  0  0
    3.8690    1.8476   19.2600 H   0  0  0  0  0  0  0  0  0  0  0  0
  1  2  1  0
  2  3  2  0
  3  4  1  0
  4  5  1  0
  4  6  2  0
  6  7  1  0
  7  8  1  0
  7  9  1  0
  7 10  1  0
 10 11  1  0
 10 12  1  0
 10 13  1  0
 13 14  1  0
 13 15  1  0
 13 16  1  0
 16 17  1  0
 16 18  1  0
 16 19  1  0
 19 20  1  0
 19 21  1  0
 19 22  1  0
 22 23  1  0
 22 24  1  0
 22 25  1  0
 25 26  1  0
 25 27  1  0
 25 28  1  0
 28 29  1  0
 28 30  1  0
 28 31  1  0
  6 32  1  0
 32 33  1  0
 32 34  2  0
 34 35  1  0
 34  2  1  0
M  END
>  <cnnaffinity>  (1) 
-4.69122

>  <filename>  (1) 
CCCCCCCCc1cccnc1

$$$$
