
     RDKit          3D

 42 43  0  0  0  0  0  0  0  0999 V2000
    4.9389    1.7942   16.9722 H   0  0  0  0  0  0  0  0  0  0  0  0
    5.4186    1.3140   17.8249 C   0  0  0  0  0  0  0  0  0  0  0  0
    6.5910    0.7063   17.5893 N   0  0  0  0  0  0  0  0  0  0  0  0
    7.1757    0.0904   18.6293 C   0  0  0  0  0  0  0  0  0  0  0  0
    8.1230   -0.3976   18.4074 H   0  0  0  0  0  0  0  0  0  0  0  0
    6.6473    0.0266   19.9443 C   0  0  0  0  0  0  0  0  0  0  0  0
    7.3207   -0.6944   21.0666 C   0  0  0  0  0  0  0  0  0  0  0  0
    7.7510   -2.0439   21.1587 C   0  0  0  0  0  0  0  0  0  0  0  0
    7.5801   -2.8472   20.4626 H   0  0  0  0  0  0  0  0  0  0  0  0
    8.3952   -2.3019   22.2886 N   0  0  0  0  0  0  0  0  0  0  0  0
    8.3746   -1.1299   22.9385 N   0  0  0  0  0  0  0  0  0  0  0  0
    8.8583   -1.0475   23.8191 H   0  0  0  0  0  0  0  0  0  0  0  0
    7.7158   -0.1436   22.2790 C   0  0  0  0  0  0  0  0  0  0  0  0
    7.5525    1.2391   22.8425 C   0  0  0  0  0  0  0  0  0  0  0  0
    6.4862    1.4894   22.8337 H   0  0  0  0  0  0  0  0  0  0  0  0
    7.8520    1.2502   23.8992 H   0  0  0  0  0  0  0  0  0  0  0  0
    8.3395    2.2958   22.0502 C   0  0  0  0  0  0  0  0  0  0  0  0
    8.1527    3.2946   22.4711 H   0  0  0  0  0  0  0  0  0  0  0  0
    7.9467    2.2944   21.0261 H   0  0  0  0  0  0  0  0  0  0  0  0
    9.8498    2.0347   22.0107 C   0  0  0  0  0  0  0  0  0  0  0  0
   10.3211    2.7859   21.3650 H   0  0  0  0  0  0  0  0  0  0  0  0
   10.0302    1.0704   21.5168 H   0  0  0  0  0  0  0  0  0  0  0  0
   10.5248    2.0225   23.3882 C   0  0  0  0  0  0  0  0  0  0  0  0
   10.3829    2.9996   23.8706 H   0  0  0  0  0  0  0  0  0  0  0  0
   10.0214    1.2942   24.0396 H   0  0  0  0  0  0  0  0  0  0  0  0
   12.0194    1.6795   23.3668 C   0  0  0  0  0  0  0  0  0  0  0  0
   12.1454    0.6552   22.9842 H   0  0  0  0  0  0  0  0  0  0  0  0
   12.3889    1.6546   24.4019 H   0  0  0  0  0  0  0  0  0  0  0  0
   12.9008    2.6255   22.5405 C   0  0  0  0  0  0  0  0  0  0  0  0
   12.6114    2.5367   21.4836 H   0  0  0  0  0  0  0  0  0  0  0  0
   13.9424    2.2764   22.6053 H   0  0  0  0  0  0  0  0  0  0  0  0
   12.8442    4.1029   22.9468 C   0  0  0  0  0  0  0  0  0  0  0  0
   11.8344    4.5033   22.7818 H   0  0  0  0  0  0  0  0  0  0  0  0
   13.0305    4.1915   24.0240 H   0  0  0  0  0  0  0  0  0  0  0  0
   13.8557    4.9684   22.2010 C   0  0  0  0  0  0  0  0  0  0  0  0
   13.6685    4.9602   21.1195 H   0  0  0  0  0  0  0  0  0  0  0  0
   14.8716    4.5974   22.3725 H   0  0  0  0  0  0  0  0  0  0  0  0
   13.8110    6.0053   22.5512 H   0  0  0  0  0  0  0  0  0  0  0  0
    5.4381    0.6995   20.1590 C   0  0  0  0  0  0  0  0  0  0  0  0
    4.9849    0.7040   21.1534 H   0  0  0  0  0  0  0  0  0  0  0  0
    4.8115    1.3335   19.0836 C   0  0  0  0  0  0  0  0  0  0  0  0
    3.8651    1.8381   19.2094 H   0  0  0  0  0  0  0  0  0  0  0  0
  1  2  1  0
  2  3  2  0
  3  4  1  0
  4  5  1  0
  4  6  2  0
  6  7  1  0
  7  8  1  0
  8  9  1  0
  8 10  2  0
 10 11  1  0
 11 12  1  0
 11 13  1  0
 13 14  1  0
 14 15  1  0
 14 16  1  0
 14 17  1  0
 17 18  1  0
 17 19  1  0
 17 20  1  0
 20 21  1  0
 20 22  1  0
 20 23  1  0
 23 24  1  0
 23 25  1  0
 23 26  1  0
 26 27  1  0
 26 28  1  0
 26 29  1  0
 29 30  1  0
 29 31  1  0
 29 32  1  0
 32 33  1  0
 32 34  1  0
 32 35  1  0
 35 36  1  0
 35 37  1  0
 35 38  1  0
  6 39  1  0
 39 40  1  0
 39 41  2  0
 41 42  1  0
 41  2  1  0
 13  7  2  0
M  END
>  <cnnaffinity>  (1) 
-5.20311

>  <filename>  (1) 
CCCCCCCCc1[nH]ncc1-c1cccnc1

$$$$
