
     RDKit          3D

 43 45  0  0  0  0  0  0  0  0999 V2000
    8.2756   -5.7785   23.1411 C   0  0  0  0  0  0  0  0  0  0  0  0
    7.5422   -4.4536   22.9282 C   0  0  0  0  0  0  0  0  0  0  0  0
    8.4496   -3.4989   22.1339 C   0  0  0  0  0  0  0  0  0  0  0  0
    7.8950   -2.1453   21.8666 C   0  0  0  0  0  0  0  0  0  0  0  0
    7.4756   -1.7830   20.6744 N   0  0  0  0  0  0  0  0  0  0  0  0
    7.0302   -0.5172   20.8737 N   0  0  0  0  0  0  0  0  0  0  0  0
    6.4215    0.1931   19.8042 C   0  0  0  0  0  0  0  0  0  0  0  0
    5.2333    0.9285   19.9322 C   0  0  0  0  0  0  0  0  0  0  0  0
    4.7063    1.5247   18.7801 C   0  0  0  0  0  0  0  0  0  0  0  0
    5.3871    1.3894   17.5672 C   0  0  0  0  0  0  0  0  0  0  0  0
    6.5308    0.6933   17.4425 N   0  0  0  0  0  0  0  0  0  0  0  0
    7.0243    0.1106   18.5356 C   0  0  0  0  0  0  0  0  0  0  0  0
    7.9506   -0.4478   18.4237 H   0  0  0  0  0  0  0  0  0  0  0  0
    5.0099    1.8548   16.6601 H   0  0  0  0  0  0  0  0  0  0  0  0
    3.7924    2.1076   18.8180 H   0  0  0  0  0  0  0  0  0  0  0  0
    4.7222    1.0285   20.8910 H   0  0  0  0  0  0  0  0  0  0  0  0
    7.2908   -0.1605   22.1666 C   0  0  0  0  0  0  0  0  0  0  0  0
    7.0843    1.2344   22.6929 C   0  0  0  0  0  0  0  0  0  0  0  0
    8.1203    1.7424   23.5086 O   0  0  0  0  0  0  0  0  0  0  0  0
    9.3970    1.9291   23.0294 C   0  0  0  0  0  0  0  0  0  0  0  0
    9.7122    2.1408   21.6812 C   0  0  0  0  0  0  0  0  0  0  0  0
   11.0471    2.3826   21.3160 C   0  0  0  0  0  0  0  0  0  0  0  0
   12.0524    2.3880   22.2801 C   0  0  0  0  0  0  0  0  0  0  0  0
   11.7208    2.1653   23.6249 C   0  0  0  0  0  0  0  0  0  0  0  0
   10.3993    1.9433   24.0293 C   0  0  0  0  0  0  0  0  0  0  0  0
   10.0209    1.7034   25.4775 C   0  0  0  0  0  0  0  0  0  0  0  0
    9.3348    0.8507   25.5654 H   0  0  0  0  0  0  0  0  0  0  0  0
   10.9027    1.4941   26.0866 H   0  0  0  0  0  0  0  0  0  0  0  0
    9.5001    2.5731   25.9016 H   0  0  0  0  0  0  0  0  0  0  0  0
   12.5026    2.1584   24.3828 H   0  0  0  0  0  0  0  0  0  0  0  0
   13.0896    2.5618   21.9938 H   0  0  0  0  0  0  0  0  0  0  0  0
   11.2843    2.5827   20.2737 H   0  0  0  0  0  0  0  0  0  0  0  0
    8.9196    2.1458   20.9381 H   0  0  0  0  0  0  0  0  0  0  0  0
    6.2065    1.2384   23.3467 H   0  0  0  0  0  0  0  0  0  0  0  0
    6.8929    1.9288   21.8712 H   0  0  0  0  0  0  0  0  0  0  0  0
    7.7904   -1.1898   22.8253 N   0  0  0  0  0  0  0  0  0  0  0  0
    8.6532   -3.9400   21.1547 H   0  0  0  0  0  0  0  0  0  0  0  0
    9.4047   -3.3771   22.6607 H   0  0  0  0  0  0  0  0  0  0  0  0
    7.2622   -3.9973   23.8888 H   0  0  0  0  0  0  0  0  0  0  0  0
    6.6067   -4.6164   22.3746 H   0  0  0  0  0  0  0  0  0  0  0  0
    8.7617   -6.0987   22.2109 H   0  0  0  0  0  0  0  0  0  0  0  0
    9.0582   -5.6727   23.9021 H   0  0  0  0  0  0  0  0  0  0  0  0
    7.6070   -6.5845   23.4487 H   0  0  0  0  0  0  0  0  0  0  0  0
  1  2  1  0
  2  3  1  0
  3  4  1  0
  4  5  2  0
  5  6  1  0
  6  7  1  0
  7  8  2  0
  8  9  1  0
  9 10  2  0
 10 11  1  0
 11 12  2  0
 12 13  1  0
 10 14  1  0
  9 15  1  0
  8 16  1  0
  6 17  1  0
 17 18  1  0
 18 19  1  0
 19 20  1  0
 20 21  2  0
 21 22  1  0
 22 23  2  0
 23 24  1  0
 24 25  2  0
 25 26  1  0
 26 27  1  0
 26 28  1  0
 26 29  1  0
 24 30  1  0
 23 31  1  0
 22 32  1  0
 21 33  1  0
 18 34  1  0
 18 35  1  0
 17 36  2  0
  3 37  1  0
  3 38  1  0
  2 39  1  0
  2 40  1  0
  1 41  1  0
  1 42  1  0
  1 43  1  0
 36  4  1  0
 12  7  1  0
 25 20  1  0
M  END
>  <cnnaffinity>  (1) 
-5.39857

>  <filename>  (1) 
CCCc1nc(COc2ccccc2C)n(-c2cccnc2)n1

$$$$
