
     RDKit          3D

 38 40  0  0  0  0  0  0  0  0999 V2000
    8.5441   -4.8217   22.4441 C   0  0  0  0  0  0  0  0  0  0  0  0
    7.1679   -4.4982   23.0265 C   0  0  0  0  0  0  0  0  0  0  0  0
    7.1950   -3.0659   23.6062 C   0  0  0  0  0  0  0  0  0  0  0  0
    7.4667   -2.0200   22.5671 C   0  0  0  0  0  0  0  0  0  0  0  0
    6.5877   -1.6558   21.6580 N   0  0  0  0  0  0  0  0  0  0  0  0
    7.2732   -0.7467   20.9128 N   0  0  0  0  0  0  0  0  0  0  0  0
    6.6006   -0.0485   19.8725 C   0  0  0  0  0  0  0  0  0  0  0  0
    5.3940    0.6130   20.1318 C   0  0  0  0  0  0  0  0  0  0  0  0
    4.7895    1.3116   19.0879 C   0  0  0  0  0  0  0  0  0  0  0  0
    5.3916    1.3013   17.8230 C   0  0  0  0  0  0  0  0  0  0  0  0
    6.5271    0.6359   17.5574 N   0  0  0  0  0  0  0  0  0  0  0  0
    7.1147   -0.0185   18.5640 C   0  0  0  0  0  0  0  0  0  0  0  0
    8.0449   -0.5426   18.3374 H   0  0  0  0  0  0  0  0  0  0  0  0
    4.9481    1.8498   16.9972 H   0  0  0  0  0  0  0  0  0  0  0  0
    3.8756    1.8726   19.2439 H   0  0  0  0  0  0  0  0  0  0  0  0
    4.9653    0.5778   21.1354 H   0  0  0  0  0  0  0  0  0  0  0  0
    8.5332   -0.6092   21.4279 C   0  0  0  0  0  0  0  0  0  0  0  0
    9.6417    0.2238   20.8584 C   0  0  0  0  0  0  0  0  0  0  0  0
   10.3569    1.0659   21.8962 C   0  0  0  0  0  0  0  0  0  0  0  0
    9.7721    2.1904   22.5013 C   0  0  0  0  0  0  0  0  0  0  0  0
    8.2232    2.7754   21.9807 Cl  0  0  0  0  0  0  0  0  0  0  0  0
   10.4219    2.8614   23.5489 C   0  0  0  0  0  0  0  0  0  0  0  0
   11.6191    2.4894   24.0196 N   0  0  0  0  0  0  0  0  0  0  0  0
   12.2068    1.4319   23.4496 C   0  0  0  0  0  0  0  0  0  0  0  0
   11.6249    0.7325   22.3879 C   0  0  0  0  0  0  0  0  0  0  0  0
   12.3120   -0.2873   21.8462 F   0  0  0  0  0  0  0  0  0  0  0  0
   13.1696    1.1141   23.8405 H   0  0  0  0  0  0  0  0  0  0  0  0
    9.9543    3.7157   24.0269 H   0  0  0  0  0  0  0  0  0  0  0  0
    9.2493    0.8667   20.0700 H   0  0  0  0  0  0  0  0  0  0  0  0
   10.3610   -0.4616   20.4039 H   0  0  0  0  0  0  0  0  0  0  0  0
    8.6770   -1.4110   22.4667 N   0  0  0  0  0  0  0  0  0  0  0  0
    8.0188   -3.0061   24.3229 H   0  0  0  0  0  0  0  0  0  0  0  0
    6.2843   -2.8020   24.1546 H   0  0  0  0  0  0  0  0  0  0  0  0
    6.9314   -5.1994   23.8333 H   0  0  0  0  0  0  0  0  0  0  0  0
    6.3649   -4.6026   22.2806 H   0  0  0  0  0  0  0  0  0  0  0  0
    9.3108   -4.7612   23.2297 H   0  0  0  0  0  0  0  0  0  0  0  0
    8.6212   -5.8144   21.9875 H   0  0  0  0  0  0  0  0  0  0  0  0
    8.8047   -4.0628   21.6984 H   0  0  0  0  0  0  0  0  0  0  0  0
  1  2  1  0
  2  3  1  0
  3  4  1  0
  4  5  2  0
  5  6  1  0
  6  7  1  0
  7  8  2  0
  8  9  1  0
  9 10  2  0
 10 11  1  0
 11 12  2  0
 12 13  1  0
 10 14  1  0
  9 15  1  0
  8 16  1  0
  6 17  1  0
 17 18  1  0
 18 19  1  0
 19 20  2  0
 20 21  1  0
 20 22  1  0
 22 23  2  0
 23 24  1  0
 24 25  2  0
 25 26  1  0
 24 27  1  0
 22 28  1  0
 18 29  1  0
 18 30  1  0
 17 31  2  0
  3 32  1  0
  3 33  1  0
  2 34  1  0
  2 35  1  0
  1 36  1  0
  1 37  1  0
  1 38  1  0
 31  4  1  0
 12  7  1  0
 25 19  1  0
M  END
>  <cnnaffinity>  (1) 
-6.39558

>  <filename>  (1) 
CCCc1nc(Cc2c(F)cncc2Cl)n(-c2cccnc2)n1

$$$$
