
     RDKit          3D

 38 39  0  0  0  0  0  0  0  0999 V2000
    4.9413    1.7756   16.9964 H   0  0  0  0  0  0  0  0  0  0  0  0
    5.4107    1.2857   17.8472 C   0  0  0  0  0  0  0  0  0  0  0  0
    6.5705    0.6611   17.6035 N   0  0  0  0  0  0  0  0  0  0  0  0
    7.1675    0.0478   18.6311 C   0  0  0  0  0  0  0  0  0  0  0  0
    8.1105   -0.4328   18.3778 H   0  0  0  0  0  0  0  0  0  0  0  0
    6.6417   -0.0045   19.9312 C   0  0  0  0  0  0  0  0  0  0  0  0
    7.3707   -0.7289   21.0002 C   0  0  0  0  0  0  0  0  0  0  0  0
    6.6106   -1.3238   21.9326 N   0  0  0  0  0  0  0  0  0  0  0  0
    7.2102   -1.9784   22.9307 C   0  0  0  0  0  0  0  0  0  0  0  0
    6.3223   -2.5837   23.9967 C   0  0  0  0  0  0  0  0  0  0  0  0
    6.7907   -3.5007   24.3746 H   0  0  0  0  0  0  0  0  0  0  0  0
    5.3698   -2.8750   23.5433 H   0  0  0  0  0  0  0  0  0  0  0  0
    6.0693   -1.6105   25.1655 C   0  0  0  0  0  0  0  0  0  0  0  0
    5.6875   -0.6679   24.7556 H   0  0  0  0  0  0  0  0  0  0  0  0
    7.0238   -1.3676   25.6548 H   0  0  0  0  0  0  0  0  0  0  0  0
    5.0957   -2.1425   26.2199 C   0  0  0  0  0  0  0  0  0  0  0  0
    4.1654   -2.4675   25.7305 H   0  0  0  0  0  0  0  0  0  0  0  0
    4.8102   -1.3194   26.8896 H   0  0  0  0  0  0  0  0  0  0  0  0
    5.6476   -3.2919   27.0638 C   0  0  0  0  0  0  0  0  0  0  0  0
    6.6118   -2.9917   27.5000 H   0  0  0  0  0  0  0  0  0  0  0  0
    5.8743   -4.1582   26.4262 H   0  0  0  0  0  0  0  0  0  0  0  0
    4.6975   -3.7203   28.1813 C   0  0  0  0  0  0  0  0  0  0  0  0
    3.7335   -4.0125   27.7409 H   0  0  0  0  0  0  0  0  0  0  0  0
    4.4827   -2.8541   28.8235 H   0  0  0  0  0  0  0  0  0  0  0  0
    5.2536   -4.8659   29.0249 C   0  0  0  0  0  0  0  0  0  0  0  0
    5.4488   -5.7502   28.4062 H   0  0  0  0  0  0  0  0  0  0  0  0
    6.2030   -4.5844   29.4964 H   0  0  0  0  0  0  0  0  0  0  0  0
    4.5592   -5.1579   29.8187 H   0  0  0  0  0  0  0  0  0  0  0  0
    8.6070   -2.0449   23.0526 C   0  0  0  0  0  0  0  0  0  0  0  0
    9.0328   -2.5647   23.9028 H   0  0  0  0  0  0  0  0  0  0  0  0
    9.4104   -1.4180   22.1012 C   0  0  0  0  0  0  0  0  0  0  0  0
   10.5012   -1.4495   22.1760 H   0  0  0  0  0  0  0  0  0  0  0  0
    8.7737   -0.7537   21.0510 C   0  0  0  0  0  0  0  0  0  0  0  0
    9.3404   -0.2254   20.2977 H   0  0  0  0  0  0  0  0  0  0  0  0
    5.4226    0.6504   20.1679 C   0  0  0  0  0  0  0  0  0  0  0  0
    4.9860    0.6333   21.1684 H   0  0  0  0  0  0  0  0  0  0  0  0
    4.8079    1.3124   19.1095 C   0  0  0  0  0  0  0  0  0  0  0  0
    3.8779    1.8440   19.2493 H   0  0  0  0  0  0  0  0  0  0  0  0
  1  2  1  0
  2  3  2  0
  3  4  1  0
  4  5  1  0
  4  6  2  0
  6  7  1  0
  7  8  2  0
  8  9  1  0
  9 10  1  0
 10 11  1  0
 10 12  1  0
 10 13  1  0
 13 14  1  0
 13 15  1  0
 13 16  1  0
 16 17  1  0
 16 18  1  0
 16 19  1  0
 19 20  1  0
 19 21  1  0
 19 22  1  0
 22 23  1  0
 22 24  1  0
 22 25  1  0
 25 26  1  0
 25 27  1  0
 25 28  1  0
  9 29  2  0
 29 30  1  0
 29 31  1  0
 31 32  1  0
 31 33  2  0
 33 34  1  0
  6 35  1  0
 35 36  1  0
 35 37  2  0
 37 38  1  0
 37  2  1  0
 33  7  1  0
M  END
>  <cnnaffinity>  (1) 
-5.11969

>  <filename>  (1) 
CCCCCCc1cccc(-c2cccnc2)n1

$$$$
