
     RDKit          3D

 39 40  0  0  0  0  0  0  0  0999 V2000
    4.9520    1.8503   17.0062 H   0  0  0  0  0  0  0  0  0  0  0  0
    5.4330    1.3213   17.8277 C   0  0  0  0  0  0  0  0  0  0  0  0
    6.5870    0.6980   17.5486 N   0  0  0  0  0  0  0  0  0  0  0  0
    7.2053    0.0526   18.5503 C   0  0  0  0  0  0  0  0  0  0  0  0
    8.1302   -0.4586   18.2873 H   0  0  0  0  0  0  0  0  0  0  0  0
    6.7012   -0.0168   19.8709 C   0  0  0  0  0  0  0  0  0  0  0  0
    7.3757   -0.7236   20.9225 N   0  0  0  0  0  0  0  0  0  0  0  0
    8.6581   -0.4782   21.4741 C   0  0  0  0  0  0  0  0  0  0  0  0
    9.5558    0.6307   21.0427 C   0  0  0  0  0  0  0  0  0  0  0  0
    9.3770    0.8503   19.9868 H   0  0  0  0  0  0  0  0  0  0  0  0
   10.5922    0.2846   21.1216 H   0  0  0  0  0  0  0  0  0  0  0  0
    9.4054    1.9252   21.8654 C   0  0  0  0  0  0  0  0  0  0  0  0
    9.7062    1.7338   22.9072 H   0  0  0  0  0  0  0  0  0  0  0  0
   10.1095    2.6691   21.4602 H   0  0  0  0  0  0  0  0  0  0  0  0
    7.9839    2.5015   21.8622 C   0  0  0  0  0  0  0  0  0  0  0  0
    7.6163    2.5985   20.8337 H   0  0  0  0  0  0  0  0  0  0  0  0
    7.3027    1.7876   22.3539 H   0  0  0  0  0  0  0  0  0  0  0  0
    7.9383    3.8602   22.5683 C   0  0  0  0  0  0  0  0  0  0  0  0
    8.5510    4.5764   21.9929 H   0  0  0  0  0  0  0  0  0  0  0  0
    8.4386    3.7493   23.5403 H   0  0  0  0  0  0  0  0  0  0  0  0
    6.5545    4.4864   22.8114 C   0  0  0  0  0  0  0  0  0  0  0  0
    5.8970    3.7816   23.3481 H   0  0  0  0  0  0  0  0  0  0  0  0
    6.7049    5.3329   23.4972 H   0  0  0  0  0  0  0  0  0  0  0  0
    5.8445    4.9942   21.5533 C   0  0  0  0  0  0  0  0  0  0  0  0
    5.6381    4.1442   20.8915 H   0  0  0  0  0  0  0  0  0  0  0  0
    6.5029    5.6708   20.9918 H   0  0  0  0  0  0  0  0  0  0  0  0
    4.5332    5.7250   21.8229 C   0  0  0  0  0  0  0  0  0  0  0  0
    3.7611    5.0245   22.1458 H   0  0  0  0  0  0  0  0  0  0  0  0
    4.6504    6.4897   22.5975 H   0  0  0  0  0  0  0  0  0  0  0  0
    4.1555    6.2162   20.9205 H   0  0  0  0  0  0  0  0  0  0  0  0
    8.8027   -1.3521   22.4796 C   0  0  0  0  0  0  0  0  0  0  0  0
    9.6188   -1.5598   23.1627 H   0  0  0  0  0  0  0  0  0  0  0  0
    7.6684   -2.1211   22.6097 O   0  0  0  0  0  0  0  0  0  0  0  0
    6.7672   -1.7449   21.6555 C   0  0  0  0  0  0  0  0  0  0  0  0
    5.6890   -2.2608   21.4959 O   0  0  0  0  0  0  0  0  0  0  0  0
    5.4776    0.6118   20.1327 C   0  0  0  0  0  0  0  0  0  0  0  0
    5.0400    0.5466   21.1307 H   0  0  0  0  0  0  0  0  0  0  0  0
    4.8449    1.3049   19.0957 C   0  0  0  0  0  0  0  0  0  0  0  0
    3.9156    1.8367   19.2605 H   0  0  0  0  0  0  0  0  0  0  0  0
  1  2  1  0
  2  3  2  0
  3  4  1  0
  4  5  1  0
  4  6  2  0
  6  7  1  0
  7  8  1  0
  8  9  1  0
  9 10  1  0
  9 11  1  0
  9 12  1  0
 12 13  1  0
 12 14  1  0
 12 15  1  0
 15 16  1  0
 15 17  1  0
 15 18  1  0
 18 19  1  0
 18 20  1  0
 18 21  1  0
 21 22  1  0
 21 23  1  0
 21 24  1  0
 24 25  1  0
 24 26  1  0
 24 27  1  0
 27 28  1  0
 27 29  1  0
 27 30  1  0
  8 31  2  0
 31 32  1  0
 31 33  1  0
 33 34  1  0
 34 35  2  0
  6 36  1  0
 36 37  1  0
 36 38  2  0
 38 39  1  0
 38  2  1  0
 34  7  1  0
M  END
>  <cnnaffinity>  (1) 
-5.38804

>  <filename>  (1) 
CCCCCCCc1coc(=O)n1-c1cccnc1

$$$$
