
     RDKit          3D

 47 49  0  0  0  0  0  0  0  0999 V2000
    7.3380   -3.7932   25.1428 C   0  0  0  0  0  0  0  0  0  0  0  0
    6.7390   -4.1515   23.7801 C   0  0  0  0  0  0  0  0  0  0  0  0
    7.7648   -4.5814   22.7240 C   0  0  0  0  0  0  0  0  0  0  0  0
    8.7973   -3.4976   22.3123 C   0  0  0  0  0  0  0  0  0  0  0  0
    9.9844   -3.3556   23.2794 C   0  0  0  0  0  0  0  0  0  0  0  0
   10.8793   -2.9938   22.7613 H   0  0  0  0  0  0  0  0  0  0  0  0
   10.2236   -4.3072   23.7554 H   0  0  0  0  0  0  0  0  0  0  0  0
    9.7418   -2.6377   24.0681 H   0  0  0  0  0  0  0  0  0  0  0  0
    8.1873   -2.1599   22.0236 C   0  0  0  0  0  0  0  0  0  0  0  0
    7.7429   -1.8744   20.8186 N   0  0  0  0  0  0  0  0  0  0  0  0
    7.2973   -0.5995   20.9553 N   0  0  0  0  0  0  0  0  0  0  0  0
    6.6129    0.0307   19.8891 C   0  0  0  0  0  0  0  0  0  0  0  0
    5.3950    0.6753   20.1163 C   0  0  0  0  0  0  0  0  0  0  0  0
    4.7864    1.3206   19.0400 C   0  0  0  0  0  0  0  0  0  0  0  0
    5.4177    1.2959   17.7930 C   0  0  0  0  0  0  0  0  0  0  0  0
    6.5657    0.6325   17.5606 N   0  0  0  0  0  0  0  0  0  0  0  0
    7.1425   -0.0010   18.5879 C   0  0  0  0  0  0  0  0  0  0  0  0
    8.0612   -0.5515   18.3838 H   0  0  0  0  0  0  0  0  0  0  0  0
    4.9938    1.8362   16.9500 H   0  0  0  0  0  0  0  0  0  0  0  0
    3.8549    1.8573   19.1708 H   0  0  0  0  0  0  0  0  0  0  0  0
    4.9426    0.6525   21.1100 H   0  0  0  0  0  0  0  0  0  0  0  0
    7.5599   -0.1617   22.2217 C   0  0  0  0  0  0  0  0  0  0  0  0
    7.3533    1.2188   22.7630 C   0  0  0  0  0  0  0  0  0  0  0  0
    8.6100    1.7296   23.4383 C   0  0  0  0  0  0  0  0  0  0  0  0
    8.7809    1.5612   24.8111 C   0  0  0  0  0  0  0  0  0  0  0  0
    9.9883    1.9320   25.3968 C   0  0  0  0  0  0  0  0  0  0  0  0
   11.0066    2.4689   24.7148 N   0  0  0  0  0  0  0  0  0  0  0  0
   10.8374    2.6165   23.3965 C   0  0  0  0  0  0  0  0  0  0  0  0
    9.6863    2.2372   22.6903 C   0  0  0  0  0  0  0  0  0  0  0  0
    9.6491    2.3251   21.1889 C   0  0  0  0  0  0  0  0  0  0  0  0
    9.4184    1.3517   20.7447 H   0  0  0  0  0  0  0  0  0  0  0  0
   10.6066    2.6537   20.7772 H   0  0  0  0  0  0  0  0  0  0  0  0
    8.8821    3.0250   20.8446 H   0  0  0  0  0  0  0  0  0  0  0  0
   11.6763    3.0533   22.8549 H   0  0  0  0  0  0  0  0  0  0  0  0
   10.1446    1.7950   26.4588 H   0  0  0  0  0  0  0  0  0  0  0  0
    7.9998    1.1071   25.4138 H   0  0  0  0  0  0  0  0  0  0  0  0
    6.5303    1.1828   23.4826 H   0  0  0  0  0  0  0  0  0  0  0  0
    7.0415    1.8974   21.9675 H   0  0  0  0  0  0  0  0  0  0  0  0
    8.0973   -1.1462   22.9188 N   0  0  0  0  0  0  0  0  0  0  0  0
    9.1328   -3.7653   21.3180 H   0  0  0  0  0  0  0  0  0  0  0  0
    7.2246   -4.9112   21.8296 H   0  0  0  0  0  0  0  0  0  0  0  0
    8.3210   -5.4677   23.0675 H   0  0  0  0  0  0  0  0  0  0  0  0
    5.9981   -4.9548   23.8885 H   0  0  0  0  0  0  0  0  0  0  0  0
    6.1893   -3.2806   23.3948 H   0  0  0  0  0  0  0  0  0  0  0  0
    8.0588   -4.5495   25.4804 H   0  0  0  0  0  0  0  0  0  0  0  0
    6.5626   -3.7056   25.9100 H   0  0  0  0  0  0  0  0  0  0  0  0
    7.8511   -2.8273   25.0917 H   0  0  0  0  0  0  0  0  0  0  0  0
  1  2  1  0
  2  3  1  0
  3  4  1  0
  4  5  1  0
  5  6  1  0
  5  7  1  0
  5  8  1  0
  4  9  1  0
  9 10  2  0
 10 11  1  0
 11 12  1  0
 12 13  2  0
 13 14  1  0
 14 15  2  0
 15 16  1  0
 16 17  2  0
 17 18  1  0
 15 19  1  0
 14 20  1  0
 13 21  1  0
 11 22  1  0
 22 23  1  0
 23 24  1  0
 24 25  2  0
 25 26  1  0
 26 27  2  0
 27 28  1  0
 28 29  2  0
 29 30  1  0
 30 31  1  0
 30 32  1  0
 30 33  1  0
 28 34  1  0
 26 35  1  0
 25 36  1  0
 23 37  1  0
 23 38  1  0
 22 39  2  0
  4 40  1  0
  3 41  1  0
  3 42  1  0
  2 43  1  0
  2 44  1  0
  1 45  1  0
  1 46  1  0
  1 47  1  0
 39  9  1  0
 17 12  1  0
 29 24  1  0
M  END
>  <cnnaffinity>  (1) 
-6.24886

>  <filename>  (1) 
CCCC(C)c1nc(Cc2ccncc2C)n(-c2cccnc2)n1

$$$$
