
     RDKit          3D

 45 47  0  0  0  0  0  0  0  0999 V2000
    7.1800   -6.2003   21.4966 C   0  0  0  0  0  0  0  0  0  0  0  0
    7.8323   -4.9718   22.1079 C   0  0  0  0  0  0  0  0  0  0  0  0
    6.8422   -4.3276   23.0650 C   0  0  0  0  0  0  0  0  0  0  0  0
    7.4293   -3.0306   23.6168 C   0  0  0  0  0  0  0  0  0  0  0  0
    6.4652   -2.4896   24.6756 C   0  0  0  0  0  0  0  0  0  0  0  0
    5.4854   -2.2953   24.2307 H   0  0  0  0  0  0  0  0  0  0  0  0
    6.3359   -3.2208   25.4788 H   0  0  0  0  0  0  0  0  0  0  0  0
    6.8461   -1.5593   25.1072 H   0  0  0  0  0  0  0  0  0  0  0  0
    7.6346   -2.0221   22.5174 C   0  0  0  0  0  0  0  0  0  0  0  0
    6.6932   -1.6404   21.6868 N   0  0  0  0  0  0  0  0  0  0  0  0
    7.3011   -0.6970   20.9407 N   0  0  0  0  0  0  0  0  0  0  0  0
    6.6601    0.0019   19.9126 C   0  0  0  0  0  0  0  0  0  0  0  0
    5.4419    0.6366   20.1553 C   0  0  0  0  0  0  0  0  0  0  0  0
    4.8260    1.2956   19.0941 C   0  0  0  0  0  0  0  0  0  0  0  0
    5.4152    1.2996   17.8262 C   0  0  0  0  0  0  0  0  0  0  0  0
    6.5868    0.6813   17.5836 N   0  0  0  0  0  0  0  0  0  0  0  0
    7.1912    0.0539   18.6117 C   0  0  0  0  0  0  0  0  0  0  0  0
    8.1358   -0.4461   18.4210 H   0  0  0  0  0  0  0  0  0  0  0  0
    4.9052    1.8202   17.0212 H   0  0  0  0  0  0  0  0  0  0  0  0
    3.8903    1.8181   19.2403 H   0  0  0  0  0  0  0  0  0  0  0  0
    5.0003    0.6227   21.1520 H   0  0  0  0  0  0  0  0  0  0  0  0
    8.6071   -0.5557   21.3895 C   0  0  0  0  0  0  0  0  0  0  0  0
    9.6158    0.4026   20.8831 C   0  0  0  0  0  0  0  0  0  0  0  0
   10.0288    1.2983   21.9634 N   0  0  0  0  0  0  0  0  0  0  0  0
   11.2233    1.1646   22.6057 N   0  0  0  0  0  0  0  0  0  0  0  0
   11.2024    2.0628   23.5642 C   0  0  0  0  0  0  0  0  0  0  0  0
    9.9617    2.8129   23.5429 C   0  0  0  0  0  0  0  0  0  0  0  0
    9.4342    4.2061   24.7406 Br  0  0  0  0  0  0  0  0  0  0  0  0
    9.2314    2.2918   22.5222 C   0  0  0  0  0  0  0  0  0  0  0  0
    7.8430    2.6867   22.0975 C   0  0  0  0  0  0  0  0  0  0  0  0
    7.5832    3.6765   22.4833 H   0  0  0  0  0  0  0  0  0  0  0  0
    7.1098    1.9669   22.4705 H   0  0  0  0  0  0  0  0  0  0  0  0
    7.7781    2.7056   21.0095 H   0  0  0  0  0  0  0  0  0  0  0  0
   11.9980    2.2097   24.2896 H   0  0  0  0  0  0  0  0  0  0  0  0
   10.4794   -0.1773   20.5583 H   0  0  0  0  0  0  0  0  0  0  0  0
    9.2051    0.9668   20.0476 H   0  0  0  0  0  0  0  0  0  0  0  0
    8.8541   -1.3920   22.3498 N   0  0  0  0  0  0  0  0  0  0  0  0
    8.4041   -3.2279   24.0749 H   0  0  0  0  0  0  0  0  0  0  0  0
    5.9107   -4.1155   22.5265 H   0  0  0  0  0  0  0  0  0  0  0  0
    6.6118   -5.0163   23.8861 H   0  0  0  0  0  0  0  0  0  0  0  0
    8.7441   -5.2558   22.6446 H   0  0  0  0  0  0  0  0  0  0  0  0
    8.0900   -4.2609   21.3148 H   0  0  0  0  0  0  0  0  0  0  0  0
    7.6705   -6.4739   20.5562 H   0  0  0  0  0  0  0  0  0  0  0  0
    6.1298   -5.9927   21.2840 H   0  0  0  0  0  0  0  0  0  0  0  0
    7.2313   -7.0372   22.2021 H   0  0  0  0  0  0  0  0  0  0  0  0
  1  2  1  0
  2  3  1  0
  3  4  1  0
  4  5  1  0
  5  6  1  0
  5  7  1  0
  5  8  1  0
  4  9  1  0
  9 10  2  0
 10 11  1  0
 11 12  1  0
 12 13  2  0
 13 14  1  0
 14 15  2  0
 15 16  1  0
 16 17  2  0
 17 18  1  0
 15 19  1  0
 14 20  1  0
 13 21  1  0
 11 22  1  0
 22 23  1  0
 23 24  1  0
 24 25  1  0
 25 26  2  0
 26 27  1  0
 27 28  1  0
 27 29  2  0
 29 30  1  0
 30 31  1  0
 30 32  1  0
 30 33  1  0
 26 34  1  0
 23 35  1  0
 23 36  1  0
 22 37  2  0
  4 38  1  0
  3 39  1  0
  3 40  1  0
  2 41  1  0
  2 42  1  0
  1 43  1  0
  1 44  1  0
  1 45  1  0
 37  9  1  0
 17 12  1  0
 29 24  1  0
M  END
>  <cnnaffinity>  (1) 
-6.16403

>  <filename>  (1) 
CCCC(C)c1nc(Cn2ncc(Br)c2C)n(-c2cccnc2)n1

$$$$
