
     RDKit          3D

 38 40  0  0  0  0  0  0  0  0999 V2000
    6.6743   -4.7252   22.6627 C   0  0  0  0  0  0  0  0  0  0  0  0
    8.0123   -4.3382   23.2968 C   0  0  0  0  0  0  0  0  0  0  0  0
    8.8573   -3.5427   22.2867 C   0  0  0  0  0  0  0  0  0  0  0  0
    8.3157   -2.2001   21.9714 C   0  0  0  0  0  0  0  0  0  0  0  0
    7.7523   -1.9402   20.8117 N   0  0  0  0  0  0  0  0  0  0  0  0
    7.3676   -0.6499   20.9463 N   0  0  0  0  0  0  0  0  0  0  0  0
    6.6447   -0.0002   19.9104 C   0  0  0  0  0  0  0  0  0  0  0  0
    5.4337    0.6536   20.1612 C   0  0  0  0  0  0  0  0  0  0  0  0
    4.8068    1.3073   19.0959 C   0  0  0  0  0  0  0  0  0  0  0  0
    5.4124    1.2864   17.8366 C   0  0  0  0  0  0  0  0  0  0  0  0
    6.5691    0.6462   17.5895 N   0  0  0  0  0  0  0  0  0  0  0  0
    7.1642    0.0150   18.6061 C   0  0  0  0  0  0  0  0  0  0  0  0
    8.1088   -0.4779   18.3854 H   0  0  0  0  0  0  0  0  0  0  0  0
    4.9618    1.8000   16.9902 H   0  0  0  0  0  0  0  0  0  0  0  0
    3.8750    1.8438   19.2384 H   0  0  0  0  0  0  0  0  0  0  0  0
    4.9972    0.6466   21.1604 H   0  0  0  0  0  0  0  0  0  0  0  0
    7.7813   -0.1923   22.1587 C   0  0  0  0  0  0  0  0  0  0  0  0
    7.7317    1.2320   22.5667 C   0  0  0  0  0  0  0  0  0  0  0  0
    8.7562    2.1139   21.7999 C   0  0  0  0  0  0  0  0  0  0  0  0
    8.6890    3.5457   22.2150 C   0  0  0  0  0  0  0  0  0  0  0  0
    7.9300    4.4728   21.7044 N   0  0  0  0  0  0  0  0  0  0  0  0
    8.0934    5.6161   22.4477 N   0  0  0  0  0  0  0  0  0  0  0  0
    8.9373    5.3391   23.3950 C   0  0  0  0  0  0  0  0  0  0  0  0
    9.3490    4.0453   23.3000 N   0  0  0  0  0  0  0  0  0  0  0  0
    9.9664    3.5365   23.9057 H   0  0  0  0  0  0  0  0  0  0  0  0
    9.2650    6.0351   24.1518 H   0  0  0  0  0  0  0  0  0  0  0  0
    8.5602    2.0542   20.7250 H   0  0  0  0  0  0  0  0  0  0  0  0
    9.7717    1.7250   21.9537 H   0  0  0  0  0  0  0  0  0  0  0  0
    7.9134    1.2323   23.6444 H   0  0  0  0  0  0  0  0  0  0  0  0
    6.7145    1.5947   22.3948 H   0  0  0  0  0  0  0  0  0  0  0  0
    8.3668   -1.1572   22.8375 N   0  0  0  0  0  0  0  0  0  0  0  0
    9.8859   -3.4023   22.6337 H   0  0  0  0  0  0  0  0  0  0  0  0
    8.8570   -4.0622   21.3248 H   0  0  0  0  0  0  0  0  0  0  0  0
    7.8638   -3.7630   24.2260 H   0  0  0  0  0  0  0  0  0  0  0  0
    8.5806   -5.2313   23.5872 H   0  0  0  0  0  0  0  0  0  0  0  0
    6.0990   -3.8392   22.3630 H   0  0  0  0  0  0  0  0  0  0  0  0
    6.0568   -5.3286   23.3361 H   0  0  0  0  0  0  0  0  0  0  0  0
    6.8457   -5.3137   21.7510 H   0  0  0  0  0  0  0  0  0  0  0  0
  1  2  1  0
  2  3  1  0
  3  4  1  0
  4  5  2  0
  5  6  1  0
  6  7  1  0
  7  8  2  0
  8  9  1  0
  9 10  2  0
 10 11  1  0
 11 12  2  0
 12 13  1  0
 10 14  1  0
  9 15  1  0
  8 16  1  0
  6 17  1  0
 17 18  1  0
 18 19  1  0
 19 20  1  0
 20 21  2  0
 21 22  1  0
 22 23  2  0
 23 24  1  0
 24 25  1  0
 23 26  1  0
 19 27  1  0
 19 28  1  0
 18 29  1  0
 18 30  1  0
 17 31  2  0
  3 32  1  0
  3 33  1  0
  2 34  1  0
  2 35  1  0
  1 36  1  0
  1 37  1  0
  1 38  1  0
 31  4  1  0
 12  7  1  0
 24 20  1  0
M  END
>  <cnnaffinity>  (1) 
-5.6549

>  <filename>  (1) 
CCCc1nc(CCc2nnc[nH]2)n(-c2cccnc2)n1

$$$$
