
     RDKit          3D

 49 51  0  0  0  0  0  0  0  0999 V2000
    7.1856   -0.5700   26.7191 C   0  0  0  0  0  0  0  0  0  0  0  0
    6.8713   -1.1688   25.3485 C   0  0  0  0  0  0  0  0  0  0  0  0
    7.6678   -2.4396   25.0538 C   0  0  0  0  0  0  0  0  0  0  0  0
    7.3239   -3.0815   23.6896 C   0  0  0  0  0  0  0  0  0  0  0  0
    8.1532   -4.3668   23.4876 C   0  0  0  0  0  0  0  0  0  0  0  0
    7.9643   -5.0674   24.3091 H   0  0  0  0  0  0  0  0  0  0  0  0
    9.2282   -4.1482   23.4822 H   0  0  0  0  0  0  0  0  0  0  0  0
    7.9117   -4.8748   22.5481 H   0  0  0  0  0  0  0  0  0  0  0  0
    7.5172   -2.0941   22.5710 C   0  0  0  0  0  0  0  0  0  0  0  0
    6.5785   -1.6805   21.7418 N   0  0  0  0  0  0  0  0  0  0  0  0
    7.2452   -0.8055   20.9379 N   0  0  0  0  0  0  0  0  0  0  0  0
    6.5866   -0.1173   19.8873 C   0  0  0  0  0  0  0  0  0  0  0  0
    5.4075    0.5858   20.1460 C   0  0  0  0  0  0  0  0  0  0  0  0
    4.8281    1.3044   19.0967 C   0  0  0  0  0  0  0  0  0  0  0  0
    5.4360    1.2766   17.8341 C   0  0  0  0  0  0  0  0  0  0  0  0
    6.5518    0.5793   17.5722 N   0  0  0  0  0  0  0  0  0  0  0  0
    7.1099   -0.0993   18.5812 C   0  0  0  0  0  0  0  0  0  0  0  0
    8.0256   -0.6406   18.3493 H   0  0  0  0  0  0  0  0  0  0  0  0
    5.0095    1.8329   17.0015 H   0  0  0  0  0  0  0  0  0  0  0  0
    3.9170    1.8751   19.2449 H   0  0  0  0  0  0  0  0  0  0  0  0
    4.9816    0.5520   21.1503 H   0  0  0  0  0  0  0  0  0  0  0  0
    8.5304   -0.6986   21.3699 C   0  0  0  0  0  0  0  0  0  0  0  0
    9.5844    0.2180   20.8217 C   0  0  0  0  0  0  0  0  0  0  0  0
   10.3575    0.9634   21.9006 C   0  0  0  0  0  0  0  0  0  0  0  0
    9.8851    2.1510   22.4749 C   0  0  0  0  0  0  0  0  0  0  0  0
    8.5493    2.7165   22.0818 C   0  0  0  0  0  0  0  0  0  0  0  0
    8.2536    3.5369   22.7371 H   0  0  0  0  0  0  0  0  0  0  0  0
    8.5841    3.0925   21.0578 H   0  0  0  0  0  0  0  0  0  0  0  0
    7.7750    1.9431   22.1182 H   0  0  0  0  0  0  0  0  0  0  0  0
   10.5715    2.7995   23.4142 N   0  0  0  0  0  0  0  0  0  0  0  0
   11.6907    2.2223   23.8409 C   0  0  0  0  0  0  0  0  0  0  0  0
   12.1781    1.0476   23.4549 N   0  0  0  0  0  0  0  0  0  0  0  0
   11.4843    0.3934   22.5164 C   0  0  0  0  0  0  0  0  0  0  0  0
   11.9874   -0.9721   22.1374 C   0  0  0  0  0  0  0  0  0  0  0  0
   12.0728   -1.0968   21.0541 H   0  0  0  0  0  0  0  0  0  0  0  0
   11.2993   -1.7428   22.4998 H   0  0  0  0  0  0  0  0  0  0  0  0
   12.9768   -1.1418   22.5619 H   0  0  0  0  0  0  0  0  0  0  0  0
   12.2424    2.7569   24.6039 H   0  0  0  0  0  0  0  0  0  0  0  0
    9.1328    0.9110   20.1080 H   0  0  0  0  0  0  0  0  0  0  0  0
   10.2449   -0.4357   20.2455 H   0  0  0  0  0  0  0  0  0  0  0  0
    8.7350   -1.5394   22.3641 N   0  0  0  0  0  0  0  0  0  0  0  0
    6.2580   -3.3355   23.6613 H   0  0  0  0  0  0  0  0  0  0  0  0
    7.4987   -3.1910   25.8380 H   0  0  0  0  0  0  0  0  0  0  0  0
    8.7436   -2.2095   25.0817 H   0  0  0  0  0  0  0  0  0  0  0  0
    7.0769   -0.4299   24.5595 H   0  0  0  0  0  0  0  0  0  0  0  0
    5.8016   -1.4068   25.2732 H   0  0  0  0  0  0  0  0  0  0  0  0
    6.9840   -1.2912   27.5205 H   0  0  0  0  0  0  0  0  0  0  0  0
    6.5841    0.3237   26.9146 H   0  0  0  0  0  0  0  0  0  0  0  0
    8.2409   -0.2790   26.7872 H   0  0  0  0  0  0  0  0  0  0  0  0
  1  2  1  0
  2  3  1  0
  3  4  1  0
  4  5  1  0
  5  6  1  0
  5  7  1  0
  5  8  1  0
  4  9  1  0
  9 10  2  0
 10 11  1  0
 11 12  1  0
 12 13  2  0
 13 14  1  0
 14 15  2  0
 15 16  1  0
 16 17  2  0
 17 18  1  0
 15 19  1  0
 14 20  1  0
 13 21  1  0
 11 22  1  0
 22 23  1  0
 23 24  1  0
 24 25  2  0
 25 26  1  0
 26 27  1  0
 26 28  1  0
 26 29  1  0
 25 30  1  0
 30 31  2  0
 31 32  1  0
 32 33  2  0
 33 34  1  0
 34 35  1  0
 34 36  1  0
 34 37  1  0
 31 38  1  0
 23 39  1  0
 23 40  1  0
 22 41  2  0
  4 42  1  0
  3 43  1  0
  3 44  1  0
  2 45  1  0
  2 46  1  0
  1 47  1  0
  1 48  1  0
  1 49  1  0
 41  9  1  0
 17 12  1  0
 33 24  1  0
M  END
>  <cnnaffinity>  (1) 
-6.47329

>  <filename>  (1) 
CCCC(C)c1nc(Cc2c(C)ncnc2C)n(-c2cccnc2)n1

$$$$
