
     RDKit          3D

 40 41  0  0  0  0  0  0  0  0999 V2000
    5.0683    1.7977   16.9146 H   0  0  0  0  0  0  0  0  0  0  0  0
    5.4777    1.2793   17.7788 C   0  0  0  0  0  0  0  0  0  0  0  0
    6.6279    0.6193   17.5801 N   0  0  0  0  0  0  0  0  0  0  0  0
    7.1597   -0.0168   18.6267 C   0  0  0  0  0  0  0  0  0  0  0  0
    8.0938   -0.5443   18.4503 H   0  0  0  0  0  0  0  0  0  0  0  0
    6.5922   -0.0221   19.9080 C   0  0  0  0  0  0  0  0  0  0  0  0
    7.3880   -0.7406   20.9503 C   0  0  0  0  0  0  0  0  0  0  0  0
    8.2586   -1.5397   20.6506 O   0  0  0  0  0  0  0  0  0  0  0  0
    7.1181   -0.4338   22.2601 N   0  0  0  0  0  0  0  0  0  0  0  0
    6.8402    0.9042   22.8106 C   0  0  0  0  0  0  0  0  0  0  0  0
    7.3052    1.7142   22.2265 H   0  0  0  0  0  0  0  0  0  0  0  0
    5.7783    1.1349   22.9504 H   0  0  0  0  0  0  0  0  0  0  0  0
    7.6138    0.5170   24.0863 C   0  0  0  0  0  0  0  0  0  0  0  0
    6.9147    0.3175   24.9081 H   0  0  0  0  0  0  0  0  0  0  0  0
    8.7012    1.4900   24.5259 C   0  0  0  0  0  0  0  0  0  0  0  0
    9.2461    1.0759   25.3851 H   0  0  0  0  0  0  0  0  0  0  0  0
    9.4454    1.6015   23.7252 H   0  0  0  0  0  0  0  0  0  0  0  0
    8.1260    2.8725   24.8563 C   0  0  0  0  0  0  0  0  0  0  0  0
    7.6763    3.3067   23.9529 H   0  0  0  0  0  0  0  0  0  0  0  0
    7.3038    2.7405   25.5733 H   0  0  0  0  0  0  0  0  0  0  0  0
    9.1389    3.8747   25.4246 C   0  0  0  0  0  0  0  0  0  0  0  0
    8.6209    4.8012   25.7045 H   0  0  0  0  0  0  0  0  0  0  0  0
    9.5138    3.4592   26.3680 H   0  0  0  0  0  0  0  0  0  0  0  0
   10.3210    4.2405   24.5132 C   0  0  0  0  0  0  0  0  0  0  0  0
   11.0511    4.8116   25.1082 H   0  0  0  0  0  0  0  0  0  0  0  0
   10.8281    3.3185   24.1960 H   0  0  0  0  0  0  0  0  0  0  0  0
   10.0077    5.0745   23.2638 C   0  0  0  0  0  0  0  0  0  0  0  0
    9.3666    4.5132   22.5666 H   0  0  0  0  0  0  0  0  0  0  0  0
    9.4473    5.9787   23.5509 H   0  0  0  0  0  0  0  0  0  0  0  0
   11.3009    5.4689   22.5435 C   0  0  0  0  0  0  0  0  0  0  0  0
   11.9821    6.0083   23.2119 H   0  0  0  0  0  0  0  0  0  0  0  0
   11.1028    6.1114   21.6831 H   0  0  0  0  0  0  0  0  0  0  0  0
   11.8473    4.5902   22.1763 H   0  0  0  0  0  0  0  0  0  0  0  0
    8.0123   -0.7980   23.3748 C   0  0  0  0  0  0  0  0  0  0  0  0
    9.0632   -0.8643   23.0654 H   0  0  0  0  0  0  0  0  0  0  0  0
    7.7478   -1.7454   23.8573 H   0  0  0  0  0  0  0  0  0  0  0  0
    5.3741    0.6523   20.0978 C   0  0  0  0  0  0  0  0  0  0  0  0
    4.8702    0.6773   21.0667 H   0  0  0  0  0  0  0  0  0  0  0  0
    4.8154    1.3166   19.0104 C   0  0  0  0  0  0  0  0  0  0  0  0
    3.8905    1.8750   19.1067 H   0  0  0  0  0  0  0  0  0  0  0  0
  1  2  1  0
  2  3  2  0
  3  4  1  0
  4  5  1  0
  4  6  2  0
  6  7  1  0
  7  8  2  0
  7  9  1  0
  9 10  1  0
 10 11  1  0
 10 12  1  0
 10 13  1  0
 13 14  1  0
 13 15  1  0
 15 16  1  0
 15 17  1  0
 15 18  1  0
 18 19  1  0
 18 20  1  0
 18 21  1  0
 21 22  1  0
 21 23  1  0
 21 24  1  0
 24 25  1  0
 24 26  1  0
 24 27  1  0
 27 28  1  0
 27 29  1  0
 27 30  1  0
 30 31  1  0
 30 32  1  0
 30 33  1  0
 13 34  1  0
 34 35  1  0
 34 36  1  0
  6 37  1  0
 37 38  1  0
 37 39  2  0
 39 40  1  0
 39  2  1  0
 34  9  1  0
M  END
>  <cnnaffinity>  (1) 
-4.82599

>  <filename>  (1) 
CCCCCCC1CN(C(=O)c2cccnc2)C1

$$$$
