
     RDKit          3D

 42 44  0  0  0  0  0  0  0  0999 V2000
    8.4676   -5.7597   23.3985 C   0  0  0  0  0  0  0  0  0  0  0  0
    7.8399   -4.4045   23.0905 C   0  0  0  0  0  0  0  0  0  0  0  0
    8.7811   -3.5282   22.2546 C   0  0  0  0  0  0  0  0  0  0  0  0
    8.2876   -2.1649   21.9631 C   0  0  0  0  0  0  0  0  0  0  0  0
    7.7530   -1.8731   20.7985 N   0  0  0  0  0  0  0  0  0  0  0  0
    7.3737   -0.5841   20.9542 N   0  0  0  0  0  0  0  0  0  0  0  0
    6.6535    0.0665   19.9168 C   0  0  0  0  0  0  0  0  0  0  0  0
    5.4351    0.7134   20.1523 C   0  0  0  0  0  0  0  0  0  0  0  0
    4.8130    1.3433   19.0696 C   0  0  0  0  0  0  0  0  0  0  0  0
    5.4239    1.3015   17.8122 C   0  0  0  0  0  0  0  0  0  0  0  0
    6.5763    0.6478   17.5758 N   0  0  0  0  0  0  0  0  0  0  0  0
    7.1618    0.0306   18.6062 C   0  0  0  0  0  0  0  0  0  0  0  0
    8.0796   -0.5168   18.4008 H   0  0  0  0  0  0  0  0  0  0  0  0
    4.9677    1.7965   16.9583 H   0  0  0  0  0  0  0  0  0  0  0  0
    3.8704    1.8644   19.1970 H   0  0  0  0  0  0  0  0  0  0  0  0
    4.9787    0.6930   21.1437 H   0  0  0  0  0  0  0  0  0  0  0  0
    7.7493   -0.1592   22.1973 C   0  0  0  0  0  0  0  0  0  0  0  0
    7.6796    1.2628   22.6309 C   0  0  0  0  0  0  0  0  0  0  0  0
    8.6361    2.1899   21.8382 C   0  0  0  0  0  0  0  0  0  0  0  0
    8.4436    3.6205   22.2311 C   0  0  0  0  0  0  0  0  0  0  0  0
    7.4449    4.4212   21.7365 C   0  0  0  0  0  0  0  0  0  0  0  0
    7.3907    5.8050   22.0707 C   0  0  0  0  0  0  0  0  0  0  0  0
    8.2877    6.3385   22.9514 C   0  0  0  0  0  0  0  0  0  0  0  0
    9.2480    5.4733   23.6341 C   0  0  0  0  0  0  0  0  0  0  0  0
   10.0202    5.8135   24.5124 O   0  0  0  0  0  0  0  0  0  0  0  0
    9.2538    4.1416   23.2134 N   0  0  0  0  0  0  0  0  0  0  0  0
    9.9687    3.6119   23.6886 H   0  0  0  0  0  0  0  0  0  0  0  0
    8.3089    7.3820   23.2400 H   0  0  0  0  0  0  0  0  0  0  0  0
    6.6015    6.4127   21.6198 H   0  0  0  0  0  0  0  0  0  0  0  0
    6.6900    4.0027   21.0777 H   0  0  0  0  0  0  0  0  0  0  0  0
    9.6776    1.8765   21.9866 H   0  0  0  0  0  0  0  0  0  0  0  0
    8.4347    2.0795   20.7658 H   0  0  0  0  0  0  0  0  0  0  0  0
    7.9106    1.2923   23.6996 H   0  0  0  0  0  0  0  0  0  0  0  0
    6.6515    1.6191   22.5077 H   0  0  0  0  0  0  0  0  0  0  0  0
    8.3231   -1.1451   22.8563 N   0  0  0  0  0  0  0  0  0  0  0  0
    8.8963   -3.9772   21.2706 H   0  0  0  0  0  0  0  0  0  0  0  0
    9.7542   -3.4326   22.7477 H   0  0  0  0  0  0  0  0  0  0  0  0
    7.5830   -3.8868   24.0240 H   0  0  0  0  0  0  0  0  0  0  0  0
    6.9024   -4.5469   22.5368 H   0  0  0  0  0  0  0  0  0  0  0  0
    8.7786   -6.2787   22.4836 H   0  0  0  0  0  0  0  0  0  0  0  0
    9.3499   -5.6565   24.0411 H   0  0  0  0  0  0  0  0  0  0  0  0
    7.7568   -6.4032   23.9180 H   0  0  0  0  0  0  0  0  0  0  0  0
  1  2  1  0
  2  3  1  0
  3  4  1  0
  4  5  2  0
  5  6  1  0
  6  7  1  0
  7  8  2  0
  8  9  1  0
  9 10  2  0
 10 11  1  0
 11 12  2  0
 12 13  1  0
 10 14  1  0
  9 15  1  0
  8 16  1  0
  6 17  1  0
 17 18  1  0
 18 19  1  0
 19 20  1  0
 20 21  2  0
 21 22  1  0
 22 23  2  0
 23 24  1  0
 24 25  2  0
 24 26  1  0
 26 27  1  0
 23 28  1  0
 22 29  1  0
 21 30  1  0
 19 31  1  0
 19 32  1  0
 18 33  1  0
 18 34  1  0
 17 35  2  0
  3 36  1  0
  3 37  1  0
  2 38  1  0
  2 39  1  0
  1 40  1  0
  1 41  1  0
  1 42  1  0
 35  4  1  0
 12  7  1  0
 26 20  1  0
M  END
>  <cnnaffinity>  (1) 
-5.60318

>  <filename>  (1) 
CCCc1nc(CCc2cccc(=O)[nH]2)n(-c2cccnc2)n1

$$$$
