
     RDKit          3D

 48 51  0  0  0  0  0  0  0  0999 V2000
    8.3836   -0.4349   25.8457 C   0  0  0  0  0  0  0  0  0  0  0  0
    6.9930   -0.6304   25.2378 C   0  0  0  0  0  0  0  0  0  0  0  0
    6.5712   -2.0771   24.9135 C   0  0  0  0  0  0  0  0  0  0  0  0
    7.3770   -2.8500   23.8205 C   0  0  0  0  0  0  0  0  0  0  0  0
    8.6563   -3.5113   24.3604 C   0  0  0  0  0  0  0  0  0  0  0  0
    9.3722   -2.7710   24.7339 H   0  0  0  0  0  0  0  0  0  0  0  0
    8.4218   -4.1947   25.1833 H   0  0  0  0  0  0  0  0  0  0  0  0
    9.1621   -4.0874   23.5781 H   0  0  0  0  0  0  0  0  0  0  0  0
    7.6711   -1.9578   22.6403 C   0  0  0  0  0  0  0  0  0  0  0  0
    6.7661   -1.6198   21.7447 N   0  0  0  0  0  0  0  0  0  0  0  0
    7.4082   -0.6724   20.9970 N   0  0  0  0  0  0  0  0  0  0  0  0
    6.7025   -0.0407   19.9258 C   0  0  0  0  0  0  0  0  0  0  0  0
    5.4683    0.5766   20.1713 C   0  0  0  0  0  0  0  0  0  0  0  0
    4.8472    1.2519   19.1184 C   0  0  0  0  0  0  0  0  0  0  0  0
    5.4552    1.2579   17.8577 C   0  0  0  0  0  0  0  0  0  0  0  0
    6.6112    0.6263   17.6034 N   0  0  0  0  0  0  0  0  0  0  0  0
    7.2116   -0.0141   18.6157 C   0  0  0  0  0  0  0  0  0  0  0  0
    8.1325   -0.5421   18.3709 H   0  0  0  0  0  0  0  0  0  0  0  0
    4.9900    1.7675   17.0166 H   0  0  0  0  0  0  0  0  0  0  0  0
    3.9010    1.7591   19.2632 H   0  0  0  0  0  0  0  0  0  0  0  0
    5.0311    0.5205   21.1700 H   0  0  0  0  0  0  0  0  0  0  0  0
    8.6448   -0.4548   21.5461 C   0  0  0  0  0  0  0  0  0  0  0  0
    9.5095    0.7473   21.3401 C   0  0  0  0  0  0  0  0  0  0  0  0
    8.9073    1.9367   22.0684 C   0  0  0  0  0  0  0  0  0  0  0  0
    9.1859    2.2556   23.4076 C   0  0  0  0  0  0  0  0  0  0  0  0
    8.6449    3.4187   23.9998 C   0  0  0  0  0  0  0  0  0  0  0  0
    7.8381    4.2177   23.2058 C   0  0  0  0  0  0  0  0  0  0  0  0
    7.2938    5.4480   23.4923 O   0  0  0  0  0  0  0  0  0  0  0  0
    6.6582    5.9113   22.3546 C   0  0  0  0  0  0  0  0  0  0  0  0
    6.1918    7.0083   22.2339 O   0  0  0  0  0  0  0  0  0  0  0  0
    6.6976    4.8887   21.4406 N   0  0  0  0  0  0  0  0  0  0  0  0
    7.4838    3.8477   21.9092 C   0  0  0  0  0  0  0  0  0  0  0  0
    7.9835    2.6880   21.3463 C   0  0  0  0  0  0  0  0  0  0  0  0
    7.7236    2.3331   20.3603 H   0  0  0  0  0  0  0  0  0  0  0  0
    6.3859    5.0567   20.5035 H   0  0  0  0  0  0  0  0  0  0  0  0
    8.8320    3.6990   25.0297 H   0  0  0  0  0  0  0  0  0  0  0  0
    9.8270    1.5916   23.9918 H   0  0  0  0  0  0  0  0  0  0  0  0
   10.5155    0.5432   21.7173 H   0  0  0  0  0  0  0  0  0  0  0  0
    9.5926    0.9559   20.2699 H   0  0  0  0  0  0  0  0  0  0  0  0
    8.8586   -1.3055   22.5236 N   0  0  0  0  0  0  0  0  0  0  0  0
    6.7158   -3.6404   23.4447 H   0  0  0  0  0  0  0  0  0  0  0  0
    6.5886   -2.6742   25.8370 H   0  0  0  0  0  0  0  0  0  0  0  0
    5.5227   -2.0447   24.5916 H   0  0  0  0  0  0  0  0  0  0  0  0
    6.9078   -0.0121   24.3322 H   0  0  0  0  0  0  0  0  0  0  0  0
    6.2495   -0.2346   25.9407 H   0  0  0  0  0  0  0  0  0  0  0  0
    8.4949    0.5887   26.2256 H   0  0  0  0  0  0  0  0  0  0  0  0
    8.5592   -1.1161   26.6887 H   0  0  0  0  0  0  0  0  0  0  0  0
    9.1693   -0.5977   25.1016 H   0  0  0  0  0  0  0  0  0  0  0  0
  1  2  1  0
  2  3  1  0
  3  4  1  0
  4  5  1  0
  5  6  1  0
  5  7  1  0
  5  8  1  0
  4  9  1  0
  9 10  2  0
 10 11  1  0
 11 12  1  0
 12 13  2  0
 13 14  1  0
 14 15  2  0
 15 16  1  0
 16 17  2  0
 17 18  1  0
 15 19  1  0
 14 20  1  0
 13 21  1  0
 11 22  1  0
 22 23  1  0
 23 24  1  0
 24 25  2  0
 25 26  1  0
 26 27  2  0
 27 28  1  0
 28 29  1  0
 29 30  2  0
 29 31  1  0
 31 32  1  0
 32 33  2  0
 33 34  1  0
 31 35  1  0
 26 36  1  0
 25 37  1  0
 23 38  1  0
 23 39  1  0
 22 40  2  0
  4 41  1  0
  3 42  1  0
  3 43  1  0
  2 44  1  0
  2 45  1  0
  1 46  1  0
  1 47  1  0
  1 48  1  0
 40  9  1  0
 17 12  1  0
 33 24  1  0
 32 27  1  0
M  END
>  <cnnaffinity>  (1) 
-6.03281

>  <filename>  (1) 
CCCC(C)c1nc(Cc2ccc3oc(=O)[nH]c3c2)n(-c2cccnc2)n1

$$$$
