
     RDKit          3D

 38 39  0  0  0  0  0  0  0  0999 V2000
    4.9214    1.7746   16.9994 H   0  0  0  0  0  0  0  0  0  0  0  0
    5.4070    1.2884   17.8426 C   0  0  0  0  0  0  0  0  0  0  0  0
    6.5700    0.6715   17.5907 N   0  0  0  0  0  0  0  0  0  0  0  0
    7.1722    0.0600   18.6140 C   0  0  0  0  0  0  0  0  0  0  0  0
    8.1141   -0.4282   18.3678 H   0  0  0  0  0  0  0  0  0  0  0  0
    6.6530    0.0073   19.9145 C   0  0  0  0  0  0  0  0  0  0  0  0
    7.3795   -0.7077   20.9763 C   0  0  0  0  0  0  0  0  0  0  0  0
    6.6900   -1.1150   22.1003 N   0  0  0  0  0  0  0  0  0  0  0  0
    7.4700   -1.7021   22.9482 C   0  0  0  0  0  0  0  0  0  0  0  0
    7.0271   -2.3240   24.2437 C   0  0  0  0  0  0  0  0  0  0  0  0
    7.7586   -2.0988   25.0248 H   0  0  0  0  0  0  0  0  0  0  0  0
    6.0869   -1.8477   24.5407 H   0  0  0  0  0  0  0  0  0  0  0  0
    6.8263   -3.8452   24.1418 C   0  0  0  0  0  0  0  0  0  0  0  0
    6.6603   -4.2429   25.1512 H   0  0  0  0  0  0  0  0  0  0  0  0
    7.7519   -4.3124   23.7866 H   0  0  0  0  0  0  0  0  0  0  0  0
    5.6711   -4.2378   23.2206 C   0  0  0  0  0  0  0  0  0  0  0  0
    5.7953   -3.7471   22.2474 H   0  0  0  0  0  0  0  0  0  0  0  0
    4.7344   -3.8364   23.6300 H   0  0  0  0  0  0  0  0  0  0  0  0
    5.5424   -5.7476   23.0022 C   0  0  0  0  0  0  0  0  0  0  0  0
    6.4643   -6.1122   22.5282 H   0  0  0  0  0  0  0  0  0  0  0  0
    4.7370   -5.9363   22.2794 H   0  0  0  0  0  0  0  0  0  0  0  0
    5.2645   -6.5736   24.2604 C   0  0  0  0  0  0  0  0  0  0  0  0
    5.2421   -7.6357   23.9807 H   0  0  0  0  0  0  0  0  0  0  0  0
    6.0920   -6.4617   24.9739 H   0  0  0  0  0  0  0  0  0  0  0  0
    3.9591   -6.2250   24.9690 C   0  0  0  0  0  0  0  0  0  0  0  0
    3.1419   -6.2304   24.2384 H   0  0  0  0  0  0  0  0  0  0  0  0
    4.0077   -5.2020   25.3608 H   0  0  0  0  0  0  0  0  0  0  0  0
    3.6365   -7.1837   26.1065 C   0  0  0  0  0  0  0  0  0  0  0  0
    3.5366   -8.2104   25.7368 H   0  0  0  0  0  0  0  0  0  0  0  0
    2.7009   -6.9110   26.6035 H   0  0  0  0  0  0  0  0  0  0  0  0
    4.4326   -7.1792   26.8596 H   0  0  0  0  0  0  0  0  0  0  0  0
    9.1313   -1.8084   22.4319 S   0  0  0  0  0  0  0  0  0  0  0  0
    8.7090   -0.9982   20.9768 C   0  0  0  0  0  0  0  0  0  0  0  0
    9.4380   -0.7379   20.2261 H   0  0  0  0  0  0  0  0  0  0  0  0
    5.4325    0.6547   20.1609 C   0  0  0  0  0  0  0  0  0  0  0  0
    5.0023    0.6297   21.1660 H   0  0  0  0  0  0  0  0  0  0  0  0
    4.8064    1.3118   19.1075 C   0  0  0  0  0  0  0  0  0  0  0  0
    3.8738    1.8440   19.2591 H   0  0  0  0  0  0  0  0  0  0  0  0
  1  2  1  0
  2  3  2  0
  3  4  1  0
  4  5  1  0
  4  6  2  0
  6  7  1  0
  7  8  1  0
  8  9  2  0
  9 10  1  0
 10 11  1  0
 10 12  1  0
 10 13  1  0
 13 14  1  0
 13 15  1  0
 13 16  1  0
 16 17  1  0
 16 18  1  0
 16 19  1  0
 19 20  1  0
 19 21  1  0
 19 22  1  0
 22 23  1  0
 22 24  1  0
 22 25  1  0
 25 26  1  0
 25 27  1  0
 25 28  1  0
 28 29  1  0
 28 30  1  0
 28 31  1  0
  9 32  1  0
 32 33  1  0
 33 34  1  0
  6 35  1  0
 35 36  1  0
 35 37  2  0
 37 38  1  0
 37  2  1  0
 33  7  2  0
M  END
>  <cnnaffinity>  (1) 
-5.36342

>  <filename>  (1) 
CCCCCCCc1nc(-c2cccnc2)cs1

$$$$
