
     RDKit          3D

 39 41  0  0  0  0  0  0  0  0999 V2000
    7.2122   -4.1687   24.1290 C   0  0  0  0  0  0  0  0  0  0  0  0
    7.8008   -4.5524   22.7726 C   0  0  0  0  0  0  0  0  0  0  0  0
    8.7756   -3.5111   22.2012 C   0  0  0  0  0  0  0  0  0  0  0  0
    8.1961   -2.1571   22.0021 C   0  0  0  0  0  0  0  0  0  0  0  0
    7.6862   -1.8541   20.8273 N   0  0  0  0  0  0  0  0  0  0  0  0
    7.3410   -0.5578   20.9718 N   0  0  0  0  0  0  0  0  0  0  0  0
    6.6426    0.0812   19.9209 C   0  0  0  0  0  0  0  0  0  0  0  0
    5.4128    0.7023   20.1508 C   0  0  0  0  0  0  0  0  0  0  0  0
    4.7937    1.3243   19.0642 C   0  0  0  0  0  0  0  0  0  0  0  0
    5.4253    1.2892   17.8168 C   0  0  0  0  0  0  0  0  0  0  0  0
    6.5762    0.6290   17.5825 N   0  0  0  0  0  0  0  0  0  0  0  0
    7.1615    0.0194   18.6169 C   0  0  0  0  0  0  0  0  0  0  0  0
    8.0784   -0.5386   18.4197 H   0  0  0  0  0  0  0  0  0  0  0  0
    4.9948    1.8150   16.9697 H   0  0  0  0  0  0  0  0  0  0  0  0
    3.8543    1.8515   19.1938 H   0  0  0  0  0  0  0  0  0  0  0  0
    4.9540    0.6577   21.1406 H   0  0  0  0  0  0  0  0  0  0  0  0
    7.6998   -0.1322   22.2140 C   0  0  0  0  0  0  0  0  0  0  0  0
    7.6975    1.3063   22.6104 C   0  0  0  0  0  0  0  0  0  0  0  0
    8.7060    2.1863   21.8117 C   0  0  0  0  0  0  0  0  0  0  0  0
    8.6653    3.6174   22.2187 C   0  0  0  0  0  0  0  0  0  0  0  0
    9.4042    4.1835   23.1397 N   0  0  0  0  0  0  0  0  0  0  0  0
    8.9267    5.4642   23.2584 C   0  0  0  0  0  0  0  0  0  0  0  0
    7.8899    5.6817   22.3969 C   0  0  0  0  0  0  0  0  0  0  0  0
    7.7297    4.4814   21.7445 N   0  0  0  0  0  0  0  0  0  0  0  0
    7.0794    4.2579   21.0114 H   0  0  0  0  0  0  0  0  0  0  0  0
    7.2717    6.5402   22.1724 H   0  0  0  0  0  0  0  0  0  0  0  0
    9.3444    6.1475   23.9834 H   0  0  0  0  0  0  0  0  0  0  0  0
    9.7339    1.8477   21.9771 H   0  0  0  0  0  0  0  0  0  0  0  0
    8.5016    2.1269   20.7381 H   0  0  0  0  0  0  0  0  0  0  0  0
    7.9170    1.3691   23.6800 H   0  0  0  0  0  0  0  0  0  0  0  0
    6.6843    1.6940   22.4716 H   0  0  0  0  0  0  0  0  0  0  0  0
    8.2201   -1.1383   22.8981 N   0  0  0  0  0  0  0  0  0  0  0  0
    9.6927   -3.4257   22.7942 H   0  0  0  0  0  0  0  0  0  0  0  0
    9.0565   -3.7921   21.1875 H   0  0  0  0  0  0  0  0  0  0  0  0
    6.9846   -4.7130   22.0562 H   0  0  0  0  0  0  0  0  0  0  0  0
    8.3307   -5.5097   22.8338 H   0  0  0  0  0  0  0  0  0  0  0  0
    7.9877   -4.1000   24.9003 H   0  0  0  0  0  0  0  0  0  0  0  0
    6.7057   -3.1970   24.0817 H   0  0  0  0  0  0  0  0  0  0  0  0
    6.4770   -4.9068   24.4647 H   0  0  0  0  0  0  0  0  0  0  0  0
  1  2  1  0
  2  3  1  0
  3  4  1  0
  4  5  2  0
  5  6  1  0
  6  7  1  0
  7  8  2  0
  8  9  1  0
  9 10  2  0
 10 11  1  0
 11 12  2  0
 12 13  1  0
 10 14  1  0
  9 15  1  0
  8 16  1  0
  6 17  1  0
 17 18  1  0
 18 19  1  0
 19 20  1  0
 20 21  2  0
 21 22  1  0
 22 23  2  0
 23 24  1  0
 24 25  1  0
 23 26  1  0
 22 27  1  0
 19 28  1  0
 19 29  1  0
 18 30  1  0
 18 31  1  0
 17 32  2  0
  3 33  1  0
  3 34  1  0
  2 35  1  0
  2 36  1  0
  1 37  1  0
  1 38  1  0
  1 39  1  0
 32  4  1  0
 12  7  1  0
 24 20  1  0
M  END
>  <cnnaffinity>  (1) 
-5.66166

>  <filename>  (1) 
CCCc1nc(CCc2ncc[nH]2)n(-c2cccnc2)n1

$$$$
