
     RDKit          3D

 44 45  0  0  0  0  0  0  0  0999 V2000
    4.9918    1.7865   16.9870 H   0  0  0  0  0  0  0  0  0  0  0  0
    5.4339    1.2835   17.8431 C   0  0  0  0  0  0  0  0  0  0  0  0
    6.5910    0.6424   17.6141 N   0  0  0  0  0  0  0  0  0  0  0  0
    7.1624    0.0288   18.6513 C   0  0  0  0  0  0  0  0  0  0  0  0
    8.1063   -0.4793   18.4479 H   0  0  0  0  0  0  0  0  0  0  0  0
    6.6169   -0.0033   19.9364 C   0  0  0  0  0  0  0  0  0  0  0  0
    7.3381   -0.7378   20.9931 C   0  0  0  0  0  0  0  0  0  0  0  0
    6.5939   -1.3171   21.8953 N   0  0  0  0  0  0  0  0  0  0  0  0
    7.2031   -1.9774   22.9187 C   0  0  0  0  0  0  0  0  0  0  0  0
    6.6420   -2.5404   23.8346 O   0  0  0  0  0  0  0  0  0  0  0  0
    8.5954   -2.0207   22.9329 N   0  0  0  0  0  0  0  0  0  0  0  0
    8.8644   -2.4709   23.7867 H   0  0  0  0  0  0  0  0  0  0  0  0
    9.4062   -1.4158   22.0228 C   0  0  0  0  0  0  0  0  0  0  0  0
   10.8871   -1.4395   22.2646 C   0  0  0  0  0  0  0  0  0  0  0  0
   11.1610   -2.4408   22.6143 H   0  0  0  0  0  0  0  0  0  0  0  0
   11.4039   -1.2988   21.3060 H   0  0  0  0  0  0  0  0  0  0  0  0
   11.3652   -0.3722   23.2750 C   0  0  0  0  0  0  0  0  0  0  0  0
   12.4416   -0.5011   23.4351 H   0  0  0  0  0  0  0  0  0  0  0  0
   10.8950   -0.5487   24.2537 H   0  0  0  0  0  0  0  0  0  0  0  0
   11.1259    1.0700   22.8296 C   0  0  0  0  0  0  0  0  0  0  0  0
   10.0536    1.2363   22.6615 H   0  0  0  0  0  0  0  0  0  0  0  0
   11.6166    1.2203   21.8555 H   0  0  0  0  0  0  0  0  0  0  0  0
   11.6476    2.1011   23.8337 C   0  0  0  0  0  0  0  0  0  0  0  0
   12.7003    1.8804   24.0599 H   0  0  0  0  0  0  0  0  0  0  0  0
   11.1137    1.9851   24.7893 H   0  0  0  0  0  0  0  0  0  0  0  0
   11.5524    3.5550   23.3469 C   0  0  0  0  0  0  0  0  0  0  0  0
   12.1831    3.6615   22.4541 H   0  0  0  0  0  0  0  0  0  0  0  0
   11.9918    4.2183   24.1051 H   0  0  0  0  0  0  0  0  0  0  0  0
   10.1481    4.0483   22.9637 C   0  0  0  0  0  0  0  0  0  0  0  0
    9.7940    3.4660   22.1033 H   0  0  0  0  0  0  0  0  0  0  0  0
   10.2251    5.0875   22.6064 H   0  0  0  0  0  0  0  0  0  0  0  0
    9.0711    3.9871   24.0562 C   0  0  0  0  0  0  0  0  0  0  0  0
    8.9670    2.9608   24.4386 H   0  0  0  0  0  0  0  0  0  0  0  0
    8.1029    4.2125   23.5927 H   0  0  0  0  0  0  0  0  0  0  0  0
    9.2975    4.9600   25.2139 C   0  0  0  0  0  0  0  0  0  0  0  0
    8.5342    4.8647   25.9917 H   0  0  0  0  0  0  0  0  0  0  0  0
    9.2628    6.0021   24.8752 H   0  0  0  0  0  0  0  0  0  0  0  0
   10.2621    4.8000   25.6956 H   0  0  0  0  0  0  0  0  0  0  0  0
    8.7650   -0.7663   21.0021 C   0  0  0  0  0  0  0  0  0  0  0  0
    9.3157   -0.2190   20.2500 H   0  0  0  0  0  0  0  0  0  0  0  0
    5.3955    0.6597   20.1624 C   0  0  0  0  0  0  0  0  0  0  0  0
    4.9374    0.6452   21.1551 H   0  0  0  0  0  0  0  0  0  0  0  0
    4.7995    1.3220   19.0913 C   0  0  0  0  0  0  0  0  0  0  0  0
    3.8634    1.8641   19.2134 H   0  0  0  0  0  0  0  0  0  0  0  0
  1  2  1  0
  2  3  2  0
  3  4  1  0
  4  5  1  0
  4  6  2  0
  6  7  1  0
  7  8  2  0
  8  9  1  0
  9 10  2  0
  9 11  1  0
 11 12  1  0
 11 13  1  0
 13 14  1  0
 14 15  1  0
 14 16  1  0
 14 17  1  0
 17 18  1  0
 17 19  1  0
 17 20  1  0
 20 21  1  0
 20 22  1  0
 20 23  1  0
 23 24  1  0
 23 25  1  0
 23 26  1  0
 26 27  1  0
 26 28  1  0
 26 29  1  0
 29 30  1  0
 29 31  1  0
 29 32  1  0
 32 33  1  0
 32 34  1  0
 32 35  1  0
 35 36  1  0
 35 37  1  0
 35 38  1  0
 13 39  2  0
 39 40  1  0
  6 41  1  0
 41 42  1  0
 41 43  2  0
 43 44  1  0
 43  2  1  0
 39  7  1  0
M  END
>  <cnnaffinity>  (1) 
-5.77883

>  <filename>  (1) 
CCCCCCCCc1cc(-c2cccnc2)nc(=O)[nH]1

$$$$
