
     RDKit          3D

 41 43  0  0  0  0  0  0  0  0999 V2000
    8.3612   -5.8727   23.1678 C   0  0  0  0  0  0  0  0  0  0  0  0
    7.7251   -4.5106   22.9071 C   0  0  0  0  0  0  0  0  0  0  0  0
    8.6965   -3.5471   22.2017 C   0  0  0  0  0  0  0  0  0  0  0  0
    8.1892   -2.1702   21.9609 C   0  0  0  0  0  0  0  0  0  0  0  0
    7.7334   -1.8396   20.7740 N   0  0  0  0  0  0  0  0  0  0  0  0
    7.3366   -0.5601   20.9418 N   0  0  0  0  0  0  0  0  0  0  0  0
    6.6286    0.0715   19.8915 C   0  0  0  0  0  0  0  0  0  0  0  0
    5.3994    0.6937   20.1218 C   0  0  0  0  0  0  0  0  0  0  0  0
    4.7814    1.3252   19.0397 C   0  0  0  0  0  0  0  0  0  0  0  0
    5.4117    1.2992   17.7911 C   0  0  0  0  0  0  0  0  0  0  0  0
    6.5561    0.6301   17.5527 N   0  0  0  0  0  0  0  0  0  0  0  0
    7.1391    0.0121   18.5841 C   0  0  0  0  0  0  0  0  0  0  0  0
    8.0472   -0.5563   18.3792 H   0  0  0  0  0  0  0  0  0  0  0  0
    4.9888    1.8423   16.9498 H   0  0  0  0  0  0  0  0  0  0  0  0
    3.8481    1.8611   19.1726 H   0  0  0  0  0  0  0  0  0  0  0  0
    4.9460    0.6594   21.1146 H   0  0  0  0  0  0  0  0  0  0  0  0
    7.6301   -0.1611   22.2169 C   0  0  0  0  0  0  0  0  0  0  0  0
    7.4233    1.2134   22.7900 C   0  0  0  0  0  0  0  0  0  0  0  0
    8.7003    1.7588   23.3989 C   0  0  0  0  0  0  0  0  0  0  0  0
    8.9539    1.6213   24.7616 C   0  0  0  0  0  0  0  0  0  0  0  0
   10.1871    2.0322   25.2679 C   0  0  0  0  0  0  0  0  0  0  0  0
   11.1516    2.5847   24.5218 N   0  0  0  0  0  0  0  0  0  0  0  0
   10.9066    2.6856   23.2120 C   0  0  0  0  0  0  0  0  0  0  0  0
    9.7298    2.2587   22.5824 C   0  0  0  0  0  0  0  0  0  0  0  0
    9.6211    2.2885   21.0868 C   0  0  0  0  0  0  0  0  0  0  0  0
    8.8400    2.9754   20.7505 H   0  0  0  0  0  0  0  0  0  0  0  0
    9.3740    1.2990   20.6870 H   0  0  0  0  0  0  0  0  0  0  0  0
   10.5579    2.6003   20.6196 H   0  0  0  0  0  0  0  0  0  0  0  0
   11.6996    3.1173   22.6019 H   0  0  0  0  0  0  0  0  0  0  0  0
   10.4139    1.9127   26.3183 H   0  0  0  0  0  0  0  0  0  0  0  0
    8.2232    1.1616   25.4212 H   0  0  0  0  0  0  0  0  0  0  0  0
    7.0473    1.8875   22.0185 H   0  0  0  0  0  0  0  0  0  0  0  0
    6.6401    1.1486   23.5494 H   0  0  0  0  0  0  0  0  0  0  0  0
    8.1606   -1.1718   22.8815 N   0  0  0  0  0  0  0  0  0  0  0  0
    8.8890   -3.9414   21.2046 H   0  0  0  0  0  0  0  0  0  0  0  0
    9.6493   -3.4630   22.7382 H   0  0  0  0  0  0  0  0  0  0  0  0
    6.8358   -4.6528   22.2781 H   0  0  0  0  0  0  0  0  0  0  0  0
    7.3727   -4.0786   23.8517 H   0  0  0  0  0  0  0  0  0  0  0  0
    9.1654   -5.8034   23.9080 H   0  0  0  0  0  0  0  0  0  0  0  0
    8.7808   -6.3067   22.2528 H   0  0  0  0  0  0  0  0  0  0  0  0
    7.6210   -6.5743   23.5544 H   0  0  0  0  0  0  0  0  0  0  0  0
  1  2  1  0
  2  3  1  0
  3  4  1  0
  4  5  2  0
  5  6  1  0
  6  7  1  0
  7  8  2  0
  8  9  1  0
  9 10  2  0
 10 11  1  0
 11 12  2  0
 12 13  1  0
 10 14  1  0
  9 15  1  0
  8 16  1  0
  6 17  1  0
 17 18  1  0
 18 19  1  0
 19 20  2  0
 20 21  1  0
 21 22  2  0
 22 23  1  0
 23 24  2  0
 24 25  1  0
 25 26  1  0
 25 27  1  0
 25 28  1  0
 23 29  1  0
 21 30  1  0
 20 31  1  0
 18 32  1  0
 18 33  1  0
 17 34  2  0
  3 35  1  0
  3 36  1  0
  2 37  1  0
  2 38  1  0
  1 39  1  0
  1 40  1  0
  1 41  1  0
 34  4  1  0
 12  7  1  0
 24 19  1  0
M  END
>  <cnnaffinity>  (1) 
-5.44573

>  <filename>  (1) 
CCCc1nc(Cc2ccncc2C)n(-c2cccnc2)n1

$$$$
