
     RDKit          3D

 44 46  0  0  0  0  0  0  0  0999 V2000
    6.7470   -2.8982   26.3477 C   0  0  0  0  0  0  0  0  0  0  0  0
    6.9530   -2.0216   25.1149 C   0  0  0  0  0  0  0  0  0  0  0  0
    7.1785   -2.8356   23.8275 C   0  0  0  0  0  0  0  0  0  0  0  0
    7.4427   -1.9862   22.6335 C   0  0  0  0  0  0  0  0  0  0  0  0
    6.5426   -1.6440   21.7362 N   0  0  0  0  0  0  0  0  0  0  0  0
    7.2380   -0.8256   20.8991 N   0  0  0  0  0  0  0  0  0  0  0  0
    6.5739   -0.1260   19.8481 C   0  0  0  0  0  0  0  0  0  0  0  0
    5.3893    0.5761   20.1093 C   0  0  0  0  0  0  0  0  0  0  0  0
    4.8114    1.3113   19.0713 C   0  0  0  0  0  0  0  0  0  0  0  0
    5.4240    1.3071   17.8114 C   0  0  0  0  0  0  0  0  0  0  0  0
    6.5430    0.6160   17.5429 N   0  0  0  0  0  0  0  0  0  0  0  0
    7.0987   -0.0802   18.5420 C   0  0  0  0  0  0  0  0  0  0  0  0
    8.0178   -0.6118   18.2978 H   0  0  0  0  0  0  0  0  0  0  0  0
    4.9961    1.8691   16.9847 H   0  0  0  0  0  0  0  0  0  0  0  0
    3.9063    1.8898   19.2315 H   0  0  0  0  0  0  0  0  0  0  0  0
    4.9559    0.5352   21.1096 H   0  0  0  0  0  0  0  0  0  0  0  0
    8.5270   -0.7172   21.3587 C   0  0  0  0  0  0  0  0  0  0  0  0
    9.6311   -0.0080   20.6426 C   0  0  0  0  0  0  0  0  0  0  0  0
   10.7560    0.4126   21.5656 C   0  0  0  0  0  0  0  0  0  0  0  0
   11.9075   -0.3841   21.6652 C   0  0  0  0  0  0  0  0  0  0  0  0
   12.9417   -0.0785   22.5602 C   0  0  0  0  0  0  0  0  0  0  0  0
   12.8284    1.0356   23.3939 C   0  0  0  0  0  0  0  0  0  0  0  0
   11.6874    1.8365   23.3183 C   0  0  0  0  0  0  0  0  0  0  0  0
   10.6615    1.5286   22.4172 C   0  0  0  0  0  0  0  0  0  0  0  0
    9.3037    2.7310   22.3499 S   0  0  0  0  0  0  0  0  0  0  0  0
    8.7501    2.7605   20.9502 O   0  0  0  0  0  0  0  0  0  0  0  0
    8.0799    1.8298   23.3444 C   0  0  0  0  0  0  0  0  0  0  0  0
    8.5568    1.0936   23.9989 H   0  0  0  0  0  0  0  0  0  0  0  0
    7.5179    2.5507   23.9452 H   0  0  0  0  0  0  0  0  0  0  0  0
    7.4121    1.3222   22.6442 H   0  0  0  0  0  0  0  0  0  0  0  0
   11.5827    2.7265   23.9340 H   0  0  0  0  0  0  0  0  0  0  0  0
   13.6244    1.3025   24.0838 H   0  0  0  0  0  0  0  0  0  0  0  0
   13.8302   -0.7030   22.6004 H   0  0  0  0  0  0  0  0  0  0  0  0
   11.9858   -1.2677   21.0383 H   0  0  0  0  0  0  0  0  0  0  0  0
    9.9869   -0.7140   19.8901 H   0  0  0  0  0  0  0  0  0  0  0  0
    9.2460    0.8690   20.1296 H   0  0  0  0  0  0  0  0  0  0  0  0
    8.6730   -1.4372   22.4488 N   0  0  0  0  0  0  0  0  0  0  0  0
    8.0588   -3.4745   23.9544 H   0  0  0  0  0  0  0  0  0  0  0  0
    6.3217   -3.4794   23.6173 H   0  0  0  0  0  0  0  0  0  0  0  0
    6.0875   -1.3590   24.9855 H   0  0  0  0  0  0  0  0  0  0  0  0
    7.8167   -1.3593   25.2676 H   0  0  0  0  0  0  0  0  0  0  0  0
    5.8997   -3.5819   26.2217 H   0  0  0  0  0  0  0  0  0  0  0  0
    7.6285   -3.5128   26.5613 H   0  0  0  0  0  0  0  0  0  0  0  0
    6.5475   -2.2905   27.2361 H   0  0  0  0  0  0  0  0  0  0  0  0
  1  2  1  0
  2  3  1  0
  3  4  1  0
  4  5  2  0
  5  6  1  0
  6  7  1  0
  7  8  2  0
  8  9  1  0
  9 10  2  0
 10 11  1  0
 11 12  2  0
 12 13  1  0
 10 14  1  0
  9 15  1  0
  8 16  1  0
  6 17  1  0
 17 18  1  0
 18 19  1  0
 19 20  2  0
 20 21  1  0
 21 22  2  0
 22 23  1  0
 23 24  2  0
 24 25  1  0
 25 26  2  0
 25 27  1  0
 27 28  1  0
 27 29  1  0
 27 30  1  0
 23 31  1  0
 22 32  1  0
 21 33  1  0
 20 34  1  0
 18 35  1  0
 18 36  1  0
 17 37  2  0
  3 38  1  0
  3 39  1  0
  2 40  1  0
  2 41  1  0
  1 42  1  0
  1 43  1  0
  1 44  1  0
 37  4  1  0
 12  7  1  0
 24 19  1  0
M  END
>  <cnnaffinity>  (1) 
-6.37085

>  <filename>  (1) 
CCCc1nc(Cc2ccccc2S(C)=O)n(-c2cccnc2)n1

$$$$
