
     RDKit          3D

 44 45  0  0  0  0  0  0  0  0999 V2000
    4.9655    1.8190   17.0070 H   0  0  0  0  0  0  0  0  0  0  0  0
    5.4120    1.2911   17.8458 C   0  0  0  0  0  0  0  0  0  0  0  0
    6.5673    0.6536   17.6059 N   0  0  0  0  0  0  0  0  0  0  0  0
    7.1520    0.0245   18.6308 C   0  0  0  0  0  0  0  0  0  0  0  0
    8.0909   -0.4745   18.3855 H   0  0  0  0  0  0  0  0  0  0  0  0
    6.6187   -0.0343   19.9329 C   0  0  0  0  0  0  0  0  0  0  0  0
    7.3879   -0.7343   20.9934 C   0  0  0  0  0  0  0  0  0  0  0  0
    6.6288   -1.2938   22.0046 O   0  0  0  0  0  0  0  0  0  0  0  0
    7.2491   -1.9453   23.0439 C   0  0  0  0  0  0  0  0  0  0  0  0
    6.3586   -2.6001   24.0603 C   0  0  0  0  0  0  0  0  0  0  0  0
    6.9165   -2.5993   25.0078 H   0  0  0  0  0  0  0  0  0  0  0  0
    5.4671   -1.9979   24.2304 H   0  0  0  0  0  0  0  0  0  0  0  0
    6.0069   -4.0670   23.7316 C   0  0  0  0  0  0  0  0  0  0  0  0
    5.4489   -4.4807   24.5811 H   0  0  0  0  0  0  0  0  0  0  0  0
    6.9385   -4.6491   23.6843 H   0  0  0  0  0  0  0  0  0  0  0  0
    5.2213   -4.2951   22.4410 C   0  0  0  0  0  0  0  0  0  0  0  0
    5.7449   -3.8131   21.6074 H   0  0  0  0  0  0  0  0  0  0  0  0
    4.2466   -3.7934   22.5114 H   0  0  0  0  0  0  0  0  0  0  0  0
    5.0178   -5.7860   22.1373 C   0  0  0  0  0  0  0  0  0  0  0  0
    6.0010   -6.2629   22.0098 H   0  0  0  0  0  0  0  0  0  0  0  0
    4.5243   -5.8902   21.1651 H   0  0  0  0  0  0  0  0  0  0  0  0
    4.2338   -6.5701   23.2070 C   0  0  0  0  0  0  0  0  0  0  0  0
    4.8168   -6.5805   24.1374 H   0  0  0  0  0  0  0  0  0  0  0  0
    4.1682   -7.6212   22.9082 H   0  0  0  0  0  0  0  0  0  0  0  0
    2.8160   -6.0659   23.5271 C   0  0  0  0  0  0  0  0  0  0  0  0
    2.8764   -5.0762   24.0000 H   0  0  0  0  0  0  0  0  0  0  0  0
    2.3837   -6.7235   24.2942 H   0  0  0  0  0  0  0  0  0  0  0  0
    1.8470   -5.9814   22.3392 C   0  0  0  0  0  0  0  0  0  0  0  0
    2.2252   -5.2450   21.6232 H   0  0  0  0  0  0  0  0  0  0  0  0
    0.8937   -5.5738   22.6947 H   0  0  0  0  0  0  0  0  0  0  0  0
    1.5794   -7.3074   21.6235 C   0  0  0  0  0  0  0  0  0  0  0  0
    1.2066   -8.0679   22.3195 H   0  0  0  0  0  0  0  0  0  0  0  0
    2.4836   -7.7058   21.1510 H   0  0  0  0  0  0  0  0  0  0  0  0
    0.8283   -7.1975   20.8341 H   0  0  0  0  0  0  0  0  0  0  0  0
    8.5855   -2.0651   23.1137 C   0  0  0  0  0  0  0  0  0  0  0  0
    9.0548   -2.6030   23.9241 H   0  0  0  0  0  0  0  0  0  0  0  0
    9.4446   -1.4934   22.0894 C   0  0  0  0  0  0  0  0  0  0  0  0
   10.6623   -1.5821   22.1345 O   0  0  0  0  0  0  0  0  0  0  0  0
    8.7369   -0.8084   21.0132 C   0  0  0  0  0  0  0  0  0  0  0  0
    9.3569   -0.3390   20.2668 H   0  0  0  0  0  0  0  0  0  0  0  0
    5.3943    0.6290   20.1552 C   0  0  0  0  0  0  0  0  0  0  0  0
    4.9442    0.6318   21.1466 H   0  0  0  0  0  0  0  0  0  0  0  0
    4.7871    1.3036   19.0958 C   0  0  0  0  0  0  0  0  0  0  0  0
    3.8595    1.8525   19.2260 H   0  0  0  0  0  0  0  0  0  0  0  0
  1  2  1  0
  2  3  2  0
  3  4  1  0
  4  5  1  0
  4  6  2  0
  6  7  1  0
  7  8  1  0
  8  9  1  0
  9 10  1  0
 10 11  1  0
 10 12  1  0
 10 13  1  0
 13 14  1  0
 13 15  1  0
 13 16  1  0
 16 17  1  0
 16 18  1  0
 16 19  1  0
 19 20  1  0
 19 21  1  0
 19 22  1  0
 22 23  1  0
 22 24  1  0
 22 25  1  0
 25 26  1  0
 25 27  1  0
 25 28  1  0
 28 29  1  0
 28 30  1  0
 28 31  1  0
 31 32  1  0
 31 33  1  0
 31 34  1  0
  9 35  2  0
 35 36  1  0
 35 37  1  0
 37 38  2  0
 37 39  1  0
 39 40  1  0
  6 41  1  0
 41 42  1  0
 41 43  2  0
 43 44  1  0
 43  2  1  0
 39  7  2  0
M  END
>  <cnnaffinity>  (1) 
-5.55371

>  <filename>  (1) 
CCCCCCCCc1cc(=O)cc(-c2cccnc2)o1

$$$$
