
     RDKit          3D

 38 39  0  0  0  0  0  0  0  0999 V2000
    4.9442    1.7932   16.9871 H   0  0  0  0  0  0  0  0  0  0  0  0
    5.3993    1.2937   17.8427 C   0  0  0  0  0  0  0  0  0  0  0  0
    6.5591    0.6714   17.5936 N   0  0  0  0  0  0  0  0  0  0  0  0
    7.1549    0.0501   18.6182 C   0  0  0  0  0  0  0  0  0  0  0  0
    8.0986   -0.4305   18.3657 H   0  0  0  0  0  0  0  0  0  0  0  0
    6.6313   -0.0147   19.9201 C   0  0  0  0  0  0  0  0  0  0  0  0
    7.4043   -0.7115   20.9703 C   0  0  0  0  0  0  0  0  0  0  0  0
    6.6269   -1.2397   21.9691 O   0  0  0  0  0  0  0  0  0  0  0  0
    7.2051   -1.9737   22.9651 C   0  0  0  0  0  0  0  0  0  0  0  0
    6.2278   -2.4950   23.9771 C   0  0  0  0  0  0  0  0  0  0  0  0
    6.6424   -3.4207   24.3946 H   0  0  0  0  0  0  0  0  0  0  0  0
    5.2847   -2.7591   23.4869 H   0  0  0  0  0  0  0  0  0  0  0  0
    5.9883   -1.4837   25.1222 C   0  0  0  0  0  0  0  0  0  0  0  0
    5.6606   -0.5260   24.6950 H   0  0  0  0  0  0  0  0  0  0  0  0
    6.9440   -1.2763   25.6295 H   0  0  0  0  0  0  0  0  0  0  0  0
    4.9789   -1.9687   26.1711 C   0  0  0  0  0  0  0  0  0  0  0  0
    4.0388   -2.2587   25.6741 H   0  0  0  0  0  0  0  0  0  0  0  0
    4.7228   -1.1304   26.8373 H   0  0  0  0  0  0  0  0  0  0  0  0
    5.4788   -3.1394   27.0319 C   0  0  0  0  0  0  0  0  0  0  0  0
    6.4490   -2.8745   27.4863 H   0  0  0  0  0  0  0  0  0  0  0  0
    5.6797   -4.0199   26.4006 H   0  0  0  0  0  0  0  0  0  0  0  0
    4.4920   -3.5273   28.1410 C   0  0  0  0  0  0  0  0  0  0  0  0
    3.5218   -3.7810   27.6848 H   0  0  0  0  0  0  0  0  0  0  0  0
    4.3013   -2.6452   28.7733 H   0  0  0  0  0  0  0  0  0  0  0  0
    4.9908   -4.6916   29.0023 C   0  0  0  0  0  0  0  0  0  0  0  0
    5.1607   -5.5895   28.3949 H   0  0  0  0  0  0  0  0  0  0  0  0
    5.9427   -4.4463   29.4900 H   0  0  0  0  0  0  0  0  0  0  0  0
    4.2746   -4.9537   29.7886 H   0  0  0  0  0  0  0  0  0  0  0  0
    8.5390   -2.0961   23.0738 C   0  0  0  0  0  0  0  0  0  0  0  0
    8.9858   -2.5992   23.9197 H   0  0  0  0  0  0  0  0  0  0  0  0
    9.4402   -1.4834   22.0970 C   0  0  0  0  0  0  0  0  0  0  0  0
   10.6575   -1.5457   22.1882 O   0  0  0  0  0  0  0  0  0  0  0  0
    8.7512   -0.7906   21.0115 C   0  0  0  0  0  0  0  0  0  0  0  0
    9.3619   -0.2973   20.2747 H   0  0  0  0  0  0  0  0  0  0  0  0
    5.4101    0.6416   20.1635 C   0  0  0  0  0  0  0  0  0  0  0  0
    4.9809    0.6371   21.1649 H   0  0  0  0  0  0  0  0  0  0  0  0
    4.7930    1.3098   19.1044 C   0  0  0  0  0  0  0  0  0  0  0  0
    3.8656    1.8548   19.2343 H   0  0  0  0  0  0  0  0  0  0  0  0
  1  2  1  0
  2  3  2  0
  3  4  1  0
  4  5  1  0
  4  6  2  0
  6  7  1  0
  7  8  1  0
  8  9  1  0
  9 10  1  0
 10 11  1  0
 10 12  1  0
 10 13  1  0
 13 14  1  0
 13 15  1  0
 13 16  1  0
 16 17  1  0
 16 18  1  0
 16 19  1  0
 19 20  1  0
 19 21  1  0
 19 22  1  0
 22 23  1  0
 22 24  1  0
 22 25  1  0
 25 26  1  0
 25 27  1  0
 25 28  1  0
  9 29  2  0
 29 30  1  0
 29 31  1  0
 31 32  2  0
 31 33  1  0
 33 34  1  0
  6 35  1  0
 35 36  1  0
 35 37  2  0
 37 38  1  0
 37  2  1  0
 33  7  2  0
M  END
>  <cnnaffinity>  (1) 
-5.18032

>  <filename>  (1) 
CCCCCCc1cc(=O)cc(-c2cccnc2)o1

$$$$
