
     RDKit          3D

 40 42  0  0  0  0  0  0  0  0999 V2000
    8.4380   -5.7785   23.3772 C   0  0  0  0  0  0  0  0  0  0  0  0
    7.8413   -4.4095   23.0602 C   0  0  0  0  0  0  0  0  0  0  0  0
    8.8147   -3.5140   22.2747 C   0  0  0  0  0  0  0  0  0  0  0  0
    8.3126   -2.1536   21.9722 C   0  0  0  0  0  0  0  0  0  0  0  0
    7.7447   -1.8886   20.8171 N   0  0  0  0  0  0  0  0  0  0  0  0
    7.3902   -0.5927   20.9464 N   0  0  0  0  0  0  0  0  0  0  0  0
    6.6569    0.0414   19.9098 C   0  0  0  0  0  0  0  0  0  0  0  0
    5.4310    0.6679   20.1562 C   0  0  0  0  0  0  0  0  0  0  0  0
    4.7993    1.3125   19.0883 C   0  0  0  0  0  0  0  0  0  0  0  0
    5.4109    1.2889   17.8313 C   0  0  0  0  0  0  0  0  0  0  0  0
    6.5665    0.6459   17.5833 N   0  0  0  0  0  0  0  0  0  0  0  0
    7.1673    0.0271   18.6022 C   0  0  0  0  0  0  0  0  0  0  0  0
    8.1049   -0.4840   18.3893 H   0  0  0  0  0  0  0  0  0  0  0  0
    4.9584    1.8020   16.9866 H   0  0  0  0  0  0  0  0  0  0  0  0
    3.8655    1.8474   19.2340 H   0  0  0  0  0  0  0  0  0  0  0  0
    4.9917    0.6448   21.1539 H   0  0  0  0  0  0  0  0  0  0  0  0
    7.7906   -0.1468   22.1694 C   0  0  0  0  0  0  0  0  0  0  0  0
    7.7273    1.2819   22.5782 C   0  0  0  0  0  0  0  0  0  0  0  0
    8.7494    2.1843   21.8189 C   0  0  0  0  0  0  0  0  0  0  0  0
    8.6608    3.6017   22.2664 C   0  0  0  0  0  0  0  0  0  0  0  0
    7.7577    4.3650   21.6573 N   0  0  0  0  0  0  0  0  0  0  0  0
    7.6945    5.6364   22.0271 C   0  0  0  0  0  0  0  0  0  0  0  0
    8.4642    6.1403   23.0674 C   0  0  0  0  0  0  0  0  0  0  0  0
    9.3314    5.2402   23.6760 C   0  0  0  0  0  0  0  0  0  0  0  0
    9.4437    3.9764   23.2822 N   0  0  0  0  0  0  0  0  0  0  0  0
    9.9602    5.5161   24.5231 H   0  0  0  0  0  0  0  0  0  0  0  0
    8.3836    7.1654   23.3857 H   0  0  0  0  0  0  0  0  0  0  0  0
    6.9922    6.2458   21.4585 H   0  0  0  0  0  0  0  0  0  0  0  0
    9.7768    1.8482   22.0025 H   0  0  0  0  0  0  0  0  0  0  0  0
    8.5455    2.1696   20.7428 H   0  0  0  0  0  0  0  0  0  0  0  0
    7.9207    1.2932   23.6563 H   0  0  0  0  0  0  0  0  0  0  0  0
    6.7035    1.6436   22.4125 H   0  0  0  0  0  0  0  0  0  0  0  0
    8.3714   -1.1173   22.8421 N   0  0  0  0  0  0  0  0  0  0  0  0
    9.7857   -3.4192   22.7758 H   0  0  0  0  0  0  0  0  0  0  0  0
    8.9628   -3.9490   21.2914 H   0  0  0  0  0  0  0  0  0  0  0  0
    6.9228   -4.5296   22.4678 H   0  0  0  0  0  0  0  0  0  0  0  0
    7.5383   -3.9170   23.9908 H   0  0  0  0  0  0  0  0  0  0  0  0
    8.7419   -6.3038   22.4646 H   0  0  0  0  0  0  0  0  0  0  0  0
    7.7054   -6.4023   23.8937 H   0  0  0  0  0  0  0  0  0  0  0  0
    9.3181   -5.6996   24.0280 H   0  0  0  0  0  0  0  0  0  0  0  0
  1  2  1  0
  2  3  1  0
  3  4  1  0
  4  5  2  0
  5  6  1  0
  6  7  1  0
  7  8  2  0
  8  9  1  0
  9 10  2  0
 10 11  1  0
 11 12  2  0
 12 13  1  0
 10 14  1  0
  9 15  1  0
  8 16  1  0
  6 17  1  0
 17 18  1  0
 18 19  1  0
 19 20  1  0
 20 21  2  0
 21 22  1  0
 22 23  2  0
 23 24  1  0
 24 25  2  0
 24 26  1  0
 23 27  1  0
 22 28  1  0
 19 29  1  0
 19 30  1  0
 18 31  1  0
 18 32  1  0
 17 33  2  0
  3 34  1  0
  3 35  1  0
  2 36  1  0
  2 37  1  0
  1 38  1  0
  1 39  1  0
  1 40  1  0
 33  4  1  0
 12  7  1  0
 25 20  1  0
M  END
>  <cnnaffinity>  (1) 
-5.43707

>  <filename>  (1) 
CCCc1nc(CCc2ncccn2)n(-c2cccnc2)n1

$$$$
