
     RDKit          3D

 42 43  0  0  0  0  0  0  0  0999 V2000
    4.9325    1.7877   16.9850 H   0  0  0  0  0  0  0  0  0  0  0  0
    5.3982    1.2923   17.8313 C   0  0  0  0  0  0  0  0  0  0  0  0
    6.5590    0.6744   17.5815 N   0  0  0  0  0  0  0  0  0  0  0  0
    7.1664    0.0643   18.5986 C   0  0  0  0  0  0  0  0  0  0  0  0
    8.1173   -0.4139   18.3824 H   0  0  0  0  0  0  0  0  0  0  0  0
    6.6378    0.0121   19.8987 C   0  0  0  0  0  0  0  0  0  0  0  0
    7.4101   -0.7017   20.9064 C   0  0  0  0  0  0  0  0  0  0  0  0
    8.6671   -1.0654   20.8042 N   0  0  0  0  0  0  0  0  0  0  0  0
    8.9681   -1.6707   21.9883 C   0  0  0  0  0  0  0  0  0  0  0  0
    9.9512   -2.0958   22.1679 H   0  0  0  0  0  0  0  0  0  0  0  0
    7.8859   -1.6968   22.8254 C   0  0  0  0  0  0  0  0  0  0  0  0
    7.6676   -2.3834   24.1269 C   0  0  0  0  0  0  0  0  0  0  0  0
    6.9815   -1.8074   24.7683 H   0  0  0  0  0  0  0  0  0  0  0  0
    8.6277   -2.4068   24.6600 H   0  0  0  0  0  0  0  0  0  0  0  0
    7.1617   -3.8268   23.9364 C   0  0  0  0  0  0  0  0  0  0  0  0
    6.1749   -3.8024   23.4518 H   0  0  0  0  0  0  0  0  0  0  0  0
    7.8247   -4.3513   23.2353 H   0  0  0  0  0  0  0  0  0  0  0  0
    7.0799   -4.6162   25.2405 C   0  0  0  0  0  0  0  0  0  0  0  0
    8.0477   -4.5401   25.7605 H   0  0  0  0  0  0  0  0  0  0  0  0
    6.9461   -5.6830   25.0097 H   0  0  0  0  0  0  0  0  0  0  0  0
    5.9674   -4.1283   26.1732 C   0  0  0  0  0  0  0  0  0  0  0  0
    6.1241   -3.0680   26.4144 H   0  0  0  0  0  0  0  0  0  0  0  0
    5.0081   -4.1679   25.6346 H   0  0  0  0  0  0  0  0  0  0  0  0
    5.8648   -4.9338   27.4679 C   0  0  0  0  0  0  0  0  0  0  0  0
    6.8663   -5.0240   27.9152 H   0  0  0  0  0  0  0  0  0  0  0  0
    5.2627   -4.3744   28.1954 H   0  0  0  0  0  0  0  0  0  0  0  0
    5.2754   -6.3350   27.2751 C   0  0  0  0  0  0  0  0  0  0  0  0
    5.8616   -6.8896   26.5287 H   0  0  0  0  0  0  0  0  0  0  0  0
    4.2673   -6.2397   26.8452 H   0  0  0  0  0  0  0  0  0  0  0  0
    5.1925   -7.1539   28.5683 C   0  0  0  0  0  0  0  0  0  0  0  0
    4.9589   -8.1982   28.3196 H   0  0  0  0  0  0  0  0  0  0  0  0
    6.1852   -7.1778   29.0417 H   0  0  0  0  0  0  0  0  0  0  0  0
    4.1558   -6.6241   29.5672 C   0  0  0  0  0  0  0  0  0  0  0  0
    4.0561   -7.2881   30.4348 H   0  0  0  0  0  0  0  0  0  0  0  0
    4.4156   -5.6264   29.9444 H   0  0  0  0  0  0  0  0  0  0  0  0
    3.1660   -6.5389   29.0994 H   0  0  0  0  0  0  0  0  0  0  0  0
    6.8882   -1.0669   22.1102 N   0  0  0  0  0  0  0  0  0  0  0  0
    5.9201   -0.9634   22.3725 H   0  0  0  0  0  0  0  0  0  0  0  0
    5.4157    0.6603   20.1554 C   0  0  0  0  0  0  0  0  0  0  0  0
    4.9754    0.6723   21.1569 H   0  0  0  0  0  0  0  0  0  0  0  0
    4.7967    1.3164   19.0943 C   0  0  0  0  0  0  0  0  0  0  0  0
    3.8683    1.8473   19.2436 H   0  0  0  0  0  0  0  0  0  0  0  0
  1  2  1  0
  2  3  2  0
  3  4  1  0
  4  5  1  0
  4  6  2  0
  6  7  1  0
  7  8  2  0
  8  9  1  0
  9 10  1  0
  9 11  2  0
 11 12  1  0
 12 13  1  0
 12 14  1  0
 12 15  1  0
 15 16  1  0
 15 17  1  0
 15 18  1  0
 18 19  1  0
 18 20  1  0
 18 21  1  0
 21 22  1  0
 21 23  1  0
 21 24  1  0
 24 25  1  0
 24 26  1  0
 24 27  1  0
 27 28  1  0
 27 29  1  0
 27 30  1  0
 30 31  1  0
 30 32  1  0
 30 33  1  0
 33 34  1  0
 33 35  1  0
 33 36  1  0
 11 37  1  0
 37 38  1  0
  6 39  1  0
 39 40  1  0
 39 41  2  0
 41 42  1  0
 41  2  1  0
 37  7  1  0
M  END
>  <cnnaffinity>  (1) 
-5.21482

>  <filename>  (1) 
CCCCCCCCc1cnc(-c2cccnc2)[nH]1

$$$$
