
     RDKit          3D

 38 39  0  0  0  0  0  0  0  0999 V2000
    4.9235    1.8312   16.9143 H   0  0  0  0  0  0  0  0  0  0  0  0
    5.3747    1.3491   17.7798 C   0  0  0  0  0  0  0  0  0  0  0  0
    6.5395    0.7175   17.5689 N   0  0  0  0  0  0  0  0  0  0  0  0
    7.1097    0.1243   18.6207 C   0  0  0  0  0  0  0  0  0  0  0  0
    8.0358   -0.4140   18.4313 H   0  0  0  0  0  0  0  0  0  0  0  0
    6.5872    0.1599   19.9218 C   0  0  0  0  0  0  0  0  0  0  0  0
    7.3305   -0.5461   20.9845 C   0  0  0  0  0  0  0  0  0  0  0  0
    7.9994   -1.5957   20.5873 N   0  0  0  0  0  0  0  0  0  0  0  0
    8.5104   -2.4105   21.5495 C   0  0  0  0  0  0  0  0  0  0  0  0
    8.8032   -3.5757   21.3956 O   0  0  0  0  0  0  0  0  0  0  0  0
    8.6938   -1.8694   22.8256 N   0  0  0  0  0  0  0  0  0  0  0  0
    9.0832   -2.5671   23.4292 H   0  0  0  0  0  0  0  0  0  0  0  0
    7.9761   -0.8047   23.2881 C   0  0  0  0  0  0  0  0  0  0  0  0
    8.1174   -0.4692   24.7465 C   0  0  0  0  0  0  0  0  0  0  0  0
    7.2916    0.1811   25.0639 H   0  0  0  0  0  0  0  0  0  0  0  0
    8.0234   -1.3974   25.3251 H   0  0  0  0  0  0  0  0  0  0  0  0
    9.4711    0.2087   25.0710 C   0  0  0  0  0  0  0  0  0  0  0  0
    9.5040    0.4527   26.1441 H   0  0  0  0  0  0  0  0  0  0  0  0
   10.2734   -0.5198   24.8921 H   0  0  0  0  0  0  0  0  0  0  0  0
    9.7587    1.4740   24.2442 C   0  0  0  0  0  0  0  0  0  0  0  0
   10.7834    1.8117   24.4537 H   0  0  0  0  0  0  0  0  0  0  0  0
    9.7435    1.2121   23.1742 H   0  0  0  0  0  0  0  0  0  0  0  0
    8.7693    2.6200   24.4929 C   0  0  0  0  0  0  0  0  0  0  0  0
    7.7470    2.2732   24.2844 H   0  0  0  0  0  0  0  0  0  0  0  0
    8.7852    2.8824   25.5618 H   0  0  0  0  0  0  0  0  0  0  0  0
    9.0284    3.8844   23.6644 C   0  0  0  0  0  0  0  0  0  0  0  0
    9.0324    3.6247   22.5959 H   0  0  0  0  0  0  0  0  0  0  0  0
    8.1839    4.5727   23.8033 H   0  0  0  0  0  0  0  0  0  0  0  0
   10.3255    4.6099   24.0222 C   0  0  0  0  0  0  0  0  0  0  0  0
   11.2054    3.9930   23.8081 H   0  0  0  0  0  0  0  0  0  0  0  0
   10.4261    5.5409   23.4548 H   0  0  0  0  0  0  0  0  0  0  0  0
   10.3461    4.8620   25.0889 H   0  0  0  0  0  0  0  0  0  0  0  0
    7.2723   -0.1144   22.3429 C   0  0  0  0  0  0  0  0  0  0  0  0
    6.6902    0.7562   22.5964 H   0  0  0  0  0  0  0  0  0  0  0  0
    5.3489    0.7821   20.1193 C   0  0  0  0  0  0  0  0  0  0  0  0
    4.8661    0.7613   21.0988 H   0  0  0  0  0  0  0  0  0  0  0  0
    4.7344    1.3879   19.0240 C   0  0  0  0  0  0  0  0  0  0  0  0
    3.7812    1.8947   19.1261 H   0  0  0  0  0  0  0  0  0  0  0  0
  1  2  1  0
  2  3  2  0
  3  4  1  0
  4  5  1  0
  4  6  2  0
  6  7  1  0
  7  8  2  0
  8  9  1  0
  9 10  2  0
  9 11  1  0
 11 12  1  0
 11 13  1  0
 13 14  1  0
 14 15  1  0
 14 16  1  0
 14 17  1  0
 17 18  1  0
 17 19  1  0
 17 20  1  0
 20 21  1  0
 20 22  1  0
 20 23  1  0
 23 24  1  0
 23 25  1  0
 23 26  1  0
 26 27  1  0
 26 28  1  0
 26 29  1  0
 29 30  1  0
 29 31  1  0
 29 32  1  0
 13 33  2  0
 33 34  1  0
  6 35  1  0
 35 36  1  0
 35 37  2  0
 37 38  1  0
 37  2  1  0
 33  7  1  0
M  END
>  <cnnaffinity>  (1) 
-5.47502

>  <filename>  (1) 
CCCCCCc1cc(-c2cccnc2)nc(=O)[nH]1

$$$$
