
     RDKit          3D

 39 41  0  0  0  0  0  0  0  0999 V2000
    6.6818   -4.7708   22.6774 C   0  0  0  0  0  0  0  0  0  0  0  0
    8.0235   -4.3428   23.2597 C   0  0  0  0  0  0  0  0  0  0  0  0
    8.7977   -3.4607   22.2781 C   0  0  0  0  0  0  0  0  0  0  0  0
    8.1998   -2.1164   22.0217 C   0  0  0  0  0  0  0  0  0  0  0  0
    7.8018   -1.7724   20.8157 N   0  0  0  0  0  0  0  0  0  0  0  0
    7.3400   -0.5083   20.9883 N   0  0  0  0  0  0  0  0  0  0  0  0
    6.6294    0.1079   19.9238 C   0  0  0  0  0  0  0  0  0  0  0  0
    5.4177    0.7773   20.1338 C   0  0  0  0  0  0  0  0  0  0  0  0
    4.8087    1.3883   19.0331 C   0  0  0  0  0  0  0  0  0  0  0  0
    5.4255    1.3120   17.7815 C   0  0  0  0  0  0  0  0  0  0  0  0
    6.5593    0.6222   17.5642 N   0  0  0  0  0  0  0  0  0  0  0  0
    7.1236    0.0077   18.6082 C   0  0  0  0  0  0  0  0  0  0  0  0
    7.9971   -0.6032   18.3890 H   0  0  0  0  0  0  0  0  0  0  0  0
    4.9791    1.7898   16.9126 H   0  0  0  0  0  0  0  0  0  0  0  0
    3.8606    1.9036   19.1380 H   0  0  0  0  0  0  0  0  0  0  0  0
    4.9526    0.7780   21.1199 H   0  0  0  0  0  0  0  0  0  0  0  0
    7.5841   -0.1193   22.2781 C   0  0  0  0  0  0  0  0  0  0  0  0
    7.5579    1.3247   22.7104 C   0  0  0  0  0  0  0  0  0  0  0  0
    8.5225    2.2511   21.9057 C   0  0  0  0  0  0  0  0  0  0  0  0
    9.9587    1.8081   21.9618 C   0  0  0  0  0  0  0  0  0  0  0  0
   10.5388    0.7563   21.3133 C   0  0  0  0  0  0  0  0  0  0  0  0
   11.8176    0.6705   21.8095 N   0  0  0  0  0  0  0  0  0  0  0  0
   11.9478    1.6568   22.7326 C   0  0  0  0  0  0  0  0  0  0  0  0
   10.8550    2.3589   22.8502 N   0  0  0  0  0  0  0  0  0  0  0  0
   12.8560    1.7976   23.3070 H   0  0  0  0  0  0  0  0  0  0  0  0
   12.5041   -0.0383   21.6101 H   0  0  0  0  0  0  0  0  0  0  0  0
   10.1318    0.0552   20.6014 H   0  0  0  0  0  0  0  0  0  0  0  0
    8.4848    3.2647   22.3216 H   0  0  0  0  0  0  0  0  0  0  0  0
    8.1847    2.2981   20.8622 H   0  0  0  0  0  0  0  0  0  0  0  0
    7.8296    1.3503   23.7713 H   0  0  0  0  0  0  0  0  0  0  0  0
    6.5425    1.7253   22.6203 H   0  0  0  0  0  0  0  0  0  0  0  0
    8.0805   -1.1397   22.9623 N   0  0  0  0  0  0  0  0  0  0  0  0
    9.8264   -3.3161   22.6209 H   0  0  0  0  0  0  0  0  0  0  0  0
    8.8277   -3.9471   21.3038 H   0  0  0  0  0  0  0  0  0  0  0  0
    7.8913   -3.8028   24.2031 H   0  0  0  0  0  0  0  0  0  0  0  0
    8.6279   -5.2249   23.5027 H   0  0  0  0  0  0  0  0  0  0  0  0
    6.0735   -3.9037   22.3933 H   0  0  0  0  0  0  0  0  0  0  0  0
    6.8315   -5.3678   21.7699 H   0  0  0  0  0  0  0  0  0  0  0  0
    6.1150   -5.3813   23.3872 H   0  0  0  0  0  0  0  0  0  0  0  0
  1  2  1  0
  2  3  1  0
  3  4  1  0
  4  5  2  0
  5  6  1  0
  6  7  1  0
  7  8  2  0
  8  9  1  0
  9 10  2  0
 10 11  1  0
 11 12  2  0
 12 13  1  0
 10 14  1  0
  9 15  1  0
  8 16  1  0
  6 17  1  0
 17 18  1  0
 18 19  1  0
 19 20  1  0
 20 21  2  0
 21 22  1  0
 22 23  1  0
 23 24  2  0
 23 25  1  0
 22 26  1  0
 21 27  1  0
 19 28  1  0
 19 29  1  0
 18 30  1  0
 18 31  1  0
 17 32  2  0
  3 33  1  0
  3 34  1  0
  2 35  1  0
  2 36  1  0
  1 37  1  0
  1 38  1  0
  1 39  1  0
 32  4  1  0
 12  7  1  0
 24 20  1  0
M  END
>  <cnnaffinity>  (1) 
-5.60019

>  <filename>  (1) 
CCCc1nc(CCc2c[nH]cn2)n(-c2cccnc2)n1

$$$$
