
     RDKit          3D

 49 51  0  0  0  0  0  0  0  0999 V2000
    5.0586    1.8046   16.8444 H   0  0  0  0  0  0  0  0  0  0  0  0
    5.4393    1.2947   17.7286 C   0  0  0  0  0  0  0  0  0  0  0  0
    6.5819    0.6127   17.5702 N   0  0  0  0  0  0  0  0  0  0  0  0
    7.0860   -0.0029   18.6449 C   0  0  0  0  0  0  0  0  0  0  0  0
    8.0174   -0.5426   18.4842 H   0  0  0  0  0  0  0  0  0  0  0  0
    6.4985    0.0376   19.9248 C   0  0  0  0  0  0  0  0  0  0  0  0
    7.2027   -0.5926   21.0541 C   0  0  0  0  0  0  0  0  0  0  0  0
    7.8335   -1.7522   20.8710 N   0  0  0  0  0  0  0  0  0  0  0  0
    8.4298   -1.9704   22.0391 N   0  0  0  0  0  0  0  0  0  0  0  0
    8.2780   -0.9986   22.9524 C   0  0  0  0  0  0  0  0  0  0  0  0
    7.4387   -0.0618   22.3690 C   0  0  0  0  0  0  0  0  0  0  0  0
    7.1177    1.3494   22.7954 C   0  0  0  0  0  0  0  0  0  0  0  0
    6.0386    1.5289   22.7289 H   0  0  0  0  0  0  0  0  0  0  0  0
    7.3730    1.4935   23.8540 H   0  0  0  0  0  0  0  0  0  0  0  0
    7.8643    2.3707   21.9139 C   0  0  0  0  0  0  0  0  0  0  0  0
    7.5338    2.2360   20.8749 H   0  0  0  0  0  0  0  0  0  0  0  0
    7.5770    3.3931   22.1963 H   0  0  0  0  0  0  0  0  0  0  0  0
    9.3858    2.2006   21.9783 C   0  0  0  0  0  0  0  0  0  0  0  0
    9.6303    1.1695   21.6741 H   0  0  0  0  0  0  0  0  0  0  0  0
    9.8515    2.8404   21.2259 H   0  0  0  0  0  0  0  0  0  0  0  0
    9.9841    2.5052   23.3532 C   0  0  0  0  0  0  0  0  0  0  0  0
    9.8221    3.5673   23.5872 H   0  0  0  0  0  0  0  0  0  0  0  0
    9.4530    1.9403   24.1273 H   0  0  0  0  0  0  0  0  0  0  0  0
   11.4696    2.1960   23.4783 C   0  0  0  0  0  0  0  0  0  0  0  0
   11.6331    1.1121   23.3855 H   0  0  0  0  0  0  0  0  0  0  0  0
   11.8014    2.4594   24.4922 H   0  0  0  0  0  0  0  0  0  0  0  0
   12.3631    2.9090   22.4636 C   0  0  0  0  0  0  0  0  0  0  0  0
   12.0890    3.9683   22.3830 H   0  0  0  0  0  0  0  0  0  0  0  0
   12.2268    2.4683   21.4669 H   0  0  0  0  0  0  0  0  0  0  0  0
   13.8309    2.7971   22.8492 C   0  0  0  0  0  0  0  0  0  0  0  0
   14.4663    3.3633   22.1565 H   0  0  0  0  0  0  0  0  0  0  0  0
   13.9595    3.2896   23.8171 H   0  0  0  0  0  0  0  0  0  0  0  0
   14.2894    1.3312   22.9201 C   0  0  0  0  0  0  0  0  0  0  0  0
   15.3541    1.2420   22.7270 H   0  0  0  0  0  0  0  0  0  0  0  0
   14.0828    0.8628   23.8901 H   0  0  0  0  0  0  0  0  0  0  0  0
   13.8063    0.7232   22.1460 H   0  0  0  0  0  0  0  0  0  0  0  0
    9.2185   -1.2617   24.1035 C   0  0  0  0  0  0  0  0  0  0  0  0
    8.6925   -1.2893   25.0601 H   0  0  0  0  0  0  0  0  0  0  0  0
    9.9736   -0.4705   24.1735 H   0  0  0  0  0  0  0  0  0  0  0  0
    9.8661   -2.6371   23.7494 C   0  0  0  0  0  0  0  0  0  0  0  0
    9.5178   -3.4192   24.4253 H   0  0  0  0  0  0  0  0  0  0  0  0
   10.9517   -2.6126   23.8151 H   0  0  0  0  0  0  0  0  0  0  0  0
    9.4391   -2.9592   22.2999 C   0  0  0  0  0  0  0  0  0  0  0  0
    9.0064   -3.9523   22.1741 H   0  0  0  0  0  0  0  0  0  0  0  0
   10.2528   -2.8247   21.5801 H   0  0  0  0  0  0  0  0  0  0  0  0
    5.2856    0.7290   20.0614 C   0  0  0  0  0  0  0  0  0  0  0  0
    4.7798    0.7759   21.0255 H   0  0  0  0  0  0  0  0  0  0  0  0
    4.7509    1.3715   18.9430 C   0  0  0  0  0  0  0  0  0  0  0  0
    3.8345    1.9421   19.0098 H   0  0  0  0  0  0  0  0  0  0  0  0
  1  2  1  0
  2  3  2  0
  3  4  1  0
  4  5  1  0
  4  6  2  0
  6  7  1  0
  7  8  2  0
  8  9  1  0
  9 10  1  0
 10 11  2  0
 11 12  1  0
 12 13  1  0
 12 14  1  0
 12 15  1  0
 15 16  1  0
 15 17  1  0
 15 18  1  0
 18 19  1  0
 18 20  1  0
 18 21  1  0
 21 22  1  0
 21 23  1  0
 21 24  1  0
 24 25  1  0
 24 26  1  0
 24 27  1  0
 27 28  1  0
 27 29  1  0
 27 30  1  0
 30 31  1  0
 30 32  1  0
 30 33  1  0
 33 34  1  0
 33 35  1  0
 33 36  1  0
 10 37  1  0
 37 38  1  0
 37 39  1  0
 37 40  1  0
 40 41  1  0
 40 42  1  0
 40 43  1  0
 43 44  1  0
 43 45  1  0
  6 46  1  0
 46 47  1  0
 46 48  2  0
 48 49  1  0
 48  2  1  0
 11  7  1  0
 43  9  1  0
M  END
>  <cnnaffinity>  (1) 
-6.07328

>  <filename>  (1) 
CCCCCCCCc1c(-c2cccnc2)nn2c1CCC2

$$$$
