
     RDKit          3D

 38 40  0  0  0  0  0  0  0  0999 V2000
    8.4901   -5.7632   23.3429 C   0  0  0  0  0  0  0  0  0  0  0  0
    7.8203   -4.4175   23.0659 C   0  0  0  0  0  0  0  0  0  0  0  0
    8.7113   -3.4916   22.2238 C   0  0  0  0  0  0  0  0  0  0  0  0
    8.2048   -2.1066   21.9967 C   0  0  0  0  0  0  0  0  0  0  0  0
    7.8273   -1.7423   20.7913 N   0  0  0  0  0  0  0  0  0  0  0  0
    7.3924   -0.4740   20.9711 N   0  0  0  0  0  0  0  0  0  0  0  0
    6.6546    0.1318   19.9208 C   0  0  0  0  0  0  0  0  0  0  0  0
    5.4251    0.7591   20.1432 C   0  0  0  0  0  0  0  0  0  0  0  0
    4.8001    1.3617   19.0467 C   0  0  0  0  0  0  0  0  0  0  0  0
    5.4114    1.3081   17.7900 C   0  0  0  0  0  0  0  0  0  0  0  0
    6.5494    0.6287   17.5607 N   0  0  0  0  0  0  0  0  0  0  0  0
    7.1331    0.0287   18.6016 C   0  0  0  0  0  0  0  0  0  0  0  0
    8.0098   -0.5760   18.3835 H   0  0  0  0  0  0  0  0  0  0  0  0
    4.9685    1.8142   16.9337 H   0  0  0  0  0  0  0  0  0  0  0  0
    3.8517    1.8698   19.1628 H   0  0  0  0  0  0  0  0  0  0  0  0
    4.9564    0.7303   21.1285 H   0  0  0  0  0  0  0  0  0  0  0  0
    7.6281   -0.0970   22.2641 C   0  0  0  0  0  0  0  0  0  0  0  0
    7.5835    1.3508   22.6921 C   0  0  0  0  0  0  0  0  0  0  0  0
    8.5365    2.2821   21.8826 C   0  0  0  0  0  0  0  0  0  0  0  0
    9.9761    1.8435   21.9423 C   0  0  0  0  0  0  0  0  0  0  0  0
   10.5629    0.7738   21.3160 C   0  0  0  0  0  0  0  0  0  0  0  0
   11.8233    0.7493   21.8017 N   0  0  0  0  0  0  0  0  0  0  0  0
   12.0219    1.7373   22.6734 N   0  0  0  0  0  0  0  0  0  0  0  0
   10.9117    2.3962   22.7700 N   0  0  0  0  0  0  0  0  0  0  0  0
   12.5943    0.1270   21.6056 H   0  0  0  0  0  0  0  0  0  0  0  0
   10.1855    0.0280   20.6364 H   0  0  0  0  0  0  0  0  0  0  0  0
    8.2052    2.3019   20.8380 H   0  0  0  0  0  0  0  0  0  0  0  0
    8.4809    3.3102   22.2570 H   0  0  0  0  0  0  0  0  0  0  0  0
    7.8437    1.3994   23.7518 H   0  0  0  0  0  0  0  0  0  0  0  0
    6.5631    1.7371   22.6127 H   0  0  0  0  0  0  0  0  0  0  0  0
    8.1047   -1.1290   22.9424 N   0  0  0  0  0  0  0  0  0  0  0  0
    8.8150   -3.9229   21.2261 H   0  0  0  0  0  0  0  0  0  0  0  0
    9.7089   -3.4185   22.6760 H   0  0  0  0  0  0  0  0  0  0  0  0
    6.8740   -4.5925   22.5343 H   0  0  0  0  0  0  0  0  0  0  0  0
    7.5691   -3.9246   24.0139 H   0  0  0  0  0  0  0  0  0  0  0  0
    7.7879   -6.4473   23.8237 H   0  0  0  0  0  0  0  0  0  0  0  0
    9.3524   -5.6534   24.0132 H   0  0  0  0  0  0  0  0  0  0  0  0
    8.8358   -6.2477   22.4203 H   0  0  0  0  0  0  0  0  0  0  0  0
  1  2  1  0
  2  3  1  0
  3  4  1  0
  4  5  2  0
  5  6  1  0
  6  7  1  0
  7  8  2  0
  8  9  1  0
  9 10  2  0
 10 11  1  0
 11 12  2  0
 12 13  1  0
 10 14  1  0
  9 15  1  0
  8 16  1  0
  6 17  1  0
 17 18  1  0
 18 19  1  0
 19 20  1  0
 20 21  2  0
 21 22  1  0
 22 23  1  0
 23 24  2  0
 22 25  1  0
 21 26  1  0
 19 27  1  0
 19 28  1  0
 18 29  1  0
 18 30  1  0
 17 31  2  0
  3 32  1  0
  3 33  1  0
  2 34  1  0
  2 35  1  0
  1 36  1  0
  1 37  1  0
  1 38  1  0
 31  4  1  0
 12  7  1  0
 24 20  1  0
M  END
>  <cnnaffinity>  (1) 
-5.69654

>  <filename>  (1) 
CCCc1nc(CCc2c[nH]nn2)n(-c2cccnc2)n1

$$$$
