
     RDKit          3D

 36 37  0  0  0  0  0  0  0  0999 V2000
    4.9171    1.8057   16.9734 H   0  0  0  0  0  0  0  0  0  0  0  0
    5.3920    1.3044   17.8172 C   0  0  0  0  0  0  0  0  0  0  0  0
    6.5563    0.6892   17.5515 N   0  0  0  0  0  0  0  0  0  0  0  0
    7.1657    0.0820   18.5833 C   0  0  0  0  0  0  0  0  0  0  0  0
    8.1024   -0.4190   18.3394 H   0  0  0  0  0  0  0  0  0  0  0  0
    6.6631    0.0205   19.9004 C   0  0  0  0  0  0  0  0  0  0  0  0
    7.3501   -0.6918   21.0037 C   0  0  0  0  0  0  0  0  0  0  0  0
    6.8094   -1.5965   21.9488 C   0  0  0  0  0  0  0  0  0  0  0  0
    5.7917   -1.9700   21.9949 H   0  0  0  0  0  0  0  0  0  0  0  0
    7.7177   -2.0296   22.8120 N   0  0  0  0  0  0  0  0  0  0  0  0
    8.8434   -1.3969   22.4323 N   0  0  0  0  0  0  0  0  0  0  0  0
    9.6744   -1.4752   23.0026 H   0  0  0  0  0  0  0  0  0  0  0  0
    8.6798   -0.5663   21.3731 C   0  0  0  0  0  0  0  0  0  0  0  0
    9.7117    0.3770   20.8523 C   0  0  0  0  0  0  0  0  0  0  0  0
   10.7169    0.1221   21.2194 H   0  0  0  0  0  0  0  0  0  0  0  0
    9.6955    0.2393   19.7705 H   0  0  0  0  0  0  0  0  0  0  0  0
    9.3943    1.8496   21.1660 C   0  0  0  0  0  0  0  0  0  0  0  0
    8.4258    2.0960   20.7086 H   0  0  0  0  0  0  0  0  0  0  0  0
   10.1430    2.5081   20.7051 H   0  0  0  0  0  0  0  0  0  0  0  0
    9.3708    2.1573   22.6593 C   0  0  0  0  0  0  0  0  0  0  0  0
    8.6096    1.5468   23.1642 H   0  0  0  0  0  0  0  0  0  0  0  0
   10.3373    1.8619   23.0988 H   0  0  0  0  0  0  0  0  0  0  0  0
    9.0900    3.6264   22.9567 C   0  0  0  0  0  0  0  0  0  0  0  0
    8.1246    3.9093   22.5061 H   0  0  0  0  0  0  0  0  0  0  0  0
    9.8448    4.2609   22.4660 H   0  0  0  0  0  0  0  0  0  0  0  0
    9.0712    3.9268   24.4551 C   0  0  0  0  0  0  0  0  0  0  0  0
    8.3217    3.2833   24.9402 H   0  0  0  0  0  0  0  0  0  0  0  0
   10.0378    3.6273   24.8849 H   0  0  0  0  0  0  0  0  0  0  0  0
    8.7852    5.3996   24.7510 C   0  0  0  0  0  0  0  0  0  0  0  0
    9.5404    6.0461   24.2875 H   0  0  0  0  0  0  0  0  0  0  0  0
    7.8134    5.6991   24.3398 H   0  0  0  0  0  0  0  0  0  0  0  0
    8.7754    5.6087   25.8245 H   0  0  0  0  0  0  0  0  0  0  0  0
    5.4363    0.6576   20.1374 C   0  0  0  0  0  0  0  0  0  0  0  0
    5.0184    0.6386   21.1456 H   0  0  0  0  0  0  0  0  0  0  0  0
    4.8013    1.3147   19.0836 C   0  0  0  0  0  0  0  0  0  0  0  0
    3.8715    1.8416   19.2367 H   0  0  0  0  0  0  0  0  0  0  0  0
  1  2  1  0
  2  3  2  0
  3  4  1  0
  4  5  1  0
  4  6  2  0
  6  7  1  0
  7  8  1  0
  8  9  1  0
  8 10  2  0
 10 11  1  0
 11 12  1  0
 11 13  1  0
 13 14  1  0
 14 15  1  0
 14 16  1  0
 14 17  1  0
 17 18  1  0
 17 19  1  0
 17 20  1  0
 20 21  1  0
 20 22  1  0
 20 23  1  0
 23 24  1  0
 23 25  1  0
 23 26  1  0
 26 27  1  0
 26 28  1  0
 26 29  1  0
 29 30  1  0
 29 31  1  0
 29 32  1  0
  6 33  1  0
 33 34  1  0
 33 35  2  0
 35 36  1  0
 35  2  1  0
 13  7  2  0
M  END
>  <cnnaffinity>  (1) 
-5.31978

>  <filename>  (1) 
CCCCCCc1[nH]ncc1-c1cccnc1

$$$$
