
     RDKit          3D

 45 47  0  0  0  0  0  0  0  0999 V2000
    6.1198   -1.2754   25.1456 C   0  0  0  0  0  0  0  0  0  0  0  0
    7.2366   -2.3122   25.0547 C   0  0  0  0  0  0  0  0  0  0  0  0
    7.2312   -3.0562   23.7027 C   0  0  0  0  0  0  0  0  0  0  0  0
    7.4450   -2.1356   22.5478 C   0  0  0  0  0  0  0  0  0  0  0  0
    6.5310   -1.7601   21.6758 N   0  0  0  0  0  0  0  0  0  0  0  0
    7.2102   -0.8929   20.8763 N   0  0  0  0  0  0  0  0  0  0  0  0
    6.5488   -0.1777   19.8351 C   0  0  0  0  0  0  0  0  0  0  0  0
    5.3935    0.5607   20.1094 C   0  0  0  0  0  0  0  0  0  0  0  0
    4.8235    1.3066   19.0740 C   0  0  0  0  0  0  0  0  0  0  0  0
    5.4120    1.2747   17.8046 C   0  0  0  0  0  0  0  0  0  0  0  0
    6.5043    0.5493   17.5242 N   0  0  0  0  0  0  0  0  0  0  0  0
    7.0546   -0.1548   18.5205 C   0  0  0  0  0  0  0  0  0  0  0  0
    7.9560   -0.7129   18.2733 H   0  0  0  0  0  0  0  0  0  0  0  0
    4.9838    1.8418   16.9812 H   0  0  0  0  0  0  0  0  0  0  0  0
    3.9453    1.9202   19.2388 H   0  0  0  0  0  0  0  0  0  0  0  0
    4.9705    0.5472   21.1145 H   0  0  0  0  0  0  0  0  0  0  0  0
    8.4886   -0.7724   21.3391 C   0  0  0  0  0  0  0  0  0  0  0  0
    9.5428    0.1105   20.7514 C   0  0  0  0  0  0  0  0  0  0  0  0
   10.3479    0.8130   21.8311 C   0  0  0  0  0  0  0  0  0  0  0  0
    9.8338    2.0028   22.3986 C   0  0  0  0  0  0  0  0  0  0  0  0
    8.5190    2.5984   21.9389 C   0  0  0  0  0  0  0  0  0  0  0  0
    8.6041    2.9572   20.9088 H   0  0  0  0  0  0  0  0  0  0  0  0
    7.7075    1.8620   21.9594 H   0  0  0  0  0  0  0  0  0  0  0  0
    8.2264    3.4456   22.5648 H   0  0  0  0  0  0  0  0  0  0  0  0
   10.5739    2.6488   23.3928 C   0  0  0  0  0  0  0  0  0  0  0  0
   11.7847    2.1234   23.8377 C   0  0  0  0  0  0  0  0  0  0  0  0
   12.2589    0.9227   23.3125 C   0  0  0  0  0  0  0  0  0  0  0  0
   11.5274    0.2183   22.3468 C   0  0  0  0  0  0  0  0  0  0  0  0
   11.9950   -1.1686   21.9520 C   0  0  0  0  0  0  0  0  0  0  0  0
   12.9702   -1.3926   22.3972 H   0  0  0  0  0  0  0  0  0  0  0  0
   11.2757   -1.9285   22.2782 H   0  0  0  0  0  0  0  0  0  0  0  0
   12.1154   -1.2810   20.8695 H   0  0  0  0  0  0  0  0  0  0  0  0
   13.2024    0.5063   23.6637 H   0  0  0  0  0  0  0  0  0  0  0  0
   12.3372    2.6390   24.6112 H   0  0  0  0  0  0  0  0  0  0  0  0
   10.1870    3.5692   23.8288 H   0  0  0  0  0  0  0  0  0  0  0  0
   10.1802   -0.5305   20.1376 H   0  0  0  0  0  0  0  0  0  0  0  0
    9.0720    0.8463   20.0925 H   0  0  0  0  0  0  0  0  0  0  0  0
    8.6640   -1.5708   22.3711 N   0  0  0  0  0  0  0  0  0  0  0  0
    6.2831   -3.5815   23.5502 H   0  0  0  0  0  0  0  0  0  0  0  0
    8.0484   -3.7874   23.6792 H   0  0  0  0  0  0  0  0  0  0  0  0
    8.2095   -1.8212   25.2016 H   0  0  0  0  0  0  0  0  0  0  0  0
    7.1397   -3.0481   25.8621 H   0  0  0  0  0  0  0  0  0  0  0  0
    5.1360   -1.7442   25.0282 H   0  0  0  0  0  0  0  0  0  0  0  0
    6.2172   -0.5222   24.3538 H   0  0  0  0  0  0  0  0  0  0  0  0
    6.1253   -0.7592   26.1116 H   0  0  0  0  0  0  0  0  0  0  0  0
  1  2  1  0
  2  3  1  0
  3  4  1  0
  4  5  2  0
  5  6  1  0
  6  7  1  0
  7  8  2  0
  8  9  1  0
  9 10  2  0
 10 11  1  0
 11 12  2  0
 12 13  1  0
 10 14  1  0
  9 15  1  0
  8 16  1  0
  6 17  1  0
 17 18  1  0
 18 19  1  0
 19 20  2  0
 20 21  1  0
 21 22  1  0
 21 23  1  0
 21 24  1  0
 20 25  1  0
 25 26  2  0
 26 27  1  0
 27 28  2  0
 28 29  1  0
 29 30  1  0
 29 31  1  0
 29 32  1  0
 27 33  1  0
 26 34  1  0
 25 35  1  0
 18 36  1  0
 18 37  1  0
 17 38  2  0
  3 39  1  0
  3 40  1  0
  2 41  1  0
  2 42  1  0
  1 43  1  0
  1 44  1  0
  1 45  1  0
 38  4  1  0
 12  7  1  0
 28 19  1  0
M  END
>  <cnnaffinity>  (1) 
-6.24941

>  <filename>  (1) 
CCCc1nc(Cc2c(C)cccc2C)n(-c2cccnc2)n1

$$$$
