
     RDKit          3D

 39 41  0  0  0  0  0  0  0  0999 V2000
    7.2622   -1.4407   25.4431 C   0  0  0  0  0  0  0  0  0  0  0  0
    6.4781   -2.6246   24.8662 C   0  0  0  0  0  0  0  0  0  0  0  0
    7.1893   -3.3396   23.6883 C   0  0  0  0  0  0  0  0  0  0  0  0
    7.5661   -2.3988   22.5893 C   0  0  0  0  0  0  0  0  0  0  0  0
    6.7457   -2.0153   21.6360 N   0  0  0  0  0  0  0  0  0  0  0  0
    7.4375   -1.0110   21.0178 N   0  0  0  0  0  0  0  0  0  0  0  0
    6.8262   -0.2816   19.9539 C   0  0  0  0  0  0  0  0  0  0  0  0
    5.5011    0.1583   20.0855 C   0  0  0  0  0  0  0  0  0  0  0  0
    4.9304    0.8832   19.0362 C   0  0  0  0  0  0  0  0  0  0  0  0
    5.6887    1.1330   17.8877 C   0  0  0  0  0  0  0  0  0  0  0  0
    6.9447    0.6857   17.7361 N   0  0  0  0  0  0  0  0  0  0  0  0
    7.4948   -0.0001   18.7470 C   0  0  0  0  0  0  0  0  0  0  0  0
    8.5081   -0.3663   18.5801 H   0  0  0  0  0  0  0  0  0  0  0  0
    5.2725    1.7105   17.0636 H   0  0  0  0  0  0  0  0  0  0  0  0
    3.9164    1.2625   19.1053 H   0  0  0  0  0  0  0  0  0  0  0  0
    4.9502   -0.0793   20.9948 H   0  0  0  0  0  0  0  0  0  0  0  0
    8.6278   -0.8399   21.6664 C   0  0  0  0  0  0  0  0  0  0  0  0
    9.5685    0.3093   21.4657 C   0  0  0  0  0  0  0  0  0  0  0  0
    9.0723    1.6268   22.0394 C   0  0  0  0  0  0  0  0  0  0  0  0
    8.3448    2.5425   21.3644 C   0  0  0  0  0  0  0  0  0  0  0  0
    7.7529    4.0422   22.2985 C   0  0  0  0  0  0  0  0  0  0  0  0
    8.0558    4.0002   22.2756 C   0  0  0  0  0  0  0  0  0  0  0  0
    8.9913    5.7183   22.3599 F   0  0  0  0  0  0  0  0  0  0  0  0
    8.7752    3.4756   23.6647 C   0  0  0  0  0  0  0  0  0  0  0  0
    9.3066    2.1813   23.4211 C   0  0  0  0  0  0  0  0  0  0  0  0
   10.2409    1.2883   24.5777 Cl  0  0  0  0  0  0  0  0  0  0  0  0
    9.4706    4.2146   24.0654 H   0  0  0  0  0  0  0  0  0  0  0  0
    6.7564    3.5738   22.3463 H   0  0  0  0  0  0  0  0  0  0  0  0
    8.0502    2.4360   20.3233 H   0  0  0  0  0  0  0  0  0  0  0  0
    9.7620    0.4169   20.3933 H   0  0  0  0  0  0  0  0  0  0  0  0
   10.5095    0.0038   21.9345 H   0  0  0  0  0  0  0  0  0  0  0  0
    8.7562   -1.7410   22.6172 N   0  0  0  0  0  0  0  0  0  0  0  0
    8.1214   -3.7974   24.0360 H   0  0  0  0  0  0  0  0  0  0  0  0
    6.5522   -4.1287   23.2777 H   0  0  0  0  0  0  0  0  0  0  0  0
    6.2986   -3.3661   25.6554 H   0  0  0  0  0  0  0  0  0  0  0  0
    5.4873   -2.2809   24.5384 H   0  0  0  0  0  0  0  0  0  0  0  0
    8.2723   -1.7391   25.7486 H   0  0  0  0  0  0  0  0  0  0  0  0
    6.7499   -1.0277   26.3179 H   0  0  0  0  0  0  0  0  0  0  0  0
    7.3792   -0.6328   24.7102 H   0  0  0  0  0  0  0  0  0  0  0  0
  1  2  1  0
  2  3  1  0
  3  4  1  0
  4  5  2  0
  5  6  1  0
  6  7  1  0
  7  8  2  0
  8  9  1  0
  9 10  2  0
 10 11  1  0
 11 12  2  0
 12 13  1  0
 10 14  1  0
  9 15  1  0
  8 16  1  0
  6 17  1  0
 17 18  1  0
 18 19  1  0
 19 20  2  0
 20 21  1  0
 21 22  2  0
 22 23  1  0
 22 24  1  0
 24 25  2  0
 25 26  1  0
 24 27  1  0
 21 28  1  0
 20 29  1  0
 18 30  1  0
 18 31  1  0
 17 32  2  0
  3 33  1  0
  3 34  1  0
  2 35  1  0
  2 36  1  0
  1 37  1  0
  1 38  1  0
  1 39  1  0
 32  4  1  0
 12  7  1  0
 25 19  1  0
M  END
>  <cnnaffinity>  (1) 
-5.94351

>  <filename>  (1) 
CCCc1nc(Cc2ccc(F)cc2Cl)n(-c2cccnc2)n1

$$$$
