
     RDKit          3D

 42 44  0  0  0  0  0  0  0  0999 V2000
    8.3090   -5.8010   23.3376 C   0  0  0  0  0  0  0  0  0  0  0  0
    7.7020   -4.4298   23.0594 C   0  0  0  0  0  0  0  0  0  0  0  0
    8.6636   -3.5639   22.2285 C   0  0  0  0  0  0  0  0  0  0  0  0
    8.2026   -2.1744   21.9717 C   0  0  0  0  0  0  0  0  0  0  0  0
    7.7235   -1.8380   20.7936 N   0  0  0  0  0  0  0  0  0  0  0  0
    7.3343   -0.5546   20.9751 N   0  0  0  0  0  0  0  0  0  0  0  0
    6.6364    0.0924   19.9240 C   0  0  0  0  0  0  0  0  0  0  0  0
    5.4115    0.7292   20.1411 C   0  0  0  0  0  0  0  0  0  0  0  0
    4.8000    1.3440   19.0424 C   0  0  0  0  0  0  0  0  0  0  0  0
    5.4248    1.3005   17.7915 C   0  0  0  0  0  0  0  0  0  0  0  0
    6.5718    0.6350   17.5687 N   0  0  0  0  0  0  0  0  0  0  0  0
    7.1463    0.0294   18.6134 C   0  0  0  0  0  0  0  0  0  0  0  0
    8.0401   -0.5582   18.4123 H   0  0  0  0  0  0  0  0  0  0  0  0
    4.9947    1.8219   16.9362 H   0  0  0  0  0  0  0  0  0  0  0  0
    3.8537    1.8591   19.1525 H   0  0  0  0  0  0  0  0  0  0  0  0
    4.9281    0.6897   21.1200 H   0  0  0  0  0  0  0  0  0  0  0  0
    7.6598   -0.1623   22.2478 C   0  0  0  0  0  0  0  0  0  0  0  0
    7.6518    1.2451   22.7619 C   0  0  0  0  0  0  0  0  0  0  0  0
    9.0195    1.9391   22.5288 C   0  0  0  0  0  0  0  0  0  0  0  0
    9.3579    1.9877   21.0452 C   0  0  0  0  0  0  0  0  0  0  0  0
    8.5372    2.4620   20.4915 H   0  0  0  0  0  0  0  0  0  0  0  0
    9.4814    0.9739   20.6511 H   0  0  0  0  0  0  0  0  0  0  0  0
   10.2801    2.5474   20.8623 H   0  0  0  0  0  0  0  0  0  0  0  0
    9.0285    3.2802   23.1168 N   0  0  0  0  0  0  0  0  0  0  0  0
    9.8666    3.7236   24.1185 C   0  0  0  0  0  0  0  0  0  0  0  0
    9.5094    5.0197   24.3540 C   0  0  0  0  0  0  0  0  0  0  0  0
    8.4914    5.3967   23.5193 N   0  0  0  0  0  0  0  0  0  0  0  0
    8.2360    4.3388   22.7834 C   0  0  0  0  0  0  0  0  0  0  0  0
    7.4930    4.2913   21.9971 H   0  0  0  0  0  0  0  0  0  0  0  0
    9.9327    5.7033   25.0817 H   0  0  0  0  0  0  0  0  0  0  0  0
   10.6395    3.0952   24.5323 H   0  0  0  0  0  0  0  0  0  0  0  0
    9.7901    1.3729   23.0699 H   0  0  0  0  0  0  0  0  0  0  0  0
    7.4212    1.2384   23.8309 H   0  0  0  0  0  0  0  0  0  0  0  0
    6.8745    1.8281   22.2646 H   0  0  0  0  0  0  0  0  0  0  0  0
    8.2049   -1.1759   22.8938 N   0  0  0  0  0  0  0  0  0  0  0  0
    9.6418   -3.5073   22.7203 H   0  0  0  0  0  0  0  0  0  0  0  0
    8.7731   -4.0203   21.2397 H   0  0  0  0  0  0  0  0  0  0  0  0
    7.4559   -3.9200   24.0052 H   0  0  0  0  0  0  0  0  0  0  0  0
    6.7630   -4.5612   22.5054 H   0  0  0  0  0  0  0  0  0  0  0  0
    7.5765   -6.4420   23.8256 H   0  0  0  0  0  0  0  0  0  0  0  0
    9.1777   -5.7209   24.0005 H   0  0  0  0  0  0  0  0  0  0  0  0
    8.6282   -6.3001   22.4120 H   0  0  0  0  0  0  0  0  0  0  0  0
  1  2  1  0
  2  3  1  0
  3  4  1  0
  4  5  2  0
  5  6  1  0
  6  7  1  0
  7  8  2  0
  8  9  1  0
  9 10  2  0
 10 11  1  0
 11 12  2  0
 12 13  1  0
 10 14  1  0
  9 15  1  0
  8 16  1  0
  6 17  1  0
 17 18  1  0
 18 19  1  0
 19 20  1  0
 20 21  1  0
 20 22  1  0
 20 23  1  0
 19 24  1  0
 24 25  1  0
 25 26  2  0
 26 27  1  0
 27 28  2  0
 28 29  1  0
 26 30  1  0
 25 31  1  0
 19 32  1  0
 18 33  1  0
 18 34  1  0
 17 35  2  0
  3 36  1  0
  3 37  1  0
  2 38  1  0
  2 39  1  0
  1 40  1  0
  1 41  1  0
  1 42  1  0
 35  4  1  0
 12  7  1  0
 28 24  1  0
M  END
>  <cnnaffinity>  (1) 
-5.71129

>  <filename>  (1) 
CCCc1nc(CC(C)n2ccnc2)n(-c2cccnc2)n1

$$$$
