
     RDKit          3D

 45 47  0  0  0  0  0  0  0  0999 V2000
    5.5740   -2.5415   27.0656 C   0  0  0  0  0  0  0  0  0  0  0  0
    6.3813   -3.2466   25.9767 C   0  0  0  0  0  0  0  0  0  0  0  0
    6.5015   -2.4036   24.7092 C   0  0  0  0  0  0  0  0  0  0  0  0
    7.4028   -3.0164   23.6133 C   0  0  0  0  0  0  0  0  0  0  0  0
    6.8327   -4.3236   23.0354 C   0  0  0  0  0  0  0  0  0  0  0  0
    6.7765   -5.1079   23.7970 H   0  0  0  0  0  0  0  0  0  0  0  0
    5.8250   -4.1548   22.6369 H   0  0  0  0  0  0  0  0  0  0  0  0
    7.4565   -4.6914   22.2141 H   0  0  0  0  0  0  0  0  0  0  0  0
    7.6621   -2.0132   22.5227 C   0  0  0  0  0  0  0  0  0  0  0  0
    6.7167   -1.6039   21.6954 N   0  0  0  0  0  0  0  0  0  0  0  0
    7.3533   -0.6828   20.9290 N   0  0  0  0  0  0  0  0  0  0  0  0
    6.6516   -0.0019   19.8991 C   0  0  0  0  0  0  0  0  0  0  0  0
    5.4372    0.6405   20.1668 C   0  0  0  0  0  0  0  0  0  0  0  0
    4.8130    1.3104   19.1092 C   0  0  0  0  0  0  0  0  0  0  0  0
    5.3986    1.2965   17.8368 C   0  0  0  0  0  0  0  0  0  0  0  0
    6.5552    0.6696   17.5727 N   0  0  0  0  0  0  0  0  0  0  0  0
    7.1629    0.0467   18.5897 C   0  0  0  0  0  0  0  0  0  0  0  0
    8.1109   -0.4349   18.3641 H   0  0  0  0  0  0  0  0  0  0  0  0
    4.9212    1.7886   16.9930 H   0  0  0  0  0  0  0  0  0  0  0  0
    3.8812    1.8391   19.2597 H   0  0  0  0  0  0  0  0  0  0  0  0
    5.0101    0.6072   21.1742 H   0  0  0  0  0  0  0  0  0  0  0  0
    8.6287   -0.5438   21.3954 C   0  0  0  0  0  0  0  0  0  0  0  0
    9.6178    0.4469   20.9055 C   0  0  0  0  0  0  0  0  0  0  0  0
   10.0137    1.3737   21.9465 N   0  0  0  0  0  0  0  0  0  0  0  0
   11.1782    1.1981   22.5905 N   0  0  0  0  0  0  0  0  0  0  0  0
   11.1714    2.0785   23.5773 C   0  0  0  0  0  0  0  0  0  0  0  0
    9.9714    2.8135   23.5698 C   0  0  0  0  0  0  0  0  0  0  0  0
    9.4880    4.0665   24.6461 Cl  0  0  0  0  0  0  0  0  0  0  0  0
    9.2310    2.3314   22.5144 C   0  0  0  0  0  0  0  0  0  0  0  0
    7.8417    2.6814   22.0836 C   0  0  0  0  0  0  0  0  0  0  0  0
    7.5769    3.6620   22.4843 H   0  0  0  0  0  0  0  0  0  0  0  0
    7.1085    1.9578   22.4642 H   0  0  0  0  0  0  0  0  0  0  0  0
    7.7338    2.6997   20.9957 H   0  0  0  0  0  0  0  0  0  0  0  0
   11.9988    2.1675   24.2685 H   0  0  0  0  0  0  0  0  0  0  0  0
    9.2167    1.0110   20.0680 H   0  0  0  0  0  0  0  0  0  0  0  0
   10.5048   -0.1003   20.6074 H   0  0  0  0  0  0  0  0  0  0  0  0
    8.8641   -1.4083   22.3563 N   0  0  0  0  0  0  0  0  0  0  0  0
    8.3894   -3.2045   24.0490 H   0  0  0  0  0  0  0  0  0  0  0  0
    5.5029   -2.2305   24.2887 H   0  0  0  0  0  0  0  0  0  0  0  0
    6.8850   -1.4087   24.9751 H   0  0  0  0  0  0  0  0  0  0  0  0
    7.3866   -3.4782   26.3521 H   0  0  0  0  0  0  0  0  0  0  0  0
    5.9161   -4.2124   25.7449 H   0  0  0  0  0  0  0  0  0  0  0  0
    4.5592   -2.3135   26.7187 H   0  0  0  0  0  0  0  0  0  0  0  0
    6.0389   -1.5899   27.3493 H   0  0  0  0  0  0  0  0  0  0  0  0
    5.4882   -3.1539   27.9688 H   0  0  0  0  0  0  0  0  0  0  0  0
  1  2  1  0
  2  3  1  0
  3  4  1  0
  4  5  1  0
  5  6  1  0
  5  7  1  0
  5  8  1  0
  4  9  1  0
  9 10  2  0
 10 11  1  0
 11 12  1  0
 12 13  2  0
 13 14  1  0
 14 15  2  0
 15 16  1  0
 16 17  2  0
 17 18  1  0
 15 19  1  0
 14 20  1  0
 13 21  1  0
 11 22  1  0
 22 23  1  0
 23 24  1  0
 24 25  1  0
 25 26  2  0
 26 27  1  0
 27 28  1  0
 27 29  2  0
 29 30  1  0
 30 31  1  0
 30 32  1  0
 30 33  1  0
 26 34  1  0
 23 35  1  0
 23 36  1  0
 22 37  2  0
  4 38  1  0
  3 39  1  0
  3 40  1  0
  2 41  1  0
  2 42  1  0
  1 43  1  0
  1 44  1  0
  1 45  1  0
 37  9  1  0
 17 12  1  0
 29 24  1  0
M  END
>  <cnnaffinity>  (1) 
-6.24181

>  <filename>  (1) 
CCCC(C)c1nc(Cn2ncc(Cl)c2C)n(-c2cccnc2)n1

$$$$
