
     RDKit          3D

 43 45  0  0  0  0  0  0  0  0999 V2000
    5.0016    1.8513   16.9430 H   0  0  0  0  0  0  0  0  0  0  0  0
    5.3938    1.2872   17.7886 C   0  0  0  0  0  0  0  0  0  0  0  0
    6.5263    0.6015   17.5697 N   0  0  0  0  0  0  0  0  0  0  0  0
    7.0627   -0.0469   18.6099 C   0  0  0  0  0  0  0  0  0  0  0  0
    7.9959   -0.5727   18.4271 H   0  0  0  0  0  0  0  0  0  0  0  0
    6.5050   -0.0760   19.9066 C   0  0  0  0  0  0  0  0  0  0  0  0
    7.2152   -0.7129   20.9551 N   0  0  0  0  0  0  0  0  0  0  0  0
    6.7567   -1.5270   21.9975 C   0  0  0  0  0  0  0  0  0  0  0  0
    5.7365   -1.8778   22.0164 H   0  0  0  0  0  0  0  0  0  0  0  0
    7.7767   -1.7778   22.8592 C   0  0  0  0  0  0  0  0  0  0  0  0
    7.8443   -2.2834   23.8083 H   0  0  0  0  0  0  0  0  0  0  0  0
    8.8818   -1.1304   22.3349 N   0  0  0  0  0  0  0  0  0  0  0  0
   10.1439   -0.8903   22.7612 N   0  0  0  0  0  0  0  0  0  0  0  0
   10.6152   -0.0475   21.8354 C   0  0  0  0  0  0  0  0  0  0  0  0
   11.9422    0.6455   22.0070 C   0  0  0  0  0  0  0  0  0  0  0  0
   12.7380   -0.0770   22.2129 H   0  0  0  0  0  0  0  0  0  0  0  0
   12.1564    1.1362   21.0539 H   0  0  0  0  0  0  0  0  0  0  0  0
   11.9132    1.7953   23.0378 C   0  0  0  0  0  0  0  0  0  0  0  0
   11.5726    1.4195   24.0147 H   0  0  0  0  0  0  0  0  0  0  0  0
   12.9353    2.1864   23.1689 H   0  0  0  0  0  0  0  0  0  0  0  0
   10.9867    2.9016   22.5087 C   0  0  0  0  0  0  0  0  0  0  0  0
    9.9890    2.4819   22.3260 H   0  0  0  0  0  0  0  0  0  0  0  0
   11.3571    3.2082   21.5161 H   0  0  0  0  0  0  0  0  0  0  0  0
   10.8331    4.1469   23.3746 C   0  0  0  0  0  0  0  0  0  0  0  0
   10.4603    3.8569   24.3683 H   0  0  0  0  0  0  0  0  0  0  0  0
   10.0501    4.7812   22.9292 H   0  0  0  0  0  0  0  0  0  0  0  0
   12.1278    4.9559   23.4903 C   0  0  0  0  0  0  0  0  0  0  0  0
   12.4669    5.2088   22.4740 H   0  0  0  0  0  0  0  0  0  0  0  0
   12.9140    4.3235   23.9303 H   0  0  0  0  0  0  0  0  0  0  0  0
   11.9912    6.2411   24.3101 C   0  0  0  0  0  0  0  0  0  0  0  0
   11.2036    6.8670   23.8666 H   0  0  0  0  0  0  0  0  0  0  0  0
   12.9254    6.8106   24.2256 H   0  0  0  0  0  0  0  0  0  0  0  0
   11.6803    5.9947   25.7857 C   0  0  0  0  0  0  0  0  0  0  0  0
   12.4727    5.3962   26.2499 H   0  0  0  0  0  0  0  0  0  0  0  0
   11.5973    6.9376   26.3349 H   0  0  0  0  0  0  0  0  0  0  0  0
   10.7353    5.4530   25.9111 H   0  0  0  0  0  0  0  0  0  0  0  0
    9.6771    0.2239   20.8130 C   0  0  0  0  0  0  0  0  0  0  0  0
    9.7549    0.8944   19.9854 H   0  0  0  0  0  0  0  0  0  0  0  0
    8.5585   -0.4890   21.2049 C   0  0  0  0  0  0  0  0  0  0  0  0
    5.3024    0.6137   20.1145 C   0  0  0  0  0  0  0  0  0  0  0  0
    4.8361    0.6464   21.1011 H   0  0  0  0  0  0  0  0  0  0  0  0
    4.7462    1.3064   19.0304 C   0  0  0  0  0  0  0  0  0  0  0  0
    3.8384    1.8874   19.1385 H   0  0  0  0  0  0  0  0  0  0  0  0
  1  2  1  0
  2  3  2  0
  3  4  1  0
  4  5  1  0
  4  6  2  0
  6  7  1  0
  7  8  1  0
  8  9  1  0
  8 10  2  0
 10 11  1  0
 10 12  1  0
 12 13  1  0
 13 14  2  0
 14 15  1  0
 15 16  1  0
 15 17  1  0
 15 18  1  0
 18 19  1  0
 18 20  1  0
 18 21  1  0
 21 22  1  0
 21 23  1  0
 21 24  1  0
 24 25  1  0
 24 26  1  0
 24 27  1  0
 27 28  1  0
 27 29  1  0
 27 30  1  0
 30 31  1  0
 30 32  1  0
 30 33  1  0
 33 34  1  0
 33 35  1  0
 33 36  1  0
 14 37  1  0
 37 38  1  0
 37 39  2  0
  6 40  1  0
 40 41  1  0
 40 42  2  0
 42 43  1  0
 42  2  1  0
 39  7  1  0
 39 12  1  0
M  END
>  <cnnaffinity>  (1) 
-5.47628

>  <filename>  (1) 
CCCCCCCc1cc2n(-c3cccnc3)ccn2n1

$$$$
