
     RDKit          3D

 38 40  0  0  0  0  0  0  0  0999 V2000
    8.5002   -4.8246   22.4411 C   0  0  0  0  0  0  0  0  0  0  0  0
    7.1391   -4.4925   23.0473 C   0  0  0  0  0  0  0  0  0  0  0  0
    7.1709   -3.0579   23.6212 C   0  0  0  0  0  0  0  0  0  0  0  0
    7.4545   -2.0099   22.5813 C   0  0  0  0  0  0  0  0  0  0  0  0
    6.5739   -1.6394   21.6759 N   0  0  0  0  0  0  0  0  0  0  0  0
    7.2709   -0.7634   20.9026 N   0  0  0  0  0  0  0  0  0  0  0  0
    6.5964   -0.0597   19.8677 C   0  0  0  0  0  0  0  0  0  0  0  0
    5.3945    0.6051   20.1310 C   0  0  0  0  0  0  0  0  0  0  0  0
    4.7984    1.3129   19.0858 C   0  0  0  0  0  0  0  0  0  0  0  0
    5.3998    1.3069   17.8187 C   0  0  0  0  0  0  0  0  0  0  0  0
    6.5331    0.6409   17.5522 N   0  0  0  0  0  0  0  0  0  0  0  0
    7.1094   -0.0226   18.5602 C   0  0  0  0  0  0  0  0  0  0  0  0
    8.0272   -0.5588   18.3372 H   0  0  0  0  0  0  0  0  0  0  0  0
    4.9540    1.8508   16.9883 H   0  0  0  0  0  0  0  0  0  0  0  0
    3.8803    1.8687   19.2371 H   0  0  0  0  0  0  0  0  0  0  0  0
    4.9514    0.5598   21.1307 H   0  0  0  0  0  0  0  0  0  0  0  0
    8.5300   -0.6228   21.4162 C   0  0  0  0  0  0  0  0  0  0  0  0
    9.6474    0.2127   20.8535 C   0  0  0  0  0  0  0  0  0  0  0  0
   10.3611    1.0635   21.8904 C   0  0  0  0  0  0  0  0  0  0  0  0
   11.6503    0.7530   22.3462 C   0  0  0  0  0  0  0  0  0  0  0  0
   12.2803    1.3701   23.3482 N   0  0  0  0  0  0  0  0  0  0  0  0
   11.6347    2.3726   23.9538 C   0  0  0  0  0  0  0  0  0  0  0  0
   10.3821    2.8269   23.5579 C   0  0  0  0  0  0  0  0  0  0  0  0
    9.7480    2.1632   22.5104 C   0  0  0  0  0  0  0  0  0  0  0  0
    8.1859    2.7230   21.9962 Cl  0  0  0  0  0  0  0  0  0  0  0  0
    9.9189    3.6721   24.0483 H   0  0  0  0  0  0  0  0  0  0  0  0
   12.1367    2.8449   24.7959 H   0  0  0  0  0  0  0  0  0  0  0  0
   12.2002   -0.0636   21.8685 H   0  0  0  0  0  0  0  0  0  0  0  0
   10.3658   -0.4819   20.4018 H   0  0  0  0  0  0  0  0  0  0  0  0
    9.2585    0.8594   20.0670 H   0  0  0  0  0  0  0  0  0  0  0  0
    8.6701   -1.4115   22.4648 N   0  0  0  0  0  0  0  0  0  0  0  0
    7.9853   -2.9951   24.3493 H   0  0  0  0  0  0  0  0  0  0  0  0
    6.2445   -2.8079   24.1496 H   0  0  0  0  0  0  0  0  0  0  0  0
    6.3365   -4.5892   22.3003 H   0  0  0  0  0  0  0  0  0  0  0  0
    6.9259   -5.1935   23.8676 H   0  0  0  0  0  0  0  0  0  0  0  0
    8.5439   -5.8268   22.0053 H   0  0  0  0  0  0  0  0  0  0  0  0
    8.7712   -4.0855   21.6757 H   0  0  0  0  0  0  0  0  0  0  0  0
    9.2697   -4.7795   23.2218 H   0  0  0  0  0  0  0  0  0  0  0  0
  1  2  1  0
  2  3  1  0
  3  4  1  0
  4  5  2  0
  5  6  1  0
  6  7  1  0
  7  8  2  0
  8  9  1  0
  9 10  2  0
 10 11  1  0
 11 12  2  0
 12 13  1  0
 10 14  1  0
  9 15  1  0
  8 16  1  0
  6 17  1  0
 17 18  1  0
 18 19  1  0
 19 20  2  0
 20 21  1  0
 21 22  2  0
 22 23  1  0
 23 24  2  0
 24 25  1  0
 23 26  1  0
 22 27  1  0
 20 28  1  0
 18 29  1  0
 18 30  1  0
 17 31  2  0
  3 32  1  0
  3 33  1  0
  2 34  1  0
  2 35  1  0
  1 36  1  0
  1 37  1  0
  1 38  1  0
 31  4  1  0
 12  7  1  0
 24 19  1  0
M  END
>  <cnnaffinity>  (1) 
-5.88867

>  <filename>  (1) 
CCCc1nc(Cc2cnccc2Cl)n(-c2cccnc2)n1

$$$$
