
     RDKit          3D

 42 44  0  0  0  0  0  0  0  0999 V2000
    9.9691   -5.5955   25.0114 C   0  0  0  0  0  0  0  0  0  0  0  0
    8.6858   -5.5398   24.1731 C   0  0  0  0  0  0  0  0  0  0  0  0
    8.1927   -4.1041   23.9137 C   0  0  0  0  0  0  0  0  0  0  0  0
    8.8009   -3.4634   22.6372 C   0  0  0  0  0  0  0  0  0  0  0  0
   10.2567   -3.0179   22.8837 C   0  0  0  0  0  0  0  0  0  0  0  0
   10.2595   -2.1649   23.5678 H   0  0  0  0  0  0  0  0  0  0  0  0
   10.7259   -2.7092   21.9439 H   0  0  0  0  0  0  0  0  0  0  0  0
   10.8756   -3.7996   23.3257 H   0  0  0  0  0  0  0  0  0  0  0  0
    8.0456   -2.2328   22.2006 C   0  0  0  0  0  0  0  0  0  0  0  0
    7.6643   -2.0036   20.9628 N   0  0  0  0  0  0  0  0  0  0  0  0
    7.1103   -0.7688   21.0304 N   0  0  0  0  0  0  0  0  0  0  0  0
    6.5455   -0.0948   19.9366 C   0  0  0  0  0  0  0  0  0  0  0  0
    5.4709    0.7759   20.1226 C   0  0  0  0  0  0  0  0  0  0  0  0
    4.9612    1.4611   19.0215 C   0  0  0  0  0  0  0  0  0  0  0  0
    5.5379    1.2770   17.7605 C   0  0  0  0  0  0  0  0  0  0  0  0
    6.5568    0.4185   17.5642 N   0  0  0  0  0  0  0  0  0  0  0  0
    7.0387   -0.2635   18.6265 C   0  0  0  0  0  0  0  0  0  0  0  0
    7.8651   -0.9491   18.4621 H   0  0  0  0  0  0  0  0  0  0  0  0
    5.1434    1.8409   16.9181 H   0  0  0  0  0  0  0  0  0  0  0  0
    4.1256    2.1425   19.1366 H   0  0  0  0  0  0  0  0  0  0  0  0
    5.0329    0.9001   21.1081 H   0  0  0  0  0  0  0  0  0  0  0  0
    7.2204   -0.3028   22.3423 C   0  0  0  0  0  0  0  0  0  0  0  0
    6.7879    0.9985   22.9594 C   0  0  0  0  0  0  0  0  0  0  0  0
    7.6745    2.1249   22.6076 N   0  0  0  0  0  0  0  0  0  0  0  0
    9.0588    2.2064   22.7715 C   0  0  0  0  0  0  0  0  0  0  0  0
    9.4801    3.4352   22.5726 N   0  0  0  0  0  0  0  0  0  0  0  0
    8.3515    4.1817   22.2524 C   0  0  0  0  0  0  0  0  0  0  0  0
    8.3668    6.0658   21.8998 Br  0  0  0  0  0  0  0  0  0  0  0  0
    7.2378    3.3902   22.2735 C   0  0  0  0  0  0  0  0  0  0  0  0
    6.2138    3.7152   22.1075 H   0  0  0  0  0  0  0  0  0  0  0  0
    9.7056    1.3711   23.0386 H   0  0  0  0  0  0  0  0  0  0  0  0
    6.7769    0.8731   24.0483 H   0  0  0  0  0  0  0  0  0  0  0  0
    5.7694    1.2344   22.6385 H   0  0  0  0  0  0  0  0  0  0  0  0
    7.8030   -1.1989   23.0826 N   0  0  0  0  0  0  0  0  0  0  0  0
    8.7472   -4.1765   21.8113 H   0  0  0  0  0  0  0  0  0  0  0  0
    7.1006   -4.1401   23.8142 H   0  0  0  0  0  0  0  0  0  0  0  0
    8.4184   -3.4779   24.7851 H   0  0  0  0  0  0  0  0  0  0  0  0
    8.8181   -6.0700   23.2230 H   0  0  0  0  0  0  0  0  0  0  0  0
    7.9146   -6.0733   24.7386 H   0  0  0  0  0  0  0  0  0  0  0  0
   10.8299   -5.1825   24.4797 H   0  0  0  0  0  0  0  0  0  0  0  0
   10.1894   -6.6359   25.2663 H   0  0  0  0  0  0  0  0  0  0  0  0
    9.8400   -5.0379   25.9439 H   0  0  0  0  0  0  0  0  0  0  0  0
  1  2  1  0
  2  3  1  0
  3  4  1  0
  4  5  1  0
  5  6  1  0
  5  7  1  0
  5  8  1  0
  4  9  1  0
  9 10  2  0
 10 11  1  0
 11 12  1  0
 12 13  2  0
 13 14  1  0
 14 15  2  0
 15 16  1  0
 16 17  2  0
 17 18  1  0
 15 19  1  0
 14 20  1  0
 13 21  1  0
 11 22  1  0
 22 23  1  0
 23 24  1  0
 24 25  1  0
 25 26  2  0
 26 27  1  0
 27 28  1  0
 27 29  2  0
 29 30  1  0
 25 31  1  0
 23 32  1  0
 23 33  1  0
 22 34  2  0
  4 35  1  0
  3 36  1  0
  3 37  1  0
  2 38  1  0
  2 39  1  0
  1 40  1  0
  1 41  1  0
  1 42  1  0
 34  9  1  0
 17 12  1  0
 29 24  1  0
M  END
>  <cnnaffinity>  (1) 
-5.99523

>  <filename>  (1) 
CCCC(C)c1nc(Cn2cnc(Br)c2)n(-c2cccnc2)n1

$$$$
