
     RDKit          3D

 46 46  0  0  0  0  0  0  0  0999 V2000
    4.9381    1.8405   17.0253 H   0  0  0  0  0  0  0  0  0  0  0  0
    5.4162    1.2980   17.8365 C   0  0  0  0  0  0  0  0  0  0  0  0
    6.5738    0.6820   17.5442 N   0  0  0  0  0  0  0  0  0  0  0  0
    7.1980    0.0198   18.5401 C   0  0  0  0  0  0  0  0  0  0  0  0
    8.1532   -0.4442   18.2839 H   0  0  0  0  0  0  0  0  0  0  0  0
    6.7034   -0.0818   19.8646 C   0  0  0  0  0  0  0  0  0  0  0  0
    7.3671   -0.8027   20.8938 N   0  0  0  0  0  0  0  0  0  0  0  0
    6.6788   -1.1159   21.5704 H   0  0  0  0  0  0  0  0  0  0  0  0
    8.4800   -0.1708   21.6551 C   0  0  0  0  0  0  0  0  0  0  0  0
    9.6822   -0.0333   20.7191 C   0  0  0  0  0  0  0  0  0  0  0  0
    9.4938    0.7343   19.9633 H   0  0  0  0  0  0  0  0  0  0  0  0
    9.8668   -0.9827   20.2138 H   0  0  0  0  0  0  0  0  0  0  0  0
   10.5995    0.2506   21.2488 H   0  0  0  0  0  0  0  0  0  0  0  0
    8.7896   -1.1580   22.7849 C   0  0  0  0  0  0  0  0  0  0  0  0
    8.9472   -2.1579   22.3710 H   0  0  0  0  0  0  0  0  0  0  0  0
    9.6831   -0.8845   23.3597 H   0  0  0  0  0  0  0  0  0  0  0  0
    7.9455   -1.2114   23.4833 H   0  0  0  0  0  0  0  0  0  0  0  0
    8.0691    1.2174   22.2187 C   0  0  0  0  0  0  0  0  0  0  0  0
    7.1391    1.0986   22.7966 H   0  0  0  0  0  0  0  0  0  0  0  0
    7.8131    1.8688   21.3689 H   0  0  0  0  0  0  0  0  0  0  0  0
    9.1120    1.9271   23.0908 C   0  0  0  0  0  0  0  0  0  0  0  0
    9.3275    1.3217   23.9820 H   0  0  0  0  0  0  0  0  0  0  0  0
   10.0585    2.0162   22.5396 H   0  0  0  0  0  0  0  0  0  0  0  0
    8.6724    3.3211   23.5414 C   0  0  0  0  0  0  0  0  0  0  0  0
    7.7162    3.2368   24.0777 H   0  0  0  0  0  0  0  0  0  0  0  0
    8.4798    3.9385   22.6520 H   0  0  0  0  0  0  0  0  0  0  0  0
    9.6950    4.0083   24.4495 C   0  0  0  0  0  0  0  0  0  0  0  0
   10.6626    4.0644   23.9292 H   0  0  0  0  0  0  0  0  0  0  0  0
    9.8506    3.3658   25.3258 H   0  0  0  0  0  0  0  0  0  0  0  0
    9.2922    5.4077   24.9199 C   0  0  0  0  0  0  0  0  0  0  0  0
    9.0965    6.0380   24.0402 H   0  0  0  0  0  0  0  0  0  0  0  0
    8.3430    5.3410   25.4694 H   0  0  0  0  0  0  0  0  0  0  0  0
   10.3394    6.1046   25.7976 C   0  0  0  0  0  0  0  0  0  0  0  0
   11.2974    6.1257   25.2615 H   0  0  0  0  0  0  0  0  0  0  0  0
   10.5118    5.5076   26.7054 H   0  0  0  0  0  0  0  0  0  0  0  0
    9.9721    7.5387   26.2113 C   0  0  0  0  0  0  0  0  0  0  0  0
    9.7633    8.1358   25.3121 H   0  0  0  0  0  0  0  0  0  0  0  0
   10.8409    8.0098   26.6885 H   0  0  0  0  0  0  0  0  0  0  0  0
    8.7759    7.6199   27.1604 C   0  0  0  0  0  0  0  0  0  0  0  0
    8.9511    7.0216   28.0625 H   0  0  0  0  0  0  0  0  0  0  0  0
    8.5800    8.6483   27.4804 H   0  0  0  0  0  0  0  0  0  0  0  0
    7.8639    7.2488   26.6809 H   0  0  0  0  0  0  0  0  0  0  0  0
    5.4841    0.5712   20.1298 C   0  0  0  0  0  0  0  0  0  0  0  0
    5.0882    0.5810   21.1436 H   0  0  0  0  0  0  0  0  0  0  0  0
    4.8328    1.2682   19.1048 C   0  0  0  0  0  0  0  0  0  0  0  0
    3.9021    1.8007   19.2766 H   0  0  0  0  0  0  0  0  0  0  0  0
  1  2  1  0
  2  3  2  0
  3  4  1  0
  4  5  1  0
  4  6  2  0
  6  7  1  0
  7  8  1  0
  7  9  1  0
  9 10  1  0
 10 11  1  0
 10 12  1  0
 10 13  1  0
  9 14  1  0
 14 15  1  0
 14 16  1  0
 14 17  1  0
  9 18  1  0
 18 19  1  0
 18 20  1  0
 18 21  1  0
 21 22  1  0
 21 23  1  0
 21 24  1  0
 24 25  1  0
 24 26  1  0
 24 27  1  0
 27 28  1  0
 27 29  1  0
 27 30  1  0
 30 31  1  0
 30 32  1  0
 30 33  1  0
 33 34  1  0
 33 35  1  0
 33 36  1  0
 36 37  1  0
 36 38  1  0
 36 39  1  0
 39 40  1  0
 39 41  1  0
 39 42  1  0
  6 43  1  0
 43 44  1  0
 43 45  2  0
 45 46  1  0
 45  2  1  0
M  END
>  <cnnaffinity>  (1) 
-5.10337

>  <filename>  (1) 
CCCCCCCCC(C)(C)Nc1cccnc1

$$$$
