
     RDKit          3D

 39 41  0  0  0  0  0  0  0  0999 V2000
    6.5681   -4.8558   22.3793 C   0  0  0  0  0  0  0  0  0  0  0  0
    7.8522   -4.4563   23.1020 C   0  0  0  0  0  0  0  0  0  0  0  0
    8.7100   -3.5548   22.1999 C   0  0  0  0  0  0  0  0  0  0  0  0
    8.1502   -2.1949   21.9545 C   0  0  0  0  0  0  0  0  0  0  0  0
    7.6785   -1.8443   20.7793 N   0  0  0  0  0  0  0  0  0  0  0  0
    7.2381   -0.5791   20.9800 N   0  0  0  0  0  0  0  0  0  0  0  0
    6.5841    0.0817   19.9098 C   0  0  0  0  0  0  0  0  0  0  0  0
    5.3713    0.7504   20.0987 C   0  0  0  0  0  0  0  0  0  0  0  0
    4.7921    1.3775   18.9926 C   0  0  0  0  0  0  0  0  0  0  0  0
    5.4394    1.3182   17.7555 C   0  0  0  0  0  0  0  0  0  0  0  0
    6.5853    0.6388   17.5619 N   0  0  0  0  0  0  0  0  0  0  0  0
    7.1250    0.0162   18.6122 C   0  0  0  0  0  0  0  0  0  0  0  0
    8.0248   -0.5678   18.4300 H   0  0  0  0  0  0  0  0  0  0  0  0
    5.0171    1.8115   16.8830 H   0  0  0  0  0  0  0  0  0  0  0  0
    3.8395    1.8863   19.0757 H   0  0  0  0  0  0  0  0  0  0  0  0
    4.8824    0.7323   21.0732 H   0  0  0  0  0  0  0  0  0  0  0  0
    7.5192   -0.2100   22.2707 C   0  0  0  0  0  0  0  0  0  0  0  0
    7.2860    1.1319   22.9195 C   0  0  0  0  0  0  0  0  0  0  0  0
    8.5627    1.7050   23.5350 C   0  0  0  0  0  0  0  0  0  0  0  0
    9.5801    2.2491   22.7348 C   0  0  0  0  0  0  0  0  0  0  0  0
    9.2963    2.4151   21.0292 Cl  0  0  0  0  0  0  0  0  0  0  0  0
   10.8281    2.6338   23.2397 C   0  0  0  0  0  0  0  0  0  0  0  0
   11.0938    2.4298   24.5936 C   0  0  0  0  0  0  0  0  0  0  0  0
   10.1032    1.9233   25.4367 C   0  0  0  0  0  0  0  0  0  0  0  0
    8.8536    1.6113   24.9055 C   0  0  0  0  0  0  0  0  0  0  0  0
    7.8838    1.1940   25.7403 F   0  0  0  0  0  0  0  0  0  0  0  0
   10.2961    1.7379   26.4819 H   0  0  0  0  0  0  0  0  0  0  0  0
   12.0714    2.6765   24.9961 H   0  0  0  0  0  0  0  0  0  0  0  0
   11.5676    3.0625   22.5711 H   0  0  0  0  0  0  0  0  0  0  0  0
    6.8902    1.8473   22.1897 H   0  0  0  0  0  0  0  0  0  0  0  0
    6.5348    0.9958   23.7038 H   0  0  0  0  0  0  0  0  0  0  0  0
    8.0853   -1.2272   22.9021 N   0  0  0  0  0  0  0  0  0  0  0  0
    9.7187   -3.4371   22.6080 H   0  0  0  0  0  0  0  0  0  0  0  0
    8.7684   -4.0097   21.2096 H   0  0  0  0  0  0  0  0  0  0  0  0
    7.6446   -3.9390   24.0495 H   0  0  0  0  0  0  0  0  0  0  0  0
    8.4278   -5.3532   23.3685 H   0  0  0  0  0  0  0  0  0  0  0  0
    5.9874   -3.9701   22.0911 H   0  0  0  0  0  0  0  0  0  0  0  0
    5.9443   -5.5090   22.9979 H   0  0  0  0  0  0  0  0  0  0  0  0
    6.8084   -5.3983   21.4538 H   0  0  0  0  0  0  0  0  0  0  0  0
  1  2  1  0
  2  3  1  0
  3  4  1  0
  4  5  2  0
  5  6  1  0
  6  7  1  0
  7  8  2  0
  8  9  1  0
  9 10  2  0
 10 11  1  0
 11 12  2  0
 12 13  1  0
 10 14  1  0
  9 15  1  0
  8 16  1  0
  6 17  1  0
 17 18  1  0
 18 19  1  0
 19 20  2  0
 20 21  1  0
 20 22  1  0
 22 23  2  0
 23 24  1  0
 24 25  2  0
 25 26  1  0
 24 27  1  0
 23 28  1  0
 22 29  1  0
 18 30  1  0
 18 31  1  0
 17 32  2  0
  3 33  1  0
  3 34  1  0
  2 35  1  0
  2 36  1  0
  1 37  1  0
  1 38  1  0
  1 39  1  0
 32  4  1  0
 12  7  1  0
 25 19  1  0
M  END
>  <cnnaffinity>  (1) 
-6.40839

>  <filename>  (1) 
CCCc1nc(Cc2c(F)cccc2Cl)n(-c2cccnc2)n1

$$$$
