
     RDKit          3D

 44 45  0  0  0  0  0  0  0  0999 V2000
    4.9243    1.7890   16.9877 H   0  0  0  0  0  0  0  0  0  0  0  0
    5.4012    1.2956   17.8306 C   0  0  0  0  0  0  0  0  0  0  0  0
    6.5608    0.6784   17.5754 N   0  0  0  0  0  0  0  0  0  0  0  0
    7.1670    0.0520   18.5986 C   0  0  0  0  0  0  0  0  0  0  0  0
    8.1165   -0.4120   18.3470 H   0  0  0  0  0  0  0  0  0  0  0  0
    6.6583   -0.0213   19.9084 C   0  0  0  0  0  0  0  0  0  0  0  0
    7.3412   -0.7349   21.0869 C   0  0  2  0  0  0  0  0  0  0  0  0
    6.4273   -1.8934   21.5539 C   0  0  0  0  0  0  0  0  0  0  0  0
    5.3816   -1.5803   21.4856 H   0  0  0  0  0  0  0  0  0  0  0  0
    6.5209   -2.6992   20.8114 H   0  0  0  0  0  0  0  0  0  0  0  0
    6.6869   -2.4554   22.9575 C   0  0  0  0  0  0  0  0  0  0  0  0
    7.7651   -2.5626   23.1315 H   0  0  0  0  0  0  0  0  0  0  0  0
    6.3422   -1.7256   23.7043 H   0  0  0  0  0  0  0  0  0  0  0  0
    6.0125   -3.8053   23.2136 C   0  0  0  0  0  0  0  0  0  0  0  0
    6.3136   -4.5125   22.4269 H   0  0  0  0  0  0  0  0  0  0  0  0
    6.3946   -4.2229   24.1520 H   0  0  0  0  0  0  0  0  0  0  0  0
    4.4857   -3.7399   23.2603 C   0  0  0  0  0  0  0  0  0  0  0  0
    4.1777   -3.0492   24.0579 H   0  0  0  0  0  0  0  0  0  0  0  0
    4.1237   -3.2997   22.3247 H   0  0  0  0  0  0  0  0  0  0  0  0
    3.8036   -5.0962   23.4657 C   0  0  0  0  0  0  0  0  0  0  0  0
    2.7156   -4.9613   23.3947 H   0  0  0  0  0  0  0  0  0  0  0  0
    4.0791   -5.7566   22.6318 H   0  0  0  0  0  0  0  0  0  0  0  0
    4.1179   -5.8021   24.7935 C   0  0  0  0  0  0  0  0  0  0  0  0
    5.1902   -6.0313   24.8523 H   0  0  0  0  0  0  0  0  0  0  0  0
    3.6115   -6.7751   24.7973 H   0  0  0  0  0  0  0  0  0  0  0  0
    3.6965   -5.0058   26.0323 C   0  0  0  0  0  0  0  0  0  0  0  0
    2.6514   -4.6846   25.9550 H   0  0  0  0  0  0  0  0  0  0  0  0
    4.2989   -4.0992   26.1604 H   0  0  0  0  0  0  0  0  0  0  0  0
    3.7965   -5.6005   26.9461 H   0  0  0  0  0  0  0  0  0  0  0  0
    7.7082    0.3220   22.1846 C   0  0  0  0  0  0  0  0  0  0  0  0
    6.9315    1.0767   22.3233 H   0  0  0  0  0  0  0  0  0  0  0  0
    7.8821   -0.1615   23.1560 H   0  0  0  0  0  0  0  0  0  0  0  0
    8.9591    0.9567   21.7584 N   0  0  0  0  0  0  0  0  0  0  0  0
    8.7394    1.7697   21.1887 H   0  0  0  0  0  0  0  0  0  0  0  0
    9.6652   -0.0114   20.9058 C   0  0  0  0  0  0  0  0  0  0  0  0
    9.7767    0.4221   19.9116 H   0  0  0  0  0  0  0  0  0  0  0  0
   10.6554   -0.2640   21.3135 H   0  0  0  0  0  0  0  0  0  0  0  0
    8.7691   -1.2497   20.7959 C   0  0  0  0  0  0  0  0  0  0  0  0
    9.0508   -2.0021   21.5445 H   0  0  0  0  0  0  0  0  0  0  0  0
    8.8643   -1.7253   19.8212 H   0  0  0  0  0  0  0  0  0  0  0  0
    5.4392    0.6436   20.1427 C   0  0  0  0  0  0  0  0  0  0  0  0
    5.0036    0.6399   21.1457 H   0  0  0  0  0  0  0  0  0  0  0  0
    4.8086    1.3125   19.0960 C   0  0  0  0  0  0  0  0  0  0  0  0
    3.8793    1.8416   19.2505 H   0  0  0  0  0  0  0  0  0  0  0  0
  1  2  1  0
  2  3  2  0
  3  4  1  0
  4  5  1  0
  4  6  2  0
  6  7  1  0
  7  8  1  1
  8  9  1  0
  8 10  1  0
  8 11  1  0
 11 12  1  0
 11 13  1  0
 11 14  1  0
 14 15  1  0
 14 16  1  0
 14 17  1  0
 17 18  1  0
 17 19  1  0
 17 20  1  0
 20 21  1  0
 20 22  1  0
 20 23  1  0
 23 24  1  0
 23 25  1  0
 23 26  1  0
 26 27  1  0
 26 28  1  0
 26 29  1  0
  7 30  1  0
 30 31  1  0
 30 32  1  0
 30 33  1  0
 33 34  1  0
 33 35  1  0
 35 36  1  0
 35 37  1  0
 35 38  1  0
 38 39  1  0
 38 40  1  0
  6 41  1  0
 41 42  1  0
 41 43  2  0
 43 44  1  0
 43  2  1  0
 38  7  1  0
M  END
>  <cnnaffinity>  (1) 
-5.02548

>  <filename>  (1) 
CCCCCCC[C@]1(c2cccnc2)CCNC1

$$$$
