
     RDKit          3D

 50 52  0  0  0  0  0  0  0  0999 V2000
    6.9015   -2.9517   27.2577 C   0  0  0  0  0  0  0  0  0  0  0  0
    7.0415   -3.5399   25.8610 C   0  0  0  0  0  0  0  0  0  0  0  0
    7.5081   -2.5671   24.7758 C   0  0  0  0  0  0  0  0  0  0  0  0
    7.4698   -3.2356   23.3721 C   0  0  0  0  0  0  0  0  0  0  0  0
    8.4898   -4.3818   23.2642 C   0  0  0  0  0  0  0  0  0  0  0  0
    8.2528   -5.1959   23.9577 H   0  0  0  0  0  0  0  0  0  0  0  0
    9.4987   -4.0179   23.4989 H   0  0  0  0  0  0  0  0  0  0  0  0
    8.5046   -4.8006   22.2544 H   0  0  0  0  0  0  0  0  0  0  0  0
    7.6978   -2.2050   22.3051 C   0  0  0  0  0  0  0  0  0  0  0  0
    6.7289   -1.6413   21.6163 N   0  0  0  0  0  0  0  0  0  0  0  0
    7.3765   -0.6763   20.9084 N   0  0  0  0  0  0  0  0  0  0  0  0
    6.6897    0.0152   19.8749 C   0  0  0  0  0  0  0  0  0  0  0  0
    5.4683    0.6423   20.1416 C   0  0  0  0  0  0  0  0  0  0  0  0
    4.8383    1.3199   19.0923 C   0  0  0  0  0  0  0  0  0  0  0  0
    5.4314    1.3265   17.8240 C   0  0  0  0  0  0  0  0  0  0  0  0
    6.5811    0.6901   17.5514 N   0  0  0  0  0  0  0  0  0  0  0  0
    7.1870    0.0502   18.5601 C   0  0  0  0  0  0  0  0  0  0  0  0
    8.0957   -0.4899   18.3033 H   0  0  0  0  0  0  0  0  0  0  0  0
    4.9617    1.8493   16.9927 H   0  0  0  0  0  0  0  0  0  0  0  0
    3.8987    1.8370   19.2462 H   0  0  0  0  0  0  0  0  0  0  0  0
    5.0231    0.5679   21.1366 H   0  0  0  0  0  0  0  0  0  0  0  0
    8.6877   -0.6436   21.3007 C   0  0  0  0  0  0  0  0  0  0  0  0
    9.5974    0.5632   21.0835 C   0  0  0  0  0  0  0  0  0  0  0  0
    9.3489    1.8133   21.8647 N   0  0  0  0  0  0  0  0  0  0  0  0
    8.0196    2.4325   21.6827 C   0  0  0  0  0  0  0  0  0  0  0  0
    7.9680    3.8601   22.2249 C   0  0  0  0  0  0  0  0  0  0  0  0
    8.2582    3.9559   23.7268 C   0  0  0  0  0  0  0  0  0  0  0  0
    9.6428    3.3784   24.0239 C   0  0  0  0  0  0  0  0  0  0  0  0
    9.8235    1.7045   23.4867 S   0  0  0  0  0  0  0  0  0  0  0  0
   11.2376    1.3793   23.5119 O   0  0  0  0  0  0  0  0  0  0  0  0
    8.8526    0.8841   24.1917 O   0  0  0  0  0  0  0  0  0  0  0  0
    9.8923    3.3413   25.0849 H   0  0  0  0  0  0  0  0  0  0  0  0
   10.4404    3.8915   23.4817 H   0  0  0  0  0  0  0  0  0  0  0  0
    7.4870    3.4370   24.3191 H   0  0  0  0  0  0  0  0  0  0  0  0
    8.2612    5.0068   24.0387 H   0  0  0  0  0  0  0  0  0  0  0  0
    8.6882    4.4765   21.6771 H   0  0  0  0  0  0  0  0  0  0  0  0
    6.9807    4.2790   22.0018 H   0  0  0  0  0  0  0  0  0  0  0  0
    7.2134    1.8272   22.1269 H   0  0  0  0  0  0  0  0  0  0  0  0
    7.8344    2.4526   20.6053 H   0  0  0  0  0  0  0  0  0  0  0  0
   10.6299    0.2382   21.2587 H   0  0  0  0  0  0  0  0  0  0  0  0
    9.5445    0.8268   20.0212 H   0  0  0  0  0  0  0  0  0  0  0  0
    8.9355   -1.6792   22.0830 N   0  0  0  0  0  0  0  0  0  0  0  0
    6.4518   -3.6116   23.2007 H   0  0  0  0  0  0  0  0  0  0  0  0
    8.5293   -2.1958   24.9750 H   0  0  0  0  0  0  0  0  0  0  0  0
    6.8715   -1.6668   24.7730 H   0  0  0  0  0  0  0  0  0  0  0  0
    7.7322   -4.3923   25.9154 H   0  0  0  0  0  0  0  0  0  0  0  0
    6.0722   -3.9553   25.5519 H   0  0  0  0  0  0  0  0  0  0  0  0
    6.4623   -3.7039   27.9236 H   0  0  0  0  0  0  0  0  0  0  0  0
    7.8756   -2.6510   27.6601 H   0  0  0  0  0  0  0  0  0  0  0  0
    6.2505   -2.0707   27.2871 H   0  0  0  0  0  0  0  0  0  0  0  0
  1  2  1  0
  2  3  1  0
  3  4  1  0
  4  5  1  0
  5  6  1  0
  5  7  1  0
  5  8  1  0
  4  9  1  0
  9 10  2  0
 10 11  1  0
 11 12  1  0
 12 13  2  0
 13 14  1  0
 14 15  2  0
 15 16  1  0
 16 17  2  0
 17 18  1  0
 15 19  1  0
 14 20  1  0
 13 21  1  0
 11 22  1  0
 22 23  1  0
 23 24  1  0
 24 25  1  0
 25 26  1  0
 26 27  1  0
 27 28  1  0
 28 29  1  0
 29 30  2  0
 29 31  2  0
 28 32  1  0
 28 33  1  0
 27 34  1  0
 27 35  1  0
 26 36  1  0
 26 37  1  0
 25 38  1  0
 25 39  1  0
 23 40  1  0
 23 41  1  0
 22 42  2  0
  4 43  1  0
  3 44  1  0
  3 45  1  0
  2 46  1  0
  2 47  1  0
  1 48  1  0
  1 49  1  0
  1 50  1  0
 42  9  1  0
 17 12  1  0
 29 24  1  0
M  END
>  <cnnaffinity>  (1) 
-6.13029

>  <filename>  (1) 
CCCC(C)c1nc(CN2CCCCS2(=O)=O)n(-c2cccnc2)n1

$$$$
