
     RDKit          3D

 44 45  0  0  0  0  0  0  0  0999 V2000
    4.9210    1.7773   16.8971 H   0  0  0  0  0  0  0  0  0  0  0  0
    5.3639    1.3699   17.8012 C   0  0  0  0  0  0  0  0  0  0  0  0
    6.5785    0.8277   17.6498 N   0  0  0  0  0  0  0  0  0  0  0  0
    7.1588    0.3209   18.7409 C   0  0  0  0  0  0  0  0  0  0  0  0
    8.1481   -0.1032   18.5716 H   0  0  0  0  0  0  0  0  0  0  0  0
    6.5839    0.3249   20.0293 C   0  0  0  0  0  0  0  0  0  0  0  0
    7.2680   -0.4276   21.1194 C   0  0  0  0  0  0  0  0  0  0  0  0
    7.5307    0.3872   22.6447 S   0  0  0  0  0  0  0  0  0  0  0  0
    8.3129   -0.8613   23.6098 C   0  0  0  0  0  0  0  0  0  0  0  0
    8.4566   -0.5550   25.0876 C   0  0  0  0  0  0  0  0  0  0  0  0
    8.4796    0.5265   25.2509 H   0  0  0  0  0  0  0  0  0  0  0  0
    9.4225   -0.9556   25.4324 H   0  0  0  0  0  0  0  0  0  0  0  0
    7.3222   -1.2178   25.9101 C   0  0  0  0  0  0  0  0  0  0  0  0
    6.3528   -0.8890   25.5068 H   0  0  0  0  0  0  0  0  0  0  0  0
    7.3587   -2.3058   25.7552 H   0  0  0  0  0  0  0  0  0  0  0  0
    7.3678   -0.9414   27.4177 C   0  0  0  0  0  0  0  0  0  0  0  0
    6.6058   -1.5686   27.9031 H   0  0  0  0  0  0  0  0  0  0  0  0
    8.3375   -1.2733   27.8221 H   0  0  0  0  0  0  0  0  0  0  0  0
    7.1315    0.5305   27.7801 C   0  0  0  0  0  0  0  0  0  0  0  0
    7.8753    1.1527   27.2645 H   0  0  0  0  0  0  0  0  0  0  0  0
    6.1514    0.8368   27.3801 H   0  0  0  0  0  0  0  0  0  0  0  0
    7.1934    0.8494   29.2812 C   0  0  0  0  0  0  0  0  0  0  0  0
    7.1611    1.9419   29.4084 H   0  0  0  0  0  0  0  0  0  0  0  0
    8.1725    0.5340   29.6797 H   0  0  0  0  0  0  0  0  0  0  0  0
    6.0689    0.2205   30.1157 C   0  0  0  0  0  0  0  0  0  0  0  0
    5.0967    0.5925   29.7522 H   0  0  0  0  0  0  0  0  0  0  0  0
    6.0396   -0.8686   29.9592 H   0  0  0  0  0  0  0  0  0  0  0  0
    6.1969    0.5032   31.6178 C   0  0  0  0  0  0  0  0  0  0  0  0
    7.1755    0.1385   31.9690 H   0  0  0  0  0  0  0  0  0  0  0  0
    6.2011    1.5919   31.7832 H   0  0  0  0  0  0  0  0  0  0  0  0
    5.0818   -0.1446   32.4438 C   0  0  0  0  0  0  0  0  0  0  0  0
    5.1639    0.1189   33.5039 H   0  0  0  0  0  0  0  0  0  0  0  0
    5.1195   -1.2394   32.3689 H   0  0  0  0  0  0  0  0  0  0  0  0
    4.0906    0.1754   32.0964 H   0  0  0  0  0  0  0  0  0  0  0  0
    8.6717   -2.0705   23.1393 C   0  0  0  0  0  0  0  0  0  0  0  0
    9.2076   -2.7656   23.7851 H   0  0  0  0  0  0  0  0  0  0  0  0
    8.3192   -2.6051   21.8258 C   0  0  0  0  0  0  0  0  0  0  0  0
    8.5569   -3.7680   21.5242 O   0  0  0  0  0  0  0  0  0  0  0  0
    7.6451   -1.7030   20.8923 C   0  0  0  0  0  0  0  0  0  0  0  0
    7.4294   -2.1501   19.9364 H   0  0  0  0  0  0  0  0  0  0  0  0
    5.3292    0.9382   20.1742 C   0  0  0  0  0  0  0  0  0  0  0  0
    4.8617    1.0138   21.1569 H   0  0  0  0  0  0  0  0  0  0  0  0
    4.6970    1.4496   19.0329 C   0  0  0  0  0  0  0  0  0  0  0  0
    3.7317    1.9358   19.0834 H   0  0  0  0  0  0  0  0  0  0  0  0
  1  2  1  0
  2  3  2  0
  3  4  1  0
  4  5  1  0
  4  6  2  0
  6  7  1  0
  7  8  1  0
  8  9  1  0
  9 10  1  0
 10 11  1  0
 10 12  1  0
 10 13  1  0
 13 14  1  0
 13 15  1  0
 13 16  1  0
 16 17  1  0
 16 18  1  0
 16 19  1  0
 19 20  1  0
 19 21  1  0
 19 22  1  0
 22 23  1  0
 22 24  1  0
 22 25  1  0
 25 26  1  0
 25 27  1  0
 25 28  1  0
 28 29  1  0
 28 30  1  0
 28 31  1  0
 31 32  1  0
 31 33  1  0
 31 34  1  0
  9 35  2  0
 35 36  1  0
 35 37  1  0
 37 38  2  0
 37 39  1  0
 39 40  1  0
  6 41  1  0
 41 42  1  0
 41 43  2  0
 43 44  1  0
 43  2  1  0
 39  7  2  0
M  END
>  <cnnaffinity>  (1) 
-5.49819

>  <filename>  (1) 
CCCCCCCCc1cc(=O)cc(-c2cccnc2)s1

$$$$
