
     RDKit          3D

 31 32  0  0  0  0  0  0  0  0999 V2000
    5.0777    1.8333   17.0335 H   0  0  0  0  0  0  0  0  0  0  0  0
    5.5717    1.2919   17.8377 C   0  0  0  0  0  0  0  0  0  0  0  0
    6.7306    0.6916   17.5238 N   0  0  0  0  0  0  0  0  0  0  0  0
    7.3760    0.0356   18.4994 C   0  0  0  0  0  0  0  0  0  0  0  0
    8.3136   -0.4504   18.2374 H   0  0  0  0  0  0  0  0  0  0  0  0
    6.8939   -0.0573   19.8183 C   0  0  0  0  0  0  0  0  0  0  0  0
    7.5689   -0.8063   20.8538 N   0  0  0  0  0  0  0  0  0  0  0  0
    8.7075   -0.5115   21.5945 C   0  0  0  0  0  0  0  0  0  0  0  0
    9.4954    0.5807   21.2967 N   0  0  0  0  0  0  0  0  0  0  0  0
    9.0757    1.3356   20.7884 H   0  0  0  0  0  0  0  0  0  0  0  0
   10.7971    0.7046   21.7493 C   0  0  0  0  0  0  0  0  0  0  0  0
   11.3396   -0.1303   22.4345 O   0  0  0  0  0  0  0  0  0  0  0  0
   11.5226    1.9617   21.2890 C   0  0  0  0  0  0  0  0  0  0  0  0
   12.5570    1.6368   21.1916 H   0  0  0  0  0  0  0  0  0  0  0  0
   11.1860    2.2346   20.2844 H   0  0  0  0  0  0  0  0  0  0  0  0
   11.4892    3.2323   22.1678 C   0  0  0  0  0  0  0  0  0  0  0  0
   11.8030    3.0228   23.2005 H   0  0  0  0  0  0  0  0  0  0  0  0
   10.4583    3.6028   22.2388 H   0  0  0  0  0  0  0  0  0  0  0  0
   12.3911    4.3136   21.5429 C   0  0  0  0  0  0  0  0  0  0  0  0
   13.4578    4.1356   21.7378 H   0  0  0  0  0  0  0  0  0  0  0  0
   12.1413    5.3182   21.9000 H   0  0  0  0  0  0  0  0  0  0  0  0
   12.2644    4.3329   20.4527 H   0  0  0  0  0  0  0  0  0  0  0  0
    8.9077   -1.3390   22.5713 N   0  0  0  0  0  0  0  0  0  0  0  0
    7.8482   -2.1951   22.4539 N   0  0  0  0  0  0  0  0  0  0  0  0
    7.6304   -2.9221   23.1207 H   0  0  0  0  0  0  0  0  0  0  0  0
    7.0029   -1.9272   21.4550 C   0  0  0  0  0  0  0  0  0  0  0  0
    5.6303   -2.7999   21.1111 S   0  0  0  0  0  0  0  0  0  0  0  0
    5.6566    0.5173   20.1167 C   0  0  0  0  0  0  0  0  0  0  0  0
    5.2394    0.3853   21.1163 H   0  0  0  0  0  0  0  0  0  0  0  0
    4.9975    1.2313   19.1123 C   0  0  0  0  0  0  0  0  0  0  0  0
    4.0571    1.7335   19.3092 H   0  0  0  0  0  0  0  0  0  0  0  0
  1  2  1  0
  2  3  2  0
  3  4  1  0
  4  5  1  0
  4  6  2  0
  6  7  1  0
  7  8  1  0
  8  9  1  0
  9 10  1  0
  9 11  1  0
 11 12  2  0
 11 13  1  0
 13 14  1  0
 13 15  1  0
 13 16  1  0
 16 17  1  0
 16 18  1  0
 16 19  1  0
 19 20  1  0
 19 21  1  0
 19 22  1  0
  8 23  2  0
 23 24  1  0
 24 25  1  0
 24 26  1  0
 26 27  2  0
  6 28  1  0
 28 29  1  0
 28 30  2  0
 30 31  1  0
 30  2  1  0
 26  7  1  0
M  END
>  <cnnaffinity>  (1) 
-5.17427

>  <filename>  (1) 
CCCC(=O)Nc1n[nH]c(=S)n1-c1cccnc1

$$$$
