
     RDKit          3D

 43 44  0  0  0  0  0  0  0  0999 V2000
    4.9500    1.8107   16.9936 H   0  0  0  0  0  0  0  0  0  0  0  0
    5.4170    1.2977   17.8315 C   0  0  0  0  0  0  0  0  0  0  0  0
    6.5695    0.6619   17.5701 N   0  0  0  0  0  0  0  0  0  0  0  0
    7.1787    0.0406   18.5906 C   0  0  0  0  0  0  0  0  0  0  0  0
    8.1155   -0.4610   18.3484 H   0  0  0  0  0  0  0  0  0  0  0  0
    6.6739    0.0028   19.9067 C   0  0  0  0  0  0  0  0  0  0  0  0
    7.3540   -0.6827   20.9637 N   0  0  0  0  0  0  0  0  0  0  0  0
    6.7831   -1.6907   21.7138 C   0  0  0  0  0  0  0  0  0  0  0  0
    5.7606   -1.9848   21.5141 H   0  0  0  0  0  0  0  0  0  0  0  0
    7.7036   -2.1470   22.6233 C   0  0  0  0  0  0  0  0  0  0  0  0
    7.5520   -2.9285   23.3578 H   0  0  0  0  0  0  0  0  0  0  0  0
    8.8799   -1.3669   22.4433 C   0  0  0  0  0  0  0  0  0  0  0  0
    9.7900   -1.4310   23.0304 H   0  0  0  0  0  0  0  0  0  0  0  0
    8.6493   -0.4672   21.4269 C   0  0  0  0  0  0  0  0  0  0  0  0
    9.4891    0.6501   20.9063 C   0  0  0  0  0  0  0  0  0  0  0  0
   10.4936    0.5502   21.3325 H   0  0  0  0  0  0  0  0  0  0  0  0
    9.6021    0.5344   19.8242 H   0  0  0  0  0  0  0  0  0  0  0  0
    8.9213    2.0529   21.1929 C   0  0  0  0  0  0  0  0  0  0  0  0
    9.6669    2.7828   20.8633 H   0  0  0  0  0  0  0  0  0  0  0  0
    8.0340    2.2094   20.5695 H   0  0  0  0  0  0  0  0  0  0  0  0
    8.5709    2.3146   22.6599 C   0  0  0  0  0  0  0  0  0  0  0  0
    7.7923    1.6054   22.9705 H   0  0  0  0  0  0  0  0  0  0  0  0
    8.1254    3.3135   22.7475 H   0  0  0  0  0  0  0  0  0  0  0  0
    9.7614    2.1848   23.6093 C   0  0  0  0  0  0  0  0  0  0  0  0
   10.6018    2.7816   23.2264 H   0  0  0  0  0  0  0  0  0  0  0  0
   10.1144    1.1441   23.5937 H   0  0  0  0  0  0  0  0  0  0  0  0
    9.4944    2.6075   25.0603 C   0  0  0  0  0  0  0  0  0  0  0  0
   10.3977    2.3746   25.6270 H   0  0  0  0  0  0  0  0  0  0  0  0
    9.3687    3.6982   25.1040 H   0  0  0  0  0  0  0  0  0  0  0  0
    8.3183    1.9397   25.7901 C   0  0  0  0  0  0  0  0  0  0  0  0
    8.2591    2.3660   26.8038 H   0  0  0  0  0  0  0  0  0  0  0  0
    7.3764    2.2182   25.2957 H   0  0  0  0  0  0  0  0  0  0  0  0
    8.3980    0.4070   25.8675 C   0  0  0  0  0  0  0  0  0  0  0  0
    7.4720    0.0296   26.3212 H   0  0  0  0  0  0  0  0  0  0  0  0
    8.4002    0.0164   24.8411 H   0  0  0  0  0  0  0  0  0  0  0  0
    9.5962   -0.1679   26.6400 C   0  0  0  0  0  0  0  0  0  0  0  0
    9.6953   -1.2362   26.4119 H   0  0  0  0  0  0  0  0  0  0  0  0
   10.5494    0.3195   26.3808 H   0  0  0  0  0  0  0  0  0  0  0  0
    9.4666   -0.0729   27.7297 H   0  0  0  0  0  0  0  0  0  0  0  0
    5.4472    0.6424   20.1533 C   0  0  0  0  0  0  0  0  0  0  0  0
    5.0192    0.6410   21.1588 H   0  0  0  0  0  0  0  0  0  0  0  0
    4.8177    1.3070   19.0964 C   0  0  0  0  0  0  0  0  0  0  0  0
    3.8784    1.8330   19.2429 H   0  0  0  0  0  0  0  0  0  0  0  0
  1  2  1  0
  2  3  2  0
  3  4  1  0
  4  5  1  0
  4  6  2  0
  6  7  1  0
  7  8  1  0
  8  9  1  0
  8 10  2  0
 10 11  1  0
 10 12  1  0
 12 13  1  0
 12 14  2  0
 14 15  1  0
 15 16  1  0
 15 17  1  0
 15 18  1  0
 18 19  1  0
 18 20  1  0
 18 21  1  0
 21 22  1  0
 21 23  1  0
 21 24  1  0
 24 25  1  0
 24 26  1  0
 24 27  1  0
 27 28  1  0
 27 29  1  0
 27 30  1  0
 30 31  1  0
 30 32  1  0
 30 33  1  0
 33 34  1  0
 33 35  1  0
 33 36  1  0
 36 37  1  0
 36 38  1  0
 36 39  1  0
  6 40  1  0
 40 41  1  0
 40 42  2  0
 42 43  1  0
 42  2  1  0
 14  7  1  0
M  END
>  <cnnaffinity>  (1) 
-5.19895

>  <filename>  (1) 
CCCCCCCCc1cccn1-c1cccnc1

$$$$
