
     RDKit          3D

 45 47  0  0  0  0  0  0  0  0999 V2000
   10.4375    1.9310   22.9442 C   0  0  0  0  0  0  0  0  0  0  0  0
    9.7855    1.0132   23.9772 C   0  0  0  0  0  0  0  0  0  0  0  0
   10.5307   -0.3204   24.1451 C   0  0  0  0  0  0  0  0  0  0  0  0
   10.6647   -1.1136   22.8279 C   0  0  0  0  0  0  0  0  0  0  0  0
   11.8450   -0.5773   21.9925 C   0  0  0  0  0  0  0  0  0  0  0  0
   11.9805   -1.1718   21.0841 H   0  0  0  0  0  0  0  0  0  0  0  0
   12.7620   -0.6366   22.5875 H   0  0  0  0  0  0  0  0  0  0  0  0
   11.7102    0.4624   21.6952 H   0  0  0  0  0  0  0  0  0  0  0  0
    9.3310   -1.1660   22.1093 C   0  0  0  0  0  0  0  0  0  0  0  0
    9.0390   -0.5713   20.9734 N   0  0  0  0  0  0  0  0  0  0  0  0
    7.7225   -0.8464   20.8108 N   0  0  0  0  0  0  0  0  0  0  0  0
    6.9251   -0.2077   19.8444 C   0  0  0  0  0  0  0  0  0  0  0  0
    5.6142    0.2241   20.1019 C   0  0  0  0  0  0  0  0  0  0  0  0
    4.9603    0.9493   19.0981 C   0  0  0  0  0  0  0  0  0  0  0  0
    5.5989    1.2019   17.8809 C   0  0  0  0  0  0  0  0  0  0  0  0
    6.8450    0.7655   17.6260 N   0  0  0  0  0  0  0  0  0  0  0  0
    7.4952    0.0954   18.5966 C   0  0  0  0  0  0  0  0  0  0  0  0
    8.5190   -0.2120   18.4031 H   0  0  0  0  0  0  0  0  0  0  0  0
    5.0739    1.7772   17.1215 H   0  0  0  0  0  0  0  0  0  0  0  0
    3.9665    1.3503   19.2516 H   0  0  0  0  0  0  0  0  0  0  0  0
    5.1401    0.0709   21.0715 H   0  0  0  0  0  0  0  0  0  0  0  0
    7.3177   -1.7055   21.8278 C   0  0  0  0  0  0  0  0  0  0  0  0
    5.9811   -2.3460   22.0090 C   0  0  0  0  0  0  0  0  0  0  0  0
    5.9406   -3.7878   21.5783 C   0  0  0  0  0  0  0  0  0  0  0  0
    5.7380   -4.2066   20.3012 C   0  0  0  0  0  0  0  0  0  0  0  0
    5.4891   -3.1034   18.7598 Br  0  0  0  0  0  0  0  0  0  0  0  0
    5.6491   -5.6510   20.3700 C   0  0  0  0  0  0  0  0  0  0  0  0
    5.7806   -6.0643   21.6064 N   0  0  0  0  0  0  0  0  0  0  0  0
    5.9503   -4.9423   22.3623 N   0  0  0  0  0  0  0  0  0  0  0  0
    5.9129   -4.9893   23.8290 C   0  0  0  0  0  0  0  0  0  0  0  0
    6.1221   -6.0118   24.1694 H   0  0  0  0  0  0  0  0  0  0  0  0
    6.6571   -4.3070   24.2555 H   0  0  0  0  0  0  0  0  0  0  0  0
    4.9153   -4.7080   24.1807 H   0  0  0  0  0  0  0  0  0  0  0  0
    5.4709   -6.3126   19.5288 H   0  0  0  0  0  0  0  0  0  0  0  0
    5.7058   -2.2890   23.0633 H   0  0  0  0  0  0  0  0  0  0  0  0
    5.2582   -1.7876   21.4183 H   0  0  0  0  0  0  0  0  0  0  0  0
    8.2918   -1.8909   22.6706 N   0  0  0  0  0  0  0  0  0  0  0  0
   10.9100   -2.1450   23.0876 H   0  0  0  0  0  0  0  0  0  0  0  0
   11.5257   -0.1396   24.5638 H   0  0  0  0  0  0  0  0  0  0  0  0
    9.9820   -0.9293   24.8734 H   0  0  0  0  0  0  0  0  0  0  0  0
    9.7505    1.5257   24.9431 H   0  0  0  0  0  0  0  0  0  0  0  0
    8.7551    0.8094   23.6674 H   0  0  0  0  0  0  0  0  0  0  0  0
   10.3938    1.4724   21.9543 H   0  0  0  0  0  0  0  0  0  0  0  0
   11.4803    2.1335   23.2107 H   0  0  0  0  0  0  0  0  0  0  0  0
    9.9007    2.8813   22.8887 H   0  0  0  0  0  0  0  0  0  0  0  0
  1  2  1  0
  2  3  1  0
  3  4  1  0
  4  5  1  0
  5  6  1  0
  5  7  1  0
  5  8  1  0
  4  9  1  0
  9 10  2  0
 10 11  1  0
 11 12  1  0
 12 13  2  0
 13 14  1  0
 14 15  2  0
 15 16  1  0
 16 17  2  0
 17 18  1  0
 15 19  1  0
 14 20  1  0
 13 21  1  0
 11 22  1  0
 22 23  1  0
 23 24  1  0
 24 25  2  0
 25 26  1  0
 25 27  1  0
 27 28  2  0
 28 29  1  0
 29 30  1  0
 30 31  1  0
 30 32  1  0
 30 33  1  0
 27 34  1  0
 23 35  1  0
 23 36  1  0
 22 37  2  0
  4 38  1  0
  3 39  1  0
  3 40  1  0
  2 41  1  0
  2 42  1  0
  1 43  1  0
  1 44  1  0
  1 45  1  0
 37  9  1  0
 17 12  1  0
 29 24  1  0
M  END
>  <cnnaffinity>  (1) 
-5.76717

>  <filename>  (1) 
CCCC(C)c1nc(Cc2c(Br)cnn2C)n(-c2cccnc2)n1

$$$$
