
     RDKit          3D

 48 50  0  0  0  0  0  0  0  0999 V2000
    8.3244   -3.8881   26.8921 C   0  0  0  0  0  0  0  0  0  0  0  0
    7.0842   -3.2558   26.2374 C   0  0  0  0  0  0  0  0  0  0  0  0
    7.3610   -2.3940   24.9819 C   0  0  0  0  0  0  0  0  0  0  0  0
    7.2459   -3.1383   23.6157 C   0  0  0  0  0  0  0  0  0  0  0  0
    8.2742   -4.2830   23.5121 C   0  0  0  0  0  0  0  0  0  0  0  0
    8.1081   -5.0416   24.2828 H   0  0  0  0  0  0  0  0  0  0  0  0
    8.2272   -4.7774   22.5366 H   0  0  0  0  0  0  0  0  0  0  0  0
    9.2914   -3.8844   23.6320 H   0  0  0  0  0  0  0  0  0  0  0  0
    7.4226   -2.1849   22.4578 C   0  0  0  0  0  0  0  0  0  0  0  0
    6.4737   -1.7602   21.6441 N   0  0  0  0  0  0  0  0  0  0  0  0
    7.1341   -0.9061   20.8116 N   0  0  0  0  0  0  0  0  0  0  0  0
    6.4341   -0.2014   19.7878 C   0  0  0  0  0  0  0  0  0  0  0  0
    5.2673    0.5280   20.0598 C   0  0  0  0  0  0  0  0  0  0  0  0
    4.7413    1.3345   19.0410 C   0  0  0  0  0  0  0  0  0  0  0  0
    5.3706    1.3428   17.7893 C   0  0  0  0  0  0  0  0  0  0  0  0
    6.4359    0.5812   17.4992 N   0  0  0  0  0  0  0  0  0  0  0  0
    6.9369   -0.1850   18.4748 C   0  0  0  0  0  0  0  0  0  0  0  0
    7.7890   -0.8150   18.2225 H   0  0  0  0  0  0  0  0  0  0  0  0
    4.9903    1.9495   16.9703 H   0  0  0  0  0  0  0  0  0  0  0  0
    3.8613    1.9552   19.1929 H   0  0  0  0  0  0  0  0  0  0  0  0
    4.7969    0.4646   21.0432 H   0  0  0  0  0  0  0  0  0  0  0  0
    8.4436   -0.8339   21.2051 C   0  0  0  0  0  0  0  0  0  0  0  0
    9.5683    0.0088   20.6636 C   0  0  0  0  0  0  0  0  0  0  0  0
   10.2213    0.9210   21.6879 C   0  0  0  0  0  0  0  0  0  0  0  0
    9.5886    2.0046   22.2018 C   0  0  0  0  0  0  0  0  0  0  0  0
    8.2762    2.5329   21.7491 C   0  0  0  0  0  0  0  0  0  0  0  0
    7.9208    3.3529   22.3777 H   0  0  0  0  0  0  0  0  0  0  0  0
    7.5030    1.7613   21.7121 H   0  0  0  0  0  0  0  0  0  0  0  0
    8.4068    2.8907   20.7311 H   0  0  0  0  0  0  0  0  0  0  0  0
   10.2262    2.7392   23.1651 N   0  0  0  0  0  0  0  0  0  0  0  0
   11.4595    2.4826   23.6856 C   0  0  0  0  0  0  0  0  0  0  0  0
   11.9500    3.2272   24.4951 O   0  0  0  0  0  0  0  0  0  0  0  0
   12.0366    1.3528   23.2245 N   0  0  0  0  0  0  0  0  0  0  0  0
   11.5774    0.5943   22.1722 C   0  0  0  0  0  0  0  0  0  0  0  0
   12.3114   -0.2815   21.7643 O   0  0  0  0  0  0  0  0  0  0  0  0
   12.9748    1.1573   23.4979 H   0  0  0  0  0  0  0  0  0  0  0  0
    9.8479    3.5728   23.5738 H   0  0  0  0  0  0  0  0  0  0  0  0
   10.3325   -0.6993   20.3396 H   0  0  0  0  0  0  0  0  0  0  0  0
    9.2497    0.5406   19.7606 H   0  0  0  0  0  0  0  0  0  0  0  0
    8.6472   -1.6553   22.2120 N   0  0  0  0  0  0  0  0  0  0  0  0
    6.2267   -3.5315   23.5149 H   0  0  0  0  0  0  0  0  0  0  0  0
    6.6638   -1.5440   24.9668 H   0  0  0  0  0  0  0  0  0  0  0  0
    8.3684   -1.9516   25.0575 H   0  0  0  0  0  0  0  0  0  0  0  0
    6.5991   -2.6222   26.9924 H   0  0  0  0  0  0  0  0  0  0  0  0
    6.3463   -4.0380   26.0019 H   0  0  0  0  0  0  0  0  0  0  0  0
    8.8694   -4.5519   26.2101 H   0  0  0  0  0  0  0  0  0  0  0  0
    9.0291   -3.1118   27.2182 H   0  0  0  0  0  0  0  0  0  0  0  0
    8.0460   -4.4777   27.7750 H   0  0  0  0  0  0  0  0  0  0  0  0
  1  2  1  0
  2  3  1  0
  3  4  1  0
  4  5  1  0
  5  6  1  0
  5  7  1  0
  5  8  1  0
  4  9  1  0
  9 10  2  0
 10 11  1  0
 11 12  1  0
 12 13  2  0
 13 14  1  0
 14 15  2  0
 15 16  1  0
 16 17  2  0
 17 18  1  0
 15 19  1  0
 14 20  1  0
 13 21  1  0
 11 22  1  0
 22 23  1  0
 23 24  1  0
 24 25  2  0
 25 26  1  0
 26 27  1  0
 26 28  1  0
 26 29  1  0
 25 30  1  0
 30 31  1  0
 31 32  2  0
 31 33  1  0
 33 34  1  0
 34 35  2  0
 33 36  1  0
 30 37  1  0
 23 38  1  0
 23 39  1  0
 22 40  2  0
  4 41  1  0
  3 42  1  0
  3 43  1  0
  2 44  1  0
  2 45  1  0
  1 46  1  0
  1 47  1  0
  1 48  1  0
 40  9  1  0
 17 12  1  0
 34 24  1  0
M  END
>  <cnnaffinity>  (1) 
-6.37004

>  <filename>  (1) 
CCCC(C)c1nc(Cc2c(C)[nH]c(=O)[nH]c2=O)n(-c2cccnc2)n1

$$$$
