
     RDKit          3D

 45 47  0  0  0  0  0  0  0  0999 V2000
    7.2892   -4.2908   24.0228 C   0  0  0  0  0  0  0  0  0  0  0  0
    7.8478   -4.5955   22.6370 C   0  0  0  0  0  0  0  0  0  0  0  0
    8.7125   -3.4815   22.0215 C   0  0  0  0  0  0  0  0  0  0  0  0
    8.1053   -2.1222   21.8993 C   0  0  0  0  0  0  0  0  0  0  0  0
    7.5841   -1.7592   20.7490 N   0  0  0  0  0  0  0  0  0  0  0  0
    7.1450   -0.5024   20.9742 N   0  0  0  0  0  0  0  0  0  0  0  0
    6.4954    0.1699   19.9056 C   0  0  0  0  0  0  0  0  0  0  0  0
    5.2846    0.8561   20.0587 C   0  0  0  0  0  0  0  0  0  0  0  0
    4.7294    1.4500   18.9205 C   0  0  0  0  0  0  0  0  0  0  0  0
    5.4051    1.3506   17.7015 C   0  0  0  0  0  0  0  0  0  0  0  0
    6.5491    0.6593   17.5448 N   0  0  0  0  0  0  0  0  0  0  0  0
    7.0604    0.0605   18.6193 C   0  0  0  0  0  0  0  0  0  0  0  0
    7.9484   -0.5574   18.4757 H   0  0  0  0  0  0  0  0  0  0  0  0
    5.0125    1.8213   16.8052 H   0  0  0  0  0  0  0  0  0  0  0  0
    3.7898    1.9895   18.9670 H   0  0  0  0  0  0  0  0  0  0  0  0
    4.7780    0.8884   21.0244 H   0  0  0  0  0  0  0  0  0  0  0  0
    7.5071   -0.1254   22.2440 C   0  0  0  0  0  0  0  0  0  0  0  0
    7.3419    1.2686   22.7769 C   0  0  0  0  0  0  0  0  0  0  0  0
    8.2603    1.6786   23.9476 C   0  0  0  0  0  0  0  0  0  0  0  0
    7.8764    1.0385   25.2880 C   0  0  0  0  0  0  0  0  0  0  0  0
    8.7959    1.3672   26.4706 C   0  0  0  0  0  0  0  0  0  0  0  0
    7.9575    1.0361   27.7184 C   0  0  0  0  0  0  0  0  0  0  0  0
    6.4877    1.2822   27.3181 C   0  0  0  0  0  0  0  0  0  0  0  0
    6.4843    1.4629   25.7872 C   0  0  0  0  0  0  0  0  0  0  0  0
    6.3074    2.5139   25.5282 H   0  0  0  0  0  0  0  0  0  0  0  0
    5.6862    0.8897   25.3027 H   0  0  0  0  0  0  0  0  0  0  0  0
    5.8598    0.4367   27.6136 H   0  0  0  0  0  0  0  0  0  0  0  0
    6.0810    2.1645   27.8213 H   0  0  0  0  0  0  0  0  0  0  0  0
    8.2481    1.6273   28.5927 H   0  0  0  0  0  0  0  0  0  0  0  0
    8.0918   -0.0147   27.9946 H   0  0  0  0  0  0  0  0  0  0  0  0
    9.0591    2.4336   26.4615 H   0  0  0  0  0  0  0  0  0  0  0  0
    9.7425    0.8118   26.4366 H   0  0  0  0  0  0  0  0  0  0  0  0
    7.8720   -0.0505   25.1541 H   0  0  0  0  0  0  0  0  0  0  0  0
    8.2157    2.7738   24.0573 H   0  0  0  0  0  0  0  0  0  0  0  0
    9.3043    1.4513   23.6964 H   0  0  0  0  0  0  0  0  0  0  0  0
    7.4839    1.9647   21.9463 H   0  0  0  0  0  0  0  0  0  0  0  0
    6.2964    1.4041   23.0824 H   0  0  0  0  0  0  0  0  0  0  0  0
    8.0829   -1.1584   22.8494 N   0  0  0  0  0  0  0  0  0  0  0  0
    8.9289   -3.7574   20.9910 H   0  0  0  0  0  0  0  0  0  0  0  0
    9.6628   -3.3839   22.5548 H   0  0  0  0  0  0  0  0  0  0  0  0
    8.4612   -5.5064   22.6865 H   0  0  0  0  0  0  0  0  0  0  0  0
    7.0256   -4.8411   21.9537 H   0  0  0  0  0  0  0  0  0  0  0  0
    8.0858   -4.2089   24.7711 H   0  0  0  0  0  0  0  0  0  0  0  0
    6.6170   -5.0968   24.3423 H   0  0  0  0  0  0  0  0  0  0  0  0
    6.7226   -3.3501   24.0264 H   0  0  0  0  0  0  0  0  0  0  0  0
  1  2  1  0
  2  3  1  0
  3  4  1  0
  4  5  2  0
  5  6  1  0
  6  7  1  0
  7  8  2  0
  8  9  1  0
  9 10  2  0
 10 11  1  0
 11 12  2  0
 12 13  1  0
 10 14  1  0
  9 15  1  0
  8 16  1  0
  6 17  1  0
 17 18  1  0
 18 19  1  0
 19 20  1  0
 20 21  1  0
 21 22  1  0
 22 23  1  0
 23 24  1  0
 24 25  1  0
 24 26  1  0
 23 27  1  0
 23 28  1  0
 22 29  1  0
 22 30  1  0
 21 31  1  0
 21 32  1  0
 20 33  1  0
 19 34  1  0
 19 35  1  0
 18 36  1  0
 18 37  1  0
 17 38  2  0
  3 39  1  0
  3 40  1  0
  2 41  1  0
  2 42  1  0
  1 43  1  0
  1 44  1  0
  1 45  1  0
 38  4  1  0
 12  7  1  0
 24 20  1  0
M  END
>  <cnnaffinity>  (1) 
-5.42757

>  <filename>  (1) 
CCCc1nc(CCC2CCCC2)n(-c2cccnc2)n1

$$$$
