
     RDKit          3D

 41 42  0  0  0  0  0  0  0  0999 V2000
    4.9247    1.7825   16.9920 H   0  0  0  0  0  0  0  0  0  0  0  0
    5.4003    1.2930   17.8366 C   0  0  0  0  0  0  0  0  0  0  0  0
    6.5616    0.6768   17.5762 N   0  0  0  0  0  0  0  0  0  0  0  0
    7.1620    0.0666   18.5970 C   0  0  0  0  0  0  0  0  0  0  0  0
    8.1065   -0.4108   18.3570 H   0  0  0  0  0  0  0  0  0  0  0  0
    6.6478    0.0142   19.9027 C   0  0  0  0  0  0  0  0  0  0  0  0
    7.3794   -0.6975   20.9456 C   0  0  0  0  0  0  0  0  0  0  0  0
    6.9274   -0.7012   22.2632 N   0  0  0  0  0  0  0  0  0  0  0  0
    7.7973   -1.4105   22.9024 C   0  0  0  0  0  0  0  0  0  0  0  0
    7.7893   -1.7982   24.3389 C   0  0  0  0  0  0  0  0  0  0  0  0
    7.1325   -1.0859   24.8400 H   0  0  0  0  0  0  0  0  0  0  0  0
    8.7932   -1.6603   24.7497 H   0  0  0  0  0  0  0  0  0  0  0  0
    7.2914   -3.2311   24.5846 C   0  0  0  0  0  0  0  0  0  0  0  0
    7.9200   -3.9305   24.0234 H   0  0  0  0  0  0  0  0  0  0  0  0
    7.4397   -3.4788   25.6430 H   0  0  0  0  0  0  0  0  0  0  0  0
    5.8276   -3.4364   24.1910 C   0  0  0  0  0  0  0  0  0  0  0  0
    5.6712   -3.1020   23.1574 H   0  0  0  0  0  0  0  0  0  0  0  0
    5.1949   -2.7746   24.7968 H   0  0  0  0  0  0  0  0  0  0  0  0
    5.3522   -4.8854   24.3330 C   0  0  0  0  0  0  0  0  0  0  0  0
    5.9562   -5.5138   23.6661 H   0  0  0  0  0  0  0  0  0  0  0  0
    4.3247   -4.9658   23.9557 H   0  0  0  0  0  0  0  0  0  0  0  0
    5.4191   -5.4667   25.7542 C   0  0  0  0  0  0  0  0  0  0  0  0
    5.0530   -6.5011   25.7293 H   0  0  0  0  0  0  0  0  0  0  0  0
    6.4683   -5.5484   26.0656 H   0  0  0  0  0  0  0  0  0  0  0  0
    4.6454   -4.6788   26.8231 C   0  0  0  0  0  0  0  0  0  0  0  0
    4.7550   -5.1940   27.7859 H   0  0  0  0  0  0  0  0  0  0  0  0
    5.1164   -3.6974   26.9654 H   0  0  0  0  0  0  0  0  0  0  0  0
    3.1501   -4.4872   26.5448 C   0  0  0  0  0  0  0  0  0  0  0  0
    3.0128   -3.9143   25.6197 H   0  0  0  0  0  0  0  0  0  0  0  0
    2.7190   -3.8647   27.3373 H   0  0  0  0  0  0  0  0  0  0  0  0
    2.3700   -5.7976   26.4550 C   0  0  0  0  0  0  0  0  0  0  0  0
    1.2929   -5.6245   26.3777 H   0  0  0  0  0  0  0  0  0  0  0  0
    2.6703   -6.3952   25.5881 H   0  0  0  0  0  0  0  0  0  0  0  0
    2.5448   -6.4163   27.3413 H   0  0  0  0  0  0  0  0  0  0  0  0
    8.7960   -1.8941   22.1262 O   0  0  0  0  0  0  0  0  0  0  0  0
    8.5186   -1.4244   20.8762 C   0  0  0  0  0  0  0  0  0  0  0  0
    9.1982   -1.6752   20.0749 H   0  0  0  0  0  0  0  0  0  0  0  0
    5.4262    0.6585   20.1632 C   0  0  0  0  0  0  0  0  0  0  0  0
    5.0080    0.6338   21.1754 H   0  0  0  0  0  0  0  0  0  0  0  0
    4.8017    1.3117   19.1035 C   0  0  0  0  0  0  0  0  0  0  0  0
    3.8715    1.8448   19.2515 H   0  0  0  0  0  0  0  0  0  0  0  0
  1  2  1  0
  2  3  2  0
  3  4  1  0
  4  5  1  0
  4  6  2  0
  6  7  1  0
  7  8  1  0
  8  9  2  0
  9 10  1  0
 10 11  1  0
 10 12  1  0
 10 13  1  0
 13 14  1  0
 13 15  1  0
 13 16  1  0
 16 17  1  0
 16 18  1  0
 16 19  1  0
 19 20  1  0
 19 21  1  0
 19 22  1  0
 22 23  1  0
 22 24  1  0
 22 25  1  0
 25 26  1  0
 25 27  1  0
 25 28  1  0
 28 29  1  0
 28 30  1  0
 28 31  1  0
 31 32  1  0
 31 33  1  0
 31 34  1  0
  9 35  1  0
 35 36  1  0
 36 37  1  0
  6 38  1  0
 38 39  1  0
 38 40  2  0
 40 41  1  0
 40  2  1  0
 36  7  2  0
M  END
>  <cnnaffinity>  (1) 
-5.22676

>  <filename>  (1) 
CCCCCCCCc1nc(-c2cccnc2)co1

$$$$
