
     RDKit          3D

 32 33  0  0  0  0  0  0  0  0999 V2000
    4.9492    1.7992   17.0104 H   0  0  0  0  0  0  0  0  0  0  0  0
    5.4072    1.2784   17.8464 C   0  0  0  0  0  0  0  0  0  0  0  0
    6.5620    0.6427   17.5828 N   0  0  0  0  0  0  0  0  0  0  0  0
    7.1791    0.0205   18.5973 C   0  0  0  0  0  0  0  0  0  0  0  0
    8.1343   -0.4568   18.3770 H   0  0  0  0  0  0  0  0  0  0  0  0
    6.6549   -0.0264   19.9072 C   0  0  0  0  0  0  0  0  0  0  0  0
    7.3186   -0.7197   20.9714 N   0  0  0  0  0  0  0  0  0  0  0  0
    6.6976   -1.6760   21.7979 C   0  0  0  0  0  0  0  0  0  0  0  0
    5.6512   -1.9202   21.7341 H   0  0  0  0  0  0  0  0  0  0  0  0
    7.6462   -2.1146   22.6463 C   0  0  0  0  0  0  0  0  0  0  0  0
    7.6260   -3.0753   23.6437 N   0  0  0  0  0  0  0  0  0  0  0  0
    6.8032   -3.6397   23.7056 H   0  0  0  0  0  0  0  0  0  0  0  0
    8.5195   -3.1869   24.6776 C   0  0  0  0  0  0  0  0  0  0  0  0
    9.4337   -2.4063   24.8627 O   0  0  0  0  0  0  0  0  0  0  0  0
    8.3268   -4.4127   25.5457 C   0  0  0  0  0  0  0  0  0  0  0  0
    8.5139   -4.1003   26.5759 H   0  0  0  0  0  0  0  0  0  0  0  0
    7.2857   -4.7441   25.4937 H   0  0  0  0  0  0  0  0  0  0  0  0
    9.2639   -5.5650   25.1271 C   0  0  0  0  0  0  0  0  0  0  0  0
   10.2955   -5.1846   25.0878 H   0  0  0  0  0  0  0  0  0  0  0  0
    9.2498   -6.3405   25.9060 H   0  0  0  0  0  0  0  0  0  0  0  0
    8.8646   -6.1683   23.7758 C   0  0  0  0  0  0  0  0  0  0  0  0
    9.4220   -7.0866   23.5551 H   0  0  0  0  0  0  0  0  0  0  0  0
    7.7934   -6.4012   23.7442 H   0  0  0  0  0  0  0  0  0  0  0  0
    9.0613   -5.4811   22.9466 H   0  0  0  0  0  0  0  0  0  0  0  0
    8.8052   -1.4567   22.3713 N   0  0  0  0  0  0  0  0  0  0  0  0
    9.6389   -1.4946   22.9318 H   0  0  0  0  0  0  0  0  0  0  0  0
    8.6320   -0.5504   21.3742 C   0  0  0  0  0  0  0  0  0  0  0  0
    9.7996    0.5104   20.8749 S   0  0  0  0  0  0  0  0  0  0  0  0
    5.4451    0.6327   20.1615 C   0  0  0  0  0  0  0  0  0  0  0  0
    5.0395    0.6361   21.1744 H   0  0  0  0  0  0  0  0  0  0  0  0
    4.8073    1.3022   19.1114 C   0  0  0  0  0  0  0  0  0  0  0  0
    3.8765    1.8467   19.2674 H   0  0  0  0  0  0  0  0  0  0  0  0
  1  2  1  0
  2  3  2  0
  3  4  1  0
  4  5  1  0
  4  6  2  0
  6  7  1  0
  7  8  1  0
  8  9  1  0
  8 10  2  0
 10 11  1  0
 11 12  1  0
 11 13  1  0
 13 14  2  0
 13 15  1  0
 15 16  1  0
 15 17  1  0
 15 18  1  0
 18 19  1  0
 18 20  1  0
 18 21  1  0
 21 22  1  0
 21 23  1  0
 21 24  1  0
 10 25  1  0
 25 26  1  0
 25 27  1  0
 27 28  2  0
  6 29  1  0
 29 30  1  0
 29 31  2  0
 31 32  1  0
 31  2  1  0
 27  7  1  0
M  END
>  <cnnaffinity>  (1) 
-4.8666

>  <filename>  (1) 
CCCC(=O)Nc1cn(-c2cccnc2)c(=S)[nH]1

$$$$
