
     RDKit          3D

 43 44  0  0  0  0  0  0  0  0999 V2000
    4.8365    1.8085   16.9503 H   0  0  0  0  0  0  0  0  0  0  0  0
    5.3613    1.3656   17.7938 C   0  0  0  0  0  0  0  0  0  0  0  0
    6.5367    0.7739   17.5193 N   0  0  0  0  0  0  0  0  0  0  0  0
    7.1863    0.1909   18.5374 C   0  0  0  0  0  0  0  0  0  0  0  0
    8.1035   -0.3317   18.2718 H   0  0  0  0  0  0  0  0  0  0  0  0
    6.7484    0.1895   19.8916 C   0  0  0  0  0  0  0  0  0  0  0  0
    7.4786   -0.5063   20.9025 N   0  0  0  0  0  0  0  0  0  0  0  0
    7.8140    0.0714   22.2050 C   0  0  0  0  0  0  0  0  0  0  0  0
    8.8957   -0.0673   22.3821 H   0  0  0  0  0  0  0  0  0  0  0  0
    7.6221    1.1515   22.1371 H   0  0  0  0  0  0  0  0  0  0  0  0
    7.0812   -0.4860   23.4548 C   0  0  0  0  0  0  0  0  0  0  0  0
    5.9934   -0.3614   23.3150 H   0  0  0  0  0  0  0  0  0  0  0  0
    7.3647    0.1691   24.2906 H   0  0  0  0  0  0  0  0  0  0  0  0
    7.4446   -1.8657   23.7977 N   0  0  0  0  0  0  0  0  0  0  0  0
    7.7274   -2.1705   25.2016 C   0  0  0  0  0  0  0  0  0  0  0  0
    8.6433   -1.6335   25.5001 H   0  0  0  0  0  0  0  0  0  0  0  0
    7.9825   -3.2409   25.2528 H   0  0  0  0  0  0  0  0  0  0  0  0
    6.6365   -1.8675   26.2509 C   0  0  0  0  0  0  0  0  0  0  0  0
    6.5177   -0.7773   26.3336 H   0  0  0  0  0  0  0  0  0  0  0  0
    7.0279   -2.2055   27.2198 H   0  0  0  0  0  0  0  0  0  0  0  0
    5.2511   -2.4828   25.9980 C   0  0  0  0  0  0  0  0  0  0  0  0
    4.8412   -2.0454   25.0764 H   0  0  0  0  0  0  0  0  0  0  0  0
    5.3370   -3.5680   25.8139 H   0  0  0  0  0  0  0  0  0  0  0  0
    4.2339   -2.2572   27.1257 C   0  0  0  0  0  0  0  0  0  0  0  0
    3.2368   -2.5339   26.7547 H   0  0  0  0  0  0  0  0  0  0  0  0
    4.1823   -1.1846   27.3709 H   0  0  0  0  0  0  0  0  0  0  0  0
    4.5275   -3.0621   28.3927 C   0  0  0  0  0  0  0  0  0  0  0  0
    5.4763   -2.7637   28.8498 H   0  0  0  0  0  0  0  0  0  0  0  0
    4.5908   -4.1350   28.1696 H   0  0  0  0  0  0  0  0  0  0  0  0
    3.7439   -2.9196   29.1445 H   0  0  0  0  0  0  0  0  0  0  0  0
    6.7535   -2.9375   23.0905 C   0  0  0  0  0  0  0  0  0  0  0  0
    7.3636   -3.8477   23.1968 H   0  0  0  0  0  0  0  0  0  0  0  0
    5.7935   -3.1914   23.5677 H   0  0  0  0  0  0  0  0  0  0  0  0
    6.4639   -2.7098   21.6054 C   0  0  0  0  0  0  0  0  0  0  0  0
    6.3338   -3.6993   21.1460 H   0  0  0  0  0  0  0  0  0  0  0  0
    5.5102   -2.1805   21.4878 H   0  0  0  0  0  0  0  0  0  0  0  0
    7.5182   -1.9576   20.7926 C   0  0  0  0  0  0  0  0  0  0  0  0
    8.5326   -2.3214   21.0261 H   0  0  0  0  0  0  0  0  0  0  0  0
    7.2980   -2.1678   19.7436 H   0  0  0  0  0  0  0  0  0  0  0  0
    5.5215    0.8210   20.1424 C   0  0  0  0  0  0  0  0  0  0  0  0
    5.1320    0.8230   21.1590 H   0  0  0  0  0  0  0  0  0  0  0  0
    4.8155    1.3970   19.0787 C   0  0  0  0  0  0  0  0  0  0  0  0
    3.8450    1.8535   19.2370 H   0  0  0  0  0  0  0  0  0  0  0  0
  1  2  1  0
  2  3  2  0
  3  4  1  0
  4  5  1  0
  4  6  2  0
  6  7  1  0
  7  8  1  0
  8  9  1  0
  8 10  1  0
  8 11  1  0
 11 12  1  0
 11 13  1  0
 11 14  1  0
 14 15  1  0
 15 16  1  0
 15 17  1  0
 15 18  1  0
 18 19  1  0
 18 20  1  0
 18 21  1  0
 21 22  1  0
 21 23  1  0
 21 24  1  0
 24 25  1  0
 24 26  1  0
 24 27  1  0
 27 28  1  0
 27 29  1  0
 27 30  1  0
 14 31  1  0
 31 32  1  0
 31 33  1  0
 31 34  1  0
 34 35  1  0
 34 36  1  0
 34 37  1  0
 37 38  1  0
 37 39  1  0
  6 40  1  0
 40 41  1  0
 40 42  2  0
 42 43  1  0
 42  2  1  0
 37  7  1  0
M  END
>  <cnnaffinity>  (1) 
-4.52848

>  <filename>  (1) 
CCCCCN1CCCN(c2cccnc2)CC1

$$$$
