
     RDKit          3D

 41 42  0  0  0  0  0  0  0  0999 V2000
    4.9349    1.7939   16.9854 H   0  0  0  0  0  0  0  0  0  0  0  0
    5.3985    1.2885   17.8314 C   0  0  0  0  0  0  0  0  0  0  0  0
    6.5604    0.6639   17.5857 N   0  0  0  0  0  0  0  0  0  0  0  0
    7.1716    0.0585   18.6142 C   0  0  0  0  0  0  0  0  0  0  0  0
    8.1138   -0.4287   18.3737 H   0  0  0  0  0  0  0  0  0  0  0  0
    6.6741    0.0356   19.9469 C   0  0  0  0  0  0  0  0  0  0  0  0
    7.3571   -0.6128   21.0044 N   0  0  0  0  0  0  0  0  0  0  0  0
    7.4023   -0.3296   22.3676 C   0  0  0  0  0  0  0  0  0  0  0  0
    6.8738    0.8386   22.7589 O   0  0  0  0  0  0  0  0  0  0  0  0
    6.9418    1.1488   24.1749 C   0  0  0  0  0  0  0  0  0  0  0  0
    7.9981    1.1504   24.4775 H   0  0  0  0  0  0  0  0  0  0  0  0
    6.4178    0.3690   24.7384 H   0  0  0  0  0  0  0  0  0  0  0  0
    6.2756    2.5167   24.3933 C   0  0  0  0  0  0  0  0  0  0  0  0
    6.8735    3.2922   23.8730 H   0  0  0  0  0  0  0  0  0  0  0  0
    5.2983    2.4957   23.8941 H   0  0  0  0  0  0  0  0  0  0  0  0
    6.0458    2.8350   25.8123 N   0  0  0  0  0  0  0  0  0  0  0  0
    5.0735    3.9180   26.0115 C   0  0  0  0  0  0  0  0  0  0  0  0
    5.1793    4.7234   25.2563 H   0  0  0  0  0  0  0  0  0  0  0  0
    5.2739    4.3984   26.9794 H   0  0  0  0  0  0  0  0  0  0  0  0
    3.6342    3.4083   26.0289 C   0  0  0  0  0  0  0  0  0  0  0  0
    3.5062    2.6514   26.8098 H   0  0  0  0  0  0  0  0  0  0  0  0
    3.3522    2.9573   25.0711 H   0  0  0  0  0  0  0  0  0  0  0  0
    2.9392    4.2315   26.2308 H   0  0  0  0  0  0  0  0  0  0  0  0
    7.2601    2.9886   26.6212 C   0  0  0  0  0  0  0  0  0  0  0  0
    7.8103    2.0380   26.6081 H   0  0  0  0  0  0  0  0  0  0  0  0
    6.9343    3.1210   27.6637 H   0  0  0  0  0  0  0  0  0  0  0  0
    8.1664    4.1552   26.2049 C   0  0  0  0  0  0  0  0  0  0  0  0
    7.5808    5.0775   26.1019 H   0  0  0  0  0  0  0  0  0  0  0  0
    8.9563    4.3376   26.9398 H   0  0  0  0  0  0  0  0  0  0  0  0
    8.6411    3.9543   25.2380 H   0  0  0  0  0  0  0  0  0  0  0  0
    7.9799   -1.1895   23.1162 N   0  0  0  0  0  0  0  0  0  0  0  0
    8.4186   -2.2860   22.2542 C   0  0  0  0  0  0  0  0  0  0  0  0
    7.9269   -3.2264   22.5460 H   0  0  0  0  0  0  0  0  0  0  0  0
    9.5023   -2.4523   22.3428 H   0  0  0  0  0  0  0  0  0  0  0  0
    8.0311   -1.8889   20.8140 C   0  0  0  0  0  0  0  0  0  0  0  0
    8.9015   -1.7831   20.1511 H   0  0  0  0  0  0  0  0  0  0  0  0
    7.3437   -2.6117   20.3588 H   0  0  0  0  0  0  0  0  0  0  0  0
    5.4415    0.6645   20.1684 C   0  0  0  0  0  0  0  0  0  0  0  0
    5.0193    0.6386   21.1666 H   0  0  0  0  0  0  0  0  0  0  0  0
    4.8041    1.3044   19.0984 C   0  0  0  0  0  0  0  0  0  0  0  0
    3.8703    1.8336   19.2441 H   0  0  0  0  0  0  0  0  0  0  0  0
  1  2  1  0
  2  3  2  0
  3  4  1  0
  4  5  1  0
  4  6  2  0
  6  7  1  0
  7  8  1  0
  8  9  1  0
  9 10  1  0
 10 11  1  0
 10 12  1  0
 10 13  1  0
 13 14  1  0
 13 15  1  0
 13 16  1  0
 16 17  1  0
 17 18  1  0
 17 19  1  0
 17 20  1  0
 20 21  1  0
 20 22  1  0
 20 23  1  0
 16 24  1  0
 24 25  1  0
 24 26  1  0
 24 27  1  0
 27 28  1  0
 27 29  1  0
 27 30  1  0
  8 31  2  0
 31 32  1  0
 32 33  1  0
 32 34  1  0
 32 35  1  0
 35 36  1  0
 35 37  1  0
  6 38  1  0
 38 39  1  0
 38 40  2  0
 40 41  1  0
 40  2  1  0
 35  7  1  0
M  END
>  <cnnaffinity>  (1) 
-4.08873

>  <filename>  (1) 
CCN(CC)CCOC1=NCCN1c1cccnc1

$$$$
