
     RDKit          3D

 43 44  0  0  0  0  0  0  0  0999 V2000
    4.9078    1.7814   16.9943 H   0  0  0  0  0  0  0  0  0  0  0  0
    5.3990    1.2956   17.8352 C   0  0  0  0  0  0  0  0  0  0  0  0
    6.5640    0.6812   17.5705 N   0  0  0  0  0  0  0  0  0  0  0  0
    7.1811    0.0707   18.5944 C   0  0  0  0  0  0  0  0  0  0  0  0
    8.1241   -0.4237   18.3702 H   0  0  0  0  0  0  0  0  0  0  0  0
    6.6758   -0.0008   19.9182 C   0  0  0  0  0  0  0  0  0  0  0  0
    7.3532   -0.6733   20.9368 N   0  0  0  0  0  0  0  0  0  0  0  0
    6.6130   -1.4568   21.9254 C   0  0  0  0  0  0  0  0  0  0  0  0
    6.2797   -0.8177   22.7598 H   0  0  0  0  0  0  0  0  0  0  0  0
    5.7079   -1.8624   21.4578 H   0  0  0  0  0  0  0  0  0  0  0  0
    7.4727   -2.6085   22.4519 C   0  0  0  0  0  0  0  0  0  0  0  0
    6.8851   -3.1902   23.1683 H   0  0  0  0  0  0  0  0  0  0  0  0
    7.6873   -3.2814   21.6156 H   0  0  0  0  0  0  0  0  0  0  0  0
    8.8018   -2.1208   23.0882 C   0  0  0  0  0  0  0  0  0  0  0  0
    9.5650   -2.8718   22.8495 H   0  0  0  0  0  0  0  0  0  0  0  0
    8.7066   -2.0091   24.6193 C   0  0  0  0  0  0  0  0  0  0  0  0
    7.8762   -1.3259   24.8516 H   0  0  0  0  0  0  0  0  0  0  0  0
    9.6126   -1.5125   25.0155 H   0  0  0  0  0  0  0  0  0  0  0  0
    8.5038   -3.3057   25.2656 N   0  0  0  0  0  0  0  0  0  0  0  0
    7.6797   -3.2188   26.4724 C   0  0  0  0  0  0  0  0  0  0  0  0
    7.9413   -2.3211   27.0601 H   0  0  0  0  0  0  0  0  0  0  0  0
    7.8827   -4.0703   27.1284 H   0  0  0  0  0  0  0  0  0  0  0  0
    6.1931   -3.2163   26.1560 C   0  0  0  0  0  0  0  0  0  0  0  0
    5.9093   -2.3485   25.5531 H   0  0  0  0  0  0  0  0  0  0  0  0
    5.6029   -3.1939   27.0778 H   0  0  0  0  0  0  0  0  0  0  0  0
    5.9202   -4.1193   25.6015 H   0  0  0  0  0  0  0  0  0  0  0  0
    9.7572   -4.0343   25.4784 C   0  0  0  0  0  0  0  0  0  0  0  0
   10.5132   -3.7141   24.7528 H   0  0  0  0  0  0  0  0  0  0  0  0
   10.1780   -3.7999   26.4702 H   0  0  0  0  0  0  0  0  0  0  0  0
    9.5748   -5.5354   25.3319 C   0  0  0  0  0  0  0  0  0  0  0  0
   10.5293   -6.0518   25.4702 H   0  0  0  0  0  0  0  0  0  0  0  0
    9.1921   -5.7761   24.3365 H   0  0  0  0  0  0  0  0  0  0  0  0
    8.8680   -5.9249   26.0695 H   0  0  0  0  0  0  0  0  0  0  0  0
    9.2666   -0.7739   22.4797 C   0  0  0  0  0  0  0  0  0  0  0  0
    8.8676    0.0721   23.0553 H   0  0  0  0  0  0  0  0  0  0  0  0
   10.3565   -0.6923   22.5287 H   0  0  0  0  0  0  0  0  0  0  0  0
    8.8122   -0.6010   21.0298 C   0  0  0  0  0  0  0  0  0  0  0  0
    9.1449    0.3729   20.6525 H   0  0  0  0  0  0  0  0  0  0  0  0
    9.2865   -1.3628   20.3900 H   0  0  0  0  0  0  0  0  0  0  0  0
    5.4428    0.6404   20.1593 C   0  0  0  0  0  0  0  0  0  0  0  0
    5.0134    0.6215   21.1656 H   0  0  0  0  0  0  0  0  0  0  0  0
    4.8094    1.3096   19.1062 C   0  0  0  0  0  0  0  0  0  0  0  0
    3.8757    1.8409   19.2638 H   0  0  0  0  0  0  0  0  0  0  0  0
  1  2  1  0
  2  3  2  0
  3  4  1  0
  4  5  1  0
  4  6  2  0
  6  7  1  0
  7  8  1  0
  8  9  1  0
  8 10  1  0
  8 11  1  0
 11 12  1  0
 11 13  1  0
 11 14  1  0
 14 15  1  0
 14 16  1  0
 16 17  1  0
 16 18  1  0
 16 19  1  0
 19 20  1  0
 20 21  1  0
 20 22  1  0
 20 23  1  0
 23 24  1  0
 23 25  1  0
 23 26  1  0
 19 27  1  0
 27 28  1  0
 27 29  1  0
 27 30  1  0
 30 31  1  0
 30 32  1  0
 30 33  1  0
 14 34  1  0
 34 35  1  0
 34 36  1  0
 34 37  1  0
 37 38  1  0
 37 39  1  0
  6 40  1  0
 40 41  1  0
 40 42  2  0
 42 43  1  0
 42  2  1  0
 37  7  1  0
M  END
>  <cnnaffinity>  (1) 
-5.01428

>  <filename>  (1) 
CCN(CC)CC1CCN(c2cccnc2)CC1

$$$$
