
     RDKit          3D

 33 34  0  0  0  0  0  0  0  0999 V2000
    4.9368    1.8050   16.9710 H   0  0  0  0  0  0  0  0  0  0  0  0
    5.3883    1.3008   17.8198 C   0  0  0  0  0  0  0  0  0  0  0  0
    6.5478    0.6783   17.5665 N   0  0  0  0  0  0  0  0  0  0  0  0
    7.1567    0.0793   18.5991 C   0  0  0  0  0  0  0  0  0  0  0  0
    8.1042   -0.4036   18.3618 H   0  0  0  0  0  0  0  0  0  0  0  0
    6.6499    0.0549   19.9226 C   0  0  0  0  0  0  0  0  0  0  0  0
    7.3474   -0.6578   21.0310 C   0  0  0  0  0  0  0  0  0  0  0  0
    7.5617   -0.2492   22.3957 C   0  0  0  0  0  0  0  0  0  0  0  0
    7.2178    1.0615   23.0563 C   0  0  0  0  0  0  0  0  0  0  0  0
    7.2716    2.1090   22.4228 O   0  0  0  0  0  0  0  0  0  0  0  0
    6.8792    1.0397   24.3983 N   0  0  0  0  0  0  0  0  0  0  0  0
    6.3647   -0.1237   25.1368 C   0  0  0  0  0  0  0  0  0  0  0  0
    6.0426   -0.8754   24.4103 H   0  0  0  0  0  0  0  0  0  0  0  0
    5.4589    0.1715   25.6877 H   0  0  0  0  0  0  0  0  0  0  0  0
    7.3756   -0.7360   26.0983 C   0  0  0  0  0  0  0  0  0  0  0  0
    8.2663   -1.0557   25.5545 H   0  0  0  0  0  0  0  0  0  0  0  0
    6.9454   -1.6129   26.6002 H   0  0  0  0  0  0  0  0  0  0  0  0
    7.6665   -0.0162   26.8716 H   0  0  0  0  0  0  0  0  0  0  0  0
    7.1591    2.2847   25.1197 C   0  0  0  0  0  0  0  0  0  0  0  0
    6.6595    3.0886   24.5713 H   0  0  0  0  0  0  0  0  0  0  0  0
    6.7054    2.2362   26.1162 H   0  0  0  0  0  0  0  0  0  0  0  0
    8.6591    2.5807   25.1917 C   0  0  0  0  0  0  0  0  0  0  0  0
    9.0676    2.6995   24.1832 H   0  0  0  0  0  0  0  0  0  0  0  0
    9.2089    1.7623   25.6720 H   0  0  0  0  0  0  0  0  0  0  0  0
    8.8469    3.5088   25.7388 H   0  0  0  0  0  0  0  0  0  0  0  0
    8.2112   -1.1645   23.0866 N   0  0  0  0  0  0  0  0  0  0  0  0
    8.3942   -2.2110   22.2433 O   0  0  0  0  0  0  0  0  0  0  0  0
    7.8839   -1.9065   21.0501 C   0  0  0  0  0  0  0  0  0  0  0  0
    7.8993   -2.7028   20.3454 H   0  0  0  0  0  0  0  0  0  0  0  0
    5.4242    0.7048   20.1466 C   0  0  0  0  0  0  0  0  0  0  0  0
    4.9825    0.7102   21.1448 H   0  0  0  0  0  0  0  0  0  0  0  0
    4.7791    1.3341   19.0757 C   0  0  0  0  0  0  0  0  0  0  0  0
    3.8356    1.8567   19.1939 H   0  0  0  0  0  0  0  0  0  0  0  0
  1  2  1  0
  2  3  2  0
  3  4  1  0
  4  5  1  0
  4  6  2  0
  6  7  1  0
  7  8  1  0
  8  9  1  0
  9 10  2  0
  9 11  1  0
 11 12  1  0
 12 13  1  0
 12 14  1  0
 12 15  1  0
 15 16  1  0
 15 17  1  0
 15 18  1  0
 11 19  1  0
 19 20  1  0
 19 21  1  0
 19 22  1  0
 22 23  1  0
 22 24  1  0
 22 25  1  0
  8 26  2  0
 26 27  1  0
 27 28  1  0
 28 29  1  0
  6 30  1  0
 30 31  1  0
 30 32  2  0
 32 33  1  0
 32  2  1  0
 28  7  2  0
M  END
>  <cnnaffinity>  (1) 
-4.64867

>  <filename>  (1) 
CCN(CC)C(=O)c1nocc1-c1cccnc1

$$$$
