
     RDKit          3D

 46 48  0  0  0  0  0  0  0  0999 V2000
    5.1084    1.7445   16.8716 H   0  0  0  0  0  0  0  0  0  0  0  0
    5.4971    1.2524   17.7615 C   0  0  0  0  0  0  0  0  0  0  0  0
    6.6315    0.5549   17.5981 N   0  0  0  0  0  0  0  0  0  0  0  0
    7.1348   -0.0585   18.6736 C   0  0  0  0  0  0  0  0  0  0  0  0
    8.0480   -0.6301   18.5154 H   0  0  0  0  0  0  0  0  0  0  0  0
    6.5550    0.0067   19.9572 C   0  0  0  0  0  0  0  0  0  0  0  0
    7.2160   -0.6696   21.0827 C   0  0  0  0  0  0  0  0  0  0  0  0
    8.0732   -1.6746   20.8599 N   0  0  0  0  0  0  0  0  0  0  0  0
    8.4802   -2.0273   22.0694 N   0  0  0  0  0  0  0  0  0  0  0  0
    7.9819   -1.3064   23.0830 C   0  0  0  0  0  0  0  0  0  0  0  0
    7.1396   -0.3818   22.4882 C   0  0  0  0  0  0  0  0  0  0  0  0
    6.4159    0.6344   23.0413 O   0  0  0  0  0  0  0  0  0  0  0  0
    6.8685    1.1699   24.2873 C   0  0  0  0  0  0  0  0  0  0  0  0
    5.9993    1.6883   24.6985 H   0  0  0  0  0  0  0  0  0  0  0  0
    7.1394    0.3676   24.9813 H   0  0  0  0  0  0  0  0  0  0  0  0
    8.0952    2.1067   24.1591 C   0  0  0  0  0  0  0  0  0  0  0  0
    8.9621    1.4778   23.8730 H   0  0  0  0  0  0  0  0  0  0  0  0
    8.3177    2.4702   25.1735 H   0  0  0  0  0  0  0  0  0  0  0  0
    8.0014    3.2340   23.2524 N   0  0  0  0  0  0  0  0  0  0  0  0
    8.7230    3.0389   22.0284 C   0  0  0  0  0  0  0  0  0  0  0  0
    9.6711    1.7006   22.1499 H   0  0  0  0  0  0  0  0  0  0  0  0
    7.6951    2.5691   21.5186 H   0  0  0  0  0  0  0  0  0  0  0  0
    8.5840    3.3209   21.9414 C   0  0  0  0  0  0  0  0  0  0  0  0
    8.1088    4.7669   21.3153 H   0  0  0  0  0  0  0  0  0  0  0  0
    9.2062    3.1175   20.8124 H   0  0  0  0  0  0  0  0  0  0  0  0
    9.7051    3.7743   22.2308 H   0  0  0  0  0  0  0  0  0  0  0  0
    6.8452    4.0841   23.5138 C   0  0  0  0  0  0  0  0  0  0  0  0
    5.8758    3.5507   23.3709 H   0  0  0  0  0  0  0  0  0  0  0  0
    6.8512    4.9232   22.7808 H   0  0  0  0  0  0  0  0  0  0  0  0
    6.9220    4.6414   24.9283 C   0  0  0  0  0  0  0  0  0  0  0  0
    6.7468    3.8606   25.6740 H   0  0  0  0  0  0  0  0  0  0  0  0
    6.1790    5.4221   25.1008 H   0  0  0  0  0  0  0  0  0  0  0  0
    7.9172    5.0621   25.1091 H   0  0  0  0  0  0  0  0  0  0  0  0
    8.6555   -1.7068   24.3646 C   0  0  0  0  0  0  0  0  0  0  0  0
    7.9276   -1.9828   25.1339 H   0  0  0  0  0  0  0  0  0  0  0  0
    9.2422   -0.8636   24.7505 H   0  0  0  0  0  0  0  0  0  0  0  0
    9.5723   -2.8953   23.9508 C   0  0  0  0  0  0  0  0  0  0  0  0
    9.2407   -3.8233   24.4177 H   0  0  0  0  0  0  0  0  0  0  0  0
   10.6078   -2.7287   24.2478 H   0  0  0  0  0  0  0  0  0  0  0  0
    9.4689   -3.0203   22.4069 C   0  0  0  0  0  0  0  0  0  0  0  0
   10.4071   -2.7962   21.8878 H   0  0  0  0  0  0  0  0  0  0  0  0
    9.1081   -4.0019   22.0947 H   0  0  0  0  0  0  0  0  0  0  0  0
    5.3550    0.7229   20.1052 C   0  0  0  0  0  0  0  0  0  0  0  0
    4.8670    0.7857   21.0795 H   0  0  0  0  0  0  0  0  0  0  0  0
    4.8201    1.3516   18.9820 C   0  0  0  0  0  0  0  0  0  0  0  0
    3.9007    1.9237   19.0352 H   0  0  0  0  0  0  0  0  0  0  0  0
  1  2  1  0
  2  3  2  0
  3  4  1  0
  4  5  1  0
  4  6  2  0
  6  7  1  0
  7  8  2  0
  8  9  1  0
  9 10  1  0
 10 11  2  0
 11 12  1  0
 12 13  1  0
 13 14  1  0
 13 15  1  0
 13 16  1  0
 16 17  1  0
 16 18  1  0
 16 19  1  0
 19 20  1  0
 20 21  1  0
 20 22  1  0
 20 23  1  0
 23 24  1  0
 23 25  1  0
 23 26  1  0
 19 27  1  0
 27 28  1  0
 27 29  1  0
 27 30  1  0
 30 31  1  0
 30 32  1  0
 30 33  1  0
 10 34  1  0
 34 35  1  0
 34 36  1  0
 34 37  1  0
 37 38  1  0
 37 39  1  0
 37 40  1  0
 40 41  1  0
 40 42  1  0
  6 43  1  0
 43 44  1  0
 43 45  2  0
 45 46  1  0
 45  2  1  0
 11  7  1  0
 40  9  1  0
M  END
>  <cnnaffinity>  (1) 
-5.36286

>  <filename>  (1) 
CCN(CC)CCOc1c(-c2cccnc2)nn2c1CCC2

$$$$
