
     RDKit          3D

 34 36  0  0  0  0  0  0  0  0999 V2000
    4.9138    1.8057   16.9786 H   0  0  0  0  0  0  0  0  0  0  0  0
    5.3803    1.3013   17.8250 C   0  0  0  0  0  0  0  0  0  0  0  0
    6.5434    0.6812   17.5703 N   0  0  0  0  0  0  0  0  0  0  0  0
    7.1556    0.0768   18.5924 C   0  0  0  0  0  0  0  0  0  0  0  0
    8.1046   -0.3969   18.3444 H   0  0  0  0  0  0  0  0  0  0  0  0
    6.6629    0.0365   19.9181 C   0  0  0  0  0  0  0  0  0  0  0  0
    7.4114   -0.6500   20.9854 C   0  0  0  0  0  0  0  0  0  0  0  0
    8.3229   -1.6796   20.9298 C   0  0  0  0  0  0  0  0  0  0  0  0
    8.7095   -2.1154   20.0312 H   0  0  0  0  0  0  0  0  0  0  0  0
    8.7819   -2.0822   22.1513 N   0  0  0  0  0  0  0  0  0  0  0  0
    8.1689   -1.2637   22.9634 C   0  0  0  0  0  0  0  0  0  0  0  0
    8.2721   -0.9154   24.6533 S   0  0  0  0  0  0  0  0  0  0  0  0
    7.1363    0.4228   24.3254 C   0  0  0  0  0  0  0  0  0  0  0  0
    6.7287    1.2435   25.3205 N   0  0  0  0  0  0  0  0  0  0  0  0
    5.8750    2.3893   24.9921 C   0  0  0  0  0  0  0  0  0  0  0  0
    5.3809    2.6971   25.9249 H   0  0  0  0  0  0  0  0  0  0  0  0
    5.0800    2.0773   24.3029 H   0  0  0  0  0  0  0  0  0  0  0  0
    6.6750    3.5504   24.4078 C   0  0  0  0  0  0  0  0  0  0  0  0
    7.4553    3.8745   25.1068 H   0  0  0  0  0  0  0  0  0  0  0  0
    6.0185    4.4041   24.2075 H   0  0  0  0  0  0  0  0  0  0  0  0
    7.1518    3.2536   23.4674 H   0  0  0  0  0  0  0  0  0  0  0  0
    7.1041    1.0016   26.7138 C   0  0  0  0  0  0  0  0  0  0  0  0
    7.0034    1.9614   27.2387 H   0  0  0  0  0  0  0  0  0  0  0  0
    8.1673    0.7235   26.7666 H   0  0  0  0  0  0  0  0  0  0  0  0
    6.2223   -0.0650   27.3585 C   0  0  0  0  0  0  0  0  0  0  0  0
    6.5115   -0.2130   28.4033 H   0  0  0  0  0  0  0  0  0  0  0  0
    6.3171   -1.0241   26.8380 H   0  0  0  0  0  0  0  0  0  0  0  0
    5.1683    0.2354   27.3279 H   0  0  0  0  0  0  0  0  0  0  0  0
    6.7414    0.5746   23.0895 N   0  0  0  0  0  0  0  0  0  0  0  0
    7.3284   -0.3960   22.3452 N   0  0  0  0  0  0  0  0  0  0  0  0
    5.4310    0.6733   20.1513 C   0  0  0  0  0  0  0  0  0  0  0  0
    5.0136    0.6606   21.1564 H   0  0  0  0  0  0  0  0  0  0  0  0
    4.7868    1.3162   19.0916 C   0  0  0  0  0  0  0  0  0  0  0  0
    3.8531    1.8502   19.2322 H   0  0  0  0  0  0  0  0  0  0  0  0
  1  2  1  0
  2  3  2  0
  3  4  1  0
  4  5  1  0
  4  6  2  0
  6  7  1  0
  7  8  2  0
  8  9  1  0
  8 10  1  0
 10 11  2  0
 11 12  1  0
 12 13  1  0
 13 14  1  0
 14 15  1  0
 15 16  1  0
 15 17  1  0
 15 18  1  0
 18 19  1  0
 18 20  1  0
 18 21  1  0
 14 22  1  0
 22 23  1  0
 22 24  1  0
 22 25  1  0
 25 26  1  0
 25 27  1  0
 25 28  1  0
 13 29  2  0
 29 30  1  0
  6 31  1  0
 31 32  1  0
 31 33  2  0
 33 34  1  0
 33  2  1  0
 30  7  1  0
 30 11  1  0
M  END
>  <cnnaffinity>  (1) 
-4.96832

>  <filename>  (1) 
CCN(CC)c1nn2c(-c3cccnc3)cnc2s1

$$$$
