
     RDKit          3D

 47 50  0  0  0  0  0  0  0  0999 V2000
    7.7991    2.7837   26.1604 C   0  0  0  0  0  0  0  0  0  0  0  0
    8.7844    2.3818   25.0695 C   0  0  0  0  0  0  0  0  0  0  0  0
    8.3260    2.7874   23.7483 N   0  0  0  0  0  0  0  0  0  0  0  0
    8.3500    4.0957   23.3653 C   0  0  0  0  0  0  0  0  0  0  0  0
    8.8355    5.0134   24.0041 O   0  0  0  0  0  0  0  0  0  0  0  0
    7.6636    4.1962   22.0199 C   0  0  0  0  0  0  0  0  0  0  0  0
    7.3445    2.7526   21.5993 C   0  0  0  0  0  0  0  0  0  0  0  0
    7.8225    1.8381   22.7654 C   0  0  0  0  0  0  0  0  0  0  0  0
    8.8372    0.7787   22.3704 C   0  0  0  0  0  0  0  0  0  0  0  0
   10.1251    0.7321   22.6685 N   0  0  0  0  0  0  0  0  0  0  0  0
   10.5783   -0.3584   22.0058 C   0  0  0  0  0  0  0  0  0  0  0  0
   12.0262   -0.6660   21.8377 C   0  0  0  0  0  0  0  0  0  0  0  0
   12.3827   -1.7043   20.9725 C   0  0  0  0  0  0  0  0  0  0  0  0
   13.6531   -1.8234   20.4047 C   0  0  0  0  0  0  0  0  0  0  0  0
   14.5885   -0.8437   20.7198 C   0  0  0  0  0  0  0  0  0  0  0  0
   15.9973   -0.3879   19.6495 Cl  0  0  0  0  0  0  0  0  0  0  0  0
   14.3445    0.0330   21.8046 C   0  0  0  0  0  0  0  0  0  0  0  0
   13.0664    0.1333   22.3535 C   0  0  0  0  0  0  0  0  0  0  0  0
   12.8685    0.8765   23.1227 H   0  0  0  0  0  0  0  0  0  0  0  0
   15.1395    0.6780   22.1620 H   0  0  0  0  0  0  0  0  0  0  0  0
   13.8579   -2.6557   19.7480 H   0  0  0  0  0  0  0  0  0  0  0  0
   11.5773   -2.3628   20.7063 H   0  0  0  0  0  0  0  0  0  0  0  0
    9.6214   -1.0121   21.3573 N   0  0  0  0  0  0  0  0  0  0  0  0
    8.5090   -0.2844   21.5927 N   0  0  0  0  0  0  0  0  0  0  0  0
    7.2187   -0.7580   21.0845 C   0  0  0  0  0  0  0  0  0  0  0  0
    6.5773    0.0328   19.9512 C   0  0  0  0  0  0  0  0  0  0  0  0
    5.3109    0.6238   20.0722 C   0  0  0  0  0  0  0  0  0  0  0  0
    4.7606    1.2931   18.9728 C   0  0  0  0  0  0  0  0  0  0  0  0
    5.4804    1.3211   17.7760 C   0  0  0  0  0  0  0  0  0  0  0  0
    6.6788    0.7346   17.6276 N   0  0  0  0  0  0  0  0  0  0  0  0
    7.2045    0.1202   18.6967 C   0  0  0  0  0  0  0  0  0  0  0  0
    8.1752   -0.3498   18.5397 H   0  0  0  0  0  0  0  0  0  0  0  0
    5.0784    1.8312   16.9013 H   0  0  0  0  0  0  0  0  0  0  0  0
    3.8040    1.8012   19.0331 H   0  0  0  0  0  0  0  0  0  0  0  0
    4.7665    0.5864   21.0192 H   0  0  0  0  0  0  0  0  0  0  0  0
    7.4072   -1.7832   20.7523 H   0  0  0  0  0  0  0  0  0  0  0  0
    6.5188   -0.8166   21.9247 H   0  0  0  0  0  0  0  0  0  0  0  0
    6.9693    1.2859   23.1925 H   0  0  0  0  0  0  0  0  0  0  0  0
    6.2696    2.6222   21.4577 H   0  0  0  0  0  0  0  0  0  0  0  0
    7.8276    2.4590   20.6624 H   0  0  0  0  0  0  0  0  0  0  0  0
    6.7739    4.8198   22.1532 H   0  0  0  0  0  0  0  0  0  0  0  0
    8.3204    4.7358   21.3376 H   0  0  0  0  0  0  0  0  0  0  0  0
    9.7703    2.8275   25.2409 H   0  0  0  0  0  0  0  0  0  0  0  0
    8.9372    1.2976   25.0466 H   0  0  0  0  0  0  0  0  0  0  0  0
    7.7701    3.8710   26.2715 H   0  0  0  0  0  0  0  0  0  0  0  0
    8.0885    2.3406   27.1179 H   0  0  0  0  0  0  0  0  0  0  0  0
    6.7913    2.4380   25.9086 H   0  0  0  0  0  0  0  0  0  0  0  0
  1  2  1  0
  2  3  1  0
  3  4  1  0
  4  5  2  0
  4  6  1  0
  6  7  1  0
  7  8  1  0
  8  9  1  0
  9 10  2  0
 10 11  1  0
 11 12  1  0
 12 13  2  0
 13 14  1  0
 14 15  2  0
 15 16  1  0
 15 17  1  0
 17 18  2  0
 18 19  1  0
 17 20  1  0
 14 21  1  0
 13 22  1  0
 11 23  2  0
 23 24  1  0
 24 25  1  0
 25 26  1  0
 26 27  2  0
 27 28  1  0
 28 29  2  0
 29 30  1  0
 30 31  2  0
 31 32  1  0
 29 33  1  0
 28 34  1  0
 27 35  1  0
 25 36  1  0
 25 37  1  0
  8 38  1  0
  7 39  1  0
  7 40  1  0
  6 41  1  0
  6 42  1  0
  2 43  1  0
  2 44  1  0
  1 45  1  0
  1 46  1  0
  1 47  1  0
  8  3  1  0
 24  9  1  0
 31 26  1  0
 18 12  1  0
M  END
>  <cnnaffinity>  (1) 
-6.46356

>  <filename>  (1) 
CCN1C(=O)CCC1c1nc(-c2ccc(Cl)cc2)nn1Cc1cccnc1

$$$$
