
     RDKit          3D

 46 49  0  0  0  0  0  0  0  0999 V2000
    5.4128   -2.2037   25.9692 C   0  0  0  0  0  0  0  0  0  0  0  0
    5.1333   -0.7659   26.4241 C   0  0  0  0  0  0  0  0  0  0  0  0
    5.9743    0.2525   25.8100 N   0  0  0  0  0  0  0  0  0  0  0  0
    5.8200    0.8362   24.5903 C   0  0  0  0  0  0  0  0  0  0  0  0
    6.9601    1.5596   24.3323 C   0  0  0  0  0  0  0  0  0  0  0  0
    7.4715    2.0727   22.9927 C   0  0  0  0  0  0  0  0  0  0  0  0
    8.3943    1.0390   22.4098 C   0  0  0  0  0  0  0  0  0  0  0  0
    9.7034    1.0336   22.5646 N   0  0  0  0  0  0  0  0  0  0  0  0
   10.0581   -0.2307   22.2224 C   0  0  0  0  0  0  0  0  0  0  0  0
   11.4637   -0.6778   22.0622 C   0  0  0  0  0  0  0  0  0  0  0  0
   11.6593   -1.7707   21.2029 C   0  0  0  0  0  0  0  0  0  0  0  0
   12.8926   -2.0060   20.6151 C   0  0  0  0  0  0  0  0  0  0  0  0
   13.9677   -1.2262   20.9956 C   0  0  0  0  0  0  0  0  0  0  0  0
   15.0627   -1.3576   20.2397 F   0  0  0  0  0  0  0  0  0  0  0  0
   13.8666   -0.2469   21.9898 C   0  0  0  0  0  0  0  0  0  0  0  0
   12.5978    0.0358   22.5201 C   0  0  0  0  0  0  0  0  0  0  0  0
   12.5006    0.8316   23.2609 H   0  0  0  0  0  0  0  0  0  0  0  0
   14.7428    0.3340   22.2617 H   0  0  0  0  0  0  0  0  0  0  0  0
   13.0380   -2.7303   19.8207 H   0  0  0  0  0  0  0  0  0  0  0  0
   10.7859   -2.3515   20.9210 H   0  0  0  0  0  0  0  0  0  0  0  0
    9.0265   -0.9874   21.8508 N   0  0  0  0  0  0  0  0  0  0  0  0
    7.9628   -0.1641   21.9780 N   0  0  0  0  0  0  0  0  0  0  0  0
    6.6591   -0.5246   21.4230 C   0  0  0  0  0  0  0  0  0  0  0  0
    6.2925    0.2292   20.1520 C   0  0  0  0  0  0  0  0  0  0  0  0
    5.0868    0.9285   20.0129 C   0  0  0  0  0  0  0  0  0  0  0  0
    4.7733    1.5076   18.7814 C   0  0  0  0  0  0  0  0  0  0  0  0
    5.6926    1.3924   17.7342 C   0  0  0  0  0  0  0  0  0  0  0  0
    6.8763    0.7730   17.8593 N   0  0  0  0  0  0  0  0  0  0  0  0
    7.1630    0.2234   19.0445 C   0  0  0  0  0  0  0  0  0  0  0  0
    8.1370   -0.2570   19.1226 H   0  0  0  0  0  0  0  0  0  0  0  0
    5.4726    1.8158   16.7565 H   0  0  0  0  0  0  0  0  0  0  0  0
    3.8461    2.0490   18.6200 H   0  0  0  0  0  0  0  0  0  0  0  0
    4.4020    1.0341   20.8591 H   0  0  0  0  0  0  0  0  0  0  0  0
    6.6873   -1.6075   21.2652 H   0  0  0  0  0  0  0  0  0  0  0  0
    5.9085   -0.3395   22.1928 H   0  0  0  0  0  0  0  0  0  0  0  0
    8.0717    2.9783   23.0982 H   0  0  0  0  0  0  0  0  0  0  0  0
    6.6595    2.2976   22.2928 H   0  0  0  0  0  0  0  0  0  0  0  0
    7.7454    1.3716   25.5017 C   0  0  0  0  0  0  0  0  0  0  0  0
    7.1437    0.5837   26.3775 N   0  0  0  0  0  0  0  0  0  0  0  0
    8.7613    1.7112   25.6777 H   0  0  0  0  0  0  0  0  0  0  0  0
    4.9138    0.6975   24.0107 H   0  0  0  0  0  0  0  0  0  0  0  0
    5.2953   -0.6654   27.4999 H   0  0  0  0  0  0  0  0  0  0  0  0
    4.0954   -0.4917   26.2106 H   0  0  0  0  0  0  0  0  0  0  0  0
    5.1796   -2.3494   24.9089 H   0  0  0  0  0  0  0  0  0  0  0  0
    4.7928   -2.8922   26.5530 H   0  0  0  0  0  0  0  0  0  0  0  0
    6.4604   -2.4756   26.1320 H   0  0  0  0  0  0  0  0  0  0  0  0
  1  2  1  0
  2  3  1  0
  3  4  1  0
  4  5  2  0
  5  6  1  0
  6  7  1  0
  7  8  2  0
  8  9  1  0
  9 10  1  0
 10 11  2  0
 11 12  1  0
 12 13  2  0
 13 14  1  0
 13 15  1  0
 15 16  2  0
 16 17  1  0
 15 18  1  0
 12 19  1  0
 11 20  1  0
  9 21  2  0
 21 22  1  0
 22 23  1  0
 23 24  1  0
 24 25  2  0
 25 26  1  0
 26 27  2  0
 27 28  1  0
 28 29  2  0
 29 30  1  0
 27 31  1  0
 26 32  1  0
 25 33  1  0
 23 34  1  0
 23 35  1  0
  6 36  1  0
  6 37  1  0
  5 38  1  0
 38 39  2  0
 38 40  1  0
  4 41  1  0
  2 42  1  0
  2 43  1  0
  1 44  1  0
  1 45  1  0
  1 46  1  0
 39  3  1  0
 22  7  1  0
 29 24  1  0
 16 10  1  0
M  END
>  <cnnaffinity>  (1) 
-6.52093

>  <filename>  (1) 
CCn1cc(Cc2nc(-c3ccc(F)cc3)nn2Cc2cccnc2)cn1

$$$$
