
     RDKit          3D

 52 55  0  0  0  0  0  0  0  0999 V2000
    9.5864    5.6070   23.5915 C   0  0  0  0  0  0  0  0  0  0  0  0
    8.9750    4.3075   24.1166 C   0  0  0  0  0  0  0  0  0  0  0  0
    9.4544    3.1065   23.4392 N   0  0  0  0  0  0  0  0  0  0  0  0
   10.5642    2.4925   23.9071 N   0  0  0  0  0  0  0  0  0  0  0  0
   10.7883    1.4961   23.0638 C   0  0  0  0  0  0  0  0  0  0  0  0
   11.8556    0.4733   23.2752 C   0  0  0  0  0  0  0  0  0  0  0  0
   12.5204    0.7213   24.1042 H   0  0  0  0  0  0  0  0  0  0  0  0
   11.3739   -0.4927   23.4810 H   0  0  0  0  0  0  0  0  0  0  0  0
   12.4586    0.3446   22.3692 H   0  0  0  0  0  0  0  0  0  0  0  0
    9.8422    1.4790   22.0156 C   0  0  0  0  0  0  0  0  0  0  0  0
    9.6523    0.4168   20.9538 C   0  0  0  0  0  0  0  0  0  0  0  0
    8.6314   -0.6002   21.3620 C   0  0  0  0  0  0  0  0  0  0  0  0
    8.8546   -1.4632   22.3331 N   0  0  0  0  0  0  0  0  0  0  0  0
    7.6442   -2.0447   22.5253 C   0  0  0  0  0  0  0  0  0  0  0  0
    7.3770   -3.0205   23.6378 C   0  0  0  0  0  0  0  0  0  0  0  0
    8.5050   -4.0607   23.8298 C   0  0  0  0  0  0  0  0  0  0  0  0
    9.4948   -3.4502   24.8510 C   0  0  0  0  0  0  0  0  0  0  0  0
    8.7482   -2.2884   25.5454 C   0  0  0  0  0  0  0  0  0  0  0  0
    7.2984   -2.3338   25.0264 C   0  0  0  0  0  0  0  0  0  0  0  0
    6.8380   -1.3407   24.9720 H   0  0  0  0  0  0  0  0  0  0  0  0
    6.6719   -2.9440   25.6883 H   0  0  0  0  0  0  0  0  0  0  0  0
    8.7861   -2.3564   26.6376 H   0  0  0  0  0  0  0  0  0  0  0  0
    9.2131   -1.3360   25.2696 H   0  0  0  0  0  0  0  0  0  0  0  0
    9.8394   -4.2103   25.5608 H   0  0  0  0  0  0  0  0  0  0  0  0
   10.3856   -3.0680   24.3444 H   0  0  0  0  0  0  0  0  0  0  0  0
    8.0718   -4.9848   24.2308 H   0  0  0  0  0  0  0  0  0  0  0  0
    8.9927   -4.3187   22.8845 H   0  0  0  0  0  0  0  0  0  0  0  0
    6.4270   -3.4868   23.3744 H   0  0  0  0  0  0  0  0  0  0  0  0
    6.6995   -1.6256   21.7042 N   0  0  0  0  0  0  0  0  0  0  0  0
    7.3436   -0.7042   20.9247 N   0  0  0  0  0  0  0  0  0  0  0  0
    6.6398   -0.0235   19.8817 C   0  0  0  0  0  0  0  0  0  0  0  0
    5.4205    0.6139   20.1398 C   0  0  0  0  0  0  0  0  0  0  0  0
    4.8027    1.3108   19.0954 C   0  0  0  0  0  0  0  0  0  0  0  0
    5.3962    1.3114   17.8295 C   0  0  0  0  0  0  0  0  0  0  0  0
    6.5405    0.6637   17.5610 N   0  0  0  0  0  0  0  0  0  0  0  0
    7.1457    0.0194   18.5712 C   0  0  0  0  0  0  0  0  0  0  0  0
    8.0742   -0.4939   18.3213 H   0  0  0  0  0  0  0  0  0  0  0  0
    4.9379    1.8490   17.0016 H   0  0  0  0  0  0  0  0  0  0  0  0
    3.8796    1.8541   19.2495 H   0  0  0  0  0  0  0  0  0  0  0  0
    4.9869    0.5650   21.1409 H   0  0  0  0  0  0  0  0  0  0  0  0
    9.3708    0.8760   20.0043 H   0  0  0  0  0  0  0  0  0  0  0  0
   10.5922   -0.1235   20.7896 H   0  0  0  0  0  0  0  0  0  0  0  0
    8.9760    2.5117   22.3033 C   0  0  0  0  0  0  0  0  0  0  0  0
    7.7006    2.8840   21.6085 C   0  0  0  0  0  0  0  0  0  0  0  0
    7.6448    2.3938   20.6290 H   0  0  0  0  0  0  0  0  0  0  0  0
    7.6059    3.9694   21.4779 H   0  0  0  0  0  0  0  0  0  0  0  0
    6.8219    2.5335   22.1644 H   0  0  0  0  0  0  0  0  0  0  0  0
    7.8861    4.3300   24.0184 H   0  0  0  0  0  0  0  0  0  0  0  0
    9.1970    4.1766   25.1774 H   0  0  0  0  0  0  0  0  0  0  0  0
    9.3693    5.7389   22.5259 H   0  0  0  0  0  0  0  0  0  0  0  0
   10.6721    5.6130   23.7263 H   0  0  0  0  0  0  0  0  0  0  0  0
    9.1669    6.4575   24.1388 H   0  0  0  0  0  0  0  0  0  0  0  0
  1  2  1  0
  2  3  1  0
  3  4  1  0
  4  5  2  0
  5  6  1  0
  6  7  1  0
  6  8  1  0
  6  9  1  0
  5 10  1  0
 10 11  1  0
 11 12  1  0
 12 13  2  0
 13 14  1  0
 14 15  1  0
 15 16  1  0
 16 17  1  0
 17 18  1  0
 18 19  1  0
 19 20  1  0
 19 21  1  0
 18 22  1  0
 18 23  1  0
 17 24  1  0
 17 25  1  0
 16 26  1  0
 16 27  1  0
 15 28  1  0
 14 29  2  0
 29 30  1  0
 30 31  1  0
 31 32  2  0
 32 33  1  0
 33 34  2  0
 34 35  1  0
 35 36  2  0
 36 37  1  0
 34 38  1  0
 33 39  1  0
 32 40  1  0
 11 41  1  0
 11 42  1  0
 10 43  2  0
 43 44  1  0
 44 45  1  0
 44 46  1  0
 44 47  1  0
  2 48  1  0
  2 49  1  0
  1 50  1  0
  1 51  1  0
  1 52  1  0
 43  3  1  0
 30 12  1  0
 36 31  1  0
 19 15  1  0
M  END
>  <cnnaffinity>  (1) 
-6.60144

>  <filename>  (1) 
CCn1nc(C)c(Cc2nc(C3CCCC3)nn2-c2cccnc2)c1C

$$$$
