
     RDKit          3D

 52 55  0  0  0  0  0  0  0  0999 V2000
   10.2718    1.6588   25.4664 C   0  0  0  0  0  0  0  0  0  0  0  0
   11.0684    2.5000   24.4585 C   0  0  0  0  0  0  0  0  0  0  0  0
   10.5995    2.2708   23.1004 N   0  0  0  0  0  0  0  0  0  0  0  0
    9.4435    2.8739   22.7557 N   0  0  0  0  0  0  0  0  0  0  0  0
    8.9716    2.1987   21.7231 C   0  0  0  0  0  0  0  0  0  0  0  0
    7.5602    2.4526   21.3033 C   0  0  0  0  0  0  0  0  0  0  0  0
    7.2958    3.4941   21.4973 H   0  0  0  0  0  0  0  0  0  0  0  0
    6.8907    1.8234   21.9080 H   0  0  0  0  0  0  0  0  0  0  0  0
    7.3995    2.1921   20.2555 H   0  0  0  0  0  0  0  0  0  0  0  0
    9.8445    1.1345   21.3689 C   0  0  0  0  0  0  0  0  0  0  0  0
    9.5837   -0.0480   20.4558 C   0  0  0  0  0  0  0  0  0  0  0  0
    8.5277   -0.9509   21.0156 C   0  0  0  0  0  0  0  0  0  0  0  0
    8.7468   -1.7491   22.0421 N   0  0  0  0  0  0  0  0  0  0  0  0
    7.5022   -2.1638   22.3932 C   0  0  0  0  0  0  0  0  0  0  0  0
    7.3021   -3.1032   23.5520 C   0  0  0  0  0  0  0  0  0  0  0  0
    6.5799   -2.4588   24.7552 C   0  0  0  0  0  0  0  0  0  0  0  0
    7.1320   -1.5901   25.1283 H   0  0  0  0  0  0  0  0  0  0  0  0
    6.5034   -3.1748   25.5820 H   0  0  0  0  0  0  0  0  0  0  0  0
    5.5658   -2.1305   24.5002 H   0  0  0  0  0  0  0  0  0  0  0  0
    6.6672   -4.3979   23.0366 C   0  0  0  0  0  0  0  0  0  0  0  0
    6.6155   -5.6302   23.8870 C   0  0  0  0  0  0  0  0  0  0  0  0
    5.3401   -4.9409   23.4824 C   0  0  0  0  0  0  0  0  0  0  0  0
    4.7121   -5.4085   22.7301 H   0  0  0  0  0  0  0  0  0  0  0  0
    4.7784   -4.4037   24.2458 H   0  0  0  0  0  0  0  0  0  0  0  0
    6.9345   -5.5681   24.9251 H   0  0  0  0  0  0  0  0  0  0  0  0
    6.8730   -6.5631   23.3996 H   0  0  0  0  0  0  0  0  0  0  0  0
    6.9084   -4.6000   21.9934 H   0  0  0  0  0  0  0  0  0  0  0  0
    8.3249   -3.3420   23.8742 H   0  0  0  0  0  0  0  0  0  0  0  0
    6.5286   -1.6988   21.6313 N   0  0  0  0  0  0  0  0  0  0  0  0
    7.1951   -0.9451   20.7093 N   0  0  0  0  0  0  0  0  0  0  0  0
    6.4674   -0.2586   19.6981 C   0  0  0  0  0  0  0  0  0  0  0  0
    5.2996    0.4464   20.0186 C   0  0  0  0  0  0  0  0  0  0  0  0
    4.7374    1.2647   19.0347 C   0  0  0  0  0  0  0  0  0  0  0  0
    5.3215    1.3013   17.7622 C   0  0  0  0  0  0  0  0  0  0  0  0
    6.3765    0.5464   17.4166 N   0  0  0  0  0  0  0  0  0  0  0  0
    6.9212   -0.2234   18.3668 C   0  0  0  0  0  0  0  0  0  0  0  0
    7.7700   -0.8358   18.0657 H   0  0  0  0  0  0  0  0  0  0  0  0
    4.9242    1.9524   16.9886 H   0  0  0  0  0  0  0  0  0  0  0  0
    3.8731    1.8859   19.2451 H   0  0  0  0  0  0  0  0  0  0  0  0
    4.8749    0.3677   21.0228 H   0  0  0  0  0  0  0  0  0  0  0  0
    9.3332    0.2718   19.4452 H   0  0  0  0  0  0  0  0  0  0  0  0
   10.4885   -0.6592   20.3678 H   0  0  0  0  0  0  0  0  0  0  0  0
   10.8401    1.1686   22.3236 C   0  0  0  0  0  0  0  0  0  0  0  0
   11.8901    0.1228   22.5833 C   0  0  0  0  0  0  0  0  0  0  0  0
   12.3998   -0.1739   21.6617 H   0  0  0  0  0  0  0  0  0  0  0  0
   12.6571    0.4422   23.2953 H   0  0  0  0  0  0  0  0  0  0  0  0
   11.4159   -0.7908   22.9690 H   0  0  0  0  0  0  0  0  0  0  0  0
   10.9094    3.5679   24.6360 H   0  0  0  0  0  0  0  0  0  0  0  0
   12.1448    2.3103   24.4899 H   0  0  0  0  0  0  0  0  0  0  0  0
    9.3018    2.1372   25.6279 H   0  0  0  0  0  0  0  0  0  0  0  0
   10.7752    1.5876   26.4273 H   0  0  0  0  0  0  0  0  0  0  0  0
   10.1093    0.6339   25.1042 H   0  0  0  0  0  0  0  0  0  0  0  0
  1  2  1  0
  2  3  1  0
  3  4  1  0
  4  5  2  0
  5  6  1  0
  6  7  1  0
  6  8  1  0
  6  9  1  0
  5 10  1  0
 10 11  1  0
 11 12  1  0
 12 13  2  0
 13 14  1  0
 14 15  1  0
 15 16  1  0
 16 17  1  0
 16 18  1  0
 16 19  1  0
 15 20  1  0
 20 21  1  0
 21 22  1  0
 22 23  1  0
 22 24  1  0
 21 25  1  0
 21 26  1  0
 20 27  1  0
 15 28  1  0
 14 29  2  0
 29 30  1  0
 30 31  1  0
 31 32  2  0
 32 33  1  0
 33 34  2  0
 34 35  1  0
 35 36  2  0
 36 37  1  0
 34 38  1  0
 33 39  1  0
 32 40  1  0
 11 41  1  0
 11 42  1  0
 10 43  2  0
 43 44  1  0
 44 45  1  0
 44 46  1  0
 44 47  1  0
  2 48  1  0
  2 49  1  0
  1 50  1  0
  1 51  1  0
  1 52  1  0
 43  3  1  0
 30 12  1  0
 36 31  1  0
 22 20  1  0
M  END
>  <cnnaffinity>  (1) 
-6.47471

>  <filename>  (1) 
CCn1nc(C)c(Cc2nc(C(C)C3CC3)nn2-c2cccnc2)c1C

$$$$
