
     RDKit          3D

 53 56  0  0  0  0  0  0  0  0999 V2000
    8.4011    2.6732   25.7773 C   0  0  0  0  0  0  0  0  0  0  0  0
    9.2478    3.4613   24.7747 C   0  0  0  0  0  0  0  0  0  0  0  0
    9.8248    2.6492   23.7145 N   0  0  0  0  0  0  0  0  0  0  0  0
   11.0161    2.0394   23.9033 N   0  0  0  0  0  0  0  0  0  0  0  0
   11.1373    1.2098   22.8753 C   0  0  0  0  0  0  0  0  0  0  0  0
   12.2476    0.2203   22.7589 C   0  0  0  0  0  0  0  0  0  0  0  0
   13.0313    0.3647   23.5028 H   0  0  0  0  0  0  0  0  0  0  0  0
   11.8297   -0.7853   22.8934 H   0  0  0  0  0  0  0  0  0  0  0  0
   12.7029    0.2576   21.7670 H   0  0  0  0  0  0  0  0  0  0  0  0
   10.0240    1.2838   22.0045 C   0  0  0  0  0  0  0  0  0  0  0  0
    9.6538    0.3181   20.8947 C   0  0  0  0  0  0  0  0  0  0  0  0
    8.6078   -0.6575   21.3400 C   0  0  0  0  0  0  0  0  0  0  0  0
    8.8111   -1.5028   22.3303 N   0  0  0  0  0  0  0  0  0  0  0  0
    7.5736   -1.9884   22.5947 C   0  0  0  0  0  0  0  0  0  0  0  0
    7.3631   -2.9452   23.7480 C   0  0  0  0  0  0  0  0  0  0  0  0
    5.8982   -2.9255   24.2368 C   0  0  0  0  0  0  0  0  0  0  0  0
    5.6050   -1.6977   25.0700 C   0  0  0  0  0  0  0  0  0  0  0  0
    6.5496   -0.9377   25.6312 C   0  0  0  0  0  0  0  0  0  0  0  0
    8.0261   -1.2344   25.5344 C   0  0  0  0  0  0  0  0  0  0  0  0
    8.3003   -2.6324   24.9454 C   0  0  0  0  0  0  0  0  0  0  0  0
    8.1173   -3.3930   25.7156 H   0  0  0  0  0  0  0  0  0  0  0  0
    9.3492   -2.7190   24.6453 H   0  0  0  0  0  0  0  0  0  0  0  0
    8.4873   -1.1318   26.5264 H   0  0  0  0  0  0  0  0  0  0  0  0
    8.5007   -0.4610   24.9111 H   0  0  0  0  0  0  0  0  0  0  0  0
    6.2667   -0.0421   26.1857 H   0  0  0  0  0  0  0  0  0  0  0  0
    4.5568   -1.4277   25.1861 H   0  0  0  0  0  0  0  0  0  0  0  0
    5.2160   -2.9634   23.3800 H   0  0  0  0  0  0  0  0  0  0  0  0
    5.7062   -3.8331   24.8250 H   0  0  0  0  0  0  0  0  0  0  0  0
    7.6160   -3.9399   23.3536 H   0  0  0  0  0  0  0  0  0  0  0  0
    6.6317   -1.5658   21.7672 N   0  0  0  0  0  0  0  0  0  0  0  0
    7.3060   -0.7174   20.9341 N   0  0  0  0  0  0  0  0  0  0  0  0
    6.6208   -0.0459   19.8813 C   0  0  0  0  0  0  0  0  0  0  0  0
    5.4097    0.6081   20.1386 C   0  0  0  0  0  0  0  0  0  0  0  0
    4.7926    1.3020   19.0945 C   0  0  0  0  0  0  0  0  0  0  0  0
    5.3919    1.2951   17.8303 C   0  0  0  0  0  0  0  0  0  0  0  0
    6.5323    0.6391   17.5620 N   0  0  0  0  0  0  0  0  0  0  0  0
    7.1327   -0.0084   18.5701 C   0  0  0  0  0  0  0  0  0  0  0  0
    8.0706   -0.5120   18.3300 H   0  0  0  0  0  0  0  0  0  0  0  0
    4.9422    1.8388   17.0037 H   0  0  0  0  0  0  0  0  0  0  0  0
    3.8733    1.8562   19.2521 H   0  0  0  0  0  0  0  0  0  0  0  0
    4.9846    0.5616   21.1411 H   0  0  0  0  0  0  0  0  0  0  0  0
    9.3035    0.8674   20.0196 H   0  0  0  0  0  0  0  0  0  0  0  0
   10.5295   -0.2698   20.5951 H   0  0  0  0  0  0  0  0  0  0  0  0
    9.1898    2.2207   22.5854 C   0  0  0  0  0  0  0  0  0  0  0  0
    7.7961    2.6401   22.2053 C   0  0  0  0  0  0  0  0  0  0  0  0
    7.5277    3.6487   22.5404 H   0  0  0  0  0  0  0  0  0  0  0  0
    7.6617    2.6137   21.1202 H   0  0  0  0  0  0  0  0  0  0  0  0
    7.0698    1.9434   22.6455 H   0  0  0  0  0  0  0  0  0  0  0  0
   10.0726    3.9857   25.2451 H   0  0  0  0  0  0  0  0  0  0  0  0
    8.6324    4.2247   24.2949 H   0  0  0  0  0  0  0  0  0  0  0  0
    7.5217    2.2409   25.2860 H   0  0  0  0  0  0  0  0  0  0  0  0
    8.0521    3.3298   26.5805 H   0  0  0  0  0  0  0  0  0  0  0  0
    8.9628    1.8453   26.2244 H   0  0  0  0  0  0  0  0  0  0  0  0
  1  2  1  0
  2  3  1  0
  3  4  1  0
  4  5  2  0
  5  6  1  0
  6  7  1  0
  6  8  1  0
  6  9  1  0
  5 10  1  0
 10 11  1  0
 11 12  1  0
 12 13  2  0
 13 14  1  0
 14 15  1  0
 15 16  1  0
 16 17  1  0
 17 18  2  0
 18 19  1  0
 19 20  1  0
 20 21  1  0
 20 22  1  0
 19 23  1  0
 19 24  1  0
 18 25  1  0
 17 26  1  0
 16 27  1  0
 16 28  1  0
 15 29  1  0
 14 30  2  0
 30 31  1  0
 31 32  1  0
 32 33  2  0
 33 34  1  0
 34 35  2  0
 35 36  1  0
 36 37  2  0
 37 38  1  0
 35 39  1  0
 34 40  1  0
 33 41  1  0
 11 42  1  0
 11 43  1  0
 10 44  2  0
 44 45  1  0
 45 46  1  0
 45 47  1  0
 45 48  1  0
  2 49  1  0
  2 50  1  0
  1 51  1  0
  1 52  1  0
  1 53  1  0
 44  3  1  0
 31 12  1  0
 37 32  1  0
 20 15  1  0
M  END
>  <cnnaffinity>  (1) 
-6.69668

>  <filename>  (1) 
CCn1nc(C)c(Cc2nc(C3CC=CCC3)nn2-c2cccnc2)c1C

$$$$
