
     RDKit          3D

 46 49  0  0  0  0  0  0  0  0999 V2000
    7.6908    0.9085   28.8138 C   0  0  0  0  0  0  0  0  0  0  0  0
    7.7851    0.0518   27.5523 C   0  0  0  0  0  0  0  0  0  0  0  0
    7.0062    0.5264   26.4151 N   0  0  0  0  0  0  0  0  0  0  0  0
    7.4845    1.1886   25.3381 C   0  0  0  0  0  0  0  0  0  0  0  0
    6.4711    1.2675   24.4087 C   0  0  0  0  0  0  0  0  0  0  0  0
    6.7099    1.7320   22.9752 C   0  0  0  0  0  0  0  0  0  0  0  0
    7.7716    0.8894   22.3120 C   0  0  0  0  0  0  0  0  0  0  0  0
    9.0723    1.0767   22.4546 N   0  0  0  0  0  0  0  0  0  0  0  0
    9.6066   -0.1096   22.0611 C   0  0  0  0  0  0  0  0  0  0  0  0
   11.0556   -0.3918   22.0214 C   0  0  0  0  0  0  0  0  0  0  0  0
   11.5207   -1.4623   21.2295 C   0  0  0  0  0  0  0  0  0  0  0  0
   12.8830   -1.6233   21.0678 C   0  0  0  0  0  0  0  0  0  0  0  0
   13.3669   -2.4791   20.1520 F   0  0  0  0  0  0  0  0  0  0  0  0
   13.7982   -0.8575   21.7786 C   0  0  0  0  0  0  0  0  0  0  0  0
   13.3417    0.1998   22.5715 C   0  0  0  0  0  0  0  0  0  0  0  0
   11.9708    0.4356   22.7033 C   0  0  0  0  0  0  0  0  0  0  0  0
   11.6159    1.2567   23.3239 H   0  0  0  0  0  0  0  0  0  0  0  0
   14.0633    0.8518   23.0580 H   0  0  0  0  0  0  0  0  0  0  0  0
   14.8352   -1.1300   21.6845 H   0  0  0  0  0  0  0  0  0  0  0  0
   10.8336   -2.1449   20.7356 H   0  0  0  0  0  0  0  0  0  0  0  0
    8.7093   -0.9840   21.6341 N   0  0  0  0  0  0  0  0  0  0  0  0
    7.5358   -0.3318   21.7852 N   0  0  0  0  0  0  0  0  0  0  0  0
    6.3546   -0.8334   21.0866 C   0  0  0  0  0  0  0  0  0  0  0  0
    5.9979   -0.0282   19.8576 C   0  0  0  0  0  0  0  0  0  0  0  0
    4.8058    0.6932   19.7514 C   0  0  0  0  0  0  0  0  0  0  0  0
    4.5915    1.4674   18.6093 C   0  0  0  0  0  0  0  0  0  0  0  0
    5.5669    1.4678   17.6091 C   0  0  0  0  0  0  0  0  0  0  0  0
    6.7091    0.7683   17.6833 N   0  0  0  0  0  0  0  0  0  0  0  0
    6.9097    0.0488   18.7931 C   0  0  0  0  0  0  0  0  0  0  0  0
    7.8456   -0.5062   18.8420 H   0  0  0  0  0  0  0  0  0  0  0  0
    5.4273    2.0558   16.7052 H   0  0  0  0  0  0  0  0  0  0  0  0
    3.7009    2.0752   18.4935 H   0  0  0  0  0  0  0  0  0  0  0  0
    4.0610    0.6475   20.5489 H   0  0  0  0  0  0  0  0  0  0  0  0
    6.5781   -1.8742   20.8383 H   0  0  0  0  0  0  0  0  0  0  0  0
    5.5275   -0.8437   21.7868 H   0  0  0  0  0  0  0  0  0  0  0  0
    5.7993    1.7314   22.3711 H   0  0  0  0  0  0  0  0  0  0  0  0
    7.0896    2.7584   22.9585 H   0  0  0  0  0  0  0  0  0  0  0  0
    5.3794    0.6371   25.0546 C   0  0  0  0  0  0  0  0  0  0  0  0
    5.7187    0.1913   26.2594 N   0  0  0  0  0  0  0  0  0  0  0  0
    4.3679    0.4595   24.6954 H   0  0  0  0  0  0  0  0  0  0  0  0
    8.5279    1.4879   25.2514 H   0  0  0  0  0  0  0  0  0  0  0  0
    7.4557   -0.9707   27.7636 H   0  0  0  0  0  0  0  0  0  0  0  0
    8.8259    0.0074   27.2155 H   0  0  0  0  0  0  0  0  0  0  0  0
    8.3830    0.5156   29.5667 H   0  0  0  0  0  0  0  0  0  0  0  0
    6.6828    0.8808   29.2347 H   0  0  0  0  0  0  0  0  0  0  0  0
    7.9615    1.9504   28.6247 H   0  0  0  0  0  0  0  0  0  0  0  0
  1  2  1  0
  2  3  1  0
  3  4  1  0
  4  5  2  0
  5  6  1  0
  6  7  1  0
  7  8  2  0
  8  9  1  0
  9 10  1  0
 10 11  2  0
 11 12  1  0
 12 13  1  0
 12 14  2  0
 14 15  1  0
 15 16  2  0
 16 17  1  0
 15 18  1  0
 14 19  1  0
 11 20  1  0
  9 21  2  0
 21 22  1  0
 22 23  1  0
 23 24  1  0
 24 25  2  0
 25 26  1  0
 26 27  2  0
 27 28  1  0
 28 29  2  0
 29 30  1  0
 27 31  1  0
 26 32  1  0
 25 33  1  0
 23 34  1  0
 23 35  1  0
  6 36  1  0
  6 37  1  0
  5 38  1  0
 38 39  2  0
 38 40  1  0
  4 41  1  0
  2 42  1  0
  2 43  1  0
  1 44  1  0
  1 45  1  0
  1 46  1  0
 39  3  1  0
 22  7  1  0
 29 24  1  0
 16 10  1  0
M  END
>  <cnnaffinity>  (1) 
-6.23905

>  <filename>  (1) 
CCn1cc(Cc2nc(-c3cccc(F)c3)nn2Cc2cccnc2)cn1

$$$$
