
     RDKit          3D

 30 30  0  0  0  0  0  0  0  0999 V2000
    5.0205    1.8236   16.9792 H   0  0  0  0  0  0  0  0  0  0  0  0
    5.5105    1.2835   17.7865 C   0  0  0  0  0  0  0  0  0  0  0  0
    6.6958    0.7279   17.4872 N   0  0  0  0  0  0  0  0  0  0  0  0
    7.3350    0.0796   18.4633 C   0  0  0  0  0  0  0  0  0  0  0  0
    8.3096   -0.3307   18.1981 H   0  0  0  0  0  0  0  0  0  0  0  0
    6.8159   -0.0968   19.7612 C   0  0  0  0  0  0  0  0  0  0  0  0
    7.6750   -0.8394   20.7557 C   0  0  0  0  0  0  0  0  0  0  0  0
    8.8843   -0.8341   20.5964 O   0  0  0  0  0  0  0  0  0  0  0  0
    7.0559   -1.5747   22.0351 C   0  0  0  0  0  0  0  0  0  0  0  0
    5.7238   -2.1578   21.8064 N   0  0  0  0  0  0  0  0  0  0  0  0
    5.2415   -2.1878   22.7039 H   0  0  0  0  0  0  0  0  0  0  0  0
    5.5751   -3.4046   21.0790 C   0  0  0  0  0  0  0  0  0  0  0  0
    6.3501   -4.1425   21.3381 H   0  0  0  0  0  0  0  0  0  0  0  0
    4.6355   -3.8392   21.4207 H   0  0  0  0  0  0  0  0  0  0  0  0
    5.5409   -3.1822   19.5722 C   0  0  0  0  0  0  0  0  0  0  0  0
    5.3978   -4.1312   19.0439 H   0  0  0  0  0  0  0  0  0  0  0  0
    4.7544   -2.4821   19.2866 H   0  0  0  0  0  0  0  0  0  0  0  0
    6.4582   -2.7157   19.2219 H   0  0  0  0  0  0  0  0  0  0  0  0
    6.8184   -0.5169   23.1274 C   0  0  0  0  0  0  0  0  0  0  0  0
    7.7520   -0.0455   23.4500 H   0  0  0  0  0  0  0  0  0  0  0  0
    6.1342    0.2658   22.7830 H   0  0  0  0  0  0  0  0  0  0  0  0
    6.3601   -0.9812   24.0125 H   0  0  0  0  0  0  0  0  0  0  0  0
    8.0773   -2.6151   22.5586 C   0  0  0  0  0  0  0  0  0  0  0  0
    9.0086   -2.0938   22.7899 H   0  0  0  0  0  0  0  0  0  0  0  0
    8.3081   -3.3839   21.8106 H   0  0  0  0  0  0  0  0  0  0  0  0
    7.7105   -3.1094   23.4686 H   0  0  0  0  0  0  0  0  0  0  0  0
    5.5584    0.4632   20.0482 C   0  0  0  0  0  0  0  0  0  0  0  0
    5.0898    0.3584   21.0279 H   0  0  0  0  0  0  0  0  0  0  0  0
    4.9107    1.1867   19.0462 C   0  0  0  0  0  0  0  0  0  0  0  0
    3.9720    1.6942   19.2371 H   0  0  0  0  0  0  0  0  0  0  0  0
  1  2  1  0
  2  3  2  0
  3  4  1  0
  4  5  1  0
  4  6  2  0
  6  7  1  0
  7  8  2  0
  7  9  1  0
  9 10  1  0
 10 11  1  0
 10 12  1  0
 12 13  1  0
 12 14  1  0
 12 15  1  0
 15 16  1  0
 15 17  1  0
 15 18  1  0
  9 19  1  0
 19 20  1  0
 19 21  1  0
 19 22  1  0
  9 23  1  0
 23 24  1  0
 23 25  1  0
 23 26  1  0
  6 27  1  0
 27 28  1  0
 27 29  2  0
 29 30  1  0
 29  2  1  0
M  END
>  <cnnaffinity>  (1) 
-3.6136

>  <filename>  (1) 
CCNC(C)(C)C(=O)c1cccnc1

$$$$
