
     RDKit          3D

 27 28  0  0  0  0  0  0  0  0999 V2000
    4.9720    1.8246   17.0243 H   0  0  0  0  0  0  0  0  0  0  0  0
    5.4506    1.2864   17.8360 C   0  0  0  0  0  0  0  0  0  0  0  0
    6.6125    0.6771   17.5434 N   0  0  0  0  0  0  0  0  0  0  0  0
    7.2214    0.0189   18.5343 C   0  0  0  0  0  0  0  0  0  0  0  0
    8.1640   -0.4708   18.2942 H   0  0  0  0  0  0  0  0  0  0  0  0
    6.7053   -0.0893   19.8373 C   0  0  0  0  0  0  0  0  0  0  0  0
    7.4527   -0.7782   20.8411 N   0  0  0  0  0  0  0  0  0  0  0  0
    8.7205   -0.3552   21.2615 C   0  0  0  0  0  0  0  0  0  0  0  0
    9.2920    0.3696   20.7111 H   0  0  0  0  0  0  0  0  0  0  0  0
    9.0536   -1.1056   22.3283 C   0  0  0  0  0  0  0  0  0  0  0  0
   10.1207   -1.1517   23.1978 N   0  0  0  0  0  0  0  0  0  0  0  0
   10.2327   -2.1086   23.5083 H   0  0  0  0  0  0  0  0  0  0  0  0
   11.3807   -0.6060   22.7113 C   0  0  0  0  0  0  0  0  0  0  0  0
   12.1045   -0.5811   23.5305 H   0  0  0  0  0  0  0  0  0  0  0  0
   11.2236    0.4370   22.4178 H   0  0  0  0  0  0  0  0  0  0  0  0
   11.9179   -1.3945   21.5323 C   0  0  0  0  0  0  0  0  0  0  0  0
   11.1935   -1.3347   20.7172 H   0  0  0  0  0  0  0  0  0  0  0  0
   12.0677   -2.4471   21.7824 H   0  0  0  0  0  0  0  0  0  0  0  0
   12.8788   -1.0070   21.2019 H   0  0  0  0  0  0  0  0  0  0  0  0
    8.0438   -2.0118   22.5125 N   0  0  0  0  0  0  0  0  0  0  0  0
    8.0175   -2.7138   23.2277 H   0  0  0  0  0  0  0  0  0  0  0  0
    7.0470   -1.8549   21.5998 C   0  0  0  0  0  0  0  0  0  0  0  0
    5.7076   -2.8276   21.4447 S   0  0  0  0  0  0  0  0  0  0  0  0
    5.4885    0.5432   20.1345 C   0  0  0  0  0  0  0  0  0  0  0  0
    5.0778    0.5064   21.1466 H   0  0  0  0  0  0  0  0  0  0  0  0
    4.8594    1.2492   19.1048 C   0  0  0  0  0  0  0  0  0  0  0  0
    3.9304    1.7835   19.2816 H   0  0  0  0  0  0  0  0  0  0  0  0
  1  2  1  0
  2  3  2  0
  3  4  1  0
  4  5  1  0
  4  6  2  0
  6  7  1  0
  7  8  1  0
  8  9  1  0
  8 10  2  0
 10 11  1  0
 11 12  1  0
 11 13  1  0
 13 14  1  0
 13 15  1  0
 13 16  1  0
 16 17  1  0
 16 18  1  0
 16 19  1  0
 10 20  1  0
 20 21  1  0
 20 22  1  0
 22 23  2  0
  6 24  1  0
 24 25  1  0
 24 26  2  0
 26 27  1  0
 26  2  1  0
 22  7  1  0
M  END
>  <cnnaffinity>  (1) 
-4.54365

>  <filename>  (1) 
CCNc1cn(-c2cccnc2)c(=S)[nH]1

$$$$
