
     RDKit          3D

 21 21  0  0  0  0  0  0  0  0999 V2000
    4.9483    1.7729   16.9998 H   0  0  0  0  0  0  0  0  0  0  0  0
    5.4093    1.2801   17.8549 C   0  0  0  0  0  0  0  0  0  0  0  0
    6.5718    0.6545   17.6266 N   0  0  0  0  0  0  0  0  0  0  0  0
    7.1590    0.0337   18.6539 C   0  0  0  0  0  0  0  0  0  0  0  0
    8.1186   -0.4240   18.4238 H   0  0  0  0  0  0  0  0  0  0  0  0
    6.6071   -0.0338   19.9377 C   0  0  0  0  0  0  0  0  0  0  0  0
    7.4257   -0.7277   20.9808 C   0  0  0  0  0  0  0  0  0  0  0  0
    8.6403   -0.8037   20.9023 O   0  0  0  0  0  0  0  0  0  0  0  0
    6.7299   -1.2651   22.0151 N   0  0  0  0  0  0  0  0  0  0  0  0
    5.7272   -1.2921   21.9357 H   0  0  0  0  0  0  0  0  0  0  0  0
    7.3810   -1.9399   23.1321 C   0  0  0  0  0  0  0  0  0  0  0  0
    8.1874   -1.2882   23.4919 H   0  0  0  0  0  0  0  0  0  0  0  0
    6.6493   -2.0180   23.9421 H   0  0  0  0  0  0  0  0  0  0  0  0
    7.9368   -3.3130   22.7607 C   0  0  0  0  0  0  0  0  0  0  0  0
    7.1377   -3.9746   22.4108 H   0  0  0  0  0  0  0  0  0  0  0  0
    8.6770   -3.2075   21.9627 H   0  0  0  0  0  0  0  0  0  0  0  0
    8.4185   -3.7800   23.6268 H   0  0  0  0  0  0  0  0  0  0  0  0
    5.3963    0.6370   20.1745 C   0  0  0  0  0  0  0  0  0  0  0  0
    4.9600    0.6729   21.1778 H   0  0  0  0  0  0  0  0  0  0  0  0
    4.7960    1.3095   19.1120 C   0  0  0  0  0  0  0  0  0  0  0  0
    3.8689    1.8511   19.2473 H   0  0  0  0  0  0  0  0  0  0  0  0
  1  2  1  0
  2  3  2  0
  3  4  1  0
  4  5  1  0
  4  6  2  0
  6  7  1  0
  7  8  2  0
  7  9  1  0
  9 10  1  0
  9 11  1  0
 11 12  1  0
 11 13  1  0
 11 14  1  0
 14 15  1  0
 14 16  1  0
 14 17  1  0
  6 18  1  0
 18 19  1  0
 18 20  2  0
 20 21  1  0
 20  2  1  0
M  END
>  <cnnaffinity>  (1) 
-3.6067

>  <filename>  (1) 
CCNC(=O)c1cccnc1

$$$$
