
     RDKit          3D

 27 28  0  0  0  0  0  0  0  0999 V2000
    4.9834    1.8937   17.0056 H   0  0  0  0  0  0  0  0  0  0  0  0
    5.4436    1.3067   17.7968 C   0  0  0  0  0  0  0  0  0  0  0  0
    6.5921    0.6861   17.4760 N   0  0  0  0  0  0  0  0  0  0  0  0
    7.2214   -0.0136   18.4293 C   0  0  0  0  0  0  0  0  0  0  0  0
    8.1682   -0.4783   18.1346 H   0  0  0  0  0  0  0  0  0  0  0  0
    6.7114   -0.1470   19.7418 C   0  0  0  0  0  0  0  0  0  0  0  0
    7.4307   -0.8126   20.7747 N   0  0  0  0  0  0  0  0  0  0  0  0
    8.7251   -0.4311   21.1656 C   0  0  0  0  0  0  0  0  0  0  0  0
    9.2986    0.2839   20.5991 H   0  0  0  0  0  0  0  0  0  0  0  0
    9.0108   -1.0920   22.2993 C   0  0  0  0  0  0  0  0  0  0  0  0
   10.0810   -1.1008   23.1623 N   0  0  0  0  0  0  0  0  0  0  0  0
   10.1417   -2.0198   23.5871 H   0  0  0  0  0  0  0  0  0  0  0  0
   11.3547   -0.6657   22.5786 C   0  0  0  0  0  0  0  0  0  0  0  0
   12.0419   -0.4226   23.4005 H   0  0  0  0  0  0  0  0  0  0  0  0
   11.1997    0.2756   22.0287 H   0  0  0  0  0  0  0  0  0  0  0  0
   11.8949   -1.7360   21.6247 C   0  0  0  0  0  0  0  0  0  0  0  0
   11.0479   -2.1474   21.0579 H   0  0  0  0  0  0  0  0  0  0  0  0
   12.3764   -2.5519   22.1677 H   0  0  0  0  0  0  0  0  0  0  0  0
   12.6327   -1.3527   20.9137 H   0  0  0  0  0  0  0  0  0  0  0  0
    7.9415   -1.8919   22.6051 N   0  0  0  0  0  0  0  0  0  0  0  0
    7.8316   -2.4815   23.4044 H   0  0  0  0  0  0  0  0  0  0  0  0
    6.9247   -1.7448   21.7020 C   0  0  0  0  0  0  0  0  0  0  0  0
    5.8601   -2.3318   21.7312 O   0  0  0  0  0  0  0  0  0  0  0  0
    5.4980    0.4806   20.0534 C   0  0  0  0  0  0  0  0  0  0  0  0
    5.1130    0.3914   21.0696 H   0  0  0  0  0  0  0  0  0  0  0  0
    4.8594    1.2352   19.0663 C   0  0  0  0  0  0  0  0  0  0  0  0
    3.9504    1.7896   19.2795 H   0  0  0  0  0  0  0  0  0  0  0  0
  1  2  1  0
  2  3  2  0
  3  4  1  0
  4  5  1  0
  4  6  2  0
  6  7  1  0
  7  8  1  0
  8  9  1  0
  8 10  2  0
 10 11  1  0
 11 12  1  0
 11 13  1  0
 13 14  1  0
 13 15  1  0
 13 16  1  0
 16 17  1  0
 16 18  1  0
 16 19  1  0
 10 20  1  0
 20 21  1  0
 20 22  1  0
 22 23  2  0
  6 24  1  0
 24 25  1  0
 24 26  2  0
 26 27  1  0
 26  2  1  0
 22  7  1  0
M  END
>  <cnnaffinity>  (1) 
-4.22528

>  <filename>  (1) 
CCNc1cn(-c2cccnc2)c(=O)[nH]1

$$$$
