
     RDKit          3D

 30 31  0  0  0  0  0  0  0  0999 V2000
    4.9365    1.8118   16.9966 H   0  0  0  0  0  0  0  0  0  0  0  0
    5.3893    1.2900   17.8390 C   0  0  0  0  0  0  0  0  0  0  0  0
    6.5451    0.6547   17.5850 N   0  0  0  0  0  0  0  0  0  0  0  0
    7.1452    0.0099   18.5919 C   0  0  0  0  0  0  0  0  0  0  0  0
    8.1129   -0.4424   18.3769 H   0  0  0  0  0  0  0  0  0  0  0  0
    6.6028   -0.0749   19.8930 C   0  0  0  0  0  0  0  0  0  0  0  0
    7.3004   -0.7653   20.9568 N   0  0  0  0  0  0  0  0  0  0  0  0
    6.8727   -1.7821   21.8016 C   0  0  0  0  0  0  0  0  0  0  0  0
    5.6481   -2.3636   21.6843 N   0  0  0  0  0  0  0  0  0  0  0  0
    5.0601   -2.1327   20.9080 H   0  0  0  0  0  0  0  0  0  0  0  0
    5.2116   -3.2862   22.6250 C   0  0  0  0  0  0  0  0  0  0  0  0
    5.7629   -3.5453   23.6661 O   0  0  0  0  0  0  0  0  0  0  0  0
    4.0600   -3.8858   22.1928 N   0  0  0  0  0  0  0  0  0  0  0  0
    3.5394   -3.2981   21.5659 H   0  0  0  0  0  0  0  0  0  0  0  0
    3.3097   -4.7368   23.1238 C   0  0  0  0  0  0  0  0  0  0  0  0
    2.2548   -4.7150   22.8318 H   0  0  0  0  0  0  0  0  0  0  0  0
    3.3893   -4.3206   24.1393 H   0  0  0  0  0  0  0  0  0  0  0  0
    3.8695   -6.1512   23.0909 C   0  0  0  0  0  0  0  0  0  0  0  0
    4.9232   -6.1398   23.3808 H   0  0  0  0  0  0  0  0  0  0  0  0
    3.3413   -6.8183   23.7770 H   0  0  0  0  0  0  0  0  0  0  0  0
    3.7996   -6.5615   22.0806 H   0  0  0  0  0  0  0  0  0  0  0  0
    7.7709   -2.1406   22.6669 N   0  0  0  0  0  0  0  0  0  0  0  0
    8.8010   -1.2986   22.3776 N   0  0  0  0  0  0  0  0  0  0  0  0
    9.6716   -1.3111   22.8799 H   0  0  0  0  0  0  0  0  0  0  0  0
    8.5860   -0.4392   21.3777 C   0  0  0  0  0  0  0  0  0  0  0  0
    9.6382    0.7135   20.8207 S   0  0  0  0  0  0  0  0  0  0  0  0
    5.4128    0.6125   20.1519 C   0  0  0  0  0  0  0  0  0  0  0  0
    5.0231    0.6341   21.1695 H   0  0  0  0  0  0  0  0  0  0  0  0
    4.7882    1.3035   19.1009 C   0  0  0  0  0  0  0  0  0  0  0  0
    3.8701    1.8644   19.2519 H   0  0  0  0  0  0  0  0  0  0  0  0
  1  2  1  0
  2  3  2  0
  3  4  1  0
  4  5  1  0
  4  6  2  0
  6  7  1  0
  7  8  1  0
  8  9  1  0
  9 10  1  0
  9 11  1  0
 11 12  2  0
 11 13  1  0
 13 14  1  0
 13 15  1  0
 15 16  1  0
 15 17  1  0
 15 18  1  0
 18 19  1  0
 18 20  1  0
 18 21  1  0
  8 22  2  0
 22 23  1  0
 23 24  1  0
 23 25  1  0
 25 26  2  0
  6 27  1  0
 27 28  1  0
 27 29  2  0
 29 30  1  0
 29  2  1  0
 25  7  1  0
M  END
>  <cnnaffinity>  (1) 
-4.72056

>  <filename>  (1) 
CCNC(=O)Nc1n[nH]c(=S)n1-c1cccnc1

$$$$
