
     RDKit          3D

 50 53  0  0  0  0  0  0  0  0999 V2000
    9.4666    5.2182   24.8998 C   0  0  0  0  0  0  0  0  0  0  0  0
    9.5268    4.0662   23.9064 C   0  0  0  0  0  0  0  0  0  0  0  0
   10.7684    3.3804   24.1064 O   0  0  0  0  0  0  0  0  0  0  0  0
   11.0755    2.3026   23.3552 C   0  0  0  0  0  0  0  0  0  0  0  0
   12.3188    1.7118   23.6507 C   0  0  0  0  0  0  0  0  0  0  0  0
   12.7162    0.5977   22.9304 C   0  0  0  0  0  0  0  0  0  0  0  0
   11.8461    0.1138   21.9412 C   0  0  0  0  0  0  0  0  0  0  0  0
   10.6336    0.7657   21.7388 C   0  0  0  0  0  0  0  0  0  0  0  0
    9.6618    0.2569   20.7335 C   0  0  0  0  0  0  0  0  0  0  0  0
    8.6235   -0.5637   21.3902 C   0  0  0  0  0  0  0  0  0  0  0  0
    8.8494   -1.4284   22.3561 N   0  0  0  0  0  0  0  0  0  0  0  0
    7.6354   -1.9951   22.5471 C   0  0  0  0  0  0  0  0  0  0  0  0
    7.3798   -2.9642   23.6575 C   0  0  0  0  0  0  0  0  0  0  0  0
    6.5879   -2.2815   24.8156 C   0  0  0  0  0  0  0  0  0  0  0  0
    6.0843   -3.2783   25.8327 C   0  0  0  0  0  0  0  0  0  0  0  0
    5.9956   -4.5897   25.6000 C   0  0  0  0  0  0  0  0  0  0  0  0
    6.4567   -5.2415   24.3147 C   0  0  0  0  0  0  0  0  0  0  0  0
    6.6339   -4.2297   23.1687 C   0  0  0  0  0  0  0  0  0  0  0  0
    7.1794   -4.6986   22.3402 H   0  0  0  0  0  0  0  0  0  0  0  0
    5.6569   -3.9163   22.7686 H   0  0  0  0  0  0  0  0  0  0  0  0
    7.4085   -5.7643   24.5052 H   0  0  0  0  0  0  0  0  0  0  0  0
    5.7495   -6.0280   24.0222 H   0  0  0  0  0  0  0  0  0  0  0  0
    5.5953   -5.2510   26.3703 H   0  0  0  0  0  0  0  0  0  0  0  0
    5.7576   -2.8697   26.7902 H   0  0  0  0  0  0  0  0  0  0  0  0
    7.2106   -1.5263   25.3155 H   0  0  0  0  0  0  0  0  0  0  0  0
    5.7306   -1.7247   24.4024 H   0  0  0  0  0  0  0  0  0  0  0  0
    8.3790   -3.2389   24.0259 H   0  0  0  0  0  0  0  0  0  0  0  0
    6.6836   -1.5662   21.7337 N   0  0  0  0  0  0  0  0  0  0  0  0
    7.3327   -0.6608   20.9625 N   0  0  0  0  0  0  0  0  0  0  0  0
    6.6563    0.0040   19.9049 C   0  0  0  0  0  0  0  0  0  0  0  0
    5.4375    0.6383   20.1606 C   0  0  0  0  0  0  0  0  0  0  0  0
    4.8073    1.3062   19.1075 C   0  0  0  0  0  0  0  0  0  0  0  0
    5.3983    1.2910   17.8383 C   0  0  0  0  0  0  0  0  0  0  0  0
    6.5521    0.6583   17.5780 N   0  0  0  0  0  0  0  0  0  0  0  0
    7.1640    0.0381   18.5928 C   0  0  0  0  0  0  0  0  0  0  0  0
    8.1117   -0.4431   18.3534 H   0  0  0  0  0  0  0  0  0  0  0  0
    4.9338    1.8020   16.9974 H   0  0  0  0  0  0  0  0  0  0  0  0
    3.8763    1.8431   19.2571 H   0  0  0  0  0  0  0  0  0  0  0  0
    5.0160    0.6032   21.1645 H   0  0  0  0  0  0  0  0  0  0  0  0
   10.1428   -0.4234   20.0219 H   0  0  0  0  0  0  0  0  0  0  0  0
    9.1996    1.0994   20.2181 H   0  0  0  0  0  0  0  0  0  0  0  0
   10.2401    1.8479   22.4299 N   0  0  0  0  0  0  0  0  0  0  0  0
   12.0782   -0.7608   21.3427 H   0  0  0  0  0  0  0  0  0  0  0  0
   13.6691    0.1065   23.1350 H   0  0  0  0  0  0  0  0  0  0  0  0
   12.8904    2.1640   24.4430 H   0  0  0  0  0  0  0  0  0  0  0  0
    9.4724    4.4238   22.8688 H   0  0  0  0  0  0  0  0  0  0  0  0
    8.6950    3.3639   24.0544 H   0  0  0  0  0  0  0  0  0  0  0  0
   10.2836    5.9337   24.7490 H   0  0  0  0  0  0  0  0  0  0  0  0
    9.5017    4.8681   25.9385 H   0  0  0  0  0  0  0  0  0  0  0  0
    8.5205    5.7496   24.7543 H   0  0  0  0  0  0  0  0  0  0  0  0
  1  2  1  0
  2  3  1  0
  3  4  1  0
  4  5  2  0
  5  6  1  0
  6  7  2  0
  7  8  1  0
  8  9  1  0
  9 10  1  0
 10 11  2  0
 11 12  1  0
 12 13  1  0
 13 14  1  0
 14 15  1  0
 15 16  2  0
 16 17  1  0
 17 18  1  0
 18 19  1  0
 18 20  1  0
 17 21  1  0
 17 22  1  0
 16 23  1  0
 15 24  1  0
 14 25  1  0
 14 26  1  0
 13 27  1  0
 12 28  2  0
 28 29  1  0
 29 30  1  0
 30 31  2  0
 31 32  1  0
 32 33  2  0
 33 34  1  0
 34 35  2  0
 35 36  1  0
 33 37  1  0
 32 38  1  0
 31 39  1  0
  9 40  1  0
  9 41  1  0
  8 42  2  0
  7 43  1  0
  6 44  1  0
  5 45  1  0
  2 46  1  0
  2 47  1  0
  1 48  1  0
  1 49  1  0
  1 50  1  0
 42  4  1  0
 29 10  1  0
 35 30  1  0
 18 13  1  0
M  END
>  <cnnaffinity>  (1) 
-6.61491

>  <filename>  (1) 
CCOc1cccc(Cc2nc(C3CC=CCC3)nn2-c2cccnc2)n1

$$$$
