
     RDKit          3D

 43 45  0  0  0  0  0  0  0  0999 V2000
    8.3352   -5.5357   24.6596 C   0  0  0  0  0  0  0  0  0  0  0  0
    7.4376   -4.5768   23.8894 C   0  0  0  0  0  0  0  0  0  0  0  0
    7.7160   -4.5648   22.4946 O   0  0  0  0  0  0  0  0  0  0  0  0
    8.5689   -3.5332   22.0233 C   0  0  0  0  0  0  0  0  0  0  0  0
    7.9597   -2.1567   21.8688 C   0  0  0  0  0  0  0  0  0  0  0  0
    7.5426   -1.7432   20.6904 N   0  0  0  0  0  0  0  0  0  0  0  0
    7.1041   -0.4843   20.9279 N   0  0  0  0  0  0  0  0  0  0  0  0
    6.4637    0.2131   19.8630 C   0  0  0  0  0  0  0  0  0  0  0  0
    5.2655    0.9250   20.0045 C   0  0  0  0  0  0  0  0  0  0  0  0
    4.7130    1.5078   18.8543 C   0  0  0  0  0  0  0  0  0  0  0  0
    5.3824    1.3890   17.6315 C   0  0  0  0  0  0  0  0  0  0  0  0
    6.5300    0.7029   17.4906 N   0  0  0  0  0  0  0  0  0  0  0  0
    7.0378    0.1193   18.5796 C   0  0  0  0  0  0  0  0  0  0  0  0
    7.9453   -0.4617   18.4439 H   0  0  0  0  0  0  0  0  0  0  0  0
    4.9991    1.8638   16.7308 H   0  0  0  0  0  0  0  0  0  0  0  0
    3.7885    2.0719   18.8956 H   0  0  0  0  0  0  0  0  0  0  0  0
    4.7656    1.0103   20.9737 H   0  0  0  0  0  0  0  0  0  0  0  0
    7.3684   -0.1635   22.2353 C   0  0  0  0  0  0  0  0  0  0  0  0
    7.2658    1.2093   22.8404 C   0  0  0  0  0  0  0  0  0  0  0  0
    8.5937    1.6401   23.4701 C   0  0  0  0  0  0  0  0  0  0  0  0
    8.8664    1.4589   24.8396 C   0  0  0  0  0  0  0  0  0  0  0  0
    7.6167    0.9546   25.9597 Cl  0  0  0  0  0  0  0  0  0  0  0  0
   10.1377    1.6939   25.3764 C   0  0  0  0  0  0  0  0  0  0  0  0
   11.1406    2.2156   24.5622 C   0  0  0  0  0  0  0  0  0  0  0  0
   10.8858    2.4324   23.2051 C   0  0  0  0  0  0  0  0  0  0  0  0
    9.6445    2.1078   22.6435 C   0  0  0  0  0  0  0  0  0  0  0  0
    9.4575    2.2766   21.1575 C   0  0  0  0  0  0  0  0  0  0  0  0
    8.7333    3.0706   20.9388 H   0  0  0  0  0  0  0  0  0  0  0  0
   10.4095    2.5317   20.6833 H   0  0  0  0  0  0  0  0  0  0  0  0
    9.0833    1.3523   20.6985 H   0  0  0  0  0  0  0  0  0  0  0  0
   11.6528    2.8521   22.5558 H   0  0  0  0  0  0  0  0  0  0  0  0
   12.1127    2.4622   24.9783 H   0  0  0  0  0  0  0  0  0  0  0  0
   10.3188    1.4381   26.4145 H   0  0  0  0  0  0  0  0  0  0  0  0
    6.9680    1.9233   22.0635 H   0  0  0  0  0  0  0  0  0  0  0  0
    6.4819    1.1889   23.6020 H   0  0  0  0  0  0  0  0  0  0  0  0
    7.8810   -1.2212   22.8514 N   0  0  0  0  0  0  0  0  0  0  0  0
    8.8551   -3.8369   21.0133 H   0  0  0  0  0  0  0  0  0  0  0  0
    9.4723   -3.4541   22.6467 H   0  0  0  0  0  0  0  0  0  0  0  0
    7.4866   -3.5612   24.3078 H   0  0  0  0  0  0  0  0  0  0  0  0
    6.3996   -4.9103   23.9710 H   0  0  0  0  0  0  0  0  0  0  0  0
    7.9130   -5.7262   25.6524 H   0  0  0  0  0  0  0  0  0  0  0  0
    9.3498   -5.1516   24.7967 H   0  0  0  0  0  0  0  0  0  0  0  0
    8.4121   -6.4893   24.1353 H   0  0  0  0  0  0  0  0  0  0  0  0
  1  2  1  0
  2  3  1  0
  3  4  1  0
  4  5  1  0
  5  6  2  0
  6  7  1  0
  7  8  1  0
  8  9  2  0
  9 10  1  0
 10 11  2  0
 11 12  1  0
 12 13  2  0
 13 14  1  0
 11 15  1  0
 10 16  1  0
  9 17  1  0
  7 18  1  0
 18 19  1  0
 19 20  1  0
 20 21  2  0
 21 22  1  0
 21 23  1  0
 23 24  2  0
 24 25  1  0
 25 26  2  0
 26 27  1  0
 27 28  1  0
 27 29  1  0
 27 30  1  0
 25 31  1  0
 24 32  1  0
 23 33  1  0
 19 34  1  0
 19 35  1  0
 18 36  2  0
  4 37  1  0
  4 38  1  0
  2 39  1  0
  2 40  1  0
  1 41  1  0
  1 42  1  0
  1 43  1  0
 36  5  1  0
 13  8  1  0
 26 20  1  0
M  END
>  <cnnaffinity>  (1) 
-6.19958

>  <filename>  (1) 
CCOCc1nc(Cc2c(C)cccc2Cl)n(-c2cccnc2)n1

$$$$
