
     RDKit          3D

 39 41  0  0  0  0  0  0  0  0999 V2000
    8.1741   -6.4062   22.8248 C   0  0  0  0  0  0  0  0  0  0  0  0
    7.8006   -5.2845   23.7792 C   0  0  0  0  0  0  0  0  0  0  0  0
    7.7177   -4.1363   22.9514 O   0  0  0  0  0  0  0  0  0  0  0  0
    7.3866   -2.9039   23.6054 C   0  0  0  0  0  0  0  0  0  0  0  0
    7.5782   -1.8217   22.5841 C   0  0  0  0  0  0  0  0  0  0  0  0
    6.6937   -1.5381   21.6582 N   0  0  0  0  0  0  0  0  0  0  0  0
    7.3014   -0.5792   20.9300 N   0  0  0  0  0  0  0  0  0  0  0  0
    6.6661    0.0662   19.8623 C   0  0  0  0  0  0  0  0  0  0  0  0
    5.4233    0.6722   20.0678 C   0  0  0  0  0  0  0  0  0  0  0  0
    4.8238    1.3291   18.9937 C   0  0  0  0  0  0  0  0  0  0  0  0
    5.4531    1.3461   17.7445 C   0  0  0  0  0  0  0  0  0  0  0  0
    6.6383    0.7375   17.5312 N   0  0  0  0  0  0  0  0  0  0  0  0
    7.2248    0.1157   18.5720 C   0  0  0  0  0  0  0  0  0  0  0  0
    8.1793   -0.3696   18.3940 H   0  0  0  0  0  0  0  0  0  0  0  0
    4.9611    1.8613   16.9247 H   0  0  0  0  0  0  0  0  0  0  0  0
    3.8748    1.8411   19.1195 H   0  0  0  0  0  0  0  0  0  0  0  0
    4.9566    0.6524   21.0526 H   0  0  0  0  0  0  0  0  0  0  0  0
    8.5323   -0.2902   21.5180 C   0  0  0  0  0  0  0  0  0  0  0  0
    9.4806    0.8253   21.1813 C   0  0  0  0  0  0  0  0  0  0  0  0
    8.9797    2.0967   21.8217 C   0  0  0  0  0  0  0  0  0  0  0  0
    7.6993    2.5570   21.4986 C   0  0  0  0  0  0  0  0  0  0  0  0
    7.2217    3.6882   22.1436 C   0  0  0  0  0  0  0  0  0  0  0  0
    5.4901    4.3857   21.7557 Br  0  0  0  0  0  0  0  0  0  0  0  0
    8.0294    4.3214   23.0853 C   0  0  0  0  0  0  0  0  0  0  0  0
    9.2547    3.8878   23.4211 N   0  0  0  0  0  0  0  0  0  0  0  0
    9.7245    2.7983   22.7946 C   0  0  0  0  0  0  0  0  0  0  0  0
   10.7205    2.4620   23.0644 H   0  0  0  0  0  0  0  0  0  0  0  0
    7.6394    5.2043   23.5720 H   0  0  0  0  0  0  0  0  0  0  0  0
    7.0527    2.0295   20.8011 H   0  0  0  0  0  0  0  0  0  0  0  0
   10.4831    0.5867   21.5577 H   0  0  0  0  0  0  0  0  0  0  0  0
    9.5164    0.9433   20.0981 H   0  0  0  0  0  0  0  0  0  0  0  0
    8.7419   -1.0734   22.5322 N   0  0  0  0  0  0  0  0  0  0  0  0
    8.0328   -2.7118   24.4698 H   0  0  0  0  0  0  0  0  0  0  0  0
    6.3468   -2.9143   23.9426 H   0  0  0  0  0  0  0  0  0  0  0  0
    6.8416   -5.4806   24.2701 H   0  0  0  0  0  0  0  0  0  0  0  0
    8.5701   -5.1571   24.5472 H   0  0  0  0  0  0  0  0  0  0  0  0
    8.6652   -7.2110   23.3586 H   0  0  0  0  0  0  0  0  0  0  0  0
    7.2766   -6.7878   22.3290 H   0  0  0  0  0  0  0  0  0  0  0  0
    8.8737   -6.0465   22.0658 H   0  0  0  0  0  0  0  0  0  0  0  0
  1  2  1  0
  2  3  1  0
  3  4  1  0
  4  5  1  0
  5  6  2  0
  6  7  1  0
  7  8  1  0
  8  9  2  0
  9 10  1  0
 10 11  2  0
 11 12  1  0
 12 13  2  0
 13 14  1  0
 11 15  1  0
 10 16  1  0
  9 17  1  0
  7 18  1  0
 18 19  1  0
 19 20  1  0
 20 21  2  0
 21 22  1  0
 22 23  1  0
 22 24  2  0
 24 25  1  0
 25 26  2  0
 26 27  1  0
 24 28  1  0
 21 29  1  0
 19 30  1  0
 19 31  1  0
 18 32  2  0
  4 33  1  0
  4 34  1  0
  2 35  1  0
  2 36  1  0
  1 37  1  0
  1 38  1  0
  1 39  1  0
 32  5  1  0
 13  8  1  0
 26 20  1  0
M  END
>  <cnnaffinity>  (1) 
-5.65538

>  <filename>  (1) 
CCOCc1nc(Cc2cncc(Br)c2)n(-c2cccnc2)n1

$$$$
