
     RDKit          3D

 43 45  0  0  0  0  0  0  0  0999 V2000
    7.8281   -5.9228   23.7796 C   0  0  0  0  0  0  0  0  0  0  0  0
    7.8807   -4.4310   24.0496 C   0  0  0  0  0  0  0  0  0  0  0  0
    9.1463   -3.8950   23.6738 O   0  0  0  0  0  0  0  0  0  0  0  0
    9.2127   -3.1671   22.4541 C   0  0  0  0  0  0  0  0  0  0  0  0
   10.6111   -2.5318   22.4486 C   0  0  0  0  0  0  0  0  0  0  0  0
   10.6898   -1.8538   23.3072 H   0  0  0  0  0  0  0  0  0  0  0  0
   10.8062   -1.9660   21.5299 H   0  0  0  0  0  0  0  0  0  0  0  0
   11.3755   -3.3034   22.5680 H   0  0  0  0  0  0  0  0  0  0  0  0
    8.1312   -2.1126   22.2684 C   0  0  0  0  0  0  0  0  0  0  0  0
    7.7089   -1.7811   21.0654 N   0  0  0  0  0  0  0  0  0  0  0  0
    6.9391   -0.6768   21.2968 N   0  0  0  0  0  0  0  0  0  0  0  0
    6.3871    0.0188   20.1857 C   0  0  0  0  0  0  0  0  0  0  0  0
    5.2160    0.7839   20.2629 C   0  0  0  0  0  0  0  0  0  0  0  0
    4.7856    1.4490   19.1087 C   0  0  0  0  0  0  0  0  0  0  0  0
    5.5201    1.3235   17.9267 C   0  0  0  0  0  0  0  0  0  0  0  0
    6.6458    0.5929   17.8459 N   0  0  0  0  0  0  0  0  0  0  0  0
    7.0645   -0.0339   18.9491 C   0  0  0  0  0  0  0  0  0  0  0  0
    7.9911   -0.5997   18.8734 H   0  0  0  0  0  0  0  0  0  0  0  0
    5.1970    1.8159   17.0101 H   0  0  0  0  0  0  0  0  0  0  0  0
    3.8900    2.0611   19.1149 H   0  0  0  0  0  0  0  0  0  0  0  0
    4.6514    0.8626   21.1907 H   0  0  0  0  0  0  0  0  0  0  0  0
    6.9707   -0.3994   22.6374 C   0  0  0  0  0  0  0  0  0  0  0  0
    6.8188    0.9826   23.2260 C   0  0  0  0  0  0  0  0  0  0  0  0
    8.0155    1.7720   22.7382 C   0  0  0  0  0  0  0  0  0  0  0  0
    9.3408    1.6737   23.1141 C   0  0  0  0  0  0  0  0  0  0  0  0
   10.0648    2.2304   22.0302 C   0  0  0  0  0  0  0  0  0  0  0  0
   11.5609    2.4033   21.8493 C   0  0  0  0  0  0  0  0  0  0  0  0
   12.2341    1.3012   22.2512 F   0  0  0  0  0  0  0  0  0  0  0  0
   11.8878    2.6299   20.5729 F   0  0  0  0  0  0  0  0  0  0  0  0
   12.0415    3.4282   22.5798 F   0  0  0  0  0  0  0  0  0  0  0  0
    9.2350    2.6619   21.0827 N   0  0  0  0  0  0  0  0  0  0  0  0
    8.0209    2.3792   21.5297 N   0  0  0  0  0  0  0  0  0  0  0  0
    7.2379    2.5631   20.9196 H   0  0  0  0  0  0  0  0  0  0  0  0
    9.6968    1.1850   24.0152 H   0  0  0  0  0  0  0  0  0  0  0  0
    5.8695    1.4595   22.9698 H   0  0  0  0  0  0  0  0  0  0  0  0
    6.8801    0.8612   24.3083 H   0  0  0  0  0  0  0  0  0  0  0  0
    7.6791   -1.3192   23.2693 N   0  0  0  0  0  0  0  0  0  0  0  0
    9.0450   -3.8409   21.6008 H   0  0  0  0  0  0  0  0  0  0  0  0
    7.7732   -4.2385   25.1227 H   0  0  0  0  0  0  0  0  0  0  0  0
    7.0498   -3.9082   23.5522 H   0  0  0  0  0  0  0  0  0  0  0  0
    8.4710   -6.4472   24.4900 H   0  0  0  0  0  0  0  0  0  0  0  0
    6.8032   -6.2959   23.8719 H   0  0  0  0  0  0  0  0  0  0  0  0
    8.1789   -6.1572   22.7711 H   0  0  0  0  0  0  0  0  0  0  0  0
  1  2  1  0
  2  3  1  0
  3  4  1  0
  4  5  1  0
  5  6  1  0
  5  7  1  0
  5  8  1  0
  4  9  1  0
  9 10  2  0
 10 11  1  0
 11 12  1  0
 12 13  2  0
 13 14  1  0
 14 15  2  0
 15 16  1  0
 16 17  2  0
 17 18  1  0
 15 19  1  0
 14 20  1  0
 13 21  1  0
 11 22  1  0
 22 23  1  0
 23 24  1  0
 24 25  2  0
 25 26  1  0
 26 27  1  0
 27 28  1  0
 27 29  1  0
 27 30  1  0
 26 31  2  0
 31 32  1  0
 32 33  1  0
 25 34  1  0
 23 35  1  0
 23 36  1  0
 22 37  2  0
  4 38  1  0
  2 39  1  0
  2 40  1  0
  1 41  1  0
  1 42  1  0
  1 43  1  0
 37  9  1  0
 17 12  1  0
 32 24  1  0
M  END
>  <cnnaffinity>  (1) 
-6.17399

>  <filename>  (1) 
CCOC(C)c1nc(Cc2cc(C(F)(F)F)n[nH]2)n(-c2cccnc2)n1

$$$$
