
     RDKit          3D

 42 44  0  0  0  0  0  0  0  0999 V2000
    7.8471   -6.0554   22.8302 C   0  0  0  0  0  0  0  0  0  0  0  0
    8.1167   -5.2483   24.0928 C   0  0  0  0  0  0  0  0  0  0  0  0
    8.4835   -3.9211   23.7630 O   0  0  0  0  0  0  0  0  0  0  0  0
    7.4089   -2.9966   23.6318 C   0  0  0  0  0  0  0  0  0  0  0  0
    7.2225   -2.2633   24.9696 C   0  0  0  0  0  0  0  0  0  0  0  0
    8.1468   -1.7314   25.2186 H   0  0  0  0  0  0  0  0  0  0  0  0
    7.0097   -2.9826   25.7676 H   0  0  0  0  0  0  0  0  0  0  0  0
    6.3954   -1.5481   24.9080 H   0  0  0  0  0  0  0  0  0  0  0  0
    7.6686   -2.0329   22.5018 C   0  0  0  0  0  0  0  0  0  0  0  0
    6.6945   -1.6101   21.7131 N   0  0  0  0  0  0  0  0  0  0  0  0
    7.3136   -0.6923   20.9260 N   0  0  0  0  0  0  0  0  0  0  0  0
    6.6363    0.0002   19.8929 C   0  0  0  0  0  0  0  0  0  0  0  0
    5.4292    0.6469   20.1628 C   0  0  0  0  0  0  0  0  0  0  0  0
    4.8098    1.3156   19.1064 C   0  0  0  0  0  0  0  0  0  0  0  0
    5.3970    1.2978   17.8349 C   0  0  0  0  0  0  0  0  0  0  0  0
    6.5539    0.6707   17.5701 N   0  0  0  0  0  0  0  0  0  0  0  0
    7.1592    0.0483   18.5860 C   0  0  0  0  0  0  0  0  0  0  0  0
    8.1101   -0.4317   18.3615 H   0  0  0  0  0  0  0  0  0  0  0  0
    4.9203    1.7880   16.9918 H   0  0  0  0  0  0  0  0  0  0  0  0
    3.8793    1.8427   19.2587 H   0  0  0  0  0  0  0  0  0  0  0  0
    5.0132    0.6059   21.1730 H   0  0  0  0  0  0  0  0  0  0  0  0
    8.6024   -0.5660   21.3433 C   0  0  0  0  0  0  0  0  0  0  0  0
    9.6236    0.3431   20.7744 C   0  0  0  0  0  0  0  0  0  0  0  0
   10.3115    1.1394   21.8517 C   0  0  0  0  0  0  0  0  0  0  0  0
    9.6971    2.2271   22.4840 C   0  0  0  0  0  0  0  0  0  0  0  0
    8.1323    2.7619   21.9719 Cl  0  0  0  0  0  0  0  0  0  0  0  0
   10.3264    2.8777   23.5515 C   0  0  0  0  0  0  0  0  0  0  0  0
   11.5164    2.5001   24.0313 N   0  0  0  0  0  0  0  0  0  0  0  0
   12.1072    1.4469   23.4568 C   0  0  0  0  0  0  0  0  0  0  0  0
   11.5386    0.7547   22.3864 C   0  0  0  0  0  0  0  0  0  0  0  0
   12.1786   -0.3075   21.8752 F   0  0  0  0  0  0  0  0  0  0  0  0
   13.0712    1.1252   23.8360 H   0  0  0  0  0  0  0  0  0  0  0  0
    9.8438    3.7278   24.0223 H   0  0  0  0  0  0  0  0  0  0  0  0
    9.1657    1.0323   20.0662 H   0  0  0  0  0  0  0  0  0  0  0  0
   10.3318   -0.3252   20.2841 H   0  0  0  0  0  0  0  0  0  0  0  0
    8.8585   -1.4217   22.3066 N   0  0  0  0  0  0  0  0  0  0  0  0
    6.4719   -3.5046   23.3557 H   0  0  0  0  0  0  0  0  0  0  0  0
    7.2375   -5.2580   24.7607 H   0  0  0  0  0  0  0  0  0  0  0  0
    8.9642   -5.6596   24.6507 H   0  0  0  0  0  0  0  0  0  0  0  0
    7.0117   -5.6315   22.2594 H   0  0  0  0  0  0  0  0  0  0  0  0
    8.7324   -6.0582   22.1877 H   0  0  0  0  0  0  0  0  0  0  0  0
    7.5943   -7.0907   23.0676 H   0  0  0  0  0  0  0  0  0  0  0  0
  1  2  1  0
  2  3  1  0
  3  4  1  0
  4  5  1  0
  5  6  1  0
  5  7  1  0
  5  8  1  0
  4  9  1  0
  9 10  2  0
 10 11  1  0
 11 12  1  0
 12 13  2  0
 13 14  1  0
 14 15  2  0
 15 16  1  0
 16 17  2  0
 17 18  1  0
 15 19  1  0
 14 20  1  0
 13 21  1  0
 11 22  1  0
 22 23  1  0
 23 24  1  0
 24 25  2  0
 25 26  1  0
 25 27  1  0
 27 28  2  0
 28 29  1  0
 29 30  2  0
 30 31  1  0
 29 32  1  0
 27 33  1  0
 23 34  1  0
 23 35  1  0
 22 36  2  0
  4 37  1  0
  2 38  1  0
  2 39  1  0
  1 40  1  0
  1 41  1  0
  1 42  1  0
 36  9  1  0
 17 12  1  0
 30 24  1  0
M  END
>  <cnnaffinity>  (1) 
-6.5755

>  <filename>  (1) 
CCOC(C)c1nc(Cc2c(F)cncc2Cl)n(-c2cccnc2)n1

$$$$
