
     RDKit          3D

 40 42  0  0  0  0  0  0  0  0999 V2000
    6.1448   -5.5108   23.7675 C   0  0  0  0  0  0  0  0  0  0  0  0
    7.3227   -4.5523   23.7421 C   0  0  0  0  0  0  0  0  0  0  0  0
    7.7762   -4.5450   22.3910 O   0  0  0  0  0  0  0  0  0  0  0  0
    8.6260   -3.4674   22.0408 C   0  0  0  0  0  0  0  0  0  0  0  0
    7.9573   -2.1299   21.8981 C   0  0  0  0  0  0  0  0  0  0  0  0
    7.4631   -1.7282   20.7483 N   0  0  0  0  0  0  0  0  0  0  0  0
    6.9985   -0.4820   21.0228 N   0  0  0  0  0  0  0  0  0  0  0  0
    6.4266    0.2545   19.9577 C   0  0  0  0  0  0  0  0  0  0  0  0
    5.2503    1.0048   20.0517 C   0  0  0  0  0  0  0  0  0  0  0  0
    4.7443    1.5669   18.8720 C   0  0  0  0  0  0  0  0  0  0  0  0
    5.4329    1.3845   17.6696 C   0  0  0  0  0  0  0  0  0  0  0  0
    6.5726    0.6756   17.5803 N   0  0  0  0  0  0  0  0  0  0  0  0
    7.0505    0.1391   18.7005 C   0  0  0  0  0  0  0  0  0  0  0  0
    7.9935   -0.3999   18.6443 H   0  0  0  0  0  0  0  0  0  0  0  0
    5.0594    1.8172   16.7446 H   0  0  0  0  0  0  0  0  0  0  0  0
    3.8293    2.1469   18.8801 H   0  0  0  0  0  0  0  0  0  0  0  0
    4.7388    1.1412   21.0043 H   0  0  0  0  0  0  0  0  0  0  0  0
    7.3041   -0.1741   22.3194 C   0  0  0  0  0  0  0  0  0  0  0  0
    7.1039    1.1376   23.0110 C   0  0  0  0  0  0  0  0  0  0  0  0
    8.4228    1.6761   23.5577 C   0  0  0  0  0  0  0  0  0  0  0  0
    9.4288    2.1784   22.7180 C   0  0  0  0  0  0  0  0  0  0  0  0
    9.0757    2.4184   21.0394 Cl  0  0  0  0  0  0  0  0  0  0  0  0
   10.7210    2.4704   23.1661 C   0  0  0  0  0  0  0  0  0  0  0  0
   11.0334    2.2433   24.5068 C   0  0  0  0  0  0  0  0  0  0  0  0
   10.0593    1.7825   25.3892 C   0  0  0  0  0  0  0  0  0  0  0  0
    8.7773    1.5514   24.9065 C   0  0  0  0  0  0  0  0  0  0  0  0
    7.8387    1.1767   25.7920 F   0  0  0  0  0  0  0  0  0  0  0  0
   10.2535    1.5792   26.4337 H   0  0  0  0  0  0  0  0  0  0  0  0
   12.0455    2.4102   24.8547 H   0  0  0  0  0  0  0  0  0  0  0  0
   11.4622    2.8476   22.4712 H   0  0  0  0  0  0  0  0  0  0  0  0
    6.6636    1.8677   22.3279 H   0  0  0  0  0  0  0  0  0  0  0  0
    6.3995    0.9617   23.8282 H   0  0  0  0  0  0  0  0  0  0  0  0
    7.8929   -1.2110   22.8929 N   0  0  0  0  0  0  0  0  0  0  0  0
    9.4652   -3.3532   22.7456 H   0  0  0  0  0  0  0  0  0  0  0  0
    9.0050   -3.6989   21.0464 H   0  0  0  0  0  0  0  0  0  0  0  0
    8.1418   -4.8859   24.4075 H   0  0  0  0  0  0  0  0  0  0  0  0
    7.0310   -3.5380   24.0684 H   0  0  0  0  0  0  0  0  0  0  0  0
    6.4744   -6.4781   23.3756 H   0  0  0  0  0  0  0  0  0  0  0  0
    5.3394   -5.1337   23.1243 H   0  0  0  0  0  0  0  0  0  0  0  0
    5.7472   -5.6545   24.7788 H   0  0  0  0  0  0  0  0  0  0  0  0
  1  2  1  0
  2  3  1  0
  3  4  1  0
  4  5  1  0
  5  6  2  0
  6  7  1  0
  7  8  1  0
  8  9  2  0
  9 10  1  0
 10 11  2  0
 11 12  1  0
 12 13  2  0
 13 14  1  0
 11 15  1  0
 10 16  1  0
  9 17  1  0
  7 18  1  0
 18 19  1  0
 19 20  1  0
 20 21  2  0
 21 22  1  0
 21 23  1  0
 23 24  2  0
 24 25  1  0
 25 26  2  0
 26 27  1  0
 25 28  1  0
 24 29  1  0
 23 30  1  0
 19 31  1  0
 19 32  1  0
 18 33  2  0
  4 34  1  0
  4 35  1  0
  2 36  1  0
  2 37  1  0
  1 38  1  0
  1 39  1  0
  1 40  1  0
 33  5  1  0
 13  8  1  0
 26 20  1  0
M  END
>  <cnnaffinity>  (1) 
-5.77675

>  <filename>  (1) 
CCOCc1nc(Cc2c(F)cccc2Cl)n(-c2cccnc2)n1

$$$$
