
     RDKit          3D

 42 44  0  0  0  0  0  0  0  0999 V2000
    8.2093   -6.1721   22.3157 C   0  0  0  0  0  0  0  0  0  0  0  0
    8.4279   -4.8672   23.0556 C   0  0  0  0  0  0  0  0  0  0  0  0
    7.1407   -4.3321   23.3319 O   0  0  0  0  0  0  0  0  0  0  0  0
    7.1283   -2.9704   23.7286 C   0  0  0  0  0  0  0  0  0  0  0  0
    7.4354   -2.0021   22.6116 C   0  0  0  0  0  0  0  0  0  0  0  0
    6.5358   -1.6195   21.7295 N   0  0  0  0  0  0  0  0  0  0  0  0
    7.2344   -0.7969   20.9063 N   0  0  0  0  0  0  0  0  0  0  0  0
    6.5701   -0.0938   19.8543 C   0  0  0  0  0  0  0  0  0  0  0  0
    5.3751    0.5974   20.1041 C   0  0  0  0  0  0  0  0  0  0  0  0
    4.7954    1.3261   19.0600 C   0  0  0  0  0  0  0  0  0  0  0  0
    5.4131    1.3186   17.8036 C   0  0  0  0  0  0  0  0  0  0  0  0
    6.5371    0.6321   17.5444 N   0  0  0  0  0  0  0  0  0  0  0  0
    7.0923   -0.0583   18.5491 C   0  0  0  0  0  0  0  0  0  0  0  0
    8.0035   -0.6040   18.3052 H   0  0  0  0  0  0  0  0  0  0  0  0
    4.9831    1.8706   16.9711 H   0  0  0  0  0  0  0  0  0  0  0  0
    3.8847    1.9008   19.2065 H   0  0  0  0  0  0  0  0  0  0  0  0
    4.9313    0.5604   21.0987 H   0  0  0  0  0  0  0  0  0  0  0  0
    8.5296   -0.7186   21.3591 C   0  0  0  0  0  0  0  0  0  0  0  0
    9.6238    0.0390   20.6810 C   0  0  0  0  0  0  0  0  0  0  0  0
   10.6438    0.6279   21.6210 C   0  0  0  0  0  0  0  0  0  0  0  0
   11.8538    0.0056   21.9391 C   0  0  0  0  0  0  0  0  0  0  0  0
   12.7125    0.6293   22.8522 C   0  0  0  0  0  0  0  0  0  0  0  0
   12.4357    1.7953   23.4408 N   0  0  0  0  0  0  0  0  0  0  0  0
   11.2736    2.3995   23.1326 C   0  0  0  0  0  0  0  0  0  0  0  0
   10.8726    3.7094   23.8390 C   0  0  0  0  0  0  0  0  0  0  0  0
   10.2515    4.5471   22.9777 F   0  0  0  0  0  0  0  0  0  0  0  0
   11.8897    4.3831   24.3819 F   0  0  0  0  0  0  0  0  0  0  0  0
    9.9894    3.4534   24.8265 F   0  0  0  0  0  0  0  0  0  0  0  0
   10.3596    1.8437   22.2330 C   0  0  0  0  0  0  0  0  0  0  0  0
    9.4327    2.3618   22.0127 H   0  0  0  0  0  0  0  0  0  0  0  0
   13.6701    0.1866   23.1326 H   0  0  0  0  0  0  0  0  0  0  0  0
   12.1463   -0.9312   21.4790 H   0  0  0  0  0  0  0  0  0  0  0  0
   10.1036   -0.6323   19.9648 H   0  0  0  0  0  0  0  0  0  0  0  0
    9.1844    0.8627   20.1152 H   0  0  0  0  0  0  0  0  0  0  0  0
    8.6775   -1.4798   22.4270 N   0  0  0  0  0  0  0  0  0  0  0  0
    7.8426   -2.7803   24.5454 H   0  0  0  0  0  0  0  0  0  0  0  0
    6.1135   -2.7828   24.0898 H   0  0  0  0  0  0  0  0  0  0  0  0
    8.9830   -5.0231   23.9962 H   0  0  0  0  0  0  0  0  0  0  0  0
    9.0200   -4.1616   22.4493 H   0  0  0  0  0  0  0  0  0  0  0  0
    7.8777   -5.9773   21.2916 H   0  0  0  0  0  0  0  0  0  0  0  0
    7.4408   -6.7721   22.8131 H   0  0  0  0  0  0  0  0  0  0  0  0
    9.1336   -6.7543   22.2737 H   0  0  0  0  0  0  0  0  0  0  0  0
  1  2  1  0
  2  3  1  0
  3  4  1  0
  4  5  1  0
  5  6  2  0
  6  7  1  0
  7  8  1  0
  8  9  2  0
  9 10  1  0
 10 11  2  0
 11 12  1  0
 12 13  2  0
 13 14  1  0
 11 15  1  0
 10 16  1  0
  9 17  1  0
  7 18  1  0
 18 19  1  0
 19 20  1  0
 20 21  2  0
 21 22  1  0
 22 23  2  0
 23 24  1  0
 24 25  1  0
 25 26  1  0
 25 27  1  0
 25 28  1  0
 24 29  2  0
 29 30  1  0
 22 31  1  0
 21 32  1  0
 19 33  1  0
 19 34  1  0
 18 35  2  0
  4 36  1  0
  4 37  1  0
  2 38  1  0
  2 39  1  0
  1 40  1  0
  1 41  1  0
  1 42  1  0
 35  5  1  0
 13  8  1  0
 29 20  1  0
M  END
>  <cnnaffinity>  (1) 
-6.09959

>  <filename>  (1) 
CCOCc1nc(Cc2ccnc(C(F)(F)F)c2)n(-c2cccnc2)n1

$$$$
