
     RDKit          3D

 40 42  0  0  0  0  0  0  0  0999 V2000
    6.1799   -5.5626   23.7318 C   0  0  0  0  0  0  0  0  0  0  0  0
    7.3548   -4.6086   23.7844 C   0  0  0  0  0  0  0  0  0  0  0  0
    7.8900   -4.6034   22.4665 O   0  0  0  0  0  0  0  0  0  0  0  0
    8.6730   -3.4841   22.0981 C   0  0  0  0  0  0  0  0  0  0  0  0
    7.9535   -2.1654   21.9436 C   0  0  0  0  0  0  0  0  0  0  0  0
    7.5877   -1.7686   20.7436 N   0  0  0  0  0  0  0  0  0  0  0  0
    7.0348   -0.5532   20.9643 N   0  0  0  0  0  0  0  0  0  0  0  0
    6.4253    0.1308   19.8812 C   0  0  0  0  0  0  0  0  0  0  0  0
    5.2205    0.8335   20.0097 C   0  0  0  0  0  0  0  0  0  0  0  0
    4.7040    1.4517   18.8651 C   0  0  0  0  0  0  0  0  0  0  0  0
    5.4011    1.3539   17.6579 C   0  0  0  0  0  0  0  0  0  0  0  0
    6.5484    0.6631   17.5265 N   0  0  0  0  0  0  0  0  0  0  0  0
    7.0317    0.0572   18.6127 C   0  0  0  0  0  0  0  0  0  0  0  0
    7.9473   -0.5205   18.4969 H   0  0  0  0  0  0  0  0  0  0  0  0
    5.0477    1.8600   16.7628 H   0  0  0  0  0  0  0  0  0  0  0  0
    3.7906    2.0350   18.9092 H   0  0  0  0  0  0  0  0  0  0  0  0
    4.6901    0.8819   20.9630 H   0  0  0  0  0  0  0  0  0  0  0  0
    7.1677   -0.2449   22.2924 C   0  0  0  0  0  0  0  0  0  0  0  0
    6.9231    1.0969   22.9226 C   0  0  0  0  0  0  0  0  0  0  0  0
    8.2193    1.6646   23.4831 C   0  0  0  0  0  0  0  0  0  0  0  0
    8.5168    1.5461   24.8472 C   0  0  0  0  0  0  0  0  0  0  0  0
    9.8199    1.7342   25.3226 C   0  0  0  0  0  0  0  0  0  0  0  0
   10.8070    2.1012   24.4127 C   0  0  0  0  0  0  0  0  0  0  0  0
   12.0690    2.2368   24.8411 F   0  0  0  0  0  0  0  0  0  0  0  0
   10.5362    2.3548   23.0716 C   0  0  0  0  0  0  0  0  0  0  0  0
    9.2299    2.1407   22.6270 C   0  0  0  0  0  0  0  0  0  0  0  0
    8.8477    2.4559   20.9628 Cl  0  0  0  0  0  0  0  0  0  0  0  0
   11.3230    2.6979   22.4070 H   0  0  0  0  0  0  0  0  0  0  0  0
   10.0833    1.5847   26.3613 H   0  0  0  0  0  0  0  0  0  0  0  0
    7.7050    1.3126   25.5378 H   0  0  0  0  0  0  0  0  0  0  0  0
    6.5111    1.7821   22.1795 H   0  0  0  0  0  0  0  0  0  0  0  0
    6.1924    0.9588   23.7256 H   0  0  0  0  0  0  0  0  0  0  0  0
    7.7066   -1.2686   22.9350 N   0  0  0  0  0  0  0  0  0  0  0  0
    9.0319   -3.7056   21.0935 H   0  0  0  0  0  0  0  0  0  0  0  0
    9.5343   -3.3573   22.7709 H   0  0  0  0  0  0  0  0  0  0  0  0
    7.0523   -3.5952   24.0926 H   0  0  0  0  0  0  0  0  0  0  0  0
    8.1210   -4.9511   24.4963 H   0  0  0  0  0  0  0  0  0  0  0  0
    5.7372   -5.7467   24.7140 H   0  0  0  0  0  0  0  0  0  0  0  0
    5.4096   -5.1666   23.0657 H   0  0  0  0  0  0  0  0  0  0  0  0
    6.5123   -6.5169   23.3196 H   0  0  0  0  0  0  0  0  0  0  0  0
  1  2  1  0
  2  3  1  0
  3  4  1  0
  4  5  1  0
  5  6  2  0
  6  7  1  0
  7  8  1  0
  8  9  2  0
  9 10  1  0
 10 11  2  0
 11 12  1  0
 12 13  2  0
 13 14  1  0
 11 15  1  0
 10 16  1  0
  9 17  1  0
  7 18  1  0
 18 19  1  0
 19 20  1  0
 20 21  2  0
 21 22  1  0
 22 23  2  0
 23 24  1  0
 23 25  1  0
 25 26  2  0
 26 27  1  0
 25 28  1  0
 22 29  1  0
 21 30  1  0
 19 31  1  0
 19 32  1  0
 18 33  2  0
  4 34  1  0
  4 35  1  0
  2 36  1  0
  2 37  1  0
  1 38  1  0
  1 39  1  0
  1 40  1  0
 33  5  1  0
 13  8  1  0
 26 20  1  0
M  END
>  <cnnaffinity>  (1) 
-5.66155

>  <filename>  (1) 
CCOCc1nc(Cc2ccc(F)cc2Cl)n(-c2cccnc2)n1

$$$$
