
     RDKit          3D

 39 41  0  0  0  0  0  0  0  0999 V2000
    8.2814   -6.1247   22.2199 C   0  0  0  0  0  0  0  0  0  0  0  0
    8.4559   -4.8414   23.0094 C   0  0  0  0  0  0  0  0  0  0  0  0
    7.1601   -4.3311   23.2927 O   0  0  0  0  0  0  0  0  0  0  0  0
    7.1355   -2.9722   23.7027 C   0  0  0  0  0  0  0  0  0  0  0  0
    7.4390   -1.9839   22.5983 C   0  0  0  0  0  0  0  0  0  0  0  0
    6.5652   -1.6334   21.6804 N   0  0  0  0  0  0  0  0  0  0  0  0
    7.2588   -0.7612   20.9006 N   0  0  0  0  0  0  0  0  0  0  0  0
    6.5873   -0.0683   19.8465 C   0  0  0  0  0  0  0  0  0  0  0  0
    5.3901    0.6143   20.1055 C   0  0  0  0  0  0  0  0  0  0  0  0
    4.7991    1.3331   19.0595 C   0  0  0  0  0  0  0  0  0  0  0  0
    5.4046    1.3249   17.7993 C   0  0  0  0  0  0  0  0  0  0  0  0
    6.5282    0.6437   17.5315 N   0  0  0  0  0  0  0  0  0  0  0  0
    7.0950   -0.0388   18.5362 C   0  0  0  0  0  0  0  0  0  0  0  0
    8.0003   -0.5937   18.2926 H   0  0  0  0  0  0  0  0  0  0  0  0
    4.9564    1.8642   16.9651 H   0  0  0  0  0  0  0  0  0  0  0  0
    3.8816    1.8893   19.2143 H   0  0  0  0  0  0  0  0  0  0  0  0
    4.9535    0.5735   21.1026 H   0  0  0  0  0  0  0  0  0  0  0  0
    8.5266   -0.6238   21.4134 C   0  0  0  0  0  0  0  0  0  0  0  0
    9.6476    0.2156   20.8660 C   0  0  0  0  0  0  0  0  0  0  0  0
   10.3847    1.0499   21.9094 C   0  0  0  0  0  0  0  0  0  0  0  0
   11.6686    0.6911   22.3408 C   0  0  0  0  0  0  0  0  0  0  0  0
   12.2818    1.3882   23.3856 C   0  0  0  0  0  0  0  0  0  0  0  0
   11.5849    2.4538   23.9541 C   0  0  0  0  0  0  0  0  0  0  0  0
   10.3715    2.8493   23.5431 N   0  0  0  0  0  0  0  0  0  0  0  0
    9.8167    2.1731   22.5518 C   0  0  0  0  0  0  0  0  0  0  0  0
    8.2592    2.7453   22.0359 Cl  0  0  0  0  0  0  0  0  0  0  0  0
   12.0028    3.0271   24.7711 H   0  0  0  0  0  0  0  0  0  0  0  0
   13.2708    1.1207   23.7455 H   0  0  0  0  0  0  0  0  0  0  0  0
   12.1820   -0.1357   21.8478 H   0  0  0  0  0  0  0  0  0  0  0  0
    9.2716    0.8639   20.0703 H   0  0  0  0  0  0  0  0  0  0  0  0
   10.3631   -0.4908   20.4313 H   0  0  0  0  0  0  0  0  0  0  0  0
    8.6619   -1.4001   22.4727 N   0  0  0  0  0  0  0  0  0  0  0  0
    6.1229   -2.8024   24.0826 H   0  0  0  0  0  0  0  0  0  0  0  0
    7.8601   -2.7790   24.5095 H   0  0  0  0  0  0  0  0  0  0  0  0
    9.0410   -4.1055   22.4320 H   0  0  0  0  0  0  0  0  0  0  0  0
    9.0078   -5.0167   23.9484 H   0  0  0  0  0  0  0  0  0  0  0  0
    7.5449   -6.7888   22.6870 H   0  0  0  0  0  0  0  0  0  0  0  0
    7.9609   -5.8995   21.1980 H   0  0  0  0  0  0  0  0  0  0  0  0
    9.2312   -6.6609   22.1624 H   0  0  0  0  0  0  0  0  0  0  0  0
  1  2  1  0
  2  3  1  0
  3  4  1  0
  4  5  1  0
  5  6  2  0
  6  7  1  0
  7  8  1  0
  8  9  2  0
  9 10  1  0
 10 11  2  0
 11 12  1  0
 12 13  2  0
 13 14  1  0
 11 15  1  0
 10 16  1  0
  9 17  1  0
  7 18  1  0
 18 19  1  0
 19 20  1  0
 20 21  2  0
 21 22  1  0
 22 23  2  0
 23 24  1  0
 24 25  2  0
 25 26  1  0
 23 27  1  0
 22 28  1  0
 21 29  1  0
 19 30  1  0
 19 31  1  0
 18 32  2  0
  4 33  1  0
  4 34  1  0
  2 35  1  0
  2 36  1  0
  1 37  1  0
  1 38  1  0
  1 39  1  0
 32  5  1  0
 13  8  1  0
 25 20  1  0
M  END
>  <cnnaffinity>  (1) 
-6.04065

>  <filename>  (1) 
CCOCc1nc(Cc2cccnc2Cl)n(-c2cccnc2)n1

$$$$
