
     RDKit          3D

 42 44  0  0  0  0  0  0  0  0999 V2000
    7.0599   -4.9885   23.7887 C   0  0  0  0  0  0  0  0  0  0  0  0
    8.5637   -5.2086   23.8741 C   0  0  0  0  0  0  0  0  0  0  0  0
    9.2251   -3.9399   23.9158 O   0  0  0  0  0  0  0  0  0  0  0  0
    9.1894   -3.2385   22.6545 C   0  0  0  0  0  0  0  0  0  0  0  0
   10.5481   -2.5407   22.4796 C   0  0  0  0  0  0  0  0  0  0  0  0
   10.6551   -1.7080   23.1834 H   0  0  0  0  0  0  0  0  0  0  0  0
   10.6447   -2.1507   21.4597 H   0  0  0  0  0  0  0  0  0  0  0  0
   11.3657   -3.2449   22.6609 H   0  0  0  0  0  0  0  0  0  0  0  0
    8.0839   -2.2169   22.4905 C   0  0  0  0  0  0  0  0  0  0  0  0
    7.6820   -1.9055   21.2768 N   0  0  0  0  0  0  0  0  0  0  0  0
    6.8973   -0.8288   21.4762 N   0  0  0  0  0  0  0  0  0  0  0  0
    6.4218   -0.0397   20.4205 C   0  0  0  0  0  0  0  0  0  0  0  0
    5.3796    0.8818   20.5696 C   0  0  0  0  0  0  0  0  0  0  0  0
    4.9626    1.5874   19.4386 C   0  0  0  0  0  0  0  0  0  0  0  0
    5.5774    1.3611   18.2014 C   0  0  0  0  0  0  0  0  0  0  0  0
    6.5931    0.4898   18.0595 N   0  0  0  0  0  0  0  0  0  0  0  0
    7.0024   -0.1855   19.1509 C   0  0  0  0  0  0  0  0  0  0  0  0
    7.8334   -0.8765   19.0568 H   0  0  0  0  0  0  0  0  0  0  0  0
    5.2216    1.9003   17.3261 H   0  0  0  0  0  0  0  0  0  0  0  0
    4.1542    2.3100   19.4977 H   0  0  0  0  0  0  0  0  0  0  0  0
    4.8726    1.0369   21.5175 H   0  0  0  0  0  0  0  0  0  0  0  0
    6.8912   -0.5278   22.8325 C   0  0  0  0  0  0  0  0  0  0  0  0
    6.5748    0.8070   23.4290 C   0  0  0  0  0  0  0  0  0  0  0  0
    7.7689    1.6557   23.0707 C   0  0  0  0  0  0  0  0  0  0  0  0
    7.6439    2.9642   22.6166 C   0  0  0  0  0  0  0  0  0  0  0  0
    8.7854    3.6803   22.2419 C   0  0  0  0  0  0  0  0  0  0  0  0
   10.0158    3.1459   22.3104 N   0  0  0  0  0  0  0  0  0  0  0  0
   10.1598    1.8873   22.7542 C   0  0  0  0  0  0  0  0  0  0  0  0
   11.9066    1.1216   22.8477 Br  0  0  0  0  0  0  0  0  0  0  0  0
    9.0648    1.1317   23.1504 C   0  0  0  0  0  0  0  0  0  0  0  0
    9.2200    0.1199   23.5064 H   0  0  0  0  0  0  0  0  0  0  0  0
    8.6638    4.7011   21.8783 H   0  0  0  0  0  0  0  0  0  0  0  0
    6.6763    3.4506   22.5636 H   0  0  0  0  0  0  0  0  0  0  0  0
    5.6665    1.2312   23.0008 H   0  0  0  0  0  0  0  0  0  0  0  0
    6.4566    0.7433   24.5169 H   0  0  0  0  0  0  0  0  0  0  0  0
    7.5666   -1.4187   23.5006 N   0  0  0  0  0  0  0  0  0  0  0  0
    9.0406   -3.9516   21.8440 H   0  0  0  0  0  0  0  0  0  0  0  0
    8.8097   -5.7789   24.7743 H   0  0  0  0  0  0  0  0  0  0  0  0
    8.9040   -5.7840   23.0065 H   0  0  0  0  0  0  0  0  0  0  0  0
    6.5346   -5.9478   23.7709 H   0  0  0  0  0  0  0  0  0  0  0  0
    6.8153   -4.4307   22.8798 H   0  0  0  0  0  0  0  0  0  0  0  0
    6.7173   -4.4139   24.6535 H   0  0  0  0  0  0  0  0  0  0  0  0
  1  2  1  0
  2  3  1  0
  3  4  1  0
  4  5  1  0
  5  6  1  0
  5  7  1  0
  5  8  1  0
  4  9  1  0
  9 10  2  0
 10 11  1  0
 11 12  1  0
 12 13  2  0
 13 14  1  0
 14 15  2  0
 15 16  1  0
 16 17  2  0
 17 18  1  0
 15 19  1  0
 14 20  1  0
 13 21  1  0
 11 22  1  0
 22 23  1  0
 23 24  1  0
 24 25  2  0
 25 26  1  0
 26 27  2  0
 27 28  1  0
 28 29  1  0
 28 30  2  0
 30 31  1  0
 26 32  1  0
 25 33  1  0
 23 34  1  0
 23 35  1  0
 22 36  2  0
  4 37  1  0
  2 38  1  0
  2 39  1  0
  1 40  1  0
  1 41  1  0
  1 42  1  0
 36  9  1  0
 17 12  1  0
 30 24  1  0
M  END
>  <cnnaffinity>  (1) 
-6.28099

>  <filename>  (1) 
CCOC(C)c1nc(Cc2ccnc(Br)c2)n(-c2cccnc2)n1

$$$$
