
     RDKit          3D

 42 44  0  0  0  0  0  0  0  0999 V2000
    8.7315   -5.6628   24.8306 C   0  0  0  0  0  0  0  0  0  0  0  0
    7.3983   -5.4439   24.1217 C   0  0  0  0  0  0  0  0  0  0  0  0
    7.4721   -4.4468   23.1113 O   0  0  0  0  0  0  0  0  0  0  0  0
    7.3237   -3.1056   23.5656 C   0  0  0  0  0  0  0  0  0  0  0  0
    7.5632   -2.0682   22.4959 C   0  0  0  0  0  0  0  0  0  0  0  0
    6.6500   -1.6703   21.6282 N   0  0  0  0  0  0  0  0  0  0  0  0
    7.2955   -0.7237   20.9053 N   0  0  0  0  0  0  0  0  0  0  0  0
    6.6045   -0.0337   19.8645 C   0  0  0  0  0  0  0  0  0  0  0  0
    5.3951    0.6229   20.1222 C   0  0  0  0  0  0  0  0  0  0  0  0
    4.7901    1.3248   19.0737 C   0  0  0  0  0  0  0  0  0  0  0  0
    5.3905    1.3199   17.8091 C   0  0  0  0  0  0  0  0  0  0  0  0
    6.5230    0.6538   17.5424 N   0  0  0  0  0  0  0  0  0  0  0  0
    7.1077   -0.0053   18.5516 C   0  0  0  0  0  0  0  0  0  0  0  0
    8.0245   -0.5419   18.3179 H   0  0  0  0  0  0  0  0  0  0  0  0
    4.9473    1.8668   16.9781 H   0  0  0  0  0  0  0  0  0  0  0  0
    3.8686    1.8769   19.2222 H   0  0  0  0  0  0  0  0  0  0  0  0
    4.9469    0.5772   21.1164 H   0  0  0  0  0  0  0  0  0  0  0  0
    8.5631   -0.5609   21.4159 C   0  0  0  0  0  0  0  0  0  0  0  0
    9.6558    0.3093   20.8769 C   0  0  0  0  0  0  0  0  0  0  0  0
   10.3366    1.1373   21.9498 C   0  0  0  0  0  0  0  0  0  0  0  0
   11.5964    0.7615   22.4241 C   0  0  0  0  0  0  0  0  0  0  0  0
   12.1819    1.4725   23.4750 C   0  0  0  0  0  0  0  0  0  0  0  0
   11.5969    2.5275   24.0512 N   0  0  0  0  0  0  0  0  0  0  0  0
   10.3988    2.8959   23.5786 C   0  0  0  0  0  0  0  0  0  0  0  0
    9.7097    2.2503   22.5382 C   0  0  0  0  0  0  0  0  0  0  0  0
    8.3626    2.7485   22.0813 C   0  0  0  0  0  0  0  0  0  0  0  0
    8.4107    3.0659   21.0372 H   0  0  0  0  0  0  0  0  0  0  0  0
    8.0209    3.6024   22.6739 H   0  0  0  0  0  0  0  0  0  0  0  0
    7.6042    1.9612   22.1439 H   0  0  0  0  0  0  0  0  0  0  0  0
    9.9390    3.7587   24.0649 H   0  0  0  0  0  0  0  0  0  0  0  0
   13.1542    1.1790   23.8706 H   0  0  0  0  0  0  0  0  0  0  0  0
   12.1270   -0.0765   21.9882 H   0  0  0  0  0  0  0  0  0  0  0  0
   10.3920   -0.3796   20.4532 H   0  0  0  0  0  0  0  0  0  0  0  0
    9.2758    0.9391   20.0713 H   0  0  0  0  0  0  0  0  0  0  0  0
    8.7442   -1.3964   22.4137 N   0  0  0  0  0  0  0  0  0  0  0  0
    8.0511   -2.8713   24.3572 H   0  0  0  0  0  0  0  0  0  0  0  0
    6.3158   -2.9481   23.9815 H   0  0  0  0  0  0  0  0  0  0  0  0
    7.1001   -6.3516   23.5902 H   0  0  0  0  0  0  0  0  0  0  0  0
    6.5975   -5.2156   24.8452 H   0  0  0  0  0  0  0  0  0  0  0  0
    9.4954   -5.9943   24.1240 H   0  0  0  0  0  0  0  0  0  0  0  0
    9.0853   -4.7384   25.2993 H   0  0  0  0  0  0  0  0  0  0  0  0
    8.6403   -6.4221   25.6148 H   0  0  0  0  0  0  0  0  0  0  0  0
  1  2  1  0
  2  3  1  0
  3  4  1  0
  4  5  1  0
  5  6  2  0
  6  7  1  0
  7  8  1  0
  8  9  2  0
  9 10  1  0
 10 11  2  0
 11 12  1  0
 12 13  2  0
 13 14  1  0
 11 15  1  0
 10 16  1  0
  9 17  1  0
  7 18  1  0
 18 19  1  0
 19 20  1  0
 20 21  2  0
 21 22  1  0
 22 23  2  0
 23 24  1  0
 24 25  2  0
 25 26  1  0
 26 27  1  0
 26 28  1  0
 26 29  1  0
 24 30  1  0
 22 31  1  0
 21 32  1  0
 19 33  1  0
 19 34  1  0
 18 35  2  0
  4 36  1  0
  4 37  1  0
  2 38  1  0
  2 39  1  0
  1 40  1  0
  1 41  1  0
  1 42  1  0
 35  5  1  0
 13  8  1  0
 25 20  1  0
M  END
>  <cnnaffinity>  (1) 
-5.95991

>  <filename>  (1) 
CCOCc1nc(Cc2ccncc2C)n(-c2cccnc2)n1

$$$$
