
     RDKit          3D

 40 42  0  0  0  0  0  0  0  0999 V2000
    8.7703   -5.6121   24.6021 C   0  0  0  0  0  0  0  0  0  0  0  0
    7.9342   -5.7048   23.3228 C   0  0  0  0  0  0  0  0  0  0  0  0
    7.4169   -4.4124   22.9825 O   0  0  0  0  0  0  0  0  0  0  0  0
    8.3605   -3.5791   22.2763 C   0  0  0  0  0  0  0  0  0  0  0  0
    7.8803   -2.1723   22.0029 C   0  0  0  0  0  0  0  0  0  0  0  0
    7.7353   -1.7200   20.7797 N   0  0  0  0  0  0  0  0  0  0  0  0
    7.2921   -0.4538   20.9518 N   0  0  0  0  0  0  0  0  0  0  0  0
    6.6822    0.2480   19.8984 C   0  0  0  0  0  0  0  0  0  0  0  0
    5.5430    1.0355   20.1085 C   0  0  0  0  0  0  0  0  0  0  0  0
    4.8986    1.5708   18.9891 C   0  0  0  0  0  0  0  0  0  0  0  0
    5.4094    1.3348   17.7096 C   0  0  0  0  0  0  0  0  0  0  0  0
    6.5127    0.5947   17.4961 N   0  0  0  0  0  0  0  0  0  0  0  0
    7.1250    0.0622   18.5720 C   0  0  0  0  0  0  0  0  0  0  0  0
    8.0091   -0.5433   18.4011 H   0  0  0  0  0  0  0  0  0  0  0  0
    4.8916    1.7535   16.8535 H   0  0  0  0  0  0  0  0  0  0  0  0
    3.9986    2.1720   19.0914 H   0  0  0  0  0  0  0  0  0  0  0  0
    5.1388    1.1901   21.1070 H   0  0  0  0  0  0  0  0  0  0  0  0
    7.2890   -0.1615   22.3186 C   0  0  0  0  0  0  0  0  0  0  0  0
    7.0660    1.1743   22.9827 C   0  0  0  0  0  0  0  0  0  0  0  0
    8.3754    1.5682   23.6520 C   0  0  0  0  0  0  0  0  0  0  0  0
    9.4280    2.0626   22.8678 C   0  0  0  0  0  0  0  0  0  0  0  0
    9.0776    2.5267   21.0574 Br  0  0  0  0  0  0  0  0  0  0  0  0
   10.7098    2.2323   23.4073 C   0  0  0  0  0  0  0  0  0  0  0  0
   10.9517    1.9308   24.7507 C   0  0  0  0  0  0  0  0  0  0  0  0
    9.8817    1.5039   25.5464 C   0  0  0  0  0  0  0  0  0  0  0  0
    8.5959    1.3450   25.0213 C   0  0  0  0  0  0  0  0  0  0  0  0
    7.5825    0.9629   25.8378 F   0  0  0  0  0  0  0  0  0  0  0  0
   10.0298    1.2591   26.5844 H   0  0  0  0  0  0  0  0  0  0  0  0
   11.9518    2.0274   25.1689 H   0  0  0  0  0  0  0  0  0  0  0  0
   11.5102    2.5878   22.7652 H   0  0  0  0  0  0  0  0  0  0  0  0
    6.7812    1.9158   22.2251 H   0  0  0  0  0  0  0  0  0  0  0  0
    6.2645    1.0884   23.7257 H   0  0  0  0  0  0  0  0  0  0  0  0
    7.6434   -1.2253   22.9880 N   0  0  0  0  0  0  0  0  0  0  0  0
    8.5684   -4.0342   21.3092 H   0  0  0  0  0  0  0  0  0  0  0  0
    9.2931   -3.5207   22.8447 H   0  0  0  0  0  0  0  0  0  0  0  0
    7.0959   -6.3960   23.4678 H   0  0  0  0  0  0  0  0  0  0  0  0
    8.5458   -6.0928   22.5009 H   0  0  0  0  0  0  0  0  0  0  0  0
    8.1291   -5.3250   25.4453 H   0  0  0  0  0  0  0  0  0  0  0  0
    9.5644   -4.8641   24.4869 H   0  0  0  0  0  0  0  0  0  0  0  0
    9.2348   -6.5798   24.8238 H   0  0  0  0  0  0  0  0  0  0  0  0
  1  2  1  0
  2  3  1  0
  3  4  1  0
  4  5  1  0
  5  6  2  0
  6  7  1  0
  7  8  1  0
  8  9  2  0
  9 10  1  0
 10 11  2  0
 11 12  1  0
 12 13  2  0
 13 14  1  0
 11 15  1  0
 10 16  1  0
  9 17  1  0
  7 18  1  0
 18 19  1  0
 19 20  1  0
 20 21  2  0
 21 22  1  0
 21 23  1  0
 23 24  2  0
 24 25  1  0
 25 26  2  0
 26 27  1  0
 25 28  1  0
 24 29  1  0
 23 30  1  0
 19 31  1  0
 19 32  1  0
 18 33  2  0
  4 34  1  0
  4 35  1  0
  2 36  1  0
  2 37  1  0
  1 38  1  0
  1 39  1  0
  1 40  1  0
 33  5  1  0
 13  8  1  0
 26 20  1  0
M  END
>  <cnnaffinity>  (1) 
-5.85936

>  <filename>  (1) 
CCOCc1nc(Cc2c(F)cccc2Br)n(-c2cccnc2)n1

$$$$
