
     RDKit          3D

 50 52  0  0  0  0  0  0  0  0999 V2000
    5.6404   -1.2055   26.2016 C   0  0  0  0  0  0  0  0  0  0  0  0
    6.8530   -1.7659   25.4814 C   0  0  0  0  0  0  0  0  0  0  0  0
    6.4253   -2.7264   24.5209 O   0  0  0  0  0  0  0  0  0  0  0  0
    7.4236   -3.0833   23.5641 C   0  0  0  0  0  0  0  0  0  0  0  0
    7.0290   -4.4311   22.9626 C   0  0  0  0  0  0  0  0  0  0  0  0
    7.8244   -4.7979   22.3040 H   0  0  0  0  0  0  0  0  0  0  0  0
    6.8725   -5.1565   23.7649 H   0  0  0  0  0  0  0  0  0  0  0  0
    6.1049   -4.3380   22.3824 H   0  0  0  0  0  0  0  0  0  0  0  0
    7.6370   -2.0143   22.5048 C   0  0  0  0  0  0  0  0  0  0  0  0
    6.7182   -1.6231   21.6446 N   0  0  0  0  0  0  0  0  0  0  0  0
    7.3677   -0.6768   20.9165 N   0  0  0  0  0  0  0  0  0  0  0  0
    6.6710    0.0041   19.8810 C   0  0  0  0  0  0  0  0  0  0  0  0
    5.4509    0.6345   20.1476 C   0  0  0  0  0  0  0  0  0  0  0  0
    4.8078    1.3074   19.1039 C   0  0  0  0  0  0  0  0  0  0  0  0
    5.3953    1.2995   17.8325 C   0  0  0  0  0  0  0  0  0  0  0  0
    6.5470    0.6676   17.5609 N   0  0  0  0  0  0  0  0  0  0  0  0
    7.1681    0.0429   18.5676 C   0  0  0  0  0  0  0  0  0  0  0  0
    8.1055   -0.4561   18.3260 H   0  0  0  0  0  0  0  0  0  0  0  0
    4.9257    1.8174   16.9992 H   0  0  0  0  0  0  0  0  0  0  0  0
    3.8738    1.8409   19.2579 H   0  0  0  0  0  0  0  0  0  0  0  0
    5.0247    0.5809   21.1512 H   0  0  0  0  0  0  0  0  0  0  0  0
    8.6397   -0.5251   21.3985 C   0  0  0  0  0  0  0  0  0  0  0  0
    9.5895    0.5604   20.9928 C   0  0  0  0  0  0  0  0  0  0  0  0
    9.4856    1.8465   21.8571 C   0  0  1  0  0  0  0  0  0  0  0  0
    8.0935    2.4948   21.7421 C   0  0  0  0  0  0  0  0  0  0  0  0
    8.0293    3.8270   22.5156 C   0  0  0  0  0  0  0  0  0  0  0  0
    8.3870    3.6025   24.0021 C   0  0  0  0  0  0  0  0  0  0  0  0
    9.7524    2.9068   24.1473 C   0  0  0  0  0  0  0  0  0  0  0  0
    9.8194    1.6034   23.3399 C   0  0  2  0  0  0  0  0  0  0  0  0
   11.1217    1.0409   23.4250 O   0  0  0  0  0  0  0  0  0  0  0  0
   11.1841    0.5949   24.2750 H   0  0  0  0  0  0  0  0  0  0  0  0
    9.0708    0.8919   23.7356 H   0  0  0  0  0  0  0  0  0  0  0  0
    9.9747    2.6798   25.1991 H   0  0  0  0  0  0  0  0  0  0  0  0
   10.5642    3.5562   23.7834 H   0  0  0  0  0  0  0  0  0  0  0  0
    7.6115    2.9743   24.4717 H   0  0  0  0  0  0  0  0  0  0  0  0
    8.3822    4.5473   24.5607 H   0  0  0  0  0  0  0  0  0  0  0  0
    8.7374    4.5494   22.0802 H   0  0  0  0  0  0  0  0  0  0  0  0
    7.0347    4.2814   22.4225 H   0  0  0  0  0  0  0  0  0  0  0  0
    7.8377    2.5843   20.6805 H   0  0  0  0  0  0  0  0  0  0  0  0
    7.3439    1.8117   22.1764 H   0  0  0  0  0  0  0  0  0  0  0  0
   10.2482    2.5482   21.4798 H   0  0  0  0  0  0  0  0  0  0  0  0
    9.3918    0.8136   19.9498 H   0  0  0  0  0  0  0  0  0  0  0  0
   10.6071    0.1630   21.0570 H   0  0  0  0  0  0  0  0  0  0  0  0
    8.8392   -1.3885   22.3797 N   0  0  0  0  0  0  0  0  0  0  0  0
    8.4035   -3.1673   24.0628 H   0  0  0  0  0  0  0  0  0  0  0  0
    7.5443   -2.2409   26.1993 H   0  0  0  0  0  0  0  0  0  0  0  0
    7.4111   -0.9567   24.9822 H   0  0  0  0  0  0  0  0  0  0  0  0
    5.0581   -2.0100   26.6589 H   0  0  0  0  0  0  0  0  0  0  0  0
    4.9906   -0.6516   25.5168 H   0  0  0  0  0  0  0  0  0  0  0  0
    5.9682   -0.5209   26.9925 H   0  0  0  0  0  0  0  0  0  0  0  0
  1  2  1  0
  2  3  1  0
  3  4  1  0
  4  5  1  0
  5  6  1  0
  5  7  1  0
  5  8  1  0
  4  9  1  0
  9 10  2  0
 10 11  1  0
 11 12  1  0
 12 13  2  0
 13 14  1  0
 14 15  2  0
 15 16  1  0
 16 17  2  0
 17 18  1  0
 15 19  1  0
 14 20  1  0
 13 21  1  0
 11 22  1  0
 22 23  1  0
 23 24  1  0
 24 25  1  0
 25 26  1  0
 26 27  1  0
 27 28  1  0
 28 29  1  0
 29 30  1  0
 30 31  1  0
 29 32  1  1
 28 33  1  0
 28 34  1  0
 27 35  1  0
 27 36  1  0
 26 37  1  0
 26 38  1  0
 25 39  1  0
 25 40  1  0
 24 41  1  6
 23 42  1  0
 23 43  1  0
 22 44  2  0
  4 45  1  0
  2 46  1  0
  2 47  1  0
  1 48  1  0
  1 49  1  0
  1 50  1  0
 44  9  1  0
 17 12  1  0
 29 24  1  0
M  END
>  <cnnaffinity>  (1) 
-5.56796

>  <filename>  (1) 
CCOC(C)c1nc(C[C@H]2CCCC[C@@H]2O)n(-c2cccnc2)n1

$$$$
