
     RDKit          3D

 49 52  0  0  0  0  0  0  0  0999 V2000
    9.4360    5.2318   24.8837 C   0  0  0  0  0  0  0  0  0  0  0  0
    9.5037    4.0774   23.8953 C   0  0  0  0  0  0  0  0  0  0  0  0
   10.7447    3.3960   24.1056 O   0  0  0  0  0  0  0  0  0  0  0  0
   11.0589    2.3169   23.3607 C   0  0  0  0  0  0  0  0  0  0  0  0
   12.3008    1.7285   23.6632 C   0  0  0  0  0  0  0  0  0  0  0  0
   12.7033    0.6144   22.9483 C   0  0  0  0  0  0  0  0  0  0  0  0
   11.8409    0.1243   21.9543 C   0  0  0  0  0  0  0  0  0  0  0  0
   10.6289    0.7775   21.7435 C   0  0  0  0  0  0  0  0  0  0  0  0
    9.6654    0.2641   20.7326 C   0  0  0  0  0  0  0  0  0  0  0  0
    8.6269   -0.5631   21.3882 C   0  0  0  0  0  0  0  0  0  0  0  0
    8.8592   -1.4237   22.3531 N   0  0  0  0  0  0  0  0  0  0  0  0
    7.6523   -2.0017   22.5450 C   0  0  0  0  0  0  0  0  0  0  0  0
    7.4017   -2.9954   23.6378 C   0  0  0  0  0  0  0  0  0  0  0  0
    6.4146   -2.4777   24.7165 C   0  0  0  0  0  0  0  0  0  0  0  0
    5.7838   -3.7352   25.3467 C   0  0  0  0  0  0  0  0  0  0  0  0
    6.0234   -4.9040   24.3532 C   0  0  0  0  0  0  0  0  0  0  0  0
    6.7683   -4.3144   23.1392 C   0  0  0  0  0  0  0  0  0  0  0  0
    7.5274   -4.9932   22.7283 H   0  0  0  0  0  0  0  0  0  0  0  0
    6.0666   -4.0914   22.3230 H   0  0  0  0  0  0  0  0  0  0  0  0
    6.6155   -5.6934   24.8328 H   0  0  0  0  0  0  0  0  0  0  0  0
    5.0847   -5.3772   24.0413 H   0  0  0  0  0  0  0  0  0  0  0  0
    6.2383   -3.9612   26.3194 H   0  0  0  0  0  0  0  0  0  0  0  0
    4.7167   -3.5761   25.5426 H   0  0  0  0  0  0  0  0  0  0  0  0
    5.6435   -1.8613   24.2399 H   0  0  0  0  0  0  0  0  0  0  0  0
    6.9149   -1.8305   25.4492 H   0  0  0  0  0  0  0  0  0  0  0  0
    8.3859   -3.1826   24.0909 H   0  0  0  0  0  0  0  0  0  0  0  0
    6.6968   -1.5809   21.7285 N   0  0  0  0  0  0  0  0  0  0  0  0
    7.3367   -0.6653   20.9610 N   0  0  0  0  0  0  0  0  0  0  0  0
    6.6567   -0.0002   19.9049 C   0  0  0  0  0  0  0  0  0  0  0  0
    5.4383    0.6356   20.1612 C   0  0  0  0  0  0  0  0  0  0  0  0
    4.8071    1.3049   19.1086 C   0  0  0  0  0  0  0  0  0  0  0  0
    5.3994    1.2901   17.8397 C   0  0  0  0  0  0  0  0  0  0  0  0
    6.5531    0.6572   17.5790 N   0  0  0  0  0  0  0  0  0  0  0  0
    7.1647    0.0357   18.5931 C   0  0  0  0  0  0  0  0  0  0  0  0
    8.1122   -0.4461   18.3533 H   0  0  0  0  0  0  0  0  0  0  0  0
    4.9338    1.8026   17.0000 H   0  0  0  0  0  0  0  0  0  0  0  0
    3.8762    1.8435   19.2587 H   0  0  0  0  0  0  0  0  0  0  0  0
    5.0173    0.6017   21.1646 H   0  0  0  0  0  0  0  0  0  0  0  0
    9.1997    1.1014   20.2122 H   0  0  0  0  0  0  0  0  0  0  0  0
   10.1530   -0.4156   20.0246 H   0  0  0  0  0  0  0  0  0  0  0  0
   10.2282    1.8581   22.4313 N   0  0  0  0  0  0  0  0  0  0  0  0
   12.0766   -0.7527   21.3605 H   0  0  0  0  0  0  0  0  0  0  0  0
   13.6549    0.1246   23.1579 H   0  0  0  0  0  0  0  0  0  0  0  0
   12.8695    2.1820   24.4585 H   0  0  0  0  0  0  0  0  0  0  0  0
    9.4537    4.4319   22.8568 H   0  0  0  0  0  0  0  0  0  0  0  0
    8.6720    3.3750   24.0414 H   0  0  0  0  0  0  0  0  0  0  0  0
   10.2553    5.9448   24.7340 H   0  0  0  0  0  0  0  0  0  0  0  0
    9.4696    4.8819   25.9223 H   0  0  0  0  0  0  0  0  0  0  0  0
    8.4899    5.7633   24.7338 H   0  0  0  0  0  0  0  0  0  0  0  0
  1  2  1  0
  2  3  1  0
  3  4  1  0
  4  5  2  0
  5  6  1  0
  6  7  2  0
  7  8  1  0
  8  9  1  0
  9 10  1  0
 10 11  2  0
 11 12  1  0
 12 13  1  0
 13 14  1  0
 14 15  1  0
 15 16  1  0
 16 17  1  0
 17 18  1  0
 17 19  1  0
 16 20  1  0
 16 21  1  0
 15 22  1  0
 15 23  1  0
 14 24  1  0
 14 25  1  0
 13 26  1  0
 12 27  2  0
 27 28  1  0
 28 29  1  0
 29 30  2  0
 30 31  1  0
 31 32  2  0
 32 33  1  0
 33 34  2  0
 34 35  1  0
 32 36  1  0
 31 37  1  0
 30 38  1  0
  9 39  1  0
  9 40  1  0
  8 41  2  0
  7 42  1  0
  6 43  1  0
  5 44  1  0
  2 45  1  0
  2 46  1  0
  1 47  1  0
  1 48  1  0
  1 49  1  0
 41  4  1  0
 28 10  1  0
 34 29  1  0
 17 13  1  0
M  END
>  <cnnaffinity>  (1) 
-6.45851

>  <filename>  (1) 
CCOc1cccc(Cc2nc(C3CCCC3)nn2-c2cccnc2)n1

$$$$
