
     RDKit          3D

 40 42  0  0  0  0  0  0  0  0999 V2000
    6.1454   -5.5313   23.7457 C   0  0  0  0  0  0  0  0  0  0  0  0
    7.3097   -4.5607   23.7434 C   0  0  0  0  0  0  0  0  0  0  0  0
    7.7654   -4.5342   22.3940 O   0  0  0  0  0  0  0  0  0  0  0  0
    8.6176   -3.4528   22.0655 C   0  0  0  0  0  0  0  0  0  0  0  0
    7.9442   -2.1158   21.9134 C   0  0  0  0  0  0  0  0  0  0  0  0
    7.4417   -1.7279   20.7603 N   0  0  0  0  0  0  0  0  0  0  0  0
    6.9799   -0.4762   21.0218 N   0  0  0  0  0  0  0  0  0  0  0  0
    6.4085    0.2587   19.9508 C   0  0  0  0  0  0  0  0  0  0  0  0
    5.2371    1.0235   20.0393 C   0  0  0  0  0  0  0  0  0  0  0  0
    4.7331    1.5800   18.8537 C   0  0  0  0  0  0  0  0  0  0  0  0
    5.4219    1.3834   17.6547 C   0  0  0  0  0  0  0  0  0  0  0  0
    6.5616    0.6750   17.5715 N   0  0  0  0  0  0  0  0  0  0  0  0
    7.0341    0.1402   18.6954 C   0  0  0  0  0  0  0  0  0  0  0  0
    7.9735   -0.4098   18.6412 H   0  0  0  0  0  0  0  0  0  0  0  0
    5.0553    1.8088   16.7212 H   0  0  0  0  0  0  0  0  0  0  0  0
    3.8202    2.1666   18.8505 H   0  0  0  0  0  0  0  0  0  0  0  0
    4.7208    1.1740   20.9885 H   0  0  0  0  0  0  0  0  0  0  0  0
    7.3018   -0.1553   22.3126 C   0  0  0  0  0  0  0  0  0  0  0  0
    7.1356    1.1735   22.9757 C   0  0  0  0  0  0  0  0  0  0  0  0
    8.4620    1.6577   23.5473 C   0  0  0  0  0  0  0  0  0  0  0  0
    8.7484    1.5014   24.9071 C   0  0  0  0  0  0  0  0  0  0  0  0
   10.0261    1.7429   25.4142 C   0  0  0  0  0  0  0  0  0  0  0  0
   11.0376    2.1889   24.5631 C   0  0  0  0  0  0  0  0  0  0  0  0
   10.7755    2.4013   23.2077 C   0  0  0  0  0  0  0  0  0  0  0  0
    9.4906    2.1369   22.7199 C   0  0  0  0  0  0  0  0  0  0  0  0
    9.1682    2.3987   21.0363 Cl  0  0  0  0  0  0  0  0  0  0  0  0
   11.5495    2.7550   22.5324 H   0  0  0  0  0  0  0  0  0  0  0  0
   12.0327    2.3677   24.9554 H   0  0  0  0  0  0  0  0  0  0  0  0
   10.2295    1.5596   26.4611 H   0  0  0  0  0  0  0  0  0  0  0  0
    7.9545    1.1795   25.5765 H   0  0  0  0  0  0  0  0  0  0  0  0
    6.7349    1.9035   22.2701 H   0  0  0  0  0  0  0  0  0  0  0  0
    6.4064    1.0425   23.7805 H   0  0  0  0  0  0  0  0  0  0  0  0
    7.8698   -1.1922   22.9031 N   0  0  0  0  0  0  0  0  0  0  0  0
    9.0269   -3.6811   21.0809 H   0  0  0  0  0  0  0  0  0  0  0  0
    9.4411   -3.3441   22.7886 H   0  0  0  0  0  0  0  0  0  0  0  0
    7.0135   -3.5512   24.0818 H   0  0  0  0  0  0  0  0  0  0  0  0
    8.1281   -4.8986   24.4046 H   0  0  0  0  0  0  0  0  0  0  0  0
    5.7385   -5.6935   24.7480 H   0  0  0  0  0  0  0  0  0  0  0  0
    6.4912   -6.4878   23.3416 H   0  0  0  0  0  0  0  0  0  0  0  0
    5.3463   -5.1534   23.0979 H   0  0  0  0  0  0  0  0  0  0  0  0
  1  2  1  0
  2  3  1  0
  3  4  1  0
  4  5  1  0
  5  6  2  0
  6  7  1  0
  7  8  1  0
  8  9  2  0
  9 10  1  0
 10 11  2  0
 11 12  1  0
 12 13  2  0
 13 14  1  0
 11 15  1  0
 10 16  1  0
  9 17  1  0
  7 18  1  0
 18 19  1  0
 19 20  1  0
 20 21  2  0
 21 22  1  0
 22 23  2  0
 23 24  1  0
 24 25  2  0
 25 26  1  0
 24 27  1  0
 23 28  1  0
 22 29  1  0
 21 30  1  0
 19 31  1  0
 19 32  1  0
 18 33  2  0
  4 34  1  0
  4 35  1  0
  2 36  1  0
  2 37  1  0
  1 38  1  0
  1 39  1  0
  1 40  1  0
 33  5  1  0
 13  8  1  0
 25 20  1  0
M  END
>  <cnnaffinity>  (1) 
-5.60851

>  <filename>  (1) 
CCOCc1nc(Cc2ccccc2Cl)n(-c2cccnc2)n1

$$$$
