
     RDKit          3D

 43 45  0  0  0  0  0  0  0  0999 V2000
    7.9020   -5.0540   21.6784 C   0  0  0  0  0  0  0  0  0  0  0  0
    7.2365   -5.3380   23.0215 C   0  0  0  0  0  0  0  0  0  0  0  0
    6.4660   -4.2463   23.5109 O   0  0  0  0  0  0  0  0  0  0  0  0
    7.2150   -3.0971   23.8754 C   0  0  0  0  0  0  0  0  0  0  0  0
    6.4872   -2.3486   24.9954 C   0  0  0  0  0  0  0  0  0  0  0  0
    6.3663   -2.9965   25.8677 H   0  0  0  0  0  0  0  0  0  0  0  0
    7.0855   -1.4791   25.2949 H   0  0  0  0  0  0  0  0  0  0  0  0
    5.5023   -1.9989   24.6722 H   0  0  0  0  0  0  0  0  0  0  0  0
    7.5520   -2.1665   22.7208 C   0  0  0  0  0  0  0  0  0  0  0  0
    6.7399   -1.8004   21.7499 N   0  0  0  0  0  0  0  0  0  0  0  0
    7.4643   -0.8504   21.0823 N   0  0  0  0  0  0  0  0  0  0  0  0
    6.8327   -0.1328   20.0103 C   0  0  0  0  0  0  0  0  0  0  0  0
    5.6267    0.5411   20.2514 C   0  0  0  0  0  0  0  0  0  0  0  0
    5.0195    1.2219   19.1948 C   0  0  0  0  0  0  0  0  0  0  0  0
    5.6336    1.2154   17.9387 C   0  0  0  0  0  0  0  0  0  0  0  0
    6.7852    0.5707   17.6978 N   0  0  0  0  0  0  0  0  0  0  0  0
    7.3627   -0.0935   18.7078 C   0  0  0  0  0  0  0  0  0  0  0  0
    8.2852   -0.6184   18.4603 H   0  0  0  0  0  0  0  0  0  0  0  0
    5.1897    1.7512   17.1024 H   0  0  0  0  0  0  0  0  0  0  0  0
    4.0900    1.7616   19.3343 H   0  0  0  0  0  0  0  0  0  0  0  0
    5.1950    0.5182   21.2529 H   0  0  0  0  0  0  0  0  0  0  0  0
    8.6602   -0.6812   21.7339 C   0  0  0  0  0  0  0  0  0  0  0  0
    9.6743    0.3808   21.4989 C   0  0  0  0  0  0  0  0  0  0  0  0
    9.0923    1.7080   21.8187 C   0  0  0  0  0  0  0  0  0  0  0  0
    8.3315    2.5043   21.0317 C   0  0  0  0  0  0  0  0  0  0  0  0
    7.9655    3.5679   21.8362 N   0  0  0  0  0  0  0  0  0  0  0  0
    8.5000    3.3345   23.0661 C   0  0  0  0  0  0  0  0  0  0  0  0
    8.3443    4.2410   24.2331 C   0  0  0  0  0  0  0  0  0  0  0  0
    8.4480    3.6433   25.1390 H   0  0  0  0  0  0  0  0  0  0  0  0
    7.3695    4.7312   24.2316 H   0  0  0  0  0  0  0  0  0  0  0  0
    9.1263    5.0063   24.2448 H   0  0  0  0  0  0  0  0  0  0  0  0
    9.1796    2.2153   23.0837 N   0  0  0  0  0  0  0  0  0  0  0  0
    7.3523    4.3321   21.5957 H   0  0  0  0  0  0  0  0  0  0  0  0
    8.0201    2.3480   20.0108 H   0  0  0  0  0  0  0  0  0  0  0  0
   10.0277    0.3234   20.4734 H   0  0  0  0  0  0  0  0  0  0  0  0
   10.5104    0.1926   22.1745 H   0  0  0  0  0  0  0  0  0  0  0  0
    8.7473   -1.5220   22.7378 N   0  0  0  0  0  0  0  0  0  0  0  0
    8.1983   -3.4062   24.2637 H   0  0  0  0  0  0  0  0  0  0  0  0
    7.9918   -5.6309   23.7752 H   0  0  0  0  0  0  0  0  0  0  0  0
    6.5251   -6.1671   22.9280 H   0  0  0  0  0  0  0  0  0  0  0  0
    8.5513   -4.1741   21.7090 H   0  0  0  0  0  0  0  0  0  0  0  0
    8.5233   -5.9010   21.3804 H   0  0  0  0  0  0  0  0  0  0  0  0
    7.1518   -4.8866   20.9020 H   0  0  0  0  0  0  0  0  0  0  0  0
  1  2  1  0
  2  3  1  0
  3  4  1  0
  4  5  1  0
  5  6  1  0
  5  7  1  0
  5  8  1  0
  4  9  1  0
  9 10  2  0
 10 11  1  0
 11 12  1  0
 12 13  2  0
 13 14  1  0
 14 15  2  0
 15 16  1  0
 16 17  2  0
 17 18  1  0
 15 19  1  0
 14 20  1  0
 13 21  1  0
 11 22  1  0
 22 23  1  0
 23 24  1  0
 24 25  2  0
 25 26  1  0
 26 27  1  0
 27 28  1  0
 28 29  1  0
 28 30  1  0
 28 31  1  0
 27 32  2  0
 26 33  1  0
 25 34  1  0
 23 35  1  0
 23 36  1  0
 22 37  2  0
  4 38  1  0
  2 39  1  0
  2 40  1  0
  1 41  1  0
  1 42  1  0
  1 43  1  0
 37  9  1  0
 17 12  1  0
 32 24  1  0
M  END
>  <cnnaffinity>  (1) 
-5.81687

>  <filename>  (1) 
CCOC(C)c1nc(Cc2c[nH]c(C)n2)n(-c2cccnc2)n1

$$$$
