
     RDKit          3D

 45 47  0  0  0  0  0  0  0  0999 V2000
    6.6628   -2.5332   26.6934 C   0  0  0  0  0  0  0  0  0  0  0  0
    6.4098   -1.8456   25.3573 C   0  0  0  0  0  0  0  0  0  0  0  0
    6.2706   -2.8436   24.3486 O   0  0  0  0  0  0  0  0  0  0  0  0
    7.4382   -3.0706   23.5635 C   0  0  0  0  0  0  0  0  0  0  0  0
    7.3076   -4.4597   22.9449 C   0  0  0  0  0  0  0  0  0  0  0  0
    6.4602   -4.4853   22.2501 H   0  0  0  0  0  0  0  0  0  0  0  0
    7.1408   -5.1970   23.7344 H   0  0  0  0  0  0  0  0  0  0  0  0
    8.2240   -4.7203   22.4033 H   0  0  0  0  0  0  0  0  0  0  0  0
    7.6425   -1.9860   22.5298 C   0  0  0  0  0  0  0  0  0  0  0  0
    6.7093   -1.6044   21.6740 N   0  0  0  0  0  0  0  0  0  0  0  0
    7.3529   -0.6667   20.9320 N   0  0  0  0  0  0  0  0  0  0  0  0
    6.6584    0.0032   19.8848 C   0  0  0  0  0  0  0  0  0  0  0  0
    5.4423    0.6363   20.1512 C   0  0  0  0  0  0  0  0  0  0  0  0
    4.8062    1.3095   19.1038 C   0  0  0  0  0  0  0  0  0  0  0  0
    5.3904    1.2967   17.8331 C   0  0  0  0  0  0  0  0  0  0  0  0
    6.5415    0.6628   17.5639 N   0  0  0  0  0  0  0  0  0  0  0  0
    7.1593    0.0363   18.5739 C   0  0  0  0  0  0  0  0  0  0  0  0
    8.1059   -0.4483   18.3376 H   0  0  0  0  0  0  0  0  0  0  0  0
    4.9260    1.8091   16.9940 H   0  0  0  0  0  0  0  0  0  0  0  0
    3.8759    1.8440   19.2571 H   0  0  0  0  0  0  0  0  0  0  0  0
    5.0251    0.5920   21.1588 H   0  0  0  0  0  0  0  0  0  0  0  0
    8.6252   -0.5214   21.4037 C   0  0  0  0  0  0  0  0  0  0  0  0
    9.6521    0.3916   20.8632 C   0  0  0  0  0  0  0  0  0  0  0  0
   10.2265    1.2282   21.9696 C   0  0  0  0  0  0  0  0  0  0  0  0
   11.4653    0.9017   22.3353 N   0  0  0  0  0  0  0  0  0  0  0  0
   12.0343    1.5725   23.3462 C   0  0  0  0  0  0  0  0  0  0  0  0
   11.3854    2.6050   24.0209 C   0  0  0  0  0  0  0  0  0  0  0  0
   10.0879    2.9545   23.6266 C   0  0  0  0  0  0  0  0  0  0  0  0
    9.4718    2.2642   22.5778 C   0  0  0  0  0  0  0  0  0  0  0  0
    8.0657    2.6176   22.1467 C   0  0  0  0  0  0  0  0  0  0  0  0
    7.3615    1.8044   22.3646 H   0  0  0  0  0  0  0  0  0  0  0  0
    8.0093    2.8072   21.0702 H   0  0  0  0  0  0  0  0  0  0  0  0
    7.7230    3.5133   22.6701 H   0  0  0  0  0  0  0  0  0  0  0  0
    9.5362    3.7602   24.1190 H   0  0  0  0  0  0  0  0  0  0  0  0
   11.9007    3.1154   24.8220 H   0  0  0  0  0  0  0  0  0  0  0  0
   13.0417    1.2527   23.6204 H   0  0  0  0  0  0  0  0  0  0  0  0
    9.2211    1.0246   20.0893 H   0  0  0  0  0  0  0  0  0  0  0  0
   10.4467   -0.2437   20.4721 H   0  0  0  0  0  0  0  0  0  0  0  0
    8.8362   -1.3535   22.4003 N   0  0  0  0  0  0  0  0  0  0  0  0
    8.3485   -3.0184   24.1905 H   0  0  0  0  0  0  0  0  0  0  0  0
    5.4748   -1.2727   25.3640 H   0  0  0  0  0  0  0  0  0  0  0  0
    7.2186   -1.1325   25.1088 H   0  0  0  0  0  0  0  0  0  0  0  0
    6.7630   -1.8155   27.5156 H   0  0  0  0  0  0  0  0  0  0  0  0
    5.8343   -3.2151   26.9112 H   0  0  0  0  0  0  0  0  0  0  0  0
    7.5841   -3.1262   26.6389 H   0  0  0  0  0  0  0  0  0  0  0  0
  1  2  1  0
  2  3  1  0
  3  4  1  0
  4  5  1  0
  5  6  1  0
  5  7  1  0
  5  8  1  0
  4  9  1  0
  9 10  2  0
 10 11  1  0
 11 12  1  0
 12 13  2  0
 13 14  1  0
 14 15  2  0
 15 16  1  0
 16 17  2  0
 17 18  1  0
 15 19  1  0
 14 20  1  0
 13 21  1  0
 11 22  1  0
 22 23  1  0
 23 24  1  0
 24 25  2  0
 25 26  1  0
 26 27  2  0
 27 28  1  0
 28 29  2  0
 29 30  1  0
 30 31  1  0
 30 32  1  0
 30 33  1  0
 28 34  1  0
 27 35  1  0
 26 36  1  0
 23 37  1  0
 23 38  1  0
 22 39  2  0
  4 40  1  0
  2 41  1  0
  2 42  1  0
  1 43  1  0
  1 44  1  0
  1 45  1  0
 39  9  1  0
 17 12  1  0
 29 24  1  0
M  END
>  <cnnaffinity>  (1) 
-5.9471

>  <filename>  (1) 
CCOC(C)c1nc(Cc2ncccc2C)n(-c2cccnc2)n1

$$$$
