
     RDKit          3D

 39 41  0  0  0  0  0  0  0  0999 V2000
    7.4974   -6.3835   22.0580 C   0  0  0  0  0  0  0  0  0  0  0  0
    7.9448   -5.5932   23.2833 C   0  0  0  0  0  0  0  0  0  0  0  0
    7.7000   -4.2075   23.1333 O   0  0  0  0  0  0  0  0  0  0  0  0
    8.6141   -3.5338   22.2857 C   0  0  0  0  0  0  0  0  0  0  0  0
    8.1754   -2.1380   21.9776 C   0  0  0  0  0  0  0  0  0  0  0  0
    7.7252   -1.8131   20.7834 N   0  0  0  0  0  0  0  0  0  0  0  0
    7.3199   -0.5320   20.9456 N   0  0  0  0  0  0  0  0  0  0  0  0
    6.6215    0.1100   19.8941 C   0  0  0  0  0  0  0  0  0  0  0  0
    5.3960    0.7456   20.1152 C   0  0  0  0  0  0  0  0  0  0  0  0
    4.7816    1.3619   19.0214 C   0  0  0  0  0  0  0  0  0  0  0  0
    5.4034    1.3150   17.7693 C   0  0  0  0  0  0  0  0  0  0  0  0
    6.5577    0.6595   17.5472 N   0  0  0  0  0  0  0  0  0  0  0  0
    7.1377    0.0556   18.5876 C   0  0  0  0  0  0  0  0  0  0  0  0
    8.0485   -0.5077   18.3982 H   0  0  0  0  0  0  0  0  0  0  0  0
    4.9670    1.8193   16.9100 H   0  0  0  0  0  0  0  0  0  0  0  0
    3.8331    1.8734   19.1287 H   0  0  0  0  0  0  0  0  0  0  0  0
    4.9175    0.7089   21.0957 H   0  0  0  0  0  0  0  0  0  0  0  0
    7.6044   -0.1299   22.2278 C   0  0  0  0  0  0  0  0  0  0  0  0
    7.3494    1.2035   22.8738 C   0  0  0  0  0  0  0  0  0  0  0  0
    8.6173    1.7463   23.5101 C   0  0  0  0  0  0  0  0  0  0  0  0
    9.6510    2.2858   22.7339 C   0  0  0  0  0  0  0  0  0  0  0  0
    9.4422    2.4317   21.0313 Cl  0  0  0  0  0  0  0  0  0  0  0  0
   10.8736    2.6642   23.3039 C   0  0  0  0  0  0  0  0  0  0  0  0
   11.1306    2.5055   24.6063 N   0  0  0  0  0  0  0  0  0  0  0  0
   10.1613    1.9932   25.3756 C   0  0  0  0  0  0  0  0  0  0  0  0
    8.9072    1.6363   24.8709 C   0  0  0  0  0  0  0  0  0  0  0  0
    7.9775    1.1733   25.7191 F   0  0  0  0  0  0  0  0  0  0  0  0
   10.3723    1.8466   26.4276 H   0  0  0  0  0  0  0  0  0  0  0  0
   11.6584    3.0771   22.6734 H   0  0  0  0  0  0  0  0  0  0  0  0
    6.5810    1.0685   23.6425 H   0  0  0  0  0  0  0  0  0  0  0  0
    6.9852    1.9252   22.1372 H   0  0  0  0  0  0  0  0  0  0  0  0
    8.1639   -1.1276   22.8824 N   0  0  0  0  0  0  0  0  0  0  0  0
    9.5981   -3.4794   22.7671 H   0  0  0  0  0  0  0  0  0  0  0  0
    8.7099   -4.0444   21.3158 H   0  0  0  0  0  0  0  0  0  0  0  0
    9.0082   -5.7825   23.5240 H   0  0  0  0  0  0  0  0  0  0  0  0
    7.3520   -5.8830   24.1554 H   0  0  0  0  0  0  0  0  0  0  0  0
    7.7151   -7.4477   22.1833 H   0  0  0  0  0  0  0  0  0  0  0  0
    7.9956   -6.0347   21.1472 H   0  0  0  0  0  0  0  0  0  0  0  0
    6.4213   -6.2719   21.8940 H   0  0  0  0  0  0  0  0  0  0  0  0
  1  2  1  0
  2  3  1  0
  3  4  1  0
  4  5  1  0
  5  6  2  0
  6  7  1  0
  7  8  1  0
  8  9  2  0
  9 10  1  0
 10 11  2  0
 11 12  1  0
 12 13  2  0
 13 14  1  0
 11 15  1  0
 10 16  1  0
  9 17  1  0
  7 18  1  0
 18 19  1  0
 19 20  1  0
 20 21  2  0
 21 22  1  0
 21 23  1  0
 23 24  2  0
 24 25  1  0
 25 26  2  0
 26 27  1  0
 25 28  1  0
 23 29  1  0
 19 30  1  0
 19 31  1  0
 18 32  2  0
  4 33  1  0
  4 34  1  0
  2 35  1  0
  2 36  1  0
  1 37  1  0
  1 38  1  0
  1 39  1  0
 32  5  1  0
 13  8  1  0
 26 20  1  0
M  END
>  <cnnaffinity>  (1) 
-5.92394

>  <filename>  (1) 
CCOCc1nc(Cc2c(F)cncc2Cl)n(-c2cccnc2)n1

$$$$
