
     RDKit          3D

 49 51  0  0  0  0  0  0  0  0999 V2000
    6.1171   -5.9856   22.0178 C   0  0  0  0  0  0  0  0  0  0  0  0
    7.1741   -5.0644   22.5917 C   0  0  0  0  0  0  0  0  0  0  0  0
    6.5329   -4.0467   23.3494 O   0  0  0  0  0  0  0  0  0  0  0  0
    7.3847   -2.9614   23.6824 C   0  0  0  0  0  0  0  0  0  0  0  0
    6.7904   -2.2383   24.8917 C   0  0  0  0  0  0  0  0  0  0  0  0
    5.8386   -1.7681   24.6257 H   0  0  0  0  0  0  0  0  0  0  0  0
    6.6212   -2.9529   25.7009 H   0  0  0  0  0  0  0  0  0  0  0  0
    7.4815   -1.4623   25.2413 H   0  0  0  0  0  0  0  0  0  0  0  0
    7.6114   -2.0120   22.5254 C   0  0  0  0  0  0  0  0  0  0  0  0
    6.6668   -1.5876   21.7096 N   0  0  0  0  0  0  0  0  0  0  0  0
    7.3200   -0.6879   20.9332 N   0  0  0  0  0  0  0  0  0  0  0  0
    6.6422   -0.0044   19.8885 C   0  0  0  0  0  0  0  0  0  0  0  0
    5.4288    0.6389   20.1518 C   0  0  0  0  0  0  0  0  0  0  0  0
    4.8035    1.3129   19.1001 C   0  0  0  0  0  0  0  0  0  0  0  0
    5.3947    1.2986   17.8305 C   0  0  0  0  0  0  0  0  0  0  0  0
    6.5458    0.6641   17.5650 N   0  0  0  0  0  0  0  0  0  0  0  0
    7.1540    0.0354   18.5771 C   0  0  0  0  0  0  0  0  0  0  0  0
    8.0998   -0.4513   18.3444 H   0  0  0  0  0  0  0  0  0  0  0  0
    4.9249    1.8089   16.9932 H   0  0  0  0  0  0  0  0  0  0  0  0
    3.8731    1.8476   19.2544 H   0  0  0  0  0  0  0  0  0  0  0  0
    5.0087    0.5949   21.1567 H   0  0  0  0  0  0  0  0  0  0  0  0
    8.6117   -0.5840   21.3630 C   0  0  0  0  0  0  0  0  0  0  0  0
    9.6367    0.2968   20.7365 C   0  0  0  0  0  0  0  0  0  0  0  0
   10.5147    0.9719   21.7675 C   0  0  0  0  0  0  0  0  0  0  0  0
   11.7355    0.3682   22.1619 C   0  0  0  0  0  0  0  0  0  0  0  0
   12.1893   -0.9705   21.6197 C   0  0  0  0  0  0  0  0  0  0  0  0
   11.4847   -1.7581   21.9098 H   0  0  0  0  0  0  0  0  0  0  0  0
   12.2077   -0.9738   20.5272 H   0  0  0  0  0  0  0  0  0  0  0  0
   13.1855   -1.2394   22.0015 H   0  0  0  0  0  0  0  0  0  0  0  0
   12.5086    0.9936   23.1444 C   0  0  0  0  0  0  0  0  0  0  0  0
   12.0342    2.1255   23.7976 C   0  0  0  0  0  0  0  0  0  0  0  0
   10.8005    2.6750   23.4578 C   0  0  0  0  0  0  0  0  0  0  0  0
   10.0190    2.1125   22.4425 C   0  0  0  0  0  0  0  0  0  0  0  0
    8.6645    2.7175   22.1372 C   0  0  0  0  0  0  0  0  0  0  0  0
    8.6435    3.1829   21.1466 H   0  0  0  0  0  0  0  0  0  0  0  0
    8.4114    3.4897   22.8689 H   0  0  0  0  0  0  0  0  0  0  0  0
    7.8670    1.9669   22.1633 H   0  0  0  0  0  0  0  0  0  0  0  0
   10.4176    3.5322   24.0038 H   0  0  0  0  0  0  0  0  0  0  0  0
   12.5973    2.5265   24.6154 H   0  0  0  0  0  0  0  0  0  0  0  0
   13.4715    0.5570   23.4064 H   0  0  0  0  0  0  0  0  0  0  0  0
    9.1423    1.0467   20.1175 H   0  0  0  0  0  0  0  0  0  0  0  0
   10.1998   -0.3752   20.0824 H   0  0  0  0  0  0  0  0  0  0  0  0
    8.8260   -1.4344   22.3481 N   0  0  0  0  0  0  0  0  0  0  0  0
    8.3884   -3.3316   23.9506 H   0  0  0  0  0  0  0  0  0  0  0  0
    7.7785   -4.6226   21.7808 H   0  0  0  0  0  0  0  0  0  0  0  0
    7.8629   -5.6226   23.2479 H   0  0  0  0  0  0  0  0  0  0  0  0
    6.6026   -6.8177   21.4979 H   0  0  0  0  0  0  0  0  0  0  0  0
    5.4772   -5.4579   21.3041 H   0  0  0  0  0  0  0  0  0  0  0  0
    5.4903   -6.3933   22.8153 H   0  0  0  0  0  0  0  0  0  0  0  0
  1  2  1  0
  2  3  1  0
  3  4  1  0
  4  5  1  0
  5  6  1  0
  5  7  1  0
  5  8  1  0
  4  9  1  0
  9 10  2  0
 10 11  1  0
 11 12  1  0
 12 13  2  0
 13 14  1  0
 14 15  2  0
 15 16  1  0
 16 17  2  0
 17 18  1  0
 15 19  1  0
 14 20  1  0
 13 21  1  0
 11 22  1  0
 22 23  1  0
 23 24  1  0
 24 25  2  0
 25 26  1  0
 26 27  1  0
 26 28  1  0
 26 29  1  0
 25 30  1  0
 30 31  2  0
 31 32  1  0
 32 33  2  0
 33 34  1  0
 34 35  1  0
 34 36  1  0
 34 37  1  0
 32 38  1  0
 31 39  1  0
 30 40  1  0
 23 41  1  0
 23 42  1  0
 22 43  2  0
  4 44  1  0
  2 45  1  0
  2 46  1  0
  1 47  1  0
  1 48  1  0
  1 49  1  0
 43  9  1  0
 17 12  1  0
 33 24  1  0
M  END
>  <cnnaffinity>  (1) 
-6.41704

>  <filename>  (1) 
CCOC(C)c1nc(Cc2c(C)cccc2C)n(-c2cccnc2)n1

$$$$
