
     RDKit          3D

 50 52  0  0  0  0  0  0  0  0999 V2000
   11.1322   -1.7948   21.6248 C   0  0  0  0  0  0  0  0  0  0  0  0
   10.7494   -2.4459   22.9543 C   0  0  0  0  0  0  0  0  0  0  0  0
    9.8497   -3.5440   22.9259 O   0  0  0  0  0  0  0  0  0  0  0  0
    8.5819   -3.4955   22.2883 C   0  0  0  0  0  0  0  0  0  0  0  0
    7.6892   -4.4290   23.1138 C   0  0  0  0  0  0  0  0  0  0  0  0
    8.1807   -5.4045   23.1879 H   0  0  0  0  0  0  0  0  0  0  0  0
    7.5660   -4.0320   24.1285 H   0  0  0  0  0  0  0  0  0  0  0  0
    6.6995   -4.5766   22.6666 H   0  0  0  0  0  0  0  0  0  0  0  0
    7.9764   -2.1198   22.0504 C   0  0  0  0  0  0  0  0  0  0  0  0
    7.5857   -1.7911   20.8347 N   0  0  0  0  0  0  0  0  0  0  0  0
    7.1564   -0.5076   20.9773 N   0  0  0  0  0  0  0  0  0  0  0  0
    6.5546    0.1433   19.8716 C   0  0  0  0  0  0  0  0  0  0  0  0
    5.3794    0.8904   20.0148 C   0  0  0  0  0  0  0  0  0  0  0  0
    4.8440    1.4841   18.8678 C   0  0  0  0  0  0  0  0  0  0  0  0
    5.4954    1.3147   17.6438 C   0  0  0  0  0  0  0  0  0  0  0  0
    6.6162    0.5853   17.5005 N   0  0  0  0  0  0  0  0  0  0  0  0
    7.1199    0.0002   18.5911 C   0  0  0  0  0  0  0  0  0  0  0  0
    8.0047   -0.6202   18.4590 H   0  0  0  0  0  0  0  0  0  0  0  0
    5.1047    1.7681   16.7353 H   0  0  0  0  0  0  0  0  0  0  0  0
    3.9411    2.0831   18.9203 H   0  0  0  0  0  0  0  0  0  0  0  0
    4.8923    0.9782   20.9860 H   0  0  0  0  0  0  0  0  0  0  0  0
    7.3475   -0.1233   22.2756 C   0  0  0  0  0  0  0  0  0  0  0  0
    7.2390    1.2618   22.8203 C   0  0  0  0  0  0  0  0  0  0  0  0
    8.3191    2.2869   22.3670 C   0  0  2  0  0  0  0  0  0  0  0  0
    9.7431    1.7053   22.4845 C   0  0  0  0  0  0  0  0  0  0  0  0
   10.8521    2.7253   22.1867 C   0  0  0  0  0  0  0  0  0  0  0  0
   10.6779    4.0392   22.9752 C   0  0  0  0  0  0  0  0  0  0  0  0
    9.2503    4.6164   22.9068 C   0  0  0  0  0  0  0  0  0  0  0  0
    8.1803    3.5655   23.2252 C   0  0  1  0  0  0  0  0  0  0  0  0
    6.8879    4.1206   23.0114 O   0  0  0  0  0  0  0  0  0  0  0  0
    6.9355    5.0597   23.2162 H   0  0  0  0  0  0  0  0  0  0  0  0
    8.2881    3.2586   24.2889 H   0  0  0  0  0  0  0  0  0  0  0  0
    9.1512    5.4663   23.6023 H   0  0  0  0  0  0  0  0  0  0  0  0
    8.9990    5.0275   21.9190 H   0  0  0  0  0  0  0  0  0  0  0  0
   10.9137    3.8474   24.0347 H   0  0  0  0  0  0  0  0  0  0  0  0
   11.4065    4.7753   22.6126 H   0  0  0  0  0  0  0  0  0  0  0  0
   10.8919    2.9250   21.1055 H   0  0  0  0  0  0  0  0  0  0  0  0
   11.8243    2.2795   22.4433 H   0  0  0  0  0  0  0  0  0  0  0  0
    9.8435    0.8439   21.8074 H   0  0  0  0  0  0  0  0  0  0  0  0
    9.8764    1.3113   23.5060 H   0  0  0  0  0  0  0  0  0  0  0  0
    8.1372    2.5653   21.3141 H   0  0  0  0  0  0  0  0  0  0  0  0
    6.2564    1.6848   22.6099 H   0  0  0  0  0  0  0  0  0  0  0  0
    7.3034    1.1483   23.9100 H   0  0  0  0  0  0  0  0  0  0  0  0
    7.8205   -1.1442   22.9767 N   0  0  0  0  0  0  0  0  0  0  0  0
    8.7086   -3.9052   21.2764 H   0  0  0  0  0  0  0  0  0  0  0  0
   10.3505   -1.6810   23.6329 H   0  0  0  0  0  0  0  0  0  0  0  0
   11.6227   -2.9073   23.4153 H   0  0  0  0  0  0  0  0  0  0  0  0
   11.9232   -2.3256   21.0944 H   0  0  0  0  0  0  0  0  0  0  0  0
   11.5253   -0.7942   21.8340 H   0  0  0  0  0  0  0  0  0  0  0  0
   10.2821   -1.6836   20.9458 H   0  0  0  0  0  0  0  0  0  0  0  0
  1  2  1  0
  2  3  1  0
  3  4  1  0
  4  5  1  0
  5  6  1  0
  5  7  1  0
  5  8  1  0
  4  9  1  0
  9 10  2  0
 10 11  1  0
 11 12  1  0
 12 13  2  0
 13 14  1  0
 14 15  2  0
 15 16  1  0
 16 17  2  0
 17 18  1  0
 15 19  1  0
 14 20  1  0
 13 21  1  0
 11 22  1  0
 22 23  1  0
 23 24  1  0
 24 25  1  0
 25 26  1  0
 26 27  1  0
 27 28  1  0
 28 29  1  0
 29 30  1  0
 30 31  1  0
 29 32  1  1
 28 33  1  0
 28 34  1  0
 27 35  1  0
 27 36  1  0
 26 37  1  0
 26 38  1  0
 25 39  1  0
 25 40  1  0
 24 41  1  6
 23 42  1  0
 23 43  1  0
 22 44  2  0
  4 45  1  0
  2 46  1  0
  2 47  1  0
  1 48  1  0
  1 49  1  0
  1 50  1  0
 44  9  1  0
 17 12  1  0
 29 24  1  0
M  END
>  <cnnaffinity>  (1) 
-6.05372

>  <filename>  (1) 
CCOC(C)c1nc(C[C@@H]2CCCC[C@H]2O)n(-c2cccnc2)n1

$$$$
