
     RDKit          3D

 37 39  0  0  0  0  0  0  0  0999 V2000
    8.0932   -5.8261   24.3070 C   0  0  0  0  0  0  0  0  0  0  0  0
    7.3365   -4.7957   23.4901 C   0  0  0  0  0  0  0  0  0  0  0  0
    7.9590   -4.6217   22.2236 O   0  0  0  0  0  0  0  0  0  0  0  0
    8.7823   -3.4815   22.0491 C   0  0  0  0  0  0  0  0  0  0  0  0
    8.1035   -2.1396   21.9484 C   0  0  0  0  0  0  0  0  0  0  0  0
    7.7761   -1.7124   20.7485 N   0  0  0  0  0  0  0  0  0  0  0  0
    7.2406   -0.4992   20.9812 N   0  0  0  0  0  0  0  0  0  0  0  0
    6.5610    0.1285   19.9113 C   0  0  0  0  0  0  0  0  0  0  0  0
    5.3435    0.7828   20.0948 C   0  0  0  0  0  0  0  0  0  0  0  0
    4.7654    1.3920   18.9798 C   0  0  0  0  0  0  0  0  0  0  0  0
    5.4203    1.3258   17.7460 C   0  0  0  0  0  0  0  0  0  0  0  0
    6.5706    0.6512   17.5611 N   0  0  0  0  0  0  0  0  0  0  0  0
    7.1067    0.0401   18.6189 C   0  0  0  0  0  0  0  0  0  0  0  0
    8.0102   -0.5419   18.4545 H   0  0  0  0  0  0  0  0  0  0  0  0
    4.9954    1.8052   16.8682 H   0  0  0  0  0  0  0  0  0  0  0  0
    3.8131    1.9019   19.0590 H   0  0  0  0  0  0  0  0  0  0  0  0
    4.8805    0.8141   21.0810 H   0  0  0  0  0  0  0  0  0  0  0  0
    7.3558   -0.2103   22.3197 C   0  0  0  0  0  0  0  0  0  0  0  0
    7.1180    1.1364   22.8944 C   0  0  0  0  0  0  0  0  0  0  0  0
    7.4166    2.3359   22.1994 C   0  0  0  0  0  0  0  0  0  0  0  0
    7.1661    3.5807   22.7765 C   0  0  0  0  0  0  0  0  0  0  0  0
    6.6179    3.6708   24.0598 C   0  0  0  0  0  0  0  0  0  0  0  0
    6.3431    2.5032   24.7727 C   0  0  0  0  0  0  0  0  0  0  0  0
    5.6605    2.6055   26.3623 Cl  0  0  0  0  0  0  0  0  0  0  0  0
    6.6058    1.2478   24.1998 C   0  0  0  0  0  0  0  0  0  0  0  0
    6.3450    0.1569   24.9122 F   0  0  0  0  0  0  0  0  0  0  0  0
    6.3918    4.6350   24.5093 H   0  0  0  0  0  0  0  0  0  0  0  0
    7.3820    4.4921   22.2235 H   0  0  0  0  0  0  0  0  0  0  0  0
    7.8461    2.3083   21.1988 H   0  0  0  0  0  0  0  0  0  0  0  0
    7.8706   -1.2593   22.9517 N   0  0  0  0  0  0  0  0  0  0  0  0
    9.5914   -3.4334   22.7912 H   0  0  0  0  0  0  0  0  0  0  0  0
    9.2017   -3.5899   21.0494 H   0  0  0  0  0  0  0  0  0  0  0  0
    6.3282   -5.1600   23.2716 H   0  0  0  0  0  0  0  0  0  0  0  0
    7.2244   -3.8413   24.0252 H   0  0  0  0  0  0  0  0  0  0  0  0
    8.2447   -6.7086   23.6826 H   0  0  0  0  0  0  0  0  0  0  0  0
    7.5417   -6.1010   25.2130 H   0  0  0  0  0  0  0  0  0  0  0  0
    9.0777   -5.4563   24.6048 H   0  0  0  0  0  0  0  0  0  0  0  0
  1  2  1  0
  2  3  1  0
  3  4  1  0
  4  5  1  0
  5  6  2  0
  6  7  1  0
  7  8  1  0
  8  9  2  0
  9 10  1  0
 10 11  2  0
 11 12  1  0
 12 13  2  0
 13 14  1  0
 11 15  1  0
 10 16  1  0
  9 17  1  0
  7 18  1  0
 18 19  1  0
 19 20  2  0
 20 21  1  0
 21 22  2  0
 22 23  1  0
 23 24  1  0
 23 25  2  0
 25 26  1  0
 22 27  1  0
 21 28  1  0
 20 29  1  0
 18 30  2  0
  4 31  1  0
  4 32  1  0
  2 33  1  0
  2 34  1  0
  1 35  1  0
  1 36  1  0
  1 37  1  0
 30  5  1  0
 13  8  1  0
 25 19  1  0
M  END
>  <cnnaffinity>  (1) 
-5.70822

>  <filename>  (1) 
CCOCc1nc(-c2cccc(Cl)c2F)n(-c2cccnc2)n1

$$$$
