
     RDKit          3D

 39 41  0  0  0  0  0  0  0  0999 V2000
    7.9127   -6.3861   22.2376 C   0  0  0  0  0  0  0  0  0  0  0  0
    8.1804   -5.5198   23.4621 C   0  0  0  0  0  0  0  0  0  0  0  0
    7.8436   -4.1579   23.2656 O   0  0  0  0  0  0  0  0  0  0  0  0
    8.7509   -3.4667   22.4203 C   0  0  0  0  0  0  0  0  0  0  0  0
    8.2797   -2.0962   22.0485 C   0  0  0  0  0  0  0  0  0  0  0  0
    8.2428   -1.0690   22.8796 N   0  0  0  0  0  0  0  0  0  0  0  0
    7.6699   -0.1032   22.1327 N   0  0  0  0  0  0  0  0  0  0  0  0
    7.4850    1.2083   22.7465 C   0  0  0  0  0  0  0  0  0  0  0  0
    6.4807    1.1489   23.8683 C   0  0  0  0  0  0  0  0  0  0  0  0
    6.8386    0.6257   25.1188 C   0  0  0  0  0  0  0  0  0  0  0  0
    5.8925    0.6160   26.1389 C   0  0  0  0  0  0  0  0  0  0  0  0
    4.6206    1.1226   25.8643 C   0  0  0  0  0  0  0  0  0  0  0  0
    4.3564    1.6091   24.5826 C   0  0  0  0  0  0  0  0  0  0  0  0
    5.2579    1.6165   23.5917 N   0  0  0  0  0  0  0  0  0  0  0  0
    3.3793    2.0180   24.3389 H   0  0  0  0  0  0  0  0  0  0  0  0
    3.8485    1.1525   26.6191 H   0  0  0  0  0  0  0  0  0  0  0  0
    6.1459    0.2198   27.1217 H   0  0  0  0  0  0  0  0  0  0  0  0
    7.8260    0.1970   25.2409 H   0  0  0  0  0  0  0  0  0  0  0  0
    7.1420    1.9232   22.0022 H   0  0  0  0  0  0  0  0  0  0  0  0
    8.4521    1.5562   23.1234 H   0  0  0  0  0  0  0  0  0  0  0  0
    7.3793   -0.5979   20.8970 C   0  0  0  0  0  0  0  0  0  0  0  0
    6.6184    0.1004   19.8714 C   0  0  0  0  0  0  0  0  0  0  0  0
    5.3992    0.7550   20.1103 C   0  0  0  0  0  0  0  0  0  0  0  0
    4.7721    1.3648   19.0266 C   0  0  0  0  0  0  0  0  0  0  0  0
    5.3887    1.3139   17.7707 C   0  0  0  0  0  0  0  0  0  0  0  0
    6.5353    0.6570   17.5300 N   0  0  0  0  0  0  0  0  0  0  0  0
    7.1186    0.0494   18.5652 C   0  0  0  0  0  0  0  0  0  0  0  0
    8.0383   -0.5003   18.3643 H   0  0  0  0  0  0  0  0  0  0  0  0
    4.9504    1.8291   16.9199 H   0  0  0  0  0  0  0  0  0  0  0  0
    3.8305    1.8888   19.1445 H   0  0  0  0  0  0  0  0  0  0  0  0
    4.9519    0.7700   21.1083 H   0  0  0  0  0  0  0  0  0  0  0  0
    7.8165   -1.8362   20.7991 N   0  0  0  0  0  0  0  0  0  0  0  0
    9.7412   -3.4066   22.8974 H   0  0  0  0  0  0  0  0  0  0  0  0
    8.8352   -3.9935   21.4657 H   0  0  0  0  0  0  0  0  0  0  0  0
    7.5575   -5.8461   24.3005 H   0  0  0  0  0  0  0  0  0  0  0  0
    9.2318   -5.6110   23.7761 H   0  0  0  0  0  0  0  0  0  0  0  0
    8.3704   -5.9645   21.3357 H   0  0  0  0  0  0  0  0  0  0  0  0
    8.3280   -7.3862   22.3987 H   0  0  0  0  0  0  0  0  0  0  0  0
    6.8414   -6.4740   22.0436 H   0  0  0  0  0  0  0  0  0  0  0  0
  1  2  1  0
  2  3  1  0
  3  4  1  0
  4  5  1  0
  5  6  2  0
  6  7  1  0
  7  8  1  0
  8  9  1  0
  9 10  2  0
 10 11  1  0
 11 12  2  0
 12 13  1  0
 13 14  2  0
 13 15  1  0
 12 16  1  0
 11 17  1  0
 10 18  1  0
  8 19  1  0
  8 20  1  0
  7 21  1  0
 21 22  1  0
 22 23  2  0
 23 24  1  0
 24 25  2  0
 25 26  1  0
 26 27  2  0
 27 28  1  0
 25 29  1  0
 24 30  1  0
 23 31  1  0
 21 32  2  0
  4 33  1  0
  4 34  1  0
  2 35  1  0
  2 36  1  0
  1 37  1  0
  1 38  1  0
  1 39  1  0
 32  5  1  0
 14  9  1  0
 27 22  1  0
M  END
>  <cnnaffinity>  (1) 
-5.03927

>  <filename>  (1) 
CCOCc1nc(-c2cccnc2)n(Cc2ccccn2)n1

$$$$
