
     RDKit          3D

 40 42  0  0  0  0  0  0  0  0999 V2000
    8.7767   -5.5478   24.8296 C   0  0  0  0  0  0  0  0  0  0  0  0
    8.0001   -5.5466   23.5156 C   0  0  0  0  0  0  0  0  0  0  0  0
    7.5454   -4.2606   23.1368 O   0  0  0  0  0  0  0  0  0  0  0  0
    8.4775   -3.5078   22.3780 C   0  0  0  0  0  0  0  0  0  0  0  0
    7.9507   -2.1476   22.0384 C   0  0  0  0  0  0  0  0  0  0  0  0
    7.6873   -1.2223   22.9424 N   0  0  0  0  0  0  0  0  0  0  0  0
    7.2501   -0.1830   22.1984 N   0  0  0  0  0  0  0  0  0  0  0  0
    7.1091    1.1304   22.8394 C   0  0  0  0  0  0  0  0  0  0  0  0
    8.3998    1.5945   23.4924 C   0  0  0  0  0  0  0  0  0  0  0  0
    8.5566    1.5432   24.8826 C   0  0  0  0  0  0  0  0  0  0  0  0
    9.8071    1.7297   25.4804 C   0  0  0  0  0  0  0  0  0  0  0  0
   10.9185    2.0484   24.6964 C   0  0  0  0  0  0  0  0  0  0  0  0
   10.7814    2.1560   23.3128 C   0  0  0  0  0  0  0  0  0  0  0  0
    9.5261    1.9425   22.7341 C   0  0  0  0  0  0  0  0  0  0  0  0
    9.3649    2.1192   21.0217 Cl  0  0  0  0  0  0  0  0  0  0  0  0
   11.6194    2.3851   22.6613 H   0  0  0  0  0  0  0  0  0  0  0  0
   11.8916    2.2200   25.1530 H   0  0  0  0  0  0  0  0  0  0  0  0
    9.9150    1.5834   26.5450 H   0  0  0  0  0  0  0  0  0  0  0  0
    7.6949    1.3558   25.5204 H   0  0  0  0  0  0  0  0  0  0  0  0
    6.7989    1.8443   22.0782 H   0  0  0  0  0  0  0  0  0  0  0  0
    6.3187    1.0430   23.5877 H   0  0  0  0  0  0  0  0  0  0  0  0
    7.2466   -0.5482   20.8827 C   0  0  0  0  0  0  0  0  0  0  0  0
    6.5914    0.1947   19.8096 C   0  0  0  0  0  0  0  0  0  0  0  0
    5.3633    0.8563   19.9797 C   0  0  0  0  0  0  0  0  0  0  0  0
    4.7688    1.4459   18.8673 C   0  0  0  0  0  0  0  0  0  0  0  0
    5.4275    1.3693   17.6344 C   0  0  0  0  0  0  0  0  0  0  0  0
    6.5979    0.7346   17.4602 N   0  0  0  0  0  0  0  0  0  0  0  0
    7.1497    0.1466   18.5261 C   0  0  0  0  0  0  0  0  0  0  0  0
    8.0788   -0.3969   18.3540 H   0  0  0  0  0  0  0  0  0  0  0  0
    4.9972    1.8261   16.7451 H   0  0  0  0  0  0  0  0  0  0  0  0
    3.8226    1.9694   18.9430 H   0  0  0  0  0  0  0  0  0  0  0  0
    4.8744    0.8780   20.9566 H   0  0  0  0  0  0  0  0  0  0  0  0
    7.7459   -1.7611   20.7520 N   0  0  0  0  0  0  0  0  0  0  0  0
    8.6925   -3.9946   21.4165 H   0  0  0  0  0  0  0  0  0  0  0  0
    9.4359   -3.3871   22.9167 H   0  0  0  0  0  0  0  0  0  0  0  0
    8.6045   -5.9994   22.7114 H   0  0  0  0  0  0  0  0  0  0  0  0
    7.0937   -6.1514   23.6065 H   0  0  0  0  0  0  0  0  0  0  0  0
    8.1477   -5.2348   25.6689 H   0  0  0  0  0  0  0  0  0  0  0  0
    9.6473   -4.8819   24.7871 H   0  0  0  0  0  0  0  0  0  0  0  0
    9.1398   -6.5597   25.0389 H   0  0  0  0  0  0  0  0  0  0  0  0
  1  2  1  0
  2  3  1  0
  3  4  1  0
  4  5  1  0
  5  6  2  0
  6  7  1  0
  7  8  1  0
  8  9  1  0
  9 10  2  0
 10 11  1  0
 11 12  2  0
 12 13  1  0
 13 14  2  0
 14 15  1  0
 13 16  1  0
 12 17  1  0
 11 18  1  0
 10 19  1  0
  8 20  1  0
  8 21  1  0
  7 22  1  0
 22 23  1  0
 23 24  2  0
 24 25  1  0
 25 26  2  0
 26 27  1  0
 27 28  2  0
 28 29  1  0
 26 30  1  0
 25 31  1  0
 24 32  1  0
 22 33  2  0
  4 34  1  0
  4 35  1  0
  2 36  1  0
  2 37  1  0
  1 38  1  0
  1 39  1  0
  1 40  1  0
 33  5  1  0
 14  9  1  0
 28 23  1  0
M  END
>  <cnnaffinity>  (1) 
-5.6367

>  <filename>  (1) 
CCOCc1nc(-c2cccnc2)n(Cc2ccccc2Cl)n1

$$$$
