
     RDKit          3D

 42 44  0  0  0  0  0  0  0  0999 V2000
    7.7531   -6.0586   22.8134 C   0  0  0  0  0  0  0  0  0  0  0  0
    6.7829   -5.3364   23.7384 C   0  0  0  0  0  0  0  0  0  0  0  0
    6.4943   -4.0385   23.2496 O   0  0  0  0  0  0  0  0  0  0  0  0
    7.3727   -2.9925   23.6331 C   0  0  0  0  0  0  0  0  0  0  0  0
    6.7919   -2.2724   24.8622 C   0  0  0  0  0  0  0  0  0  0  0  0
    7.4649   -1.4833   25.2149 H   0  0  0  0  0  0  0  0  0  0  0  0
    6.6349   -2.9906   25.6738 H   0  0  0  0  0  0  0  0  0  0  0  0
    5.8241   -1.8301   24.6031 H   0  0  0  0  0  0  0  0  0  0  0  0
    7.5923   -2.0425   22.4860 C   0  0  0  0  0  0  0  0  0  0  0  0
    6.6496   -1.6073   21.6741 N   0  0  0  0  0  0  0  0  0  0  0  0
    7.3039   -0.6843   20.9283 N   0  0  0  0  0  0  0  0  0  0  0  0
    6.6394    0.0003   19.8797 C   0  0  0  0  0  0  0  0  0  0  0  0
    5.4268    0.6388   20.1449 C   0  0  0  0  0  0  0  0  0  0  0  0
    4.7979    1.3178   19.0972 C   0  0  0  0  0  0  0  0  0  0  0  0
    5.3905    1.3008   17.8267 C   0  0  0  0  0  0  0  0  0  0  0  0
    6.5392    0.6621   17.5611 N   0  0  0  0  0  0  0  0  0  0  0  0
    7.1505    0.0367   18.5711 C   0  0  0  0  0  0  0  0  0  0  0  0
    8.0965   -0.4474   18.3345 H   0  0  0  0  0  0  0  0  0  0  0  0
    4.9284    1.8161   16.9877 H   0  0  0  0  0  0  0  0  0  0  0  0
    3.8670    1.8554   19.2493 H   0  0  0  0  0  0  0  0  0  0  0  0
    5.0120    0.5842   21.1522 H   0  0  0  0  0  0  0  0  0  0  0  0
    8.5897   -0.5839   21.3661 C   0  0  0  0  0  0  0  0  0  0  0  0
    9.6416    0.3134   20.8066 C   0  0  0  0  0  0  0  0  0  0  0  0
   10.3395    1.1456   21.8659 C   0  0  0  0  0  0  0  0  0  0  0  0
   11.6015    0.7936   22.3632 C   0  0  0  0  0  0  0  0  0  0  0  0
   12.2150    1.4062   23.3810 N   0  0  0  0  0  0  0  0  0  0  0  0
   11.5772    2.4255   23.9699 C   0  0  0  0  0  0  0  0  0  0  0  0
   10.3227    2.8805   23.5699 C   0  0  0  0  0  0  0  0  0  0  0  0
    9.7055    2.2227   22.5053 C   0  0  0  0  0  0  0  0  0  0  0  0
    8.1087    2.7149   22.0235 Cl  0  0  0  0  0  0  0  0  0  0  0  0
    9.8323    3.7002   24.0851 H   0  0  0  0  0  0  0  0  0  0  0  0
   12.0991    2.8932   24.8014 H   0  0  0  0  0  0  0  0  0  0  0  0
   12.1371   -0.0483   21.9171 H   0  0  0  0  0  0  0  0  0  0  0  0
   10.3487   -0.3637   20.3186 H   0  0  0  0  0  0  0  0  0  0  0  0
    9.1918    0.9660   20.0578 H   0  0  0  0  0  0  0  0  0  0  0  0
    8.8053   -1.4496   22.3333 N   0  0  0  0  0  0  0  0  0  0  0  0
    8.3836   -3.3692   23.8600 H   0  0  0  0  0  0  0  0  0  0  0  0
    7.1691   -5.2983   24.7705 H   0  0  0  0  0  0  0  0  0  0  0  0
    5.8086   -5.8358   23.7741 H   0  0  0  0  0  0  0  0  0  0  0  0
    7.9679   -7.0718   23.1581 H   0  0  0  0  0  0  0  0  0  0  0  0
    7.3412   -6.1221   21.8029 H   0  0  0  0  0  0  0  0  0  0  0  0
    8.7079   -5.5253   22.7591 H   0  0  0  0  0  0  0  0  0  0  0  0
  1  2  1  0
  2  3  1  0
  3  4  1  0
  4  5  1  0
  5  6  1  0
  5  7  1  0
  5  8  1  0
  4  9  1  0
  9 10  2  0
 10 11  1  0
 11 12  1  0
 12 13  2  0
 13 14  1  0
 14 15  2  0
 15 16  1  0
 16 17  2  0
 17 18  1  0
 15 19  1  0
 14 20  1  0
 13 21  1  0
 11 22  1  0
 22 23  1  0
 23 24  1  0
 24 25  2  0
 25 26  1  0
 26 27  2  0
 27 28  1  0
 28 29  2  0
 29 30  1  0
 28 31  1  0
 27 32  1  0
 25 33  1  0
 23 34  1  0
 23 35  1  0
 22 36  2  0
  4 37  1  0
  2 38  1  0
  2 39  1  0
  1 40  1  0
  1 41  1  0
  1 42  1  0
 36  9  1  0
 17 12  1  0
 29 24  1  0
M  END
>  <cnnaffinity>  (1) 
-6.05399

>  <filename>  (1) 
CCOC(C)c1nc(Cc2cnccc2Cl)n(-c2cccnc2)n1

$$$$
