
     RDKit          3D

 49 52  0  0  0  0  0  0  0  0999 V2000
   14.1377    0.2334   22.4162 C   0  0  0  0  0  0  0  0  0  0  0  0
   13.0352    1.2880   22.3986 C   0  0  0  0  0  0  0  0  0  0  0  0
   11.7472    0.8455   23.5577 S   0  0  0  0  0  0  0  0  0  0  0  0
   11.3704   -0.5294   23.2633 O   0  0  0  0  0  0  0  0  0  0  0  0
   12.2134    1.2021   24.8947 O   0  0  0  0  0  0  0  0  0  0  0  0
   10.4184    1.9426   23.1021 C   0  0  0  0  0  0  0  0  0  0  0  0
   10.2593    3.0743   23.9186 C   0  0  0  0  0  0  0  0  0  0  0  0
    9.1824    3.9273   23.7229 C   0  0  0  0  0  0  0  0  0  0  0  0
    8.2891    3.6886   22.6763 C   0  0  0  0  0  0  0  0  0  0  0  0
    8.4883    2.5916   21.8375 C   0  0  0  0  0  0  0  0  0  0  0  0
    9.5482    1.6891   22.0255 C   0  0  0  0  0  0  0  0  0  0  0  0
    9.5931    0.5017   21.0720 C   0  0  0  0  0  0  0  0  0  0  0  0
    8.5659   -0.5266   21.4279 C   0  0  0  0  0  0  0  0  0  0  0  0
    8.7481   -1.3663   22.4185 N   0  0  0  0  0  0  0  0  0  0  0  0
    7.5857   -2.0571   22.4947 C   0  0  0  0  0  0  0  0  0  0  0  0
    7.3831   -3.0852   23.5598 C   0  0  0  0  0  0  0  0  0  0  0  0
    8.5364   -4.1312   23.7354 C   0  0  0  0  0  0  0  0  0  0  0  0
    8.8113   -3.6053   25.1640 C   0  0  0  0  0  0  0  0  0  0  0  0
    7.6550   -2.5882   25.0228 C   0  0  0  0  0  0  0  0  0  0  0  0
    7.9751   -1.5397   25.0835 H   0  0  0  0  0  0  0  0  0  0  0  0
    6.8185   -2.7373   25.7118 H   0  0  0  0  0  0  0  0  0  0  0  0
    8.6955   -4.3395   25.9700 H   0  0  0  0  0  0  0  0  0  0  0  0
    9.7968   -3.1365   25.2741 H   0  0  0  0  0  0  0  0  0  0  0  0
    8.2095   -5.1735   23.6819 H   0  0  0  0  0  0  0  0  0  0  0  0
    9.3750   -3.9925   23.0426 H   0  0  0  0  0  0  0  0  0  0  0  0
    6.3895   -3.5240   23.4105 H   0  0  0  0  0  0  0  0  0  0  0  0
    6.6862   -1.7062   21.5994 N   0  0  0  0  0  0  0  0  0  0  0  0
    7.3178   -0.7254   20.8890 N   0  0  0  0  0  0  0  0  0  0  0  0
    6.6218   -0.0508   19.8393 C   0  0  0  0  0  0  0  0  0  0  0  0
    5.4205    0.6186   20.1067 C   0  0  0  0  0  0  0  0  0  0  0  0
    4.8103    1.3241   19.0633 C   0  0  0  0  0  0  0  0  0  0  0  0
    5.4064    1.3170   17.7970 C   0  0  0  0  0  0  0  0  0  0  0  0
    6.5275    0.6353   17.5180 N   0  0  0  0  0  0  0  0  0  0  0  0
    7.1103   -0.0393   18.5202 C   0  0  0  0  0  0  0  0  0  0  0  0
    8.0046   -0.6013   18.2574 H   0  0  0  0  0  0  0  0  0  0  0  0
    4.9615    1.8727   16.9740 H   0  0  0  0  0  0  0  0  0  0  0  0
    3.8903    1.8795   19.2209 H   0  0  0  0  0  0  0  0  0  0  0  0
    4.9827    0.5787   21.1054 H   0  0  0  0  0  0  0  0  0  0  0  0
   10.5582   -0.0087   21.0834 H   0  0  0  0  0  0  0  0  0  0  0  0
    9.4087    0.8395   20.0508 H   0  0  0  0  0  0  0  0  0  0  0  0
    7.7974    2.4123   21.0181 H   0  0  0  0  0  0  0  0  0  0  0  0
    7.4288    4.3351   22.5322 H   0  0  0  0  0  0  0  0  0  0  0  0
    9.0425    4.7715   24.3919 H   0  0  0  0  0  0  0  0  0  0  0  0
   10.9830    3.2832   24.7014 H   0  0  0  0  0  0  0  0  0  0  0  0
   13.3615    2.2896   22.6899 H   0  0  0  0  0  0  0  0  0  0  0  0
   12.5044    1.3487   21.4440 H   0  0  0  0  0  0  0  0  0  0  0  0
   14.6100    0.1690   23.3986 H   0  0  0  0  0  0  0  0  0  0  0  0
   14.9145    0.4549   21.6867 H   0  0  0  0  0  0  0  0  0  0  0  0
   13.7140   -0.7520   22.2027 H   0  0  0  0  0  0  0  0  0  0  0  0
  1  2  1  0
  2  3  1  0
  3  4  2  0
  3  5  2  0
  3  6  1  0
  6  7  2  0
  7  8  1  0
  8  9  2  0
  9 10  1  0
 10 11  2  0
 11 12  1  0
 12 13  1  0
 13 14  2  0
 14 15  1  0
 15 16  1  0
 16 17  1  0
 17 18  1  0
 18 19  1  0
 19 20  1  0
 19 21  1  0
 18 22  1  0
 18 23  1  0
 17 24  1  0
 17 25  1  0
 16 26  1  0
 15 27  2  0
 27 28  1  0
 28 29  1  0
 29 30  2  0
 30 31  1  0
 31 32  2  0
 32 33  1  0
 33 34  2  0
 34 35  1  0
 32 36  1  0
 31 37  1  0
 30 38  1  0
 12 39  1  0
 12 40  1  0
 10 41  1  0
  9 42  1  0
  8 43  1  0
  7 44  1  0
  2 45  1  0
  2 46  1  0
  1 47  1  0
  1 48  1  0
  1 49  1  0
 11  6  1  0
 28 13  1  0
 34 29  1  0
 19 16  1  0
M  END
>  <cnnaffinity>  (1) 
-6.72465

>  <filename>  (1) 
CCS(=O)(=O)c1ccccc1Cc1nc(C2CCC2)nn1-c1cccnc1

$$$$
