
     RDKit          3D

 30 31  0  0  0  0  0  0  0  0999 V2000
    4.9224    1.8092   16.9795 H   0  0  0  0  0  0  0  0  0  0  0  0
    5.4061    1.3177   17.8169 C   0  0  0  0  0  0  0  0  0  0  0  0
    6.5707    0.7059   17.5429 N   0  0  0  0  0  0  0  0  0  0  0  0
    7.1904    0.0826   18.5512 C   0  0  0  0  0  0  0  0  0  0  0  0
    8.1340   -0.4121   18.3204 H   0  0  0  0  0  0  0  0  0  0  0  0
    6.6741    0.0187   19.8618 C   0  0  0  0  0  0  0  0  0  0  0  0
    7.3719   -0.6819   20.9175 N   0  0  0  0  0  0  0  0  0  0  0  0
    8.6487   -0.2811   21.2345 C   0  0  0  0  0  0  0  0  0  0  0  0
    8.9993    0.5993   20.6938 H   0  0  0  0  0  0  0  0  0  0  0  0
    9.3563   -0.9241   22.2019 C   0  0  0  0  0  0  0  0  0  0  0  0
   10.9255   -0.2597   22.6860 S   0  0  0  0  0  0  0  0  0  0  0  0
   11.1316   -0.6035   24.0847 O   0  0  0  0  0  0  0  0  0  0  0  0
   10.9564    1.1277   22.2333 O   0  0  0  0  0  0  0  0  0  0  0  0
   12.0995   -1.1425   21.6589 C   0  0  0  0  0  0  0  0  0  0  0  0
   11.7766   -0.8468   20.6575 H   0  0  0  0  0  0  0  0  0  0  0  0
   11.8961   -2.2050   21.8200 H   0  0  0  0  0  0  0  0  0  0  0  0
   13.5655   -0.7579   21.9156 C   0  0  0  0  0  0  0  0  0  0  0  0
   13.7235    0.3228   21.8205 H   0  0  0  0  0  0  0  0  0  0  0  0
   13.9174   -1.0573   22.9054 H   0  0  0  0  0  0  0  0  0  0  0  0
   14.2093   -1.2481   21.1789 H   0  0  0  0  0  0  0  0  0  0  0  0
    8.7884   -1.9967   22.9486 C   0  0  0  0  0  0  0  0  0  0  0  0
    9.3392   -2.4565   23.7699 H   0  0  0  0  0  0  0  0  0  0  0  0
    7.5261   -2.3962   22.6465 C   0  0  0  0  0  0  0  0  0  0  0  0
    7.0164   -3.1928   23.1605 H   0  0  0  0  0  0  0  0  0  0  0  0
    6.7289   -1.7791   21.6013 C   0  0  0  0  0  0  0  0  0  0  0  0
    5.6173   -2.1727   21.2933 O   0  0  0  0  0  0  0  0  0  0  0  0
    5.4582    0.6586   20.1290 C   0  0  0  0  0  0  0  0  0  0  0  0
    5.0411    0.6080   21.1352 H   0  0  0  0  0  0  0  0  0  0  0  0
    4.8127    1.3290   19.0855 C   0  0  0  0  0  0  0  0  0  0  0  0
    3.8654    1.8443   19.2380 H   0  0  0  0  0  0  0  0  0  0  0  0
  1  2  1  0
  2  3  2  0
  3  4  1  0
  4  5  1  0
  4  6  2  0
  6  7  1  0
  7  8  1  0
  8  9  1  0
  8 10  2  0
 10 11  1  0
 11 12  2  0
 11 13  2  0
 11 14  1  0
 14 15  1  0
 14 16  1  0
 14 17  1  0
 17 18  1  0
 17 19  1  0
 17 20  1  0
 10 21  1  0
 21 22  1  0
 21 23  2  0
 23 24  1  0
 23 25  1  0
 25 26  2  0
  6 27  1  0
 27 28  1  0
 27 29  2  0
 29 30  1  0
 29  2  1  0
 25  7  1  0
M  END
>  <cnnaffinity>  (1) 
-5.07049

>  <filename>  (1) 
CCS(=O)(=O)c1ccc(=O)n(-c2cccnc2)c1

$$$$
