
     RDKit          3D

 31 32  0  0  0  0  0  0  0  0999 V2000
    4.9299    1.7749   17.0114 H   0  0  0  0  0  0  0  0  0  0  0  0
    5.4122    1.2801   17.8545 C   0  0  0  0  0  0  0  0  0  0  0  0
    6.5755    0.6625   17.6002 N   0  0  0  0  0  0  0  0  0  0  0  0
    7.1901    0.0432   18.6188 C   0  0  0  0  0  0  0  0  0  0  0  0
    8.1363   -0.4325   18.3679 H   0  0  0  0  0  0  0  0  0  0  0  0
    6.6967   -0.0256   19.9586 C   0  0  0  0  0  0  0  0  0  0  0  0
    7.3756   -0.6771   20.9692 N   0  0  0  0  0  0  0  0  0  0  0  0
    8.6339   -1.4125   20.9857 C   0  0  0  0  0  0  0  0  0  0  0  0
    8.6478   -2.3173   20.3763 H   0  0  0  0  0  0  0  0  0  0  0  0
    9.5299   -0.8129   20.7577 H   0  0  0  0  0  0  0  0  0  0  0  0
    8.3715   -1.7075   22.4884 C   0  0  0  0  0  0  0  0  0  0  0  0
    9.1053   -1.2488   23.1525 H   0  0  0  0  0  0  0  0  0  0  0  0
    8.2381   -3.1684   22.8370 C   0  0  0  0  0  0  0  0  0  0  0  0
    8.7050   -4.0578   22.1751 O   0  0  0  0  0  0  0  0  0  0  0  0
    7.2858   -3.5724   24.4574 S   0  0  0  0  0  0  0  0  0  0  0  0
    7.1923   -2.3777   25.2936 O   0  0  0  0  0  0  0  0  0  0  0  0
    6.0832   -4.3275   24.1090 O   0  0  0  0  0  0  0  0  0  0  0  0
    8.3516   -4.7255   25.3523 C   0  0  0  0  0  0  0  0  0  0  0  0
    8.4343   -5.6079   24.7158 H   0  0  0  0  0  0  0  0  0  0  0  0
    7.7374   -4.9981   26.2170 H   0  0  0  0  0  0  0  0  0  0  0  0
    9.7022   -4.1286   25.7459 C   0  0  0  0  0  0  0  0  0  0  0  0
   10.2874   -4.8473   26.3312 H   0  0  0  0  0  0  0  0  0  0  0  0
   10.2996   -3.8614   24.8652 H   0  0  0  0  0  0  0  0  0  0  0  0
    9.5594   -3.2274   26.3508 H   0  0  0  0  0  0  0  0  0  0  0  0
    7.0538   -0.8848   22.3719 C   0  0  0  0  0  0  0  0  0  0  0  0
    7.0228    0.0341   22.9811 H   0  0  0  0  0  0  0  0  0  0  0  0
    6.1442   -1.4713   22.5617 H   0  0  0  0  0  0  0  0  0  0  0  0
    5.4635    0.6282   20.1898 C   0  0  0  0  0  0  0  0  0  0  0  0
    5.0184    0.6227   21.1850 H   0  0  0  0  0  0  0  0  0  0  0  0
    4.8341    1.2866   19.1271 C   0  0  0  0  0  0  0  0  0  0  0  0
    3.9043    1.8184   19.2739 H   0  0  0  0  0  0  0  0  0  0  0  0
  1  2  1  0
  2  3  2  0
  3  4  1  0
  4  5  1  0
  4  6  2  0
  6  7  1  0
  7  8  1  0
  8  9  1  0
  8 10  1  0
  8 11  1  0
 11 12  1  0
 11 13  1  0
 13 14  2  0
 13 15  1  0
 15 16  2  0
 15 17  2  0
 15 18  1  0
 18 19  1  0
 18 20  1  0
 18 21  1  0
 21 22  1  0
 21 23  1  0
 21 24  1  0
 11 25  1  0
 25 26  1  0
 25 27  1  0
  6 28  1  0
 28 29  1  0
 28 30  2  0
 30 31  1  0
 30  2  1  0
 25  7  1  0
M  END
>  <cnnaffinity>  (1) 
-4.69285

>  <filename>  (1) 
CCS(=O)(=O)C(=O)C1CN(c2cccnc2)C1

$$$$
