
     RDKit          3D

 48 50  0  0  0  0  0  0  0  0999 V2000
    9.0817    3.7051   25.0426 C   0  0  0  0  0  0  0  0  0  0  0  0
   10.2097    3.1353   24.1714 C   0  0  0  0  0  0  0  0  0  0  0  0
    9.8510    1.5358   23.4701 S   0  0  0  0  0  0  0  0  0  0  0  0
   11.0901    0.7834   23.4671 O   0  0  0  0  0  0  0  0  0  0  0  0
    8.6537    1.0255   24.1172 O   0  0  0  0  0  0  0  0  0  0  0  0
    9.4675    1.8131   21.8346 N   0  0  0  0  0  0  0  0  0  0  0  0
    8.1632    2.4741   21.6557 C   0  0  0  0  0  0  0  0  0  0  0  0
    7.3418    1.9320   22.1426 H   0  0  0  0  0  0  0  0  0  0  0  0
    8.1877    3.5102   22.0117 H   0  0  0  0  0  0  0  0  0  0  0  0
    7.9686    2.4867   20.5820 H   0  0  0  0  0  0  0  0  0  0  0  0
    9.5802    0.5512   21.0290 C   0  0  0  0  0  0  0  0  0  0  0  0
    8.6448   -0.5846   21.3710 C   0  0  0  0  0  0  0  0  0  0  0  0
    8.8772   -1.5073   22.2816 N   0  0  0  0  0  0  0  0  0  0  0  0
    7.6713   -2.0977   22.4476 C   0  0  0  0  0  0  0  0  0  0  0  0
    7.4420   -3.1318   23.5050 C   0  0  0  0  0  0  0  0  0  0  0  0
    6.9711   -4.4619   22.8668 C   0  0  0  0  0  0  0  0  0  0  0  0
    6.4878   -5.4551   23.8921 C   0  0  0  0  0  0  0  0  0  0  0  0
    6.1440   -5.1204   25.1368 C   0  0  0  0  0  0  0  0  0  0  0  0
    6.2718   -3.7154   25.6892 C   0  0  0  0  0  0  0  0  0  0  0  0
    6.4307   -2.6569   24.5822 C   0  0  0  0  0  0  0  0  0  0  0  0
    5.4666   -2.4708   24.0895 H   0  0  0  0  0  0  0  0  0  0  0  0
    6.7540   -1.6999   25.0167 H   0  0  0  0  0  0  0  0  0  0  0  0
    5.4029   -3.4788   26.3163 H   0  0  0  0  0  0  0  0  0  0  0  0
    7.1381   -3.6804   26.3692 H   0  0  0  0  0  0  0  0  0  0  0  0
    5.7708   -5.8854   25.8207 H   0  0  0  0  0  0  0  0  0  0  0  0
    6.3972   -6.4861   23.5511 H   0  0  0  0  0  0  0  0  0  0  0  0
    6.1584   -4.2445   22.1563 H   0  0  0  0  0  0  0  0  0  0  0  0
    7.7809   -4.8983   22.2678 H   0  0  0  0  0  0  0  0  0  0  0  0
    8.4188   -3.2757   23.9867 H   0  0  0  0  0  0  0  0  0  0  0  0
    6.7228   -1.6522   21.6383 N   0  0  0  0  0  0  0  0  0  0  0  0
    7.3616   -0.6983   20.9179 N   0  0  0  0  0  0  0  0  0  0  0  0
    6.6638    0.0023   19.8978 C   0  0  0  0  0  0  0  0  0  0  0  0
    5.4471    0.6400   20.1645 C   0  0  0  0  0  0  0  0  0  0  0  0
    4.8133    1.3094   19.1112 C   0  0  0  0  0  0  0  0  0  0  0  0
    5.3984    1.2963   17.8407 C   0  0  0  0  0  0  0  0  0  0  0  0
    6.5565    0.6736   17.5768 N   0  0  0  0  0  0  0  0  0  0  0  0
    7.1712    0.0508   18.5892 C   0  0  0  0  0  0  0  0  0  0  0  0
    8.1142   -0.4425   18.3533 H   0  0  0  0  0  0  0  0  0  0  0  0
    4.9243    1.7948   16.9979 H   0  0  0  0  0  0  0  0  0  0  0  0
    3.8795    1.8389   19.2588 H   0  0  0  0  0  0  0  0  0  0  0  0
    5.0198    0.6048   21.1681 H   0  0  0  0  0  0  0  0  0  0  0  0
   10.6027    0.1736   21.1104 H   0  0  0  0  0  0  0  0  0  0  0  0
    9.4170    0.8385   19.9884 H   0  0  0  0  0  0  0  0  0  0  0  0
   11.1182    2.9065   24.7395 H   0  0  0  0  0  0  0  0  0  0  0  0
   10.4944    3.7483   23.3112 H   0  0  0  0  0  0  0  0  0  0  0  0
    8.1540    3.8244   24.4704 H   0  0  0  0  0  0  0  0  0  0  0  0
    8.8572    3.0320   25.8779 H   0  0  0  0  0  0  0  0  0  0  0  0
    9.3651    4.6802   25.4491 H   0  0  0  0  0  0  0  0  0  0  0  0
  1  2  1  0
  2  3  1  0
  3  4  2  0
  3  5  2  0
  3  6  1  0
  6  7  1  0
  7  8  1  0
  7  9  1  0
  7 10  1  0
  6 11  1  0
 11 12  1  0
 12 13  2  0
 13 14  1  0
 14 15  1  0
 15 16  1  0
 16 17  1  0
 17 18  2  0
 18 19  1  0
 19 20  1  0
 20 21  1  0
 20 22  1  0
 19 23  1  0
 19 24  1  0
 18 25  1  0
 17 26  1  0
 16 27  1  0
 16 28  1  0
 15 29  1  0
 14 30  2  0
 30 31  1  0
 31 32  1  0
 32 33  2  0
 33 34  1  0
 34 35  2  0
 35 36  1  0
 36 37  2  0
 37 38  1  0
 35 39  1  0
 34 40  1  0
 33 41  1  0
 11 42  1  0
 11 43  1  0
  2 44  1  0
  2 45  1  0
  1 46  1  0
  1 47  1  0
  1 48  1  0
 31 12  1  0
 37 32  1  0
 20 15  1  0
M  END
>  <cnnaffinity>  (1) 
-6.39288

>  <filename>  (1) 
CCS(=O)(=O)N(C)Cc1nc(C2CC=CCC2)nn1-c1cccnc1

$$$$
