
     RDKit          3D

 29 30  0  0  0  0  0  0  0  0999 V2000
    4.9299    1.7745   17.0119 H   0  0  0  0  0  0  0  0  0  0  0  0
    5.4129    1.2795   17.8564 C   0  0  0  0  0  0  0  0  0  0  0  0
    6.5772    0.6620   17.6037 N   0  0  0  0  0  0  0  0  0  0  0  0
    7.1921    0.0416   18.6225 C   0  0  0  0  0  0  0  0  0  0  0  0
    8.1369   -0.4321   18.3675 H   0  0  0  0  0  0  0  0  0  0  0  0
    6.6996   -0.0315   19.9634 C   0  0  0  0  0  0  0  0  0  0  0  0
    7.3697   -0.7010   20.9704 N   0  0  0  0  0  0  0  0  0  0  0  0
    7.0618   -0.8966   22.3809 C   0  0  0  0  0  0  0  0  0  0  0  0
    7.0390    0.0339   22.9714 H   0  0  0  0  0  0  0  0  0  0  0  0
    6.1469   -1.4755   22.5690 H   0  0  0  0  0  0  0  0  0  0  0  0
    8.3901   -1.7114   22.4960 C   0  0  0  0  0  0  0  0  0  0  0  0
    9.1248   -1.2715   23.1595 H   0  0  0  0  0  0  0  0  0  0  0  0
    8.1864   -3.1744   22.7970 C   0  0  0  0  0  0  0  0  0  0  0  0
    7.4312   -3.8552   22.1509 O   0  0  0  0  0  0  0  0  0  0  0  0
    9.0882   -3.8246   24.2467 S   0  0  0  0  0  0  0  0  0  0  0  0
    7.8298   -3.4338   25.5238 C   0  0  0  0  0  0  0  0  0  0  0  0
    8.3483   -3.4737   26.4893 H   0  0  0  0  0  0  0  0  0  0  0  0
    7.5296   -2.3926   25.3648 H   0  0  0  0  0  0  0  0  0  0  0  0
    6.6197   -4.3627   25.4978 C   0  0  0  0  0  0  0  0  0  0  0  0
    6.9284   -5.4035   25.6390 H   0  0  0  0  0  0  0  0  0  0  0  0
    5.9170   -4.0990   26.2982 H   0  0  0  0  0  0  0  0  0  0  0  0
    6.0983   -4.3010   24.5366 H   0  0  0  0  0  0  0  0  0  0  0  0
    8.6360   -1.4186   20.9886 C   0  0  0  0  0  0  0  0  0  0  0  0
    9.5231   -0.8058   20.7670 H   0  0  0  0  0  0  0  0  0  0  0  0
    8.6570   -2.3156   20.3683 H   0  0  0  0  0  0  0  0  0  0  0  0
    5.4668    0.6268   20.1925 C   0  0  0  0  0  0  0  0  0  0  0  0
    5.0197    0.6225   21.1867 H   0  0  0  0  0  0  0  0  0  0  0  0
    4.8356    1.2860   19.1297 C   0  0  0  0  0  0  0  0  0  0  0  0
    3.9052    1.8178   19.2746 H   0  0  0  0  0  0  0  0  0  0  0  0
  1  2  1  0
  2  3  2  0
  3  4  1  0
  4  5  1  0
  4  6  2  0
  6  7  1  0
  7  8  1  0
  8  9  1  0
  8 10  1  0
  8 11  1  0
 11 12  1  0
 11 13  1  0
 13 14  2  0
 13 15  1  0
 15 16  1  0
 16 17  1  0
 16 18  1  0
 16 19  1  0
 19 20  1  0
 19 21  1  0
 19 22  1  0
 11 23  1  0
 23 24  1  0
 23 25  1  0
  6 26  1  0
 26 27  1  0
 26 28  2  0
 28 29  1  0
 28  2  1  0
 23  7  1  0
M  END
>  <cnnaffinity>  (1) 
-4.6064

>  <filename>  (1) 
CCSC(=O)C1CN(c2cccnc2)C1

$$$$
