
     RDKit          3D

 29 31  0  0  0  0  0  0  0  0999 V2000
    4.9646    1.8269   16.9529 H   0  0  0  0  0  0  0  0  0  0  0  0
    5.4123    1.2987   17.7909 C   0  0  0  0  0  0  0  0  0  0  0  0
    6.5654    0.6617   17.5421 N   0  0  0  0  0  0  0  0  0  0  0  0
    7.1484    0.0094   18.5528 C   0  0  0  0  0  0  0  0  0  0  0  0
    8.1023   -0.4605   18.3192 H   0  0  0  0  0  0  0  0  0  0  0  0
    6.6153   -0.0533   19.8552 C   0  0  0  0  0  0  0  0  0  0  0  0
    7.3735   -0.6902   20.9512 C   0  0  0  0  0  0  0  0  0  0  0  0
    8.4910   -1.3954   20.7120 N   0  0  0  0  0  0  0  0  0  0  0  0
    8.9260   -1.6836   21.9570 N   0  0  0  0  0  0  0  0  0  0  0  0
   10.0986   -2.2189   22.4519 C   0  0  0  0  0  0  0  0  0  0  0  0
   10.8293   -2.6211   21.7752 H   0  0  0  0  0  0  0  0  0  0  0  0
   10.0494   -2.0433   23.7933 C   0  0  0  0  0  0  0  0  0  0  0  0
   10.7512   -2.2745   24.5764 H   0  0  0  0  0  0  0  0  0  0  0  0
    8.8389   -1.4243   24.1292 N   0  0  0  0  0  0  0  0  0  0  0  0
    8.3854   -0.8777   25.6792 S   0  0  0  0  0  0  0  0  0  0  0  0
    7.3694   -2.2516   26.2821 C   0  0  0  0  0  0  0  0  0  0  0  0
    7.2511   -2.0203   27.3492 H   0  0  0  0  0  0  0  0  0  0  0  0
    7.9607   -3.1656   26.2089 H   0  0  0  0  0  0  0  0  0  0  0  0
    6.0128   -2.4337   25.6114 C   0  0  0  0  0  0  0  0  0  0  0  0
    5.5083   -3.3001   26.0489 H   0  0  0  0  0  0  0  0  0  0  0  0
    6.1089   -2.6284   24.5389 H   0  0  0  0  0  0  0  0  0  0  0  0
    5.3587   -1.5688   25.7463 H   0  0  0  0  0  0  0  0  0  0  0  0
    8.1495   -1.1918   22.9513 C   0  0  0  0  0  0  0  0  0  0  0  0
    7.0824   -0.5546   22.3339 C   0  0  0  0  0  0  0  0  0  0  0  0
    6.2525   -0.0491   22.7886 H   0  0  0  0  0  0  0  0  0  0  0  0
    5.4029    0.6219   20.0891 C   0  0  0  0  0  0  0  0  0  0  0  0
    4.9558    0.6473   21.0846 H   0  0  0  0  0  0  0  0  0  0  0  0
    4.7913    1.3044   19.0434 C   0  0  0  0  0  0  0  0  0  0  0  0
    3.8688    1.8558   19.1913 H   0  0  0  0  0  0  0  0  0  0  0  0
  1  2  1  0
  2  3  2  0
  3  4  1  0
  4  5  1  0
  4  6  2  0
  6  7  1  0
  7  8  2  0
  8  9  1  0
  9 10  1  0
 10 11  1  0
 10 12  2  0
 12 13  1  0
 12 14  1  0
 14 15  1  0
 15 16  1  0
 16 17  1  0
 16 18  1  0
 16 19  1  0
 19 20  1  0
 19 21  1  0
 19 22  1  0
 14 23  1  0
 23 24  2  0
 24 25  1  0
  6 26  1  0
 26 27  1  0
 26 28  2  0
 28 29  1  0
 28  2  1  0
 24  7  1  0
 23  9  1  0
M  END
>  <cnnaffinity>  (1) 
-5.03566

>  <filename>  (1) 
CCSn1ccn2nc(-c3cccnc3)cc12

$$$$
