
     RDKit          3D

 30 32  0  0  0  0  0  0  0  0999 V2000
    4.9620    1.7492   16.8807 H   0  0  0  0  0  0  0  0  0  0  0  0
    5.3816    1.3148   17.7850 C   0  0  0  0  0  0  0  0  0  0  0  0
    6.5672    0.7045   17.6430 N   0  0  0  0  0  0  0  0  0  0  0  0
    7.1239    0.1757   18.7375 C   0  0  0  0  0  0  0  0  0  0  0  0
    8.0830   -0.3198   18.5887 H   0  0  0  0  0  0  0  0  0  0  0  0
    6.5519    0.2313   20.0201 C   0  0  0  0  0  0  0  0  0  0  0  0
    7.2614   -0.3975   21.1946 C   0  0  2  0  0  0  0  0  0  0  0  0
    6.7647   -0.1485   22.1373 H   0  0  0  0  0  0  0  0  0  0  0  0
    8.9238    0.2987   21.3229 Cl  0  0  0  0  0  0  0  0  0  0  0  0
    7.3389   -1.9257   21.0273 C   0  0  0  0  0  0  0  0  0  0  0  0
    8.0167   -2.0846   20.1868 H   0  0  0  0  0  0  0  0  0  0  0  0
    6.3512   -2.2750   20.7122 H   0  0  0  0  0  0  0  0  0  0  0  0
    7.8358   -2.6960   22.2160 C   0  0  0  0  0  0  0  0  0  0  0  0
    6.7563   -3.4045   23.4078 S   0  0  0  0  0  0  0  0  0  0  0  0
    8.0947   -4.1093   24.2794 C   0  0  0  0  0  0  0  0  0  0  0  0
    8.0688   -4.8908   25.4511 C   0  0  0  0  0  0  0  0  0  0  0  0
    7.1324   -5.1778   25.9255 H   0  0  0  0  0  0  0  0  0  0  0  0
    9.2869   -5.2896   25.9981 C   0  0  0  0  0  0  0  0  0  0  0  0
    9.3057   -5.8988   26.8955 H   0  0  0  0  0  0  0  0  0  0  0  0
   10.5114   -4.9240   25.3961 C   0  0  0  0  0  0  0  0  0  0  0  0
   11.4594   -5.2155   25.8329 H   0  0  0  0  0  0  0  0  0  0  0  0
   10.5276   -4.1688   24.2411 C   0  0  0  0  0  0  0  0  0  0  0  0
   11.4508   -3.8989   23.7367 H   0  0  0  0  0  0  0  0  0  0  0  0
    9.3146   -3.7511   23.6736 C   0  0  0  0  0  0  0  0  0  0  0  0
    9.1312   -2.9486   22.4995 C   0  0  0  0  0  0  0  0  0  0  0  0
    9.9771   -2.6032   21.9098 H   0  0  0  0  0  0  0  0  0  0  0  0
    5.2978    0.8435   20.1408 C   0  0  0  0  0  0  0  0  0  0  0  0
    4.8001    0.8907   21.1110 H   0  0  0  0  0  0  0  0  0  0  0  0
    4.7013    1.3981   19.0043 C   0  0  0  0  0  0  0  0  0  0  0  0
    3.7413    1.9023   19.0459 H   0  0  0  0  0  0  0  0  0  0  0  0
  1  2  1  0
  2  3  2  0
  3  4  1  0
  4  5  1  0
  4  6  2  0
  6  7  1  0
  7  8  1  1
  7  9  1  0
  7 10  1  0
 10 11  1  0
 10 12  1  0
 10 13  1  0
 13 14  1  0
 14 15  1  0
 15 16  2  0
 16 17  1  0
 16 18  1  0
 18 19  1  0
 18 20  2  0
 20 21  1  0
 20 22  1  0
 22 23  1  0
 22 24  2  0
 24 25  1  0
 25 26  1  0
  6 27  1  0
 27 28  1  0
 27 29  2  0
 29 30  1  0
 29  2  1  0
 25 13  2  0
 24 15  1  0
M  END
>  <cnnaffinity>  (1) 
-5.09221

>  <filename>  (1) 
Cl[C@H](Cc1cc2ccccc2s1)c1cccnc1

$$$$
