
     RDKit          3D

 26 28  0  0  0  0  0  0  0  0999 V2000
    4.9260    1.7963   16.9887 H   0  0  0  0  0  0  0  0  0  0  0  0
    5.3981    1.2984   17.8334 C   0  0  0  0  0  0  0  0  0  0  0  0
    6.5593    0.6826   17.5656 N   0  0  0  0  0  0  0  0  0  0  0  0
    7.1679    0.0636   18.5798 C   0  0  0  0  0  0  0  0  0  0  0  0
    8.1202   -0.4030   18.3452 H   0  0  0  0  0  0  0  0  0  0  0  0
    6.6655   -0.0040   19.9044 C   0  0  0  0  0  0  0  0  0  0  0  0
    7.3904   -0.7136   20.9808 C   0  0  0  0  0  0  0  0  0  0  0  0
    8.2299   -2.1871   20.8160 S   0  0  0  0  0  0  0  0  0  0  0  0
    8.6149   -2.2967   22.4464 N   0  0  0  0  0  0  0  0  0  0  0  0
    8.1673   -1.2950   23.0901 N   0  0  0  0  0  0  0  0  0  0  0  0
    7.5073   -0.3733   22.3261 C   0  0  0  0  0  0  0  0  0  0  0  0
    7.0159    0.8522   22.9748 C   0  0  0  0  0  0  0  0  0  0  0  0
    6.1006    0.7381   24.0304 C   0  0  0  0  0  0  0  0  0  0  0  0
    5.8250   -0.2624   24.3569 H   0  0  0  0  0  0  0  0  0  0  0  0
    5.5607    1.8738   24.6328 C   0  0  0  0  0  0  0  0  0  0  0  0
    4.8619    1.7608   25.4559 H   0  0  0  0  0  0  0  0  0  0  0  0
    5.9453    3.1469   24.1893 C   0  0  0  0  0  0  0  0  0  0  0  0
    5.5415    4.0369   24.6606 H   0  0  0  0  0  0  0  0  0  0  0  0
    6.8636    3.2810   23.1478 C   0  0  0  0  0  0  0  0  0  0  0  0
    7.1803    4.2550   22.7794 H   0  0  0  0  0  0  0  0  0  0  0  0
    7.3989    2.1374   22.5528 C   0  0  0  0  0  0  0  0  0  0  0  0
    8.5449    2.3585   21.2659 Cl  0  0  0  0  0  0  0  0  0  0  0  0
    5.4462    0.6475   20.1585 C   0  0  0  0  0  0  0  0  0  0  0  0
    5.0259    0.6276   21.1675 H   0  0  0  0  0  0  0  0  0  0  0  0
    4.8106    1.3065   19.1042 C   0  0  0  0  0  0  0  0  0  0  0  0
    3.8790    1.8387   19.2484 H   0  0  0  0  0  0  0  0  0  0  0  0
  1  2  1  0
  2  3  2  0
  3  4  1  0
  4  5  1  0
  4  6  2  0
  6  7  1  0
  7  8  1  0
  8  9  1  0
  9 10  2  0
 10 11  1  0
 11 12  1  0
 12 13  2  0
 13 14  1  0
 13 15  1  0
 15 16  1  0
 15 17  2  0
 17 18  1  0
 17 19  1  0
 19 20  1  0
 19 21  2  0
 21 22  1  0
  6 23  1  0
 23 24  1  0
 23 25  2  0
 25 26  1  0
 25  2  1  0
 11  7  2  0
 21 12  1  0
M  END
>  <cnnaffinity>  (1) 
-4.41326

>  <filename>  (1) 
Clc1ccccc1-c1nnsc1-c1cccnc1

$$$$
