
     RDKit          3D

 38 40  0  0  0  0  0  0  0  0999 V2000
    4.9021    1.8226   16.9700 H   0  0  0  0  0  0  0  0  0  0  0  0
    5.3801    1.3207   17.8061 C   0  0  0  0  0  0  0  0  0  0  0  0
    6.5476    0.7119   17.5350 N   0  0  0  0  0  0  0  0  0  0  0  0
    7.1688    0.0885   18.5455 C   0  0  0  0  0  0  0  0  0  0  0  0
    8.1118   -0.4001   18.3157 H   0  0  0  0  0  0  0  0  0  0  0  0
    6.6744   -0.0053   19.8709 C   0  0  0  0  0  0  0  0  0  0  0  0
    7.3822   -0.7459   20.8534 N   0  0  0  0  0  0  0  0  0  0  0  0
    6.6885   -1.6817   21.7276 C   0  0  0  0  0  0  0  0  0  0  0  0
    7.2277   -2.6472   21.7398 H   0  0  0  0  0  0  0  0  0  0  0  0
    5.6934   -1.8618   21.2998 H   0  0  0  0  0  0  0  0  0  0  0  0
    6.5367   -1.2302   23.1944 C   0  0  0  0  0  0  0  0  0  0  0  0
    5.8033   -1.8774   23.6823 H   0  0  0  0  0  0  0  0  0  0  0  0
    6.1390   -0.2016   23.2219 H   0  0  0  0  0  0  0  0  0  0  0  0
    7.7542   -1.3372   23.9830 N   0  0  0  0  0  0  0  0  0  0  0  0
    7.8364   -2.3694   24.9349 C   0  0  0  0  0  0  0  0  0  0  0  0
    8.5321   -3.5519   24.6263 C   0  0  0  0  0  0  0  0  0  0  0  0
    8.9950   -3.6039   23.6398 H   0  0  0  0  0  0  0  0  0  0  0  0
    8.5856   -4.6215   25.5269 C   0  0  0  0  0  0  0  0  0  0  0  0
    9.1363   -5.5288   25.3013 H   0  0  0  0  0  0  0  0  0  0  0  0
    7.8945   -4.5163   26.7398 C   0  0  0  0  0  0  0  0  0  0  0  0
    7.9901   -5.7988   27.9088 Cl  0  0  0  0  0  0  0  0  0  0  0  0
    7.1207   -3.3934   27.0396 C   0  0  0  0  0  0  0  0  0  0  0  0
    6.4740   -3.3665   27.9068 H   0  0  0  0  0  0  0  0  0  0  0  0
    7.1259   -2.3126   26.1568 C   0  0  0  0  0  0  0  0  0  0  0  0
    6.1912   -0.9082   26.5808 Cl  0  0  0  0  0  0  0  0  0  0  0  0
    8.8925   -0.4605   23.8201 C   0  0  0  0  0  0  0  0  0  0  0  0
    9.0074    0.1703   24.7247 H   0  0  0  0  0  0  0  0  0  0  0  0
    9.7956   -1.0998   23.7875 H   0  0  0  0  0  0  0  0  0  0  0  0
    8.8390    0.4235   22.5697 C   0  0  0  0  0  0  0  0  0  0  0  0
    9.7609    1.0143   22.5660 H   0  0  0  0  0  0  0  0  0  0  0  0
    8.0057    1.1390   22.6430 H   0  0  0  0  0  0  0  0  0  0  0  0
    8.7347   -0.3491   21.2357 C   0  0  0  0  0  0  0  0  0  0  0  0
    9.3696   -1.2524   21.2876 H   0  0  0  0  0  0  0  0  0  0  0  0
    9.1278    0.2765   20.4224 H   0  0  0  0  0  0  0  0  0  0  0  0
    5.4486    0.6405   20.1252 C   0  0  0  0  0  0  0  0  0  0  0  0
    5.0322    0.6041   21.1293 H   0  0  0  0  0  0  0  0  0  0  0  0
    4.8024    1.3187   19.0820 C   0  0  0  0  0  0  0  0  0  0  0  0
    3.8652    1.8420   19.2433 H   0  0  0  0  0  0  0  0  0  0  0  0
  1  2  1  0
  2  3  2  0
  3  4  1  0
  4  5  1  0
  4  6  2  0
  6  7  1  0
  7  8  1  0
  8  9  1  0
  8 10  1  0
  8 11  1  0
 11 12  1  0
 11 13  1  0
 11 14  1  0
 14 15  1  0
 15 16  2  0
 16 17  1  0
 16 18  1  0
 18 19  1  0
 18 20  2  0
 20 21  1  0
 20 22  1  0
 22 23  1  0
 22 24  2  0
 24 25  1  0
 14 26  1  0
 26 27  1  0
 26 28  1  0
 26 29  1  0
 29 30  1  0
 29 31  1  0
 29 32  1  0
 32 33  1  0
 32 34  1  0
  6 35  1  0
 35 36  1  0
 35 37  2  0
 37 38  1  0
 37  2  1  0
 32  7  1  0
 24 15  1  0
M  END
>  <cnnaffinity>  (1) 
-5.44236

>  <filename>  (1) 
Clc1ccc(N2CCCN(c3cccnc3)CC2)c(Cl)c1

$$$$
