
     RDKit          3D

 38 41  0  0  0  0  0  0  0  0999 V2000
    4.6845    0.2392   26.9102 Cl  0  0  0  0  0  0  0  0  0  0  0  0
    5.2054    0.9368   25.4216 C   0  0  0  0  0  0  0  0  0  0  0  0
    6.3285    0.6178   24.7272 C   0  0  0  0  0  0  0  0  0  0  0  0
    6.4767    1.4095   23.5434 C   0  0  0  0  0  0  0  0  0  0  0  0
    7.6420    1.2578   22.5974 C   0  0  0  0  0  0  0  0  0  0  0  0
    7.7956   -0.1423   22.1217 C   0  0  0  0  0  0  0  0  0  0  0  0
    8.4038   -1.0868   22.8129 N   0  0  0  0  0  0  0  0  0  0  0  0
    8.3495   -2.1599   21.9847 C   0  0  0  0  0  0  0  0  0  0  0  0
    8.7927   -3.5590   22.3299 C   0  0  0  0  0  0  0  0  0  0  0  0
    7.7988   -4.3692   23.2131 C   0  0  0  0  0  0  0  0  0  0  0  0
    8.7288   -5.2527   24.0682 C   0  0  0  0  0  0  0  0  0  0  0  0
    9.9932   -4.3932   24.1869 C   0  0  0  0  0  0  0  0  0  0  0  0
   10.0425   -3.5960   23.0085 O   0  0  0  0  0  0  0  0  0  0  0  0
   10.9303   -4.9618   24.2422 H   0  0  0  0  0  0  0  0  0  0  0  0
    9.9763   -3.7488   25.0781 H   0  0  0  0  0  0  0  0  0  0  0  0
    8.3102   -5.5115   25.0491 H   0  0  0  0  0  0  0  0  0  0  0  0
    8.9505   -6.1992   23.5606 H   0  0  0  0  0  0  0  0  0  0  0  0
    7.0904   -4.9311   22.5915 H   0  0  0  0  0  0  0  0  0  0  0  0
    7.2081   -3.6877   23.8416 H   0  0  0  0  0  0  0  0  0  0  0  0
    8.8801   -4.0187   21.3360 H   0  0  0  0  0  0  0  0  0  0  0  0
    7.7587   -1.9268   20.8246 N   0  0  0  0  0  0  0  0  0  0  0  0
    7.3763   -0.6331   20.9253 N   0  0  0  0  0  0  0  0  0  0  0  0
    6.6430    0.0065   19.8897 C   0  0  0  0  0  0  0  0  0  0  0  0
    5.4323    0.6550   20.1488 C   0  0  0  0  0  0  0  0  0  0  0  0
    4.7969    1.3148   19.0925 C   0  0  0  0  0  0  0  0  0  0  0  0
    5.3991    1.2941   17.8287 C   0  0  0  0  0  0  0  0  0  0  0  0
    6.5544    0.6541   17.5732 N   0  0  0  0  0  0  0  0  0  0  0  0
    7.1559    0.0207   18.5828 C   0  0  0  0  0  0  0  0  0  0  0  0
    8.1003   -0.4740   18.3676 H   0  0  0  0  0  0  0  0  0  0  0  0
    4.9438    1.8079   16.9851 H   0  0  0  0  0  0  0  0  0  0  0  0
    3.8637    1.8530   19.2367 H   0  0  0  0  0  0  0  0  0  0  0  0
    5.0148    0.6452   21.1564 H   0  0  0  0  0  0  0  0  0  0  0  0
    7.5503    1.9332   21.7424 H   0  0  0  0  0  0  0  0  0  0  0  0
    8.5797    1.4842   23.1142 H   0  0  0  0  0  0  0  0  0  0  0  0
    5.4531    2.2834   23.3725 C   0  0  0  0  0  0  0  0  0  0  0  0
    4.2855    2.1864   24.6418 S   0  0  0  0  0  0  0  0  0  0  0  0
    5.3107    2.9757   22.5521 H   0  0  0  0  0  0  0  0  0  0  0  0
    7.0215   -0.1646   25.0185 H   0  0  0  0  0  0  0  0  0  0  0  0
  1  2  1  0
  2  3  2  0
  3  4  1  0
  4  5  1  0
  5  6  1  0
  6  7  2  0
  7  8  1  0
  8  9  1  0
  9 10  1  0
 10 11  1  0
 11 12  1  0
 12 13  1  0
 12 14  1  0
 12 15  1  0
 11 16  1  0
 11 17  1  0
 10 18  1  0
 10 19  1  0
  9 20  1  0
  8 21  2  0
 21 22  1  0
 22 23  1  0
 23 24  2  0
 24 25  1  0
 25 26  2  0
 26 27  1  0
 27 28  2  0
 28 29  1  0
 26 30  1  0
 25 31  1  0
 24 32  1  0
  5 33  1  0
  5 34  1  0
  4 35  2  0
 35 36  1  0
 35 37  1  0
  3 38  1  0
 36  2  1  0
 22  6  1  0
 28 23  1  0
 13  9  1  0
M  END
>  <cnnaffinity>  (1) 
-6.33575

>  <filename>  (1) 
Clc1cc(Cc2nc(C3CCCO3)nn2-c2cccnc2)cs1

$$$$
