
     RDKit          3D

 38 41  0  0  0  0  0  0  0  0999 V2000
    5.2928    1.6113   17.0465 H   0  0  0  0  0  0  0  0  0  0  0  0
    5.8530    1.2033   17.8856 C   0  0  0  0  0  0  0  0  0  0  0  0
    7.0293    0.6265   17.5972 N   0  0  0  0  0  0  0  0  0  0  0  0
    7.7308    0.0960   18.6039 C   0  0  0  0  0  0  0  0  0  0  0  0
    8.6985   -0.3268   18.3328 H   0  0  0  0  0  0  0  0  0  0  0  0
    7.2835    0.0648   19.9368 C   0  0  0  0  0  0  0  0  0  0  0  0
    8.0665   -0.6617   20.9532 C   0  0  0  0  0  0  0  0  0  0  0  0
    9.4010   -0.5942   20.9745 N   0  0  0  0  0  0  0  0  0  0  0  0
    9.7290   -1.3785   22.0038 N   0  0  0  0  0  0  0  0  0  0  0  0
    8.6976   -1.9852   22.6013 C   0  0  0  0  0  0  0  0  0  0  0  0
    7.5641   -1.5396   21.9692 C   0  0  0  0  0  0  0  0  0  0  0  0
    6.1792   -2.0875   22.1696 C   0  0  0  0  0  0  0  0  0  0  0  0
    5.9690   -2.2766   23.2313 H   0  0  0  0  0  0  0  0  0  0  0  0
    5.4899   -1.3311   21.7865 H   0  0  0  0  0  0  0  0  0  0  0  0
    5.9265   -3.3343   21.3590 C   0  0  0  0  0  0  0  0  0  0  0  0
    5.7486   -3.1484   19.9888 C   0  0  0  0  0  0  0  0  0  0  0  0
    5.7994   -2.1364   19.5965 H   0  0  0  0  0  0  0  0  0  0  0  0
    5.5559   -4.2143   19.1254 C   0  0  0  0  0  0  0  0  0  0  0  0
    5.3992   -3.9555   18.0864 H   0  0  0  0  0  0  0  0  0  0  0  0
    5.5599   -5.5138   19.6505 C   0  0  0  0  0  0  0  0  0  0  0  0
    5.4940   -6.8899   18.5932 Cl  0  0  0  0  0  0  0  0  0  0  0  0
    5.6584   -5.7250   21.0294 C   0  0  0  0  0  0  0  0  0  0  0  0
    5.5383   -6.7229   21.4454 H   0  0  0  0  0  0  0  0  0  0  0  0
    5.8634   -4.6290   21.8753 C   0  0  0  0  0  0  0  0  0  0  0  0
    5.9728   -4.7981   22.9459 H   0  0  0  0  0  0  0  0  0  0  0  0
    9.1782   -2.9764   23.6130 C   0  0  0  0  0  0  0  0  0  0  0  0
    9.0167   -3.9981   23.2536 H   0  0  0  0  0  0  0  0  0  0  0  0
    8.6450   -2.8881   24.5629 H   0  0  0  0  0  0  0  0  0  0  0  0
   10.6790   -2.6164   23.7297 C   0  0  0  0  0  0  0  0  0  0  0  0
   11.3211   -3.4945   23.8152 H   0  0  0  0  0  0  0  0  0  0  0  0
   10.8143   -2.0052   24.6246 H   0  0  0  0  0  0  0  0  0  0  0  0
   11.0378   -1.7776   22.4642 C   0  0  0  0  0  0  0  0  0  0  0  0
   11.6485   -0.8939   22.6618 H   0  0  0  0  0  0  0  0  0  0  0  0
   11.5457   -2.3595   21.6896 H   0  0  0  0  0  0  0  0  0  0  0  0
    6.0653    0.7050   20.2236 C   0  0  0  0  0  0  0  0  0  0  0  0
    5.7065    0.7767   21.2505 H   0  0  0  0  0  0  0  0  0  0  0  0
    5.3407    1.2782   19.1819 C   0  0  0  0  0  0  0  0  0  0  0  0
    4.3937    1.7701   19.3595 H   0  0  0  0  0  0  0  0  0  0  0  0
  1  2  1  0
  2  3  2  0
  3  4  1  0
  4  5  1  0
  4  6  2  0
  6  7  1  0
  7  8  2  0
  8  9  1  0
  9 10  1  0
 10 11  2  0
 11 12  1  0
 12 13  1  0
 12 14  1  0
 12 15  1  0
 15 16  2  0
 16 17  1  0
 16 18  1  0
 18 19  1  0
 18 20  2  0
 20 21  1  0
 20 22  1  0
 22 23  1  0
 22 24  2  0
 24 25  1  0
 10 26  1  0
 26 27  1  0
 26 28  1  0
 26 29  1  0
 29 30  1  0
 29 31  1  0
 29 32  1  0
 32 33  1  0
 32 34  1  0
  6 35  1  0
 35 36  1  0
 35 37  2  0
 37 38  1  0
 37  2  1  0
 11  7  1  0
 24 15  1  0
 32  9  1  0
M  END
>  <cnnaffinity>  (1) 
-5.94545

>  <filename>  (1) 
Clc1ccc(Cc2c(-c3cccnc3)nn3c2CCC3)cc1

$$$$
