
     RDKit          3D

 35 38  0  0  0  0  0  0  0  0999 V2000
    4.9645    1.7985   16.9094 H   0  0  0  0  0  0  0  0  0  0  0  0
    5.4424    1.3187   17.7616 C   0  0  0  0  0  0  0  0  0  0  0  0
    6.6112    0.7070   17.5205 N   0  0  0  0  0  0  0  0  0  0  0  0
    7.2182    0.1020   18.5478 C   0  0  0  0  0  0  0  0  0  0  0  0
    8.1605   -0.3933   18.3243 H   0  0  0  0  0  0  0  0  0  0  0  0
    6.7003    0.0763   19.8577 C   0  0  0  0  0  0  0  0  0  0  0  0
    7.3857   -0.6702   20.9325 C   0  0  0  0  0  0  0  0  0  0  0  0
    8.5962   -1.2202   20.7470 N   0  0  0  0  0  0  0  0  0  0  0  0
    8.7756   -1.9183   21.8896 N   0  0  0  0  0  0  0  0  0  0  0  0
    9.7568   -2.7607   22.3849 C   0  0  0  0  0  0  0  0  0  0  0  0
   10.7166   -2.8314   21.9095 H   0  0  0  0  0  0  0  0  0  0  0  0
    9.2450   -3.2919   23.5258 C   0  0  0  0  0  0  0  0  0  0  0  0
    9.6877   -4.0299   24.1775 H   0  0  0  0  0  0  0  0  0  0  0  0
    7.9803   -2.7571   23.7637 N   0  0  0  0  0  0  0  0  0  0  0  0
    6.9781   -3.2076   24.7288 C   0  0  0  0  0  0  0  0  0  0  0  0
    7.5051   -3.6432   25.5857 H   0  0  0  0  0  0  0  0  0  0  0  0
    6.4441   -2.3188   25.0863 H   0  0  0  0  0  0  0  0  0  0  0  0
    5.9937   -4.2189   24.1419 C   0  0  0  0  0  0  0  0  0  0  0  0
    4.6739   -3.8515   23.8288 C   0  0  0  0  0  0  0  0  0  0  0  0
    4.2998   -2.8687   24.1161 H   0  0  0  0  0  0  0  0  0  0  0  0
    3.8254   -4.7398   23.1516 C   0  0  0  0  0  0  0  0  0  0  0  0
    2.7973   -4.4650   22.9242 H   0  0  0  0  0  0  0  0  0  0  0  0
    4.2963   -5.9972   22.7616 C   0  0  0  0  0  0  0  0  0  0  0  0
    3.6737   -6.6820   22.1917 H   0  0  0  0  0  0  0  0  0  0  0  0
    5.5965   -6.3731   23.1094 C   0  0  0  0  0  0  0  0  0  0  0  0
    6.2105   -7.8966   22.5425 Cl  0  0  0  0  0  0  0  0  0  0  0  0
    6.4370   -5.5153   23.8233 C   0  0  0  0  0  0  0  0  0  0  0  0
    7.4403   -5.8396   24.0979 H   0  0  0  0  0  0  0  0  0  0  0  0
    7.7253   -1.8721   22.7357 C   0  0  0  0  0  0  0  0  0  0  0  0
    6.8172   -0.9824   22.1924 C   0  0  0  0  0  0  0  0  0  0  0  0
    6.0080   -0.4535   22.6618 H   0  0  0  0  0  0  0  0  0  0  0  0
    5.4740    0.7208   20.0889 C   0  0  0  0  0  0  0  0  0  0  0  0
    5.0208    0.7360   21.0833 H   0  0  0  0  0  0  0  0  0  0  0  0
    4.8356    1.3476   19.0233 C   0  0  0  0  0  0  0  0  0  0  0  0
    3.8848    1.8494   19.1557 H   0  0  0  0  0  0  0  0  0  0  0  0
  1  2  1  0
  2  3  2  0
  3  4  1  0
  4  5  1  0
  4  6  2  0
  6  7  1  0
  7  8  2  0
  8  9  1  0
  9 10  1  0
 10 11  1  0
 10 12  2  0
 12 13  1  0
 12 14  1  0
 14 15  1  0
 15 16  1  0
 15 17  1  0
 15 18  1  0
 18 19  2  0
 19 20  1  0
 19 21  1  0
 21 22  1  0
 21 23  2  0
 23 24  1  0
 23 25  1  0
 25 26  1  0
 25 27  2  0
 27 28  1  0
 14 29  1  0
 29 30  2  0
 30 31  1  0
  6 32  1  0
 32 33  1  0
 32 34  2  0
 34 35  1  0
 34  2  1  0
 30  7  1  0
 29  9  1  0
 27 18  1  0
M  END
>  <cnnaffinity>  (1) 
-5.68454

>  <filename>  (1) 
Clc1cccc(Cn2ccn3nc(-c4cccnc4)cc23)c1

$$$$
