
     RDKit          3D

 29 31  0  0  0  0  0  0  0  0999 V2000
    6.6659    0.8504   22.5149 H   0  0  0  0  0  0  0  0  0  0  0  0
    7.1412   -0.0974   22.2752 C   0  0  0  0  0  0  0  0  0  0  0  0
    7.6683   -0.7898   23.2993 N   0  0  0  0  0  0  0  0  0  0  0  0
    8.3510   -1.9152   22.9808 C   0  0  0  0  0  0  0  0  0  0  0  0
    9.0217   -2.7381   24.0291 C   0  0  0  0  0  0  0  0  0  0  0  0
   10.2997   -3.2685   23.7407 C   0  0  0  0  0  0  0  0  0  0  0  0
   10.8067   -3.0137   22.8145 H   0  0  0  0  0  0  0  0  0  0  0  0
   10.9599   -4.1168   24.6206 C   0  0  0  0  0  0  0  0  0  0  0  0
   11.9190   -4.5154   24.3344 H   0  0  0  0  0  0  0  0  0  0  0  0
   10.3626   -4.4976   25.8214 C   0  0  0  0  0  0  0  0  0  0  0  0
   10.8732   -5.1778   26.4978 H   0  0  0  0  0  0  0  0  0  0  0  0
    9.0966   -4.0041   26.1306 C   0  0  0  0  0  0  0  0  0  0  0  0
    8.5819   -4.3132   27.0326 H   0  0  0  0  0  0  0  0  0  0  0  0
    8.4515   -3.1078   25.2662 C   0  0  0  0  0  0  0  0  0  0  0  0
    6.8956   -2.5333   25.7756 Cl  0  0  0  0  0  0  0  0  0  0  0  0
    8.4873   -2.2921   21.6173 C   0  0  0  0  0  0  0  0  0  0  0  0
    9.0336   -3.1902   21.3659 H   0  0  0  0  0  0  0  0  0  0  0  0
    7.9623   -1.6131   20.5944 N   0  0  0  0  0  0  0  0  0  0  0  0
    7.2349   -0.5211   20.9173 C   0  0  0  0  0  0  0  0  0  0  0  0
    6.5557    0.1648   19.7985 C   0  0  0  0  0  0  0  0  0  0  0  0
    7.0899    0.1174   18.4942 C   0  0  0  0  0  0  0  0  0  0  0  0
    7.9991   -0.4394   18.2831 H   0  0  0  0  0  0  0  0  0  0  0  0
    6.5313    0.7245   17.4432 N   0  0  0  0  0  0  0  0  0  0  0  0
    5.3803    1.3867   17.6409 C   0  0  0  0  0  0  0  0  0  0  0  0
    4.9405    1.8637   16.7674 H   0  0  0  0  0  0  0  0  0  0  0  0
    4.7406    1.4566   18.8812 C   0  0  0  0  0  0  0  0  0  0  0  0
    3.7988    1.9872   18.9752 H   0  0  0  0  0  0  0  0  0  0  0  0
    5.3409    0.8429   19.9781 C   0  0  0  0  0  0  0  0  0  0  0  0
    4.8500    0.8605   20.9505 H   0  0  0  0  0  0  0  0  0  0  0  0
  1  2  1  0
  2  3  2  0
  3  4  1  0
  4  5  1  0
  5  6  2  0
  6  7  1  0
  6  8  1  0
  8  9  1  0
  8 10  2  0
 10 11  1  0
 10 12  1  0
 12 13  1  0
 12 14  2  0
 14 15  1  0
  4 16  2  0
 16 17  1  0
 16 18  1  0
 18 19  2  0
 19 20  1  0
 20 21  2  0
 21 22  1  0
 21 23  1  0
 23 24  2  0
 24 25  1  0
 24 26  1  0
 26 27  1  0
 26 28  2  0
 28 29  1  0
 19  2  1  0
 28 20  1  0
 14  5  1  0
M  END
>  <cnnaffinity>  (1) 
-5.64697

>  <filename>  (1) 
Clc1ccccc1-c1cnc(-c2cccnc2)cn1

$$$$
