
     RDKit          3D

 45 48  0  0  0  0  0  0  0  0999 V2000
   12.2904    3.0805   21.6867 Cl  0  0  0  0  0  0  0  0  0  0  0  0
   12.1014    1.8430   22.9342 C   0  0  0  0  0  0  0  0  0  0  0  0
   13.1162    2.0023   23.9133 C   0  0  0  0  0  0  0  0  0  0  0  0
   13.3033    1.8253   23.8449 C   0  0  0  0  0  0  0  0  0  0  0  0
   11.2794    0.1954   25.2793 C   0  0  0  0  0  0  0  0  0  0  0  0
   10.3921    0.9016   24.5415 C   0  0  0  0  0  0  0  0  0  0  0  0
   10.6776    1.4622   23.2668 C   0  0  0  0  0  0  0  0  0  0  0  0
    9.7213    1.5632   22.1470 C   0  0  0  0  0  0  0  0  0  0  0  0
   10.2137    0.7138   21.0947 O   0  0  0  0  0  0  0  0  0  0  0  0
    9.2661    0.0613   20.2871 C   0  0  0  0  0  0  0  0  0  0  0  0
    8.3362   -0.8627   21.0340 C   0  0  0  0  0  0  0  0  0  0  0  0
    8.6050   -1.6094   22.0866 N   0  0  0  0  0  0  0  0  0  0  0  0
    7.3879   -2.1115   22.4301 C   0  0  0  0  0  0  0  0  0  0  0  0
    7.2286   -2.9841   23.6360 C   0  0  0  0  0  0  0  0  0  0  0  0
    5.9152   -2.8563   24.4384 C   0  0  0  0  0  0  0  0  0  0  0  0
    6.3165   -3.4443   25.7975 C   0  0  0  0  0  0  0  0  0  0  0  0
    7.7234   -3.2752   25.9142 O   0  0  0  0  0  0  0  0  0  0  0  0
    8.2693   -2.7080   24.7356 C   0  0  0  0  0  0  0  0  0  0  0  0
    9.2408   -3.1798   24.5520 H   0  0  0  0  0  0  0  0  0  0  0  0
    8.4403   -1.6235   24.8638 H   0  0  0  0  0  0  0  0  0  0  0  0
    5.8269   -2.9473   26.6452 H   0  0  0  0  0  0  0  0  0  0  0  0
    6.0794   -4.5166   25.8586 H   0  0  0  0  0  0  0  0  0  0  0  0
    5.6391   -1.8000   24.5477 H   0  0  0  0  0  0  0  0  0  0  0  0
    5.0695   -3.3795   23.9824 H   0  0  0  0  0  0  0  0  0  0  0  0
    7.3553   -4.0208   23.2953 H   0  0  0  0  0  0  0  0  0  0  0  0
    6.4000   -1.7641   21.6245 N   0  0  0  0  0  0  0  0  0  0  0  0
    7.0192   -0.9861   20.7023 N   0  0  0  0  0  0  0  0  0  0  0  0
    6.2938   -0.3096   19.6852 C   0  0  0  0  0  0  0  0  0  0  0  0
    5.2112    0.5141   20.0107 C   0  0  0  0  0  0  0  0  0  0  0  0
    4.6777    1.3191   19.0011 C   0  0  0  0  0  0  0  0  0  0  0  0
    5.2187    1.2446   17.7110 C   0  0  0  0  0  0  0  0  0  0  0  0
    6.2028    0.3962   17.3779 N   0  0  0  0  0  0  0  0  0  0  0  0
    6.7119   -0.3743   18.3438 C   0  0  0  0  0  0  0  0  0  0  0  0
    7.5106   -1.0555   18.0519 H   0  0  0  0  0  0  0  0  0  0  0  0
    4.8535    1.8896   16.9160 H   0  0  0  0  0  0  0  0  0  0  0  0
    3.8726    2.0172   19.2032 H   0  0  0  0  0  0  0  0  0  0  0  0
    4.8354    0.5293   21.0346 H   0  0  0  0  0  0  0  0  0  0  0  0
    9.8497   -0.5376   19.5852 H   0  0  0  0  0  0  0  0  0  0  0  0
    8.6927    0.7916   19.6991 H   0  0  0  0  0  0  0  0  0  0  0  0
    8.6855    1.2467   22.4304 H   0  0  0  0  0  0  0  0  0  0  0  0
    9.6477    2.5921   21.7526 H   0  0  0  0  0  0  0  0  0  0  0  0
    9.3700    0.9938   24.9349 H   0  0  0  0  0  0  0  0  0  0  0  0
   10.9257   -0.1846   26.2457 H   0  0  0  0  0  0  0  0  0  0  0  0
   12.2968   -0.0916   24.9544 H   0  0  0  0  0  0  0  0  0  0  0  0
   13.9388    2.9038   23.8745 H   0  0  0  0  0  0  0  0  0  0  0  0
  1  2  1  0
  2  3  2  0
  3  4  1  0
  4  5  2  0
  5  6  1  0
  6  7  2  0
  7  8  1  0
  8  9  1  0
  9 10  1  0
 10 11  1  0
 11 12  2  0
 12 13  1  0
 13 14  1  0
 14 15  1  0
 15 16  1  0
 16 17  1  0
 17 18  1  0
 18 19  1  0
 18 20  1  0
 16 21  1  0
 16 22  1  0
 15 23  1  0
 15 24  1  0
 14 25  1  0
 13 26  2  0
 26 27  1  0
 27 28  1  0
 28 29  2  0
 29 30  1  0
 30 31  2  0
 31 32  1  0
 32 33  2  0
 33 34  1  0
 31 35  1  0
 30 36  1  0
 29 37  1  0
 10 38  1  0
 10 39  1  0
  8 40  1  0
  8 41  1  0
  6 42  1  0
  5 43  1  0
  4 44  1  0
  3 45  1  0
  7  2  1  0
 27 11  1  0
 33 28  1  0
 18 14  1  0
M  END
>  <cnnaffinity>  (1) 
-5.97821

>  <filename>  (1) 
Clc1ccccc1COCc1nc(C2CCOC2)nn1-c1cccnc1

$$$$
