
     RDKit          3D

 46 49  0  0  0  0  0  0  0  0999 V2000
   13.7317    0.8176   24.0334 Cl  0  0  0  0  0  0  0  0  0  0  0  0
   12.0328    0.6927   24.4107 C   0  0  0  0  0  0  0  0  0  0  0  0
   11.2931   -0.3376   23.8128 C   0  0  0  0  0  0  0  0  0  0  0  0
    9.9503   -0.4691   24.1568 C   0  0  0  0  0  0  0  0  0  0  0  0
    9.3862    0.4752   25.0290 C   0  0  0  0  0  0  0  0  0  0  0  0
    7.9884    0.5018   25.2560 N   0  0  0  0  0  0  0  0  0  0  0  0
    7.4425    0.5187   26.4934 N   0  0  0  0  0  0  0  0  0  0  0  0
    6.1437    0.5163   26.2390 C   0  0  0  0  0  0  0  0  0  0  0  0
    5.0833    0.5091   27.3097 C   0  0  0  0  0  0  0  0  0  0  0  0
    5.4500    1.2458   28.6169 C   0  0  0  0  0  0  0  0  0  0  0  0
    4.1003    1.5706   29.2877 C   0  0  0  0  0  0  0  0  0  0  0  0
    3.0253    1.5247   28.1724 C   0  0  0  0  0  0  0  0  0  0  0  0
    3.7650    1.1797   26.8706 C   0  0  0  0  0  0  0  0  0  0  0  0
    3.1808    0.5329   26.2062 H   0  0  0  0  0  0  0  0  0  0  0  0
    4.0018    2.0948   26.3115 H   0  0  0  0  0  0  0  0  0  0  0  0
    2.2703    0.7635   28.4036 H   0  0  0  0  0  0  0  0  0  0  0  0
    2.4927    2.4775   28.0782 H   0  0  0  0  0  0  0  0  0  0  0  0
    3.8652    0.8350   30.0665 H   0  0  0  0  0  0  0  0  0  0  0  0
    4.1347    2.5477   29.7814 H   0  0  0  0  0  0  0  0  0  0  0  0
    5.9943    2.1683   28.3756 H   0  0  0  0  0  0  0  0  0  0  0  0
    6.1028    0.6441   29.2594 H   0  0  0  0  0  0  0  0  0  0  0  0
    4.8866   -0.5497   27.5409 H   0  0  0  0  0  0  0  0  0  0  0  0
    5.8249    0.5207   24.9084 N   0  0  0  0  0  0  0  0  0  0  0  0
    7.0004    0.5296   24.3223 C   0  0  0  0  0  0  0  0  0  0  0  0
    7.2835    0.5822   22.8636 C   0  0  0  0  0  0  0  0  0  0  0  0
    7.0276   -0.7458   22.1460 C   0  0  0  0  0  0  0  0  0  0  0  0
    7.4458   -0.6666   20.7908 O   0  0  0  0  0  0  0  0  0  0  0  0
    6.6881    0.0066   19.8832 C   0  0  0  0  0  0  0  0  0  0  0  0
    5.4676    0.6452   20.1401 C   0  0  0  0  0  0  0  0  0  0  0  0
    4.8261    1.2983   19.0794 C   0  0  0  0  0  0  0  0  0  0  0  0
    5.4154    1.2931   17.8141 C   0  0  0  0  0  0  0  0  0  0  0  0
    6.5777    0.6678   17.5493 N   0  0  0  0  0  0  0  0  0  0  0  0
    7.1874    0.0454   18.5617 C   0  0  0  0  0  0  0  0  0  0  0  0
    8.1245   -0.4657   18.3480 H   0  0  0  0  0  0  0  0  0  0  0  0
    4.9409    1.8047   16.9816 H   0  0  0  0  0  0  0  0  0  0  0  0
    3.8880    1.8194   19.2382 H   0  0  0  0  0  0  0  0  0  0  0  0
    5.0414    0.6390   21.1427 H   0  0  0  0  0  0  0  0  0  0  0  0
    7.6371   -1.5504   22.5677 H   0  0  0  0  0  0  0  0  0  0  0  0
    5.9802   -1.0632   22.2066 H   0  0  0  0  0  0  0  0  0  0  0  0
    6.6793    1.3742   22.4138 H   0  0  0  0  0  0  0  0  0  0  0  0
    8.3267    0.8668   22.6964 H   0  0  0  0  0  0  0  0  0  0  0  0
   10.2116    1.4807   25.5479 C   0  0  0  0  0  0  0  0  0  0  0  0
   11.5080    1.5889   25.2325 N   0  0  0  0  0  0  0  0  0  0  0  0
    9.7910    2.2615   26.1817 H   0  0  0  0  0  0  0  0  0  0  0  0
    9.3579   -1.2863   23.7445 H   0  0  0  0  0  0  0  0  0  0  0  0
   11.7504   -0.9683   23.0679 H   0  0  0  0  0  0  0  0  0  0  0  0
  1  2  1  0
  2  3  2  0
  3  4  1  0
  4  5  2  0
  5  6  1  0
  6  7  1  0
  7  8  2  0
  8  9  1  0
  9 10  1  0
 10 11  1  0
 11 12  1  0
 12 13  1  0
 13 14  1  0
 13 15  1  0
 12 16  1  0
 12 17  1  0
 11 18  1  0
 11 19  1  0
 10 20  1  0
 10 21  1  0
  9 22  1  0
  8 23  1  0
 23 24  2  0
 24 25  1  0
 25 26  1  0
 26 27  1  0
 27 28  1  0
 28 29  2  0
 29 30  1  0
 30 31  2  0
 31 32  1  0
 32 33  2  0
 33 34  1  0
 31 35  1  0
 30 36  1  0
 29 37  1  0
 26 38  1  0
 26 39  1  0
 25 40  1  0
 25 41  1  0
  5 42  1  0
 42 43  2  0
 42 44  1  0
  4 45  1  0
  3 46  1  0
 43  2  1  0
 24  6  1  0
 33 28  1  0
 13  9  1  0
M  END
>  <cnnaffinity>  (1) 
-6.08012

>  <filename>  (1) 
Clc1ccc(-n2nc(C3CCCC3)nc2CCOc2cccnc2)cn1

$$$$
