
     RDKit          3D

 31 33  0  0  0  0  0  0  0  0999 V2000
    5.1996    1.6909   16.9396 H   0  0  0  0  0  0  0  0  0  0  0  0
    5.5743    1.1840   17.8269 C   0  0  0  0  0  0  0  0  0  0  0  0
    6.7077    0.4808   17.6731 N   0  0  0  0  0  0  0  0  0  0  0  0
    7.1951   -0.1358   18.7589 C   0  0  0  0  0  0  0  0  0  0  0  0
    8.1259   -0.6867   18.6206 H   0  0  0  0  0  0  0  0  0  0  0  0
    6.5841   -0.1214   20.0274 C   0  0  0  0  0  0  0  0  0  0  0  0
    7.2119   -0.8339   21.1562 C   0  0  0  0  0  0  0  0  0  0  0  0
    8.5239   -0.8072   21.5950 C   0  0  0  0  0  0  0  0  0  0  0  0
    9.5627    0.2186   21.2297 C   0  0  0  0  0  0  0  0  0  0  0  0
    9.6609    0.2801   20.1408 H   0  0  0  0  0  0  0  0  0  0  0  0
   10.5441   -0.0834   21.6062 H   0  0  0  0  0  0  0  0  0  0  0  0
    9.1715    1.6000   21.8188 C   0  0  0  0  0  0  0  0  0  0  0  0
    9.6870    2.0254   23.1062 C   0  0  0  0  0  0  0  0  0  0  0  0
   10.3647    1.4547   23.7223 H   0  0  0  0  0  0  0  0  0  0  0  0
    9.1508    3.3330   23.5674 C   0  0  0  0  0  0  0  0  0  0  0  0
    9.9186    4.2071   24.8621 Cl  0  0  0  0  0  0  0  0  0  0  0  0
    8.2254    4.2240   22.7876 C   0  0  0  0  0  0  0  0  0  0  0  0
    7.9447    5.4331   22.8568 H   0  0  0  0  0  0  0  0  0  0  0  0
    8.3450    4.2625   22.8628 C   0  0  0  0  0  0  0  0  0  0  0  0
    6.0148    4.0429   22.0813 Cl  0  0  0  0  0  0  0  0  0  0  0  0
    8.2659    2.4832   21.3313 C   0  0  0  0  0  0  0  0  0  0  0  0
    7.4319    2.5594   20.6602 H   0  0  0  0  0  0  0  0  0  0  0  0
    8.5614   -1.7576   22.6388 C   0  0  0  0  0  0  0  0  0  0  0  0
    9.4173   -2.0347   23.2428 H   0  0  0  0  0  0  0  0  0  0  0  0
    7.3746   -2.3070   22.8623 N   0  0  0  0  0  0  0  0  0  0  0  0
    6.5689   -1.7192   21.9617 N   0  0  0  0  0  0  0  0  0  0  0  0
    5.5729   -1.8958   21.9893 H   0  0  0  0  0  0  0  0  0  0  0  0
    5.3940    0.6114   20.1596 C   0  0  0  0  0  0  0  0  0  0  0  0
    4.8981    0.6770   21.1292 H   0  0  0  0  0  0  0  0  0  0  0  0
    4.8881    1.2789   19.0437 C   0  0  0  0  0  0  0  0  0  0  0  0
    3.9922    1.8865   19.1131 H   0  0  0  0  0  0  0  0  0  0  0  0
  1  2  1  0
  2  3  2  0
  3  4  1  0
  4  5  1  0
  4  6  2  0
  6  7  1  0
  7  8  2  0
  8  9  1  0
  9 10  1  0
  9 11  1  0
  9 12  1  0
 12 13  2  0
 13 14  1  0
 13 15  1  0
 15 16  1  0
 15 17  2  0
 17 18  1  0
 17 19  1  0
 19 20  1  0
 19 21  2  0
 21 22  1  0
  8 23  1  0
 23 24  1  0
 23 25  2  0
 25 26  1  0
 26 27  1  0
  6 28  1  0
 28 29  1  0
 28 30  2  0
 30 31  1  0
 30  2  1  0
 26  7  1  0
 21 12  1  0
M  END
>  <cnnaffinity>  (1) 
-5.40652

>  <filename>  (1) 
Clc1cc(Cl)cc(Cc2cn[nH]c2-c2cccnc2)c1

$$$$
