
     RDKit          3D

 29 31  0  0  0  0  0  0  0  0999 V2000
   10.4821   -1.3265   21.8505 H   0  0  0  0  0  0  0  0  0  0  0  0
    9.3948   -1.3333   21.8797 C   0  0  0  0  0  0  0  0  0  0  0  0
    8.7573   -0.7077   20.8886 N   0  0  0  0  0  0  0  0  0  0  0  0
    7.4241   -0.7115   20.9514 C   0  0  0  0  0  0  0  0  0  0  0  0
    6.6777    0.0134   19.9086 C   0  0  0  0  0  0  0  0  0  0  0  0
    7.1906    0.0571   18.6030 C   0  0  0  0  0  0  0  0  0  0  0  0
    8.1386   -0.4189   18.3647 H   0  0  0  0  0  0  0  0  0  0  0  0
    6.5709    0.6581   17.5840 N   0  0  0  0  0  0  0  0  0  0  0  0
    5.4116    1.2796   17.8432 C   0  0  0  0  0  0  0  0  0  0  0  0
    4.9446    1.7822   16.9997 H   0  0  0  0  0  0  0  0  0  0  0  0
    4.8164    1.3068   19.1087 C   0  0  0  0  0  0  0  0  0  0  0  0
    3.8813    1.8341   19.2514 H   0  0  0  0  0  0  0  0  0  0  0  0
    5.4536    0.6562   20.1619 C   0  0  0  0  0  0  0  0  0  0  0  0
    5.0135    0.6602   21.1643 H   0  0  0  0  0  0  0  0  0  0  0  0
    6.7351   -1.3893   21.9527 C   0  0  0  0  0  0  0  0  0  0  0  0
    5.6640   -1.4637   21.9234 H   0  0  0  0  0  0  0  0  0  0  0  0
    7.4915   -2.0016   22.9439 C   0  0  0  0  0  0  0  0  0  0  0  0
    6.8478   -2.7464   24.0771 C   0  0  0  0  0  0  0  0  0  0  0  0
    7.1950   -4.0973   24.2927 C   0  0  0  0  0  0  0  0  0  0  0  0
    7.9784   -4.5369   23.6808 H   0  0  0  0  0  0  0  0  0  0  0  0
    6.5805   -4.8573   25.2864 C   0  0  0  0  0  0  0  0  0  0  0  0
    6.8916   -5.8850   25.4542 H   0  0  0  0  0  0  0  0  0  0  0  0
    5.5873   -4.2899   26.0867 C   0  0  0  0  0  0  0  0  0  0  0  0
    5.0997   -4.8486   26.8806 H   0  0  0  0  0  0  0  0  0  0  0  0
    5.2372   -2.9485   25.9123 C   0  0  0  0  0  0  0  0  0  0  0  0
    3.9849   -2.3095   26.9283 Cl  0  0  0  0  0  0  0  0  0  0  0  0
    5.9048   -2.1583   24.9550 C   0  0  0  0  0  0  0  0  0  0  0  0
    5.6440   -0.4419   24.9571 Cl  0  0  0  0  0  0  0  0  0  0  0  0
    8.8326   -1.9912   22.8942 N   0  0  0  0  0  0  0  0  0  0  0  0
  1  2  1  0
  2  3  2  0
  3  4  1  0
  4  5  1  0
  5  6  2  0
  6  7  1  0
  6  8  1  0
  8  9  2  0
  9 10  1  0
  9 11  1  0
 11 12  1  0
 11 13  2  0
 13 14  1  0
  4 15  2  0
 15 16  1  0
 15 17  1  0
 17 18  1  0
 18 19  2  0
 19 20  1  0
 19 21  1  0
 21 22  1  0
 21 23  2  0
 23 24  1  0
 23 25  1  0
 25 26  1  0
 25 27  2  0
 27 28  1  0
 17 29  2  0
 29  2  1  0
 13  5  1  0
 27 18  1  0
M  END
>  <cnnaffinity>  (1) 
-5.28846

>  <filename>  (1) 
Clc1cccc(-c2cc(-c3cccnc3)ncn2)c1Cl

$$$$
