
     RDKit          3D

 31 33  0  0  0  0  0  0  0  0999 V2000
    4.9496    1.8234   16.9664 H   0  0  0  0  0  0  0  0  0  0  0  0
    5.4017    1.3081   17.8091 C   0  0  0  0  0  0  0  0  0  0  0  0
    6.5628    0.6827   17.5627 N   0  0  0  0  0  0  0  0  0  0  0  0
    7.1582    0.0763   18.5941 C   0  0  0  0  0  0  0  0  0  0  0  0
    8.1063   -0.4145   18.3735 H   0  0  0  0  0  0  0  0  0  0  0  0
    6.6577    0.0543   19.9139 C   0  0  0  0  0  0  0  0  0  0  0  0
    7.4425   -0.6106   20.9766 C   0  0  0  0  0  0  0  0  0  0  0  0
    7.0511   -0.4144   22.6616 S   0  0  0  0  0  0  0  0  0  0  0  0
    8.2841   -1.5306   23.1593 C   0  0  0  0  0  0  0  0  0  0  0  0
    8.5024   -1.9048   24.6056 C   0  0  0  0  0  0  0  0  0  0  0  0
    8.3982   -1.0262   25.2470 H   0  0  0  0  0  0  0  0  0  0  0  0
    9.5396   -2.2308   24.7489 H   0  0  0  0  0  0  0  0  0  0  0  0
    7.5650   -3.0081   25.0654 C   0  0  0  0  0  0  0  0  0  0  0  0
    7.9472   -4.3485   24.9364 C   0  0  0  0  0  0  0  0  0  0  0  0
    8.9260   -4.5972   24.5308 H   0  0  0  0  0  0  0  0  0  0  0  0
    7.0705   -5.3716   25.2976 C   0  0  0  0  0  0  0  0  0  0  0  0
    7.4011   -6.3996   25.2335 H   0  0  0  0  0  0  0  0  0  0  0  0
    5.7860   -5.0800   25.7624 C   0  0  0  0  0  0  0  0  0  0  0  0
    5.0844   -5.8701   26.0149 H   0  0  0  0  0  0  0  0  0  0  0  0
    5.4130   -3.7409   25.8929 C   0  0  0  0  0  0  0  0  0  0  0  0
    3.8268   -3.3571   26.4949 Cl  0  0  0  0  0  0  0  0  0  0  0  0
    6.2894   -2.7052   25.5627 C   0  0  0  0  0  0  0  0  0  0  0  0
    5.9583   -1.6760   25.6823 H   0  0  0  0  0  0  0  0  0  0  0  0
    8.9325   -2.0370   22.0702 C   0  0  0  0  0  0  0  0  0  0  0  0
    9.6757   -2.8278   22.1352 H   0  0  0  0  0  0  0  0  0  0  0  0
    8.4905   -1.4794   20.8362 C   0  0  0  0  0  0  0  0  0  0  0  0
    8.9489   -1.7102   19.8826 H   0  0  0  0  0  0  0  0  0  0  0  0
    5.4136    0.6837   20.1348 C   0  0  0  0  0  0  0  0  0  0  0  0
    4.9586    0.6841   21.1268 H   0  0  0  0  0  0  0  0  0  0  0  0
    4.7854    1.3215   19.0654 C   0  0  0  0  0  0  0  0  0  0  0  0
    3.8486    1.8492   19.1947 H   0  0  0  0  0  0  0  0  0  0  0  0
  1  2  1  0
  2  3  2  0
  3  4  1  0
  4  5  1  0
  4  6  2  0
  6  7  1  0
  7  8  1  0
  8  9  1  0
  9 10  1  0
 10 11  1  0
 10 12  1  0
 10 13  1  0
 13 14  2  0
 14 15  1  0
 14 16  1  0
 16 17  1  0
 16 18  2  0
 18 19  1  0
 18 20  1  0
 20 21  1  0
 20 22  2  0
 22 23  1  0
  9 24  2  0
 24 25  1  0
 24 26  1  0
 26 27  1  0
  6 28  1  0
 28 29  1  0
 28 30  2  0
 30 31  1  0
 30  2  1  0
 26  7  2  0
 22 13  1  0
M  END
>  <cnnaffinity>  (1) 
-5.0014

>  <filename>  (1) 
Clc1cccc(Cc2ccc(-c3cccnc3)s2)c1

$$$$
