
     RDKit          3D

 31 33  0  0  0  0  0  0  0  0999 V2000
    5.0464    1.7836   16.9684 H   0  0  0  0  0  0  0  0  0  0  0  0
    5.4781    1.2917   17.8389 C   0  0  0  0  0  0  0  0  0  0  0  0
    6.6333    0.6342   17.6390 N   0  0  0  0  0  0  0  0  0  0  0  0
    7.1798    0.0118   18.6835 C   0  0  0  0  0  0  0  0  0  0  0  0
    8.0903   -0.5540   18.5027 H   0  0  0  0  0  0  0  0  0  0  0  0
    6.6352    0.0414   19.9799 C   0  0  0  0  0  0  0  0  0  0  0  0
    7.3157   -0.6540   21.0105 N   0  0  0  0  0  0  0  0  0  0  0  0
    7.7707   -1.8919   20.7294 N   0  0  0  0  0  0  0  0  0  0  0  0
    8.3410   -2.3113   21.8424 C   0  0  0  0  0  0  0  0  0  0  0  0
    8.7752   -3.3003   21.8822 H   0  0  0  0  0  0  0  0  0  0  0  0
    8.2894   -1.3413   22.8541 C   0  0  0  0  0  0  0  0  0  0  0  0
    8.7125   -1.4197   23.8428 H   0  0  0  0  0  0  0  0  0  0  0  0
    7.6225   -0.2707   22.2957 C   0  0  0  0  0  0  0  0  0  0  0  0
    7.3162    1.0615   22.9465 C   0  0  0  0  0  0  0  0  0  0  0  0
    6.6274    0.8736   23.7740 H   0  0  0  0  0  0  0  0  0  0  0  0
    6.8022    1.7383   22.2555 H   0  0  0  0  0  0  0  0  0  0  0  0
    8.5866    1.7187   23.4816 C   0  0  0  0  0  0  0  0  0  0  0  0
    8.9866    1.5724   24.8179 C   0  0  0  0  0  0  0  0  0  0  0  0
    8.2827    1.1462   25.5238 H   0  0  0  0  0  0  0  0  0  0  0  0
   10.2671    1.9423   25.2407 C   0  0  0  0  0  0  0  0  0  0  0  0
   10.5779    1.7570   26.2656 H   0  0  0  0  0  0  0  0  0  0  0  0
   11.1522    2.5283   24.3296 C   0  0  0  0  0  0  0  0  0  0  0  0
   12.1477    2.8033   24.6472 H   0  0  0  0  0  0  0  0  0  0  0  0
   10.7532    2.7647   23.0100 C   0  0  0  0  0  0  0  0  0  0  0  0
   11.4082    3.2383   22.2785 H   0  0  0  0  0  0  0  0  0  0  0  0
    9.4789    2.3568   22.6105 C   0  0  0  0  0  0  0  0  0  0  0  0
    8.9882    2.6182   20.9620 Cl  0  0  0  0  0  0  0  0  0  0  0  0
    5.4140    0.6971   20.1756 C   0  0  0  0  0  0  0  0  0  0  0  0
    4.9329    0.6853   21.1545 H   0  0  0  0  0  0  0  0  0  0  0  0
    4.8267    1.3315   19.0753 C   0  0  0  0  0  0  0  0  0  0  0  0
    3.8772    1.8472   19.1682 H   0  0  0  0  0  0  0  0  0  0  0  0
  1  2  1  0
  2  3  2  0
  3  4  1  0
  4  5  1  0
  4  6  2  0
  6  7  1  0
  7  8  1  0
  8  9  2  0
  9 10  1  0
  9 11  1  0
 11 12  1  0
 11 13  2  0
 13 14  1  0
 14 15  1  0
 14 16  1  0
 14 17  1  0
 17 18  2  0
 18 19  1  0
 18 20  1  0
 20 21  1  0
 20 22  2  0
 22 23  1  0
 22 24  1  0
 24 25  1  0
 24 26  2  0
 26 27  1  0
  6 28  1  0
 28 29  1  0
 28 30  2  0
 30 31  1  0
 30  2  1  0
 13  7  1  0
 26 17  1  0
M  END
>  <cnnaffinity>  (1) 
-5.17304

>  <filename>  (1) 
Clc1ccccc1Cc1ccnn1-c1cccnc1

$$$$
