
     RDKit          3D

 43 47  0  0  0  0  0  0  0  0999 V2000
   11.0408    0.4356   26.0493 Cl  0  0  0  0  0  0  0  0  0  0  0  0
    9.8102    1.1469   25.0549 C   0  0  0  0  0  0  0  0  0  0  0  0
   10.0924    1.3826   23.7054 C   0  0  0  0  0  0  0  0  0  0  0  0
    9.0718    1.8961   22.8986 C   0  0  0  0  0  0  0  0  0  0  0  0
    9.2385    1.8787   21.3921 C   0  0  0  0  0  0  0  0  0  0  0  0
    9.3799    0.4212   20.8480 C   0  0  0  0  0  0  0  0  0  0  0  0
    8.2976   -0.5036   21.3190 C   0  0  0  0  0  0  0  0  0  0  0  0
    8.3663   -1.3285   22.3454 N   0  0  0  0  0  0  0  0  0  0  0  0
    7.0764   -1.7537   22.4922 C   0  0  0  0  0  0  0  0  0  0  0  0
    6.6017   -2.6738   23.5380 C   0  0  0  0  0  0  0  0  0  0  0  0
    7.5237   -3.0436   24.7012 C   0  0  0  0  0  0  0  0  0  0  0  0
    7.1981   -4.0404   23.6323 C   0  0  0  0  0  0  0  0  0  0  0  0
    6.6809   -5.4187   23.5235 C   0  0  0  0  0  0  0  0  0  0  0  0
    7.8438   -4.9342   22.6422 C   0  0  0  0  0  0  0  0  0  0  0  0
    8.8463   -5.2858   22.8784 H   0  0  0  0  0  0  0  0  0  0  0  0
    7.6469   -4.7265   21.5903 H   0  0  0  0  0  0  0  0  0  0  0  0
    6.9133   -6.0989   24.3374 H   0  0  0  0  0  0  0  0  0  0  0  0
    5.6960   -5.5444   23.0749 H   0  0  0  0  0  0  0  0  0  0  0  0
    7.0779   -3.2049   25.6824 H   0  0  0  0  0  0  0  0  0  0  0  0
    8.5272   -2.6164   24.6837 H   0  0  0  0  0  0  0  0  0  0  0  0
    5.5263   -2.6057   23.7036 H   0  0  0  0  0  0  0  0  0  0  0  0
    6.2360   -1.2611   21.6046 N   0  0  0  0  0  0  0  0  0  0  0  0
    7.0241   -0.4832   20.8254 N   0  0  0  0  0  0  0  0  0  0  0  0
    6.4503    0.1664   19.7026 C   0  0  0  0  0  0  0  0  0  0  0  0
    5.3047    0.9500   19.8690 C   0  0  0  0  0  0  0  0  0  0  0  0
    4.7623    1.5689   18.7436 C   0  0  0  0  0  0  0  0  0  0  0  0
    5.3671    1.3661   17.4973 C   0  0  0  0  0  0  0  0  0  0  0  0
    6.4452    0.5847   17.3268 N   0  0  0  0  0  0  0  0  0  0  0  0
    6.9687   -0.0035   18.4076 C   0  0  0  0  0  0  0  0  0  0  0  0
    7.8418   -0.6373   18.2480 H   0  0  0  0  0  0  0  0  0  0  0  0
    4.9720    1.8390   16.6012 H   0  0  0  0  0  0  0  0  0  0  0  0
    3.8797    2.1952   18.8195 H   0  0  0  0  0  0  0  0  0  0  0  0
    4.8622    1.0443   20.8625 H   0  0  0  0  0  0  0  0  0  0  0  0
    9.4117    0.4217   19.7553 H   0  0  0  0  0  0  0  0  0  0  0  0
   10.3293   -0.0065   21.1843 H   0  0  0  0  0  0  0  0  0  0  0  0
   10.1285    2.4518   21.1092 H   0  0  0  0  0  0  0  0  0  0  0  0
    8.3788    2.3683   20.9192 H   0  0  0  0  0  0  0  0  0  0  0  0
    7.8497    2.1931   23.5263 C   0  0  0  0  0  0  0  0  0  0  0  0
    7.6861    1.9052   24.8829 C   0  0  0  0  0  0  0  0  0  0  0  0
    8.6558    1.3910   25.6486 N   0  0  0  0  0  0  0  0  0  0  0  0
    6.7376    2.0888   25.3865 H   0  0  0  0  0  0  0  0  0  0  0  0
    7.0254    2.6111   22.9600 H   0  0  0  0  0  0  0  0  0  0  0  0
   11.0680    1.1189   23.3147 H   0  0  0  0  0  0  0  0  0  0  0  0
  1  2  1  0
  2  3  2  0
  3  4  1  0
  4  5  1  0
  5  6  1  0
  6  7  1  0
  7  8  2  0
  8  9  1  0
  9 10  1  0
 10 11  1  0
 11 12  1  0
 12 13  1  0
 13 14  1  0
 14 15  1  0
 14 16  1  0
 13 17  1  0
 13 18  1  0
 11 19  1  0
 11 20  1  0
 10 21  1  0
  9 22  2  0
 22 23  1  0
 23 24  1  0
 24 25  2  0
 25 26  1  0
 26 27  2  0
 27 28  1  0
 28 29  2  0
 29 30  1  0
 27 31  1  0
 26 32  1  0
 25 33  1  0
  6 34  1  0
  6 35  1  0
  5 36  1  0
  5 37  1  0
  4 38  2  0
 38 39  1  0
 39 40  2  0
 39 41  1  0
 38 42  1  0
  3 43  1  0
 40  2  1  0
 23  7  1  0
 29 24  1  0
 12 10  1  0
 14 12  1  0
M  END
>  <cnnaffinity>  (1) 
-6.43808

>  <filename>  (1) 
Clc1cc(CCc2nc(C3CC34CC4)nn2-c2cccnc2)ccn1

$$$$
