
     RDKit          3D

 36 39  0  0  0  0  0  0  0  0999 V2000
    8.0556    2.7574   21.9611 Cl  0  0  0  0  0  0  0  0  0  0  0  0
    9.6349    2.2702   22.4859 C   0  0  0  0  0  0  0  0  0  0  0  0
   10.2275    2.9456   23.5481 C   0  0  0  0  0  0  0  0  0  0  0  0
   11.4766    2.5028   23.9670 C   0  0  0  0  0  0  0  0  0  0  0  0
   12.1283    1.4703   23.4316 N   0  0  0  0  0  0  0  0  0  0  0  0
   11.5320    0.8477   22.4138 C   0  0  0  0  0  0  0  0  0  0  0  0
   10.2917    1.1973   21.8712 C   0  0  0  0  0  0  0  0  0  0  0  0
    9.6235    0.3577   20.8037 C   0  0  0  0  0  0  0  0  0  0  0  0
    8.6055   -0.5727   21.3637 C   0  0  0  0  0  0  0  0  0  0  0  0
    8.8474   -1.4135   22.3474 N   0  0  0  0  0  0  0  0  0  0  0  0
    7.6392   -1.9971   22.5428 C   0  0  0  0  0  0  0  0  0  0  0  0
    7.4307   -3.0429   23.5694 C   0  0  0  0  0  0  0  0  0  0  0  0
    6.8806   -4.3780   23.1461 C   0  0  0  0  0  0  0  0  0  0  0  0
    8.3156   -4.2628   23.5802 C   0  0  0  0  0  0  0  0  0  0  0  0
    9.0953   -4.3079   22.8218 H   0  0  0  0  0  0  0  0  0  0  0  0
    8.6082   -4.6881   24.5383 H   0  0  0  0  0  0  0  0  0  0  0  0
    6.6693   -4.4943   22.0842 H   0  0  0  0  0  0  0  0  0  0  0  0
    6.1679   -4.8758   23.7991 H   0  0  0  0  0  0  0  0  0  0  0  0
    7.1222   -2.6385   24.5309 H   0  0  0  0  0  0  0  0  0  0  0  0
    6.6793   -1.5851   21.7338 N   0  0  0  0  0  0  0  0  0  0  0  0
    7.3212   -0.6979   20.9318 N   0  0  0  0  0  0  0  0  0  0  0  0
    6.6418   -0.0044   19.8977 C   0  0  0  0  0  0  0  0  0  0  0  0
    5.4331    0.6432   20.1652 C   0  0  0  0  0  0  0  0  0  0  0  0
    4.8126    1.3133   19.1094 C   0  0  0  0  0  0  0  0  0  0  0  0
    5.3988    1.2960   17.8376 C   0  0  0  0  0  0  0  0  0  0  0  0
    6.5556    0.6690   17.5753 N   0  0  0  0  0  0  0  0  0  0  0  0
    7.1618    0.0466   18.5907 C   0  0  0  0  0  0  0  0  0  0  0  0
    8.1117   -0.4327   18.3637 H   0  0  0  0  0  0  0  0  0  0  0  0
    4.9210    1.7864   16.9937 H   0  0  0  0  0  0  0  0  0  0  0  0
    3.8818    1.8408   19.2602 H   0  0  0  0  0  0  0  0  0  0  0  0
    5.0134    0.6037   21.1739 H   0  0  0  0  0  0  0  0  0  0  0  0
    9.1652    1.0196   20.0675 H   0  0  0  0  0  0  0  0  0  0  0  0
   10.3444   -0.2998   20.3141 H   0  0  0  0  0  0  0  0  0  0  0  0
   12.0590   -0.0091   21.9981 H   0  0  0  0  0  0  0  0  0  0  0  0
   11.9842    3.0067   24.7796 H   0  0  0  0  0  0  0  0  0  0  0  0
    9.7347    3.7841   24.0183 H   0  0  0  0  0  0  0  0  0  0  0  0
  1  2  1  0
  2  3  2  0
  3  4  1  0
  4  5  2  0
  5  6  1  0
  6  7  2  0
  7  8  1  0
  8  9  1  0
  9 10  2  0
 10 11  1  0
 11 12  1  0
 12 13  1  0
 13 14  1  0
 14 15  1  0
 14 16  1  0
 13 17  1  0
 13 18  1  0
 12 19  1  0
 11 20  2  0
 20 21  1  0
 21 22  1  0
 22 23  2  0
 23 24  1  0
 24 25  2  0
 25 26  1  0
 26 27  2  0
 27 28  1  0
 25 29  1  0
 24 30  1  0
 23 31  1  0
  8 32  1  0
  8 33  1  0
  6 34  1  0
  4 35  1  0
  3 36  1  0
  7  2  1  0
 21  9  1  0
 27 22  1  0
 14 12  1  0
M  END
>  <cnnaffinity>  (1) 
-5.97661

>  <filename>  (1) 
Clc1ccncc1Cc1nc(C2CC2)nn1-c1cccnc1

$$$$
