
     RDKit          3D

 43 46  0  0  0  0  0  0  0  0999 V2000
    5.0442    1.8456   16.9931 H   0  0  0  0  0  0  0  0  0  0  0  0
    5.4774    1.3153   17.8349 C   0  0  0  0  0  0  0  0  0  0  0  0
    6.6082    0.6366   17.5860 N   0  0  0  0  0  0  0  0  0  0  0  0
    7.1706   -0.0238   18.6066 C   0  0  0  0  0  0  0  0  0  0  0  0
    8.0885   -0.5595   18.3658 H   0  0  0  0  0  0  0  0  0  0  0  0
    6.6602   -0.0538   19.9378 C   0  0  0  0  0  0  0  0  0  0  0  0
    7.2572   -0.7911   20.9758 N   0  0  0  0  0  0  0  0  0  0  0  0
    7.1999   -0.3687   22.3879 C   0  0  1  0  0  0  0  0  0  0  0  0
    6.1741   -0.1337   22.6934 H   0  0  0  0  0  0  0  0  0  0  0  0
    7.7123   -1.6420   23.0995 C   0  0  0  0  0  0  0  0  0  0  0  0
    6.8605   -2.2812   23.3466 H   0  0  0  0  0  0  0  0  0  0  0  0
    8.2229   -1.4182   24.0410 H   0  0  0  0  0  0  0  0  0  0  0  0
    8.6159   -2.3313   22.0411 C   0  0  0  0  0  0  0  0  0  0  0  0
    8.1520   -3.2669   21.7169 H   0  0  0  0  0  0  0  0  0  0  0  0
    9.6234   -2.5882   22.3805 H   0  0  0  0  0  0  0  0  0  0  0  0
    8.6117   -1.3523   20.8529 C   0  0  2  0  0  0  0  0  0  0  0  0
    8.7292   -1.8748   19.9078 H   0  0  0  0  0  0  0  0  0  0  0  0
    9.6612   -0.2229   20.9037 C   0  0  0  0  0  0  0  0  0  0  0  0
   10.6630   -0.6495   20.7663 H   0  0  0  0  0  0  0  0  0  0  0  0
    9.4768    0.4332   20.0415 H   0  0  0  0  0  0  0  0  0  0  0  0
    9.5845    0.6249   22.1931 C   0  0  2  0  0  0  0  0  0  0  0  0
   10.0157    1.6066   21.9730 H   0  0  0  0  0  0  0  0  0  0  0  0
   10.4669    0.0557   23.3347 C   0  0  0  0  0  0  0  0  0  0  0  0
   10.1981    0.5385   24.2814 H   0  0  0  0  0  0  0  0  0  0  0  0
   10.3278   -1.0154   23.4882 H   0  0  0  0  0  0  0  0  0  0  0  0
   11.9344    0.2996   23.0708 C   0  0  0  0  0  0  0  0  0  0  0  0
   12.7660   -0.7170   22.5698 C   0  0  0  0  0  0  0  0  0  0  0  0
   12.3373   -1.7059   22.3979 H   0  0  0  0  0  0  0  0  0  0  0  0
   14.1131   -0.4881   22.2836 C   0  0  0  0  0  0  0  0  0  0  0  0
   14.7232   -1.3120   21.9298 H   0  0  0  0  0  0  0  0  0  0  0  0
   14.6368    0.7974   22.4562 C   0  0  0  0  0  0  0  0  0  0  0  0
   15.6438    1.0307   22.1397 H   0  0  0  0  0  0  0  0  0  0  0  0
   13.8354    1.8327   22.9411 C   0  0  0  0  0  0  0  0  0  0  0  0
   14.2051    2.8488   23.0354 H   0  0  0  0  0  0  0  0  0  0  0  0
   12.5036    1.5745   23.2515 C   0  0  0  0  0  0  0  0  0  0  0  0
   11.5738    2.9267   23.8537 Cl  0  0  0  0  0  0  0  0  0  0  0  0
    8.1070    0.8683   22.5960 C   0  0  0  0  0  0  0  0  0  0  0  0
    7.7070    1.6880   21.9803 H   0  0  0  0  0  0  0  0  0  0  0  0
    8.0553    1.1947   23.6434 H   0  0  0  0  0  0  0  0  0  0  0  0
    5.4484    0.6380   20.1523 C   0  0  0  0  0  0  0  0  0  0  0  0
    4.9689    0.6105   21.1280 H   0  0  0  0  0  0  0  0  0  0  0  0
    4.8598    1.3319   19.0895 C   0  0  0  0  0  0  0  0  0  0  0  0
    3.9343    1.8820   19.2223 H   0  0  0  0  0  0  0  0  0  0  0  0
  1  2  1  0
  2  3  2  0
  3  4  1  0
  4  5  1  0
  4  6  2  0
  6  7  1  0
  7  8  1  0
  8  9  1  1
  8 10  1  0
 10 11  1  0
 10 12  1  0
 10 13  1  0
 13 14  1  0
 13 15  1  0
 13 16  1  0
 16 17  1  6
 16 18  1  0
 18 19  1  0
 18 20  1  0
 18 21  1  0
 21 22  1  6
 21 23  1  0
 23 24  1  0
 23 25  1  0
 23 26  1  0
 26 27  2  0
 27 28  1  0
 27 29  1  0
 29 30  1  0
 29 31  2  0
 31 32  1  0
 31 33  1  0
 33 34  1  0
 33 35  2  0
 35 36  1  0
 21 37  1  0
 37 38  1  0
 37 39  1  0
  6 40  1  0
 40 41  1  0
 40 42  2  0
 42 43  1  0
 42  2  1  0
 16  7  1  0
 35 26  1  0
 37  8  1  0
M  END
>  <cnnaffinity>  (1) 
-6.30988

>  <filename>  (1) 
Clc1ccccc1C[C@H]1C[C@H]2CC[C@@H](C1)N2c1cccnc1

$$$$
