
     RDKit          3D

 38 40  0  0  0  0  0  0  0  0999 V2000
    4.8278    1.7315   16.9772 H   0  0  0  0  0  0  0  0  0  0  0  0
    5.3544    1.3005   17.8272 C   0  0  0  0  0  0  0  0  0  0  0  0
    6.5096    0.6726   17.5499 N   0  0  0  0  0  0  0  0  0  0  0  0
    7.1931    0.1606   18.5805 C   0  0  0  0  0  0  0  0  0  0  0  0
    8.1435   -0.3094   18.3339 H   0  0  0  0  0  0  0  0  0  0  0  0
    6.8001    0.2173   19.9506 C   0  0  0  0  0  0  0  0  0  0  0  0
    7.6271   -0.2769   20.9777 N   0  0  0  0  0  0  0  0  0  0  0  0
    7.6250    0.2500   22.3399 C   0  0  0  0  0  0  0  0  0  0  0  0
    7.3869    1.3222   22.3018 H   0  0  0  0  0  0  0  0  0  0  0  0
    8.6571    0.1518   22.7023 H   0  0  0  0  0  0  0  0  0  0  0  0
    6.7181   -0.4210   23.4174 C   0  0  0  0  0  0  0  0  0  0  0  0
    7.1218   -0.1408   24.3973 H   0  0  0  0  0  0  0  0  0  0  0  0
    5.7325    0.0579   23.3557 H   0  0  0  0  0  0  0  0  0  0  0  0
    6.5599   -1.8728   23.4176 N   0  0  0  0  0  0  0  0  0  0  0  0
    7.1727   -2.6569   24.4294 C   0  0  0  0  0  0  0  0  0  0  0  0
    8.5622   -2.8594   24.4258 C   0  0  0  0  0  0  0  0  0  0  0  0
    9.1286   -2.4292   23.6075 H   0  0  0  0  0  0  0  0  0  0  0  0
    9.2023   -3.5819   25.4345 C   0  0  0  0  0  0  0  0  0  0  0  0
   10.2794   -3.7262   25.4124 H   0  0  0  0  0  0  0  0  0  0  0  0
    8.4532   -4.1225   26.4796 C   0  0  0  0  0  0  0  0  0  0  0  0
    8.9188   -4.6753   27.2913 H   0  0  0  0  0  0  0  0  0  0  0  0
    7.0697   -3.9297   26.5111 C   0  0  0  0  0  0  0  0  0  0  0  0
    6.2029   -4.5943   27.8583 Cl  0  0  0  0  0  0  0  0  0  0  0  0
    6.4147   -3.2155   25.4906 C   0  0  0  0  0  0  0  0  0  0  0  0
    4.6956   -2.9994   25.5323 Cl  0  0  0  0  0  0  0  0  0  0  0  0
    6.1550   -2.5067   22.1700 C   0  0  0  0  0  0  0  0  0  0  0  0
    5.6322   -3.4483   22.4054 H   0  0  0  0  0  0  0  0  0  0  0  0
    5.4393   -1.8421   21.6607 H   0  0  0  0  0  0  0  0  0  0  0  0
    7.3020   -2.7936   21.1840 C   0  0  0  0  0  0  0  0  0  0  0  0
    7.9218   -3.6128   21.5649 H   0  0  0  0  0  0  0  0  0  0  0  0
    6.8291   -3.1501   20.2631 H   0  0  0  0  0  0  0  0  0  0  0  0
    8.2323   -1.5945   20.8537 C   0  0  0  0  0  0  0  0  0  0  0  0
    8.6143   -1.6937   19.8330 H   0  0  0  0  0  0  0  0  0  0  0  0
    9.1279   -1.5941   21.4919 H   0  0  0  0  0  0  0  0  0  0  0  0
    5.5683    0.8627   20.1984 C   0  0  0  0  0  0  0  0  0  0  0  0
    5.1995    0.9371   21.2179 H   0  0  0  0  0  0  0  0  0  0  0  0
    4.8435    1.4018   19.1249 C   0  0  0  0  0  0  0  0  0  0  0  0
    3.8982    1.9114   19.2836 H   0  0  0  0  0  0  0  0  0  0  0  0
  1  2  1  0
  2  3  2  0
  3  4  1  0
  4  5  1  0
  4  6  2  0
  6  7  1  0
  7  8  1  0
  8  9  1  0
  8 10  1  0
  8 11  1  0
 11 12  1  0
 11 13  1  0
 11 14  1  0
 14 15  1  0
 15 16  2  0
 16 17  1  0
 16 18  1  0
 18 19  1  0
 18 20  2  0
 20 21  1  0
 20 22  1  0
 22 23  1  0
 22 24  2  0
 24 25  1  0
 14 26  1  0
 26 27  1  0
 26 28  1  0
 26 29  1  0
 29 30  1  0
 29 31  1  0
 29 32  1  0
 32 33  1  0
 32 34  1  0
  6 35  1  0
 35 36  1  0
 35 37  2  0
 37 38  1  0
 37  2  1  0
 32  7  1  0
 24 15  1  0
M  END
>  <cnnaffinity>  (1) 
-5.42588

>  <filename>  (1) 
Clc1cccc(N2CCCN(c3cccnc3)CC2)c1Cl

$$$$
