
     RDKit          3D

 27 28  0  0  0  0  0  0  0  0999 V2000
    4.9156    1.7876   16.9893 H   0  0  0  0  0  0  0  0  0  0  0  0
    5.3986    1.2984   17.8317 C   0  0  0  0  0  0  0  0  0  0  0  0
    6.5632    0.6866   17.5669 N   0  0  0  0  0  0  0  0  0  0  0  0
    7.1598    0.0635   18.5890 C   0  0  0  0  0  0  0  0  0  0  0  0
    8.1129   -0.4165   18.3671 H   0  0  0  0  0  0  0  0  0  0  0  0
    6.6396   -0.0218   19.8930 C   0  0  0  0  0  0  0  0  0  0  0  0
    7.4193   -0.7013   20.9962 C   0  0  0  0  0  0  0  0  0  0  0  0
    7.8746   -1.6246   20.6127 H   0  0  0  0  0  0  0  0  0  0  0  0
    6.7370   -0.9968   21.8018 H   0  0  0  0  0  0  0  0  0  0  0  0
    8.5282    0.2070   21.5859 C   0  0  0  0  0  0  0  0  0  0  0  0
    9.2081    0.4987   20.7745 H   0  0  0  0  0  0  0  0  0  0  0  0
    9.1226   -0.3657   22.3065 H   0  0  0  0  0  0  0  0  0  0  0  0
    7.9787    1.4542   22.2479 C   0  0  0  0  0  0  0  0  0  0  0  0
    7.9087    2.6605   21.5358 C   0  0  0  0  0  0  0  0  0  0  0  0
    8.3101    2.6377   20.5282 H   0  0  0  0  0  0  0  0  0  0  0  0
    7.3417    3.8156   22.0792 C   0  0  0  0  0  0  0  0  0  0  0  0
    7.3001    4.7392   21.5014 H   0  0  0  0  0  0  0  0  0  0  0  0
    6.8304    3.7793   23.3795 C   0  0  0  0  0  0  0  0  0  0  0  0
    6.4001    4.6716   23.8242 H   0  0  0  0  0  0  0  0  0  0  0  0
    6.8724    2.5933   24.1163 C   0  0  0  0  0  0  0  0  0  0  0  0
    6.4831    2.5383   25.1288 H   0  0  0  0  0  0  0  0  0  0  0  0
    7.4344    1.4512   23.5429 C   0  0  0  0  0  0  0  0  0  0  0  0
    7.4439   -0.0137   24.4845 Cl  0  0  0  0  0  0  0  0  0  0  0  0
    5.4273    0.6381   20.1479 C   0  0  0  0  0  0  0  0  0  0  0  0
    5.0111    0.6336   21.1605 H   0  0  0  0  0  0  0  0  0  0  0  0
    4.8005    1.3126   19.0971 C   0  0  0  0  0  0  0  0  0  0  0  0
    3.8681    1.8490   19.2515 H   0  0  0  0  0  0  0  0  0  0  0  0
  1  2  1  0
  2  3  2  0
  3  4  1  0
  4  5  1  0
  4  6  2  0
  6  7  1  0
  7  8  1  0
  7  9  1  0
  7 10  1  0
 10 11  1  0
 10 12  1  0
 10 13  1  0
 13 14  2  0
 14 15  1  0
 14 16  1  0
 16 17  1  0
 16 18  2  0
 18 19  1  0
 18 20  1  0
 20 21  1  0
 20 22  2  0
 22 23  1  0
  6 24  1  0
 24 25  1  0
 24 26  2  0
 26 27  1  0
 26  2  1  0
 22 13  1  0
M  END
>  <cnnaffinity>  (1) 
-4.37694

>  <filename>  (1) 
Clc1ccccc1CCc1cccnc1

$$$$
