
     RDKit          3D

 31 33  0  0  0  0  0  0  0  0999 V2000
    5.0504    1.7748   16.9442 H   0  0  0  0  0  0  0  0  0  0  0  0
    5.4560    1.3010   17.8348 C   0  0  0  0  0  0  0  0  0  0  0  0
    6.6231    0.6569   17.6676 N   0  0  0  0  0  0  0  0  0  0  0  0
    7.1540    0.0542   18.7364 C   0  0  0  0  0  0  0  0  0  0  0  0
    8.1067   -0.4617   18.5946 H   0  0  0  0  0  0  0  0  0  0  0  0
    6.5616    0.0651   20.0185 C   0  0  0  0  0  0  0  0  0  0  0  0
    7.1686   -0.6669   21.0845 N   0  0  0  0  0  0  0  0  0  0  0  0
    7.6079   -0.2348   22.3274 C   0  0  0  0  0  0  0  0  0  0  0  0
    7.3288    1.0805   22.9945 C   0  0  0  0  0  0  0  0  0  0  0  0
    6.6501    0.8657   23.8308 H   0  0  0  0  0  0  0  0  0  0  0  0
    6.8252    1.7693   22.3172 H   0  0  0  0  0  0  0  0  0  0  0  0
    8.6033    1.6973   23.5370 C   0  0  0  0  0  0  0  0  0  0  0  0
    8.9494    1.5184   24.8819 C   0  0  0  0  0  0  0  0  0  0  0  0
    8.2130    1.0636   25.5410 H   0  0  0  0  0  0  0  0  0  0  0  0
   10.2136    1.8614   25.3621 C   0  0  0  0  0  0  0  0  0  0  0  0
   10.4664    1.6540   26.3953 H   0  0  0  0  0  0  0  0  0  0  0  0
   11.1456    2.4489   24.5017 C   0  0  0  0  0  0  0  0  0  0  0  0
   12.1392    2.6860   24.8709 H   0  0  0  0  0  0  0  0  0  0  0  0
   10.8024    2.7102   23.1726 C   0  0  0  0  0  0  0  0  0  0  0  0
   11.4989    3.1976   22.4995 H   0  0  0  0  0  0  0  0  0  0  0  0
    9.5432    2.3185   22.7015 C   0  0  0  0  0  0  0  0  0  0  0  0
    9.1574    2.5301   21.0254 Cl  0  0  0  0  0  0  0  0  0  0  0  0
    8.2420   -1.1898   22.9652 N   0  0  0  0  0  0  0  0  0  0  0  0
    8.2006   -2.2902   22.1545 C   0  0  0  0  0  0  0  0  0  0  0  0
    8.6530   -3.2250   22.4655 H   0  0  0  0  0  0  0  0  0  0  0  0
    7.5349   -1.9997   21.0016 C   0  0  0  0  0  0  0  0  0  0  0  0
    7.1959   -2.6057   20.1769 H   0  0  0  0  0  0  0  0  0  0  0  0
    5.3551    0.7639   20.1863 C   0  0  0  0  0  0  0  0  0  0  0  0
    4.8789    0.8098   21.1690 H   0  0  0  0  0  0  0  0  0  0  0  0
    4.7877    1.3786   19.0623 C   0  0  0  0  0  0  0  0  0  0  0  0
    3.8578    1.9343   19.1348 H   0  0  0  0  0  0  0  0  0  0  0  0
  1  2  1  0
  2  3  2  0
  3  4  1  0
  4  5  1  0
  4  6  2  0
  6  7  1  0
  7  8  1  0
  8  9  1  0
  9 10  1  0
  9 11  1  0
  9 12  1  0
 12 13  2  0
 13 14  1  0
 13 15  1  0
 15 16  1  0
 15 17  2  0
 17 18  1  0
 17 19  1  0
 19 20  1  0
 19 21  2  0
 21 22  1  0
  8 23  2  0
 23 24  1  0
 24 25  1  0
 24 26  2  0
 26 27  1  0
  6 28  1  0
 28 29  1  0
 28 30  2  0
 30 31  1  0
 30  2  1  0
 26  7  1  0
 21 12  1  0
M  END
>  <cnnaffinity>  (1) 
-5.48588

>  <filename>  (1) 
Clc1ccccc1Cc1nccn1-c1cccnc1

$$$$
