
     RDKit          3D

 39 42  0  0  0  0  0  0  0  0999 V2000
    4.2736    1.5046   28.0598 Cl  0  0  0  0  0  0  0  0  0  0  0  0
    5.6865    2.0561   27.2123 C   0  0  0  0  0  0  0  0  0  0  0  0
    5.9760    1.5005   25.9553 C   0  0  0  0  0  0  0  0  0  0  0  0
    7.1205    1.9597   25.2715 C   0  0  0  0  0  0  0  0  0  0  0  0
    7.5620    1.4490   23.9265 C   0  0  0  0  0  0  0  0  0  0  0  0
    6.9510    0.4997   23.2355 N   0  0  0  0  0  0  0  0  0  0  0  0
    7.7433    0.3425   22.1474 N   0  0  0  0  0  0  0  0  0  0  0  0
    7.3862   -0.6053   21.0949 C   0  0  0  0  0  0  0  0  0  0  0  0
    6.6841    0.0450   19.9186 C   0  0  0  0  0  0  0  0  0  0  0  0
    5.4698    0.7127   20.1171 C   0  0  0  0  0  0  0  0  0  0  0  0
    4.8656    1.3326   19.0234 C   0  0  0  0  0  0  0  0  0  0  0  0
    5.4899    1.2646   17.7753 C   0  0  0  0  0  0  0  0  0  0  0  0
    6.6429    0.6149   17.5614 N   0  0  0  0  0  0  0  0  0  0  0  0
    7.2134    0.0243   18.6195 C   0  0  0  0  0  0  0  0  0  0  0  0
    8.1414   -0.5114   18.4118 H   0  0  0  0  0  0  0  0  0  0  0  0
    5.0441    1.7531   16.9110 H   0  0  0  0  0  0  0  0  0  0  0  0
    3.9363    1.8775   19.1262 H   0  0  0  0  0  0  0  0  0  0  0  0
    5.0211    0.7447   21.1127 H   0  0  0  0  0  0  0  0  0  0  0  0
    6.7436   -1.3501   21.5751 H   0  0  0  0  0  0  0  0  0  0  0  0
    8.2899   -1.1307   20.7635 H   0  0  0  0  0  0  0  0  0  0  0  0
    8.7720    1.2098   22.2190 C   0  0  0  0  0  0  0  0  0  0  0  0
    9.9201    1.2675   21.2566 C   0  0  0  0  0  0  0  0  0  0  0  0
   11.0552    0.3384   21.6030 C   0  0  0  0  0  0  0  0  0  0  0  0
   11.9932    0.3852   22.6048 C   0  0  0  0  0  0  0  0  0  0  0  0
   12.8252   -0.7051   22.5505 N   0  0  0  0  0  0  0  0  0  0  0  0
   12.4015   -1.4124   21.5381 C   0  0  0  0  0  0  0  0  0  0  0  0
   11.3162   -0.8407   20.9469 N   0  0  0  0  0  0  0  0  0  0  0  0
   10.9009   -1.1709   20.0894 H   0  0  0  0  0  0  0  0  0  0  0  0
   12.8414   -2.3303   21.1766 H   0  0  0  0  0  0  0  0  0  0  0  0
   12.1365    1.1539   23.3519 H   0  0  0  0  0  0  0  0  0  0  0  0
   10.2792    2.2987   21.2901 H   0  0  0  0  0  0  0  0  0  0  0  0
    9.5523    1.0826   20.2442 H   0  0  0  0  0  0  0  0  0  0  0  0
    8.6891    1.9219   23.3197 N   0  0  0  0  0  0  0  0  0  0  0  0
    7.8975    2.9408   25.9302 C   0  0  0  0  0  0  0  0  0  0  0  0
    7.5077    3.4012   27.1844 C   0  0  0  0  0  0  0  0  0  0  0  0
    6.4120    2.9774   27.8292 N   0  0  0  0  0  0  0  0  0  0  0  0
    8.1099    4.1465   27.6971 H   0  0  0  0  0  0  0  0  0  0  0  0
    8.8005    3.3186   25.4658 H   0  0  0  0  0  0  0  0  0  0  0  0
    5.3305    0.7211   25.5606 H   0  0  0  0  0  0  0  0  0  0  0  0
  1  2  1  0
  2  3  2  0
  3  4  1  0
  4  5  1  0
  5  6  2  0
  6  7  1  0
  7  8  1  0
  8  9  1  0
  9 10  2  0
 10 11  1  0
 11 12  2  0
 12 13  1  0
 13 14  2  0
 14 15  1  0
 12 16  1  0
 11 17  1  0
 10 18  1  0
  8 19  1  0
  8 20  1  0
  7 21  1  0
 21 22  1  0
 22 23  1  0
 23 24  2  0
 24 25  1  0
 25 26  2  0
 26 27  1  0
 27 28  1  0
 26 29  1  0
 24 30  1  0
 22 31  1  0
 22 32  1  0
 21 33  2  0
  4 34  2  0
 34 35  1  0
 35 36  2  0
 35 37  1  0
 34 38  1  0
  3 39  1  0
 36  2  1  0
 33  5  1  0
 14  9  1  0
 27 23  1  0
M  END
>  <cnnaffinity>  (1) 
-5.96372

>  <filename>  (1) 
Clc1cc(-c2nc(Cc3cnc[nH]3)n(Cc3cccnc3)n2)ccn1

$$$$
