
     RDKit          3D

 31 34  0  0  0  0  0  0  0  0999 V2000
    4.9515    1.8065   16.9549 H   0  0  0  0  0  0  0  0  0  0  0  0
    5.4091    1.2969   17.8023 C   0  0  0  0  0  0  0  0  0  0  0  0
    6.5589    0.6522   17.5529 N   0  0  0  0  0  0  0  0  0  0  0  0
    7.1466    0.0313   18.5763 C   0  0  0  0  0  0  0  0  0  0  0  0
    8.0734   -0.4981   18.3633 H   0  0  0  0  0  0  0  0  0  0  0  0
    6.6405    0.0347   19.8853 C   0  0  0  0  0  0  0  0  0  0  0  0
    7.4322   -0.6676   20.8972 C   0  0  0  0  0  0  0  0  0  0  0  0
    8.2900   -1.6363   20.6700 N   0  0  0  0  0  0  0  0  0  0  0  0
    8.8116   -2.0666   21.8715 N   0  0  0  0  0  0  0  0  0  0  0  0
    8.2541   -1.3200   22.7883 C   0  0  0  0  0  0  0  0  0  0  0  0
    8.3671   -1.0540   24.5163 S   0  0  0  0  0  0  0  0  0  0  0  0
    7.2618    0.2976   24.2834 C   0  0  0  0  0  0  0  0  0  0  0  0
    6.8381    1.1575   25.2419 N   0  0  0  0  0  0  0  0  0  0  0  0
    6.2782    1.8629   24.7829 H   0  0  0  0  0  0  0  0  0  0  0  0
    6.7718    0.9647   26.6322 C   0  0  0  0  0  0  0  0  0  0  0  0
    6.3017   -0.2305   27.1939 C   0  0  0  0  0  0  0  0  0  0  0  0
    5.9596   -1.0480   26.5604 H   0  0  0  0  0  0  0  0  0  0  0  0
    6.2754   -0.3725   28.5827 C   0  0  0  0  0  0  0  0  0  0  0  0
    5.8825   -1.2795   29.0358 H   0  0  0  0  0  0  0  0  0  0  0  0
    6.7857    0.6434   29.3994 C   0  0  0  0  0  0  0  0  0  0  0  0
    6.8729    0.3748   31.1180 Cl  0  0  0  0  0  0  0  0  0  0  0  0
    7.2427    1.8464   28.8473 C   0  0  0  0  0  0  0  0  0  0  0  0
    7.6452    2.6288   29.4823 H   0  0  0  0  0  0  0  0  0  0  0  0
    7.2024    2.0092   27.4569 C   0  0  0  0  0  0  0  0  0  0  0  0
    7.5170    2.9298   26.9747 H   0  0  0  0  0  0  0  0  0  0  0  0
    6.8489    0.5382   23.0736 N   0  0  0  0  0  0  0  0  0  0  0  0
    7.3854   -0.4227   22.2507 N   0  0  0  0  0  0  0  0  0  0  0  0
    5.4257    0.6922   20.1369 C   0  0  0  0  0  0  0  0  0  0  0  0
    4.9893    0.7154   21.1374 H   0  0  0  0  0  0  0  0  0  0  0  0
    4.8014    1.3263   19.0625 C   0  0  0  0  0  0  0  0  0  0  0  0
    3.8611    1.8509   19.1847 H   0  0  0  0  0  0  0  0  0  0  0  0
  1  2  1  0
  2  3  2  0
  3  4  1  0
  4  5  1  0
  4  6  2  0
  6  7  1  0
  7  8  2  0
  8  9  1  0
  9 10  2  0
 10 11  1  0
 11 12  1  0
 12 13  1  0
 13 14  1  0
 13 15  1  0
 15 16  2  0
 16 17  1  0
 16 18  1  0
 18 19  1  0
 18 20  2  0
 20 21  1  0
 20 22  1  0
 22 23  1  0
 22 24  2  0
 24 25  1  0
 12 26  2  0
 26 27  1  0
  6 28  1  0
 28 29  1  0
 28 30  2  0
 30 31  1  0
 30  2  1  0
 27  7  1  0
 27 10  1  0
 24 15  1  0
M  END
>  <cnnaffinity>  (1) 
-5.31349

>  <filename>  (1) 
Clc1ccc(Nc2nn3c(-c4cccnc4)nnc3s2)cc1

$$$$
