
     RDKit          3D

 38 41  0  0  0  0  0  0  0  0999 V2000
    9.5111    2.1513   20.9975 Cl  0  0  0  0  0  0  0  0  0  0  0  0
    9.6296    2.1454   22.7149 C   0  0  0  0  0  0  0  0  0  0  0  0
   10.8665    2.4635   23.2825 C   0  0  0  0  0  0  0  0  0  0  0  0
   11.0246    2.3049   24.6552 C   0  0  0  0  0  0  0  0  0  0  0  0
    9.9548    1.8748   25.4390 C   0  0  0  0  0  0  0  0  0  0  0  0
    8.7143    1.6189   24.8522 C   0  0  0  0  0  0  0  0  0  0  0  0
    8.5180    1.7534   23.4739 C   0  0  0  0  0  0  0  0  0  0  0  0
    7.2253    1.2798   22.8091 C   0  0  0  0  0  0  0  0  0  0  0  0
    7.4117   -0.1105   22.2690 C   0  0  0  0  0  0  0  0  0  0  0  0
    7.9166   -1.0801   23.0119 N   0  0  0  0  0  0  0  0  0  0  0  0
    8.1719   -2.0584   22.1174 C   0  0  0  0  0  0  0  0  0  0  0  0
    8.9451   -3.2682   22.4726 C   0  0  0  0  0  0  0  0  0  0  0  0
    8.4608   -4.1368   23.6587 C   0  0  0  0  0  0  0  0  0  0  0  0
   10.1086   -4.0731   24.4458 S   0  0  0  0  0  0  0  0  0  0  0  0
   10.3538   -2.9397   23.0427 C   0  0  0  0  0  0  0  0  0  0  0  0
   10.4710   -1.9085   23.3913 H   0  0  0  0  0  0  0  0  0  0  0  0
   11.2051   -3.1784   22.4038 H   0  0  0  0  0  0  0  0  0  0  0  0
    7.6501   -3.7110   24.2574 H   0  0  0  0  0  0  0  0  0  0  0  0
    8.1582   -5.1437   23.3597 H   0  0  0  0  0  0  0  0  0  0  0  0
    8.9867   -3.8540   21.5595 H   0  0  0  0  0  0  0  0  0  0  0  0
    7.8369   -1.7882   20.8749 N   0  0  0  0  0  0  0  0  0  0  0  0
    7.2847   -0.5490   20.9774 N   0  0  0  0  0  0  0  0  0  0  0  0
    6.6043    0.0305   19.8791 C   0  0  0  0  0  0  0  0  0  0  0  0
    5.3770    0.6701   20.0818 C   0  0  0  0  0  0  0  0  0  0  0  0
    4.7922    1.3214   18.9950 C   0  0  0  0  0  0  0  0  0  0  0  0
    5.4400    1.2900   17.7567 C   0  0  0  0  0  0  0  0  0  0  0  0
    6.5780    0.6035   17.5407 N   0  0  0  0  0  0  0  0  0  0  0  0
    7.1361   -0.0297   18.5783 C   0  0  0  0  0  0  0  0  0  0  0  0
    8.0459   -0.5982   18.3832 H   0  0  0  0  0  0  0  0  0  0  0  0
    5.0296    1.8312   16.9069 H   0  0  0  0  0  0  0  0  0  0  0  0
    3.8642    1.8663   19.1142 H   0  0  0  0  0  0  0  0  0  0  0  0
    4.9049    0.6445   21.0632 H   0  0  0  0  0  0  0  0  0  0  0  0
    6.4217    1.2299   23.5490 H   0  0  0  0  0  0  0  0  0  0  0  0
    6.9144    1.9790   22.0244 H   0  0  0  0  0  0  0  0  0  0  0  0
    7.8885    1.2681   25.4622 H   0  0  0  0  0  0  0  0  0  0  0  0
   10.0896    1.7258   26.4986 H   0  0  0  0  0  0  0  0  0  0  0  0
   11.9854    2.5079   25.1110 H   0  0  0  0  0  0  0  0  0  0  0  0
   11.6712    2.8221   22.6465 H   0  0  0  0  0  0  0  0  0  0  0  0
  1  2  1  0
  2  3  2  0
  3  4  1  0
  4  5  2  0
  5  6  1  0
  6  7  2  0
  7  8  1  0
  8  9  1  0
  9 10  2  0
 10 11  1  0
 11 12  1  0
 12 13  1  0
 13 14  1  0
 14 15  1  0
 15 16  1  0
 15 17  1  0
 13 18  1  0
 13 19  1  0
 12 20  1  0
 11 21  2  0
 21 22  1  0
 22 23  1  0
 23 24  2  0
 24 25  1  0
 25 26  2  0
 26 27  1  0
 27 28  2  0
 28 29  1  0
 26 30  1  0
 25 31  1  0
 24 32  1  0
  8 33  1  0
  8 34  1  0
  6 35  1  0
  5 36  1  0
  4 37  1  0
  3 38  1  0
  7  2  1  0
 22  9  1  0
 28 23  1  0
 15 12  1  0
M  END
>  <cnnaffinity>  (1) 
-6.09565

>  <filename>  (1) 
Clc1ccccc1Cc1nc(C2CSC2)nn1-c1cccnc1

$$$$
