
     RDKit          3D

 30 32  0  0  0  0  0  0  0  0999 V2000
    4.9111    1.7828   16.9940 H   0  0  0  0  0  0  0  0  0  0  0  0
    5.4010    1.2964   17.8351 C   0  0  0  0  0  0  0  0  0  0  0  0
    6.5660    0.6807   17.5727 N   0  0  0  0  0  0  0  0  0  0  0  0
    7.1706    0.0569   18.5933 C   0  0  0  0  0  0  0  0  0  0  0  0
    8.1191   -0.4312   18.3760 H   0  0  0  0  0  0  0  0  0  0  0  0
    6.6680    0.0051   19.9169 C   0  0  0  0  0  0  0  0  0  0  0  0
    7.3432   -0.6902   20.9478 N   0  0  0  0  0  0  0  0  0  0  0  0
    7.4107   -0.3756   22.3075 C   0  0  0  0  0  0  0  0  0  0  0  0
    7.0909    0.9779   22.8480 C   0  0  0  0  0  0  0  0  0  0  0  0
    6.1966    1.0800   23.9292 C   0  0  0  0  0  0  0  0  0  0  0  0
    5.7680    0.1720   24.3486 H   0  0  0  0  0  0  0  0  0  0  0  0
    5.8628    2.3189   24.4714 C   0  0  0  0  0  0  0  0  0  0  0  0
    5.1684    2.3774   25.3043 H   0  0  0  0  0  0  0  0  0  0  0  0
    6.4308    3.4838   23.9442 C   0  0  0  0  0  0  0  0  0  0  0  0
    6.1724    4.4527   24.3601 H   0  0  0  0  0  0  0  0  0  0  0  0
    7.3398    3.4085   22.8893 C   0  0  0  0  0  0  0  0  0  0  0  0
    7.7955    4.3055   22.4782 H   0  0  0  0  0  0  0  0  0  0  0  0
    7.6761    2.1608   22.3562 C   0  0  0  0  0  0  0  0  0  0  0  0
    8.8765    2.1243   21.1041 Cl  0  0  0  0  0  0  0  0  0  0  0  0
    7.7815   -1.3280   23.0737 N   0  0  0  0  0  0  0  0  0  0  0  0
    8.0667   -2.4900   22.2360 C   0  0  0  0  0  0  0  0  0  0  0  0
    9.0981   -2.8219   22.3884 H   0  0  0  0  0  0  0  0  0  0  0  0
    7.4113   -3.3191   22.5182 H   0  0  0  0  0  0  0  0  0  0  0  0
    7.8279   -2.0548   20.7817 C   0  0  0  0  0  0  0  0  0  0  0  0
    8.7532   -2.0664   20.1915 H   0  0  0  0  0  0  0  0  0  0  0  0
    7.0693   -2.6686   20.2778 H   0  0  0  0  0  0  0  0  0  0  0  0
    5.4500    0.6558   20.1678 C   0  0  0  0  0  0  0  0  0  0  0  0
    5.0194    0.6277   21.1712 H   0  0  0  0  0  0  0  0  0  0  0  0
    4.8120    1.3091   19.1068 C   0  0  0  0  0  0  0  0  0  0  0  0
    3.8778    1.8402   19.2621 H   0  0  0  0  0  0  0  0  0  0  0  0
  1  2  1  0
  2  3  2  0
  3  4  1  0
  4  5  1  0
  4  6  2  0
  6  7  1  0
  7  8  1  0
  8  9  1  0
  9 10  2  0
 10 11  1  0
 10 12  1  0
 12 13  1  0
 12 14  2  0
 14 15  1  0
 14 16  1  0
 16 17  1  0
 16 18  2  0
 18 19  1  0
  8 20  2  0
 20 21  1  0
 21 22  1  0
 21 23  1  0
 21 24  1  0
 24 25  1  0
 24 26  1  0
  6 27  1  0
 27 28  1  0
 27 29  2  0
 29 30  1  0
 29  2  1  0
 24  7  1  0
 18  9  1  0
M  END
>  <cnnaffinity>  (1) 
-4.42866

>  <filename>  (1) 
Clc1ccccc1C1=NCCN1c1cccnc1

$$$$
