
     RDKit          3D

 39 41  0  0  0  0  0  0  0  0999 V2000
    4.9082    1.7881   16.9886 H   0  0  0  0  0  0  0  0  0  0  0  0
    5.3948    1.3005   17.8296 C   0  0  0  0  0  0  0  0  0  0  0  0
    6.5585    0.6866   17.5607 N   0  0  0  0  0  0  0  0  0  0  0  0
    7.1733    0.0807   18.5809 C   0  0  0  0  0  0  0  0  0  0  0  0
    8.1119   -0.4254   18.3667 H   0  0  0  0  0  0  0  0  0  0  0  0
    6.6740    0.0053   19.9049 C   0  0  0  0  0  0  0  0  0  0  0  0
    7.3825   -0.7341   20.8842 N   0  0  0  0  0  0  0  0  0  0  0  0
    6.6463   -1.6016   21.8016 C   0  0  0  0  0  0  0  0  0  0  0  0
    6.3107   -1.0939   22.7284 H   0  0  0  0  0  0  0  0  0  0  0  0
    5.7383   -1.9318   21.2869 H   0  0  0  0  0  0  0  0  0  0  0  0
    7.5126   -2.8091   22.1550 C   0  0  0  0  0  0  0  0  0  0  0  0
    7.6784   -3.3916   21.2414 H   0  0  0  0  0  0  0  0  0  0  0  0
    6.9762   -3.4541   22.8571 H   0  0  0  0  0  0  0  0  0  0  0  0
    8.8540   -2.3558   22.7330 C   0  0  0  0  0  0  0  0  0  0  0  0
    8.6885   -1.8521   23.6947 H   0  0  0  0  0  0  0  0  0  0  0  0
    9.4925   -3.2196   22.9387 H   0  0  0  0  0  0  0  0  0  0  0  0
    9.5646   -1.4052   21.7634 C   0  0  0  0  0  0  0  0  0  0  0  0
    9.8340   -1.9523   20.8531 H   0  0  0  0  0  0  0  0  0  0  0  0
   10.5019   -1.0340   22.1883 H   0  0  0  0  0  0  0  0  0  0  0  0
    8.6812   -0.2206   21.3431 C   0  0  2  0  0  0  0  0  0  0  0  0
    9.1524    0.2476   20.4708 H   0  0  0  0  0  0  0  0  0  0  0  0
    8.5554    0.8879   22.4211 C   0  0  0  0  0  0  0  0  0  0  0  0
    7.7830    1.5907   22.0823 H   0  0  0  0  0  0  0  0  0  0  0  0
    8.1921    0.4428   23.3502 H   0  0  0  0  0  0  0  0  0  0  0  0
    9.8505    1.6424   22.6521 C   0  0  0  0  0  0  0  0  0  0  0  0
   10.2717    2.5744   21.6875 C   0  0  0  0  0  0  0  0  0  0  0  0
    9.6197    2.7498   20.8362 H   0  0  0  0  0  0  0  0  0  0  0  0
   11.4711    3.2763   21.8191 C   0  0  0  0  0  0  0  0  0  0  0  0
   11.7920    3.9965   21.0725 H   0  0  0  0  0  0  0  0  0  0  0  0
   12.2846    3.0615   22.9294 C   0  0  0  0  0  0  0  0  0  0  0  0
   13.2106    3.6160   23.0328 H   0  0  0  0  0  0  0  0  0  0  0  0
   11.9077    2.1320   23.8977 C   0  0  0  0  0  0  0  0  0  0  0  0
   12.5291    1.9340   24.7630 H   0  0  0  0  0  0  0  0  0  0  0  0
   10.7053    1.4357   23.7509 C   0  0  0  0  0  0  0  0  0  0  0  0
   10.3047    0.2803   24.9973 Cl  0  0  0  0  0  0  0  0  0  0  0  0
    5.4460    0.6484   20.1593 C   0  0  0  0  0  0  0  0  0  0  0  0
    5.0217    0.6202   21.1683 H   0  0  0  0  0  0  0  0  0  0  0  0
    4.8108    1.3122   19.1033 C   0  0  0  0  0  0  0  0  0  0  0  0
    3.8746    1.8412   19.2581 H   0  0  0  0  0  0  0  0  0  0  0  0
  1  2  1  0
  2  3  2  0
  3  4  1  0
  4  5  1  0
  4  6  2  0
  6  7  1  0
  7  8  1  0
  8  9  1  0
  8 10  1  0
  8 11  1  0
 11 12  1  0
 11 13  1  0
 11 14  1  0
 14 15  1  0
 14 16  1  0
 14 17  1  0
 17 18  1  0
 17 19  1  0
 17 20  1  0
 20 21  1  6
 20 22  1  0
 22 23  1  0
 22 24  1  0
 22 25  1  0
 25 26  2  0
 26 27  1  0
 26 28  1  0
 28 29  1  0
 28 30  2  0
 30 31  1  0
 30 32  1  0
 32 33  1  0
 32 34  2  0
 34 35  1  0
  6 36  1  0
 36 37  1  0
 36 38  2  0
 38 39  1  0
 38  2  1  0
 20  7  1  0
 34 25  1  0
M  END
>  <cnnaffinity>  (1) 
-5.68531

>  <filename>  (1) 
Clc1ccccc1C[C@H]1CCCCN1c1cccnc1

$$$$
