
     RDKit          3D

 38 40  0  0  0  0  0  0  0  0999 V2000
    4.8444    1.8077   16.9243 H   0  0  0  0  0  0  0  0  0  0  0  0
    5.3542    1.3598   17.7733 C   0  0  0  0  0  0  0  0  0  0  0  0
    6.5253    0.7608   17.5037 N   0  0  0  0  0  0  0  0  0  0  0  0
    7.1728    0.1910   18.5288 C   0  0  0  0  0  0  0  0  0  0  0  0
    8.0992   -0.3281   18.2849 H   0  0  0  0  0  0  0  0  0  0  0  0
    6.7299    0.2061   19.8775 C   0  0  0  0  0  0  0  0  0  0  0  0
    7.4647   -0.4627   20.8901 N   0  0  0  0  0  0  0  0  0  0  0  0
    7.6655   -1.9025   20.7491 C   0  0  0  0  0  0  0  0  0  0  0  0
    7.2146   -2.1785   19.7928 H   0  0  0  0  0  0  0  0  0  0  0  0
    8.7410   -2.1353   20.6987 H   0  0  0  0  0  0  0  0  0  0  0  0
    7.0219   -2.8288   21.8071 C   0  0  0  0  0  0  0  0  0  0  0  0
    5.9576   -2.5578   21.8937 H   0  0  0  0  0  0  0  0  0  0  0  0
    7.0721   -3.8569   21.4336 H   0  0  0  0  0  0  0  0  0  0  0  0
    7.6675   -2.7806   23.1025 N   0  0  0  0  0  0  0  0  0  0  0  0
    8.3370   -3.8841   23.6840 C   0  0  0  0  0  0  0  0  0  0  0  0
    9.7273   -3.7662   23.8701 C   0  0  0  0  0  0  0  0  0  0  0  0
   10.1992   -2.8961   23.4207 H   0  0  0  0  0  0  0  0  0  0  0  0
   10.4562   -4.6948   24.6140 C   0  0  0  0  0  0  0  0  0  0  0  0
   11.5384   -4.5989   24.6866 H   0  0  0  0  0  0  0  0  0  0  0  0
    9.7821   -5.7552   25.2274 C   0  0  0  0  0  0  0  0  0  0  0  0
   10.3177   -6.4407   25.8807 H   0  0  0  0  0  0  0  0  0  0  0  0
    8.4109   -5.9334   25.0167 C   0  0  0  0  0  0  0  0  0  0  0  0
    7.8816   -6.7364   25.5196 H   0  0  0  0  0  0  0  0  0  0  0  0
    7.6969   -5.0265   24.2192 C   0  0  0  0  0  0  0  0  0  0  0  0
    6.0048   -5.3282   23.9379 Cl  0  0  0  0  0  0  0  0  0  0  0  0
    7.4611   -1.6535   23.9992 C   0  0  0  0  0  0  0  0  0  0  0  0
    6.7455   -1.9341   24.7953 H   0  0  0  0  0  0  0  0  0  0  0  0
    8.4137   -1.4611   24.5176 H   0  0  0  0  0  0  0  0  0  0  0  0
    6.9845   -0.3559   23.3469 C   0  0  0  0  0  0  0  0  0  0  0  0
    6.9325    0.4027   24.1353 H   0  0  0  0  0  0  0  0  0  0  0  0
    5.9715   -0.4898   22.9837 H   0  0  0  0  0  0  0  0  0  0  0  0
    7.7973    0.1661   22.1602 C   0  0  0  0  0  0  0  0  0  0  0  0
    8.8732    0.0426   22.3634 H   0  0  0  0  0  0  0  0  0  0  0  0
    7.6194    1.2420   22.0479 H   0  0  0  0  0  0  0  0  0  0  0  0
    5.5011    0.8401   20.1256 C   0  0  0  0  0  0  0  0  0  0  0  0
    5.1062    0.8536   21.1395 H   0  0  0  0  0  0  0  0  0  0  0  0
    4.7989    1.4085   19.0555 C   0  0  0  0  0  0  0  0  0  0  0  0
    3.8385    1.8861   19.2069 H   0  0  0  0  0  0  0  0  0  0  0  0
  1  2  1  0
  2  3  2  0
  3  4  1  0
  4  5  1  0
  4  6  2  0
  6  7  1  0
  7  8  1  0
  8  9  1  0
  8 10  1  0
  8 11  1  0
 11 12  1  0
 11 13  1  0
 11 14  1  0
 14 15  1  0
 15 16  2  0
 16 17  1  0
 16 18  1  0
 18 19  1  0
 18 20  2  0
 20 21  1  0
 20 22  1  0
 22 23  1  0
 22 24  2  0
 24 25  1  0
 14 26  1  0
 26 27  1  0
 26 28  1  0
 26 29  1  0
 29 30  1  0
 29 31  1  0
 29 32  1  0
 32 33  1  0
 32 34  1  0
  6 35  1  0
 35 36  1  0
 35 37  2  0
 37 38  1  0
 37  2  1  0
 32  7  1  0
 24 15  1  0
M  END
>  <cnnaffinity>  (1) 
-5.19627

>  <filename>  (1) 
Clc1ccccc1N1CCCN(c2cccnc2)CC1

$$$$
