
     RDKit          3D

 26 28  0  0  0  0  0  0  0  0999 V2000
    4.9267    1.7966   16.9878 H   0  0  0  0  0  0  0  0  0  0  0  0
    5.3973    1.2983   17.8329 C   0  0  0  0  0  0  0  0  0  0  0  0
    6.5585    0.6818   17.5661 N   0  0  0  0  0  0  0  0  0  0  0  0
    7.1675    0.0641   18.5802 C   0  0  0  0  0  0  0  0  0  0  0  0
    8.1205   -0.4019   18.3443 H   0  0  0  0  0  0  0  0  0  0  0  0
    6.6653   -0.0028   19.9046 C   0  0  0  0  0  0  0  0  0  0  0  0
    7.3919   -0.7099   20.9813 C   0  0  0  0  0  0  0  0  0  0  0  0
    8.2381   -2.1799   20.8191 S   0  0  0  0  0  0  0  0  0  0  0  0
    8.6252   -2.2840   22.4492 N   0  0  0  0  0  0  0  0  0  0  0  0
    8.1742   -1.2830   23.0916 N   0  0  0  0  0  0  0  0  0  0  0  0
    7.5107   -0.3673   22.3254 C   0  0  0  0  0  0  0  0  0  0  0  0
    7.0142    0.8582   22.9707 C   0  0  0  0  0  0  0  0  0  0  0  0
    6.0924    0.7314   24.0158 C   0  0  0  0  0  0  0  0  0  0  0  0
    5.8210   -0.2695   24.3390 H   0  0  0  0  0  0  0  0  0  0  0  0
    5.5378    1.8624   24.6128 C   0  0  0  0  0  0  0  0  0  0  0  0
    4.8331    1.7500   25.4282 H   0  0  0  0  0  0  0  0  0  0  0  0
    5.9126    3.1364   24.1777 C   0  0  0  0  0  0  0  0  0  0  0  0
    5.5115    4.0381   24.6291 H   0  0  0  0  0  0  0  0  0  0  0  0
    6.8403    3.2763   23.1471 C   0  0  0  0  0  0  0  0  0  0  0  0
    7.2689    4.8826   22.6561 Cl  0  0  0  0  0  0  0  0  0  0  0  0
    7.4046    2.1413   22.5428 C   0  0  0  0  0  0  0  0  0  0  0  0
    8.5661    2.3259   21.2740 Cl  0  0  0  0  0  0  0  0  0  0  0  0
    5.4458    0.6485   20.1578 C   0  0  0  0  0  0  0  0  0  0  0  0
    5.0261    0.6288   21.1664 H   0  0  0  0  0  0  0  0  0  0  0  0
    4.8100    1.3064   19.1033 C   0  0  0  0  0  0  0  0  0  0  0  0
    3.8787    1.8394   19.2474 H   0  0  0  0  0  0  0  0  0  0  0  0
  1  2  1  0
  2  3  2  0
  3  4  1  0
  4  5  1  0
  4  6  2  0
  6  7  1  0
  7  8  1  0
  8  9  1  0
  9 10  2  0
 10 11  1  0
 11 12  1  0
 12 13  2  0
 13 14  1  0
 13 15  1  0
 15 16  1  0
 15 17  2  0
 17 18  1  0
 17 19  1  0
 19 20  1  0
 19 21  2  0
 21 22  1  0
  6 23  1  0
 23 24  1  0
 23 25  2  0
 25 26  1  0
 25  2  1  0
 11  7  2  0
 21 12  1  0
M  END
>  <cnnaffinity>  (1) 
-4.82052

>  <filename>  (1) 
Clc1cccc(-c2nnsc2-c2cccnc2)c1Cl

$$$$
