
     RDKit          3D

 30 32  0  0  0  0  0  0  0  0999 V2000
    4.9296    1.7741   16.9993 H   0  0  0  0  0  0  0  0  0  0  0  0
    5.4110    1.2863   17.8465 C   0  0  0  0  0  0  0  0  0  0  0  0
    6.5710    0.6649   17.6010 N   0  0  0  0  0  0  0  0  0  0  0  0
    7.1707    0.0534   18.6266 C   0  0  0  0  0  0  0  0  0  0  0  0
    8.1123   -0.4310   18.3763 H   0  0  0  0  0  0  0  0  0  0  0  0
    6.6469    0.0007   19.9246 C   0  0  0  0  0  0  0  0  0  0  0  0
    7.3714   -0.7221   21.0024 C   0  0  0  0  0  0  0  0  0  0  0  0
    6.6016   -1.3091   21.9281 N   0  0  0  0  0  0  0  0  0  0  0  0
    7.1827   -1.9658   22.9380 C   0  0  0  0  0  0  0  0  0  0  0  0
    6.3011   -2.5929   23.9817 C   0  0  0  0  0  0  0  0  0  0  0  0
    6.6151   -2.4391   25.3472 C   0  0  0  0  0  0  0  0  0  0  0  0
    7.4910   -1.8658   25.6438 H   0  0  0  0  0  0  0  0  0  0  0  0
    5.8155   -2.9891   26.3454 C   0  0  0  0  0  0  0  0  0  0  0  0
    6.0727   -2.8502   27.3924 H   0  0  0  0  0  0  0  0  0  0  0  0
    4.6806   -3.7247   26.0121 C   0  0  0  0  0  0  0  0  0  0  0  0
    4.0421   -4.1585   26.7753 H   0  0  0  0  0  0  0  0  0  0  0  0
    4.3551   -3.9141   24.6668 C   0  0  0  0  0  0  0  0  0  0  0  0
    2.9326   -4.8326   24.2971 Cl  0  0  0  0  0  0  0  0  0  0  0  0
    5.1634   -3.3624   23.6515 C   0  0  0  0  0  0  0  0  0  0  0  0
    4.7530   -3.6615   22.0003 Cl  0  0  0  0  0  0  0  0  0  0  0  0
    8.5856   -2.0599   23.0534 C   0  0  0  0  0  0  0  0  0  0  0  0
    9.0193   -2.6091   23.8787 H   0  0  0  0  0  0  0  0  0  0  0  0
    9.3946   -1.4504   22.0939 C   0  0  0  0  0  0  0  0  0  0  0  0
   10.4824   -1.5001   22.1602 H   0  0  0  0  0  0  0  0  0  0  0  0
    8.7733   -0.7666   21.0484 C   0  0  0  0  0  0  0  0  0  0  0  0
    9.3518   -0.2473   20.2945 H   0  0  0  0  0  0  0  0  0  0  0  0
    5.4281    0.6491   20.1677 C   0  0  0  0  0  0  0  0  0  0  0  0
    4.9956    0.6214   21.1705 H   0  0  0  0  0  0  0  0  0  0  0  0
    4.8082    1.3126   19.1097 C   0  0  0  0  0  0  0  0  0  0  0  0
    3.8752    1.8443   19.2559 H   0  0  0  0  0  0  0  0  0  0  0  0
  1  2  1  0
  2  3  2  0
  3  4  1  0
  4  5  1  0
  4  6  2  0
  6  7  1  0
  7  8  2  0
  8  9  1  0
  9 10  1  0
 10 11  2  0
 11 12  1  0
 11 13  1  0
 13 14  1  0
 13 15  2  0
 15 16  1  0
 15 17  1  0
 17 18  1  0
 17 19  2  0
 19 20  1  0
  9 21  2  0
 21 22  1  0
 21 23  1  0
 23 24  1  0
 23 25  2  0
 25 26  1  0
  6 27  1  0
 27 28  1  0
 27 29  2  0
 29 30  1  0
 29  2  1  0
 25  7  1  0
 19 10  1  0
M  END
>  <cnnaffinity>  (1) 
-5.0667

>  <filename>  (1) 
Clc1cccc(-c2cccc(-c3cccnc3)n2)c1Cl

$$$$
