
     RDKit          3D

 27 29  0  0  0  0  0  0  0  0999 V2000
    4.9196    1.7841   16.9938 H   0  0  0  0  0  0  0  0  0  0  0  0
    5.4025    1.2946   17.8381 C   0  0  0  0  0  0  0  0  0  0  0  0
    6.5651    0.6790   17.5768 N   0  0  0  0  0  0  0  0  0  0  0  0
    7.1705    0.0639   18.5970 C   0  0  0  0  0  0  0  0  0  0  0  0
    8.1155   -0.4230   18.3720 H   0  0  0  0  0  0  0  0  0  0  0  0
    6.6679    0.0039   19.9130 C   0  0  0  0  0  0  0  0  0  0  0  0
    7.3953   -0.7033   20.9861 C   0  0  0  0  0  0  0  0  0  0  0  0
    8.2499   -2.1792   20.7933 S   0  0  0  0  0  0  0  0  0  0  0  0
    8.6874   -2.3604   22.3742 N   0  0  0  0  0  0  0  0  0  0  0  0
    8.2335   -1.3397   23.0433 C   0  0  0  0  0  0  0  0  0  0  0  0
    8.4635   -1.2778   24.1053 H   0  0  0  0  0  0  0  0  0  0  0  0
    7.5027   -0.3553   22.3165 C   0  0  0  0  0  0  0  0  0  0  0  0
    7.0000    0.8811   22.9313 C   0  0  0  0  0  0  0  0  0  0  0  0
    6.0769    0.7703   23.9809 C   0  0  0  0  0  0  0  0  0  0  0  0
    5.7810   -0.2269   24.2972 H   0  0  0  0  0  0  0  0  0  0  0  0
    5.5391    1.9003   24.5827 C   0  0  0  0  0  0  0  0  0  0  0  0
    4.8200    1.7948   25.3869 H   0  0  0  0  0  0  0  0  0  0  0  0
    5.9349    3.1675   24.1527 C   0  0  0  0  0  0  0  0  0  0  0  0
    5.5308    4.0630   24.6060 H   0  0  0  0  0  0  0  0  0  0  0  0
    6.8739    3.3014   23.1271 C   0  0  0  0  0  0  0  0  0  0  0  0
    7.3360    4.8988   22.6439 Cl  0  0  0  0  0  0  0  0  0  0  0  0
    7.4200    2.1632   22.5162 C   0  0  0  0  0  0  0  0  0  0  0  0
    8.6211    2.3342   21.2788 Cl  0  0  0  0  0  0  0  0  0  0  0  0
    5.4461    0.6505   20.1625 C   0  0  0  0  0  0  0  0  0  0  0  0
    5.0113    0.6315   21.1643 H   0  0  0  0  0  0  0  0  0  0  0  0
    4.8067    1.3077   19.1056 C   0  0  0  0  0  0  0  0  0  0  0  0
    3.8745    1.8424   19.2555 H   0  0  0  0  0  0  0  0  0  0  0  0
  1  2  1  0
  2  3  2  0
  3  4  1  0
  4  5  1  0
  4  6  2  0
  6  7  1  0
  7  8  1  0
  8  9  1  0
  9 10  2  0
 10 11  1  0
 10 12  1  0
 12 13  1  0
 13 14  2  0
 14 15  1  0
 14 16  1  0
 16 17  1  0
 16 18  2  0
 18 19  1  0
 18 20  1  0
 20 21  1  0
 20 22  2  0
 22 23  1  0
  6 24  1  0
 24 25  1  0
 24 26  2  0
 26 27  1  0
 26  2  1  0
 12  7  2  0
 22 13  1  0
M  END
>  <cnnaffinity>  (1) 
-4.75402

>  <filename>  (1) 
Clc1cccc(-c2cnsc2-c2cccnc2)c1Cl

$$$$
