
     RDKit          3D

 27 29  0  0  0  0  0  0  0  0999 V2000
    4.9332    1.7923   16.9576 H   0  0  0  0  0  0  0  0  0  0  0  0
    5.4067    1.3254   17.8253 C   0  0  0  0  0  0  0  0  0  0  0  0
    6.5741    0.6992   17.6084 N   0  0  0  0  0  0  0  0  0  0  0  0
    7.1553    0.0972   18.6560 C   0  0  0  0  0  0  0  0  0  0  0  0
    8.1024   -0.3977   18.4529 H   0  0  0  0  0  0  0  0  0  0  0  0
    6.6324    0.0804   19.9695 C   0  0  0  0  0  0  0  0  0  0  0  0
    7.3075   -0.6410   21.0858 C   0  0  0  0  0  0  0  0  0  0  0  0
    7.7275   -2.0147   21.0592 C   0  0  0  0  0  0  0  0  0  0  0  0
    7.4909   -2.6986   20.2532 H   0  0  0  0  0  0  0  0  0  0  0  0
    8.3438   -2.4894   22.1044 N   0  0  0  0  0  0  0  0  0  0  0  0
    8.4443   -1.2892   23.2515 S   0  0  0  0  0  0  0  0  0  0  0  0
    7.5675   -0.1253   22.3398 C   0  0  0  0  0  0  0  0  0  0  0  0
    7.1594    1.1695   22.9335 C   0  0  0  0  0  0  0  0  0  0  0  0
    6.2882    1.1814   24.0397 C   0  0  0  0  0  0  0  0  0  0  0  0
    5.9632    0.2377   24.4714 H   0  0  0  0  0  0  0  0  0  0  0  0
    5.8253    2.3821   24.5693 C   0  0  0  0  0  0  0  0  0  0  0  0
    5.1298    2.3712   25.4031 H   0  0  0  0  0  0  0  0  0  0  0  0
    6.2316    3.5979   24.0197 C   0  0  0  0  0  0  0  0  0  0  0  0
    5.8516    4.5400   24.4075 H   0  0  0  0  0  0  0  0  0  0  0  0
    7.1149    3.6095   22.9394 C   0  0  0  0  0  0  0  0  0  0  0  0
    7.5664    5.1421   22.2697 Cl  0  0  0  0  0  0  0  0  0  0  0  0
    7.5941    2.4002   22.4002 C   0  0  0  0  0  0  0  0  0  0  0  0
    8.7329    2.4366   21.0998 Cl  0  0  0  0  0  0  0  0  0  0  0  0
    5.4293    0.7700   20.1723 C   0  0  0  0  0  0  0  0  0  0  0  0
    5.0014    0.8158   21.1745 H   0  0  0  0  0  0  0  0  0  0  0  0
    4.7961    1.3752   19.0814 C   0  0  0  0  0  0  0  0  0  0  0  0
    3.8399    1.8745   19.1851 H   0  0  0  0  0  0  0  0  0  0  0  0
  1  2  1  0
  2  3  2  0
  3  4  1  0
  4  5  1  0
  4  6  2  0
  6  7  1  0
  7  8  1  0
  8  9  1  0
  8 10  2  0
 10 11  1  0
 11 12  1  0
 12 13  1  0
 13 14  2  0
 14 15  1  0
 14 16  1  0
 16 17  1  0
 16 18  2  0
 18 19  1  0
 18 20  1  0
 20 21  1  0
 20 22  2  0
 22 23  1  0
  6 24  1  0
 24 25  1  0
 24 26  2  0
 26 27  1  0
 26  2  1  0
 12  7  2  0
 22 13  1  0
M  END
>  <cnnaffinity>  (1) 
-5.32258

>  <filename>  (1) 
Clc1cccc(-c2sncc2-c2cccnc2)c1Cl

$$$$
