
     RDKit          3D

 45 48  0  0  0  0  0  0  0  0999 V2000
    6.1533    1.7073   24.4105 Cl  0  0  0  0  0  0  0  0  0  0  0  0
    7.8810    1.5980   24.6223 C   0  0  0  0  0  0  0  0  0  0  0  0
    8.3750    1.1391   25.8457 C   0  0  0  0  0  0  0  0  0  0  0  0
    9.7544    1.0071   26.0270 C   0  0  0  0  0  0  0  0  0  0  0  0
   10.6405    1.4762   25.0564 C   0  0  0  0  0  0  0  0  0  0  0  0
   10.1517    1.9370   23.8312 C   0  0  0  0  0  0  0  0  0  0  0  0
    8.7676    1.9186   23.5678 C   0  0  0  0  0  0  0  0  0  0  0  0
    8.2307    2.2093   22.3546 O   0  0  0  0  0  0  0  0  0  0  0  0
    8.9982    2.0229   21.1686 C   0  0  0  0  0  0  0  0  0  0  0  0
    9.5427    0.5956   20.9364 C   0  0  0  0  0  0  0  0  0  0  0  0
    8.6347   -0.4738   21.4258 C   0  0  0  0  0  0  0  0  0  0  0  0
    8.8707   -1.3017   22.4214 N   0  0  0  0  0  0  0  0  0  0  0  0
    7.6720   -1.9071   22.6012 C   0  0  0  0  0  0  0  0  0  0  0  0
    7.4110   -2.8131   23.7571 C   0  0  0  0  0  0  0  0  0  0  0  0
    6.4989   -2.1992   24.8491 C   0  0  0  0  0  0  0  0  0  0  0  0
    5.8399   -3.4257   25.4861 C   0  0  0  0  0  0  0  0  0  0  0  0
    5.9770   -4.4963   24.5645 O   0  0  0  0  0  0  0  0  0  0  0  0
    6.6548   -4.0957   23.3906 C   0  0  0  0  0  0  0  0  0  0  0  0
    7.3237   -4.9140   23.0973 H   0  0  0  0  0  0  0  0  0  0  0  0
    5.9397   -3.9127   22.5738 H   0  0  0  0  0  0  0  0  0  0  0  0
    4.7756   -3.2532   25.6943 H   0  0  0  0  0  0  0  0  0  0  0  0
    6.3234   -3.7157   26.4282 H   0  0  0  0  0  0  0  0  0  0  0  0
    5.7409   -1.5566   24.3883 H   0  0  0  0  0  0  0  0  0  0  0  0
    7.0535   -1.5911   25.5696 H   0  0  0  0  0  0  0  0  0  0  0  0
    8.3856   -3.0621   24.1869 H   0  0  0  0  0  0  0  0  0  0  0  0
    6.7312   -1.5514   21.7420 N   0  0  0  0  0  0  0  0  0  0  0  0
    7.3688   -0.6405   20.9573 N   0  0  0  0  0  0  0  0  0  0  0  0
    6.6728    0.0068   19.8983 C   0  0  0  0  0  0  0  0  0  0  0  0
    5.4531    0.6400   20.1597 C   0  0  0  0  0  0  0  0  0  0  0  0
    4.8236    1.3066   19.1064 C   0  0  0  0  0  0  0  0  0  0  0  0
    5.4153    1.2969   17.8381 C   0  0  0  0  0  0  0  0  0  0  0  0
    6.5667    0.6613   17.5729 N   0  0  0  0  0  0  0  0  0  0  0  0
    7.1758    0.0331   18.5860 C   0  0  0  0  0  0  0  0  0  0  0  0
    8.1054   -0.4830   18.3465 H   0  0  0  0  0  0  0  0  0  0  0  0
    4.9426    1.8074   17.0016 H   0  0  0  0  0  0  0  0  0  0  0  0
    3.8882    1.8302   19.2599 H   0  0  0  0  0  0  0  0  0  0  0  0
    5.0335    0.6009   21.1655 H   0  0  0  0  0  0  0  0  0  0  0  0
    9.6897    0.4559   19.8663 H   0  0  0  0  0  0  0  0  0  0  0  0
   10.5074    0.4541   21.4294 H   0  0  0  0  0  0  0  0  0  0  0  0
    8.2994    2.2781   20.3737 H   0  0  0  0  0  0  0  0  0  0  0  0
    9.8241    2.7462   21.1396 H   0  0  0  0  0  0  0  0  0  0  0  0
   10.8415    2.3186   23.0836 H   0  0  0  0  0  0  0  0  0  0  0  0
   11.7109    1.5029   25.2454 H   0  0  0  0  0  0  0  0  0  0  0  0
   10.1315    0.5304   26.9240 H   0  0  0  0  0  0  0  0  0  0  0  0
    7.6761    0.9125   26.6552 H   0  0  0  0  0  0  0  0  0  0  0  0
  1  2  1  0
  2  3  2  0
  3  4  1  0
  4  5  2  0
  5  6  1  0
  6  7  2  0
  7  8  1  0
  8  9  1  0
  9 10  1  0
 10 11  1  0
 11 12  2  0
 12 13  1  0
 13 14  1  0
 14 15  1  0
 15 16  1  0
 16 17  1  0
 17 18  1  0
 18 19  1  0
 18 20  1  0
 16 21  1  0
 16 22  1  0
 15 23  1  0
 15 24  1  0
 14 25  1  0
 13 26  2  0
 26 27  1  0
 27 28  1  0
 28 29  2  0
 29 30  1  0
 30 31  2  0
 31 32  1  0
 32 33  2  0
 33 34  1  0
 31 35  1  0
 30 36  1  0
 29 37  1  0
 10 38  1  0
 10 39  1  0
  9 40  1  0
  9 41  1  0
  6 42  1  0
  5 43  1  0
  4 44  1  0
  3 45  1  0
  7  2  1  0
 27 11  1  0
 33 28  1  0
 18 14  1  0
M  END
>  <cnnaffinity>  (1) 
-5.82367

>  <filename>  (1) 
Clc1ccccc1OCCc1nc(C2CCOC2)nn1-c1cccnc1

$$$$
