
     RDKit          3D

 44 47  0  0  0  0  0  0  0  0999 V2000
    8.3191    3.7114   26.0118 Cl  0  0  0  0  0  0  0  0  0  0  0  0
    6.7074    3.0611   25.8434 C   0  0  0  0  0  0  0  0  0  0  0  0
    5.7734    3.7316   26.5010 N   0  0  0  0  0  0  0  0  0  0  0  0
    4.5141    3.2863   26.4177 C   0  0  0  0  0  0  0  0  0  0  0  0
    4.1530    2.1485   25.6957 C   0  0  0  0  0  0  0  0  0  0  0  0
    5.1545    1.4568   25.0109 C   0  0  0  0  0  0  0  0  0  0  0  0
    6.4802    1.9128   25.0494 C   0  0  0  0  0  0  0  0  0  0  0  0
    7.5329    1.2391   24.2122 C   0  0  0  0  0  0  0  0  0  0  0  0
    7.6444    1.8395   22.7811 C   0  0  0  0  0  0  0  0  0  0  0  0
    8.6251    1.0478   21.9803 C   0  0  0  0  0  0  0  0  0  0  0  0
    9.9367    1.1760   22.0955 N   0  0  0  0  0  0  0  0  0  0  0  0
   10.4083   -0.0113   21.6456 C   0  0  0  0  0  0  0  0  0  0  0  0
   11.8444   -0.4182   21.7430 C   0  0  0  0  0  0  0  0  0  0  0  0
   12.2527   -1.6685   21.2421 C   0  0  0  0  0  0  0  0  0  0  0  0
   13.6000   -2.0164   21.2668 C   0  0  0  0  0  0  0  0  0  0  0  0
   14.5322   -1.2346   21.8138 N   0  0  0  0  0  0  0  0  0  0  0  0
   14.1532   -0.0490   22.3054 C   0  0  0  0  0  0  0  0  0  0  0  0
   12.8381    0.4150   22.2929 C   0  0  0  0  0  0  0  0  0  0  0  0
   12.6238    1.4118   22.6712 H   0  0  0  0  0  0  0  0  0  0  0  0
   14.9538    0.5675   22.6993 H   0  0  0  0  0  0  0  0  0  0  0  0
   13.9588   -2.9277   20.7926 H   0  0  0  0  0  0  0  0  0  0  0  0
   11.4855   -2.3273   20.8661 H   0  0  0  0  0  0  0  0  0  0  0  0
    9.4654   -0.8355   21.2115 N   0  0  0  0  0  0  0  0  0  0  0  0
    8.3277   -0.1419   21.4104 N   0  0  0  0  0  0  0  0  0  0  0  0
    7.0398   -0.7134   21.0186 C   0  0  0  0  0  0  0  0  0  0  0  0
    6.3685    0.0279   19.8812 C   0  0  0  0  0  0  0  0  0  0  0  0
    5.1567    0.7127   20.0133 C   0  0  0  0  0  0  0  0  0  0  0  0
    4.6532    1.4155   18.9143 C   0  0  0  0  0  0  0  0  0  0  0  0
    5.3742    1.3941   17.7176 C   0  0  0  0  0  0  0  0  0  0  0  0
    6.5224    0.7172   17.5605 N   0  0  0  0  0  0  0  0  0  0  0  0
    6.9991    0.0649   18.6262 C   0  0  0  0  0  0  0  0  0  0  0  0
    7.9439   -0.4577   18.4828 H   0  0  0  0  0  0  0  0  0  0  0  0
    5.0169    1.9412   16.8461 H   0  0  0  0  0  0  0  0  0  0  0  0
    3.7388    1.9954   18.9780 H   0  0  0  0  0  0  0  0  0  0  0  0
    4.6238    0.7182   20.9661 H   0  0  0  0  0  0  0  0  0  0  0  0
    7.2602   -1.7433   20.7256 H   0  0  0  0  0  0  0  0  0  0  0  0
    6.3824   -0.7605   21.8972 H   0  0  0  0  0  0  0  0  0  0  0  0
    7.9972    2.8700   22.8418 H   0  0  0  0  0  0  0  0  0  0  0  0
    6.6651    1.8593   22.2906 H   0  0  0  0  0  0  0  0  0  0  0  0
    8.5133    1.2897   24.7031 H   0  0  0  0  0  0  0  0  0  0  0  0
    7.2896    0.1699   24.1266 H   0  0  0  0  0  0  0  0  0  0  0  0
    4.9166    0.5605   24.4357 H   0  0  0  0  0  0  0  0  0  0  0  0
    3.1199    1.8235   25.6733 H   0  0  0  0  0  0  0  0  0  0  0  0
    3.7706    3.8656   26.9622 H   0  0  0  0  0  0  0  0  0  0  0  0
  1  2  1  0
  2  3  2  0
  3  4  1  0
  4  5  2  0
  5  6  1  0
  6  7  2  0
  7  8  1  0
  8  9  1  0
  9 10  1  0
 10 11  2  0
 11 12  1  0
 12 13  1  0
 13 14  2  0
 14 15  1  0
 15 16  2  0
 16 17  1  0
 17 18  2  0
 18 19  1  0
 17 20  1  0
 15 21  1  0
 14 22  1  0
 12 23  2  0
 23 24  1  0
 24 25  1  0
 25 26  1  0
 26 27  2  0
 27 28  1  0
 28 29  2  0
 29 30  1  0
 30 31  2  0
 31 32  1  0
 29 33  1  0
 28 34  1  0
 27 35  1  0
 25 36  1  0
 25 37  1  0
  9 38  1  0
  9 39  1  0
  8 40  1  0
  8 41  1  0
  6 42  1  0
  5 43  1  0
  4 44  1  0
  7  2  1  0
 24 10  1  0
 31 26  1  0
 18 13  1  0
M  END
>  <cnnaffinity>  (1) 
-6.73768

>  <filename>  (1) 
Clc1ncccc1CCc1nc(-c2ccncc2)nn1Cc1cccnc1

$$$$
