
     RDKit          3D

 28 30  0  0  0  0  0  0  0  0999 V2000
    4.9147    1.7840   16.9904 H   0  0  0  0  0  0  0  0  0  0  0  0
    5.3983    1.2972   17.8293 C   0  0  0  0  0  0  0  0  0  0  0  0
    6.5610    0.6812   17.5594 N   0  0  0  0  0  0  0  0  0  0  0  0
    7.1694    0.0763   18.5848 C   0  0  0  0  0  0  0  0  0  0  0  0
    8.1082   -0.4248   18.3596 H   0  0  0  0  0  0  0  0  0  0  0  0
    6.6605    0.0220   19.8918 C   0  0  0  0  0  0  0  0  0  0  0  0
    7.3891   -0.6921   20.9553 C   0  0  0  0  0  0  0  0  0  0  0  0
    8.7461   -0.7668   21.0642 C   0  0  0  0  0  0  0  0  0  0  0  0
    9.4655   -0.3068   20.4103 H   0  0  0  0  0  0  0  0  0  0  0  0
    9.2515   -1.6438   22.4474 S   0  0  0  0  0  0  0  0  0  0  0  0
    7.6075   -1.9610   22.9116 C   0  0  0  0  0  0  0  0  0  0  0  0
    7.2134   -2.6974   24.1304 C   0  0  0  0  0  0  0  0  0  0  0  0
    6.1652   -2.1850   24.9264 C   0  0  0  0  0  0  0  0  0  0  0  0
    5.6720   -1.2709   24.6087 H   0  0  0  0  0  0  0  0  0  0  0  0
    5.7637   -2.8093   26.1059 C   0  0  0  0  0  0  0  0  0  0  0  0
    4.9545   -2.3896   26.7000 H   0  0  0  0  0  0  0  0  0  0  0  0
    6.4048   -3.9809   26.5187 C   0  0  0  0  0  0  0  0  0  0  0  0
    6.1040   -4.4772   27.4347 H   0  0  0  0  0  0  0  0  0  0  0  0
    7.4328   -4.5261   25.7483 C   0  0  0  0  0  0  0  0  0  0  0  0
    7.9381   -5.4397   26.0498 H   0  0  0  0  0  0  0  0  0  0  0  0
    7.8199   -3.8975   24.5608 C   0  0  0  0  0  0  0  0  0  0  0  0
    9.0527   -4.6790   23.6302 Cl  0  0  0  0  0  0  0  0  0  0  0  0
    6.7512   -1.3879   22.0168 C   0  0  0  0  0  0  0  0  0  0  0  0
    5.6731   -1.4858   22.0458 H   0  0  0  0  0  0  0  0  0  0  0  0
    5.4331    0.6553   20.1469 C   0  0  0  0  0  0  0  0  0  0  0  0
    5.0187    0.6369   21.1611 H   0  0  0  0  0  0  0  0  0  0  0  0
    4.8012    1.3159   19.0981 C   0  0  0  0  0  0  0  0  0  0  0  0
    3.8681    1.8467   19.2560 H   0  0  0  0  0  0  0  0  0  0  0  0
  1  2  1  0
  2  3  2  0
  3  4  1  0
  4  5  1  0
  4  6  2  0
  6  7  1  0
  7  8  2  0
  8  9  1  0
  8 10  1  0
 10 11  1  0
 11 12  1  0
 12 13  2  0
 13 14  1  0
 13 15  1  0
 15 16  1  0
 15 17  2  0
 17 18  1  0
 17 19  1  0
 19 20  1  0
 19 21  2  0
 21 22  1  0
 11 23  2  0
 23 24  1  0
  6 25  1  0
 25 26  1  0
 25 27  2  0
 27 28  1  0
 27  2  1  0
 23  7  1  0
 21 12  1  0
M  END
>  <cnnaffinity>  (1) 
-5.20927

>  <filename>  (1) 
Clc1ccccc1-c1cc(-c2cccnc2)cs1

$$$$
