
     RDKit          3D

 48 51  0  0  0  0  0  0  0  0999 V2000
   12.9997    1.0540   24.7249 Cl  0  0  0  0  0  0  0  0  0  0  0  0
   11.2786    1.2752   24.8175 C   0  0  0  0  0  0  0  0  0  0  0  0
   10.6012    0.9410   25.9882 C   0  0  0  0  0  0  0  0  0  0  0  0
    9.2169    1.1342   26.0408 C   0  0  0  0  0  0  0  0  0  0  0  0
    8.5241    1.5491   24.9060 C   0  0  0  0  0  0  0  0  0  0  0  0
    9.2103    1.8285   23.7186 C   0  0  0  0  0  0  0  0  0  0  0  0
    8.4358    2.1114   22.6358 O   0  0  0  0  0  0  0  0  0  0  0  0
    9.0111    2.0124   21.3406 C   0  0  0  0  0  0  0  0  0  0  0  0
    9.5304    0.6123   20.9598 C   0  0  0  0  0  0  0  0  0  0  0  0
    8.6323   -0.4742   21.4277 C   0  0  0  0  0  0  0  0  0  0  0  0
    8.8674   -1.3220   22.4098 N   0  0  0  0  0  0  0  0  0  0  0  0
    7.6642   -1.9323   22.5778 C   0  0  0  0  0  0  0  0  0  0  0  0
    7.4025   -2.8607   23.7373 C   0  0  0  0  0  0  0  0  0  0  0  0
    6.7269   -2.1046   24.9173 C   0  0  0  0  0  0  0  0  0  0  0  0
    6.3472   -3.0657   26.0427 C   0  0  0  0  0  0  0  0  0  0  0  0
    5.5481   -4.1374   25.5719 O   0  0  0  0  0  0  0  0  0  0  0  0
    6.1943   -4.9188   24.5824 C   0  0  0  0  0  0  0  0  0  0  0  0
    6.5582   -4.0947   23.3468 C   0  0  0  0  0  0  0  0  0  0  0  0
    7.1002   -4.7284   22.6343 H   0  0  0  0  0  0  0  0  0  0  0  0
    5.6404   -3.7508   22.8550 H   0  0  0  0  0  0  0  0  0  0  0  0
    7.1015   -5.3883   25.0027 H   0  0  0  0  0  0  0  0  0  0  0  0
    5.4963   -5.7210   24.3274 H   0  0  0  0  0  0  0  0  0  0  0  0
    5.7531   -2.5584   26.8081 H   0  0  0  0  0  0  0  0  0  0  0  0
    7.2546   -3.4564   26.5352 H   0  0  0  0  0  0  0  0  0  0  0  0
    5.8176   -1.6098   24.5566 H   0  0  0  0  0  0  0  0  0  0  0  0
    7.3925   -1.3240   25.3064 H   0  0  0  0  0  0  0  0  0  0  0  0
    8.3939   -3.1906   24.0699 H   0  0  0  0  0  0  0  0  0  0  0  0
    6.7252   -1.5489   21.7311 N   0  0  0  0  0  0  0  0  0  0  0  0
    7.3627   -0.6266   20.9650 N   0  0  0  0  0  0  0  0  0  0  0  0
    6.6748    0.0233   19.9019 C   0  0  0  0  0  0  0  0  0  0  0  0
    5.4492    0.6481   20.1575 C   0  0  0  0  0  0  0  0  0  0  0  0
    4.8169    1.3098   19.1037 C   0  0  0  0  0  0  0  0  0  0  0  0
    5.4134    1.2974   17.8365 C   0  0  0  0  0  0  0  0  0  0  0  0
    6.5675    0.6658   17.5729 N   0  0  0  0  0  0  0  0  0  0  0  0
    7.1822    0.0452   18.5881 C   0  0  0  0  0  0  0  0  0  0  0  0
    8.1126   -0.4722   18.3495 H   0  0  0  0  0  0  0  0  0  0  0  0
    4.9393    1.8080   17.0025 H   0  0  0  0  0  0  0  0  0  0  0  0
    3.8780    1.8315   19.2556 H   0  0  0  0  0  0  0  0  0  0  0  0
    5.0218    0.6012   21.1608 H   0  0  0  0  0  0  0  0  0  0  0  0
   10.5200    0.4222   21.3763 H   0  0  0  0  0  0  0  0  0  0  0  0
    9.6321    0.5703   19.8759 H   0  0  0  0  0  0  0  0  0  0  0  0
    8.2103    2.3004   20.6627 H   0  0  0  0  0  0  0  0  0  0  0  0
    9.8053    2.7603   21.2518 H   0  0  0  0  0  0  0  0  0  0  0  0
   10.6081    1.7788   23.6993 C   0  0  0  0  0  0  0  0  0  0  0  0
   11.1369    2.1034   22.8135 H   0  0  0  0  0  0  0  0  0  0  0  0
    7.4441    1.6092   24.8868 H   0  0  0  0  0  0  0  0  0  0  0  0
    8.6861    0.9584   26.9769 H   0  0  0  0  0  0  0  0  0  0  0  0
   11.1475    0.5418   26.8334 H   0  0  0  0  0  0  0  0  0  0  0  0
  1  2  1  0
  2  3  2  0
  3  4  1  0
  4  5  2  0
  5  6  1  0
  6  7  1  0
  7  8  1  0
  8  9  1  0
  9 10  1  0
 10 11  2  0
 11 12  1  0
 12 13  1  0
 13 14  1  0
 14 15  1  0
 15 16  1  0
 16 17  1  0
 17 18  1  0
 18 19  1  0
 18 20  1  0
 17 21  1  0
 17 22  1  0
 15 23  1  0
 15 24  1  0
 14 25  1  0
 14 26  1  0
 13 27  1  0
 12 28  2  0
 28 29  1  0
 29 30  1  0
 30 31  2  0
 31 32  1  0
 32 33  2  0
 33 34  1  0
 34 35  2  0
 35 36  1  0
 33 37  1  0
 32 38  1  0
 31 39  1  0
  9 40  1  0
  9 41  1  0
  8 42  1  0
  8 43  1  0
  6 44  2  0
 44 45  1  0
  5 46  1  0
  4 47  1  0
  3 48  1  0
 44  2  1  0
 29 10  1  0
 35 30  1  0
 18 13  1  0
M  END
>  <cnnaffinity>  (1) 
-6.20355

>  <filename>  (1) 
Clc1cccc(OCCc2nc(C3CCOCC3)nn2-c2cccnc2)c1

$$$$
