
     RDKit          3D

 40 43  0  0  0  0  0  0  0  0999 V2000
   13.5484    1.5762   24.0767 Cl  0  0  0  0  0  0  0  0  0  0  0  0
   12.3874    1.0573   22.9215 C   0  0  0  0  0  0  0  0  0  0  0  0
   12.5771   -0.1127   22.1901 C   0  0  0  0  0  0  0  0  0  0  0  0
   11.5663   -0.4692   21.3019 C   0  0  0  0  0  0  0  0  0  0  0  0
   10.4220    0.3311   21.2009 C   0  0  0  0  0  0  0  0  0  0  0  0
    9.2806   -0.0475   20.3320 C   0  0  0  0  0  0  0  0  0  0  0  0
    8.2878   -0.8259   21.1180 C   0  0  0  0  0  0  0  0  0  0  0  0
    8.5613   -1.5865   22.1501 N   0  0  0  0  0  0  0  0  0  0  0  0
    7.3514   -2.1053   22.4866 C   0  0  0  0  0  0  0  0  0  0  0  0
    7.2685   -3.0418   23.6496 C   0  0  0  0  0  0  0  0  0  0  0  0
    8.2144   -4.2687   23.5508 C   0  0  0  0  0  0  0  0  0  0  0  0
    8.3343   -4.7280   25.0084 C   0  0  0  0  0  0  0  0  0  0  0  0
    7.9820   -3.6031   25.8060 O   0  0  0  0  0  0  0  0  0  0  0  0
    7.7530   -2.4617   24.9955 C   0  0  0  0  0  0  0  0  0  0  0  0
    7.0232   -1.8342   25.5230 H   0  0  0  0  0  0  0  0  0  0  0  0
    8.6850   -1.8829   24.8625 H   0  0  0  0  0  0  0  0  0  0  0  0
    9.3516   -5.0585   25.2731 H   0  0  0  0  0  0  0  0  0  0  0  0
    7.6383   -5.5502   25.2315 H   0  0  0  0  0  0  0  0  0  0  0  0
    9.1920   -3.9275   23.1878 H   0  0  0  0  0  0  0  0  0  0  0  0
    7.8587   -5.0501   22.8717 H   0  0  0  0  0  0  0  0  0  0  0  0
    6.2279   -3.3565   23.7566 H   0  0  0  0  0  0  0  0  0  0  0  0
    6.3482   -1.7187   21.7194 N   0  0  0  0  0  0  0  0  0  0  0  0
    6.9557   -0.8914   20.8230 N   0  0  0  0  0  0  0  0  0  0  0  0
    6.2721   -0.1985   19.7827 C   0  0  0  0  0  0  0  0  0  0  0  0
    5.1254    0.5680   20.0280 C   0  0  0  0  0  0  0  0  0  0  0  0
    4.6367    1.3728   18.9897 C   0  0  0  0  0  0  0  0  0  0  0  0
    5.2895    1.3660   17.7515 C   0  0  0  0  0  0  0  0  0  0  0  0
    6.3603    0.5979   17.4961 N   0  0  0  0  0  0  0  0  0  0  0  0
    6.8247   -0.1651   18.4872 C   0  0  0  0  0  0  0  0  0  0  0  0
    7.7320   -0.7275   18.2679 H   0  0  0  0  0  0  0  0  0  0  0  0
    4.9401    1.9871   16.9288 H   0  0  0  0  0  0  0  0  0  0  0  0
    3.7769    2.0227   19.1294 H   0  0  0  0  0  0  0  0  0  0  0  0
    4.6717    0.5605   21.0189 H   0  0  0  0  0  0  0  0  0  0  0  0
    9.6152   -0.6427   19.4788 H   0  0  0  0  0  0  0  0  0  0  0  0
    8.8195    0.8636   19.9493 H   0  0  0  0  0  0  0  0  0  0  0  0
   10.2557    1.4572   21.8971 N   0  0  0  0  0  0  0  0  0  0  0  0
   11.2204    1.8113   22.7491 C   0  0  0  0  0  0  0  0  0  0  0  0
   11.0470    2.7027   23.3483 H   0  0  0  0  0  0  0  0  0  0  0  0
   11.6472   -1.3599   20.7012 H   0  0  0  0  0  0  0  0  0  0  0  0
   13.4763   -0.7126   22.3187 H   0  0  0  0  0  0  0  0  0  0  0  0
  1  2  1  0
  2  3  2  0
  3  4  1  0
  4  5  2  0
  5  6  1  0
  6  7  1  0
  7  8  2  0
  8  9  1  0
  9 10  1  0
 10 11  1  0
 11 12  1  0
 12 13  1  0
 13 14  1  0
 14 15  1  0
 14 16  1  0
 12 17  1  0
 12 18  1  0
 11 19  1  0
 11 20  1  0
 10 21  1  0
  9 22  2  0
 22 23  1  0
 23 24  1  0
 24 25  2  0
 25 26  1  0
 26 27  2  0
 27 28  1  0
 28 29  2  0
 29 30  1  0
 27 31  1  0
 26 32  1  0
 25 33  1  0
  6 34  1  0
  6 35  1  0
  5 36  1  0
 36 37  2  0
 37 38  1  0
  4 39  1  0
  3 40  1  0
 37  2  1  0
 23  7  1  0
 29 24  1  0
 14 10  1  0
M  END
>  <cnnaffinity>  (1) 
-6.2344

>  <filename>  (1) 
Clc1ccc(Cc2nc(C3CCOC3)nn2-c2cccnc2)nc1

$$$$
