
     RDKit          3D

 43 47  0  0  0  0  0  0  0  0999 V2000
    8.4017    7.8335   24.4437 Cl  0  0  0  0  0  0  0  0  0  0  0  0
    8.2150    6.2954   23.6514 C   0  0  0  0  0  0  0  0  0  0  0  0
    6.9806    5.9617   23.0770 C   0  0  0  0  0  0  0  0  0  0  0  0
    6.8741    4.7186   22.4535 C   0  0  0  0  0  0  0  0  0  0  0  0
    7.9891    3.8649   22.4236 C   0  0  0  0  0  0  0  0  0  0  0  0
    7.9078    2.4812   21.8383 C   0  0  0  0  0  0  0  0  0  0  0  0
    7.3639    1.4729   22.8759 C   0  0  0  0  0  0  0  0  0  0  0  0
    7.4387    0.0395   22.4762 C   0  0  0  0  0  0  0  0  0  0  0  0
    8.1133   -0.8763   23.1420 N   0  0  0  0  0  0  0  0  0  0  0  0
    7.9282   -2.0019   22.4035 C   0  0  0  0  0  0  0  0  0  0  0  0
    8.6978   -3.2485   22.6284 C   0  0  0  0  0  0  0  0  0  0  0  0
    8.0964   -4.6467   22.4637 C   0  0  0  0  0  0  0  0  0  0  0  0
    8.5934   -4.1681   23.7985 C   0  0  0  0  0  0  0  0  0  0  0  0
    9.5953   -4.5281   24.8359 C   0  0  0  0  0  0  0  0  0  0  0  0
    8.1518   -4.2160   25.2222 C   0  0  0  0  0  0  0  0  0  0  0  0
    7.9179   -3.2785   25.7199 H   0  0  0  0  0  0  0  0  0  0  0  0
    7.5293   -5.0730   25.4857 H   0  0  0  0  0  0  0  0  0  0  0  0
    9.9372   -5.5545   24.9123 H   0  0  0  0  0  0  0  0  0  0  0  0
   10.3575   -3.7885   25.0827 H   0  0  0  0  0  0  0  0  0  0  0  0
    7.0169   -4.7202   22.3201 H   0  0  0  0  0  0  0  0  0  0  0  0
    8.6828   -5.4260   21.9749 H   0  0  0  0  0  0  0  0  0  0  0  0
    9.7297   -3.0843   22.3075 H   0  0  0  0  0  0  0  0  0  0  0  0
    7.2114   -1.8350   21.3104 N   0  0  0  0  0  0  0  0  0  0  0  0
    6.8721   -0.5149   21.3560 N   0  0  0  0  0  0  0  0  0  0  0  0
    6.3611    0.0739   20.1629 C   0  0  0  0  0  0  0  0  0  0  0  0
    5.3796    1.0733   20.1412 C   0  0  0  0  0  0  0  0  0  0  0  0
    5.0980    1.6842   18.9097 C   0  0  0  0  0  0  0  0  0  0  0  0
    5.7619    1.2444   17.7606 C   0  0  0  0  0  0  0  0  0  0  0  0
    6.6432    0.2298   17.7665 N   0  0  0  0  0  0  0  0  0  0  0  0
    6.9180   -0.3448   18.9373 C   0  0  0  0  0  0  0  0  0  0  0  0
    7.6384   -1.1606   18.9463 H   0  0  0  0  0  0  0  0  0  0  0  0
    5.5787    1.7055   16.7915 H   0  0  0  0  0  0  0  0  0  0  0  0
    4.3831    2.4979   18.8335 H   0  0  0  0  0  0  0  0  0  0  0  0
    4.8650    1.3763   21.0539 H   0  0  0  0  0  0  0  0  0  0  0  0
    7.9440    1.5596   23.8042 H   0  0  0  0  0  0  0  0  0  0  0  0
    6.3275    1.7034   23.1404 H   0  0  0  0  0  0  0  0  0  0  0  0
    8.9074    2.1629   21.5103 H   0  0  0  0  0  0  0  0  0  0  0  0
    7.2715    2.4947   20.9470 H   0  0  0  0  0  0  0  0  0  0  0  0
    9.1636    4.3263   23.0356 C   0  0  0  0  0  0  0  0  0  0  0  0
    9.2845    5.5179   23.6418 N   0  0  0  0  0  0  0  0  0  0  0  0
   10.0624    3.7094   23.0541 H   0  0  0  0  0  0  0  0  0  0  0  0
    5.9275    4.4167   21.9950 H   0  0  0  0  0  0  0  0  0  0  0  0
    6.1516    6.6550   23.1144 H   0  0  0  0  0  0  0  0  0  0  0  0
  1  2  1  0
  2  3  2  0
  3  4  1  0
  4  5  2  0
  5  6  1  0
  6  7  1  0
  7  8  1  0
  8  9  2  0
  9 10  1  0
 10 11  1  0
 11 12  1  0
 12 13  1  0
 13 14  1  0
 14 15  1  0
 15 16  1  0
 15 17  1  0
 14 18  1  0
 14 19  1  0
 12 20  1  0
 12 21  1  0
 11 22  1  0
 10 23  2  0
 23 24  1  0
 24 25  1  0
 25 26  2  0
 26 27  1  0
 27 28  2  0
 28 29  1  0
 29 30  2  0
 30 31  1  0
 28 32  1  0
 27 33  1  0
 26 34  1  0
  7 35  1  0
  7 36  1  0
  6 37  1  0
  6 38  1  0
  5 39  1  0
 39 40  2  0
 39 41  1  0
  4 42  1  0
  3 43  1  0
 40  2  1  0
 24  8  1  0
 30 25  1  0
 13 11  1  0
 15 13  1  0
M  END
>  <cnnaffinity>  (1) 
-6.38694

>  <filename>  (1) 
Clc1ccc(CCc2nc(C3CC34CC4)nn2-c2cccnc2)cn1

$$$$
