
     RDKit          3D

 37 40  0  0  0  0  0  0  0  0999 V2000
    4.9970    1.7904   16.9342 H   0  0  0  0  0  0  0  0  0  0  0  0
    5.4576    1.2886   17.7826 C   0  0  0  0  0  0  0  0  0  0  0  0
    6.6386    0.6947   17.5484 N   0  0  0  0  0  0  0  0  0  0  0  0
    7.2338    0.0705   18.5718 C   0  0  0  0  0  0  0  0  0  0  0  0
    8.1999   -0.3796   18.3533 H   0  0  0  0  0  0  0  0  0  0  0  0
    6.6719   -0.0274   19.8569 C   0  0  0  0  0  0  0  0  0  0  0  0
    7.3693   -0.7273   20.9484 C   0  0  0  0  0  0  0  0  0  0  0  0
    8.6082   -0.3773   21.2969 N   0  0  0  0  0  0  0  0  0  0  0  0
    8.8270   -1.0779   22.4138 N   0  0  0  0  0  0  0  0  0  0  0  0
    7.8233   -1.8659   22.8032 C   0  0  0  0  0  0  0  0  0  0  0  0
    6.8324   -1.7154   21.8536 C   0  0  0  0  0  0  0  0  0  0  0  0
    5.5984   -2.4074   21.7921 N   0  0  0  0  0  0  0  0  0  0  0  0
    4.8128   -1.8026   21.9997 H   0  0  0  0  0  0  0  0  0  0  0  0
    5.4157   -3.6358   22.4619 C   0  0  0  0  0  0  0  0  0  0  0  0
    6.2078   -4.7686   22.2065 C   0  0  0  0  0  0  0  0  0  0  0  0
    7.1000   -4.6675   21.5968 H   0  0  0  0  0  0  0  0  0  0  0  0
    5.8597   -6.0119   22.7495 C   0  0  0  0  0  0  0  0  0  0  0  0
    6.4930   -6.8815   22.5963 H   0  0  0  0  0  0  0  0  0  0  0  0
    4.7203   -6.1198   23.5492 C   0  0  0  0  0  0  0  0  0  0  0  0
    4.2418   -7.6804   24.1530 Cl  0  0  0  0  0  0  0  0  0  0  0  0
    3.9752   -4.9863   23.8866 C   0  0  0  0  0  0  0  0  0  0  0  0
    3.1178   -5.0757   24.5472 H   0  0  0  0  0  0  0  0  0  0  0  0
    4.3388   -3.7505   23.3534 C   0  0  0  0  0  0  0  0  0  0  0  0
    3.7510   -2.8818   23.6296 H   0  0  0  0  0  0  0  0  0  0  0  0
    8.1380   -2.5235   24.1157 C   0  0  0  0  0  0  0  0  0  0  0  0
    8.1820   -3.6090   23.9999 H   0  0  0  0  0  0  0  0  0  0  0  0
    7.3690   -2.3111   24.8628 H   0  0  0  0  0  0  0  0  0  0  0  0
    9.5205   -1.9159   24.4873 C   0  0  0  0  0  0  0  0  0  0  0  0
    9.4565   -1.3394   25.4095 H   0  0  0  0  0  0  0  0  0  0  0  0
   10.2591   -2.7031   24.6353 H   0  0  0  0  0  0  0  0  0  0  0  0
    9.9483   -0.9839   23.3171 C   0  0  0  0  0  0  0  0  0  0  0  0
   10.0747    0.0571   23.6290 H   0  0  0  0  0  0  0  0  0  0  0  0
   10.8584   -1.3211   22.8172 H   0  0  0  0  0  0  0  0  0  0  0  0
    5.4421    0.6133   20.0874 C   0  0  0  0  0  0  0  0  0  0  0  0
    5.0057    0.6131   21.0876 H   0  0  0  0  0  0  0  0  0  0  0  0
    4.8273    1.2840   19.0320 C   0  0  0  0  0  0  0  0  0  0  0  0
    3.8939    1.8184   19.1667 H   0  0  0  0  0  0  0  0  0  0  0  0
  1  2  1  0
  2  3  2  0
  3  4  1  0
  4  5  1  0
  4  6  2  0
  6  7  1  0
  7  8  2  0
  8  9  1  0
  9 10  1  0
 10 11  2  0
 11 12  1  0
 12 13  1  0
 12 14  1  0
 14 15  2  0
 15 16  1  0
 15 17  1  0
 17 18  1  0
 17 19  2  0
 19 20  1  0
 19 21  1  0
 21 22  1  0
 21 23  2  0
 23 24  1  0
 10 25  1  0
 25 26  1  0
 25 27  1  0
 25 28  1  0
 28 29  1  0
 28 30  1  0
 28 31  1  0
 31 32  1  0
 31 33  1  0
  6 34  1  0
 34 35  1  0
 34 36  2  0
 36 37  1  0
 36  2  1  0
 11  7  1  0
 23 14  1  0
 31  9  1  0
M  END
>  <cnnaffinity>  (1) 
-5.90612

>  <filename>  (1) 
Clc1ccc(Nc2c(-c3cccnc3)nn3c2CCC3)cc1

$$$$
