
     RDKit          3D

 39 41  0  0  0  0  0  0  0  0999 V2000
    5.0074    1.6770   16.9681 H   0  0  0  0  0  0  0  0  0  0  0  0
    5.5092    1.2920   17.8551 C   0  0  0  0  0  0  0  0  0  0  0  0
    6.6572    0.6318   17.6477 N   0  0  0  0  0  0  0  0  0  0  0  0
    7.2927    0.1547   18.7318 C   0  0  0  0  0  0  0  0  0  0  0  0
    8.2459   -0.3332   18.5244 H   0  0  0  0  0  0  0  0  0  0  0  0
    6.8279    0.2799   20.0592 C   0  0  0  0  0  0  0  0  0  0  0  0
    7.5625   -0.3824   21.2306 C   0  0  2  0  0  0  0  0  0  0  0  0
    7.3490   -1.9283   21.2514 C   0  0  0  0  0  0  0  0  0  0  0  0
    7.6902   -2.3323   22.2133 H   0  0  0  0  0  0  0  0  0  0  0  0
    8.0032   -2.3882   20.5061 H   0  0  0  0  0  0  0  0  0  0  0  0
    5.8989   -2.3602   21.0183 C   0  0  0  0  0  0  0  0  0  0  0  0
    5.2834   -1.9425   21.8112 H   0  0  0  0  0  0  0  0  0  0  0  0
    5.5363   -1.9388   20.0731 H   0  0  0  0  0  0  0  0  0  0  0  0
    5.6742   -3.8442   20.9814 C   0  0  0  0  0  0  0  0  0  0  0  0
    5.2239   -4.5418   22.1080 C   0  0  0  0  0  0  0  0  0  0  0  0
    4.9952   -3.9962   23.0191 H   0  0  0  0  0  0  0  0  0  0  0  0
    5.0415   -5.9252   22.0601 C   0  0  0  0  0  0  0  0  0  0  0  0
    4.6625   -6.4629   22.9269 H   0  0  0  0  0  0  0  0  0  0  0  0
    5.2780   -6.5938   20.8659 C   0  0  0  0  0  0  0  0  0  0  0  0
    5.1263   -7.6442   20.7322 H   0  0  0  0  0  0  0  0  0  0  0  0
    5.6751   -5.8982   19.7315 C   0  0  0  0  0  0  0  0  0  0  0  0
    5.8749   -6.8306   18.2837 Cl  0  0  0  0  0  0  0  0  0  0  0  0
    5.8777   -4.5249   19.7754 C   0  0  0  0  0  0  0  0  0  0  0  0
    6.1334   -3.9758   18.8764 H   0  0  0  0  0  0  0  0  0  0  0  0
    7.2347    0.2151   22.6371 C   0  0  0  0  0  0  0  0  0  0  0  0
    6.2854   -0.1405   23.0602 H   0  0  0  0  0  0  0  0  0  0  0  0
    7.1587    1.3096   22.5348 H   0  0  0  0  0  0  0  0  0  0  0  0
    8.3763   -0.1052   23.5087 N   0  0  0  0  0  0  0  0  0  0  0  0
    8.1649   -0.9260   24.0681 H   0  0  0  0  0  0  0  0  0  0  0  0
    9.5428   -0.3674   22.6390 C   0  0  0  0  0  0  0  0  0  0  0  0
    9.8656   -1.4178   22.7091 H   0  0  0  0  0  0  0  0  0  0  0  0
   10.3963    0.2513   22.9386 H   0  0  0  0  0  0  0  0  0  0  0  0
    9.0703   -0.0400   21.2194 C   0  0  0  0  0  0  0  0  0  0  0  0
    9.1720    1.0389   21.0425 H   0  0  0  0  0  0  0  0  0  0  0  0
    9.6372   -0.5555   20.4383 H   0  0  0  0  0  0  0  0  0  0  0  0
    5.6254    0.9781   20.2406 C   0  0  0  0  0  0  0  0  0  0  0  0
    5.2322    1.1341   21.2469 H   0  0  0  0  0  0  0  0  0  0  0  0
    4.9632    1.4930   19.1258 C   0  0  0  0  0  0  0  0  0  0  0  0
    4.0521    2.0683   19.2370 H   0  0  0  0  0  0  0  0  0  0  0  0
  1  2  1  0
  2  3  2  0
  3  4  1  0
  4  5  1  0
  4  6  2  0
  6  7  1  0
  7  8  1  1
  8  9  1  0
  8 10  1  0
  8 11  1  0
 11 12  1  0
 11 13  1  0
 11 14  1  0
 14 15  2  0
 15 16  1  0
 15 17  1  0
 17 18  1  0
 17 19  2  0
 19 20  1  0
 19 21  1  0
 21 22  1  0
 21 23  2  0
 23 24  1  0
  7 25  1  0
 25 26  1  0
 25 27  1  0
 25 28  1  0
 28 29  1  0
 28 30  1  0
 30 31  1  0
 30 32  1  0
 30 33  1  0
 33 34  1  0
 33 35  1  0
  6 36  1  0
 36 37  1  0
 36 38  2  0
 38 39  1  0
 38  2  1  0
 33  7  1  0
 23 14  1  0
M  END
>  <cnnaffinity>  (1) 
-5.50674

>  <filename>  (1) 
Clc1cccc(CC[C@]2(c3cccnc3)CCNC2)c1

$$$$
