
     RDKit          3D

 43 46  0  0  0  0  0  0  0  0999 V2000
    4.4204    3.2355   22.7550 Cl  0  0  0  0  0  0  0  0  0  0  0  0
    5.5685    3.5814   24.0171 C   0  0  0  0  0  0  0  0  0  0  0  0
    5.6040    4.8742   24.5402 C   0  0  0  0  0  0  0  0  0  0  0  0
    6.4584    5.2425   25.5020 N   0  0  0  0  0  0  0  0  0  0  0  0
    7.3227    4.3275   25.9574 C   0  0  0  0  0  0  0  0  0  0  0  0
    7.3638    3.0190   25.4720 C   0  0  0  0  0  0  0  0  0  0  0  0
    8.5987    1.9561   26.0859 Cl  0  0  0  0  0  0  0  0  0  0  0  0
    6.4560    2.5959   24.4823 C   0  0  0  0  0  0  0  0  0  0  0  0
    6.5251    1.2394   23.8539 C   0  0  0  0  0  0  0  0  0  0  0  0
    7.5071    1.2503   22.6650 C   0  0  0  0  0  0  0  0  0  0  0  0
    7.6823   -0.1171   22.1161 C   0  0  0  0  0  0  0  0  0  0  0  0
    8.2453   -1.0492   22.8549 N   0  0  0  0  0  0  0  0  0  0  0  0
    8.2928   -2.1176   22.0247 C   0  0  0  0  0  0  0  0  0  0  0  0
    8.8968   -3.3789   22.5295 C   0  0  0  0  0  0  0  0  0  0  0  0
    8.1560   -4.0657   23.7006 C   0  0  0  0  0  0  0  0  0  0  0  0
    9.2935   -4.8339   24.3758 C   0  0  0  0  0  0  0  0  0  0  0  0
   10.4825   -4.0989   24.1517 O   0  0  0  0  0  0  0  0  0  0  0  0
   10.2847   -3.1006   23.1698 C   0  0  0  0  0  0  0  0  0  0  0  0
   11.1264   -3.1004   22.4639 H   0  0  0  0  0  0  0  0  0  0  0  0
   10.2782   -2.1245   23.6741 H   0  0  0  0  0  0  0  0  0  0  0  0
    9.3870   -5.8351   23.9383 H   0  0  0  0  0  0  0  0  0  0  0  0
    9.1699   -4.9641   25.4545 H   0  0  0  0  0  0  0  0  0  0  0  0
    7.3368   -4.7210   23.3809 H   0  0  0  0  0  0  0  0  0  0  0  0
    7.7371   -3.3108   24.3747 H   0  0  0  0  0  0  0  0  0  0  0  0
    8.9122   -4.0716   21.6874 H   0  0  0  0  0  0  0  0  0  0  0  0
    7.7987   -1.9157   20.8214 N   0  0  0  0  0  0  0  0  0  0  0  0
    7.3616   -0.6243   20.8936 N   0  0  0  0  0  0  0  0  0  0  0  0
    6.6381   -0.0027   19.8383 C   0  0  0  0  0  0  0  0  0  0  0  0
    5.4316    0.6613   20.0877 C   0  0  0  0  0  0  0  0  0  0  0  0
    4.8012    1.3152   19.0266 C   0  0  0  0  0  0  0  0  0  0  0  0
    5.4076    1.2980   17.7675 C   0  0  0  0  0  0  0  0  0  0  0  0
    6.5481    0.6316   17.5155 N   0  0  0  0  0  0  0  0  0  0  0  0
    7.1390   -0.0155   18.5245 C   0  0  0  0  0  0  0  0  0  0  0  0
    8.0587   -0.5484   18.2956 H   0  0  0  0  0  0  0  0  0  0  0  0
    4.9627    1.8409   16.9352 H   0  0  0  0  0  0  0  0  0  0  0  0
    3.8697    1.8511   19.1712 H   0  0  0  0  0  0  0  0  0  0  0  0
    4.9977    0.6625   21.0898 H   0  0  0  0  0  0  0  0  0  0  0  0
    7.2161    1.9849   21.9094 H   0  0  0  0  0  0  0  0  0  0  0  0
    8.4935    1.5586   23.0286 H   0  0  0  0  0  0  0  0  0  0  0  0
    5.5253    0.9314   23.5244 H   0  0  0  0  0  0  0  0  0  0  0  0
    6.8634    0.5027   24.5880 H   0  0  0  0  0  0  0  0  0  0  0  0
    8.0170    4.6403   26.7325 H   0  0  0  0  0  0  0  0  0  0  0  0
    4.9181    5.6258   24.1601 H   0  0  0  0  0  0  0  0  0  0  0  0
  1  2  1  0
  2  3  2  0
  3  4  1  0
  4  5  2  0
  5  6  1  0
  6  7  1  0
  6  8  2  0
  8  9  1  0
  9 10  1  0
 10 11  1  0
 11 12  2  0
 12 13  1  0
 13 14  1  0
 14 15  1  0
 15 16  1  0
 16 17  1  0
 17 18  1  0
 18 19  1  0
 18 20  1  0
 16 21  1  0
 16 22  1  0
 15 23  1  0
 15 24  1  0
 14 25  1  0
 13 26  2  0
 26 27  1  0
 27 28  1  0
 28 29  2  0
 29 30  1  0
 30 31  2  0
 31 32  1  0
 32 33  2  0
 33 34  1  0
 31 35  1  0
 30 36  1  0
 29 37  1  0
 10 38  1  0
 10 39  1  0
  9 40  1  0
  9 41  1  0
  5 42  1  0
  3 43  1  0
  8  2  1  0
 27 11  1  0
 33 28  1  0
 18 14  1  0
M  END
>  <cnnaffinity>  (1) 
-6.37651

>  <filename>  (1) 
Clc1cncc(Cl)c1CCc1nc(C2CCOC2)nn1-c1cccnc1

$$$$
