
     RDKit          3D

 37 41  0  0  0  0  0  0  0  0999 V2000
    8.3123    2.2266   21.2287 Cl  0  0  0  0  0  0  0  0  0  0  0  0
    7.1450    2.3318   22.5075 C   0  0  0  0  0  0  0  0  0  0  0  0
    6.8414    3.5981   23.0264 C   0  0  0  0  0  0  0  0  0  0  0  0
    6.0359    3.7823   24.0801 N   0  0  0  0  0  0  0  0  0  0  0  0
    5.5050    2.6972   24.6569 C   0  0  0  0  0  0  0  0  0  0  0  0
    5.7335    1.3971   24.2039 C   0  0  0  0  0  0  0  0  0  0  0  0
    6.5302    1.1868   23.0616 C   0  0  0  0  0  0  0  0  0  0  0  0
    6.7266   -0.1964   22.5553 C   0  0  0  0  0  0  0  0  0  0  0  0
    7.2357   -1.1599   23.3030 N   0  0  0  0  0  0  0  0  0  0  0  0
    7.4435   -2.1667   22.4216 C   0  0  0  0  0  0  0  0  0  0  0  0
    8.3153   -3.3413   22.6976 C   0  0  0  0  0  0  0  0  0  0  0  0
    7.8918   -4.8055   22.5209 C   0  0  0  0  0  0  0  0  0  0  0  0
    8.2664   -4.2640   23.8717 C   0  0  0  0  0  0  0  0  0  0  0  0
    9.2044   -4.5780   24.9874 C   0  0  0  0  0  0  0  0  0  0  0  0
    7.7189   -4.3015   25.2556 C   0  0  0  0  0  0  0  0  0  0  0  0
    7.0633   -5.1286   25.5315 H   0  0  0  0  0  0  0  0  0  0  0  0
    7.4917   -3.3342   25.6983 H   0  0  0  0  0  0  0  0  0  0  0  0
    9.9025   -3.7971   25.2928 H   0  0  0  0  0  0  0  0  0  0  0  0
    9.5979   -5.5924   25.0386 H   0  0  0  0  0  0  0  0  0  0  0  0
    8.6075   -5.4582   22.0212 H   0  0  0  0  0  0  0  0  0  0  0  0
    6.8476   -5.0827   22.3664 H   0  0  0  0  0  0  0  0  0  0  0  0
    9.3316   -3.1080   22.3659 H   0  0  0  0  0  0  0  0  0  0  0  0
    7.0605   -1.9014   21.1843 N   0  0  0  0  0  0  0  0  0  0  0  0
    6.5534   -0.6394   21.2673 N   0  0  0  0  0  0  0  0  0  0  0  0
    6.1965    0.0424   20.0696 C   0  0  0  0  0  0  0  0  0  0  0  0
    5.2225    1.0514   20.0247 C   0  0  0  0  0  0  0  0  0  0  0  0
    5.0190    1.7064   18.8055 C   0  0  0  0  0  0  0  0  0  0  0  0
    5.7709    1.3351   17.6890 C   0  0  0  0  0  0  0  0  0  0  0  0
    6.6949    0.3592   17.7240 N   0  0  0  0  0  0  0  0  0  0  0  0
    6.8868   -0.2729   18.8813 C   0  0  0  0  0  0  0  0  0  0  0  0
    7.6390   -1.0625   18.8929 H   0  0  0  0  0  0  0  0  0  0  0  0
    5.6325    1.8338   16.7321 H   0  0  0  0  0  0  0  0  0  0  0  0
    4.2979    2.5133   18.7144 H   0  0  0  0  0  0  0  0  0  0  0  0
    4.6506    1.3329   20.9087 H   0  0  0  0  0  0  0  0  0  0  0  0
    5.3128    0.5461   24.7282 H   0  0  0  0  0  0  0  0  0  0  0  0
    4.8679    2.8707   25.5229 H   0  0  0  0  0  0  0  0  0  0  0  0
    7.2852    4.4848   22.5758 H   0  0  0  0  0  0  0  0  0  0  0  0
  1  2  1  0
  2  3  2  0
  3  4  1  0
  4  5  2  0
  5  6  1  0
  6  7  2  0
  7  8  1  0
  8  9  2  0
  9 10  1  0
 10 11  1  0
 11 12  1  0
 12 13  1  0
 13 14  1  0
 14 15  1  0
 15 16  1  0
 15 17  1  0
 14 18  1  0
 14 19  1  0
 12 20  1  0
 12 21  1  0
 11 22  1  0
 10 23  2  0
 23 24  1  0
 24 25  1  0
 25 26  2  0
 26 27  1  0
 27 28  2  0
 28 29  1  0
 29 30  2  0
 30 31  1  0
 28 32  1  0
 27 33  1  0
 26 34  1  0
  6 35  1  0
  5 36  1  0
  3 37  1  0
  7  2  1  0
 24  8  1  0
 30 25  1  0
 13 11  1  0
 15 13  1  0
M  END
>  <cnnaffinity>  (1) 
-5.57533

>  <filename>  (1) 
Clc1cnccc1-c1nc(C2CC23CC3)nn1-c1cccnc1

$$$$
