
     RDKit          3D

 37 39  0  0  0  0  0  0  0  0999 V2000
    7.4442    1.0507   24.0170 H   0  0  0  0  0  0  0  0  0  0  0  0
    7.2526    0.2671   23.2867 C   0  0  0  0  0  0  0  0  0  0  0  0
    7.7821   -0.9543   23.4058 C   0  0  0  0  0  0  0  0  0  0  0  0
    8.9081   -1.2821   24.3625 C   0  0  0  0  0  0  0  0  0  0  0  0
    8.9273   -2.3668   24.5213 H   0  0  0  0  0  0  0  0  0  0  0  0
    8.6828   -0.8520   25.3470 H   0  0  0  0  0  0  0  0  0  0  0  0
   10.2781   -0.8111   23.8906 C   0  0  0  0  0  0  0  0  0  0  0  0
   10.9185    0.2675   24.5131 C   0  0  0  0  0  0  0  0  0  0  0  0
   10.4441    0.7628   25.3541 H   0  0  0  0  0  0  0  0  0  0  0  0
   12.1652    0.7155   24.0796 C   0  0  0  0  0  0  0  0  0  0  0  0
   12.6449    1.5726   24.5333 H   0  0  0  0  0  0  0  0  0  0  0  0
   12.8263    0.0635   23.0348 C   0  0  0  0  0  0  0  0  0  0  0  0
   14.4359    0.5784   22.6554 Cl  0  0  0  0  0  0  0  0  0  0  0  0
   12.1864   -0.9980   22.3741 C   0  0  0  0  0  0  0  0  0  0  0  0
   12.9272   -1.7583   21.0039 Cl  0  0  0  0  0  0  0  0  0  0  0  0
   10.9248   -1.4245   22.8049 C   0  0  0  0  0  0  0  0  0  0  0  0
   10.4412   -2.2406   22.2731 H   0  0  0  0  0  0  0  0  0  0  0  0
    7.1902   -2.0394   22.5284 C   0  0  0  0  0  0  0  0  0  0  0  0
    6.2279   -2.3670   22.9550 H   0  0  0  0  0  0  0  0  0  0  0  0
    7.8564   -2.9072   22.4690 H   0  0  0  0  0  0  0  0  0  0  0  0
    6.9938   -1.5089   21.1107 C   0  0  0  0  0  0  0  0  0  0  0  0
    7.9809   -1.3133   20.6578 H   0  0  0  0  0  0  0  0  0  0  0  0
    6.4922   -2.2662   20.4960 H   0  0  0  0  0  0  0  0  0  0  0  0
    6.2015   -0.2784   21.0581 N   0  0  0  0  0  0  0  0  0  0  0  0
    5.9447    0.2567   19.7843 C   0  0  0  0  0  0  0  0  0  0  0  0
    6.5501   -0.2313   18.5842 C   0  0  0  0  0  0  0  0  0  0  0  0
    7.2306   -1.0810   18.6341 H   0  0  0  0  0  0  0  0  0  0  0  0
    6.3641    0.2815   17.3605 N   0  0  0  0  0  0  0  0  0  0  0  0
    5.5207    1.3163   17.2476 C   0  0  0  0  0  0  0  0  0  0  0  0
    5.3766    1.7167   16.2487 H   0  0  0  0  0  0  0  0  0  0  0  0
    4.8395    1.8627   18.3372 C   0  0  0  0  0  0  0  0  0  0  0  0
    4.1771    2.7073   18.1762 H   0  0  0  0  0  0  0  0  0  0  0  0
    5.0510    1.3405   19.6175 C   0  0  0  0  0  0  0  0  0  0  0  0
    4.5370    1.7589   20.4819 H   0  0  0  0  0  0  0  0  0  0  0  0
    6.2549    0.6437   22.2080 C   0  0  0  0  0  0  0  0  0  0  0  0
    6.5169    1.6524   21.8626 H   0  0  0  0  0  0  0  0  0  0  0  0
    5.2516    0.7576   22.6485 H   0  0  0  0  0  0  0  0  0  0  0  0
  1  2  1  0
  2  3  2  0
  3  4  1  0
  4  5  1  0
  4  6  1  0
  4  7  1  0
  7  8  2  0
  8  9  1  0
  8 10  1  0
 10 11  1  0
 10 12  2  0
 12 13  1  0
 12 14  1  0
 14 15  1  0
 14 16  2  0
 16 17  1  0
  3 18  1  0
 18 19  1  0
 18 20  1  0
 18 21  1  0
 21 22  1  0
 21 23  1  0
 21 24  1  0
 24 25  1  0
 25 26  2  0
 26 27  1  0
 26 28  1  0
 28 29  2  0
 29 30  1  0
 29 31  1  0
 31 32  1  0
 31 33  2  0
 33 34  1  0
 24 35  1  0
 35 36  1  0
 35 37  1  0
 35  2  1  0
 16  7  1  0
 33 25  1  0
M  END
>  <cnnaffinity>  (1) 
-5.31023

>  <filename>  (1) 
Clc1ccc(CC2=CCN(c3cccnc3)CC2)cc1Cl

$$$$
