
     RDKit          3D

 27 29  0  0  0  0  0  0  0  0999 V2000
    9.0722   -3.0794   22.1744 H   0  0  0  0  0  0  0  0  0  0  0  0
    8.4925   -2.2106   21.8894 C   0  0  0  0  0  0  0  0  0  0  0  0
    8.0902   -1.8646   20.7168 N   0  0  0  0  0  0  0  0  0  0  0  0
    7.3787   -0.6959   20.9399 C   0  0  0  0  0  0  0  0  0  0  0  0
    6.6478   -0.0026   19.8934 C   0  0  0  0  0  0  0  0  0  0  0  0
    7.1705    0.0470   18.5911 C   0  0  0  0  0  0  0  0  0  0  0  0
    8.1222   -0.4332   18.3726 H   0  0  0  0  0  0  0  0  0  0  0  0
    6.5720    0.6760   17.5769 N   0  0  0  0  0  0  0  0  0  0  0  0
    5.4077    1.2914   17.8393 C   0  0  0  0  0  0  0  0  0  0  0  0
    4.9243    1.7797   16.9975 H   0  0  0  0  0  0  0  0  0  0  0  0
    4.8036    1.3091   19.1041 C   0  0  0  0  0  0  0  0  0  0  0  0
    3.8720    1.8449   19.2552 H   0  0  0  0  0  0  0  0  0  0  0  0
    5.4315    0.6503   20.1569 C   0  0  0  0  0  0  0  0  0  0  0  0
    5.0025    0.6322   21.1642 H   0  0  0  0  0  0  0  0  0  0  0  0
    7.4581   -0.3718   22.2741 C   0  0  0  0  0  0  0  0  0  0  0  0
    6.9730    0.7779   23.0370 C   0  0  0  0  0  0  0  0  0  0  0  0
    6.1168    0.5834   24.1349 C   0  0  0  0  0  0  0  0  0  0  0  0
    5.8878   -0.4363   24.4312 H   0  0  0  0  0  0  0  0  0  0  0  0
    5.5660    1.6621   24.8203 C   0  0  0  0  0  0  0  0  0  0  0  0
    4.9216    1.4813   25.6763 H   0  0  0  0  0  0  0  0  0  0  0  0
    5.8618    2.9677   24.4119 C   0  0  0  0  0  0  0  0  0  0  0  0
    5.4440    3.8126   24.9489 H   0  0  0  0  0  0  0  0  0  0  0  0
    6.7068    3.1947   23.3247 C   0  0  0  0  0  0  0  0  0  0  0  0
    6.9512    4.2041   23.0006 H   0  0  0  0  0  0  0  0  0  0  0  0
    7.2616    2.1035   22.6508 C   0  0  0  0  0  0  0  0  0  0  0  0
    8.3450    2.4335   21.3309 Cl  0  0  0  0  0  0  0  0  0  0  0  0
    8.1499   -1.3734   22.8869 O   0  0  0  0  0  0  0  0  0  0  0  0
  1  2  1  0
  2  3  2  0
  3  4  1  0
  4  5  1  0
  5  6  2  0
  6  7  1  0
  6  8  1  0
  8  9  2  0
  9 10  1  0
  9 11  1  0
 11 12  1  0
 11 13  2  0
 13 14  1  0
  4 15  2  0
 15 16  1  0
 16 17  2  0
 17 18  1  0
 17 19  1  0
 19 20  1  0
 19 21  2  0
 21 22  1  0
 21 23  1  0
 23 24  1  0
 23 25  2  0
 25 26  1  0
 15 27  1  0
 27  2  1  0
 13  5  1  0
 25 16  1  0
M  END
>  <cnnaffinity>  (1) 
-5.0057

>  <filename>  (1) 
Clc1ccccc1-c1ocnc1-c1cccnc1

$$$$
