
     RDKit          3D

 32 34  0  0  0  0  0  0  0  0999 V2000
    7.1309    1.7448   22.0957 H   0  0  0  0  0  0  0  0  0  0  0  0
    7.3659    0.9360   22.7882 C   0  0  0  0  0  0  0  0  0  0  0  0
    7.5655   -0.3034   22.3123 C   0  0  0  0  0  0  0  0  0  0  0  0
    7.3802   -0.7703   20.9264 C   0  0  0  0  0  0  0  0  0  0  0  0
    6.6297   -0.0097   19.8997 C   0  0  0  0  0  0  0  0  0  0  0  0
    7.1487    0.0161   18.5978 C   0  0  0  0  0  0  0  0  0  0  0  0
    8.0831   -0.4964   18.3765 H   0  0  0  0  0  0  0  0  0  0  0  0
    6.5733    0.6602   17.5802 N   0  0  0  0  0  0  0  0  0  0  0  0
    5.4198    1.3023   17.8251 C   0  0  0  0  0  0  0  0  0  0  0  0
    4.9697    1.8260   16.9838 H   0  0  0  0  0  0  0  0  0  0  0  0
    4.7975    1.3173   19.0775 C   0  0  0  0  0  0  0  0  0  0  0  0
    3.8624    1.8525   19.2098 H   0  0  0  0  0  0  0  0  0  0  0  0
    5.4205    0.6660   20.1420 C   0  0  0  0  0  0  0  0  0  0  0  0
    4.9876    0.6924   21.1429 H   0  0  0  0  0  0  0  0  0  0  0  0
    7.9498   -1.8916   20.6770 N   0  0  0  0  0  0  0  0  0  0  0  0
    8.5596   -2.4206   21.8994 C   0  0  0  0  0  0  0  0  0  0  0  0
    9.6393   -2.5040   21.7469 H   0  0  0  0  0  0  0  0  0  0  0  0
    8.1850   -3.4329   22.0707 H   0  0  0  0  0  0  0  0  0  0  0  0
    8.1986   -1.4576   23.0563 C   0  0  0  0  0  0  0  0  0  0  0  0
    9.0520   -1.1279   23.6571 H   0  0  0  0  0  0  0  0  0  0  0  0
    7.4720   -1.9329   23.7236 H   0  0  0  0  0  0  0  0  0  0  0  0
    7.5045    1.3370   24.1967 C   0  0  0  0  0  0  0  0  0  0  0  0
    7.0229    0.5140   25.2299 C   0  0  0  0  0  0  0  0  0  0  0  0
    6.5074   -0.4058   24.9752 H   0  0  0  0  0  0  0  0  0  0  0  0
    7.1450    0.8898   26.5623 C   0  0  0  0  0  0  0  0  0  0  0  0
    6.8115    0.2367   27.3644 H   0  0  0  0  0  0  0  0  0  0  0  0
    7.7088    2.1320   26.8836 C   0  0  0  0  0  0  0  0  0  0  0  0
    7.6385    2.6854   28.5224 Cl  0  0  0  0  0  0  0  0  0  0  0  0
    8.2632    2.9347   25.8660 C   0  0  0  0  0  0  0  0  0  0  0  0
    9.0982    4.4172   26.2199 Cl  0  0  0  0  0  0  0  0  0  0  0  0
    8.1423    2.5435   24.5315 C   0  0  0  0  0  0  0  0  0  0  0  0
    8.5680    3.1740   23.7528 H   0  0  0  0  0  0  0  0  0  0  0  0
  1  2  1  0
  2  3  2  3
  3  4  1  0
  4  5  1  0
  5  6  2  0
  6  7  1  0
  6  8  1  0
  8  9  2  0
  9 10  1  0
  9 11  1  0
 11 12  1  0
 11 13  2  0
 13 14  1  0
  4 15  2  0
 15 16  1  0
 16 17  1  0
 16 18  1  0
 16 19  1  0
 19 20  1  0
 19 21  1  0
  2 22  1  0
 22 23  2  0
 23 24  1  0
 23 25  1  0
 25 26  1  0
 25 27  2  0
 27 28  1  0
 27 29  1  0
 29 30  1  0
 29 31  2  0
 31 32  1  0
 19  3  1  0
 31 22  1  0
 13  5  1  0
M  END
>  <cnnaffinity>  (1) 
-5.4371

>  <filename>  (1) 
Clc1ccc(C=C2CCN=C2c2cccnc2)cc1Cl

$$$$
