
     RDKit          3D

 48 51  0  0  0  0  0  0  0  0999 V2000
    9.5255    0.8903   25.9121 Cl  0  0  0  0  0  0  0  0  0  0  0  0
    8.9567    2.4445   25.3671 C   0  0  0  0  0  0  0  0  0  0  0  0
    8.6039    3.3792   26.3382 C   0  0  0  0  0  0  0  0  0  0  0  0
    8.1578    4.6501   25.9743 C   0  0  0  0  0  0  0  0  0  0  0  0
    8.0464    4.9686   24.6225 C   0  0  0  0  0  0  0  0  0  0  0  0
    8.3846    4.0320   23.6378 C   0  0  0  0  0  0  0  0  0  0  0  0
    8.8485    2.7528   23.9885 C   0  0  0  0  0  0  0  0  0  0  0  0
    9.2039    1.7895   23.1074 O   0  0  0  0  0  0  0  0  0  0  0  0
    9.0948    1.9824   21.7014 C   0  0  0  0  0  0  0  0  0  0  0  0
    9.4924    0.6626   21.0387 C   0  0  0  0  0  0  0  0  0  0  0  0
    8.6069   -0.4562   21.4492 C   0  0  0  0  0  0  0  0  0  0  0  0
    8.8391   -1.2975   22.4328 N   0  0  0  0  0  0  0  0  0  0  0  0
    7.6579   -1.9618   22.5586 C   0  0  0  0  0  0  0  0  0  0  0  0
    7.3930   -2.9098   23.6983 C   0  0  0  0  0  0  0  0  0  0  0  0
    8.6298   -3.7894   24.0481 C   0  0  0  0  0  0  0  0  0  0  0  0
    9.4217   -3.2046   25.2224 C   0  0  0  0  0  0  0  0  0  0  0  0
    8.6394   -3.0980   26.4069 O   0  0  0  0  0  0  0  0  0  0  0  0
    7.2406   -2.8840   26.2479 C   0  0  0  0  0  0  0  0  0  0  0  0
    6.9074   -2.1220   24.9645 C   0  0  0  0  0  0  0  0  0  0  0  0
    5.8300   -1.9412   24.9069 H   0  0  0  0  0  0  0  0  0  0  0  0
    7.3991   -1.1394   25.0151 H   0  0  0  0  0  0  0  0  0  0  0  0
    6.7203   -3.8549   26.2542 H   0  0  0  0  0  0  0  0  0  0  0  0
    6.9192   -2.3327   27.1358 H   0  0  0  0  0  0  0  0  0  0  0  0
   10.2708   -3.8438   25.4854 H   0  0  0  0  0  0  0  0  0  0  0  0
    9.8129   -2.2135   24.9418 H   0  0  0  0  0  0  0  0  0  0  0  0
    8.2953   -4.7928   24.3351 H   0  0  0  0  0  0  0  0  0  0  0  0
    9.2914   -3.9098   23.1858 H   0  0  0  0  0  0  0  0  0  0  0  0
    6.5818   -3.5524   23.3495 H   0  0  0  0  0  0  0  0  0  0  0  0
    6.7345   -1.6212   21.6846 N   0  0  0  0  0  0  0  0  0  0  0  0
    7.3561   -0.6649   20.9383 N   0  0  0  0  0  0  0  0  0  0  0  0
    6.6554    0.0090   19.8985 C   0  0  0  0  0  0  0  0  0  0  0  0
    5.4369    0.6438   20.1650 C   0  0  0  0  0  0  0  0  0  0  0  0
    4.8126    1.3109   19.1070 C   0  0  0  0  0  0  0  0  0  0  0  0
    5.3998    1.2972   17.8350 C   0  0  0  0  0  0  0  0  0  0  0  0
    6.5560    0.6698   17.5702 N   0  0  0  0  0  0  0  0  0  0  0  0
    7.1636    0.0490   18.5876 C   0  0  0  0  0  0  0  0  0  0  0  0
    8.1085   -0.4382   18.3604 H   0  0  0  0  0  0  0  0  0  0  0  0
    4.9231    1.7897   16.9905 H   0  0  0  0  0  0  0  0  0  0  0  0
    3.8807    1.8396   19.2574 H   0  0  0  0  0  0  0  0  0  0  0  0
    5.0148    0.6053   21.1742 H   0  0  0  0  0  0  0  0  0  0  0  0
    9.4591    0.7868   19.9574 H   0  0  0  0  0  0  0  0  0  0  0  0
   10.5196    0.4001   21.2943 H   0  0  0  0  0  0  0  0  0  0  0  0
    8.0639    2.2478   21.4261 H   0  0  0  0  0  0  0  0  0  0  0  0
    9.7597    2.7912   21.3696 H   0  0  0  0  0  0  0  0  0  0  0  0
    8.2944    4.2908   22.5869 H   0  0  0  0  0  0  0  0  0  0  0  0
    7.6863    5.9486   24.3245 H   0  0  0  0  0  0  0  0  0  0  0  0
    7.8912    5.3733   26.7422 H   0  0  0  0  0  0  0  0  0  0  0  0
    8.6540    3.0871   27.3789 H   0  0  0  0  0  0  0  0  0  0  0  0
  1  2  1  0
  2  3  2  0
  3  4  1  0
  4  5  2  0
  5  6  1  0
  6  7  2  0
  7  8  1  0
  8  9  1  0
  9 10  1  0
 10 11  1  0
 11 12  2  0
 12 13  1  0
 13 14  1  0
 14 15  1  0
 15 16  1  0
 16 17  1  0
 17 18  1  0
 18 19  1  0
 19 20  1  0
 19 21  1  0
 18 22  1  0
 18 23  1  0
 16 24  1  0
 16 25  1  0
 15 26  1  0
 15 27  1  0
 14 28  1  0
 13 29  2  0
 29 30  1  0
 30 31  1  0
 31 32  2  0
 32 33  1  0
 33 34  2  0
 34 35  1  0
 35 36  2  0
 36 37  1  0
 34 38  1  0
 33 39  1  0
 32 40  1  0
 10 41  1  0
 10 42  1  0
  9 43  1  0
  9 44  1  0
  6 45  1  0
  5 46  1  0
  4 47  1  0
  3 48  1  0
  7  2  1  0
 30 11  1  0
 36 31  1  0
 19 14  1  0
M  END
>  <cnnaffinity>  (1) 
-6.22704

>  <filename>  (1) 
Clc1ccccc1OCCc1nc(C2CCOCC2)nn1-c1cccnc1

$$$$
