
     RDKit          3D

 41 44  0  0  0  0  0  0  0  0999 V2000
   14.6569   -1.3812   22.6013 Cl  0  0  0  0  0  0  0  0  0  0  0  0
   13.1567   -0.5751   22.3095 C   0  0  0  0  0  0  0  0  0  0  0  0
   12.2161   -1.1984   21.4904 C   0  0  0  0  0  0  0  0  0  0  0  0
   11.0684   -0.4791   21.1748 C   0  0  0  0  0  0  0  0  0  0  0  0
   10.8683    0.8007   21.7133 C   0  0  0  0  0  0  0  0  0  0  0  0
    9.6284    1.5771   21.3828 C   0  0  0  0  0  0  0  0  0  0  0  0
    8.5760    1.3366   22.3995 C   0  0  0  0  0  0  0  0  0  0  0  0
    8.4861    1.9696   23.5376 N   0  0  0  0  0  0  0  0  0  0  0  0
    7.3734    1.4303   24.1336 C   0  0  0  0  0  0  0  0  0  0  0  0
    6.9419    1.9569   25.4814 C   0  0  0  0  0  0  0  0  0  0  0  0
    7.7465    2.9578   26.0797 C   0  0  0  0  0  0  0  0  0  0  0  0
    7.3871    3.4784   27.3180 C   0  0  0  0  0  0  0  0  0  0  0  0
    6.2363    2.9902   27.9385 C   0  0  0  0  0  0  0  0  0  0  0  0
    5.4953    2.0074   27.2747 C   0  0  0  0  0  0  0  0  0  0  0  0
    5.8225    1.4976   26.0836 N   0  0  0  0  0  0  0  0  0  0  0  0
    4.5877    1.6043   27.7156 H   0  0  0  0  0  0  0  0  0  0  0  0
    5.9128    3.3485   28.9092 H   0  0  0  0  0  0  0  0  0  0  0  0
    7.9916    4.2522   27.7866 H   0  0  0  0  0  0  0  0  0  0  0  0
    8.6313    3.3077   25.5554 H   0  0  0  0  0  0  0  0  0  0  0  0
    6.8007    0.4816   23.4007 N   0  0  0  0  0  0  0  0  0  0  0  0
    7.5814    0.4208   22.3020 N   0  0  0  0  0  0  0  0  0  0  0  0
    7.3088   -0.5179   21.2158 C   0  0  0  0  0  0  0  0  0  0  0  0
    6.6822    0.1265   19.9914 C   0  0  0  0  0  0  0  0  0  0  0  0
    5.4786    0.8262   20.1355 C   0  0  0  0  0  0  0  0  0  0  0  0
    4.8937    1.4003   19.0062 C   0  0  0  0  0  0  0  0  0  0  0  0
    5.5300    1.2560   17.7702 C   0  0  0  0  0  0  0  0  0  0  0  0
    6.6858    0.5933   17.6102 N   0  0  0  0  0  0  0  0  0  0  0  0
    7.2394    0.0514   18.7046 C   0  0  0  0  0  0  0  0  0  0  0  0
    8.1800   -0.4783   18.5357 H   0  0  0  0  0  0  0  0  0  0  0  0
    5.0931    1.6905   16.8716 H   0  0  0  0  0  0  0  0  0  0  0  0
    3.9671    1.9592   19.0767 H   0  0  0  0  0  0  0  0  0  0  0  0
    5.0224    0.9110   21.1232 H   0  0  0  0  0  0  0  0  0  0  0  0
    8.2520   -1.0070   20.9583 H   0  0  0  0  0  0  0  0  0  0  0  0
    6.6439   -1.2880   21.6233 H   0  0  0  0  0  0  0  0  0  0  0  0
    9.2577    1.2970   20.3941 H   0  0  0  0  0  0  0  0  0  0  0  0
    9.8596    2.6430   21.4065 H   0  0  0  0  0  0  0  0  0  0  0  0
   11.7580    1.3718   22.5347 N   0  0  0  0  0  0  0  0  0  0  0  0
   12.8892    0.7066   22.8107 C   0  0  0  0  0  0  0  0  0  0  0  0
   13.6210    1.2096   23.4415 H   0  0  0  0  0  0  0  0  0  0  0  0
   10.3471   -0.8926   20.4837 H   0  0  0  0  0  0  0  0  0  0  0  0
   12.4304   -2.1857   21.0883 H   0  0  0  0  0  0  0  0  0  0  0  0
  1  2  1  0
  2  3  2  0
  3  4  1  0
  4  5  2  0
  5  6  1  0
  6  7  1  0
  7  8  2  0
  8  9  1  0
  9 10  1  0
 10 11  2  0
 11 12  1  0
 12 13  2  0
 13 14  1  0
 14 15  2  0
 14 16  1  0
 13 17  1  0
 12 18  1  0
 11 19  1  0
  9 20  2  0
 20 21  1  0
 21 22  1  0
 22 23  1  0
 23 24  2  0
 24 25  1  0
 25 26  2  0
 26 27  1  0
 27 28  2  0
 28 29  1  0
 26 30  1  0
 25 31  1  0
 24 32  1  0
 22 33  1  0
 22 34  1  0
  6 35  1  0
  6 36  1  0
  5 37  1  0
 37 38  2  0
 38 39  1  0
  4 40  1  0
  3 41  1  0
 38  2  1  0
 21  7  1  0
 28 23  1  0
 15 10  1  0
M  END
>  <cnnaffinity>  (1) 
-6.51489

>  <filename>  (1) 
Clc1ccc(Cc2nc(-c3ccccn3)nn2Cc2cccnc2)nc1

$$$$
