
     RDKit          3D

 44 47  0  0  0  0  0  0  0  0999 V2000
    8.3260    3.7607   25.9979 Cl  0  0  0  0  0  0  0  0  0  0  0  0
    6.7124    3.1208   25.8063 C   0  0  0  0  0  0  0  0  0  0  0  0
    5.7749    3.7973   26.4506 N   0  0  0  0  0  0  0  0  0  0  0  0
    4.5170    3.3481   26.3660 C   0  0  0  0  0  0  0  0  0  0  0  0
    4.1584    2.2082   25.6452 C   0  0  0  0  0  0  0  0  0  0  0  0
    5.1643    1.5102   24.9727 C   0  0  0  0  0  0  0  0  0  0  0  0
    6.4892    1.9661   25.0205 C   0  0  0  0  0  0  0  0  0  0  0  0
    7.5608    1.2712   24.2289 C   0  0  0  0  0  0  0  0  0  0  0  0
    7.7728    1.8545   22.8014 C   0  0  0  0  0  0  0  0  0  0  0  0
    8.7266    0.9863   22.0578 C   0  0  0  0  0  0  0  0  0  0  0  0
   10.0393    1.0096   22.2040 N   0  0  0  0  0  0  0  0  0  0  0  0
   10.4292   -0.1951   21.7017 C   0  0  0  0  0  0  0  0  0  0  0  0
   11.8472   -0.6621   21.6461 C   0  0  0  0  0  0  0  0  0  0  0  0
   12.9106    0.1093   22.1711 C   0  0  0  0  0  0  0  0  0  0  0  0
   14.2123   -0.2141   21.7957 C   0  0  0  0  0  0  0  0  0  0  0  0
   14.3946   -1.2953   20.9274 C   0  0  0  0  0  0  0  0  0  0  0  0
   13.3053   -2.0899   20.5997 C   0  0  0  0  0  0  0  0  0  0  0  0
   12.0713   -1.8160   20.9934 N   0  0  0  0  0  0  0  0  0  0  0  0
   13.4207   -2.9406   19.9374 H   0  0  0  0  0  0  0  0  0  0  0  0
   15.2988   -1.4916   20.3871 H   0  0  0  0  0  0  0  0  0  0  0  0
   15.0497    0.4101   22.0992 H   0  0  0  0  0  0  0  0  0  0  0  0
   12.6994    1.0043   22.7430 H   0  0  0  0  0  0  0  0  0  0  0  0
    9.4275   -0.9357   21.2489 N   0  0  0  0  0  0  0  0  0  0  0  0
    8.3518   -0.1681   21.4582 N   0  0  0  0  0  0  0  0  0  0  0  0
    7.0356   -0.6692   21.0685 C   0  0  0  0  0  0  0  0  0  0  0  0
    6.3965    0.0846   19.9223 C   0  0  0  0  0  0  0  0  0  0  0  0
    5.1772    0.7597   20.0379 C   0  0  0  0  0  0  0  0  0  0  0  0
    4.6647    1.4252   18.9203 C   0  0  0  0  0  0  0  0  0  0  0  0
    5.3912    1.3848   17.7264 C   0  0  0  0  0  0  0  0  0  0  0  0
    6.5523    0.7252   17.5900 N   0  0  0  0  0  0  0  0  0  0  0  0
    7.0339    0.0992   18.6699 C   0  0  0  0  0  0  0  0  0  0  0  0
    7.9777   -0.4304   18.5362 H   0  0  0  0  0  0  0  0  0  0  0  0
    5.0243    1.8966   16.8377 H   0  0  0  0  0  0  0  0  0  0  0  0
    3.7326    1.9778   18.9651 H   0  0  0  0  0  0  0  0  0  0  0  0
    4.6379    0.7616   20.9893 H   0  0  0  0  0  0  0  0  0  0  0  0
    7.2130   -1.7120   20.7889 H   0  0  0  0  0  0  0  0  0  0  0  0
    6.3750   -0.6773   21.9440 H   0  0  0  0  0  0  0  0  0  0  0  0
    6.8232    1.9097   22.2583 H   0  0  0  0  0  0  0  0  0  0  0  0
    8.1784    2.8678   22.8510 H   0  0  0  0  0  0  0  0  0  0  0  0
    8.5117    1.3009   24.7736 H   0  0  0  0  0  0  0  0  0  0  0  0
    7.3018    0.2053   24.1396 H   0  0  0  0  0  0  0  0  0  0  0  0
    4.9340    0.6018   24.4114 H   0  0  0  0  0  0  0  0  0  0  0  0
    3.1265    1.8782   25.6247 H   0  0  0  0  0  0  0  0  0  0  0  0
    3.7717    3.9301   26.9045 H   0  0  0  0  0  0  0  0  0  0  0  0
  1  2  1  0
  2  3  2  0
  3  4  1  0
  4  5  2  0
  5  6  1  0
  6  7  2  0
  7  8  1  0
  8  9  1  0
  9 10  1  0
 10 11  2  0
 11 12  1  0
 12 13  1  0
 13 14  2  0
 14 15  1  0
 15 16  2  0
 16 17  1  0
 17 18  2  0
 17 19  1  0
 16 20  1  0
 15 21  1  0
 14 22  1  0
 12 23  2  0
 23 24  1  0
 24 25  1  0
 25 26  1  0
 26 27  2  0
 27 28  1  0
 28 29  2  0
 29 30  1  0
 30 31  2  0
 31 32  1  0
 29 33  1  0
 28 34  1  0
 27 35  1  0
 25 36  1  0
 25 37  1  0
  9 38  1  0
  9 39  1  0
  8 40  1  0
  8 41  1  0
  6 42  1  0
  5 43  1  0
  4 44  1  0
  7  2  1  0
 24 10  1  0
 31 26  1  0
 18 13  1  0
M  END
>  <cnnaffinity>  (1) 
-6.66309

>  <filename>  (1) 
Clc1ncccc1CCc1nc(-c2ccccn2)nn1Cc1cccnc1

$$$$
