
     RDKit          3D

 40 43  0  0  0  0  0  0  0  0999 V2000
    6.0565    3.7226   29.2847 Cl  0  0  0  0  0  0  0  0  0  0  0  0
    6.4738    3.0375   27.7426 C   0  0  0  0  0  0  0  0  0  0  0  0
    7.6196    3.4894   27.0893 C   0  0  0  0  0  0  0  0  0  0  0  0
    7.9434    2.9601   25.8449 C   0  0  0  0  0  0  0  0  0  0  0  0
    7.1301    1.9871   25.2241 C   0  0  0  0  0  0  0  0  0  0  0  0
    7.5469    1.4807   23.8906 C   0  0  0  0  0  0  0  0  0  0  0  0
    6.9877    0.4764   23.2368 N   0  0  0  0  0  0  0  0  0  0  0  0
    7.7764    0.3268   22.1425 N   0  0  0  0  0  0  0  0  0  0  0  0
    7.3901   -0.6115   21.0877 C   0  0  0  0  0  0  0  0  0  0  0  0
    6.6810    0.0482   19.9196 C   0  0  0  0  0  0  0  0  0  0  0  0
    5.4615    0.7094   20.1220 C   0  0  0  0  0  0  0  0  0  0  0  0
    4.8452    1.3340   19.0353 C   0  0  0  0  0  0  0  0  0  0  0  0
    5.4688    1.2786   17.7852 C   0  0  0  0  0  0  0  0  0  0  0  0
    6.6186    0.6233   17.5667 N   0  0  0  0  0  0  0  0  0  0  0  0
    7.1969    0.0246   18.6163 C   0  0  0  0  0  0  0  0  0  0  0  0
    8.1184   -0.5199   18.3962 H   0  0  0  0  0  0  0  0  0  0  0  0
    5.0197    1.7678   16.9197 H   0  0  0  0  0  0  0  0  0  0  0  0
    3.9067    1.8683   19.1416 H   0  0  0  0  0  0  0  0  0  0  0  0
    5.0090    0.7358   21.1160 H   0  0  0  0  0  0  0  0  0  0  0  0
    8.2748   -1.1624   20.7469 H   0  0  0  0  0  0  0  0  0  0  0  0
    6.7279   -1.3392   21.5664 H   0  0  0  0  0  0  0  0  0  0  0  0
    8.7676    1.2442   22.1864 C   0  0  0  0  0  0  0  0  0  0  0  0
    9.9479    1.2954   21.2616 C   0  0  0  0  0  0  0  0  0  0  0  0
   11.0528    0.3446   21.6394 C   0  0  0  0  0  0  0  0  0  0  0  0
   11.9883    0.3449   22.6432 C   0  0  0  0  0  0  0  0  0  0  0  0
   12.8116   -0.7495   22.5349 N   0  0  0  0  0  0  0  0  0  0  0  0
   12.3765   -1.4231   21.5007 C   0  0  0  0  0  0  0  0  0  0  0  0
   11.3074   -0.8043   20.9338 N   0  0  0  0  0  0  0  0  0  0  0  0
   10.8195   -1.1379   20.1179 H   0  0  0  0  0  0  0  0  0  0  0  0
   12.8121   -2.3341   21.1058 H   0  0  0  0  0  0  0  0  0  0  0  0
   12.1385    1.0702   23.4351 H   0  0  0  0  0  0  0  0  0  0  0  0
    9.6324    1.0784   20.2366 H   0  0  0  0  0  0  0  0  0  0  0  0
   10.3263    2.3220   21.2885 H   0  0  0  0  0  0  0  0  0  0  0  0
    8.6302    2.0077   23.2458 N   0  0  0  0  0  0  0  0  0  0  0  0
    5.9928    1.5203   25.9193 C   0  0  0  0  0  0  0  0  0  0  0  0
    5.6643    2.0497   27.1725 C   0  0  0  0  0  0  0  0  0  0  0  0
    4.7913    1.7071   27.7181 H   0  0  0  0  0  0  0  0  0  0  0  0
    5.3748    0.7261   25.5018 H   0  0  0  0  0  0  0  0  0  0  0  0
    8.8511    3.2825   25.3415 H   0  0  0  0  0  0  0  0  0  0  0  0
    8.2447    4.2458   27.5514 H   0  0  0  0  0  0  0  0  0  0  0  0
  1  2  1  0
  2  3  2  0
  3  4  1  0
  4  5  2  0
  5  6  1  0
  6  7  2  0
  7  8  1  0
  8  9  1  0
  9 10  1  0
 10 11  2  0
 11 12  1  0
 12 13  2  0
 13 14  1  0
 14 15  2  0
 15 16  1  0
 13 17  1  0
 12 18  1  0
 11 19  1  0
  9 20  1  0
  9 21  1  0
  8 22  1  0
 22 23  1  0
 23 24  1  0
 24 25  2  0
 25 26  1  0
 26 27  2  0
 27 28  1  0
 28 29  1  0
 27 30  1  0
 25 31  1  0
 23 32  1  0
 23 33  1  0
 22 34  2  0
  5 35  1  0
 35 36  2  0
 36 37  1  0
 35 38  1  0
  4 39  1  0
  3 40  1  0
 36  2  1  0
 34  6  1  0
 15 10  1  0
 28 24  1  0
M  END
>  <cnnaffinity>  (1) 
-5.9014

>  <filename>  (1) 
Clc1ccc(-c2nc(Cc3cnc[nH]3)n(Cc3cccnc3)n2)cc1

$$$$
