
     RDKit          3D

 32 35  0  0  0  0  0  0  0  0999 V2000
    4.9873    1.8674   16.8849 H   0  0  0  0  0  0  0  0  0  0  0  0
    5.4166    1.3064   17.7147 C   0  0  0  0  0  0  0  0  0  0  0  0
    6.5602    0.6484   17.4675 N   0  0  0  0  0  0  0  0  0  0  0  0
    7.1321   -0.0051   18.4849 C   0  0  0  0  0  0  0  0  0  0  0  0
    8.0654   -0.5179   18.2572 H   0  0  0  0  0  0  0  0  0  0  0  0
    6.6028   -0.0419   19.7893 C   0  0  0  0  0  0  0  0  0  0  0  0
    7.3605   -0.6496   20.8995 C   0  0  0  0  0  0  0  0  0  0  0  0
    8.4976   -1.3289   20.6801 N   0  0  0  0  0  0  0  0  0  0  0  0
    8.9380   -1.5911   21.9282 N   0  0  0  0  0  0  0  0  0  0  0  0
   10.0527   -2.2158   22.4709 C   0  0  0  0  0  0  0  0  0  0  0  0
   10.7906   -2.6822   21.8419 H   0  0  0  0  0  0  0  0  0  0  0  0
    9.9257   -2.0894   23.8162 C   0  0  0  0  0  0  0  0  0  0  0  0
   10.5464   -2.4585   24.6147 H   0  0  0  0  0  0  0  0  0  0  0  0
    8.7632   -1.3787   24.1136 N   0  0  0  0  0  0  0  0  0  0  0  0
    8.2673   -1.0133   25.3921 C   0  0  0  0  0  0  0  0  0  0  0  0
    9.1333   -0.6519   26.4378 C   0  0  0  0  0  0  0  0  0  0  0  0
   10.2119   -0.6611   26.2969 H   0  0  0  0  0  0  0  0  0  0  0  0
    8.6017   -0.2191   27.6551 C   0  0  0  0  0  0  0  0  0  0  0  0
    9.2730    0.0246   28.4787 H   0  0  0  0  0  0  0  0  0  0  0  0
    7.2186   -0.0971   27.8268 C   0  0  0  0  0  0  0  0  0  0  0  0
    6.8002    0.3210   28.7362 H   0  0  0  0  0  0  0  0  0  0  0  0
    6.3734   -0.4777   26.7835 C   0  0  0  0  0  0  0  0  0  0  0  0
    4.6558   -0.2617   26.9231 Cl  0  0  0  0  0  0  0  0  0  0  0  0
    6.8778   -0.9694   25.5853 C   0  0  0  0  0  0  0  0  0  0  0  0
    6.2121   -1.2625   24.7801 H   0  0  0  0  0  0  0  0  0  0  0  0
    8.1508   -1.0948   22.9030 C   0  0  0  0  0  0  0  0  0  0  0  0
    7.0710   -0.4956   22.2746 C   0  0  0  0  0  0  0  0  0  0  0  0
    6.1938   -0.0359   22.6881 H   0  0  0  0  0  0  0  0  0  0  0  0
    5.3829    0.6183   20.0158 C   0  0  0  0  0  0  0  0  0  0  0  0
    4.9177    0.6137   21.0037 H   0  0  0  0  0  0  0  0  0  0  0  0
    4.7866    1.3050   18.9633 C   0  0  0  0  0  0  0  0  0  0  0  0
    3.8711    1.8652   19.1119 H   0  0  0  0  0  0  0  0  0  0  0  0
  1  2  1  0
  2  3  2  0
  3  4  1  0
  4  5  1  0
  4  6  2  0
  6  7  1  0
  7  8  2  0
  8  9  1  0
  9 10  1  0
 10 11  1  0
 10 12  2  0
 12 13  1  0
 12 14  1  0
 14 15  1  0
 15 16  2  0
 16 17  1  0
 16 18  1  0
 18 19  1  0
 18 20  2  0
 20 21  1  0
 20 22  1  0
 22 23  1  0
 22 24  2  0
 24 25  1  0
 14 26  1  0
 26 27  2  0
 27 28  1  0
  6 29  1  0
 29 30  1  0
 29 31  2  0
 31 32  1  0
 31  2  1  0
 27  7  1  0
 26  9  1  0
 24 15  1  0
M  END
>  <cnnaffinity>  (1) 
-5.48641

>  <filename>  (1) 
Clc1cccc(-n2ccn3nc(-c4cccnc4)cc23)c1

$$$$
