
     RDKit          3D

 27 29  0  0  0  0  0  0  0  0999 V2000
    9.1864   -3.0609   21.9577 H   0  0  0  0  0  0  0  0  0  0  0  0
    8.5775   -2.1712   21.9136 C   0  0  0  0  0  0  0  0  0  0  0  0
    8.2229   -1.4186   22.8972 N   0  0  0  0  0  0  0  0  0  0  0  0
    7.4665   -0.4202   22.3030 C   0  0  0  0  0  0  0  0  0  0  0  0
    6.9128    0.7227   23.0412 C   0  0  0  0  0  0  0  0  0  0  0  0
    6.0323    0.4754   24.1058 C   0  0  0  0  0  0  0  0  0  0  0  0
    5.8146   -0.5547   24.3759 H   0  0  0  0  0  0  0  0  0  0  0  0
    5.4442    1.5255   24.8010 C   0  0  0  0  0  0  0  0  0  0  0  0
    4.7741    1.3107   25.6268 H   0  0  0  0  0  0  0  0  0  0  0  0
    5.7278    2.8444   24.4462 C   0  0  0  0  0  0  0  0  0  0  0  0
    5.2778    3.6685   24.9876 H   0  0  0  0  0  0  0  0  0  0  0  0
    6.6066    3.1161   23.3958 C   0  0  0  0  0  0  0  0  0  0  0  0
    6.9305    4.7726   23.0143 Cl  0  0  0  0  0  0  0  0  0  0  0  0
    7.2120    2.0616   22.6939 C   0  0  0  0  0  0  0  0  0  0  0  0
    8.3431    2.4049   21.4324 Cl  0  0  0  0  0  0  0  0  0  0  0  0
    7.3704   -0.6772   20.9588 C   0  0  0  0  0  0  0  0  0  0  0  0
    6.6529   -0.0102   19.8882 C   0  0  0  0  0  0  0  0  0  0  0  0
    7.1743    0.0518   18.5824 C   0  0  0  0  0  0  0  0  0  0  0  0
    8.1260   -0.4286   18.3666 H   0  0  0  0  0  0  0  0  0  0  0  0
    6.5735    0.6783   17.5667 N   0  0  0  0  0  0  0  0  0  0  0  0
    5.4077    1.2911   17.8411 C   0  0  0  0  0  0  0  0  0  0  0  0
    4.9180    1.7770   17.0014 H   0  0  0  0  0  0  0  0  0  0  0  0
    4.8057    1.3077   19.1082 C   0  0  0  0  0  0  0  0  0  0  0  0
    3.8716    1.8457   19.2611 H   0  0  0  0  0  0  0  0  0  0  0  0
    5.4387    0.6478   20.1570 C   0  0  0  0  0  0  0  0  0  0  0  0
    5.0077    0.6280   21.1639 H   0  0  0  0  0  0  0  0  0  0  0  0
    8.1167   -1.7940   20.7023 O   0  0  0  0  0  0  0  0  0  0  0  0
  1  2  1  0
  2  3  2  0
  3  4  1  0
  4  5  1  0
  5  6  2  0
  6  7  1  0
  6  8  1  0
  8  9  1  0
  8 10  2  0
 10 11  1  0
 10 12  1  0
 12 13  1  0
 12 14  2  0
 14 15  1  0
  4 16  2  0
 16 17  1  0
 17 18  2  0
 18 19  1  0
 18 20  1  0
 20 21  2  0
 21 22  1  0
 21 23  1  0
 23 24  1  0
 23 25  2  0
 25 26  1  0
 16 27  1  0
 27  2  1  0
 14  5  1  0
 25 17  1  0
M  END
>  <cnnaffinity>  (1) 
-5.01884

>  <filename>  (1) 
Clc1cccc(-c2ncoc2-c2cccnc2)c1Cl

$$$$
