
     RDKit          3D

 29 31  0  0  0  0  0  0  0  0999 V2000
    4.9189    1.8104   16.9787 H   0  0  0  0  0  0  0  0  0  0  0  0
    5.3770    1.2992   17.8215 C   0  0  0  0  0  0  0  0  0  0  0  0
    6.5378    0.6749   17.5674 N   0  0  0  0  0  0  0  0  0  0  0  0
    7.1560    0.0787   18.5930 C   0  0  0  0  0  0  0  0  0  0  0  0
    8.1065   -0.3953   18.3481 H   0  0  0  0  0  0  0  0  0  0  0  0
    6.6720    0.0574   19.9229 C   0  0  0  0  0  0  0  0  0  0  0  0
    7.4253   -0.6066   21.0229 C   0  0  0  0  0  0  0  0  0  0  0  0
    8.3620   -1.6865   20.9843 C   0  0  0  0  0  0  0  0  0  0  0  0
    8.7662   -2.1655   20.1144 H   0  0  0  0  0  0  0  0  0  0  0  0
    8.7833   -2.0733   22.1702 N   0  0  0  0  0  0  0  0  0  0  0  0
    8.1450   -1.2366   23.0249 N   0  0  0  0  0  0  0  0  0  0  0  0
    8.3594   -1.2533   24.0063 H   0  0  0  0  0  0  0  0  0  0  0  0
    7.3573   -0.3450   22.3781 C   0  0  0  0  0  0  0  0  0  0  0  0
    6.7036    0.6842   22.9745 O   0  0  0  0  0  0  0  0  0  0  0  0
    6.3878    0.6765   24.3241 C   0  0  0  0  0  0  0  0  0  0  0  0
    6.4021    1.9279   24.9383 C   0  0  0  0  0  0  0  0  0  0  0  0
    6.6909    2.7746   24.3256 H   0  0  0  0  0  0  0  0  0  0  0  0
    6.0535    2.0448   26.2859 C   0  0  0  0  0  0  0  0  0  0  0  0
    6.0401    3.0122   26.7791 H   0  0  0  0  0  0  0  0  0  0  0  0
    5.6980    0.8972   27.0040 C   0  0  0  0  0  0  0  0  0  0  0  0
    5.2547    1.0307   28.6833 Cl  0  0  0  0  0  0  0  0  0  0  0  0
    5.6744   -0.3568   26.3868 C   0  0  0  0  0  0  0  0  0  0  0  0
    5.3951   -1.2341   26.9634 H   0  0  0  0  0  0  0  0  0  0  0  0
    6.0101   -0.4681   25.0329 C   0  0  0  0  0  0  0  0  0  0  0  0
    5.9750   -1.4279   24.5239 H   0  0  0  0  0  0  0  0  0  0  0  0
    5.4385    0.7057   20.1495 C   0  0  0  0  0  0  0  0  0  0  0  0
    5.0244    0.7316   21.1558 H   0  0  0  0  0  0  0  0  0  0  0  0
    4.7774    1.3270   19.0843 C   0  0  0  0  0  0  0  0  0  0  0  0
    3.8321    1.8534   19.2111 H   0  0  0  0  0  0  0  0  0  0  0  0
  1  2  1  0
  2  3  2  0
  3  4  1  0
  4  5  1  0
  4  6  2  0
  6  7  1  0
  7  8  1  0
  8  9  1  0
  8 10  2  0
 10 11  1  0
 11 12  1  0
 11 13  1  0
 13 14  1  0
 14 15  1  0
 15 16  2  0
 16 17  1  0
 16 18  1  0
 18 19  1  0
 18 20  2  0
 20 21  1  0
 20 22  1  0
 22 23  1  0
 22 24  2  0
 24 25  1  0
  6 26  1  0
 26 27  1  0
 26 28  2  0
 28 29  1  0
 28  2  1  0
 13  7  2  0
 24 15  1  0
M  END
>  <cnnaffinity>  (1) 
-4.70348

>  <filename>  (1) 
Clc1ccc(Oc2[nH]ncc2-c2cccnc2)cc1

$$$$
