
     RDKit          3D

 32 35  0  0  0  0  0  0  0  0999 V2000
    4.9818    1.8435   16.9305 H   0  0  0  0  0  0  0  0  0  0  0  0
    5.4174    1.3020   17.7648 C   0  0  0  0  0  0  0  0  0  0  0  0
    6.5665    0.6588   17.5120 N   0  0  0  0  0  0  0  0  0  0  0  0
    7.1472    0.0049   18.5246 C   0  0  0  0  0  0  0  0  0  0  0  0
    8.0961   -0.4777   18.2930 H   0  0  0  0  0  0  0  0  0  0  0  0
    6.6194   -0.0418   19.8318 C   0  0  0  0  0  0  0  0  0  0  0  0
    7.3724   -0.6729   20.9393 C   0  0  0  0  0  0  0  0  0  0  0  0
    8.5017   -1.3686   20.7185 N   0  0  0  0  0  0  0  0  0  0  0  0
    8.9039   -1.6939   21.9641 N   0  0  0  0  0  0  0  0  0  0  0  0
   10.0107   -2.3388   22.4972 C   0  0  0  0  0  0  0  0  0  0  0  0
   10.7488   -2.7384   21.8269 H   0  0  0  0  0  0  0  0  0  0  0  0
    9.8994   -2.2392   23.8442 C   0  0  0  0  0  0  0  0  0  0  0  0
   10.5570   -2.5977   24.6221 H   0  0  0  0  0  0  0  0  0  0  0  0
    8.7180   -1.5427   24.1474 N   0  0  0  0  0  0  0  0  0  0  0  0
    8.1894   -1.1498   25.3972 C   0  0  0  0  0  0  0  0  0  0  0  0
    6.8392   -1.4376   25.6681 C   0  0  0  0  0  0  0  0  0  0  0  0
    6.2884   -1.9800   24.9076 H   0  0  0  0  0  0  0  0  0  0  0  0
    6.2059   -1.0053   26.8331 C   0  0  0  0  0  0  0  0  0  0  0  0
    5.1590   -1.2236   27.0100 H   0  0  0  0  0  0  0  0  0  0  0  0
    6.9399   -0.2582   27.7566 C   0  0  0  0  0  0  0  0  0  0  0  0
    6.1976    0.3436   29.2094 Cl  0  0  0  0  0  0  0  0  0  0  0  0
    8.2767    0.0450   27.5179 C   0  0  0  0  0  0  0  0  0  0  0  0
    8.8273    0.6294   28.2369 H   0  0  0  0  0  0  0  0  0  0  0  0
    8.8979   -0.3736   26.3372 C   0  0  0  0  0  0  0  0  0  0  0  0
   10.5071    0.2119   26.0365 Cl  0  0  0  0  0  0  0  0  0  0  0  0
    8.1054   -1.2258   22.9394 C   0  0  0  0  0  0  0  0  0  0  0  0
    7.0523   -0.5707   22.3189 C   0  0  0  0  0  0  0  0  0  0  0  0
    6.1881   -0.1079   22.7646 H   0  0  0  0  0  0  0  0  0  0  0  0
    5.3988    0.6221   20.0635 C   0  0  0  0  0  0  0  0  0  0  0  0
    4.9433    0.6518   21.0542 H   0  0  0  0  0  0  0  0  0  0  0  0
    4.7929    1.3035   19.0135 C   0  0  0  0  0  0  0  0  0  0  0  0
    3.8723    1.8564   19.1587 H   0  0  0  0  0  0  0  0  0  0  0  0
  1  2  1  0
  2  3  2  0
  3  4  1  0
  4  5  1  0
  4  6  2  0
  6  7  1  0
  7  8  2  0
  8  9  1  0
  9 10  1  0
 10 11  1  0
 10 12  2  0
 12 13  1  0
 12 14  1  0
 14 15  1  0
 15 16  2  0
 16 17  1  0
 16 18  1  0
 18 19  1  0
 18 20  2  0
 20 21  1  0
 20 22  1  0
 22 23  1  0
 22 24  2  0
 24 25  1  0
 14 26  1  0
 26 27  2  0
 27 28  1  0
  6 29  1  0
 29 30  1  0
 29 31  2  0
 31 32  1  0
 31  2  1  0
 27  7  1  0
 26  9  1  0
 24 15  1  0
M  END
>  <cnnaffinity>  (1) 
-5.8967

>  <filename>  (1) 
Clc1ccc(-n2ccn3nc(-c4cccnc4)cc23)c(Cl)c1

$$$$
