
     RDKit          3D

 44 47  0  0  0  0  0  0  0  0999 V2000
    6.6784    1.6908   23.5792 Cl  0  0  0  0  0  0  0  0  0  0  0  0
    8.3675    1.6189   24.0420 C   0  0  0  0  0  0  0  0  0  0  0  0
    8.6554    1.2558   25.3658 C   0  0  0  0  0  0  0  0  0  0  0  0
    9.9836    1.1253   25.7776 C   0  0  0  0  0  0  0  0  0  0  0  0
   11.0159    1.4765   24.9041 C   0  0  0  0  0  0  0  0  0  0  0  0
   10.7206    1.8541   23.5959 C   0  0  0  0  0  0  0  0  0  0  0  0
    9.3963    1.8723   23.1080 C   0  0  0  0  0  0  0  0  0  0  0  0
    9.1887    1.9646   21.6043 C   0  0  0  0  0  0  0  0  0  0  0  0
    9.5205    0.5974   20.9365 C   0  0  0  0  0  0  0  0  0  0  0  0
    8.6363   -0.5321   21.3713 C   0  0  0  0  0  0  0  0  0  0  0  0
    8.8762   -1.4046   22.3363 N   0  0  0  0  0  0  0  0  0  0  0  0
    7.6736   -2.0267   22.5022 C   0  0  0  0  0  0  0  0  0  0  0  0
    7.4310   -3.0379   23.5910 C   0  0  0  0  0  0  0  0  0  0  0  0
    6.0059   -3.0390   24.1928 C   0  0  0  0  0  0  0  0  0  0  0  0
    6.2185   -3.5904   25.6079 C   0  0  0  0  0  0  0  0  0  0  0  0
    7.5946   -3.4237   25.9134 O   0  0  0  0  0  0  0  0  0  0  0  0
    8.2790   -2.7914   24.8487 C   0  0  0  0  0  0  0  0  0  0  0  0
    9.2820   -3.2265   24.7897 H   0  0  0  0  0  0  0  0  0  0  0  0
    8.3755   -1.7098   25.0408 H   0  0  0  0  0  0  0  0  0  0  0  0
    5.9786   -4.6590   25.6829 H   0  0  0  0  0  0  0  0  0  0  0  0
    5.6040   -3.0586   26.3483 H   0  0  0  0  0  0  0  0  0  0  0  0
    5.6436   -2.0045   24.2534 H   0  0  0  0  0  0  0  0  0  0  0  0
    5.2873   -3.6253   23.6110 H   0  0  0  0  0  0  0  0  0  0  0  0
    7.6746   -4.0304   23.1902 H   0  0  0  0  0  0  0  0  0  0  0  0
    6.7365   -1.6432   21.6542 N   0  0  0  0  0  0  0  0  0  0  0  0
    7.3636   -0.6974   20.9070 N   0  0  0  0  0  0  0  0  0  0  0  0
    6.6612   -0.0285   19.8680 C   0  0  0  0  0  0  0  0  0  0  0  0
    5.4541    0.6187   20.1485 C   0  0  0  0  0  0  0  0  0  0  0  0
    4.8246    1.3030   19.1041 C   0  0  0  0  0  0  0  0  0  0  0  0
    5.4014    1.3001   17.8291 C   0  0  0  0  0  0  0  0  0  0  0  0
    6.5392    0.6478   17.5462 N   0  0  0  0  0  0  0  0  0  0  0  0
    7.1456   -0.0003   18.5470 C   0  0  0  0  0  0  0  0  0  0  0  0
    8.0694   -0.5217   18.2984 H   0  0  0  0  0  0  0  0  0  0  0  0
    4.9312    1.8310   17.0021 H   0  0  0  0  0  0  0  0  0  0  0  0
    3.8974    1.8366   19.2682 H   0  0  0  0  0  0  0  0  0  0  0  0
    5.0433    0.5837   21.1590 H   0  0  0  0  0  0  0  0  0  0  0  0
    9.4846    0.6919   19.8502 H   0  0  0  0  0  0  0  0  0  0  0  0
   10.5478    0.3193   21.1882 H   0  0  0  0  0  0  0  0  0  0  0  0
    8.1671    2.2748   21.3495 H   0  0  0  0  0  0  0  0  0  0  0  0
    9.8617    2.7222   21.1827 H   0  0  0  0  0  0  0  0  0  0  0  0
   11.5268    2.1055   22.9053 H   0  0  0  0  0  0  0  0  0  0  0  0
   12.0520    1.4419   25.2265 H   0  0  0  0  0  0  0  0  0  0  0  0
   10.2091    0.7177   26.7591 H   0  0  0  0  0  0  0  0  0  0  0  0
    7.8327    1.0595   26.0495 H   0  0  0  0  0  0  0  0  0  0  0  0
  1  2  1  0
  2  3  2  0
  3  4  1  0
  4  5  2  0
  5  6  1  0
  6  7  2  0
  7  8  1  0
  8  9  1  0
  9 10  1  0
 10 11  2  0
 11 12  1  0
 12 13  1  0
 13 14  1  0
 14 15  1  0
 15 16  1  0
 16 17  1  0
 17 18  1  0
 17 19  1  0
 15 20  1  0
 15 21  1  0
 14 22  1  0
 14 23  1  0
 13 24  1  0
 12 25  2  0
 25 26  1  0
 26 27  1  0
 27 28  2  0
 28 29  1  0
 29 30  2  0
 30 31  1  0
 31 32  2  0
 32 33  1  0
 30 34  1  0
 29 35  1  0
 28 36  1  0
  9 37  1  0
  9 38  1  0
  8 39  1  0
  8 40  1  0
  6 41  1  0
  5 42  1  0
  4 43  1  0
  3 44  1  0
  7  2  1  0
 26 10  1  0
 32 27  1  0
 17 13  1  0
M  END
>  <cnnaffinity>  (1) 
-5.86578

>  <filename>  (1) 
Clc1ccccc1CCc1nc(C2CCOC2)nn1-c1cccnc1

$$$$
