
     RDKit          3D

 44 47  0  0  0  0  0  0  0  0999 V2000
   16.0524   -0.3392   19.6397 Cl  0  0  0  0  0  0  0  0  0  0  0  0
   14.6230   -0.7747   20.7321 C   0  0  0  0  0  0  0  0  0  0  0  0
   14.3700    0.1671   21.7647 C   0  0  0  0  0  0  0  0  0  0  0  0
   13.0750    0.3205   22.2571 C   0  0  0  0  0  0  0  0  0  0  0  0
   12.0498   -0.4966   21.7280 C   0  0  0  0  0  0  0  0  0  0  0  0
   10.6049   -0.1433   21.7714 C   0  0  0  0  0  0  0  0  0  0  0  0
    9.6599   -0.9152   21.2415 N   0  0  0  0  0  0  0  0  0  0  0  0
    8.5277   -0.2004   21.4151 N   0  0  0  0  0  0  0  0  0  0  0  0
    7.2380   -0.7463   20.9912 C   0  0  0  0  0  0  0  0  0  0  0  0
    6.5418    0.0237   19.8868 C   0  0  0  0  0  0  0  0  0  0  0  0
    5.3195    0.6787   20.0750 C   0  0  0  0  0  0  0  0  0  0  0  0
    4.7402    1.3577   18.9996 C   0  0  0  0  0  0  0  0  0  0  0  0
    5.4056    1.3507   17.7705 C   0  0  0  0  0  0  0  0  0  0  0  0
    6.5706    0.7168   17.5633 N   0  0  0  0  0  0  0  0  0  0  0  0
    7.1166    0.0794   18.6057 C   0  0  0  0  0  0  0  0  0  0  0  0
    8.0603   -0.4279   18.4089 H   0  0  0  0  0  0  0  0  0  0  0  0
    4.9786    1.8641   16.9108 H   0  0  0  0  0  0  0  0  0  0  0  0
    3.8030    1.8943   19.1031 H   0  0  0  0  0  0  0  0  0  0  0  0
    4.8288    0.6637   21.0511 H   0  0  0  0  0  0  0  0  0  0  0  0
    7.4600   -1.7641   20.6654 H   0  0  0  0  0  0  0  0  0  0  0  0
    6.5721   -0.8358   21.8604 H   0  0  0  0  0  0  0  0  0  0  0  0
    8.8259    0.9526   22.0585 C   0  0  0  0  0  0  0  0  0  0  0  0
    7.8229    1.7844   22.7841 C   0  0  0  0  0  0  0  0  0  0  0  0
    7.6353    1.1834   24.1986 C   0  0  0  0  0  0  0  0  0  0  0  0
    6.5786    1.8630   25.0099 C   0  0  0  0  0  0  0  0  0  0  0  0
    5.2307    1.5175   24.9268 C   0  0  0  0  0  0  0  0  0  0  0  0
    4.2578    2.1591   25.5764 N   0  0  0  0  0  0  0  0  0  0  0  0
    4.6409    3.1752   26.3480 C   0  0  0  0  0  0  0  0  0  0  0  0
    5.8925    3.5936   26.5336 N   0  0  0  0  0  0  0  0  0  0  0  0
    6.8395    2.9318   25.8669 C   0  0  0  0  0  0  0  0  0  0  0  0
    7.8646    3.2732   26.0283 H   0  0  0  0  0  0  0  0  0  0  0  0
    3.8583    3.7103   26.8813 H   0  0  0  0  0  0  0  0  0  0  0  0
    4.9142    0.6768   24.3063 H   0  0  0  0  0  0  0  0  0  0  0  0
    7.3906    0.1158   24.0958 H   0  0  0  0  0  0  0  0  0  0  0  0
    8.6063    1.2267   24.7086 H   0  0  0  0  0  0  0  0  0  0  0  0
    6.8693    1.8373   22.2480 H   0  0  0  0  0  0  0  0  0  0  0  0
    8.1994    2.8081   22.8558 H   0  0  0  0  0  0  0  0  0  0  0  0
   10.1298    1.0207   22.2778 N   0  0  0  0  0  0  0  0  0  0  0  0
   12.4342   -1.6336   20.9964 C   0  0  0  0  0  0  0  0  0  0  0  0
   13.7261   -1.8011   20.4778 C   0  0  0  0  0  0  0  0  0  0  0  0
   14.0015   -2.6741   19.8877 H   0  0  0  0  0  0  0  0  0  0  0  0
   11.6409   -2.3340   20.7947 H   0  0  0  0  0  0  0  0  0  0  0  0
   12.8646    1.1119   22.9773 H   0  0  0  0  0  0  0  0  0  0  0  0
   15.1379    0.8787   22.0647 H   0  0  0  0  0  0  0  0  0  0  0  0
  1  2  1  0
  2  3  2  0
  3  4  1  0
  4  5  2  0
  5  6  1  0
  6  7  2  0
  7  8  1  0
  8  9  1  0
  9 10  1  0
 10 11  2  0
 11 12  1  0
 12 13  2  0
 13 14  1  0
 14 15  2  0
 15 16  1  0
 13 17  1  0
 12 18  1  0
 11 19  1  0
  9 20  1  0
  9 21  1  0
  8 22  1  0
 22 23  1  0
 23 24  1  0
 24 25  1  0
 25 26  2  0
 26 27  1  0
 27 28  2  0
 28 29  1  0
 29 30  2  0
 30 31  1  0
 28 32  1  0
 26 33  1  0
 24 34  1  0
 24 35  1  0
 23 36  1  0
 23 37  1  0
 22 38  2  0
  5 39  1  0
 39 40  2  0
 40 41  1  0
 39 42  1  0
  4 43  1  0
  3 44  1  0
 40  2  1  0
 38  6  1  0
 15 10  1  0
 30 25  1  0
M  END
>  <cnnaffinity>  (1) 
-6.62185

>  <filename>  (1) 
Clc1ccc(-c2nc(CCc3cncnc3)n(Cc3cccnc3)n2)cc1

$$$$
