
     RDKit          3D

 27 29  0  0  0  0  0  0  0  0999 V2000
    9.5476   -0.6242   20.1757 H   0  0  0  0  0  0  0  0  0  0  0  0
    8.8141   -0.9709   20.8931 C   0  0  0  0  0  0  0  0  0  0  0  0
    9.2545   -1.6338   22.0056 N   0  0  0  0  0  0  0  0  0  0  0  0
    8.2513   -1.9465   22.7768 C   0  0  0  0  0  0  0  0  0  0  0  0
    8.3812   -2.6356   24.0901 C   0  0  0  0  0  0  0  0  0  0  0  0
    9.2414   -3.7418   24.2592 C   0  0  0  0  0  0  0  0  0  0  0  0
    9.9371   -4.0167   23.4689 H   0  0  0  0  0  0  0  0  0  0  0  0
    9.2045   -4.4916   25.4405 C   0  0  0  0  0  0  0  0  0  0  0  0
    9.8909   -5.3176   25.5752 H   0  0  0  0  0  0  0  0  0  0  0  0
    8.2698   -4.2056   26.4419 C   0  0  0  0  0  0  0  0  0  0  0  0
    8.1907   -4.8383   27.3237 H   0  0  0  0  0  0  0  0  0  0  0  0
    7.4338   -3.0944   26.2966 C   0  0  0  0  0  0  0  0  0  0  0  0
    6.1875   -2.8103   27.4627 Cl  0  0  0  0  0  0  0  0  0  0  0  0
    7.5887   -2.2322   25.1929 C   0  0  0  0  0  0  0  0  0  0  0  0
    6.9193   -0.6355   25.2689 Cl  0  0  0  0  0  0  0  0  0  0  0  0
    6.6865   -1.5492   22.1079 S   0  0  0  0  0  0  0  0  0  0  0  0
    7.4648   -0.7782   20.7629 C   0  0  0  0  0  0  0  0  0  0  0  0
    6.7110   -0.0279   19.7273 C   0  0  0  0  0  0  0  0  0  0  0  0
    7.1618    0.0596   18.3912 C   0  0  0  0  0  0  0  0  0  0  0  0
    8.0788   -0.4446   18.0904 H   0  0  0  0  0  0  0  0  0  0  0  0
    6.5337    0.7250   17.4133 N   0  0  0  0  0  0  0  0  0  0  0  0
    5.3926    1.3586   17.7282 C   0  0  0  0  0  0  0  0  0  0  0  0
    4.9006    1.8950   16.9173 H   0  0  0  0  0  0  0  0  0  0  0  0
    4.8430    1.3405   19.0115 C   0  0  0  0  0  0  0  0  0  0  0  0
    3.9168    1.8715   19.2071 H   0  0  0  0  0  0  0  0  0  0  0  0
    5.5091    0.6477   20.0232 C   0  0  0  0  0  0  0  0  0  0  0  0
    5.1216    0.6391   21.0411 H   0  0  0  0  0  0  0  0  0  0  0  0
  1  2  1  0
  2  3  1  0
  3  4  2  0
  4  5  1  0
  5  6  2  0
  6  7  1  0
  6  8  1  0
  8  9  1  0
  8 10  2  0
 10 11  1  0
 10 12  1  0
 12 13  1  0
 12 14  2  0
 14 15  1  0
  4 16  1  0
 16 17  1  0
 17 18  1  0
 18 19  2  0
 19 20  1  0
 19 21  1  0
 21 22  2  0
 22 23  1  0
 22 24  1  0
 24 25  1  0
 24 26  2  0
 26 27  1  0
 17  2  2  0
 26 18  1  0
 14  5  1  0
M  END
>  <cnnaffinity>  (1) 
-5.38376

>  <filename>  (1) 
Clc1cccc(-c2ncc(-c3cccnc3)s2)c1Cl

$$$$
