
     RDKit          3D

 39 42  0  0  0  0  0  0  0  0999 V2000
    8.1351    2.7249   22.0439 Cl  0  0  0  0  0  0  0  0  0  0  0  0
    9.7268    2.1964   22.5151 C   0  0  0  0  0  0  0  0  0  0  0  0
   10.3487    2.8557   23.5765 C   0  0  0  0  0  0  0  0  0  0  0  0
   11.6093    2.4250   23.9918 C   0  0  0  0  0  0  0  0  0  0  0  0
   12.2421    1.3464   23.3710 C   0  0  0  0  0  0  0  0  0  0  0  0
   11.6010    0.7013   22.3114 C   0  0  0  0  0  0  0  0  0  0  0  0
   10.3476    1.1244   21.8538 C   0  0  0  0  0  0  0  0  0  0  0  0
    9.6303    0.3473   20.7737 C   0  0  0  0  0  0  0  0  0  0  0  0
    8.6144   -0.5721   21.3418 C   0  0  0  0  0  0  0  0  0  0  0  0
    8.8782   -1.4283   22.2962 N   0  0  0  0  0  0  0  0  0  0  0  0
    7.6815   -2.0311   22.5286 C   0  0  0  0  0  0  0  0  0  0  0  0
    7.4493   -3.0708   23.6047 C   0  0  0  0  0  0  0  0  0  0  0  0
    6.1629   -3.6352   23.7666 C   0  0  0  0  0  0  0  0  0  0  0  0
    5.9604   -4.5953   24.7583 C   0  0  0  0  0  0  0  0  0  0  0  0
    7.0399   -4.9652   25.5618 C   0  0  0  0  0  0  0  0  0  0  0  0
    8.2776   -4.3561   25.3357 C   0  0  0  0  0  0  0  0  0  0  0  0
    8.4851   -3.4414   24.3886 N   0  0  0  0  0  0  0  0  0  0  0  0
    9.1503   -4.6086   25.9357 H   0  0  0  0  0  0  0  0  0  0  0  0
    6.9418   -5.7048   26.3494 H   0  0  0  0  0  0  0  0  0  0  0  0
    4.9780   -5.0449   24.9051 H   0  0  0  0  0  0  0  0  0  0  0  0
    5.3535   -3.3099   23.1226 H   0  0  0  0  0  0  0  0  0  0  0  0
    6.7059   -1.6091   21.7242 N   0  0  0  0  0  0  0  0  0  0  0  0
    7.3209   -0.7007   20.9336 N   0  0  0  0  0  0  0  0  0  0  0  0
    6.6399   -0.0060   19.8985 C   0  0  0  0  0  0  0  0  0  0  0  0
    5.4320    0.6422   20.1658 C   0  0  0  0  0  0  0  0  0  0  0  0
    4.8110    1.3126   19.1089 C   0  0  0  0  0  0  0  0  0  0  0  0
    5.3991    1.2958   17.8380 C   0  0  0  0  0  0  0  0  0  0  0  0
    6.5565    0.6702   17.5752 N   0  0  0  0  0  0  0  0  0  0  0  0
    7.1619    0.0479   18.5911 C   0  0  0  0  0  0  0  0  0  0  0  0
    8.1121   -0.4322   18.3647 H   0  0  0  0  0  0  0  0  0  0  0  0
    4.9191    1.7852   16.9943 H   0  0  0  0  0  0  0  0  0  0  0  0
    3.8802    1.8417   19.2610 H   0  0  0  0  0  0  0  0  0  0  0  0
    5.0127    0.6091   21.1739 H   0  0  0  0  0  0  0  0  0  0  0  0
    9.1681    1.0379   20.0683 H   0  0  0  0  0  0  0  0  0  0  0  0
   10.3201   -0.3242   20.2592 H   0  0  0  0  0  0  0  0  0  0  0  0
   12.0612   -0.1604   21.8329 H   0  0  0  0  0  0  0  0  0  0  0  0
   13.2213    1.0106   23.7006 H   0  0  0  0  0  0  0  0  0  0  0  0
   12.0833    2.9430   24.8104 H   0  0  0  0  0  0  0  0  0  0  0  0
    9.8467    3.6905   24.0564 H   0  0  0  0  0  0  0  0  0  0  0  0
  1  2  1  0
  2  3  2  0
  3  4  1  0
  4  5  2  0
  5  6  1  0
  6  7  2  0
  7  8  1  0
  8  9  1  0
  9 10  2  0
 10 11  1  0
 11 12  1  0
 12 13  2  0
 13 14  1  0
 14 15  2  0
 15 16  1  0
 16 17  2  0
 16 18  1  0
 15 19  1  0
 14 20  1  0
 13 21  1  0
 11 22  2  0
 22 23  1  0
 23 24  1  0
 24 25  2  0
 25 26  1  0
 26 27  2  0
 27 28  1  0
 28 29  2  0
 29 30  1  0
 27 31  1  0
 26 32  1  0
 25 33  1  0
  8 34  1  0
  8 35  1  0
  6 36  1  0
  5 37  1  0
  4 38  1  0
  3 39  1  0
  7  2  1  0
 23  9  1  0
 29 24  1  0
 17 12  1  0
M  END
>  <cnnaffinity>  (1) 
-6.13124

>  <filename>  (1) 
Clc1ccccc1Cc1nc(-c2ccccn2)nn1-c1cccnc1

$$$$
