
     RDKit          3D

 26 28  0  0  0  0  0  0  0  0999 V2000
    8.8492   -3.1989   22.2092 H   0  0  0  0  0  0  0  0  0  0  0  0
    8.3499   -2.2822   21.9239 C   0  0  0  0  0  0  0  0  0  0  0  0
    7.9419   -1.9410   20.7492 N   0  0  0  0  0  0  0  0  0  0  0  0
    7.3596   -0.7009   20.9439 C   0  0  0  0  0  0  0  0  0  0  0  0
    6.6461   -0.0018   19.8891 C   0  0  0  0  0  0  0  0  0  0  0  0
    7.1684    0.0417   18.5876 C   0  0  0  0  0  0  0  0  0  0  0  0
    8.1199   -0.4368   18.3692 H   0  0  0  0  0  0  0  0  0  0  0  0
    6.5685    0.6753   17.5788 N   0  0  0  0  0  0  0  0  0  0  0  0
    5.4048    1.2925   17.8379 C   0  0  0  0  0  0  0  0  0  0  0  0
    4.9234    1.7824   16.9961 H   0  0  0  0  0  0  0  0  0  0  0  0
    4.8014    1.3098   19.0999 C   0  0  0  0  0  0  0  0  0  0  0  0
    3.8726    1.8441   19.2542 H   0  0  0  0  0  0  0  0  0  0  0  0
    5.4269    0.6470   20.1491 C   0  0  0  0  0  0  0  0  0  0  0  0
    5.0068    0.6379   21.1588 H   0  0  0  0  0  0  0  0  0  0  0  0
    7.5074   -0.3352   22.2623 C   0  0  0  0  0  0  0  0  0  0  0  0
    7.1979    0.8978   22.9747 C   0  0  0  0  0  0  0  0  0  0  0  0
    6.7636    0.9022   24.3108 C   0  0  0  0  0  0  0  0  0  0  0  0
    6.6770   -0.0301   24.8583 H   0  0  0  0  0  0  0  0  0  0  0  0
    6.4179    2.0077   24.9781 N   0  0  0  0  0  0  0  0  0  0  0  0
    6.5103    3.1549   24.3242 C   0  0  0  0  0  0  0  0  0  0  0  0
    6.0845    4.5837   25.2013 Cl  0  0  0  0  0  0  0  0  0  0  0  0
    6.9289    3.2930   22.9954 C   0  0  0  0  0  0  0  0  0  0  0  0
    6.9743    4.2707   22.5339 H   0  0  0  0  0  0  0  0  0  0  0  0
    7.2800    2.1386   22.3122 C   0  0  0  0  0  0  0  0  0  0  0  0
    7.6022    2.1950   21.2727 H   0  0  0  0  0  0  0  0  0  0  0  0
    8.1216   -1.3766   22.8995 O   0  0  0  0  0  0  0  0  0  0  0  0
  1  2  1  0
  2  3  2  0
  3  4  1  0
  4  5  1  0
  5  6  2  0
  6  7  1  0
  6  8  1  0
  8  9  2  0
  9 10  1  0
  9 11  1  0
 11 12  1  0
 11 13  2  0
 13 14  1  0
  4 15  2  0
 15 16  1  0
 16 17  2  0
 17 18  1  0
 17 19  1  0
 19 20  2  0
 20 21  1  0
 20 22  1  0
 22 23  1  0
 22 24  2  0
 24 25  1  0
 15 26  1  0
 26  2  1  0
 13  5  1  0
 24 16  1  0
M  END
>  <cnnaffinity>  (1) 
-5.03339

>  <filename>  (1) 
Clc1ccc(-c2ocnc2-c2cccnc2)cn1

$$$$
