
     RDKit          3D

 40 43  0  0  0  0  0  0  0  0999 V2000
   13.5635    1.3065   24.1114 Cl  0  0  0  0  0  0  0  0  0  0  0  0
   12.3540    1.0220   22.9035 C   0  0  0  0  0  0  0  0  0  0  0  0
   11.2603    1.8902   22.8378 C   0  0  0  0  0  0  0  0  0  0  0  0
   10.2593    1.5910   21.9169 C   0  0  0  0  0  0  0  0  0  0  0  0
   10.3798    0.4470   21.1123 C   0  0  0  0  0  0  0  0  0  0  0  0
    9.2081   -0.0022   20.2660 C   0  0  0  0  0  0  0  0  0  0  0  0
    8.2254   -0.8641   21.0169 C   0  0  0  0  0  0  0  0  0  0  0  0
    8.4882   -1.6319   22.0562 N   0  0  0  0  0  0  0  0  0  0  0  0
    7.2752   -2.1192   22.4048 C   0  0  0  0  0  0  0  0  0  0  0  0
    7.1506   -3.0435   23.5707 C   0  0  0  0  0  0  0  0  0  0  0  0
    6.2682   -2.6201   24.7737 C   0  0  0  0  0  0  0  0  0  0  0  0
    5.7715   -3.9674   25.3405 C   0  0  0  0  0  0  0  0  0  0  0  0
    6.1945   -4.9819   24.4424 O   0  0  0  0  0  0  0  0  0  0  0  0
    6.5562   -4.4083   23.2069 C   0  0  0  0  0  0  0  0  0  0  0  0
    5.6879   -4.2903   22.5368 H   0  0  0  0  0  0  0  0  0  0  0  0
    7.2826   -5.0785   22.7351 H   0  0  0  0  0  0  0  0  0  0  0  0
    4.6754   -3.9780   25.4324 H   0  0  0  0  0  0  0  0  0  0  0  0
    6.1969   -4.2027   26.3248 H   0  0  0  0  0  0  0  0  0  0  0  0
    5.4218   -2.0015   24.4606 H   0  0  0  0  0  0  0  0  0  0  0  0
    6.8320   -2.0520   25.5192 H   0  0  0  0  0  0  0  0  0  0  0  0
    8.1751   -3.1900   23.9269 H   0  0  0  0  0  0  0  0  0  0  0  0
    6.2753   -1.7380   21.6262 N   0  0  0  0  0  0  0  0  0  0  0  0
    6.8940   -0.9479   20.7095 N   0  0  0  0  0  0  0  0  0  0  0  0
    6.1863   -0.2666   19.6819 C   0  0  0  0  0  0  0  0  0  0  0  0
    5.0622    0.5182   19.9669 C   0  0  0  0  0  0  0  0  0  0  0  0
    4.5840    1.3726   18.9691 C   0  0  0  0  0  0  0  0  0  0  0  0
    5.2081    1.3711   17.7146 C   0  0  0  0  0  0  0  0  0  0  0  0
    6.2100    0.5340   17.3998 N   0  0  0  0  0  0  0  0  0  0  0  0
    6.6618   -0.2799   18.3565 C   0  0  0  0  0  0  0  0  0  0  0  0
    7.4575   -0.9671   18.0688 H   0  0  0  0  0  0  0  0  0  0  0  0
    4.8910    2.0574   16.9337 H   0  0  0  0  0  0  0  0  0  0  0  0
    3.7559    2.0529   19.1509 H   0  0  0  0  0  0  0  0  0  0  0  0
    4.5936    0.4593   20.9491 H   0  0  0  0  0  0  0  0  0  0  0  0
    8.6696    0.8857   19.9158 H   0  0  0  0  0  0  0  0  0  0  0  0
    9.5448   -0.5642   19.3828 H   0  0  0  0  0  0  0  0  0  0  0  0
   11.5667   -0.2890   21.2314 C   0  0  0  0  0  0  0  0  0  0  0  0
   12.5376   -0.0236   22.1164 N   0  0  0  0  0  0  0  0  0  0  0  0
   11.7766   -1.1171   20.5585 H   0  0  0  0  0  0  0  0  0  0  0  0
    9.3799    2.2271   21.8232 H   0  0  0  0  0  0  0  0  0  0  0  0
   11.2172    2.7493   23.4939 H   0  0  0  0  0  0  0  0  0  0  0  0
  1  2  1  0
  2  3  2  0
  3  4  1  0
  4  5  2  0
  5  6  1  0
  6  7  1  0
  7  8  2  0
  8  9  1  0
  9 10  1  0
 10 11  1  0
 11 12  1  0
 12 13  1  0
 13 14  1  0
 14 15  1  0
 14 16  1  0
 12 17  1  0
 12 18  1  0
 11 19  1  0
 11 20  1  0
 10 21  1  0
  9 22  2  0
 22 23  1  0
 23 24  1  0
 24 25  2  0
 25 26  1  0
 26 27  2  0
 27 28  1  0
 28 29  2  0
 29 30  1  0
 27 31  1  0
 26 32  1  0
 25 33  1  0
  6 34  1  0
  6 35  1  0
  5 36  1  0
 36 37  2  0
 36 38  1  0
  4 39  1  0
  3 40  1  0
 37  2  1  0
 23  7  1  0
 29 24  1  0
 14 10  1  0
M  END
>  <cnnaffinity>  (1) 
-6.04956

>  <filename>  (1) 
Clc1ccc(Cc2nc(C3CCOC3)nn2-c2cccnc2)cn1

$$$$
