
     RDKit          3D

 24 26  0  0  0  0  0  0  0  0999 V2000
    4.9289    2.1045   16.1593 H   0  0  0  0  0  0  0  0  0  0  0  0
    5.2955    1.6418   17.0728 C   0  0  0  0  0  0  0  0  0  0  0  0
    6.4291    0.9258   16.9582 N   0  0  0  0  0  0  0  0  0  0  0  0
    6.9382    0.4114   18.0749 C   0  0  0  0  0  0  0  0  0  0  0  0
    7.8707   -0.1560   18.0110 H   0  0  0  0  0  0  0  0  0  0  0  0
    6.3330    0.5461   19.3370 C   0  0  0  0  0  0  0  0  0  0  0  0
    6.9737   -0.0824   20.4345 N   0  0  0  0  0  0  0  0  0  0  0  0
    8.3194   -0.2087   20.4208 N   0  0  0  0  0  0  0  0  0  0  0  0
    8.5433   -1.0446   21.4187 C   0  0  0  0  0  0  0  0  0  0  0  0
    9.8836   -1.4993   21.7352 C   0  0  0  0  0  0  0  0  0  0  0  0
   11.2466   -0.6355   21.1179 S   0  0  0  0  0  0  0  0  0  0  0  0
   12.3194   -1.7105   21.9249 C   0  0  0  0  0  0  0  0  0  0  0  0
   14.0214   -1.5240   21.7893 Cl  0  0  0  0  0  0  0  0  0  0  0  0
   11.6578   -2.6813   22.6177 C   0  0  0  0  0  0  0  0  0  0  0  0
   12.1523   -3.4441   23.1970 H   0  0  0  0  0  0  0  0  0  0  0  0
   10.2536   -2.5654   22.5039 C   0  0  0  0  0  0  0  0  0  0  0  0
    9.5308   -3.2428   22.9443 H   0  0  0  0  0  0  0  0  0  0  0  0
    7.4289   -1.4687   22.0736 N   0  0  0  0  0  0  0  0  0  0  0  0
    6.4636   -0.8523   21.4304 C   0  0  0  0  0  0  0  0  0  0  0  0
    5.4025   -0.9530   21.5881 H   0  0  0  0  0  0  0  0  0  0  0  0
    5.1414    1.2668   19.4573 C   0  0  0  0  0  0  0  0  0  0  0  0
    4.6680    1.4355   20.4274 H   0  0  0  0  0  0  0  0  0  0  0  0
    4.6168    1.8260   18.2833 C   0  0  0  0  0  0  0  0  0  0  0  0
    3.7121    2.4246   18.3020 H   0  0  0  0  0  0  0  0  0  0  0  0
  1  2  1  0
  2  3  2  0
  3  4  1  0
  4  5  1  0
  4  6  2  0
  6  7  1  0
  7  8  1  0
  8  9  2  0
  9 10  1  0
 10 11  1  0
 11 12  1  0
 12 13  1  0
 12 14  2  0
 14 15  1  0
 14 16  1  0
 16 17  1  0
  9 18  1  0
 18 19  2  0
 19 20  1  0
  6 21  1  0
 21 22  1  0
 21 23  2  0
 23 24  1  0
 23  2  1  0
 19  7  1  0
 16 10  2  0
M  END
>  <cnnaffinity>  (1) 
-5.31948

>  <filename>  (1) 
Clc1ccc(-c2ncn(-c3cccnc3)n2)s1

$$$$
