
     RDKit          3D

 44 48  0  0  0  0  0  0  0  0999 V2000
    6.7814   -6.2692   26.6862 Cl  0  0  0  0  0  0  0  0  0  0  0  0
    7.0438   -5.0397   25.4886 C   0  0  0  0  0  0  0  0  0  0  0  0
    8.2570   -4.3469   25.4676 C   0  0  0  0  0  0  0  0  0  0  0  0
    8.4593   -3.3599   24.5041 C   0  0  0  0  0  0  0  0  0  0  0  0
    7.4551   -3.0610   23.5578 C   0  0  0  0  0  0  0  0  0  0  0  0
    7.6628   -2.0128   22.5280 C   0  0  0  0  0  0  0  0  0  0  0  0
    6.7455   -1.6533   21.6440 N   0  0  0  0  0  0  0  0  0  0  0  0
    7.3552   -0.6723   20.9398 N   0  0  0  0  0  0  0  0  0  0  0  0
    6.6553    0.0057   19.8996 C   0  0  0  0  0  0  0  0  0  0  0  0
    5.4377    0.6413   20.1653 C   0  0  0  0  0  0  0  0  0  0  0  0
    4.8119    1.3101   19.1083 C   0  0  0  0  0  0  0  0  0  0  0  0
    5.4001    1.2965   17.8365 C   0  0  0  0  0  0  0  0  0  0  0  0
    6.5568    0.6707   17.5728 N   0  0  0  0  0  0  0  0  0  0  0  0
    7.1642    0.0498   18.5891 C   0  0  0  0  0  0  0  0  0  0  0  0
    8.1119   -0.4352   18.3663 H   0  0  0  0  0  0  0  0  0  0  0  0
    4.9199    1.7874   16.9925 H   0  0  0  0  0  0  0  0  0  0  0  0
    3.8799    1.8406   19.2600 H   0  0  0  0  0  0  0  0  0  0  0  0
    5.0147    0.6100   21.1736 H   0  0  0  0  0  0  0  0  0  0  0  0
    8.6055   -0.4649   21.4584 C   0  0  0  0  0  0  0  0  0  0  0  0
    9.4791    0.6848   21.0334 C   0  0  0  0  0  0  0  0  0  0  0  0
    9.0037    2.0253   21.6507 C   0  0  0  0  0  0  0  0  0  0  0  0
    9.1284    1.9925   23.1821 C   0  0  0  0  0  0  0  0  0  0  0  0
   10.4269    1.3968   23.6413 C   0  0  0  0  0  0  0  0  0  0  0  0
   10.9374    1.4802   24.8485 N   0  0  0  0  0  0  0  0  0  0  0  0
   12.0940    0.7381   24.7965 C   0  0  0  0  0  0  0  0  0  0  0  0
   12.2836    0.2117   23.5505 C   0  0  0  0  0  0  0  0  0  0  0  0
   11.2050    0.6421   22.8108 N   0  0  0  0  0  0  0  0  0  0  0  0
   10.9544    0.4274   21.3910 C   0  0  0  0  0  0  0  0  0  0  0  0
   11.6106    1.0892   20.8124 H   0  0  0  0  0  0  0  0  0  0  0  0
   11.2211   -0.6017   21.1445 H   0  0  0  0  0  0  0  0  0  0  0  0
   13.0661   -0.4040   23.1295 H   0  0  0  0  0  0  0  0  0  0  0  0
   12.7411    0.6111   25.6508 H   0  0  0  0  0  0  0  0  0  0  0  0
    9.0356    2.9900   23.6158 H   0  0  0  0  0  0  0  0  0  0  0  0
    8.3275    1.3909   23.6285 H   0  0  0  0  0  0  0  0  0  0  0  0
    9.6219    2.8355   21.2496 H   0  0  0  0  0  0  0  0  0  0  0  0
    7.9695    2.2331   21.3514 H   0  0  0  0  0  0  0  0  0  0  0  0
    9.4081    0.7510   19.9472 H   0  0  0  0  0  0  0  0  0  0  0  0
    8.8278   -1.3221   22.4286 N   0  0  0  0  0  0  0  0  0  0  0  0
    6.2410   -3.7748   23.6057 C   0  0  0  0  0  0  0  0  0  0  0  0
    6.0333   -4.7623   24.5654 C   0  0  0  0  0  0  0  0  0  0  0  0
    5.0993   -5.3129   24.6070 H   0  0  0  0  0  0  0  0  0  0  0  0
    5.4598   -3.5418   22.8860 H   0  0  0  0  0  0  0  0  0  0  0  0
    9.4051   -2.8214   24.4922 H   0  0  0  0  0  0  0  0  0  0  0  0
    9.0234   -4.5852   26.1998 H   0  0  0  0  0  0  0  0  0  0  0  0
  1  2  1  0
  2  3  2  0
  3  4  1  0
  4  5  2  0
  5  6  1  0
  6  7  2  0
  7  8  1  0
  8  9  1  0
  9 10  2  0
 10 11  1  0
 11 12  2  0
 12 13  1  0
 13 14  2  0
 14 15  1  0
 12 16  1  0
 11 17  1  0
 10 18  1  0
  8 19  1  0
 19 20  1  0
 20 21  1  0
 21 22  1  0
 22 23  1  0
 23 24  2  0
 24 25  1  0
 25 26  2  0
 26 27  1  0
 27 28  1  0
 28 29  1  0
 28 30  1  0
 26 31  1  0
 25 32  1  0
 22 33  1  0
 22 34  1  0
 21 35  1  0
 21 36  1  0
 20 37  1  0
 19 38  2  0
  5 39  1  0
 39 40  2  0
 40 41  1  0
 39 42  1  0
  4 43  1  0
  3 44  1  0
 40  2  1  0
 38  6  1  0
 14  9  1  0
 28 20  1  0
 27 23  1  0
M  END
>  <cnnaffinity>  (1) 
-6.2733

>  <filename>  (1) 
Clc1ccc(-c2nc(C3CCc4nccn4C3)n(-c3cccnc3)n2)cc1

$$$$
