
     RDKit          3D

 27 28  0  0  0  0  0  0  0  0999 V2000
    4.9677    1.7552   16.9121 H   0  0  0  0  0  0  0  0  0  0  0  0
    5.3945    1.3048   17.8075 C   0  0  0  0  0  0  0  0  0  0  0  0
    6.5793    0.6924   17.6570 N   0  0  0  0  0  0  0  0  0  0  0  0
    7.1335    0.1465   18.7457 C   0  0  0  0  0  0  0  0  0  0  0  0
    8.0877   -0.3564   18.5886 H   0  0  0  0  0  0  0  0  0  0  0  0
    6.5609    0.1795   20.0276 C   0  0  0  0  0  0  0  0  0  0  0  0
    7.2506   -0.4805   21.2013 C   0  0  2  0  0  0  0  0  0  0  0  0
    6.7506   -0.2284   22.1413 H   0  0  0  0  0  0  0  0  0  0  0  0
    8.9185    0.1990   21.3280 Cl  0  0  0  0  0  0  0  0  0  0  0  0
    7.2975   -2.0085   21.0143 C   0  0  0  0  0  0  0  0  0  0  0  0
    8.0076   -2.1545   20.2041 H   0  0  0  0  0  0  0  0  0  0  0  0
    6.3227   -2.3162   20.6337 H   0  0  0  0  0  0  0  0  0  0  0  0
    7.7234   -2.8505   22.1964 C   0  0  0  0  0  0  0  0  0  0  0  0
    9.0997   -3.0120   22.4122 C   0  0  0  0  0  0  0  0  0  0  0  0
    9.7882   -2.5452   21.7113 H   0  0  0  0  0  0  0  0  0  0  0  0
    9.5822   -3.7164   23.5137 C   0  0  0  0  0  0  0  0  0  0  0  0
   10.6518   -3.8403   23.6592 H   0  0  0  0  0  0  0  0  0  0  0  0
    8.6895   -4.2443   24.4451 C   0  0  0  0  0  0  0  0  0  0  0  0
    9.0536   -4.7356   25.3433 H   0  0  0  0  0  0  0  0  0  0  0  0
    7.3131   -4.1238   24.2375 C   0  0  0  0  0  0  0  0  0  0  0  0
    6.2419   -4.7835   25.4289 Cl  0  0  0  0  0  0  0  0  0  0  0  0
    6.8250   -3.5042   23.0685 C   0  0  0  0  0  0  0  0  0  0  0  0
    5.1332   -3.6228   22.6747 Cl  0  0  0  0  0  0  0  0  0  0  0  0
    5.3161    0.8040   20.1585 C   0  0  0  0  0  0  0  0  0  0  0  0
    4.8208    0.8323   21.1293 H   0  0  0  0  0  0  0  0  0  0  0  0
    4.7214    1.3772   19.0304 C   0  0  0  0  0  0  0  0  0  0  0  0
    3.7637    1.8837   19.0876 H   0  0  0  0  0  0  0  0  0  0  0  0
  1  2  1  0
  2  3  2  0
  3  4  1  0
  4  5  1  0
  4  6  2  0
  6  7  1  0
  7  8  1  1
  7  9  1  0
  7 10  1  0
 10 11  1  0
 10 12  1  0
 10 13  1  0
 13 14  2  0
 14 15  1  0
 14 16  1  0
 16 17  1  0
 16 18  2  0
 18 19  1  0
 18 20  1  0
 20 21  1  0
 20 22  2  0
 22 23  1  0
  6 24  1  0
 24 25  1  0
 24 26  2  0
 26 27  1  0
 26  2  1  0
 22 13  1  0
M  END
>  <cnnaffinity>  (1) 
-5.0542

>  <filename>  (1) 
Clc1cccc(C[C@@H](Cl)c2cccnc2)c1Cl

$$$$
