
     RDKit          3D

 42 45  0  0  0  0  0  0  0  0999 V2000
    4.6295    4.4307   28.1878 Cl  0  0  0  0  0  0  0  0  0  0  0  0
    5.0317    3.3858   26.8971 C   0  0  0  0  0  0  0  0  0  0  0  0
    4.0949    2.7994   26.2020 N   0  0  0  0  0  0  0  0  0  0  0  0
    4.7754    2.0064   25.3080 O   0  0  0  0  0  0  0  0  0  0  0  0
    6.1001    2.1248   25.5023 C   0  0  0  0  0  0  0  0  0  0  0  0
    7.0007    1.2678   24.6890 C   0  0  0  0  0  0  0  0  0  0  0  0
    7.2270    1.7287   23.2254 C   0  0  0  0  0  0  0  0  0  0  0  0
    8.2220    0.8588   22.5309 C   0  0  0  0  0  0  0  0  0  0  0  0
    9.5290    0.9225   22.7246 N   0  0  0  0  0  0  0  0  0  0  0  0
   10.0080   -0.1178   21.9997 C   0  0  0  0  0  0  0  0  0  0  0  0
   11.4364   -0.4502   21.8315 C   0  0  0  0  0  0  0  0  0  0  0  0
   12.4854    0.3574   22.3125 C   0  0  0  0  0  0  0  0  0  0  0  0
   13.8139   -0.0248   22.0950 C   0  0  0  0  0  0  0  0  0  0  0  0
   14.0941   -1.1732   21.3435 C   0  0  0  0  0  0  0  0  0  0  0  0
   13.0621   -1.9274   20.8036 C   0  0  0  0  0  0  0  0  0  0  0  0
   11.7496   -1.6054   21.1026 C   0  0  0  0  0  0  0  0  0  0  0  0
   10.9353   -2.2479   20.7849 H   0  0  0  0  0  0  0  0  0  0  0  0
   13.2856   -2.7406   20.1220 H   0  0  0  0  0  0  0  0  0  0  0  0
   15.0858   -1.5146   21.1131 H   0  0  0  0  0  0  0  0  0  0  0  0
   14.6274    0.6029   22.4451 H   0  0  0  0  0  0  0  0  0  0  0  0
   12.2570    1.2719   22.8584 H   0  0  0  0  0  0  0  0  0  0  0  0
    9.0632   -0.8169   21.3837 N   0  0  0  0  0  0  0  0  0  0  0  0
    7.9225   -0.1934   21.7368 N   0  0  0  0  0  0  0  0  0  0  0  0
    6.6523   -0.6446   21.1821 C   0  0  0  0  0  0  0  0  0  0  0  0
    6.2022    0.1318   19.9605 C   0  0  0  0  0  0  0  0  0  0  0  0
    4.9885    0.8200   19.9018 C   0  0  0  0  0  0  0  0  0  0  0  0
    4.6499    1.4945   18.7259 C   0  0  0  0  0  0  0  0  0  0  0  0
    5.5378    1.4504   17.6494 C   0  0  0  0  0  0  0  0  0  0  0  0
    6.7071    0.7929   17.6813 N   0  0  0  0  0  0  0  0  0  0  0  0
    7.0242    0.1663   18.8200 C   0  0  0  0  0  0  0  0  0  0  0  0
    7.9846   -0.3470   18.8323 H   0  0  0  0  0  0  0  0  0  0  0  0
    5.3034    1.9664   16.7206 H   0  0  0  0  0  0  0  0  0  0  0  0
    3.7226    2.0480   18.6331 H   0  0  0  0  0  0  0  0  0  0  0  0
    4.3156    0.8265   20.7610 H   0  0  0  0  0  0  0  0  0  0  0  0
    5.8935   -0.6067   21.9697 H   0  0  0  0  0  0  0  0  0  0  0  0
    6.8086   -1.6981   20.9269 H   0  0  0  0  0  0  0  0  0  0  0  0
    7.6375    2.7434   23.2144 H   0  0  0  0  0  0  0  0  0  0  0  0
    6.2814    1.7580   22.6697 H   0  0  0  0  0  0  0  0  0  0  0  0
    6.6068    0.2449   24.6978 H   0  0  0  0  0  0  0  0  0  0  0  0
    7.9730    1.2357   25.1911 H   0  0  0  0  0  0  0  0  0  0  0  0
    6.3379    3.0233   26.4914 C   0  0  0  0  0  0  0  0  0  0  0  0
    7.2809    3.3865   26.8633 H   0  0  0  0  0  0  0  0  0  0  0  0
  1  2  1  0
  2  3  2  0
  3  4  1  0
  4  5  1  0
  5  6  1  0
  6  7  1  0
  7  8  1  0
  8  9  2  0
  9 10  1  0
 10 11  1  0
 11 12  2  0
 12 13  1  0
 13 14  2  0
 14 15  1  0
 15 16  2  0
 16 17  1  0
 15 18  1  0
 14 19  1  0
 13 20  1  0
 12 21  1  0
 10 22  2  0
 22 23  1  0
 23 24  1  0
 24 25  1  0
 25 26  2  0
 26 27  1  0
 27 28  2  0
 28 29  1  0
 29 30  2  0
 30 31  1  0
 28 32  1  0
 27 33  1  0
 26 34  1  0
 24 35  1  0
 24 36  1  0
  7 37  1  0
  7 38  1  0
  6 39  1  0
  6 40  1  0
  5 41  2  0
 41 42  1  0
 41  2  1  0
 23  8  1  0
 30 25  1  0
 16 11  1  0
M  END
>  <cnnaffinity>  (1) 
-6.41166

>  <filename>  (1) 
Clc1cc(CCc2nc(-c3ccccc3)nn2Cc2cccnc2)on1

$$$$
