
     RDKit          3D

 44 47  0  0  0  0  0  0  0  0999 V2000
    3.1890    4.0860   27.2084 Cl  0  0  0  0  0  0  0  0  0  0  0  0
    4.4793    3.2381   26.4010 C   0  0  0  0  0  0  0  0  0  0  0  0
    5.7969    3.6688   26.6039 C   0  0  0  0  0  0  0  0  0  0  0  0
    6.8077    2.9934   25.9200 C   0  0  0  0  0  0  0  0  0  0  0  0
    6.4753    1.9318   25.0613 C   0  0  0  0  0  0  0  0  0  0  0  0
    7.5035    1.2415   24.2090 C   0  0  0  0  0  0  0  0  0  0  0  0
    7.6043    1.8158   22.7669 C   0  0  0  0  0  0  0  0  0  0  0  0
    8.6020    1.0323   21.9838 C   0  0  0  0  0  0  0  0  0  0  0  0
    9.9114    1.1690   22.1124 N   0  0  0  0  0  0  0  0  0  0  0  0
   10.3933   -0.0132   21.6586 C   0  0  0  0  0  0  0  0  0  0  0  0
   11.8356   -0.3968   21.7393 C   0  0  0  0  0  0  0  0  0  0  0  0
   12.2528   -1.6521   21.2577 C   0  0  0  0  0  0  0  0  0  0  0  0
   13.6022   -1.9983   21.3035 C   0  0  0  0  0  0  0  0  0  0  0  0
   14.5294   -1.2128   21.8521 N   0  0  0  0  0  0  0  0  0  0  0  0
   14.1418   -0.0248   22.3269 C   0  0  0  0  0  0  0  0  0  0  0  0
   12.8252    0.4442   22.2905 C   0  0  0  0  0  0  0  0  0  0  0  0
   12.6048    1.4430   22.6610 H   0  0  0  0  0  0  0  0  0  0  0  0
   14.9310    0.5796   22.7577 H   0  0  0  0  0  0  0  0  0  0  0  0
   13.9788   -2.9133   20.8539 H   0  0  0  0  0  0  0  0  0  0  0  0
   11.5080   -2.3171   20.8556 H   0  0  0  0  0  0  0  0  0  0  0  0
    9.4582   -0.8422   21.2120 N   0  0  0  0  0  0  0  0  0  0  0  0
    8.3169   -0.1552   21.4059 N   0  0  0  0  0  0  0  0  0  0  0  0
    7.0321   -0.7235   21.0014 C   0  0  0  0  0  0  0  0  0  0  0  0
    6.3583    0.0285   19.8701 C   0  0  0  0  0  0  0  0  0  0  0  0
    5.1439    0.7126   19.9982 C   0  0  0  0  0  0  0  0  0  0  0  0
    4.6442    1.4190   18.8987 C   0  0  0  0  0  0  0  0  0  0  0  0
    5.3707    1.4032   17.7048 C   0  0  0  0  0  0  0  0  0  0  0  0
    6.5162    0.7216   17.5499 N   0  0  0  0  0  0  0  0  0  0  0  0
    6.9886    0.0661   18.6152 C   0  0  0  0  0  0  0  0  0  0  0  0
    7.9270   -0.4661   18.4703 H   0  0  0  0  0  0  0  0  0  0  0  0
    5.0218    1.9572   16.8339 H   0  0  0  0  0  0  0  0  0  0  0  0
    3.7316    2.0027   18.9575 H   0  0  0  0  0  0  0  0  0  0  0  0
    4.5955    0.7072   20.9434 H   0  0  0  0  0  0  0  0  0  0  0  0
    6.3764   -0.7738   21.8798 H   0  0  0  0  0  0  0  0  0  0  0  0
    7.2551   -1.7512   20.6989 H   0  0  0  0  0  0  0  0  0  0  0  0
    6.6305    1.7968   22.2677 H   0  0  0  0  0  0  0  0  0  0  0  0
    7.9358    2.8552   22.8038 H   0  0  0  0  0  0  0  0  0  0  0  0
    7.2726    0.1676   24.1420 H   0  0  0  0  0  0  0  0  0  0  0  0
    8.4943    1.3064   24.6798 H   0  0  0  0  0  0  0  0  0  0  0  0
    5.1190    1.5813   24.9859 C   0  0  0  0  0  0  0  0  0  0  0  0
    4.1322    2.2206   25.6337 N   0  0  0  0  0  0  0  0  0  0  0  0
    4.7981    0.7419   24.3688 H   0  0  0  0  0  0  0  0  0  0  0  0
    7.8509    3.2870   26.0536 H   0  0  0  0  0  0  0  0  0  0  0  0
    5.9940    4.5044   27.2620 H   0  0  0  0  0  0  0  0  0  0  0  0
  1  2  1  0
  2  3  2  0
  3  4  1  0
  4  5  2  0
  5  6  1  0
  6  7  1  0
  7  8  1  0
  8  9  2  0
  9 10  1  0
 10 11  1  0
 11 12  2  0
 12 13  1  0
 13 14  2  0
 14 15  1  0
 15 16  2  0
 16 17  1  0
 15 18  1  0
 13 19  1  0
 12 20  1  0
 10 21  2  0
 21 22  1  0
 22 23  1  0
 23 24  1  0
 24 25  2  0
 25 26  1  0
 26 27  2  0
 27 28  1  0
 28 29  2  0
 29 30  1  0
 27 31  1  0
 26 32  1  0
 25 33  1  0
 23 34  1  0
 23 35  1  0
  7 36  1  0
  7 37  1  0
  6 38  1  0
  6 39  1  0
  5 40  1  0
 40 41  2  0
 40 42  1  0
  4 43  1  0
  3 44  1  0
 41  2  1  0
 22  8  1  0
 29 24  1  0
 16 11  1  0
M  END
>  <cnnaffinity>  (1) 
-6.65341

>  <filename>  (1) 
Clc1ccc(CCc2nc(-c3ccncc3)nn2Cc2cccnc2)cn1

$$$$
