
     RDKit          3D

 40 43  0  0  0  0  0  0  0  0999 V2000
    9.2205    2.0874   20.9814 Cl  0  0  0  0  0  0  0  0  0  0  0  0
    9.4896    1.9143   22.6823 C   0  0  0  0  0  0  0  0  0  0  0  0
   10.7867    2.1248   23.1661 C   0  0  0  0  0  0  0  0  0  0  0  0
   11.0151    2.0473   24.5426 C   0  0  0  0  0  0  0  0  0  0  0  0
    9.9571    1.7429   25.4030 C   0  0  0  0  0  0  0  0  0  0  0  0
    8.6656    1.5527   24.8985 C   0  0  0  0  0  0  0  0  0  0  0  0
    8.4081    1.5997   23.5202 C   0  0  0  0  0  0  0  0  0  0  0  0
    7.0654    1.1634   22.9398 C   0  0  0  0  0  0  0  0  0  0  0  0
    7.1505   -0.1441   22.2633 N   0  0  0  0  0  0  0  0  0  0  0  0
    7.6255   -1.2001   22.9773 N   0  0  0  0  0  0  0  0  0  0  0  0
    7.9288   -2.0869   22.0501 C   0  0  0  0  0  0  0  0  0  0  0  0
    8.5921   -3.3835   22.3592 C   0  0  0  0  0  0  0  0  0  0  0  0
    7.6917   -4.4513   22.9604 C   0  0  0  0  0  0  0  0  0  0  0  0
    6.8365   -5.2844   22.0527 C   0  0  0  0  0  0  0  0  0  0  0  0
    8.0380   -5.8889   22.7213 C   0  0  0  0  0  0  0  0  0  0  0  0
    8.9132   -6.1102   22.1168 H   0  0  0  0  0  0  0  0  0  0  0  0
    7.8833   -6.5955   23.5270 H   0  0  0  0  0  0  0  0  0  0  0  0
    5.8532   -5.5796   22.4087 H   0  0  0  0  0  0  0  0  0  0  0  0
    6.8734   -5.0819   20.9839 H   0  0  0  0  0  0  0  0  0  0  0  0
    7.2680   -4.2092   23.9358 H   0  0  0  0  0  0  0  0  0  0  0  0
    8.9935   -3.7124   21.3990 H   0  0  0  0  0  0  0  0  0  0  0  0
    9.4399   -3.1851   23.0249 H   0  0  0  0  0  0  0  0  0  0  0  0
    7.6928   -1.6777   20.7804 N   0  0  0  0  0  0  0  0  0  0  0  0
    7.1528   -0.4830   20.9414 C   0  0  0  0  0  0  0  0  0  0  0  0
    6.5245    0.2558   19.8493 C   0  0  0  0  0  0  0  0  0  0  0  0
    5.3058    0.9420   19.9573 C   0  0  0  0  0  0  0  0  0  0  0  0
    4.7612    1.5067   18.8060 C   0  0  0  0  0  0  0  0  0  0  0  0
    5.4542    1.3832   17.5962 C   0  0  0  0  0  0  0  0  0  0  0  0
    6.6066    0.7059   17.4763 N   0  0  0  0  0  0  0  0  0  0  0  0
    7.1113    0.1465   18.5779 C   0  0  0  0  0  0  0  0  0  0  0  0
    8.0329   -0.4164   18.4411 H   0  0  0  0  0  0  0  0  0  0  0  0
    5.0587    1.8338   16.6875 H   0  0  0  0  0  0  0  0  0  0  0  0
    3.8263    2.0507   18.8380 H   0  0  0  0  0  0  0  0  0  0  0  0
    4.7851    1.0022   20.9157 H   0  0  0  0  0  0  0  0  0  0  0  0
    6.3319    1.0541   23.7415 H   0  0  0  0  0  0  0  0  0  0  0  0
    6.7069    1.9040   22.2187 H   0  0  0  0  0  0  0  0  0  0  0  0
    7.8430    1.3820   25.5917 H   0  0  0  0  0  0  0  0  0  0  0  0
   10.1332    1.6291   26.4643 H   0  0  0  0  0  0  0  0  0  0  0  0
   12.0105    2.2218   24.9473 H   0  0  0  0  0  0  0  0  0  0  0  0
   11.5852    2.3398   22.4596 H   0  0  0  0  0  0  0  0  0  0  0  0
  1  2  1  0
  2  3  2  0
  3  4  1  0
  4  5  2  0
  5  6  1  0
  6  7  2  0
  7  8  1  0
  8  9  1  0
  9 10  1  0
 10 11  2  0
 11 12  1  0
 12 13  1  0
 13 14  1  0
 14 15  1  0
 15 16  1  0
 15 17  1  0
 14 18  1  0
 14 19  1  0
 13 20  1  0
 12 21  1  0
 12 22  1  0
 11 23  1  0
 23 24  2  0
 24 25  1  0
 25 26  2  0
 26 27  1  0
 27 28  2  0
 28 29  1  0
 29 30  2  0
 30 31  1  0
 28 32  1  0
 27 33  1  0
 26 34  1  0
  8 35  1  0
  8 36  1  0
  6 37  1  0
  5 38  1  0
  4 39  1  0
  3 40  1  0
  7  2  1  0
 24  9  1  0
 30 25  1  0
 15 13  1  0
M  END
>  <cnnaffinity>  (1) 
-5.77351

>  <filename>  (1) 
Clc1ccccc1Cn1nc(CC2CC2)nc1-c1cccnc1

$$$$
