
     RDKit          3D

 41 44  0  0  0  0  0  0  0  0999 V2000
    5.0371    1.8809   17.0160 H   0  0  0  0  0  0  0  0  0  0  0  0
    5.5158    1.3614   17.8409 C   0  0  0  0  0  0  0  0  0  0  0  0
    6.6955    0.7776   17.5673 N   0  0  0  0  0  0  0  0  0  0  0  0
    7.3208    0.1338   18.5630 C   0  0  0  0  0  0  0  0  0  0  0  0
    8.2604   -0.3573   18.3066 H   0  0  0  0  0  0  0  0  0  0  0  0
    6.8179    0.0241   19.8891 C   0  0  0  0  0  0  0  0  0  0  0  0
    7.4981   -0.7127   20.8692 N   0  0  0  0  0  0  0  0  0  0  0  0
    6.9420   -0.9850   22.1957 C   0  0  1  0  0  0  0  0  0  0  0  0
    5.8939   -1.2732   22.1048 H   0  0  0  0  0  0  0  0  0  0  0  0
    7.8164   -2.1760   22.6293 C   0  0  0  0  0  0  0  0  0  0  0  0
    7.3781   -3.1028   22.2544 H   0  0  0  0  0  0  0  0  0  0  0  0
    7.8702   -2.2583   23.7190 H   0  0  0  0  0  0  0  0  0  0  0  0
    9.1792   -1.8874   21.9671 C   0  0  0  0  0  0  0  0  0  0  0  0
    9.4760   -2.7160   21.3219 H   0  0  0  0  0  0  0  0  0  0  0  0
    9.9796   -1.7396   22.6973 H   0  0  0  0  0  0  0  0  0  0  0  0
    8.9441   -0.6135   21.1152 C   0  0  2  0  0  0  0  0  0  0  0  0
    9.5034   -0.6782   20.1766 H   0  0  0  0  0  0  0  0  0  0  0  0
    9.3050    0.6974   21.8833 C   0  0  0  0  0  0  0  0  0  0  0  0
    9.6988    1.4480   21.1859 H   0  0  0  0  0  0  0  0  0  0  0  0
   10.1090    0.4834   22.6000 H   0  0  0  0  0  0  0  0  0  0  0  0
    8.0787    1.2872   22.6276 C   0  0  2  0  0  0  0  0  0  0  0  0
    7.5196    1.9152   21.9213 H   0  0  0  0  0  0  0  0  0  0  0  0
    8.4340    2.0316   23.7893 O   0  0  0  0  0  0  0  0  0  0  0  0
    8.9358    3.2877   23.7497 C   0  0  0  0  0  0  0  0  0  0  0  0
    9.0821    4.0778   22.6047 C   0  0  0  0  0  0  0  0  0  0  0  0
    8.7721    3.6981   21.6352 H   0  0  0  0  0  0  0  0  0  0  0  0
    9.6168    5.3680   22.7357 C   0  0  0  0  0  0  0  0  0  0  0  0
    9.7330    5.9931   21.8536 H   0  0  0  0  0  0  0  0  0  0  0  0
    9.9944    5.8747   23.9773 C   0  0  0  0  0  0  0  0  0  0  0  0
   10.4127    6.8694   24.0824 H   0  0  0  0  0  0  0  0  0  0  0  0
    9.8060    5.0776   25.1113 C   0  0  0  0  0  0  0  0  0  0  0  0
   10.1910    5.7177   26.6823 Cl  0  0  0  0  0  0  0  0  0  0  0  0
    9.2904    3.7920   25.0174 C   0  0  0  0  0  0  0  0  0  0  0  0
    9.1350    3.1753   25.8944 H   0  0  0  0  0  0  0  0  0  0  0  0
    7.1211    0.2110   23.1631 C   0  0  0  0  0  0  0  0  0  0  0  0
    7.5242   -0.1577   24.1149 H   0  0  0  0  0  0  0  0  0  0  0  0
    6.1607    0.6834   23.4036 H   0  0  0  0  0  0  0  0  0  0  0  0
    5.5665    0.6270   20.1371 C   0  0  0  0  0  0  0  0  0  0  0  0
    5.1163    0.5529   21.1234 H   0  0  0  0  0  0  0  0  0  0  0  0
    4.9196    1.3074   19.1026 C   0  0  0  0  0  0  0  0  0  0  0  0
    3.9563    1.7807   19.2594 H   0  0  0  0  0  0  0  0  0  0  0  0
  1  2  1  0
  2  3  2  0
  3  4  1  0
  4  5  1  0
  4  6  2  0
  6  7  1  0
  7  8  1  0
  8  9  1  6
  8 10  1  0
 10 11  1  0
 10 12  1  0
 10 13  1  0
 13 14  1  0
 13 15  1  0
 13 16  1  0
 16 17  1  6
 16 18  1  0
 18 19  1  0
 18 20  1  0
 18 21  1  0
 21 22  1  6
 21 23  1  0
 23 24  1  0
 24 25  2  0
 25 26  1  0
 25 27  1  0
 27 28  1  0
 27 29  2  0
 29 30  1  0
 29 31  1  0
 31 32  1  0
 31 33  2  0
 33 34  1  0
 21 35  1  0
 35 36  1  0
 35 37  1  0
  6 38  1  0
 38 39  1  0
 38 40  2  0
 40 41  1  0
 40  2  1  0
 16  7  1  0
 33 24  1  0
 35  8  1  0
M  END
>  <cnnaffinity>  (1) 
-5.36446

>  <filename>  (1) 
Clc1cccc(O[C@H]2C[C@H]3CC[C@@H](C2)N3c2cccnc2)c1

$$$$
