
     RDKit          3D

 38 41  0  0  0  0  0  0  0  0999 V2000
    7.1395    0.4730   25.9965 Cl  0  0  0  0  0  0  0  0  0  0  0  0
    8.3361    1.3364   25.1148 C   0  0  0  0  0  0  0  0  0  0  0  0
    8.2634    1.6717   23.7947 C   0  0  0  0  0  0  0  0  0  0  0  0
    7.1579    1.2154   22.8669 C   0  0  0  0  0  0  0  0  0  0  0  0
    7.4150   -0.1401   22.2712 C   0  0  0  0  0  0  0  0  0  0  0  0
    7.9003   -1.1581   22.9578 N   0  0  0  0  0  0  0  0  0  0  0  0
    8.0993   -2.1180   22.0236 C   0  0  0  0  0  0  0  0  0  0  0  0
    8.6208   -3.5128   22.3017 C   0  0  0  0  0  0  0  0  0  0  0  0
    7.6629   -4.4195   23.1217 C   0  0  0  0  0  0  0  0  0  0  0  0
    8.6369   -5.2706   23.9465 C   0  0  0  0  0  0  0  0  0  0  0  0
    9.7650   -4.2767   24.2131 C   0  0  0  0  0  0  0  0  0  0  0  0
    9.8551   -3.5106   23.0181 O   0  0  0  0  0  0  0  0  0  0  0  0
    9.5216   -3.6175   25.0645 H   0  0  0  0  0  0  0  0  0  0  0  0
   10.7499   -4.7221   24.3980 H   0  0  0  0  0  0  0  0  0  0  0  0
    8.1969   -5.6580   24.8674 H   0  0  0  0  0  0  0  0  0  0  0  0
    8.9970   -6.1252   23.3625 H   0  0  0  0  0  0  0  0  0  0  0  0
    7.0352   -3.8063   23.7836 H   0  0  0  0  0  0  0  0  0  0  0  0
    6.9999   -5.0011   22.4742 H   0  0  0  0  0  0  0  0  0  0  0  0
    8.7901   -3.9212   21.2957 H   0  0  0  0  0  0  0  0  0  0  0  0
    7.7317   -1.7734   20.8039 N   0  0  0  0  0  0  0  0  0  0  0  0
    7.2491   -0.5165   20.9630 N   0  0  0  0  0  0  0  0  0  0  0  0
    6.5893    0.1203   19.8840 C   0  0  0  0  0  0  0  0  0  0  0  0
    5.3753    0.7878   20.0675 C   0  0  0  0  0  0  0  0  0  0  0  0
    4.7936    1.3932   18.9495 C   0  0  0  0  0  0  0  0  0  0  0  0
    5.4466    1.3132   17.7172 C   0  0  0  0  0  0  0  0  0  0  0  0
    6.5878    0.6237   17.5312 N   0  0  0  0  0  0  0  0  0  0  0  0
    7.1276    0.0162   18.5918 C   0  0  0  0  0  0  0  0  0  0  0  0
    8.0159   -0.5931   18.4152 H   0  0  0  0  0  0  0  0  0  0  0  0
    5.0273    1.7901   16.8352 H   0  0  0  0  0  0  0  0  0  0  0  0
    3.8546    1.9256   19.0344 H   0  0  0  0  0  0  0  0  0  0  0  0
    4.8887    0.7950   21.0441 H   0  0  0  0  0  0  0  0  0  0  0  0
    6.2204    1.1546   23.4317 H   0  0  0  0  0  0  0  0  0  0  0  0
    7.0181    1.9459   22.0685 H   0  0  0  0  0  0  0  0  0  0  0  0
    9.4351    2.3878   23.3855 C   0  0  0  0  0  0  0  0  0  0  0  0
   10.3572    2.5143   24.3774 C   0  0  0  0  0  0  0  0  0  0  0  0
    9.8189    1.8233   25.8630 S   0  0  0  0  0  0  0  0  0  0  0  0
   11.3377    2.9630   24.3167 H   0  0  0  0  0  0  0  0  0  0  0  0
    9.5677    2.8045   22.3911 H   0  0  0  0  0  0  0  0  0  0  0  0
  1  2  1  0
  2  3  2  0
  3  4  1  0
  4  5  1  0
  5  6  2  0
  6  7  1  0
  7  8  1  0
  8  9  1  0
  9 10  1  0
 10 11  1  0
 11 12  1  0
 11 13  1  0
 11 14  1  0
 10 15  1  0
 10 16  1  0
  9 17  1  0
  9 18  1  0
  8 19  1  0
  7 20  2  0
 20 21  1  0
 21 22  1  0
 22 23  2  0
 23 24  1  0
 24 25  2  0
 25 26  1  0
 26 27  2  0
 27 28  1  0
 25 29  1  0
 24 30  1  0
 23 31  1  0
  4 32  1  0
  4 33  1  0
  3 34  1  0
 34 35  2  0
 35 36  1  0
 35 37  1  0
 34 38  1  0
 36  2  1  0
 21  5  1  0
 27 22  1  0
 12  8  1  0
M  END
>  <cnnaffinity>  (1) 
-6.15583

>  <filename>  (1) 
Clc1sccc1Cc1nc(C2CCCO2)nn1-c1cccnc1

$$$$
