
     RDKit          3D

 42 45  0  0  0  0  0  0  0  0999 V2000
    4.7112    2.1232   24.1722 Cl  0  0  0  0  0  0  0  0  0  0  0  0
    5.9108    2.6431   23.0821 C   0  0  0  0  0  0  0  0  0  0  0  0
    7.1974    2.3748   23.0870 C   0  0  0  0  0  0  0  0  0  0  0  0
    8.2976    3.0447   22.1388 C   0  0  0  0  0  0  0  0  0  0  0  0
    9.4879    1.9861   21.8081 C   0  0  0  0  0  0  0  0  0  0  0  0
    9.6180    0.4738   20.8548 C   0  0  0  0  0  0  0  0  0  0  0  0
    8.6139   -0.5251   21.3622 C   0  0  0  0  0  0  0  0  0  0  0  0
    8.8410   -1.3241   22.3656 N   0  0  0  0  0  0  0  0  0  0  0  0
    7.6523   -1.9491   22.5549 C   0  0  0  0  0  0  0  0  0  0  0  0
    7.3785   -2.9091   23.6931 C   0  0  0  0  0  0  0  0  0  0  0  0
    8.5237   -3.9154   24.0317 C   0  0  0  0  0  0  0  0  0  0  0  0
    8.6970   -3.2661   25.4288 C   0  0  0  0  0  0  0  0  0  0  0  0
    7.5276   -2.2928   25.1260 C   0  0  0  0  0  0  0  0  0  0  0  0
    7.7817   -1.2227   25.1118 H   0  0  0  0  0  0  0  0  0  0  0  0
    6.6472   -2.3798   25.7790 H   0  0  0  0  0  0  0  0  0  0  0  0
    9.6705   -2.7815   25.5911 H   0  0  0  0  0  0  0  0  0  0  0  0
    8.5614   -3.9330   26.2925 H   0  0  0  0  0  0  0  0  0  0  0  0
    9.3957   -3.8339   23.3717 H   0  0  0  0  0  0  0  0  0  0  0  0
    8.2413   -4.9776   24.0208 H   0  0  0  0  0  0  0  0  0  0  0  0
    6.3980   -3.3530   23.4752 H   0  0  0  0  0  0  0  0  0  0  0  0
    6.7199   -1.5976   21.6883 N   0  0  0  0  0  0  0  0  0  0  0  0
    7.3443   -0.6942   20.8848 N   0  0  0  0  0  0  0  0  0  0  0  0
    6.5998   -0.0879   19.8223 C   0  0  0  0  0  0  0  0  0  0  0  0
    5.4175    0.6082   20.1084 C   0  0  0  0  0  0  0  0  0  0  0  0
    4.7750    1.2847   19.0578 C   0  0  0  0  0  0  0  0  0  0  0  0
    5.3695    1.2800   17.7895 C   0  0  0  0  0  0  0  0  0  0  0  0
    6.4875    0.5933   17.5110 N   0  0  0  0  0  0  0  0  0  0  0  0
    7.0591   -0.1074   18.4901 C   0  0  0  0  0  0  0  0  0  0  0  0
    8.0260   -0.5528   18.2859 H   0  0  0  0  0  0  0  0  0  0  0  0
    4.9319    1.8440   16.9641 H   0  0  0  0  0  0  0  0  0  0  0  0
    3.8501    1.8444   19.2239 H   0  0  0  0  0  0  0  0  0  0  0  0
    5.0023    0.5788   21.1176 H   0  0  0  0  0  0  0  0  0  0  0  0
    9.5218    0.4917   19.7392 H   0  0  0  0  0  0  0  0  0  0  0  0
   10.5986    0.0450   21.0472 H   0  0  0  0  0  0  0  0  0  0  0  0
   10.3999    2.5208   21.5375 H   0  0  0  0  0  0  0  0  0  0  0  0
    9.9020    1.4065   22.7244 H   0  0  0  0  0  0  0  0  0  0  0  0
    8.2973    3.0450   22.1393 C   0  0  0  0  0  0  0  0  0  0  0  0
    6.5816    4.1144   21.4728 C   0  0  0  0  0  0  0  0  0  0  0  0
    5.5699    3.6246   22.0717 N   0  0  0  0  0  0  0  0  0  0  0  0
    6.6158    4.8053   20.6873 H   0  0  0  0  0  0  0  0  0  0  0  0
    8.3594    3.1785   20.8101 H   0  0  0  0  0  0  0  0  0  0  0  0
    7.5485    1.6068   23.8341 H   0  0  0  0  0  0  0  0  0  0  0  0
  1  2  1  0
  2  3  2  0
  3  4  1  0
  4  5  1  0
  5  6  1  0
  6  7  1  0
  7  8  2  0
  8  9  1  0
  9 10  1  0
 10 11  1  0
 11 12  1  0
 12 13  1  0
 13 14  1  0
 13 15  1  0
 12 16  1  0
 12 17  1  0
 11 18  1  0
 11 19  1  0
 10 20  1  0
  9 21  2  0
 21 22  1  0
 22 23  1  0
 23 24  2  0
 24 25  1  0
 25 26  2  0
 26 27  1  0
 27 28  2  0
 28 29  1  0
 26 30  1  0
 25 31  1  0
 24 32  1  0
  6 33  1  0
  6 34  1  0
  5 35  1  0
  5 36  1  0
  4 37  2  0
 37 38  1  0
 38 39  2  0
 38 40  1  0
 37 41  1  0
  3 42  1  0
 39  2  1  0
 22  7  1  0
 28 23  1  0
 13 10  1  0
M  END
>  <cnnaffinity>  (1) 
-6.02362

>  <filename>  (1) 
Clc1cc(CCc2nc(C3CCC3)nn2-c2cccnc2)ccn1

$$$$
