
     RDKit          3D

 40 44  0  0  0  0  0  0  0  0999 V2000
   12.2043   -1.5876   21.1754 Cl  0  0  0  0  0  0  0  0  0  0  0  0
   11.8987   -0.0655   21.9481 C   0  0  0  0  0  0  0  0  0  0  0  0
   12.8073    0.3703   22.9148 C   0  0  0  0  0  0  0  0  0  0  0  0
   12.5347    1.5680   23.5653 C   0  0  0  0  0  0  0  0  0  0  0  0
   11.4656    2.3247   23.2967 N   0  0  0  0  0  0  0  0  0  0  0  0
   10.6159    1.8920   22.3600 C   0  0  0  0  0  0  0  0  0  0  0  0
   10.7575    0.6934   21.6416 C   0  0  0  0  0  0  0  0  0  0  0  0
    9.6658    0.2133   20.7066 C   0  0  0  0  0  0  0  0  0  0  0  0
    8.6073   -0.6070   21.3734 C   0  0  0  0  0  0  0  0  0  0  0  0
    8.7979   -1.4119   22.4033 N   0  0  0  0  0  0  0  0  0  0  0  0
    7.5841   -1.9892   22.5679 C   0  0  0  0  0  0  0  0  0  0  0  0
    7.2015   -2.9514   23.6454 C   0  0  0  0  0  0  0  0  0  0  0  0
    6.7673   -4.3130   23.2021 C   0  0  0  0  0  0  0  0  0  0  0  0
    7.9958   -4.1958   24.1423 C   0  0  0  0  0  0  0  0  0  0  0  0
    8.9723   -4.0494   25.2964 C   0  0  0  0  0  0  0  0  0  0  0  0
    8.5645   -5.4228   24.8641 C   0  0  0  0  0  0  0  0  0  0  0  0
    9.3150   -6.0060   24.3337 H   0  0  0  0  0  0  0  0  0  0  0  0
    7.8764   -5.9916   25.4920 H   0  0  0  0  0  0  0  0  0  0  0  0
    8.5865   -3.6555   26.2402 H   0  0  0  0  0  0  0  0  0  0  0  0
    9.9906   -3.7540   25.0443 H   0  0  0  0  0  0  0  0  0  0  0  0
    6.9768   -4.5700   22.1605 H   0  0  0  0  0  0  0  0  0  0  0  0
    5.8463   -4.7487   23.6025 H   0  0  0  0  0  0  0  0  0  0  0  0
    6.6505   -2.4523   24.4480 H   0  0  0  0  0  0  0  0  0  0  0  0
    6.6598   -1.5974   21.7048 N   0  0  0  0  0  0  0  0  0  0  0  0
    7.3217   -0.7138   20.9186 N   0  0  0  0  0  0  0  0  0  0  0  0
    6.6407   -0.0170   19.8763 C   0  0  0  0  0  0  0  0  0  0  0  0
    5.4289    0.6320   20.1371 C   0  0  0  0  0  0  0  0  0  0  0  0
    4.8058    1.3158   19.0871 C   0  0  0  0  0  0  0  0  0  0  0  0
    5.3988    1.3073   17.8191 C   0  0  0  0  0  0  0  0  0  0  0  0
    6.5453    0.6651   17.5541 N   0  0  0  0  0  0  0  0  0  0  0  0
    7.1464    0.0242   18.5657 C   0  0  0  0  0  0  0  0  0  0  0  0
    8.0798   -0.4787   18.3233 H   0  0  0  0  0  0  0  0  0  0  0  0
    4.9368    1.8326   16.9841 H   0  0  0  0  0  0  0  0  0  0  0  0
    3.8758    1.8534   19.2393 H   0  0  0  0  0  0  0  0  0  0  0  0
    4.9963    0.5929   21.1367 H   0  0  0  0  0  0  0  0  0  0  0  0
    9.1975    1.0648   20.2054 H   0  0  0  0  0  0  0  0  0  0  0  0
   10.0843   -0.4412   19.9363 H   0  0  0  0  0  0  0  0  0  0  0  0
    9.7438    2.5262   22.1774 H   0  0  0  0  0  0  0  0  0  0  0  0
   13.2065    1.9354   24.3433 H   0  0  0  0  0  0  0  0  0  0  0  0
   13.6815   -0.2167   23.1585 H   0  0  0  0  0  0  0  0  0  0  0  0
  1  2  1  0
  2  3  2  0
  3  4  1  0
  4  5  2  0
  5  6  1  0
  6  7  2  0
  7  8  1  0
  8  9  1  0
  9 10  2  0
 10 11  1  0
 11 12  1  0
 12 13  1  0
 13 14  1  0
 14 15  1  0
 15 16  1  0
 16 17  1  0
 16 18  1  0
 15 19  1  0
 15 20  1  0
 13 21  1  0
 13 22  1  0
 12 23  1  0
 11 24  2  0
 24 25  1  0
 25 26  1  0
 26 27  2  0
 27 28  1  0
 28 29  2  0
 29 30  1  0
 30 31  2  0
 31 32  1  0
 29 33  1  0
 28 34  1  0
 27 35  1  0
  8 36  1  0
  8 37  1  0
  6 38  1  0
  4 39  1  0
  3 40  1  0
  7  2  1  0
 25  9  1  0
 31 26  1  0
 14 12  1  0
 16 14  1  0
M  END
>  <cnnaffinity>  (1) 
-6.84588

>  <filename>  (1) 
Clc1ccncc1Cc1nc(C2CC23CC3)nn1-c1cccnc1

$$$$
