
     RDKit          3D

 27 29  0  0  0  0  0  0  0  0999 V2000
    5.1621    1.8512   16.8661 H   0  0  0  0  0  0  0  0  0  0  0  0
    5.5664    1.3059   17.7169 C   0  0  0  0  0  0  0  0  0  0  0  0
    6.6936    0.6180   17.4880 N   0  0  0  0  0  0  0  0  0  0  0  0
    7.2211   -0.0585   18.5120 C   0  0  0  0  0  0  0  0  0  0  0  0
    8.1360   -0.5966   18.2902 H   0  0  0  0  0  0  0  0  0  0  0  0
    6.6576   -0.1005   19.7936 C   0  0  0  0  0  0  0  0  0  0  0  0
    7.3122   -0.8953   20.8317 C   0  0  0  0  0  0  0  0  0  0  0  0
    6.8440   -1.2321   21.9867 N   0  0  0  0  0  0  0  0  0  0  0  0
    7.8546   -1.9677   22.6015 C   0  0  0  0  0  0  0  0  0  0  0  0
    7.7310   -2.5183   23.9809 C   0  0  0  0  0  0  0  0  0  0  0  0
    8.8026   -2.3731   24.8917 C   0  0  0  0  0  0  0  0  0  0  0  0
    9.7478   -1.9430   24.5718 H   0  0  0  0  0  0  0  0  0  0  0  0
    8.6581   -2.7276   26.2323 C   0  0  0  0  0  0  0  0  0  0  0  0
    9.4351   -2.4978   26.9523 H   0  0  0  0  0  0  0  0  0  0  0  0
    7.4861   -3.3323   26.6898 C   0  0  0  0  0  0  0  0  0  0  0  0
    7.3576   -3.6151   27.7294 H   0  0  0  0  0  0  0  0  0  0  0  0
    6.4370   -3.5583   25.7963 C   0  0  0  0  0  0  0  0  0  0  0  0
    4.9934   -4.3302   26.3795 Cl  0  0  0  0  0  0  0  0  0  0  0  0
    6.5530   -3.1602   24.4504 C   0  0  0  0  0  0  0  0  0  0  0  0
    5.2464   -3.5001   23.3721 Cl  0  0  0  0  0  0  0  0  0  0  0  0
    8.8986   -2.0257   21.7390 C   0  0  0  0  0  0  0  0  0  0  0  0
    9.8645   -2.5079   21.7576 H   0  0  0  0  0  0  0  0  0  0  0  0
    8.5665   -1.3593   20.5966 O   0  0  0  0  0  0  0  0  0  0  0  0
    5.4678    0.6118   20.0188 C   0  0  0  0  0  0  0  0  0  0  0  0
    4.9859    0.5792   20.9970 H   0  0  0  0  0  0  0  0  0  0  0  0
    4.9214    1.3346   18.9583 C   0  0  0  0  0  0  0  0  0  0  0  0
    4.0111    1.9129   19.0713 H   0  0  0  0  0  0  0  0  0  0  0  0
  1  2  1  0
  2  3  2  0
  3  4  1  0
  4  5  1  0
  4  6  2  0
  6  7  1  0
  7  8  2  0
  8  9  1  0
  9 10  1  0
 10 11  2  0
 11 12  1  0
 11 13  1  0
 13 14  1  0
 13 15  2  0
 15 16  1  0
 15 17  1  0
 17 18  1  0
 17 19  2  0
 19 20  1  0
  9 21  2  0
 21 22  1  0
 21 23  1  0
  6 24  1  0
 24 25  1  0
 24 26  2  0
 26 27  1  0
 26  2  1  0
 23  7  1  0
 19 10  1  0
M  END
>  <cnnaffinity>  (1) 
-5.58922

>  <filename>  (1) 
Clc1cccc(-c2coc(-c3cccnc3)n2)c1Cl

$$$$
