
     RDKit          3D

 36 38  0  0  0  0  0  0  0  0999 V2000
    4.9159    1.6565   17.1537 H   0  0  0  0  0  0  0  0  0  0  0  0
    5.5216    1.1549   17.8988 C   0  0  0  0  0  0  0  0  0  0  0  0
    6.6720    0.6109   17.4614 N   0  0  0  0  0  0  0  0  0  0  0  0
    7.4626    0.0423   18.3796 C   0  0  0  0  0  0  0  0  0  0  0  0
    8.3780   -0.4307   18.0190 H   0  0  0  0  0  0  0  0  0  0  0  0
    7.1841    0.0091   19.7721 C   0  0  0  0  0  0  0  0  0  0  0  0
    8.1302   -0.4715   20.6786 N   0  0  0  0  0  0  0  0  0  0  0  0
    8.6134   -1.3027   20.3672 H   0  0  0  0  0  0  0  0  0  0  0  0
    7.9247   -0.4578   22.1161 C   0  0  0  0  0  0  0  0  0  0  0  0
    7.9762    1.0075   22.6433 C   0  0  0  0  0  0  0  0  0  0  0  0
    8.8947    1.4702   22.2649 H   0  0  0  0  0  0  0  0  0  0  0  0
    7.1410    1.5556   22.1874 H   0  0  0  0  0  0  0  0  0  0  0  0
    7.8983    1.1798   24.1506 C   0  0  0  0  0  0  0  0  0  0  0  0
    6.6765    1.4615   24.7982 C   0  0  0  0  0  0  0  0  0  0  0  0
    5.7925    1.6613   24.1976 H   0  0  0  0  0  0  0  0  0  0  0  0
    6.5600    1.5010   26.1941 C   0  0  0  0  0  0  0  0  0  0  0  0
    5.6092    1.7558   26.6538 H   0  0  0  0  0  0  0  0  0  0  0  0
    7.6696    1.2012   26.9899 C   0  0  0  0  0  0  0  0  0  0  0  0
    7.5965    1.2153   28.0750 H   0  0  0  0  0  0  0  0  0  0  0  0
    8.8936    0.9193   26.3814 C   0  0  0  0  0  0  0  0  0  0  0  0
    9.7599    0.6100   26.9524 H   0  0  0  0  0  0  0  0  0  0  0  0
    9.0167    1.0125   24.9913 C   0  0  0  0  0  0  0  0  0  0  0  0
   10.6447    1.0130   24.3507 Cl  0  0  0  0  0  0  0  0  0  0  0  0
    8.8730   -1.5029   22.7573 C   0  0  0  0  0  0  0  0  0  0  0  0
    9.4998   -2.0194   22.0204 H   0  0  0  0  0  0  0  0  0  0  0  0
    9.5486   -1.1289   23.5234 H   0  0  0  0  0  0  0  0  0  0  0  0
    7.6539   -2.3249   23.2579 C   0  0  0  0  0  0  0  0  0  0  0  0
    7.5607   -2.3710   24.3483 H   0  0  0  0  0  0  0  0  0  0  0  0
    7.5880   -3.3446   22.8619 H   0  0  0  0  0  0  0  0  0  0  0  0
    6.7042   -1.2951   22.6072 C   0  0  0  0  0  0  0  0  0  0  0  0
    6.1246   -0.7407   23.3477 H   0  0  0  0  0  0  0  0  0  0  0  0
    6.0466   -1.6664   21.8100 H   0  0  0  0  0  0  0  0  0  0  0  0
    5.9341    0.4978   20.1808 C   0  0  0  0  0  0  0  0  0  0  0  0
    5.6283    0.4094   21.2220 H   0  0  0  0  0  0  0  0  0  0  0  0
    5.1018    1.0897   19.2321 C   0  0  0  0  0  0  0  0  0  0  0  0
    4.1453    1.5086   19.5202 H   0  0  0  0  0  0  0  0  0  0  0  0
  1  2  1  0
  2  3  2  0
  3  4  1  0
  4  5  1  0
  4  6  2  0
  6  7  1  0
  7  8  1  0
  7  9  1  0
  9 10  1  0
 10 11  1  0
 10 12  1  0
 10 13  1  0
 13 14  2  0
 14 15  1  0
 14 16  1  0
 16 17  1  0
 16 18  2  0
 18 19  1  0
 18 20  1  0
 20 21  1  0
 20 22  2  0
 22 23  1  0
  9 24  1  0
 24 25  1  0
 24 26  1  0
 24 27  1  0
 27 28  1  0
 27 29  1  0
 27 30  1  0
 30 31  1  0
 30 32  1  0
  6 33  1  0
 33 34  1  0
 33 35  2  0
 35 36  1  0
 35  2  1  0
 30  9  1  0
 22 13  1  0
M  END
>  <cnnaffinity>  (1) 
-5.01952

>  <filename>  (1) 
Clc1ccccc1CC1(Nc2cccnc2)CCC1

$$$$
