
     RDKit          3D

 42 45  0  0  0  0  0  0  0  0999 V2000
    9.8128    1.1566   25.0109 Cl  0  0  0  0  0  0  0  0  0  0  0  0
    8.0927    1.2922   25.2105 C   0  0  0  0  0  0  0  0  0  0  0  0
    7.5838    1.2520   26.5106 C   0  0  0  0  0  0  0  0  0  0  0  0
    6.2050    1.3442   26.6672 C   0  0  0  0  0  0  0  0  0  0  0  0
    5.3557    1.4860   25.6445 N   0  0  0  0  0  0  0  0  0  0  0  0
    5.8705    1.5184   24.4117 C   0  0  0  0  0  0  0  0  0  0  0  0
    7.2344    1.4124   24.1013 C   0  0  0  0  0  0  0  0  0  0  0  0
    7.7042    1.3179   22.6490 C   0  0  0  0  0  0  0  0  0  0  0  0
    7.7520   -0.0964   22.1267 C   0  0  0  0  0  0  0  0  0  0  0  0
    8.3340   -1.0697   22.7982 N   0  0  0  0  0  0  0  0  0  0  0  0
    8.1646   -2.1565   22.0135 C   0  0  0  0  0  0  0  0  0  0  0  0
    8.6947   -3.5108   22.4115 C   0  0  0  0  0  0  0  0  0  0  0  0
    8.7081   -3.8235   23.9332 C   0  0  0  0  0  0  0  0  0  0  0  0
    8.6227   -5.3669   24.0623 C   0  0  0  0  0  0  0  0  0  0  0  0
    8.3073   -5.9164   22.6536 C   0  0  0  0  0  0  0  0  0  0  0  0
    7.9337   -4.7047   21.7910 C   0  0  0  0  0  0  0  0  0  0  0  0
    8.1980   -4.8690   20.7412 H   0  0  0  0  0  0  0  0  0  0  0  0
    6.8550   -4.4938   21.8477 H   0  0  0  0  0  0  0  0  0  0  0  0
    9.1881   -6.4123   22.2364 H   0  0  0  0  0  0  0  0  0  0  0  0
    7.5211   -6.6802   22.6610 H   0  0  0  0  0  0  0  0  0  0  0  0
    7.8492   -5.6564   24.7820 H   0  0  0  0  0  0  0  0  0  0  0  0
    9.5612   -5.7969   24.4355 H   0  0  0  0  0  0  0  0  0  0  0  0
    9.6206   -3.4387   24.4022 H   0  0  0  0  0  0  0  0  0  0  0  0
    7.8564   -3.3403   24.4292 H   0  0  0  0  0  0  0  0  0  0  0  0
    9.7426   -3.4642   22.0902 H   0  0  0  0  0  0  0  0  0  0  0  0
    7.5783   -1.9033   20.8518 N   0  0  0  0  0  0  0  0  0  0  0  0
    7.2742   -0.5818   20.9365 N   0  0  0  0  0  0  0  0  0  0  0  0
    6.5777    0.0411   19.8544 C   0  0  0  0  0  0  0  0  0  0  0  0
    5.3703    0.7221   20.0531 C   0  0  0  0  0  0  0  0  0  0  0  0
    4.7786    1.3728   18.9641 C   0  0  0  0  0  0  0  0  0  0  0  0
    5.4129    1.3253   17.7217 C   0  0  0  0  0  0  0  0  0  0  0  0
    6.5410    0.6245   17.5099 N   0  0  0  0  0  0  0  0  0  0  0  0
    7.0895   -0.0232   18.5441 C   0  0  0  0  0  0  0  0  0  0  0  0
    7.9791   -0.6064   18.3176 H   0  0  0  0  0  0  0  0  0  0  0  0
    5.0028    1.8569   16.8632 H   0  0  0  0  0  0  0  0  0  0  0  0
    3.8433    1.9099   19.0685 H   0  0  0  0  0  0  0  0  0  0  0  0
    4.8881    0.7182   21.0296 H   0  0  0  0  0  0  0  0  0  0  0  0
    7.0781    1.9379   22.0009 H   0  0  0  0  0  0  0  0  0  0  0  0
    8.7221    1.7130   22.5750 H   0  0  0  0  0  0  0  0  0  0  0  0
    5.1439    1.6297   23.6045 H   0  0  0  0  0  0  0  0  0  0  0  0
    5.7598    1.3081   27.6610 H   0  0  0  0  0  0  0  0  0  0  0  0
    8.2407    1.1428   27.3647 H   0  0  0  0  0  0  0  0  0  0  0  0
  1  2  1  0
  2  3  2  0
  3  4  1  0
  4  5  2  0
  5  6  1  0
  6  7  2  0
  7  8  1  0
  8  9  1  0
  9 10  2  0
 10 11  1  0
 11 12  1  0
 12 13  1  0
 13 14  1  0
 14 15  1  0
 15 16  1  0
 16 17  1  0
 16 18  1  0
 15 19  1  0
 15 20  1  0
 14 21  1  0
 14 22  1  0
 13 23  1  0
 13 24  1  0
 12 25  1  0
 11 26  2  0
 26 27  1  0
 27 28  1  0
 28 29  2  0
 29 30  1  0
 30 31  2  0
 31 32  1  0
 32 33  2  0
 33 34  1  0
 31 35  1  0
 30 36  1  0
 29 37  1  0
  8 38  1  0
  8 39  1  0
  6 40  1  0
  4 41  1  0
  3 42  1  0
  7  2  1  0
 27  9  1  0
 33 28  1  0
 16 12  1  0
M  END
>  <cnnaffinity>  (1) 
-6.71613

>  <filename>  (1) 
Clc1ccncc1Cc1nc(C2CCCC2)nn1-c1cccnc1

$$$$
