
     RDKit          3D

 40 43  0  0  0  0  0  0  0  0999 V2000
   14.3308   -2.0104   21.0653 Cl  0  0  0  0  0  0  0  0  0  0  0  0
   13.4037   -0.7803   21.8583 C   0  0  0  0  0  0  0  0  0  0  0  0
   14.0593    0.1993   22.6051 C   0  0  0  0  0  0  0  0  0  0  0  0
   13.3141    1.2211   23.1901 C   0  0  0  0  0  0  0  0  0  0  0  0
   11.9318    1.2593   23.0356 C   0  0  0  0  0  0  0  0  0  0  0  0
   11.2759    0.2737   22.2729 C   0  0  0  0  0  0  0  0  0  0  0  0
    9.8144    0.3505   22.1152 C   0  0  0  0  0  0  0  0  0  0  0  0
    9.0529   -0.6167   21.6323 N   0  0  0  0  0  0  0  0  0  0  0  0
    7.8011   -0.1474   21.8334 N   0  0  0  0  0  0  0  0  0  0  0  0
    6.6268   -0.8011   21.2703 C   0  0  0  0  0  0  0  0  0  0  0  0
    6.1247   -0.0779   20.0360 C   0  0  0  0  0  0  0  0  0  0  0  0
    4.9374    0.6653   19.9892 C   0  0  0  0  0  0  0  0  0  0  0  0
    4.6635    1.4173   18.8401 C   0  0  0  0  0  0  0  0  0  0  0  0
    5.5714    1.3817   17.7785 C   0  0  0  0  0  0  0  0  0  0  0  0
    6.7017    0.6600   17.7961 N   0  0  0  0  0  0  0  0  0  0  0  0
    6.9662   -0.0302   18.9106 C   0  0  0  0  0  0  0  0  0  0  0  0
    7.9210   -0.5573   18.9382 H   0  0  0  0  0  0  0  0  0  0  0  0
    5.3912    1.9609   16.8738 H   0  0  0  0  0  0  0  0  0  0  0  0
    3.7887    2.0546   18.7708 H   0  0  0  0  0  0  0  0  0  0  0  0
    4.2500    0.6947   20.8406 H   0  0  0  0  0  0  0  0  0  0  0  0
    5.8679   -0.8405   22.0533 H   0  0  0  0  0  0  0  0  0  0  0  0
    6.9352   -1.8289   21.0662 H   0  0  0  0  0  0  0  0  0  0  0  0
    7.8713    1.0845   22.3738 C   0  0  0  0  0  0  0  0  0  0  0  0
    6.7248    1.7569   23.0516 C   0  0  0  0  0  0  0  0  0  0  0  0
    6.5851    1.1604   24.3795 N   0  0  0  0  0  0  0  0  0  0  0  0
    7.4343    1.3481   25.4234 C   0  0  0  0  0  0  0  0  0  0  0  0
    7.2707    0.2613   26.2477 C   0  0  0  0  0  0  0  0  0  0  0  0
    8.1558   -0.0986   27.6808 Cl  0  0  0  0  0  0  0  0  0  0  0  0
    6.2950   -0.5416   25.6173 C   0  0  0  0  0  0  0  0  0  0  0  0
    5.9259    0.0011   24.4663 N   0  0  0  0  0  0  0  0  0  0  0  0
    5.8659   -1.4757   25.9580 H   0  0  0  0  0  0  0  0  0  0  0  0
    8.1053    2.1984   25.4504 H   0  0  0  0  0  0  0  0  0  0  0  0
    5.7945    1.6184   22.5043 H   0  0  0  0  0  0  0  0  0  0  0  0
    6.9342    2.8180   23.1701 H   0  0  0  0  0  0  0  0  0  0  0  0
    9.1219    1.4409   22.5498 N   0  0  0  0  0  0  0  0  0  0  0  0
   12.0243   -0.7545   21.6797 C   0  0  0  0  0  0  0  0  0  0  0  0
   11.5479   -1.5220   21.0765 H   0  0  0  0  0  0  0  0  0  0  0  0
   11.3399    2.0350   23.5083 H   0  0  0  0  0  0  0  0  0  0  0  0
   13.8206    2.0129   23.7338 H   0  0  0  0  0  0  0  0  0  0  0  0
   15.1300    0.1519   22.7143 H   0  0  0  0  0  0  0  0  0  0  0  0
  1  2  1  0
  2  3  2  0
  3  4  1  0
  4  5  2  0
  5  6  1  0
  6  7  1  0
  7  8  2  0
  8  9  1  0
  9 10  1  0
 10 11  1  0
 11 12  2  0
 12 13  1  0
 13 14  2  0
 14 15  1  0
 15 16  2  0
 16 17  1  0
 14 18  1  0
 13 19  1  0
 12 20  1  0
 10 21  1  0
 10 22  1  0
  9 23  1  0
 23 24  1  0
 24 25  1  0
 25 26  1  0
 26 27  2  0
 27 28  1  0
 27 29  1  0
 29 30  2  0
 29 31  1  0
 26 32  1  0
 24 33  1  0
 24 34  1  0
 23 35  2  0
  6 36  2  0
 36 37  1  0
  5 38  1  0
  4 39  1  0
  3 40  1  0
 36  2  1  0
 35  7  1  0
 16 11  1  0
 30 25  1  0
M  END
>  <cnnaffinity>  (1) 
-6.62597

>  <filename>  (1) 
Clc1cccc(-c2nc(Cn3cc(Cl)cn3)n(Cc3cccnc3)n2)c1

$$$$
