
     RDKit          3D

 27 29  0  0  0  0  0  0  0  0999 V2000
    4.9479    1.7800   16.9982 H   0  0  0  0  0  0  0  0  0  0  0  0
    5.4107    1.2824   17.8462 C   0  0  0  0  0  0  0  0  0  0  0  0
    6.5697    0.6636   17.5850 N   0  0  0  0  0  0  0  0  0  0  0  0
    7.1778    0.0520   18.6032 C   0  0  0  0  0  0  0  0  0  0  0  0
    8.1263   -0.4277   18.3697 H   0  0  0  0  0  0  0  0  0  0  0  0
    6.6565    0.0124   19.9024 C   0  0  0  0  0  0  0  0  0  0  0  0
    7.4057   -0.7047   20.9214 C   0  0  0  0  0  0  0  0  0  0  0  0
    6.9528   -0.7803   22.1919 N   0  0  0  0  0  0  0  0  0  0  0  0
    7.8675   -1.4939   22.8158 C   0  0  0  0  0  0  0  0  0  0  0  0
    7.8155   -1.9143   24.2301 C   0  0  0  0  0  0  0  0  0  0  0  0
    6.5766   -2.3090   24.7752 C   0  0  0  0  0  0  0  0  0  0  0  0
    5.7003   -2.2623   24.1315 H   0  0  0  0  0  0  0  0  0  0  0  0
    6.4772   -2.7426   26.0956 C   0  0  0  0  0  0  0  0  0  0  0  0
    5.5185   -3.0405   26.5136 H   0  0  0  0  0  0  0  0  0  0  0  0
    7.6310   -2.7930   26.8836 C   0  0  0  0  0  0  0  0  0  0  0  0
    7.6099   -3.2280   27.8647 H   0  0  0  0  0  0  0  0  0  0  0  0
    8.8593   -2.3516   26.3991 C   0  0  0  0  0  0  0  0  0  0  0  0
    9.7367   -2.3632   27.0393 H   0  0  0  0  0  0  0  0  0  0  0  0
    8.9404   -1.9098   25.0782 C   0  0  0  0  0  0  0  0  0  0  0  0
   10.4767   -1.3303   24.5108 Cl  0  0  0  0  0  0  0  0  0  0  0  0
    8.8243   -1.8399   21.9372 N   0  0  0  0  0  0  0  0  0  0  0  0
    9.6552   -2.3816   22.1241 H   0  0  0  0  0  0  0  0  0  0  0  0
    8.5486   -1.3451   20.7064 N   0  0  0  0  0  0  0  0  0  0  0  0
    5.4353    0.6523   20.1711 C   0  0  0  0  0  0  0  0  0  0  0  0
    5.0045    0.6392   21.1786 H   0  0  0  0  0  0  0  0  0  0  0  0
    4.8109    1.3023   19.1120 C   0  0  0  0  0  0  0  0  0  0  0  0
    3.8822    1.8354   19.2480 H   0  0  0  0  0  0  0  0  0  0  0  0
  1  2  1  0
  2  3  2  0
  3  4  1  0
  4  5  1  0
  4  6  2  0
  6  7  1  0
  7  8  1  0
  8  9  2  0
  9 10  1  0
 10 11  2  0
 11 12  1  0
 11 13  1  0
 13 14  1  0
 13 15  2  0
 15 16  1  0
 15 17  1  0
 17 18  1  0
 17 19  2  0
 19 20  1  0
  9 21  1  0
 21 22  1  0
 21 23  1  0
  6 24  1  0
 24 25  1  0
 24 26  2  0
 26 27  1  0
 26  2  1  0
 23  7  2  0
 19 10  1  0
M  END
>  <cnnaffinity>  (1) 
-5.17607

>  <filename>  (1) 
Clc1ccccc1-c1nc(-c2cccnc2)n[nH]1

$$$$
