
     RDKit          3D

 33 35  0  0  0  0  0  0  0  0999 V2000
    4.9296    1.3858   16.9844 H   0  0  0  0  0  0  0  0  0  0  0  0
    5.5389    1.0233   17.8103 C   0  0  0  0  0  0  0  0  0  0  0  0
    6.7213    0.4734   17.4860 N   0  0  0  0  0  0  0  0  0  0  0  0
    7.4893    0.0129   18.4863 C   0  0  0  0  0  0  0  0  0  0  0  0
    8.4549   -0.4006   18.2006 H   0  0  0  0  0  0  0  0  0  0  0  0
    7.1315    0.0353   19.8661 C   0  0  0  0  0  0  0  0  0  0  0  0
    7.9416   -0.5041   20.8498 N   0  0  0  0  0  0  0  0  0  0  0  0
    9.2602   -1.1432   20.8243 C   0  0  0  0  0  0  0  0  0  0  0  0
    9.3239   -2.0188   20.1639 H   0  0  0  0  0  0  0  0  0  0  0  0
   10.1021   -0.4704   20.6140 H   0  0  0  0  0  0  0  0  0  0  0  0
    9.0391   -1.5318   22.3049 C   0  0  0  0  0  0  0  0  0  0  0  0
    9.6342   -0.9389   23.0028 H   0  0  0  0  0  0  0  0  0  0  0  0
    9.1608   -2.5858   22.5518 H   0  0  0  0  0  0  0  0  0  0  0  0
    7.5816   -1.0355   22.1637 C   0  0  2  0  0  0  0  0  0  0  0  0
    7.3061   -0.2403   22.8789 H   0  0  0  0  0  0  0  0  0  0  0  0
    6.4232   -2.0521   22.2032 C   0  0  0  0  0  0  0  0  0  0  0  0
    5.5763   -1.4730   21.8171 H   0  0  0  0  0  0  0  0  0  0  0  0
    6.2361   -2.3105   23.2529 H   0  0  0  0  0  0  0  0  0  0  0  0
    6.4939   -3.3189   21.3692 C   0  0  0  0  0  0  0  0  0  0  0  0
    5.9832   -3.2836   20.0645 C   0  0  0  0  0  0  0  0  0  0  0  0
    5.7765   -2.3089   19.6225 H   0  0  0  0  0  0  0  0  0  0  0  0
    5.6922   -4.4536   19.3669 C   0  0  0  0  0  0  0  0  0  0  0  0
    5.1804   -4.3390   18.4259 H   0  0  0  0  0  0  0  0  0  0  0  0
    5.9863   -5.7047   19.9215 C   0  0  0  0  0  0  0  0  0  0  0  0
    5.7207   -6.6196   19.3970 H   0  0  0  0  0  0  0  0  0  0  0  0
    6.6227   -5.7657   21.1644 C   0  0  0  0  0  0  0  0  0  0  0  0
    6.9052   -6.7185   21.6074 H   0  0  0  0  0  0  0  0  0  0  0  0
    6.8678   -4.5811   21.8696 C   0  0  0  0  0  0  0  0  0  0  0  0
    7.5840   -4.7271   23.4582 Cl  0  0  0  0  0  0  0  0  0  0  0  0
    5.8962    0.6548   20.1726 C   0  0  0  0  0  0  0  0  0  0  0  0
    5.5745    0.7566   21.2104 H   0  0  0  0  0  0  0  0  0  0  0  0
    5.0988    1.1474   19.1327 C   0  0  0  0  0  0  0  0  0  0  0  0
    4.1523    1.6389   19.3396 H   0  0  0  0  0  0  0  0  0  0  0  0
  1  2  1  0
  2  3  2  0
  3  4  1  0
  4  5  1  0
  4  6  2  0
  6  7  1  0
  7  8  1  0
  8  9  1  0
  8 10  1  0
  8 11  1  0
 11 12  1  0
 11 13  1  0
 11 14  1  0
 14 15  1  1
 14 16  1  0
 16 17  1  0
 16 18  1  0
 16 19  1  0
 19 20  2  0
 20 21  1  0
 20 22  1  0
 22 23  1  0
 22 24  2  0
 24 25  1  0
 24 26  1  0
 26 27  1  0
 26 28  2  0
 28 29  1  0
  6 30  1  0
 30 31  1  0
 30 32  2  0
 32 33  1  0
 32  2  1  0
 14  7  1  0
 28 19  1  0
M  END
>  <cnnaffinity>  (1) 
-5.08774

>  <filename>  (1) 
Clc1ccccc1C[C@H]1CCN1c1cccnc1

$$$$
