
     RDKit          3D

 30 32  0  0  0  0  0  0  0  0999 V2000
    5.0411    1.8544   16.7583 H   0  0  0  0  0  0  0  0  0  0  0  0
    5.3885    1.3666   17.6666 C   0  0  0  0  0  0  0  0  0  0  0  0
    6.5247    0.6662   17.5519 N   0  0  0  0  0  0  0  0  0  0  0  0
    6.9820    0.0691   18.6520 C   0  0  0  0  0  0  0  0  0  0  0  0
    7.9080   -0.4888   18.5637 H   0  0  0  0  0  0  0  0  0  0  0  0
    6.3481    0.1299   19.9103 C   0  0  0  0  0  0  0  0  0  0  0  0
    7.0443   -0.5179   21.0241 C   0  0  0  0  0  0  0  0  0  0  0  0
    8.2537   -1.1540   20.7422 N   0  0  0  0  0  0  0  0  0  0  0  0
    8.6724   -1.6067   21.8652 C   0  0  0  0  0  0  0  0  0  0  0  0
    9.9438   -2.3622   22.0570 C   0  0  0  0  0  0  0  0  0  0  0  0
   10.0628   -2.9194   21.1304 H   0  0  0  0  0  0  0  0  0  0  0  0
    9.8000   -3.0698   22.8814 H   0  0  0  0  0  0  0  0  0  0  0  0
   11.1560   -1.4682   22.2797 C   0  0  0  0  0  0  0  0  0  0  0  0
   12.3465   -1.6107   21.5496 C   0  0  0  0  0  0  0  0  0  0  0  0
   12.4180   -2.3140   20.7311 H   0  0  0  0  0  0  0  0  0  0  0  0
   13.4786   -0.8480   21.8565 C   0  0  0  0  0  0  0  0  0  0  0  0
   14.3724   -0.9533   21.2405 H   0  0  0  0  0  0  0  0  0  0  0  0
   13.4287    0.0751   22.9033 C   0  0  0  0  0  0  0  0  0  0  0  0
   14.2786    0.7010   23.1632 H   0  0  0  0  0  0  0  0  0  0  0  0
   12.2309    0.2415   23.6046 C   0  0  0  0  0  0  0  0  0  0  0  0
   12.1619    1.3984   24.8970 Cl  0  0  0  0  0  0  0  0  0  0  0  0
   11.0952   -0.5014   23.2884 C   0  0  0  0  0  0  0  0  0  0  0  0
   10.1661   -0.3372   23.8199 H   0  0  0  0  0  0  0  0  0  0  0  0
    7.8537   -1.3387   22.9043 O   0  0  0  0  0  0  0  0  0  0  0  0
    6.8079   -0.6363   22.3558 C   0  0  0  0  0  0  0  0  0  0  0  0
    6.0491   -0.3055   23.0467 H   0  0  0  0  0  0  0  0  0  0  0  0
    5.1393    0.8362   20.0060 C   0  0  0  0  0  0  0  0  0  0  0  0
    4.5858    0.8974   20.9456 H   0  0  0  0  0  0  0  0  0  0  0  0
    4.6599    1.4696   18.8574 C   0  0  0  0  0  0  0  0  0  0  0  0
    3.7400    2.0418   18.8658 H   0  0  0  0  0  0  0  0  0  0  0  0
  1  2  1  0
  2  3  2  0
  3  4  1  0
  4  5  1  0
  4  6  2  0
  6  7  1  0
  7  8  1  0
  8  9  2  0
  9 10  1  0
 10 11  1  0
 10 12  1  0
 10 13  1  0
 13 14  2  0
 14 15  1  0
 14 16  1  0
 16 17  1  0
 16 18  2  0
 18 19  1  0
 18 20  1  0
 20 21  1  0
 20 22  2  0
 22 23  1  0
  9 24  1  0
 24 25  1  0
 25 26  1  0
  6 27  1  0
 27 28  1  0
 27 29  2  0
 29 30  1  0
 29  2  1  0
 25  7  2  0
 22 13  1  0
M  END
>  <cnnaffinity>  (1) 
-5.47277

>  <filename>  (1) 
Clc1cccc(Cc2nc(-c3cccnc3)co2)c1

$$$$
