
     RDKit          3D

 37 41  0  0  0  0  0  0  0  0999 V2000
    6.4320    5.0561   24.6388 Cl  0  0  0  0  0  0  0  0  0  0  0  0
    6.7452    3.4859   23.9613 C   0  0  0  0  0  0  0  0  0  0  0  0
    6.5022    2.3515   24.7480 C   0  0  0  0  0  0  0  0  0  0  0  0
    6.7644    1.1113   24.1886 C   0  0  0  0  0  0  0  0  0  0  0  0
    7.2190    1.0528   22.8620 C   0  0  0  0  0  0  0  0  0  0  0  0
    7.4882   -0.2482   22.2595 C   0  0  0  0  0  0  0  0  0  0  0  0
    8.0381   -1.2381   22.9342 N   0  0  0  0  0  0  0  0  0  0  0  0
    8.1710   -2.2011   22.0007 C   0  0  0  0  0  0  0  0  0  0  0  0
    8.8814   -3.4929   22.1893 C   0  0  0  0  0  0  0  0  0  0  0  0
    8.1552   -4.7648   21.8612 C   0  0  0  0  0  0  0  0  0  0  0  0
    8.7781   -4.6255   23.2686 C   0  0  0  0  0  0  0  0  0  0  0  0
    8.8393   -5.8022   24.2456 C   0  0  0  0  0  0  0  0  0  0  0  0
    9.7467   -4.6203   24.4221 C   0  0  0  0  0  0  0  0  0  0  0  0
    9.4846   -3.9578   25.2473 H   0  0  0  0  0  0  0  0  0  0  0  0
   10.8186   -4.7129   24.2301 H   0  0  0  0  0  0  0  0  0  0  0  0
    8.0360   -5.9196   24.9715 H   0  0  0  0  0  0  0  0  0  0  0  0
    9.2614   -6.7338   23.8624 H   0  0  0  0  0  0  0  0  0  0  0  0
    8.5402   -5.5096   21.1573 H   0  0  0  0  0  0  0  0  0  0  0  0
    7.0633   -4.6770   21.8308 H   0  0  0  0  0  0  0  0  0  0  0  0
    9.9191   -3.2918   21.9074 H   0  0  0  0  0  0  0  0  0  0  0  0
    7.7400   -1.8859   20.7899 N   0  0  0  0  0  0  0  0  0  0  0  0
    7.2742   -0.6216   20.9564 N   0  0  0  0  0  0  0  0  0  0  0  0
    6.5924    0.0337   19.8922 C   0  0  0  0  0  0  0  0  0  0  0  0
    5.3831    0.7031   20.1220 C   0  0  0  0  0  0  0  0  0  0  0  0
    4.7820    1.3475   19.0385 C   0  0  0  0  0  0  0  0  0  0  0  0
    5.4076    1.3123   17.7895 C   0  0  0  0  0  0  0  0  0  0  0  0
    6.5605    0.6572   17.5614 N   0  0  0  0  0  0  0  0  0  0  0  0
    7.1292    0.0220   18.5905 C   0  0  0  0  0  0  0  0  0  0  0  0
    8.0607   -0.5010   18.3855 H   0  0  0  0  0  0  0  0  0  0  0  0
    4.9671    1.8220   16.9362 H   0  0  0  0  0  0  0  0  0  0  0  0
    3.8443    1.8797   19.1556 H   0  0  0  0  0  0  0  0  0  0  0  0
    4.9442    0.7326   21.1203 H   0  0  0  0  0  0  0  0  0  0  0  0
    7.4490    2.2582   22.1843 C   0  0  0  0  0  0  0  0  0  0  0  0
    7.2108    3.4570   22.7254 N   0  0  0  0  0  0  0  0  0  0  0  0
    7.8311    2.2592   21.1649 H   0  0  0  0  0  0  0  0  0  0  0  0
    6.6209    0.1910   24.7625 H   0  0  0  0  0  0  0  0  0  0  0  0
    6.1307    2.4667   25.7574 H   0  0  0  0  0  0  0  0  0  0  0  0
  1  2  1  0
  2  3  2  0
  3  4  1  0
  4  5  2  0
  5  6  1  0
  6  7  2  0
  7  8  1  0
  8  9  1  0
  9 10  1  0
 10 11  1  0
 11 12  1  0
 12 13  1  0
 13 14  1  0
 13 15  1  0
 12 16  1  0
 12 17  1  0
 10 18  1  0
 10 19  1  0
  9 20  1  0
  8 21  2  0
 21 22  1  0
 22 23  1  0
 23 24  2  0
 24 25  1  0
 25 26  2  0
 26 27  1  0
 27 28  2  0
 28 29  1  0
 26 30  1  0
 25 31  1  0
 24 32  1  0
  5 33  1  0
 33 34  2  0
 33 35  1  0
  4 36  1  0
  3 37  1  0
 34  2  1  0
 22  6  1  0
 28 23  1  0
 11  9  1  0
 13 11  1  0
M  END
>  <cnnaffinity>  (1) 
-6.13141

>  <filename>  (1) 
Clc1ccc(-c2nc(C3CC34CC4)nn2-c2cccnc2)cn1

$$$$
