
     RDKit          3D

 41 44  0  0  0  0  0  0  0  0999 V2000
   12.1559   -1.5757   21.1958 Cl  0  0  0  0  0  0  0  0  0  0  0  0
   11.8563   -0.0475   21.9688 C   0  0  0  0  0  0  0  0  0  0  0  0
   12.7602    0.3724   22.9483 C   0  0  0  0  0  0  0  0  0  0  0  0
   12.5229    1.5692   23.6229 C   0  0  0  0  0  0  0  0  0  0  0  0
   11.3873    2.3326   23.3358 C   0  0  0  0  0  0  0  0  0  0  0  0
   10.4955    1.8947   22.3545 C   0  0  0  0  0  0  0  0  0  0  0  0
   10.7195    0.7096   21.6388 C   0  0  0  0  0  0  0  0  0  0  0  0
    9.6573    0.2231   20.6754 C   0  0  0  0  0  0  0  0  0  0  0  0
    8.6299   -0.6354   21.3363 C   0  0  0  0  0  0  0  0  0  0  0  0
    8.8434   -1.4877   22.3132 N   0  0  0  0  0  0  0  0  0  0  0  0
    7.6107   -2.0040   22.5411 C   0  0  0  0  0  0  0  0  0  0  0  0
    7.3896   -2.9745   23.6424 C   0  0  0  0  0  0  0  0  0  0  0  0
    7.7377   -2.4471   25.0513 C   0  0  0  0  0  0  0  0  0  0  0  0
    8.1114   -3.7174   25.8176 C   0  0  0  0  0  0  0  0  0  0  0  0
    8.4295   -4.7029   24.8473 O   0  0  0  0  0  0  0  0  0  0  0  0
    8.2709   -4.2258   23.5273 C   0  0  0  0  0  0  0  0  0  0  0  0
    9.2544   -4.0029   23.0757 H   0  0  0  0  0  0  0  0  0  0  0  0
    7.7949   -5.0256   22.9411 H   0  0  0  0  0  0  0  0  0  0  0  0
    8.9744   -3.5655   26.4855 H   0  0  0  0  0  0  0  0  0  0  0  0
    7.2793   -4.0920   26.4347 H   0  0  0  0  0  0  0  0  0  0  0  0
    6.9034   -1.9156   25.5185 H   0  0  0  0  0  0  0  0  0  0  0  0
    8.5917   -1.7598   24.9974 H   0  0  0  0  0  0  0  0  0  0  0  0
    6.3376   -3.2608   23.5989 H   0  0  0  0  0  0  0  0  0  0  0  0
    6.6636   -1.5617   21.7456 N   0  0  0  0  0  0  0  0  0  0  0  0
    7.3255   -0.6939   20.9364 N   0  0  0  0  0  0  0  0  0  0  0  0
    6.6498    0.0032   19.9002 C   0  0  0  0  0  0  0  0  0  0  0  0
    5.4361    0.6464   20.1659 C   0  0  0  0  0  0  0  0  0  0  0  0
    4.8121    1.3120   19.1091 C   0  0  0  0  0  0  0  0  0  0  0  0
    5.4027    1.2949   17.8369 C   0  0  0  0  0  0  0  0  0  0  0  0
    6.5602    0.6724   17.5788 N   0  0  0  0  0  0  0  0  0  0  0  0
    7.1670    0.0522   18.5928 C   0  0  0  0  0  0  0  0  0  0  0  0
    8.1134   -0.4284   18.3655 H   0  0  0  0  0  0  0  0  0  0  0  0
    4.9194    1.7837   16.9929 H   0  0  0  0  0  0  0  0  0  0  0  0
    3.8788    1.8412   19.2608 H   0  0  0  0  0  0  0  0  0  0  0  0
    5.0161    0.6100   21.1744 H   0  0  0  0  0  0  0  0  0  0  0  0
    9.1756    1.0879   20.2087 H   0  0  0  0  0  0  0  0  0  0  0  0
   10.0711   -0.4082   19.8832 H   0  0  0  0  0  0  0  0  0  0  0  0
    9.5991    2.4721   22.1397 H   0  0  0  0  0  0  0  0  0  0  0  0
   11.1993    3.2634   23.8626 H   0  0  0  0  0  0  0  0  0  0  0  0
   13.2306    1.8995   24.3727 H   0  0  0  0  0  0  0  0  0  0  0  0
   13.6284   -0.2434   23.1637 H   0  0  0  0  0  0  0  0  0  0  0  0
  1  2  1  0
  2  3  2  0
  3  4  1  0
  4  5  2  0
  5  6  1  0
  6  7  2  0
  7  8  1  0
  8  9  1  0
  9 10  2  0
 10 11  1  0
 11 12  1  0
 12 13  1  0
 13 14  1  0
 14 15  1  0
 15 16  1  0
 16 17  1  0
 16 18  1  0
 14 19  1  0
 14 20  1  0
 13 21  1  0
 13 22  1  0
 12 23  1  0
 11 24  2  0
 24 25  1  0
 25 26  1  0
 26 27  2  0
 27 28  1  0
 28 29  2  0
 29 30  1  0
 30 31  2  0
 31 32  1  0
 29 33  1  0
 28 34  1  0
 27 35  1  0
  8 36  1  0
  8 37  1  0
  6 38  1  0
  5 39  1  0
  4 40  1  0
  3 41  1  0
  7  2  1  0
 25  9  1  0
 31 26  1  0
 16 12  1  0
M  END
>  <cnnaffinity>  (1) 
-6.36553

>  <filename>  (1) 
Clc1ccccc1Cc1nc(C2CCOC2)nn1-c1cccnc1

$$$$
