
     RDKit          3D

 37 40  0  0  0  0  0  0  0  0999 V2000
    9.5252    2.1543   21.0346 Cl  0  0  0  0  0  0  0  0  0  0  0  0
    9.6630    2.1414   22.7499 C   0  0  0  0  0  0  0  0  0  0  0  0
   10.8985    2.4541   23.3157 C   0  0  0  0  0  0  0  0  0  0  0  0
   11.0160    2.2775   24.6913 C   0  0  0  0  0  0  0  0  0  0  0  0
   10.0131    1.8892   25.4784 N   0  0  0  0  0  0  0  0  0  0  0  0
    8.8292    1.6484   24.9042 C   0  0  0  0  0  0  0  0  0  0  0  0
    8.5673    1.7555   23.5279 C   0  0  0  0  0  0  0  0  0  0  0  0
    7.2553    1.2861   22.8861 C   0  0  0  0  0  0  0  0  0  0  0  0
    7.4105   -0.0990   22.3063 C   0  0  0  0  0  0  0  0  0  0  0  0
    7.9003   -1.0860   23.0359 N   0  0  0  0  0  0  0  0  0  0  0  0
    8.1640   -2.0507   22.1297 C   0  0  0  0  0  0  0  0  0  0  0  0
    8.9391   -3.2670   22.4766 C   0  0  0  0  0  0  0  0  0  0  0  0
    8.4496   -4.1397   23.6590 C   0  0  0  0  0  0  0  0  0  0  0  0
   10.0964   -4.0855   24.4530 S   0  0  0  0  0  0  0  0  0  0  0  0
   10.3468   -2.9410   23.0598 C   0  0  0  0  0  0  0  0  0  0  0  0
   10.4524   -1.9052   23.4051 H   0  0  0  0  0  0  0  0  0  0  0  0
   11.1974   -3.1686   22.4172 H   0  0  0  0  0  0  0  0  0  0  0  0
    8.1540   -5.1501   23.3564 H   0  0  0  0  0  0  0  0  0  0  0  0
    7.6625   -3.6889   24.2763 H   0  0  0  0  0  0  0  0  0  0  0  0
    8.9822   -3.8464   21.5558 H   0  0  0  0  0  0  0  0  0  0  0  0
    7.8399   -1.7581   20.8899 N   0  0  0  0  0  0  0  0  0  0  0  0
    7.2888   -0.5179   21.0051 N   0  0  0  0  0  0  0  0  0  0  0  0
    6.6123    0.0590   19.9020 C   0  0  0  0  0  0  0  0  0  0  0  0
    5.3821    0.6950   20.0926 C   0  0  0  0  0  0  0  0  0  0  0  0
    4.7962    1.3312   18.9972 C   0  0  0  0  0  0  0  0  0  0  0  0
    5.4456    1.2871   17.7596 C   0  0  0  0  0  0  0  0  0  0  0  0
    6.5831    0.5985   17.5532 N   0  0  0  0  0  0  0  0  0  0  0  0
    7.1416   -0.0221   18.5986 C   0  0  0  0  0  0  0  0  0  0  0  0
    8.0427   -0.6005   18.4015 H   0  0  0  0  0  0  0  0  0  0  0  0
    5.0354    1.8177   16.9027 H   0  0  0  0  0  0  0  0  0  0  0  0
    3.8621    1.8693   19.1041 H   0  0  0  0  0  0  0  0  0  0  0  0
    4.8989    0.6654   21.0688 H   0  0  0  0  0  0  0  0  0  0  0  0
    6.4655    1.2337   23.6428 H   0  0  0  0  0  0  0  0  0  0  0  0
    6.9321    1.9965   22.1172 H   0  0  0  0  0  0  0  0  0  0  0  0
    8.0325    1.3315   25.5730 H   0  0  0  0  0  0  0  0  0  0  0  0
   11.9678    2.4635   25.1783 H   0  0  0  0  0  0  0  0  0  0  0  0
   11.7196    2.8156   22.7126 H   0  0  0  0  0  0  0  0  0  0  0  0
  1  2  1  0
  2  3  2  0
  3  4  1  0
  4  5  2  0
  5  6  1  0
  6  7  2  0
  7  8  1  0
  8  9  1  0
  9 10  2  0
 10 11  1  0
 11 12  1  0
 12 13  1  0
 13 14  1  0
 14 15  1  0
 15 16  1  0
 15 17  1  0
 13 18  1  0
 13 19  1  0
 12 20  1  0
 11 21  2  0
 21 22  1  0
 22 23  1  0
 23 24  2  0
 24 25  1  0
 25 26  2  0
 26 27  1  0
 27 28  2  0
 28 29  1  0
 26 30  1  0
 25 31  1  0
 24 32  1  0
  8 33  1  0
  8 34  1  0
  6 35  1  0
  4 36  1  0
  3 37  1  0
  7  2  1  0
 22  9  1  0
 28 23  1  0
 15 12  1  0
M  END
>  <cnnaffinity>  (1) 
-6.14793

>  <filename>  (1) 
Clc1ccncc1Cc1nc(C2CSC2)nn1-c1cccnc1

$$$$
