
     RDKit          3D

 40 43  0  0  0  0  0  0  0  0999 V2000
    9.0072    3.9018   22.3770 Cl  0  0  0  0  0  0  0  0  0  0  0  0
    8.1456    4.0556   23.8847 C   0  0  0  0  0  0  0  0  0  0  0  0
    7.8139    5.3463   24.3169 C   0  0  0  0  0  0  0  0  0  0  0  0
    7.1507    5.5107   25.5359 C   0  0  0  0  0  0  0  0  0  0  0  0
    6.8537    4.3897   26.3171 C   0  0  0  0  0  0  0  0  0  0  0  0
    7.1934    3.1082   25.8712 C   0  0  0  0  0  0  0  0  0  0  0  0
    7.8162    2.9036   24.6281 C   0  0  0  0  0  0  0  0  0  0  0  0
    8.0926    1.5014   24.1236 C   0  0  0  0  0  0  0  0  0  0  0  0
    7.1791    1.1002   22.9340 C   0  0  0  0  0  0  0  0  0  0  0  0
    7.5166   -0.2224   22.3146 C   0  0  0  0  0  0  0  0  0  0  0  0
    8.1380   -1.1928   22.9528 N   0  0  0  0  0  0  0  0  0  0  0  0
    8.1494   -2.2126   22.0629 C   0  0  0  0  0  0  0  0  0  0  0  0
    8.7707   -3.5147   22.4264 C   0  0  0  0  0  0  0  0  0  0  0  0
    8.1221   -4.8396   22.1178 C   0  0  0  0  0  0  0  0  0  0  0  0
    8.2171   -4.3771   23.5443 C   0  0  0  0  0  0  0  0  0  0  0  0
    8.9210   -4.8627   24.2224 H   0  0  0  0  0  0  0  0  0  0  0  0
    7.3081   -4.0284   24.0308 H   0  0  0  0  0  0  0  0  0  0  0  0
    8.7547   -5.6588   21.7823 H   0  0  0  0  0  0  0  0  0  0  0  0
    7.1445   -4.8005   21.6381 H   0  0  0  0  0  0  0  0  0  0  0  0
    9.8549   -3.4356   22.3926 H   0  0  0  0  0  0  0  0  0  0  0  0
    7.6080   -1.9310   20.8937 N   0  0  0  0  0  0  0  0  0  0  0  0
    7.1719   -0.6515   21.0526 N   0  0  0  0  0  0  0  0  0  0  0  0
    6.5478    0.0139   19.9537 C   0  0  0  0  0  0  0  0  0  0  0  0
    5.3653    0.7517   20.0988 C   0  0  0  0  0  0  0  0  0  0  0  0
    4.8352    1.3807   18.9632 C   0  0  0  0  0  0  0  0  0  0  0  0
    5.5057    1.2619   17.7414 C   0  0  0  0  0  0  0  0  0  0  0  0
    6.6219    0.5294   17.5893 N   0  0  0  0  0  0  0  0  0  0  0  0
    7.1116   -0.0955   18.6651 C   0  0  0  0  0  0  0  0  0  0  0  0
    7.9870   -0.7199   18.5104 H   0  0  0  0  0  0  0  0  0  0  0  0
    5.1346    1.7628   16.8466 H   0  0  0  0  0  0  0  0  0  0  0  0
    3.9237    1.9643   19.0224 H   0  0  0  0  0  0  0  0  0  0  0  0
    4.8624    0.8064   21.0638 H   0  0  0  0  0  0  0  0  0  0  0  0
    6.1417    1.0577   23.2946 H   0  0  0  0  0  0  0  0  0  0  0  0
    7.1909    1.8722   22.1601 H   0  0  0  0  0  0  0  0  0  0  0  0
    9.1516    1.4310   23.8400 H   0  0  0  0  0  0  0  0  0  0  0  0
    7.9452    0.7943   24.9500 H   0  0  0  0  0  0  0  0  0  0  0  0
    6.9777    2.2378   26.4911 H   0  0  0  0  0  0  0  0  0  0  0  0
    6.3474    4.5081   27.2695 H   0  0  0  0  0  0  0  0  0  0  0  0
    6.8809    6.5096   25.8765 H   0  0  0  0  0  0  0  0  0  0  0  0
    8.0646    6.1979   23.6896 H   0  0  0  0  0  0  0  0  0  0  0  0
  1  2  1  0
  2  3  2  0
  3  4  1  0
  4  5  2  0
  5  6  1  0
  6  7  2  0
  7  8  1  0
  8  9  1  0
  9 10  1  0
 10 11  2  0
 11 12  1  0
 12 13  1  0
 13 14  1  0
 14 15  1  0
 15 16  1  0
 15 17  1  0
 14 18  1  0
 14 19  1  0
 13 20  1  0
 12 21  2  0
 21 22  1  0
 22 23  1  0
 23 24  2  0
 24 25  1  0
 25 26  2  0
 26 27  1  0
 27 28  2  0
 28 29  1  0
 26 30  1  0
 25 31  1  0
 24 32  1  0
  9 33  1  0
  9 34  1  0
  8 35  1  0
  8 36  1  0
  6 37  1  0
  5 38  1  0
  4 39  1  0
  3 40  1  0
  7  2  1  0
 22 10  1  0
 28 23  1  0
 15 13  1  0
M  END
>  <cnnaffinity>  (1) 
-5.99062

>  <filename>  (1) 
Clc1ccccc1CCc1nc(C2CC2)nn1-c1cccnc1

$$$$
