
     RDKit          3D

 41 44  0  0  0  0  0  0  0  0999 V2000
    5.8094    7.3177   23.8292 Cl  0  0  0  0  0  0  0  0  0  0  0  0
    6.4935    5.8689   23.1475 C   0  0  0  0  0  0  0  0  0  0  0  0
    7.7435    5.4285   23.5789 C   0  0  0  0  0  0  0  0  0  0  0  0
    8.2974    4.2641   23.0317 C   0  0  0  0  0  0  0  0  0  0  0  0
    7.5960    3.5401   22.0545 C   0  0  0  0  0  0  0  0  0  0  0  0
    8.0453    2.3955   21.4626 O   0  0  0  0  0  0  0  0  0  0  0  0
    9.3305    1.8946   21.7980 C   0  0  0  0  0  0  0  0  0  0  0  0
    9.5390    0.5990   21.0136 C   0  0  0  0  0  0  0  0  0  0  0  0
    8.6011   -0.4793   21.4431 C   0  0  0  0  0  0  0  0  0  0  0  0
    8.8078   -1.3260   22.4270 N   0  0  0  0  0  0  0  0  0  0  0  0
    7.6312   -2.0001   22.5156 C   0  0  0  0  0  0  0  0  0  0  0  0
    7.4177   -3.0706   23.5129 C   0  0  0  0  0  0  0  0  0  0  0  0
    6.7759   -4.3862   23.0931 C   0  0  0  0  0  0  0  0  0  0  0  0
    6.0108   -3.4351   23.9545 C   0  0  0  0  0  0  0  0  0  0  0  0
    5.1933   -2.8798   23.4933 H   0  0  0  0  0  0  0  0  0  0  0  0
    5.8533   -3.6675   25.0054 H   0  0  0  0  0  0  0  0  0  0  0  0
    6.4861   -4.4793   22.0450 H   0  0  0  0  0  0  0  0  0  0  0  0
    7.1677   -5.3037   23.5268 H   0  0  0  0  0  0  0  0  0  0  0  0
    8.2293   -3.0821   24.2461 H   0  0  0  0  0  0  0  0  0  0  0  0
    6.7128   -1.6151   21.6404 N   0  0  0  0  0  0  0  0  0  0  0  0
    7.3476   -0.6508   20.9397 N   0  0  0  0  0  0  0  0  0  0  0  0
    6.6674    0.0153   19.8933 C   0  0  0  0  0  0  0  0  0  0  0  0
    5.4430    0.6382   20.1554 C   0  0  0  0  0  0  0  0  0  0  0  0
    4.8022    1.2991   19.1060 C   0  0  0  0  0  0  0  0  0  0  0  0
    5.3963    1.2856   17.8386 C   0  0  0  0  0  0  0  0  0  0  0  0
    6.5500    0.6551   17.5705 N   0  0  0  0  0  0  0  0  0  0  0  0
    7.1679    0.0386   18.5827 C   0  0  0  0  0  0  0  0  0  0  0  0
    8.1110   -0.4560   18.3467 H   0  0  0  0  0  0  0  0  0  0  0  0
    4.9294    1.8035   17.0052 H   0  0  0  0  0  0  0  0  0  0  0  0
    3.8723    1.8419   19.2564 H   0  0  0  0  0  0  0  0  0  0  0  0
    5.0263    0.6088   21.1621 H   0  0  0  0  0  0  0  0  0  0  0  0
   10.5600    0.2394   21.1738 H   0  0  0  0  0  0  0  0  0  0  0  0
    9.3944    0.7900   19.9487 H   0  0  0  0  0  0  0  0  0  0  0  0
    9.3860    1.6984   22.8801 H   0  0  0  0  0  0  0  0  0  0  0  0
   10.0979    2.6329   21.5298 H   0  0  0  0  0  0  0  0  0  0  0  0
    6.3376    3.9963   21.6277 C   0  0  0  0  0  0  0  0  0  0  0  0
    5.7877    5.1607   22.1697 C   0  0  0  0  0  0  0  0  0  0  0  0
    4.8224    5.5324   21.8347 H   0  0  0  0  0  0  0  0  0  0  0  0
    5.8216    3.4339   20.8552 H   0  0  0  0  0  0  0  0  0  0  0  0
    9.2771    3.9269   23.3558 H   0  0  0  0  0  0  0  0  0  0  0  0
    8.2768    5.9983   24.3351 H   0  0  0  0  0  0  0  0  0  0  0  0
  1  2  1  0
  2  3  2  0
  3  4  1  0
  4  5  2  0
  5  6  1  0
  6  7  1  0
  7  8  1  0
  8  9  1  0
  9 10  2  0
 10 11  1  0
 11 12  1  0
 12 13  1  0
 13 14  1  0
 14 15  1  0
 14 16  1  0
 13 17  1  0
 13 18  1  0
 12 19  1  0
 11 20  2  0
 20 21  1  0
 21 22  1  0
 22 23  2  0
 23 24  1  0
 24 25  2  0
 25 26  1  0
 26 27  2  0
 27 28  1  0
 25 29  1  0
 24 30  1  0
 23 31  1  0
  8 32  1  0
  8 33  1  0
  7 34  1  0
  7 35  1  0
  5 36  1  0
 36 37  2  0
 37 38  1  0
 36 39  1  0
  4 40  1  0
  3 41  1  0
 37  2  1  0
 21  9  1  0
 27 22  1  0
 14 12  1  0
M  END
>  <cnnaffinity>  (1) 
-5.76409

>  <filename>  (1) 
Clc1ccc(OCCc2nc(C3CC3)nn2-c2cccnc2)cc1

$$$$
