
     RDKit          3D

 40 43  0  0  0  0  0  0  0  0999 V2000
   15.9673   -0.4495   19.6603 Cl  0  0  0  0  0  0  0  0  0  0  0  0
   14.5750   -0.8223   20.7500 C   0  0  0  0  0  0  0  0  0  0  0  0
   13.6286   -1.7977   20.4618 C   0  0  0  0  0  0  0  0  0  0  0  0
   12.3558   -1.6260   21.0105 C   0  0  0  0  0  0  0  0  0  0  0  0
   12.0153   -0.5042   21.7872 C   0  0  0  0  0  0  0  0  0  0  0  0
   10.5882   -0.1330   21.9221 C   0  0  0  0  0  0  0  0  0  0  0  0
    9.6301   -0.8727   21.3783 N   0  0  0  0  0  0  0  0  0  0  0  0
    8.5027   -0.1959   21.6554 N   0  0  0  0  0  0  0  0  0  0  0  0
    7.2200   -0.7064   21.1923 C   0  0  0  0  0  0  0  0  0  0  0  0
    6.6152    0.0697   20.0434 C   0  0  0  0  0  0  0  0  0  0  0  0
    5.3946    0.7411   20.1614 C   0  0  0  0  0  0  0  0  0  0  0  0
    4.8634    1.3764   19.0365 C   0  0  0  0  0  0  0  0  0  0  0  0
    5.5831    1.3276   17.8390 C   0  0  0  0  0  0  0  0  0  0  0  0
    6.7708    0.7147   17.7127 N   0  0  0  0  0  0  0  0  0  0  0  0
    7.2699    0.1158   18.8003 C   0  0  0  0  0  0  0  0  0  0  0  0
    8.2436   -0.3597   18.6829 H   0  0  0  0  0  0  0  0  0  0  0  0
    5.1895    1.7998   16.9408 H   0  0  0  0  0  0  0  0  0  0  0  0
    3.9186    1.9065   19.0780 H   0  0  0  0  0  0  0  0  0  0  0  0
    4.8772    0.7717   21.1245 H   0  0  0  0  0  0  0  0  0  0  0  0
    7.4153   -1.7423   20.8995 H   0  0  0  0  0  0  0  0  0  0  0  0
    6.5407   -0.7201   22.0503 H   0  0  0  0  0  0  0  0  0  0  0  0
    8.8207    0.9266   22.3329 C   0  0  0  0  0  0  0  0  0  0  0  0
    7.8207    1.8076   23.0054 C   0  0  0  0  0  0  0  0  0  0  0  0
    7.4825    1.2249   24.2963 N   0  0  0  0  0  0  0  0  0  0  0  0
    8.2682    1.1898   25.3966 C   0  0  0  0  0  0  0  0  0  0  0  0
    7.7377    0.2186   26.2111 C   0  0  0  0  0  0  0  0  0  0  0  0
    8.3832   -0.3262   27.7090 Cl  0  0  0  0  0  0  0  0  0  0  0  0
    6.6242   -0.2905   25.5103 C   0  0  0  0  0  0  0  0  0  0  0  0
    6.5068    0.3134   24.3330 N   0  0  0  0  0  0  0  0  0  0  0  0
    5.9320   -1.0664   25.8071 H   0  0  0  0  0  0  0  0  0  0  0  0
    9.1406    1.8224   25.4973 H   0  0  0  0  0  0  0  0  0  0  0  0
    6.8965    1.8936   22.4331 H   0  0  0  0  0  0  0  0  0  0  0  0
    8.2460    2.7979   23.1720 H   0  0  0  0  0  0  0  0  0  0  0  0
   10.1254    1.0049   22.5085 N   0  0  0  0  0  0  0  0  0  0  0  0
   13.0606    0.2925   22.2876 C   0  0  0  0  0  0  0  0  0  0  0  0
   14.3459    0.1168   21.7833 C   0  0  0  0  0  0  0  0  0  0  0  0
   15.1382    0.8105   22.0436 H   0  0  0  0  0  0  0  0  0  0  0  0
   12.8572    1.0803   23.0134 H   0  0  0  0  0  0  0  0  0  0  0  0
   11.5563   -2.3126   20.7853 H   0  0  0  0  0  0  0  0  0  0  0  0
   13.8423   -2.6508   19.8283 H   0  0  0  0  0  0  0  0  0  0  0  0
  1  2  1  0
  2  3  2  0
  3  4  1  0
  4  5  2  0
  5  6  1  0
  6  7  2  0
  7  8  1  0
  8  9  1  0
  9 10  1  0
 10 11  2  0
 11 12  1  0
 12 13  2  0
 13 14  1  0
 14 15  2  0
 15 16  1  0
 13 17  1  0
 12 18  1  0
 11 19  1  0
  9 20  1  0
  9 21  1  0
  8 22  1  0
 22 23  1  0
 23 24  1  0
 24 25  1  0
 25 26  2  0
 26 27  1  0
 26 28  1  0
 28 29  2  0
 28 30  1  0
 25 31  1  0
 23 32  1  0
 23 33  1  0
 22 34  2  0
  5 35  1  0
 35 36  2  0
 36 37  1  0
 35 38  1  0
  4 39  1  0
  3 40  1  0
 36  2  1  0
 34  6  1  0
 15 10  1  0
 29 24  1  0
M  END
>  <cnnaffinity>  (1) 
-6.6218

>  <filename>  (1) 
Clc1ccc(-c2nc(Cn3cc(Cl)cn3)n(Cc3cccnc3)n2)cc1

$$$$
