
     RDKit          3D

 40 43  0  0  0  0  0  0  0  0999 V2000
    6.0535    3.9073   29.1576 Cl  0  0  0  0  0  0  0  0  0  0  0  0
    6.4934    3.1788   27.6401 C   0  0  0  0  0  0  0  0  0  0  0  0
    5.6750    2.1980   27.0727 C   0  0  0  0  0  0  0  0  0  0  0  0
    6.0336    1.6159   25.8510 C   0  0  0  0  0  0  0  0  0  0  0  0
    7.2136    2.0158   25.1859 C   0  0  0  0  0  0  0  0  0  0  0  0
    7.6563    1.4436   23.8868 C   0  0  0  0  0  0  0  0  0  0  0  0
    7.0481    0.4787   23.2129 N   0  0  0  0  0  0  0  0  0  0  0  0
    7.8307    0.3043   22.1208 N   0  0  0  0  0  0  0  0  0  0  0  0
    7.4365   -0.6322   21.0673 C   0  0  0  0  0  0  0  0  0  0  0  0
    6.7214    0.0334   19.9080 C   0  0  0  0  0  0  0  0  0  0  0  0
    5.5062    0.6984   20.1209 C   0  0  0  0  0  0  0  0  0  0  0  0
    4.8895    1.3261   19.0366 C   0  0  0  0  0  0  0  0  0  0  0  0
    5.5035    1.2688   17.7820 C   0  0  0  0  0  0  0  0  0  0  0  0
    6.6556    0.6191   17.5563 N   0  0  0  0  0  0  0  0  0  0  0  0
    7.2370    0.0206   18.6035 C   0  0  0  0  0  0  0  0  0  0  0  0
    8.1634   -0.5149   18.3824 H   0  0  0  0  0  0  0  0  0  0  0  0
    5.0462    1.7532   16.9197 H   0  0  0  0  0  0  0  0  0  0  0  0
    3.9533    1.8613   19.1475 H   0  0  0  0  0  0  0  0  0  0  0  0
    5.0609    0.7203   21.1184 H   0  0  0  0  0  0  0  0  0  0  0  0
    8.3300   -1.1629   20.7177 H   0  0  0  0  0  0  0  0  0  0  0  0
    6.7858   -1.3706   21.5495 H   0  0  0  0  0  0  0  0  0  0  0  0
    8.8562    1.1812   22.1796 C   0  0  0  0  0  0  0  0  0  0  0  0
    9.9469    1.3225   21.1860 C   0  0  0  0  0  0  0  0  0  0  0  0
   11.0446    0.4346   21.4966 N   0  0  0  0  0  0  0  0  0  0  0  0
   12.0240    0.6242   22.4016 C   0  0  0  0  0  0  0  0  0  0  0  0
   12.8555   -0.4766   22.3238 C   0  0  0  0  0  0  0  0  0  0  0  0
   12.2506   -1.2959   21.3515 C   0  0  0  0  0  0  0  0  0  0  0  0
   11.1400   -0.7385   20.8757 N   0  0  0  0  0  0  0  0  0  0  0  0
   12.5715   -2.2454   20.9349 H   0  0  0  0  0  0  0  0  0  0  0  0
   13.7783   -0.6843   22.8519 H   0  0  0  0  0  0  0  0  0  0  0  0
   12.0234    1.5270   22.9992 H   0  0  0  0  0  0  0  0  0  0  0  0
    9.6154    1.0609   20.1840 H   0  0  0  0  0  0  0  0  0  0  0  0
   10.2933    2.3626   21.2089 H   0  0  0  0  0  0  0  0  0  0  0  0
    8.7845    1.9018   23.2702 N   0  0  0  0  0  0  0  0  0  0  0  0
    8.0224    3.0025   25.7932 C   0  0  0  0  0  0  0  0  0  0  0  0
    7.6699    3.5842   27.0085 C   0  0  0  0  0  0  0  0  0  0  0  0
    8.2948    4.3412   27.4706 H   0  0  0  0  0  0  0  0  0  0  0  0
    8.9448    3.3056   25.3027 H   0  0  0  0  0  0  0  0  0  0  0  0
    5.3995    0.8388   25.4261 H   0  0  0  0  0  0  0  0  0  0  0  0
    4.7723    1.8988   27.5972 H   0  0  0  0  0  0  0  0  0  0  0  0
  1  2  1  0
  2  3  2  0
  3  4  1  0
  4  5  2  0
  5  6  1  0
  6  7  2  0
  7  8  1  0
  8  9  1  0
  9 10  1  0
 10 11  2  0
 11 12  1  0
 12 13  2  0
 13 14  1  0
 14 15  2  0
 15 16  1  0
 13 17  1  0
 12 18  1  0
 11 19  1  0
  9 20  1  0
  9 21  1  0
  8 22  1  0
 22 23  1  0
 23 24  1  0
 24 25  1  0
 25 26  2  0
 26 27  1  0
 27 28  2  0
 27 29  1  0
 26 30  1  0
 25 31  1  0
 23 32  1  0
 23 33  1  0
 22 34  2  0
  5 35  1  0
 35 36  2  0
 36 37  1  0
 35 38  1  0
  4 39  1  0
  3 40  1  0
 36  2  1  0
 34  6  1  0
 15 10  1  0
 28 24  1  0
M  END
>  <cnnaffinity>  (1) 
-6.05091

>  <filename>  (1) 
Clc1ccc(-c2nc(Cn3cccn3)n(Cc3cccnc3)n2)cc1

$$$$
