
     RDKit          3D

 39 42  0  0  0  0  0  0  0  0999 V2000
    9.5369    2.1594   21.0314 Cl  0  0  0  0  0  0  0  0  0  0  0  0
    9.6663    2.1370   22.7454 C   0  0  0  0  0  0  0  0  0  0  0  0
   10.8955    2.4544   23.3185 C   0  0  0  0  0  0  0  0  0  0  0  0
   11.0090    2.2781   24.6913 C   0  0  0  0  0  0  0  0  0  0  0  0
   10.0027    1.8822   25.4746 N   0  0  0  0  0  0  0  0  0  0  0  0
    8.8235    1.6374   24.8913 C   0  0  0  0  0  0  0  0  0  0  0  0
    8.5674    1.7437   23.5158 C   0  0  0  0  0  0  0  0  0  0  0  0
    7.2626    1.2675   22.8627 C   0  0  0  0  0  0  0  0  0  0  0  0
    7.4219   -0.1171   22.2819 C   0  0  0  0  0  0  0  0  0  0  0  0
    7.9148   -1.1042   23.0066 N   0  0  0  0  0  0  0  0  0  0  0  0
    8.1703   -2.0721   22.0949 C   0  0  0  0  0  0  0  0  0  0  0  0
    8.9620   -3.2817   22.4360 C   0  0  0  0  0  0  0  0  0  0  0  0
   10.3542   -2.9930   23.0915 C   0  0  0  0  0  0  0  0  0  0  0  0
   10.0057   -3.9391   24.2568 C   0  0  0  0  0  0  0  0  0  0  0  0
    8.5790   -4.1329   23.6869 C   0  0  0  0  0  0  0  0  0  0  0  0
    8.2971   -5.1620   23.4372 H   0  0  0  0  0  0  0  0  0  0  0  0
    7.7949   -3.6966   24.3198 H   0  0  0  0  0  0  0  0  0  0  0  0
   10.0296   -3.4704   25.2477 H   0  0  0  0  0  0  0  0  0  0  0  0
   10.6135   -4.8471   24.2982 H   0  0  0  0  0  0  0  0  0  0  0  0
   11.2344   -3.2211   22.4896 H   0  0  0  0  0  0  0  0  0  0  0  0
   10.4503   -1.9527   23.4109 H   0  0  0  0  0  0  0  0  0  0  0  0
    8.9839   -3.8560   21.5075 H   0  0  0  0  0  0  0  0  0  0  0  0
    7.8125   -1.7783   20.8600 N   0  0  0  0  0  0  0  0  0  0  0  0
    7.2776   -0.5323   20.9820 N   0  0  0  0  0  0  0  0  0  0  0  0
    6.6003    0.0632   19.8846 C   0  0  0  0  0  0  0  0  0  0  0  0
    5.3728    0.7058   20.0784 C   0  0  0  0  0  0  0  0  0  0  0  0
    4.7812    1.3462   18.9883 C   0  0  0  0  0  0  0  0  0  0  0  0
    5.4243    1.3083   17.7473 C   0  0  0  0  0  0  0  0  0  0  0  0
    6.5644    0.6260   17.5378 N   0  0  0  0  0  0  0  0  0  0  0  0
    7.1277    0.0001   18.5774 C   0  0  0  0  0  0  0  0  0  0  0  0
    8.0361   -0.5636   18.3710 H   0  0  0  0  0  0  0  0  0  0  0  0
    5.0077    1.8387   16.8933 H   0  0  0  0  0  0  0  0  0  0  0  0
    3.8485    1.8848   19.0995 H   0  0  0  0  0  0  0  0  0  0  0  0
    4.8950    0.6885   21.0574 H   0  0  0  0  0  0  0  0  0  0  0  0
    6.9413    1.9824   22.0951 H   0  0  0  0  0  0  0  0  0  0  0  0
    6.4704    1.2029   23.6148 H   0  0  0  0  0  0  0  0  0  0  0  0
    8.0256    1.3164   25.5569 H   0  0  0  0  0  0  0  0  0  0  0  0
   11.9557    2.4718   25.1845 H   0  0  0  0  0  0  0  0  0  0  0  0
   11.7138    2.8312   22.7175 H   0  0  0  0  0  0  0  0  0  0  0  0
  1  2  1  0
  2  3  2  0
  3  4  1  0
  4  5  2  0
  5  6  1  0
  6  7  2  0
  7  8  1  0
  8  9  1  0
  9 10  2  0
 10 11  1  0
 11 12  1  0
 12 13  1  0
 13 14  1  0
 14 15  1  0
 15 16  1  0
 15 17  1  0
 14 18  1  0
 14 19  1  0
 13 20  1  0
 13 21  1  0
 12 22  1  0
 11 23  2  0
 23 24  1  0
 24 25  1  0
 25 26  2  0
 26 27  1  0
 27 28  2  0
 28 29  1  0
 29 30  2  0
 30 31  1  0
 28 32  1  0
 27 33  1  0
 26 34  1  0
  8 35  1  0
  8 36  1  0
  6 37  1  0
  4 38  1  0
  3 39  1  0
  7  2  1  0
 24  9  1  0
 30 25  1  0
 15 12  1  0
M  END
>  <cnnaffinity>  (1) 
-6.19229

>  <filename>  (1) 
Clc1ccncc1Cc1nc(C2CCC2)nn1-c1cccnc1

$$$$
