
     RDKit          3D

 41 44  0  0  0  0  0  0  0  0999 V2000
   12.9893    1.5292   22.9341 Cl  0  0  0  0  0  0  0  0  0  0  0  0
   11.3748    2.1435   23.1425 C   0  0  0  0  0  0  0  0  0  0  0  0
   11.1600    3.1424   24.0845 C   0  0  0  0  0  0  0  0  0  0  0  0
    9.8810    3.6612   24.2962 C   0  0  0  0  0  0  0  0  0  0  0  0
    8.8076    3.1653   23.5599 C   0  0  0  0  0  0  0  0  0  0  0  0
    9.0097    2.1787   22.5905 C   0  0  0  0  0  0  0  0  0  0  0  0
   10.2945    1.6438   22.3813 C   0  0  0  0  0  0  0  0  0  0  0  0
   10.5696    0.6459   21.4984 O   0  0  0  0  0  0  0  0  0  0  0  0
    9.5683    0.0812   20.6642 C   0  0  0  0  0  0  0  0  0  0  0  0
    8.4819   -0.6923   21.3599 C   0  0  0  0  0  0  0  0  0  0  0  0
    8.6325   -1.4662   22.4174 N   0  0  0  0  0  0  0  0  0  0  0  0
    7.3913   -1.9812   22.6066 C   0  0  0  0  0  0  0  0  0  0  0  0
    7.0807   -2.9435   23.6999 C   0  0  0  0  0  0  0  0  0  0  0  0
    7.2233   -4.3856   23.2436 C   0  0  0  0  0  0  0  0  0  0  0  0
    7.7717   -5.3962   24.1981 C   0  0  0  0  0  0  0  0  0  0  0  0
    8.6094   -4.9301   23.0450 C   0  0  0  0  0  0  0  0  0  0  0  0
    9.4256   -4.2440   23.2709 H   0  0  0  0  0  0  0  0  0  0  0  0
    8.8026   -5.6047   22.2160 H   0  0  0  0  0  0  0  0  0  0  0  0
    7.3146   -6.3661   24.1427 H   0  0  0  0  0  0  0  0  0  0  0  0
    8.0484   -5.0937   25.2046 H   0  0  0  0  0  0  0  0  0  0  0  0
    6.4474   -4.7302   22.5564 H   0  0  0  0  0  0  0  0  0  0  0  0
    7.7763   -2.7517   24.5250 H   0  0  0  0  0  0  0  0  0  0  0  0
    6.0640   -2.7440   24.0496 H   0  0  0  0  0  0  0  0  0  0  0  0
    6.4943   -1.6000   21.7205 N   0  0  0  0  0  0  0  0  0  0  0  0
    7.1963   -0.7800   20.9013 N   0  0  0  0  0  0  0  0  0  0  0  0
    6.5330   -0.1124   19.8342 C   0  0  0  0  0  0  0  0  0  0  0  0
    5.3484    0.5901   20.0819 C   0  0  0  0  0  0  0  0  0  0  0  0
    4.7838    1.3260   19.0395 C   0  0  0  0  0  0  0  0  0  0  0  0
    5.3999    1.3074   17.7812 C   0  0  0  0  0  0  0  0  0  0  0  0
    6.4966    0.5817   17.5196 N   0  0  0  0  0  0  0  0  0  0  0  0
    7.0407   -0.1177   18.5211 C   0  0  0  0  0  0  0  0  0  0  0  0
    7.9230   -0.7050   18.2696 H   0  0  0  0  0  0  0  0  0  0  0  0
    4.9952    1.8864   16.9541 H   0  0  0  0  0  0  0  0  0  0  0  0
    3.8909    1.9235   19.1884 H   0  0  0  0  0  0  0  0  0  0  0  0
    4.9048    0.5512   21.0785 H   0  0  0  0  0  0  0  0  0  0  0  0
    9.1343    0.8471   20.0101 H   0  0  0  0  0  0  0  0  0  0  0  0
   10.1151   -0.6393   20.0527 H   0  0  0  0  0  0  0  0  0  0  0  0
    8.1786    1.8207   21.9930 H   0  0  0  0  0  0  0  0  0  0  0  0
    7.8095    3.5524   23.7374 H   0  0  0  0  0  0  0  0  0  0  0  0
    9.7380    4.4550   25.0192 H   0  0  0  0  0  0  0  0  0  0  0  0
   12.0087    3.5202   24.6396 H   0  0  0  0  0  0  0  0  0  0  0  0
  1  2  1  0
  2  3  2  0
  3  4  1  0
  4  5  2  0
  5  6  1  0
  6  7  2  0
  7  8  1  0
  8  9  1  0
  9 10  1  0
 10 11  2  0
 11 12  1  0
 12 13  1  0
 13 14  1  0
 14 15  1  0
 15 16  1  0
 16 17  1  0
 16 18  1  0
 15 19  1  0
 15 20  1  0
 14 21  1  0
 13 22  1  0
 13 23  1  0
 12 24  2  0
 24 25  1  0
 25 26  1  0
 26 27  2  0
 27 28  1  0
 28 29  2  0
 29 30  1  0
 30 31  2  0
 31 32  1  0
 29 33  1  0
 28 34  1  0
 27 35  1  0
  9 36  1  0
  9 37  1  0
  6 38  1  0
  5 39  1  0
  4 40  1  0
  3 41  1  0
  7  2  1  0
 25 10  1  0
 31 26  1  0
 16 14  1  0
M  END
>  <cnnaffinity>  (1) 
-6.32539

>  <filename>  (1) 
Clc1ccccc1OCc1nc(CC2CC2)nn1-c1cccnc1

$$$$
