
     RDKit          3D

 43 46  0  0  0  0  0  0  0  0999 V2000
    8.5101    2.5852   22.4125 Cl  0  0  0  0  0  0  0  0  0  0  0  0
   10.1047    1.9248   22.5878 C   0  0  0  0  0  0  0  0  0  0  0  0
   10.9149    2.4079   23.6092 C   0  0  0  0  0  0  0  0  0  0  0  0
   12.1708    1.8297   23.7506 C   0  0  0  0  0  0  0  0  0  0  0  0
   12.6388    0.8406   22.9873 N   0  0  0  0  0  0  0  0  0  0  0  0
   11.8324    0.4032   22.0166 C   0  0  0  0  0  0  0  0  0  0  0  0
   10.5605    0.9086   21.7367 C   0  0  0  0  0  0  0  0  0  0  0  0
    9.6497    0.2756   20.7069 C   0  0  0  0  0  0  0  0  0  0  0  0
    8.6220   -0.6045   21.3270 C   0  0  0  0  0  0  0  0  0  0  0  0
    8.8628   -1.4529   22.3049 N   0  0  0  0  0  0  0  0  0  0  0  0
    7.6399   -1.9819   22.5617 C   0  0  0  0  0  0  0  0  0  0  0  0
    7.3679   -2.8919   23.7329 C   0  0  0  0  0  0  0  0  0  0  0  0
    7.0502   -2.0779   25.0211 C   0  0  0  0  0  0  0  0  0  0  0  0
    8.3273   -1.5695   25.6951 C   0  0  0  0  0  0  0  0  0  0  0  0
    9.2052   -2.6456   25.9899 O   0  0  0  0  0  0  0  0  0  0  0  0
    9.6746   -3.2825   24.8098 C   0  0  0  0  0  0  0  0  0  0  0  0
    8.5163   -3.8958   24.0085 C   0  0  0  0  0  0  0  0  0  0  0  0
    8.1146   -4.7296   24.5952 H   0  0  0  0  0  0  0  0  0  0  0  0
    8.8976   -4.3136   23.0697 H   0  0  0  0  0  0  0  0  0  0  0  0
   10.3734   -4.0629   25.1330 H   0  0  0  0  0  0  0  0  0  0  0  0
   10.2240   -2.5558   24.1927 H   0  0  0  0  0  0  0  0  0  0  0  0
    8.0947   -1.0827   26.6480 H   0  0  0  0  0  0  0  0  0  0  0  0
    8.8424   -0.8388   25.0451 H   0  0  0  0  0  0  0  0  0  0  0  0
    6.5262   -2.7239   25.7338 H   0  0  0  0  0  0  0  0  0  0  0  0
    6.3828   -1.2388   24.7889 H   0  0  0  0  0  0  0  0  0  0  0  0
    6.4698   -3.4406   23.4396 H   0  0  0  0  0  0  0  0  0  0  0  0
    6.6792   -1.5541   21.7687 N   0  0  0  0  0  0  0  0  0  0  0  0
    7.3236   -0.6921   20.9355 N   0  0  0  0  0  0  0  0  0  0  0  0
    6.6440   -0.0023   19.8987 C   0  0  0  0  0  0  0  0  0  0  0  0
    5.4344    0.6468   20.1652 C   0  0  0  0  0  0  0  0  0  0  0  0
    4.8108    1.3123   19.1088 C   0  0  0  0  0  0  0  0  0  0  0  0
    5.4012    1.2945   17.8375 C   0  0  0  0  0  0  0  0  0  0  0  0
    6.5590    0.6712   17.5788 N   0  0  0  0  0  0  0  0  0  0  0  0
    7.1657    0.0490   18.5922 C   0  0  0  0  0  0  0  0  0  0  0  0
    8.1140   -0.4304   18.3650 H   0  0  0  0  0  0  0  0  0  0  0  0
    4.9183    1.7830   16.9940 H   0  0  0  0  0  0  0  0  0  0  0  0
    3.8792    1.8416   19.2610 H   0  0  0  0  0  0  0  0  0  0  0  0
    5.0192    0.6150   21.1761 H   0  0  0  0  0  0  0  0  0  0  0  0
   10.1859   -0.3926   20.0258 H   0  0  0  0  0  0  0  0  0  0  0  0
    9.1676    1.0672   20.1290 H   0  0  0  0  0  0  0  0  0  0  0  0
   12.2080   -0.4200   21.4174 H   0  0  0  0  0  0  0  0  0  0  0  0
   12.8416    2.1739   24.5217 H   0  0  0  0  0  0  0  0  0  0  0  0
   10.5770    3.2027   24.2601 H   0  0  0  0  0  0  0  0  0  0  0  0
  1  2  1  0
  2  3  2  0
  3  4  1  0
  4  5  2  0
  5  6  1  0
  6  7  2  0
  7  8  1  0
  8  9  1  0
  9 10  2  0
 10 11  1  0
 11 12  1  0
 12 13  1  0
 13 14  1  0
 14 15  1  0
 15 16  1  0
 16 17  1  0
 17 18  1  0
 17 19  1  0
 16 20  1  0
 16 21  1  0
 14 22  1  0
 14 23  1  0
 13 24  1  0
 13 25  1  0
 12 26  1  0
 11 27  2  0
 27 28  1  0
 28 29  1  0
 29 30  2  0
 30 31  1  0
 31 32  2  0
 32 33  1  0
 33 34  2  0
 34 35  1  0
 32 36  1  0
 31 37  1  0
 30 38  1  0
  8 39  1  0
  8 40  1  0
  6 41  1  0
  4 42  1  0
  3 43  1  0
  7  2  1  0
 28  9  1  0
 34 29  1  0
 17 12  1  0
M  END
>  <cnnaffinity>  (1) 
-6.15454

>  <filename>  (1) 
Clc1ccncc1Cc1nc(C2CCOCC2)nn1-c1cccnc1

$$$$
