
     RDKit          3D

 36 39  0  0  0  0  0  0  0  0999 V2000
    5.0982   -3.9951   22.4586 Cl  0  0  0  0  0  0  0  0  0  0  0  0
    6.3215   -3.9596   23.6922 C   0  0  0  0  0  0  0  0  0  0  0  0
    6.2058   -4.8797   24.7458 C   0  0  0  0  0  0  0  0  0  0  0  0
    7.1649   -4.9063   25.7598 C   0  0  0  0  0  0  0  0  0  0  0  0
    8.2409   -4.0170   25.7253 C   0  0  0  0  0  0  0  0  0  0  0  0
    8.3546   -3.1082   24.6813 C   0  0  0  0  0  0  0  0  0  0  0  0
    7.4022   -3.0545   23.6403 C   0  0  0  0  0  0  0  0  0  0  0  0
    7.6203   -2.0616   22.5676 C   0  0  0  0  0  0  0  0  0  0  0  0
    6.7231   -1.6205   21.7071 N   0  0  0  0  0  0  0  0  0  0  0  0
    7.4202   -0.7178   20.9684 N   0  0  0  0  0  0  0  0  0  0  0  0
    6.7418   -0.0412   19.9111 C   0  0  0  0  0  0  0  0  0  0  0  0
    5.5310    0.6026   20.1879 C   0  0  0  0  0  0  0  0  0  0  0  0
    4.8997    1.2759   19.1440 C   0  0  0  0  0  0  0  0  0  0  0  0
    5.4802    1.2748   17.8700 C   0  0  0  0  0  0  0  0  0  0  0  0
    6.6224    0.6275   17.5923 N   0  0  0  0  0  0  0  0  0  0  0  0
    7.2297   -0.0223   18.5933 C   0  0  0  0  0  0  0  0  0  0  0  0
    8.1358   -0.5659   18.3301 H   0  0  0  0  0  0  0  0  0  0  0  0
    4.9999    1.7983   17.0443 H   0  0  0  0  0  0  0  0  0  0  0  0
    3.9585    1.7842   19.3062 H   0  0  0  0  0  0  0  0  0  0  0  0
    5.1123    0.5652   21.1970 H   0  0  0  0  0  0  0  0  0  0  0  0
    8.6883   -0.6215   21.4735 C   0  0  0  0  0  0  0  0  0  0  0  0
    9.7161    0.4186   21.2057 C   0  0  0  0  0  0  0  0  0  0  0  0
    9.2581    1.7176   21.7735 C   0  0  0  0  0  0  0  0  0  0  0  0
    9.5680    2.1531   22.9585 N   0  0  0  0  0  0  0  0  0  0  0  0
    8.8746    3.3351   23.1123 O   0  0  0  0  0  0  0  0  0  0  0  0
    8.1417    3.5673   22.0142 C   0  0  0  0  0  0  0  0  0  0  0  0
    8.3384    2.5702   21.1225 C   0  0  0  0  0  0  0  0  0  0  0  0
    7.9059    2.3566   20.1638 H   0  0  0  0  0  0  0  0  0  0  0  0
    7.5559    4.4763   22.0424 H   0  0  0  0  0  0  0  0  0  0  0  0
    9.8373    0.5301   20.1327 H   0  0  0  0  0  0  0  0  0  0  0  0
   10.6408    0.0857   21.6754 H   0  0  0  0  0  0  0  0  0  0  0  0
    8.8411   -1.4757   22.4403 N   0  0  0  0  0  0  0  0  0  0  0  0
    9.1944   -2.4181   24.6527 H   0  0  0  0  0  0  0  0  0  0  0  0
    8.9970   -4.0308   26.5031 H   0  0  0  0  0  0  0  0  0  0  0  0
    7.0818   -5.6231   26.5723 H   0  0  0  0  0  0  0  0  0  0  0  0
    5.3722   -5.5748   24.7684 H   0  0  0  0  0  0  0  0  0  0  0  0
  1  2  1  0
  2  3  2  0
  3  4  1  0
  4  5  2  0
  5  6  1  0
  6  7  2  0
  7  8  1  0
  8  9  2  0
  9 10  1  0
 10 11  1  0
 11 12  2  0
 12 13  1  0
 13 14  2  0
 14 15  1  0
 15 16  2  0
 16 17  1  0
 14 18  1  0
 13 19  1  0
 12 20  1  0
 10 21  1  0
 21 22  1  0
 22 23  1  0
 23 24  2  0
 24 25  1  0
 25 26  1  0
 26 27  2  0
 27 28  1  0
 26 29  1  0
 22 30  1  0
 22 31  1  0
 21 32  2  0
  6 33  1  0
  5 34  1  0
  4 35  1  0
  3 36  1  0
  7  2  1  0
 32  8  1  0
 16 11  1  0
 27 23  1  0
M  END
>  <cnnaffinity>  (1) 
-5.91324

>  <filename>  (1) 
Clc1ccccc1-c1nc(Cc2ccon2)n(-c2cccnc2)n1

$$$$
