
     RDKit          3D

 31 33  0  0  0  0  0  0  0  0999 V2000
    4.9279    1.7780   16.9956 H   0  0  0  0  0  0  0  0  0  0  0  0
    5.4069    1.2888   17.8437 C   0  0  0  0  0  0  0  0  0  0  0  0
    6.5693    0.6659   17.5982 N   0  0  0  0  0  0  0  0  0  0  0  0
    7.1739    0.0537   18.6164 C   0  0  0  0  0  0  0  0  0  0  0  0
    8.1105   -0.4322   18.3656 H   0  0  0  0  0  0  0  0  0  0  0  0
    6.6606    0.0003   19.9218 C   0  0  0  0  0  0  0  0  0  0  0  0
    7.3735   -0.6872   20.9405 N   0  0  0  0  0  0  0  0  0  0  0  0
    6.7456   -1.0840   22.0657 N   0  0  0  0  0  0  0  0  0  0  0  0
    7.6712   -1.6607   22.8141 C   0  0  0  0  0  0  0  0  0  0  0  0
    7.3476   -2.2971   24.1352 C   0  0  0  0  0  0  0  0  0  0  0  0
    8.2818   -2.4535   24.6782 H   0  0  0  0  0  0  0  0  0  0  0  0
    6.7427   -1.6085   24.7339 H   0  0  0  0  0  0  0  0  0  0  0  0
    6.6255   -3.6165   23.9628 C   0  0  0  0  0  0  0  0  0  0  0  0
    5.2275   -3.6343   23.9380 C   0  0  0  0  0  0  0  0  0  0  0  0
    4.7144   -2.6973   24.1058 H   0  0  0  0  0  0  0  0  0  0  0  0
    4.5049   -4.8042   23.7092 C   0  0  0  0  0  0  0  0  0  0  0  0
    3.4187   -4.7786   23.7111 H   0  0  0  0  0  0  0  0  0  0  0  0
    5.1917   -5.9985   23.4851 C   0  0  0  0  0  0  0  0  0  0  0  0
    4.6468   -6.9223   23.3204 H   0  0  0  0  0  0  0  0  0  0  0  0
    6.5889   -6.0050   23.4590 C   0  0  0  0  0  0  0  0  0  0  0  0
    7.1578   -6.8933   23.2135 H   0  0  0  0  0  0  0  0  0  0  0  0
    7.2892   -4.8241   23.7092 C   0  0  0  0  0  0  0  0  0  0  0  0
    9.0269   -4.8951   23.6729 Cl  0  0  0  0  0  0  0  0  0  0  0  0
    8.9251   -1.6381   22.1683 C   0  0  0  0  0  0  0  0  0  0  0  0
    9.8431   -2.0583   22.5542 H   0  0  0  0  0  0  0  0  0  0  0  0
    8.7030   -1.0048   20.9712 C   0  0  0  0  0  0  0  0  0  0  0  0
    9.3707   -0.7192   20.1664 H   0  0  0  0  0  0  0  0  0  0  0  0
    5.4375    0.6478   20.1788 C   0  0  0  0  0  0  0  0  0  0  0  0
    5.0082    0.6230   21.1829 H   0  0  0  0  0  0  0  0  0  0  0  0
    4.8159    1.3051   19.1136 C   0  0  0  0  0  0  0  0  0  0  0  0
    3.8822    1.8376   19.2607 H   0  0  0  0  0  0  0  0  0  0  0  0
  1  2  1  0
  2  3  2  0
  3  4  1  0
  4  5  1  0
  4  6  2  0
  6  7  1  0
  7  8  1  0
  8  9  2  0
  9 10  1  0
 10 11  1  0
 10 12  1  0
 10 13  1  0
 13 14  2  0
 14 15  1  0
 14 16  1  0
 16 17  1  0
 16 18  2  0
 18 19  1  0
 18 20  1  0
 20 21  1  0
 20 22  2  0
 22 23  1  0
  9 24  1  0
 24 25  1  0
 24 26  2  0
 26 27  1  0
  6 28  1  0
 28 29  1  0
 28 30  2  0
 30 31  1  0
 30  2  1  0
 26  7  1  0
 22 13  1  0
M  END
>  <cnnaffinity>  (1) 
-5.37144

>  <filename>  (1) 
Clc1ccccc1Cc1ccn(-c2cccnc2)n1

$$$$
