
     RDKit          3D

 40 42  0  0  0  0  0  0  0  0999 V2000
    5.2815    1.5640   16.9135 H   0  0  0  0  0  0  0  0  0  0  0  0
    5.6562    1.1444   17.8456 C   0  0  0  0  0  0  0  0  0  0  0  0
    6.8094    0.4692   17.7752 N   0  0  0  0  0  0  0  0  0  0  0  0
    7.3143   -0.0297   18.9173 C   0  0  0  0  0  0  0  0  0  0  0  0
    8.2466   -0.5807   18.8017 H   0  0  0  0  0  0  0  0  0  0  0  0
    6.7298    0.1151   20.1838 C   0  0  0  0  0  0  0  0  0  0  0  0
    7.2998   -0.4280   21.5109 C   0  0  1  0  0  0  0  0  0  0  0  0
    7.1367    0.3889   22.2291 H   0  0  0  0  0  0  0  0  0  0  0  0
    6.4552   -1.6360   21.9797 C   0  0  0  0  0  0  0  0  0  0  0  0
    5.4175   -1.4377   21.7124 H   0  0  0  0  0  0  0  0  0  0  0  0
    6.5100   -1.7260   23.0751 H   0  0  0  0  0  0  0  0  0  0  0  0
    6.8419   -2.9492   21.3018 C   0  0  0  0  0  0  0  0  0  0  0  0
    6.2324   -3.7670   21.7114 H   0  0  0  0  0  0  0  0  0  0  0  0
    6.5935   -2.8850   20.2320 H   0  0  0  0  0  0  0  0  0  0  0  0
    8.3343   -3.2509   21.4478 C   0  0  0  0  0  0  0  0  0  0  0  0
    8.5612   -4.1712   20.9062 H   0  0  0  0  0  0  0  0  0  0  0  0
    8.5744   -3.4502   22.5016 H   0  0  0  0  0  0  0  0  0  0  0  0
    9.2157   -2.0887   20.9516 C   0  0  0  0  0  0  0  0  0  0  0  0
    9.1773   -1.9722   19.8665 H   0  0  0  0  0  0  0  0  0  0  0  0
   10.2717   -2.2966   21.1791 H   0  0  0  0  0  0  0  0  0  0  0  0
    8.8311   -0.7280   21.5728 C   0  0  2  0  0  0  0  0  0  0  0  0
    9.3240    0.0611   20.9929 H   0  0  0  0  0  0  0  0  0  0  0  0
    9.4289   -0.6396   23.0138 C   0  0  0  0  0  0  0  0  0  0  0  0
   10.4526   -1.0361   22.9673 H   0  0  0  0  0  0  0  0  0  0  0  0
    8.8757   -1.2854   23.7145 H   0  0  0  0  0  0  0  0  0  0  0  0
    9.5410    0.7751   23.5560 C   0  0  0  0  0  0  0  0  0  0  0  0
    8.7042    1.2521   24.5825 C   0  0  0  0  0  0  0  0  0  0  0  0
    8.0030    0.5623   25.0445 H   0  0  0  0  0  0  0  0  0  0  0  0
    8.7388    2.5859   25.0127 C   0  0  0  0  0  0  0  0  0  0  0  0
    8.0564    2.9250   25.7926 H   0  0  0  0  0  0  0  0  0  0  0  0
    9.6559    3.4733   24.4428 C   0  0  0  0  0  0  0  0  0  0  0  0
    9.6920    4.5118   24.7675 H   0  0  0  0  0  0  0  0  0  0  0  0
   10.5309    3.0288   23.4473 C   0  0  0  0  0  0  0  0  0  0  0  0
   11.2646    3.6932   22.9908 H   0  0  0  0  0  0  0  0  0  0  0  0
   10.4728    1.6966   23.0280 C   0  0  0  0  0  0  0  0  0  0  0  0
   11.6238    1.2159   21.8010 Cl  0  0  0  0  0  0  0  0  0  0  0  0
    5.4782    0.7731   20.2099 C   0  0  0  0  0  0  0  0  0  0  0  0
    4.9151    0.8523   21.1404 H   0  0  0  0  0  0  0  0  0  0  0  0
    4.9426    1.3090   19.0375 C   0  0  0  0  0  0  0  0  0  0  0  0
    3.9962    1.8375   19.0282 H   0  0  0  0  0  0  0  0  0  0  0  0
  1  2  1  0
  2  3  2  0
  3  4  1  0
  4  5  1  0
  4  6  2  0
  6  7  1  0
  7  8  1  1
  7  9  1  0
  9 10  1  0
  9 11  1  0
  9 12  1  0
 12 13  1  0
 12 14  1  0
 12 15  1  0
 15 16  1  0
 15 17  1  0
 15 18  1  0
 18 19  1  0
 18 20  1  0
 18 21  1  0
 21 22  1  6
 21 23  1  0
 23 24  1  0
 23 25  1  0
 23 26  1  0
 26 27  2  0
 27 28  1  0
 27 29  1  0
 29 30  1  0
 29 31  2  0
 31 32  1  0
 31 33  1  0
 33 34  1  0
 33 35  2  0
 35 36  1  0
  6 37  1  0
 37 38  1  0
 37 39  2  0
 39 40  1  0
 39  2  1  0
 21  7  1  0
 35 26  1  0
M  END
>  <cnnaffinity>  (1) 
-5.65955

>  <filename>  (1) 
Clc1ccccc1C[C@H]1CCCC[C@@H]1c1cccnc1

$$$$
