
     RDKit          3D

 38 40  0  0  0  0  0  0  0  0999 V2000
    4.9091    1.7905   16.9841 H   0  0  0  0  0  0  0  0  0  0  0  0
    5.3948    1.3007   17.8236 C   0  0  0  0  0  0  0  0  0  0  0  0
    6.5569    0.6838   17.5563 N   0  0  0  0  0  0  0  0  0  0  0  0
    7.1728    0.0750   18.5800 C   0  0  0  0  0  0  0  0  0  0  0  0
    8.1207   -0.4202   18.3689 H   0  0  0  0  0  0  0  0  0  0  0  0
    6.6619    0.0119   19.8991 C   0  0  0  0  0  0  0  0  0  0  0  0
    7.3244   -0.6102   20.9694 N   0  0  0  0  0  0  0  0  0  0  0  0
    6.7245   -1.7704   21.6271 C   0  0  0  0  0  0  0  0  0  0  0  0
    6.9880   -2.7277   21.1408 H   0  0  0  0  0  0  0  0  0  0  0  0
    5.6363   -1.6883   21.5673 H   0  0  0  0  0  0  0  0  0  0  0  0
    7.1519   -1.8095   23.0917 C   0  0  0  0  0  0  0  0  0  0  0  0
    6.7410   -2.7033   23.5655 H   0  0  0  0  0  0  0  0  0  0  0  0
    6.7051   -0.9403   23.6089 H   0  0  0  0  0  0  0  0  0  0  0  0
    8.6234   -1.8085   23.2085 N   0  0  0  0  0  0  0  0  0  0  0  0
    9.0519   -1.9219   24.6025 C   0  0  0  0  0  0  0  0  0  0  0  0
   10.1257   -1.6932   24.6485 H   0  0  0  0  0  0  0  0  0  0  0  0
    8.5465   -1.1854   25.2491 H   0  0  0  0  0  0  0  0  0  0  0  0
    8.8525   -3.3292   25.1207 C   0  0  0  0  0  0  0  0  0  0  0  0
    9.6732   -4.3540   24.6152 C   0  0  0  0  0  0  0  0  0  0  0  0
   10.4308   -4.0956   23.8792 H   0  0  0  0  0  0  0  0  0  0  0  0
    9.5232   -5.6737   25.0358 C   0  0  0  0  0  0  0  0  0  0  0  0
   10.1748   -6.4506   24.6492 H   0  0  0  0  0  0  0  0  0  0  0  0
    8.5336   -5.9940   25.9688 C   0  0  0  0  0  0  0  0  0  0  0  0
    8.4182   -7.0150   26.3066 H   0  0  0  0  0  0  0  0  0  0  0  0
    7.6936   -5.0043   26.4768 C   0  0  0  0  0  0  0  0  0  0  0  0
    6.9160   -5.2346   27.1991 H   0  0  0  0  0  0  0  0  0  0  0  0
    7.8578   -3.6854   26.0463 C   0  0  0  0  0  0  0  0  0  0  0  0
    6.7627   -2.4926   26.6993 Cl  0  0  0  0  0  0  0  0  0  0  0  0
    9.1635   -0.6015   22.5729 C   0  0  0  0  0  0  0  0  0  0  0  0
    8.8024    0.3181   23.0717 H   0  0  0  0  0  0  0  0  0  0  0  0
   10.2549   -0.6063   22.6519 H   0  0  0  0  0  0  0  0  0  0  0  0
    8.7745   -0.5390   21.0966 C   0  0  0  0  0  0  0  0  0  0  0  0
    9.3085   -1.3343   20.5451 H   0  0  0  0  0  0  0  0  0  0  0  0
    9.1026    0.4177   20.6830 H   0  0  0  0  0  0  0  0  0  0  0  0
    5.4300    0.6428   20.1437 C   0  0  0  0  0  0  0  0  0  0  0  0
    5.0303    0.6175   21.1623 H   0  0  0  0  0  0  0  0  0  0  0  0
    4.8023    1.3146   19.0944 C   0  0  0  0  0  0  0  0  0  0  0  0
    3.8707    1.8434   19.2573 H   0  0  0  0  0  0  0  0  0  0  0  0
  1  2  1  0
  2  3  2  0
  3  4  1  0
  4  5  1  0
  4  6  2  0
  6  7  1  0
  7  8  1  0
  8  9  1  0
  8 10  1  0
  8 11  1  0
 11 12  1  0
 11 13  1  0
 11 14  1  0
 14 15  1  0
 15 16  1  0
 15 17  1  0
 15 18  1  0
 18 19  2  0
 19 20  1  0
 19 21  1  0
 21 22  1  0
 21 23  2  0
 23 24  1  0
 23 25  1  0
 25 26  1  0
 25 27  2  0
 27 28  1  0
 14 29  1  0
 29 30  1  0
 29 31  1  0
 29 32  1  0
 32 33  1  0
 32 34  1  0
  6 35  1  0
 35 36  1  0
 35 37  2  0
 37 38  1  0
 37  2  1  0
 32  7  1  0
 27 18  1  0
M  END
>  <cnnaffinity>  (1) 
-5.15221

>  <filename>  (1) 
Clc1ccccc1CN1CCN(c2cccnc2)CC1

$$$$
