
     RDKit          3D

 43 46  0  0  0  0  0  0  0  0999 V2000
    8.2057    2.7322   22.1249 Cl  0  0  0  0  0  0  0  0  0  0  0  0
    9.7944    2.1910   22.5600 C   0  0  0  0  0  0  0  0  0  0  0  0
   10.3572    2.8233   23.5753 N   0  0  0  0  0  0  0  0  0  0  0  0
   11.5681    2.3969   23.9493 C   0  0  0  0  0  0  0  0  0  0  0  0
   12.2396    1.3326   23.3537 C   0  0  0  0  0  0  0  0  0  0  0  0
   11.6175    0.6768   22.2900 C   0  0  0  0  0  0  0  0  0  0  0  0
   10.3672    1.1125   21.8507 C   0  0  0  0  0  0  0  0  0  0  0  0
    9.6271    0.3386   20.7805 C   0  0  0  0  0  0  0  0  0  0  0  0
    8.6130   -0.5969   21.3434 C   0  0  0  0  0  0  0  0  0  0  0  0
    8.8513   -1.4543   22.3123 N   0  0  0  0  0  0  0  0  0  0  0  0
    7.6338   -2.0241   22.5181 C   0  0  0  0  0  0  0  0  0  0  0  0
    7.4118   -3.0320   23.6068 C   0  0  0  0  0  0  0  0  0  0  0  0
    8.3282   -4.2694   23.4481 C   0  0  0  0  0  0  0  0  0  0  0  0
    8.1642   -5.2113   24.6411 C   0  0  0  0  0  0  0  0  0  0  0  0
    8.4076   -4.5470   25.8695 O   0  0  0  0  0  0  0  0  0  0  0  0
    7.4928   -3.4875   26.0934 C   0  0  0  0  0  0  0  0  0  0  0  0
    7.6024   -2.4104   25.0144 C   0  0  0  0  0  0  0  0  0  0  0  0
    6.8550   -1.6279   25.1973 H   0  0  0  0  0  0  0  0  0  0  0  0
    8.5939   -1.9425   25.0739 H   0  0  0  0  0  0  0  0  0  0  0  0
    6.4634   -3.8889   26.1218 H   0  0  0  0  0  0  0  0  0  0  0  0
    7.7182   -3.0783   27.0818 H   0  0  0  0  0  0  0  0  0  0  0  0
    7.1443   -5.6370   24.6486 H   0  0  0  0  0  0  0  0  0  0  0  0
    8.8722   -6.0423   24.5858 H   0  0  0  0  0  0  0  0  0  0  0  0
    8.0964   -4.8050   22.5194 H   0  0  0  0  0  0  0  0  0  0  0  0
    9.3748   -3.9437   23.3919 H   0  0  0  0  0  0  0  0  0  0  0  0
    6.3672   -3.3463   23.5025 H   0  0  0  0  0  0  0  0  0  0  0  0
    6.6808   -1.5983   21.7176 N   0  0  0  0  0  0  0  0  0  0  0  0
    7.3224   -0.6976   20.9271 N   0  0  0  0  0  0  0  0  0  0  0  0
    6.6455    0.0010   19.8964 C   0  0  0  0  0  0  0  0  0  0  0  0
    5.4345    0.6464   20.1633 C   0  0  0  0  0  0  0  0  0  0  0  0
    4.8106    1.3142   19.1087 C   0  0  0  0  0  0  0  0  0  0  0  0
    5.3993    1.2957   17.8380 C   0  0  0  0  0  0  0  0  0  0  0  0
    6.5575    0.6714   17.5764 N   0  0  0  0  0  0  0  0  0  0  0  0
    7.1657    0.0498   18.5901 C   0  0  0  0  0  0  0  0  0  0  0  0
    8.1149   -0.4319   18.3650 H   0  0  0  0  0  0  0  0  0  0  0  0
    4.9180    1.7837   16.9945 H   0  0  0  0  0  0  0  0  0  0  0  0
    3.8792    1.8424   19.2610 H   0  0  0  0  0  0  0  0  0  0  0  0
    5.0163    0.6088   21.1725 H   0  0  0  0  0  0  0  0  0  0  0  0
    9.1636    1.0333   20.0773 H   0  0  0  0  0  0  0  0  0  0  0  0
   10.3120   -0.3190   20.2426 H   0  0  0  0  0  0  0  0  0  0  0  0
   12.0869   -0.1809   21.8064 H   0  0  0  0  0  0  0  0  0  0  0  0
   13.2153    1.0283   23.7045 H   0  0  0  0  0  0  0  0  0  0  0  0
   12.0108    2.9453   24.7720 H   0  0  0  0  0  0  0  0  0  0  0  0
  1  2  1  0
  2  3  2  0
  3  4  1  0
  4  5  2  0
  5  6  1  0
  6  7  2  0
  7  8  1  0
  8  9  1  0
  9 10  2  0
 10 11  1  0
 11 12  1  0
 12 13  1  0
 13 14  1  0
 14 15  1  0
 15 16  1  0
 16 17  1  0
 17 18  1  0
 17 19  1  0
 16 20  1  0
 16 21  1  0
 14 22  1  0
 14 23  1  0
 13 24  1  0
 13 25  1  0
 12 26  1  0
 11 27  2  0
 27 28  1  0
 28 29  1  0
 29 30  2  0
 30 31  1  0
 31 32  2  0
 32 33  1  0
 33 34  2  0
 34 35  1  0
 32 36  1  0
 31 37  1  0
 30 38  1  0
  8 39  1  0
  8 40  1  0
  6 41  1  0
  5 42  1  0
  4 43  1  0
  7  2  1  0
 28  9  1  0
 34 29  1  0
 17 12  1  0
M  END
>  <cnnaffinity>  (1) 
-6.21432

>  <filename>  (1) 
Clc1ncccc1Cc1nc(C2CCOCC2)nn1-c1cccnc1

$$$$
