
     RDKit          3D

 41 44  0  0  0  0  0  0  0  0999 V2000
   11.6205    2.4814   23.1550 Cl  0  0  0  0  0  0  0  0  0  0  0  0
   10.0220    2.2061   23.8020 C   0  0  0  0  0  0  0  0  0  0  0  0
    9.9003    2.1137   25.1891 C   0  0  0  0  0  0  0  0  0  0  0  0
    8.6506    1.9105   25.7706 C   0  0  0  0  0  0  0  0  0  0  0  0
    7.5314    1.7321   24.9531 C   0  0  0  0  0  0  0  0  0  0  0  0
    7.6754    1.7983   23.5659 C   0  0  0  0  0  0  0  0  0  0  0  0
    8.9144    2.0604   22.9523 C   0  0  0  0  0  0  0  0  0  0  0  0
    9.0505    2.0083   21.4458 C   0  0  0  0  0  0  0  0  0  0  0  0
    9.5261    0.6100   20.9491 C   0  0  0  0  0  0  0  0  0  0  0  0
    8.6471   -0.5098   21.4084 C   0  0  0  0  0  0  0  0  0  0  0  0
    8.8672   -1.3302   22.4245 N   0  0  0  0  0  0  0  0  0  0  0  0
    7.6609   -1.9243   22.5993 C   0  0  0  0  0  0  0  0  0  0  0  0
    7.3748   -2.8149   23.7642 C   0  0  0  0  0  0  0  0  0  0  0  0
    6.4781   -4.0383   23.4461 C   0  0  0  0  0  0  0  0  0  0  0  0
    5.1862   -3.4705   24.6045 S   0  0  0  0  0  0  0  0  0  0  0  0
    6.4430   -2.1681   24.8370 C   0  0  0  0  0  0  0  0  0  0  0  0
    6.8573   -2.1414   25.8504 H   0  0  0  0  0  0  0  0  0  0  0  0
    6.0765   -1.1690   24.5780 H   0  0  0  0  0  0  0  0  0  0  0  0
    6.1263   -4.0791   22.4098 H   0  0  0  0  0  0  0  0  0  0  0  0
    6.9079   -5.0039   23.7303 H   0  0  0  0  0  0  0  0  0  0  0  0
    8.3437   -3.0908   24.1763 H   0  0  0  0  0  0  0  0  0  0  0  0
    6.7342   -1.5743   21.7312 N   0  0  0  0  0  0  0  0  0  0  0  0
    7.3723   -0.6733   20.9409 N   0  0  0  0  0  0  0  0  0  0  0  0
    6.6614    0.0009   19.9049 C   0  0  0  0  0  0  0  0  0  0  0  0
    5.4442    0.6400   20.1685 C   0  0  0  0  0  0  0  0  0  0  0  0
    4.8152    1.3085   19.1121 C   0  0  0  0  0  0  0  0  0  0  0  0
    5.4002    1.2959   17.8390 C   0  0  0  0  0  0  0  0  0  0  0  0
    6.5585    0.6711   17.5775 N   0  0  0  0  0  0  0  0  0  0  0  0
    7.1672    0.0494   18.5939 C   0  0  0  0  0  0  0  0  0  0  0  0
    8.1124   -0.4353   18.3664 H   0  0  0  0  0  0  0  0  0  0  0  0
    4.9210    1.7871   16.9941 H   0  0  0  0  0  0  0  0  0  0  0  0
    3.8823    1.8376   19.2624 H   0  0  0  0  0  0  0  0  0  0  0  0
    5.0147    0.6073   21.1748 H   0  0  0  0  0  0  0  0  0  0  0  0
    9.5750    0.6178   19.8576 H   0  0  0  0  0  0  0  0  0  0  0  0
   10.5308    0.3962   21.3178 H   0  0  0  0  0  0  0  0  0  0  0  0
    9.7638    2.7684   21.1091 H   0  0  0  0  0  0  0  0  0  0  0  0
    8.0825    2.2476   20.9879 H   0  0  0  0  0  0  0  0  0  0  0  0
    6.8193    1.6144   22.9241 H   0  0  0  0  0  0  0  0  0  0  0  0
    6.5591    1.5281   25.3950 H   0  0  0  0  0  0  0  0  0  0  0  0
    8.5649    1.8732   26.8543 H   0  0  0  0  0  0  0  0  0  0  0  0
   10.8008    2.1315   25.7837 H   0  0  0  0  0  0  0  0  0  0  0  0
  1  2  1  0
  2  3  2  0
  3  4  1  0
  4  5  2  0
  5  6  1  0
  6  7  2  0
  7  8  1  0
  8  9  1  0
  9 10  1  0
 10 11  2  0
 11 12  1  0
 12 13  1  0
 13 14  1  0
 14 15  1  0
 15 16  1  0
 16 17  1  0
 16 18  1  0
 14 19  1  0
 14 20  1  0
 13 21  1  0
 12 22  2  0
 22 23  1  0
 23 24  1  0
 24 25  2  0
 25 26  1  0
 26 27  2  0
 27 28  1  0
 28 29  2  0
 29 30  1  0
 27 31  1  0
 26 32  1  0
 25 33  1  0
  9 34  1  0
  9 35  1  0
  8 36  1  0
  8 37  1  0
  6 38  1  0
  5 39  1  0
  4 40  1  0
  3 41  1  0
  7  2  1  0
 23 10  1  0
 29 24  1  0
 16 13  1  0
M  END
>  <cnnaffinity>  (1) 
-6.005

>  <filename>  (1) 
Clc1ccccc1CCc1nc(C2CSC2)nn1-c1cccnc1

$$$$
