
     RDKit          3D

 31 33  0  0  0  0  0  0  0  0999 V2000
    4.9129    1.7938   16.9816 H   0  0  0  0  0  0  0  0  0  0  0  0
    5.3938    1.3026   17.8214 C   0  0  0  0  0  0  0  0  0  0  0  0
    6.5514    0.6773   17.5489 N   0  0  0  0  0  0  0  0  0  0  0  0
    7.1626    0.0771   18.5768 C   0  0  0  0  0  0  0  0  0  0  0  0
    8.1055   -0.4268   18.3627 H   0  0  0  0  0  0  0  0  0  0  0  0
    6.6562    0.0414   19.8889 C   0  0  0  0  0  0  0  0  0  0  0  0
    7.2983   -0.7049   20.9716 C   0  0  0  0  0  0  0  0  0  0  0  0
    6.7520   -1.6557   21.7969 C   0  0  0  0  0  0  0  0  0  0  0  0
    5.7221   -1.9836   21.7691 H   0  0  0  0  0  0  0  0  0  0  0  0
    7.8246   -2.0914   22.5946 C   0  0  0  0  0  0  0  0  0  0  0  0
    7.8165   -2.8262   23.3876 H   0  0  0  0  0  0  0  0  0  0  0  0
    8.9531   -1.4663   22.2868 N   0  0  0  0  0  0  0  0  0  0  0  0
    8.6109   -0.6013   21.3194 N   0  0  0  0  0  0  0  0  0  0  0  0
    9.6195    0.2917   20.7807 C   0  0  0  0  0  0  0  0  0  0  0  0
    9.1280    0.9921   20.1084 H   0  0  0  0  0  0  0  0  0  0  0  0
   10.2935   -0.3615   20.2326 H   0  0  0  0  0  0  0  0  0  0  0  0
   10.3696    1.0641   21.8376 C   0  0  0  0  0  0  0  0  0  0  0  0
   11.6689    0.6794   22.1951 C   0  0  0  0  0  0  0  0  0  0  0  0
   12.1309   -0.1530   21.6680 H   0  0  0  0  0  0  0  0  0  0  0  0
   12.3525    1.3116   23.2357 C   0  0  0  0  0  0  0  0  0  0  0  0
   13.3568    0.9948   23.5074 H   0  0  0  0  0  0  0  0  0  0  0  0
   11.7227    2.3499   23.9236 C   0  0  0  0  0  0  0  0  0  0  0  0
   12.2134    2.8544   24.7371 H   0  0  0  0  0  0  0  0  0  0  0  0
   10.4339    2.7626   23.5888 C   0  0  0  0  0  0  0  0  0  0  0  0
    9.9399    3.5704   24.1220 H   0  0  0  0  0  0  0  0  0  0  0  0
    9.7707    2.1167   22.5449 C   0  0  0  0  0  0  0  0  0  0  0  0
    8.1510    2.6361   22.1720 Cl  0  0  0  0  0  0  0  0  0  0  0  0
    5.4278    0.6649   20.1421 C   0  0  0  0  0  0  0  0  0  0  0  0
    5.0118    0.6308   21.1546 H   0  0  0  0  0  0  0  0  0  0  0  0
    4.7986    1.3243   19.0883 C   0  0  0  0  0  0  0  0  0  0  0  0
    3.8671    1.8499   19.2468 H   0  0  0  0  0  0  0  0  0  0  0  0
  1  2  1  0
  2  3  2  0
  3  4  1  0
  4  5  1  0
  4  6  2  0
  6  7  1  0
  7  8  2  0
  8  9  1  0
  8 10  1  0
 10 11  1  0
 10 12  2  0
 12 13  1  0
 13 14  1  0
 14 15  1  0
 14 16  1  0
 14 17  1  0
 17 18  2  0
 18 19  1  0
 18 20  1  0
 20 21  1  0
 20 22  2  0
 22 23  1  0
 22 24  1  0
 24 25  1  0
 24 26  2  0
 26 27  1  0
  6 28  1  0
 28 29  1  0
 28 30  2  0
 30 31  1  0
 30  2  1  0
 13  7  1  0
 26 17  1  0
M  END
>  <cnnaffinity>  (1) 
-5.38168

>  <filename>  (1) 
Clc1ccccc1Cn1nccc1-c1cccnc1

$$$$
