
     RDKit          3D

 38 41  0  0  0  0  0  0  0  0999 V2000
   11.9462    3.0881   24.1054 Cl  0  0  0  0  0  0  0  0  0  0  0  0
   10.3876    2.3939   24.2754 C   0  0  0  0  0  0  0  0  0  0  0  0
    9.4978    2.2084   23.2656 C   0  0  0  0  0  0  0  0  0  0  0  0
    8.2718    1.6448   23.7356 C   0  0  0  0  0  0  0  0  0  0  0  0
    7.1726    1.1920   22.8051 C   0  0  0  0  0  0  0  0  0  0  0  0
    7.4838   -0.1526   22.2214 C   0  0  0  0  0  0  0  0  0  0  0  0
    8.0099   -1.1229   22.9307 N   0  0  0  0  0  0  0  0  0  0  0  0
    8.2320   -2.1017   22.0303 C   0  0  0  0  0  0  0  0  0  0  0  0
    8.8681   -3.3546   22.5147 C   0  0  0  0  0  0  0  0  0  0  0  0
    8.0919   -4.0892   23.6251 C   0  0  0  0  0  0  0  0  0  0  0  0
    9.2007   -4.8112   24.3940 C   0  0  0  0  0  0  0  0  0  0  0  0
   10.3940   -4.0754   24.1819 O   0  0  0  0  0  0  0  0  0  0  0  0
   10.2083   -3.0550   23.2235 C   0  0  0  0  0  0  0  0  0  0  0  0
   10.1645   -2.0765   23.7324 H   0  0  0  0  0  0  0  0  0  0  0  0
   11.0676   -3.0462   22.5437 H   0  0  0  0  0  0  0  0  0  0  0  0
    8.9842   -4.8496   25.4669 H   0  0  0  0  0  0  0  0  0  0  0  0
    9.3585   -5.8443   24.0560 H   0  0  0  0  0  0  0  0  0  0  0  0
    7.3305   -4.7749   23.2382 H   0  0  0  0  0  0  0  0  0  0  0  0
    7.6079   -3.3353   24.2615 H   0  0  0  0  0  0  0  0  0  0  0  0
    8.9812   -4.0059   21.6542 H   0  0  0  0  0  0  0  0  0  0  0  0
    7.8738   -1.8208   20.7946 N   0  0  0  0  0  0  0  0  0  0  0  0
    7.3299   -0.5733   20.9286 N   0  0  0  0  0  0  0  0  0  0  0  0
    6.6223    0.0413   19.8664 C   0  0  0  0  0  0  0  0  0  0  0  0
    5.4007    0.6890   20.0933 C   0  0  0  0  0  0  0  0  0  0  0  0
    4.7950    1.3349   19.0151 C   0  0  0  0  0  0  0  0  0  0  0  0
    5.4184    1.3082   17.7647 C   0  0  0  0  0  0  0  0  0  0  0  0
    6.5643    0.6415   17.5337 N   0  0  0  0  0  0  0  0  0  0  0  0
    7.1392    0.0089   18.5599 C   0  0  0  0  0  0  0  0  0  0  0  0
    8.0554   -0.5385   18.3505 H   0  0  0  0  0  0  0  0  0  0  0  0
    4.9822    1.8326   16.9182 H   0  0  0  0  0  0  0  0  0  0  0  0
    3.8609    1.8673   19.1427 H   0  0  0  0  0  0  0  0  0  0  0  0
    4.9356    0.6775   21.0810 H   0  0  0  0  0  0  0  0  0  0  0  0
    6.2243    1.1175   23.3500 H   0  0  0  0  0  0  0  0  0  0  0  0
    7.0237    1.9318   22.0168 H   0  0  0  0  0  0  0  0  0  0  0  0
    8.2970    1.4192   25.0736 C   0  0  0  0  0  0  0  0  0  0  0  0
    9.7846    1.8672   25.8081 S   0  0  0  0  0  0  0  0  0  0  0  0
    7.5269    0.9497   25.6669 H   0  0  0  0  0  0  0  0  0  0  0  0
    9.7213    2.4284   22.2289 H   0  0  0  0  0  0  0  0  0  0  0  0
  1  2  1  0
  2  3  2  0
  3  4  1  0
  4  5  1  0
  5  6  1  0
  6  7  2  0
  7  8  1  0
  8  9  1  0
  9 10  1  0
 10 11  1  0
 11 12  1  0
 12 13  1  0
 13 14  1  0
 13 15  1  0
 11 16  1  0
 11 17  1  0
 10 18  1  0
 10 19  1  0
  9 20  1  0
  8 21  2  0
 21 22  1  0
 22 23  1  0
 23 24  2  0
 24 25  1  0
 25 26  2  0
 26 27  1  0
 27 28  2  0
 28 29  1  0
 26 30  1  0
 25 31  1  0
 24 32  1  0
  5 33  1  0
  5 34  1  0
  4 35  2  0
 35 36  1  0
 35 37  1  0
  3 38  1  0
 36  2  1  0
 22  6  1  0
 28 23  1  0
 13  9  1  0
M  END
>  <cnnaffinity>  (1) 
-6.09165

>  <filename>  (1) 
Clc1cc(Cc2nc(C3CCOC3)nn2-c2cccnc2)cs1

$$$$
