
     RDKit          3D

 35 37  0  0  0  0  0  0  0  0999 V2000
    8.5188   -0.4029   21.0559 H   0  0  0  0  0  0  0  0  0  0  0  0
    7.4714   -0.6853   20.9212 C   0  0  0  0  0  0  0  0  0  0  0  0
    6.9898   -1.7340   21.6063 C   0  0  0  0  0  0  0  0  0  0  0  0
    7.6068   -2.4626   22.7281 C   0  0  0  0  0  0  0  0  0  0  0  0
    8.9813   -2.1163   23.2569 C   0  0  0  0  0  0  0  0  0  0  0  0
    9.6962   -2.1008   22.4309 H   0  0  0  0  0  0  0  0  0  0  0  0
    9.2727   -2.9462   23.9100 H   0  0  0  0  0  0  0  0  0  0  0  0
    8.9979   -0.8121   24.0323 C   0  0  0  0  0  0  0  0  0  0  0  0
    8.1438   -0.6912   25.1442 C   0  0  0  0  0  0  0  0  0  0  0  0
    7.5026   -1.5325   25.3931 H   0  0  0  0  0  0  0  0  0  0  0  0
    8.1049    0.4685   25.9185 C   0  0  0  0  0  0  0  0  0  0  0  0
    7.4366    0.5310   26.7742 H   0  0  0  0  0  0  0  0  0  0  0  0
    8.9258    1.5516   25.5908 C   0  0  0  0  0  0  0  0  0  0  0  0
    8.8952    2.4593   26.1891 H   0  0  0  0  0  0  0  0  0  0  0  0
    9.7821    1.4654   24.4909 C   0  0  0  0  0  0  0  0  0  0  0  0
   10.4269    2.2918   24.2094 H   0  0  0  0  0  0  0  0  0  0  0  0
    9.8098    0.2932   23.7264 C   0  0  0  0  0  0  0  0  0  0  0  0
   10.9018    0.2639   22.3592 Cl  0  0  0  0  0  0  0  0  0  0  0  0
    6.8911   -3.3977   23.2239 N   0  0  0  0  0  0  0  0  0  0  0  0
    5.6141   -3.4739   22.4891 C   0  0  0  0  0  0  0  0  0  0  0  0
    5.4783   -4.4894   22.1091 H   0  0  0  0  0  0  0  0  0  0  0  0
    4.7900   -3.2860   23.1894 H   0  0  0  0  0  0  0  0  0  0  0  0
    5.6824   -2.4324   21.3452 C   0  0  0  0  0  0  0  0  0  0  0  0
    4.9006   -1.6841   21.3921 H   0  0  0  0  0  0  0  0  0  0  0  0
    5.6767   -2.8953   20.3532 H   0  0  0  0  0  0  0  0  0  0  0  0
    6.7082    0.0641   19.8869 C   0  0  0  0  0  0  0  0  0  0  0  0
    7.2022    0.1127   18.5687 C   0  0  0  0  0  0  0  0  0  0  0  0
    8.1477   -0.3764   18.3348 H   0  0  0  0  0  0  0  0  0  0  0  0
    6.5743    0.6980   17.5427 N   0  0  0  0  0  0  0  0  0  0  0  0
    5.4065    1.3061   17.8106 C   0  0  0  0  0  0  0  0  0  0  0  0
    4.9228    1.7952   16.9701 H   0  0  0  0  0  0  0  0  0  0  0  0
    4.8163    1.3338   19.0773 C   0  0  0  0  0  0  0  0  0  0  0  0
    3.8669    1.8395   19.2253 H   0  0  0  0  0  0  0  0  0  0  0  0
    5.4765    0.6984   20.1331 C   0  0  0  0  0  0  0  0  0  0  0  0
    5.0546    0.6933   21.1403 H   0  0  0  0  0  0  0  0  0  0  0  0
  1  2  1  0
  2  3  2  3
  3  4  1  0
  4  5  1  0
  5  6  1  0
  5  7  1  0
  5  8  1  0
  8  9  2  0
  9 10  1  0
  9 11  1  0
 11 12  1  0
 11 13  2  0
 13 14  1  0
 13 15  1  0
 15 16  1  0
 15 17  2  0
 17 18  1  0
  4 19  2  0
 19 20  1  0
 20 21  1  0
 20 22  1  0
 20 23  1  0
 23 24  1  0
 23 25  1  0
  2 26  1  0
 26 27  2  0
 27 28  1  0
 27 29  1  0
 29 30  2  0
 30 31  1  0
 30 32  1  0
 32 33  1  0
 32 34  2  0
 34 35  1  0
 23  3  1  0
 34 26  1  0
 17  8  1  0
M  END
>  <cnnaffinity>  (1) 
-5.34455

>  <filename>  (1) 
Clc1ccccc1CC1=NCCC1=Cc1cccnc1

$$$$
