
     RDKit          3D

 36 38  0  0  0  0  0  0  0  0999 V2000
    5.1328    1.6880   17.0287 H   0  0  0  0  0  0  0  0  0  0  0  0
    5.5159    1.1175   17.8704 C   0  0  0  0  0  0  0  0  0  0  0  0
    6.6229    0.3956   17.6423 N   0  0  0  0  0  0  0  0  0  0  0  0
    7.1394   -0.2745   18.6810 C   0  0  0  0  0  0  0  0  0  0  0  0
    8.0315   -0.8588   18.4536 H   0  0  0  0  0  0  0  0  0  0  0  0
    6.6238   -0.2480   19.9943 C   0  0  0  0  0  0  0  0  0  0  0  0
    7.3125   -0.9652   21.1628 C   0  0  2  0  0  0  0  0  0  0  0  0
    6.6016   -2.3521   21.2971 C   0  0  0  0  0  0  0  0  0  0  0  0
    5.5247   -2.1475   21.3937 H   0  0  0  0  0  0  0  0  0  0  0  0
    6.7315   -2.8710   20.3410 H   0  0  0  0  0  0  0  0  0  0  0  0
    6.9855   -3.2570   22.4462 C   0  0  0  0  0  0  0  0  0  0  0  0
    6.6639   -2.8842   23.7618 C   0  0  0  0  0  0  0  0  0  0  0  0
    6.1001   -1.9760   23.9390 H   0  0  0  0  0  0  0  0  0  0  0  0
    7.0408   -3.6496   24.8620 C   0  0  0  0  0  0  0  0  0  0  0  0
    6.8396   -3.2791   25.8604 H   0  0  0  0  0  0  0  0  0  0  0  0
    7.6777   -4.8742   24.6862 C   0  0  0  0  0  0  0  0  0  0  0  0
    7.9306   -5.5105   25.5290 H   0  0  0  0  0  0  0  0  0  0  0  0
    7.9571   -5.3019   23.3873 C   0  0  0  0  0  0  0  0  0  0  0  0
    8.7685   -6.8086   23.1678 Cl  0  0  0  0  0  0  0  0  0  0  0  0
    7.5963   -4.5157   22.2775 C   0  0  0  0  0  0  0  0  0  0  0  0
    7.8945   -5.1527   20.6971 Cl  0  0  0  0  0  0  0  0  0  0  0  0
    7.3013   -0.1295   22.4846 C   0  0  0  0  0  0  0  0  0  0  0  0
    6.3819   -0.2589   23.0678 H   0  0  0  0  0  0  0  0  0  0  0  0
    7.3319    0.9434   22.2320 H   0  0  0  0  0  0  0  0  0  0  0  0
    8.5062   -0.4796   23.2471 N   0  0  0  0  0  0  0  0  0  0  0  0
    8.2960   -1.0318   24.0716 H   0  0  0  0  0  0  0  0  0  0  0  0
    9.4554   -1.1757   22.3669 C   0  0  0  0  0  0  0  0  0  0  0  0
    9.6031   -2.2283   22.6572 H   0  0  0  0  0  0  0  0  0  0  0  0
   10.4406   -0.6848   22.3951 H   0  0  0  0  0  0  0  0  0  0  0  0
    8.8443   -1.0812   20.9643 C   0  0  0  0  0  0  0  0  0  0  0  0
    9.1968   -0.1551   20.4867 H   0  0  0  0  0  0  0  0  0  0  0  0
    9.1222   -1.9216   20.3188 H   0  0  0  0  0  0  0  0  0  0  0  0
    5.4023    0.4217   20.1731 C   0  0  0  0  0  0  0  0  0  0  0  0
    4.8889    0.3845   21.1386 H   0  0  0  0  0  0  0  0  0  0  0  0
    4.8589    1.1383   19.1065 C   0  0  0  0  0  0  0  0  0  0  0  0
    3.9539    1.7230   19.2241 H   0  0  0  0  0  0  0  0  0  0  0  0
  1  2  1  0
  2  3  2  0
  3  4  1  0
  4  5  1  0
  4  6  2  0
  6  7  1  0
  7  8  1  1
  8  9  1  0
  8 10  1  0
  8 11  1  0
 11 12  2  0
 12 13  1  0
 12 14  1  0
 14 15  1  0
 14 16  2  0
 16 17  1  0
 16 18  1  0
 18 19  1  0
 18 20  2  0
 20 21  1  0
  7 22  1  0
 22 23  1  0
 22 24  1  0
 22 25  1  0
 25 26  1  0
 25 27  1  0
 27 28  1  0
 27 29  1  0
 27 30  1  0
 30 31  1  0
 30 32  1  0
  6 33  1  0
 33 34  1  0
 33 35  2  0
 35 36  1  0
 35  2  1  0
 30  7  1  0
 20 11  1  0
M  END
>  <cnnaffinity>  (1) 
-5.26203

>  <filename>  (1) 
Clc1cccc(C[C@]2(c3cccnc3)CCNC2)c1Cl

$$$$
