
     RDKit          3D

 35 38  0  0  0  0  0  0  0  0999 V2000
    4.9575    1.8251   16.9492 H   0  0  0  0  0  0  0  0  0  0  0  0
    5.4035    1.2774   17.7796 C   0  0  0  0  0  0  0  0  0  0  0  0
    6.5521    0.6306   17.5279 N   0  0  0  0  0  0  0  0  0  0  0  0
    7.1554    0.0133   18.5491 C   0  0  0  0  0  0  0  0  0  0  0  0
    8.0946   -0.4814   18.3212 H   0  0  0  0  0  0  0  0  0  0  0  0
    6.6625    0.0109   19.8672 C   0  0  0  0  0  0  0  0  0  0  0  0
    7.4247   -0.5351   20.9193 N   0  0  0  0  0  0  0  0  0  0  0  0
    8.3389   -1.5896   20.8578 C   0  0  0  0  0  0  0  0  0  0  0  0
    8.6626   -1.9665   19.9095 H   0  0  0  0  0  0  0  0  0  0  0  0
    8.8378   -1.8297   22.0899 C   0  0  0  0  0  0  0  0  0  0  0  0
    9.5043   -2.5661   22.5071 H   0  0  0  0  0  0  0  0  0  0  0  0
    8.2820   -0.8651   22.9135 N   0  0  0  0  0  0  0  0  0  0  0  0
    8.6837   -0.3439   24.0940 N   0  0  0  0  0  0  0  0  0  0  0  0
    8.0652    0.8346   24.1297 C   0  0  0  0  0  0  0  0  0  0  0  0
    8.5058    1.8625   25.1401 C   0  0  0  0  0  0  0  0  0  0  0  0
    7.6511    2.4950   25.3946 H   0  0  0  0  0  0  0  0  0  0  0  0
    8.8434    1.3649   26.0584 H   0  0  0  0  0  0  0  0  0  0  0  0
    9.6234    2.7148   24.5416 C   0  0  0  0  0  0  0  0  0  0  0  0
   10.9463    2.2494   24.5761 C   0  0  0  0  0  0  0  0  0  0  0  0
   11.1692    1.3041   25.0699 H   0  0  0  0  0  0  0  0  0  0  0  0
   11.9648    2.9648   23.9438 C   0  0  0  0  0  0  0  0  0  0  0  0
   12.9819    2.5820   23.9260 H   0  0  0  0  0  0  0  0  0  0  0  0
   11.6813    4.1849   23.3142 C   0  0  0  0  0  0  0  0  0  0  0  0
   12.9891    5.0750   22.6097 Cl  0  0  0  0  0  0  0  0  0  0  0  0
   10.3585    4.6598   23.2698 C   0  0  0  0  0  0  0  0  0  0  0  0
    9.9707    6.2013   22.5710 Cl  0  0  0  0  0  0  0  0  0  0  0  0
    9.3341    3.8923   23.8375 C   0  0  0  0  0  0  0  0  0  0  0  0
    8.3076    4.2324   23.7096 H   0  0  0  0  0  0  0  0  0  0  0  0
    7.2177    1.0614   23.0198 C   0  0  0  0  0  0  0  0  0  0  0  0
    6.6016    1.9302   22.8605 H   0  0  0  0  0  0  0  0  0  0  0  0
    7.4523   -0.0572   22.2210 C   0  0  0  0  0  0  0  0  0  0  0  0
    5.4215    0.6202   20.1056 C   0  0  0  0  0  0  0  0  0  0  0  0
    4.9800    0.5891   21.1043 H   0  0  0  0  0  0  0  0  0  0  0  0
    4.7951    1.2752   19.0417 C   0  0  0  0  0  0  0  0  0  0  0  0
    3.8632    1.8058   19.1869 H   0  0  0  0  0  0  0  0  0  0  0  0
  1  2  1  0
  2  3  2  0
  3  4  1  0
  4  5  1  0
  4  6  2  0
  6  7  1  0
  7  8  1  0
  8  9  1  0
  8 10  2  0
 10 11  1  0
 10 12  1  0
 12 13  1  0
 13 14  2  0
 14 15  1  0
 15 16  1  0
 15 17  1  0
 15 18  1  0
 18 19  2  0
 19 20  1  0
 19 21  1  0
 21 22  1  0
 21 23  2  0
 23 24  1  0
 23 25  1  0
 25 26  1  0
 25 27  2  0
 27 28  1  0
 14 29  1  0
 29 30  1  0
 29 31  2  0
  6 32  1  0
 32 33  1  0
 32 34  2  0
 34 35  1  0
 34  2  1  0
 31  7  1  0
 31 12  1  0
 27 18  1  0
M  END
>  <cnnaffinity>  (1) 
-5.86808

>  <filename>  (1) 
Clc1ccc(Cc2cc3n(-c4cccnc4)ccn3n2)cc1Cl

$$$$
