
     RDKit          3D

 29 32  0  0  0  0  0  0  0  0999 V2000
    4.9171    1.7762   17.0015 H   0  0  0  0  0  0  0  0  0  0  0  0
    5.4048    1.2899   17.8422 C   0  0  0  0  0  0  0  0  0  0  0  0
    6.5698    0.6777   17.5756 N   0  0  0  0  0  0  0  0  0  0  0  0
    7.1744    0.0574   18.5894 C   0  0  0  0  0  0  0  0  0  0  0  0
    8.1236   -0.4341   18.3732 H   0  0  0  0  0  0  0  0  0  0  0  0
    6.6487    0.0129   19.8912 C   0  0  0  0  0  0  0  0  0  0  0  0
    7.4046   -0.7030   20.9153 C   0  0  0  0  0  0  0  0  0  0  0  0
    8.3242   -1.6107   20.6958 N   0  0  0  0  0  0  0  0  0  0  0  0
    8.8115   -2.0606   21.9013 N   0  0  0  0  0  0  0  0  0  0  0  0
    8.1737   -1.3856   22.8177 C   0  0  0  0  0  0  0  0  0  0  0  0
    8.1871   -1.2002   24.5450 S   0  0  0  0  0  0  0  0  0  0  0  0
    6.9756    0.0778   24.3349 C   0  0  0  0  0  0  0  0  0  0  0  0
    6.3625    0.7795   25.4890 C   0  0  0  0  0  0  0  0  0  0  0  0
    4.9704    0.9815   25.4781 C   0  0  0  0  0  0  0  0  0  0  0  0
    4.4003    0.6482   24.6168 H   0  0  0  0  0  0  0  0  0  0  0  0
    4.3301    1.6099   26.5417 C   0  0  0  0  0  0  0  0  0  0  0  0
    3.2583    1.7680   26.5053 H   0  0  0  0  0  0  0  0  0  0  0  0
    5.0624    2.0435   27.6457 C   0  0  0  0  0  0  0  0  0  0  0  0
    4.5683    2.5329   28.4783 H   0  0  0  0  0  0  0  0  0  0  0  0
    6.4461    1.8568   27.6835 C   0  0  0  0  0  0  0  0  0  0  0  0
    7.3040    2.4299   29.0757 Cl  0  0  0  0  0  0  0  0  0  0  0  0
    7.1066    1.2359   26.6041 C   0  0  0  0  0  0  0  0  0  0  0  0
    8.8181    1.0978   26.6369 Cl  0  0  0  0  0  0  0  0  0  0  0  0
    6.5829    0.2996   23.1156 N   0  0  0  0  0  0  0  0  0  0  0  0
    7.2722   -0.5258   22.2768 N   0  0  0  0  0  0  0  0  0  0  0  0
    5.4331    0.6530   20.1631 C   0  0  0  0  0  0  0  0  0  0  0  0
    5.0107    0.6364   21.1716 H   0  0  0  0  0  0  0  0  0  0  0  0
    4.8051    1.3080   19.1088 C   0  0  0  0  0  0  0  0  0  0  0  0
    3.8743    1.8432   19.2612 H   0  0  0  0  0  0  0  0  0  0  0  0
  1  2  1  0
  2  3  2  0
  3  4  1  0
  4  5  1  0
  4  6  2  0
  6  7  1  0
  7  8  2  0
  8  9  1  0
  9 10  2  0
 10 11  1  0
 11 12  1  0
 12 13  1  0
 13 14  2  0
 14 15  1  0
 14 16  1  0
 16 17  1  0
 16 18  2  0
 18 19  1  0
 18 20  1  0
 20 21  1  0
 20 22  2  0
 22 23  1  0
 12 24  2  0
 24 25  1  0
  6 26  1  0
 26 27  1  0
 26 28  2  0
 28 29  1  0
 28  2  1  0
 25  7  1  0
 25 10  1  0
 22 13  1  0
M  END
>  <cnnaffinity>  (1) 
-5.57349

>  <filename>  (1) 
Clc1cccc(-c2nn3c(-c4cccnc4)nnc3s2)c1Cl

$$$$
