
     RDKit          3D

 42 45  0  0  0  0  0  0  0  0999 V2000
    3.7578    0.3153   25.1503 Cl  0  0  0  0  0  0  0  0  0  0  0  0
    4.3374    1.9292   24.8650 C   0  0  0  0  0  0  0  0  0  0  0  0
    3.6694    3.0230   25.4200 C   0  0  0  0  0  0  0  0  0  0  0  0
    4.2308    4.3049   25.3366 C   0  0  0  0  0  0  0  0  0  0  0  0
    5.4632    4.4852   24.7091 C   0  0  0  0  0  0  0  0  0  0  0  0
    6.0978    3.4102   24.0901 C   0  0  0  0  0  0  0  0  0  0  0  0
    5.5073    2.1385   24.1010 C   0  0  0  0  0  0  0  0  0  0  0  0
    5.9717    1.0997   23.3663 O   0  0  0  0  0  0  0  0  0  0  0  0
    7.2619    1.2067   22.7618 C   0  0  0  0  0  0  0  0  0  0  0  0
    7.6090   -0.1295   22.2175 C   0  0  0  0  0  0  0  0  0  0  0  0
    8.2386   -1.0469   22.9103 N   0  0  0  0  0  0  0  0  0  0  0  0
    8.3445   -2.0727   22.0274 C   0  0  0  0  0  0  0  0  0  0  0  0
    8.9565   -3.3452   22.4702 C   0  0  0  0  0  0  0  0  0  0  0  0
    8.2052   -4.0826   23.5960 C   0  0  0  0  0  0  0  0  0  0  0  0
    9.3260   -4.8240   24.3230 C   0  0  0  0  0  0  0  0  0  0  0  0
   10.5269   -4.1136   24.0693 O   0  0  0  0  0  0  0  0  0  0  0  0
   10.3277   -3.0831   23.1273 C   0  0  0  0  0  0  0  0  0  0  0  0
   11.1454   -3.0926   22.3995 H   0  0  0  0  0  0  0  0  0  0  0  0
   10.3481   -2.1049   23.6335 H   0  0  0  0  0  0  0  0  0  0  0  0
    9.4264   -5.8493   23.9473 H   0  0  0  0  0  0  0  0  0  0  0  0
    9.1656   -4.8720   25.4085 H   0  0  0  0  0  0  0  0  0  0  0  0
    7.4247   -4.7522   23.2207 H   0  0  0  0  0  0  0  0  0  0  0  0
    7.7546   -3.3381   24.2581 H   0  0  0  0  0  0  0  0  0  0  0  0
    8.9989   -3.9790   21.5888 H   0  0  0  0  0  0  0  0  0  0  0  0
    7.8633   -1.8355   20.8298 N   0  0  0  0  0  0  0  0  0  0  0  0
    7.3415   -0.5808   20.9630 N   0  0  0  0  0  0  0  0  0  0  0  0
    6.6249    0.0443   19.9122 C   0  0  0  0  0  0  0  0  0  0  0  0
    5.4118    0.7028   20.1520 C   0  0  0  0  0  0  0  0  0  0  0  0
    4.7930    1.3375   19.0712 C   0  0  0  0  0  0  0  0  0  0  0  0
    5.4048    1.2987   17.8159 C   0  0  0  0  0  0  0  0  0  0  0  0
    6.5535    0.6388   17.5809 N   0  0  0  0  0  0  0  0  0  0  0  0
    7.1379    0.0126   18.6054 C   0  0  0  0  0  0  0  0  0  0  0  0
    8.0593   -0.5285   18.4019 H   0  0  0  0  0  0  0  0  0  0  0  0
    4.9565    1.8101   16.9658 H   0  0  0  0  0  0  0  0  0  0  0  0
    3.8573    1.8685   19.1974 H   0  0  0  0  0  0  0  0  0  0  0  0
    4.9733    0.7101   21.1501 H   0  0  0  0  0  0  0  0  0  0  0  0
    7.2622    1.9805   21.9847 H   0  0  0  0  0  0  0  0  0  0  0  0
    8.0137    1.4594   23.5197 H   0  0  0  0  0  0  0  0  0  0  0  0
    7.0471    3.5477   23.5840 H   0  0  0  0  0  0  0  0  0  0  0  0
    5.9421    5.4613   24.6826 H   0  0  0  0  0  0  0  0  0  0  0  0
    3.7126    5.1560   25.7661 H   0  0  0  0  0  0  0  0  0  0  0  0
    2.7079    2.8701   25.9039 H   0  0  0  0  0  0  0  0  0  0  0  0
  1  2  1  0
  2  3  2  0
  3  4  1  0
  4  5  2  0
  5  6  1  0
  6  7  2  0
  7  8  1  0
  8  9  1  0
  9 10  1  0
 10 11  2  0
 11 12  1  0
 12 13  1  0
 13 14  1  0
 14 15  1  0
 15 16  1  0
 16 17  1  0
 17 18  1  0
 17 19  1  0
 15 20  1  0
 15 21  1  0
 14 22  1  0
 14 23  1  0
 13 24  1  0
 12 25  2  0
 25 26  1  0
 26 27  1  0
 27 28  2  0
 28 29  1  0
 29 30  2  0
 30 31  1  0
 31 32  2  0
 32 33  1  0
 30 34  1  0
 29 35  1  0
 28 36  1  0
  9 37  1  0
  9 38  1  0
  6 39  1  0
  5 40  1  0
  4 41  1  0
  3 42  1  0
  7  2  1  0
 26 10  1  0
 32 27  1  0
 17 13  1  0
M  END
>  <cnnaffinity>  (1) 
-6.05208

>  <filename>  (1) 
Clc1ccccc1OCc1nc(C2CCOC2)nn1-c1cccnc1

$$$$
