
     RDKit          3D

 40 43  0  0  0  0  0  0  0  0999 V2000
    5.5063    0.4304   27.5109 Cl  0  0  0  0  0  0  0  0  0  0  0  0
    5.7373    0.8285   25.8517 C   0  0  0  0  0  0  0  0  0  0  0  0
    6.9286    0.8543   25.1670 C   0  0  0  0  0  0  0  0  0  0  0  0
    6.6225    1.2480   23.9087 N   0  0  0  0  0  0  0  0  0  0  0  0
    7.4863    1.2506   22.7435 C   0  0  0  0  0  0  0  0  0  0  0  0
    7.5951   -0.1301   22.2027 C   0  0  0  0  0  0  0  0  0  0  0  0
    8.1321   -1.1098   22.9041 N   0  0  0  0  0  0  0  0  0  0  0  0
    8.1372   -2.1466   22.0354 C   0  0  0  0  0  0  0  0  0  0  0  0
    8.6680   -3.5134   22.3967 C   0  0  0  0  0  0  0  0  0  0  0  0
    7.8786   -4.6715   21.7479 C   0  0  0  0  0  0  0  0  0  0  0  0
    8.2402   -5.9164   22.5633 C   0  0  0  0  0  0  0  0  0  0  0  0
    8.6004   -5.4302   23.9842 C   0  0  0  0  0  0  0  0  0  0  0  0
    8.6924   -3.8822   23.9056 C   0  0  0  0  0  0  0  0  0  0  0  0
    7.8354   -3.4210   24.4116 H   0  0  0  0  0  0  0  0  0  0  0  0
    9.5960   -3.4972   24.3880 H   0  0  0  0  0  0  0  0  0  0  0  0
    7.8534   -5.7520   24.7177 H   0  0  0  0  0  0  0  0  0  0  0  0
    9.5511   -5.8850   24.2920 H   0  0  0  0  0  0  0  0  0  0  0  0
    9.1050   -6.4272   22.1342 H   0  0  0  0  0  0  0  0  0  0  0  0
    7.4291   -6.6547   22.5653 H   0  0  0  0  0  0  0  0  0  0  0  0
    8.1005   -4.8058   20.6819 H   0  0  0  0  0  0  0  0  0  0  0  0
    6.8097   -4.4377   21.8558 H   0  0  0  0  0  0  0  0  0  0  0  0
    9.7009   -3.4619   22.0411 H   0  0  0  0  0  0  0  0  0  0  0  0
    7.6840   -1.8527   20.8267 N   0  0  0  0  0  0  0  0  0  0  0  0
    7.2904   -0.5591   20.9470 N   0  0  0  0  0  0  0  0  0  0  0  0
    6.5864    0.0775   19.8861 C   0  0  0  0  0  0  0  0  0  0  0  0
    5.3898    0.7782   20.1030 C   0  0  0  0  0  0  0  0  0  0  0  0
    4.7870    1.3957   18.9989 C   0  0  0  0  0  0  0  0  0  0  0  0
    5.4057    1.3169   17.7490 C   0  0  0  0  0  0  0  0  0  0  0  0
    6.5379    0.6226   17.5355 N   0  0  0  0  0  0  0  0  0  0  0  0
    7.0944   -0.0036   18.5771 C   0  0  0  0  0  0  0  0  0  0  0  0
    7.9927   -0.5819   18.3693 H   0  0  0  0  0  0  0  0  0  0  0  0
    4.9815    1.8222   16.8826 H   0  0  0  0  0  0  0  0  0  0  0  0
    3.8541    1.9401   19.0982 H   0  0  0  0  0  0  0  0  0  0  0  0
    4.9423    0.8343   21.0965 H   0  0  0  0  0  0  0  0  0  0  0  0
    7.0773    1.9532   22.0174 H   0  0  0  0  0  0  0  0  0  0  0  0
    8.4818    1.5815   23.0541 H   0  0  0  0  0  0  0  0  0  0  0  0
    5.3070    1.4132   23.7245 N   0  0  0  0  0  0  0  0  0  0  0  0
    4.7525    1.1829   24.9105 C   0  0  0  0  0  0  0  0  0  0  0  0
    3.6830    1.2624   25.0484 H   0  0  0  0  0  0  0  0  0  0  0  0
    7.9351    0.5658   25.4440 H   0  0  0  0  0  0  0  0  0  0  0  0
  1  2  1  0
  2  3  2  0
  3  4  1  0
  4  5  1  0
  5  6  1  0
  6  7  2  0
  7  8  1  0
  8  9  1  0
  9 10  1  0
 10 11  1  0
 11 12  1  0
 12 13  1  0
 13 14  1  0
 13 15  1  0
 12 16  1  0
 12 17  1  0
 11 18  1  0
 11 19  1  0
 10 20  1  0
 10 21  1  0
  9 22  1  0
  8 23  2  0
 23 24  1  0
 24 25  1  0
 25 26  2  0
 26 27  1  0
 27 28  2  0
 28 29  1  0
 29 30  2  0
 30 31  1  0
 28 32  1  0
 27 33  1  0
 26 34  1  0
  5 35  1  0
  5 36  1  0
  4 37  1  0
 37 38  2  0
 38 39  1  0
  3 40  1  0
 38  2  1  0
 24  6  1  0
 30 25  1  0
 13  9  1  0
M  END
>  <cnnaffinity>  (1) 
-6.02742

>  <filename>  (1) 
Clc1cnn(Cc2nc(C3CCCC3)nn2-c2cccnc2)c1

$$$$
