
     RDKit          3D

 44 47  0  0  0  0  0  0  0  0999 V2000
   14.2554   -3.4451   19.7602 Cl  0  0  0  0  0  0  0  0  0  0  0  0
   13.5899   -2.0543   20.6053 C   0  0  0  0  0  0  0  0  0  0  0  0
   14.5445   -1.0864   20.8293 C   0  0  0  0  0  0  0  0  0  0  0  0
   14.3279   -0.0505   21.7457 C   0  0  0  0  0  0  0  0  0  0  0  0
   13.0454    0.1828   22.2273 C   0  0  0  0  0  0  0  0  0  0  0  0
   11.9987   -0.6460   21.7913 C   0  0  0  0  0  0  0  0  0  0  0  0
   10.5765   -0.2556   21.9425 C   0  0  0  0  0  0  0  0  0  0  0  0
    9.6127   -0.9653   21.3736 N   0  0  0  0  0  0  0  0  0  0  0  0
    8.4990   -0.2419   21.5943 N   0  0  0  0  0  0  0  0  0  0  0  0
    7.2236   -0.7575   21.0905 C   0  0  0  0  0  0  0  0  0  0  0  0
    6.5771    0.0238   19.9606 C   0  0  0  0  0  0  0  0  0  0  0  0
    5.3921    0.7416   20.1421 C   0  0  0  0  0  0  0  0  0  0  0  0
    4.8490    1.4471   19.0645 C   0  0  0  0  0  0  0  0  0  0  0  0
    5.4865    1.3696   17.8228 C   0  0  0  0  0  0  0  0  0  0  0  0
    6.6106    0.6643   17.6195 N   0  0  0  0  0  0  0  0  0  0  0  0
    7.1360    0.0206   18.6707 C   0  0  0  0  0  0  0  0  0  0  0  0
    8.0435   -0.5487   18.4683 H   0  0  0  0  0  0  0  0  0  0  0  0
    5.0714    1.8815   16.9550 H   0  0  0  0  0  0  0  0  0  0  0  0
    3.9706    2.0716   19.1922 H   0  0  0  0  0  0  0  0  0  0  0  0
    4.9171    0.7938   21.1245 H   0  0  0  0  0  0  0  0  0  0  0  0
    7.4624   -1.7669   20.7455 H   0  0  0  0  0  0  0  0  0  0  0  0
    6.5166   -0.8573   21.9224 H   0  0  0  0  0  0  0  0  0  0  0  0
    8.8284    0.8658   22.3067 C   0  0  0  0  0  0  0  0  0  0  0  0
    7.8474    1.9237   22.7170 C   0  0  0  0  0  0  0  0  0  0  0  0
    7.5757    2.9807   21.6071 C   0  0  0  0  0  0  0  0  0  0  0  0
    6.5177    4.0002   21.9229 C   0  0  0  0  0  0  0  0  0  0  0  0
    5.2579    3.7148   21.5736 N   0  0  0  0  0  0  0  0  0  0  0  0
    4.3539    4.6667   21.8082 C   0  0  0  0  0  0  0  0  0  0  0  0
    4.6587    5.8620   22.4383 C   0  0  0  0  0  0  0  0  0  0  0  0
    5.9887    6.0252   22.8004 C   0  0  0  0  0  0  0  0  0  0  0  0
    6.9178    5.1093   22.5547 N   0  0  0  0  0  0  0  0  0  0  0  0
    6.3285    6.9275   23.3090 H   0  0  0  0  0  0  0  0  0  0  0  0
    3.9127    6.6179   22.6291 H   0  0  0  0  0  0  0  0  0  0  0  0
    3.3364    4.4517   21.4823 H   0  0  0  0  0  0  0  0  0  0  0  0
    8.5010    3.5252   21.3933 H   0  0  0  0  0  0  0  0  0  0  0  0
    7.2687    2.4682   20.6938 H   0  0  0  0  0  0  0  0  0  0  0  0
    8.2418    2.4196   23.6103 H   0  0  0  0  0  0  0  0  0  0  0  0
    6.9131    1.4224   23.0055 H   0  0  0  0  0  0  0  0  0  0  0  0
   10.1288    0.8817   22.5384 N   0  0  0  0  0  0  0  0  0  0  0  0
   12.2946   -1.8209   21.0647 C   0  0  0  0  0  0  0  0  0  0  0  0
   11.4291   -2.4119   20.8373 H   0  0  0  0  0  0  0  0  0  0  0  0
   12.8464    1.0474   22.8507 H   0  0  0  0  0  0  0  0  0  0  0  0
   15.1203    0.6436   22.0008 H   0  0  0  0  0  0  0  0  0  0  0  0
   15.4139   -1.1530   20.1887 H   0  0  0  0  0  0  0  0  0  0  0  0
  1  2  1  0
  2  3  2  0
  3  4  1  0
  4  5  2  0
  5  6  1  0
  6  7  1  0
  7  8  2  0
  8  9  1  0
  9 10  1  0
 10 11  1  0
 11 12  2  0
 12 13  1  0
 13 14  2  0
 14 15  1  0
 15 16  2  0
 16 17  1  0
 14 18  1  0
 13 19  1  0
 12 20  1  0
 10 21  1  0
 10 22  1  0
  9 23  1  0
 23 24  1  0
 24 25  1  0
 25 26  1  0
 26 27  2  0
 27 28  1  0
 28 29  2  0
 29 30  1  0
 30 31  2  0
 30 32  1  0
 29 33  1  0
 28 34  1  0
 25 35  1  0
 25 36  1  0
 24 37  1  0
 24 38  1  0
 23 39  2  0
  6 40  2  0
 40 41  1  0
  5 42  1  0
  4 43  1  0
  3 44  1  0
 40  2  1  0
 39  7  1  0
 16 11  1  0
 31 26  1  0
M  END
>  <cnnaffinity>  (1) 
-6.48574

>  <filename>  (1) 
Clc1cccc(-c2nc(CCc3ncccn3)n(Cc3cccnc3)n2)c1

$$$$
