
     RDKit          3D

 29 31  0  0  0  0  0  0  0  0999 V2000
    4.7761    2.0284   16.7383 H   0  0  0  0  0  0  0  0  0  0  0  0
    5.3033    1.5059   17.5309 C   0  0  0  0  0  0  0  0  0  0  0  0
    6.4517    0.9079   17.1799 N   0  0  0  0  0  0  0  0  0  0  0  0
    7.1345    0.2758   18.1374 C   0  0  0  0  0  0  0  0  0  0  0  0
    8.0573   -0.2040   17.8154 H   0  0  0  0  0  0  0  0  0  0  0  0
    6.7159    0.1911   19.4726 C   0  0  0  0  0  0  0  0  0  0  0  0
    7.4315   -0.6181   20.4575 C   0  0  0  0  0  0  0  0  0  0  0  0
    6.8485   -0.7952   21.6974 N   0  0  0  0  0  0  0  0  0  0  0  0
    7.6349   -1.6290   22.2825 C   0  0  0  0  0  0  0  0  0  0  0  0
    7.3427   -2.0474   23.5222 N   0  0  0  0  0  0  0  0  0  0  0  0
    6.6043   -1.4342   23.8167 H   0  0  0  0  0  0  0  0  0  0  0  0
    8.1704   -2.6873   24.4477 C   0  0  0  0  0  0  0  0  0  0  0  0
    8.5092   -2.0409   25.6364 C   0  0  0  0  0  0  0  0  0  0  0  0
    8.2062   -1.0090   25.7830 H   0  0  0  0  0  0  0  0  0  0  0  0
    9.2625   -2.7066   26.6094 C   0  0  0  0  0  0  0  0  0  0  0  0
    9.5361   -2.1814   27.5161 H   0  0  0  0  0  0  0  0  0  0  0  0
    9.6425   -4.0381   26.3862 C   0  0  0  0  0  0  0  0  0  0  0  0
   10.4430   -4.9626   27.6345 Cl  0  0  0  0  0  0  0  0  0  0  0  0
    9.3452   -4.6733   25.1766 C   0  0  0  0  0  0  0  0  0  0  0  0
    9.7031   -5.6878   25.0234 H   0  0  0  0  0  0  0  0  0  0  0  0
    8.6147   -3.9843   24.1961 C   0  0  0  0  0  0  0  0  0  0  0  0
    8.3556   -4.4269   23.2406 H   0  0  0  0  0  0  0  0  0  0  0  0
    8.7007   -2.0337   21.5941 O   0  0  0  0  0  0  0  0  0  0  0  0
    8.5721   -1.3479   20.3939 C   0  0  0  0  0  0  0  0  0  0  0  0
    9.3654   -1.4607   19.6757 H   0  0  0  0  0  0  0  0  0  0  0  0
    5.5106    0.8254   19.8241 C   0  0  0  0  0  0  0  0  0  0  0  0
    5.1522    0.7710   20.8544 H   0  0  0  0  0  0  0  0  0  0  0  0
    4.7912    1.4825   18.8331 C   0  0  0  0  0  0  0  0  0  0  0  0
    3.8476    1.9673   19.0564 H   0  0  0  0  0  0  0  0  0  0  0  0
  1  2  1  0
  2  3  2  0
  3  4  1  0
  4  5  1  0
  4  6  2  0
  6  7  1  0
  7  8  1  0
  8  9  2  0
  9 10  1  0
 10 11  1  0
 10 12  1  0
 12 13  2  0
 13 14  1  0
 13 15  1  0
 15 16  1  0
 15 17  2  0
 17 18  1  0
 17 19  1  0
 19 20  1  0
 19 21  2  0
 21 22  1  0
  9 23  1  0
 23 24  1  0
 24 25  1  0
  6 26  1  0
 26 27  1  0
 26 28  2  0
 28 29  1  0
 28  2  1  0
 24  7  2  0
 21 12  1  0
M  END
>  <cnnaffinity>  (1) 
-4.39359

>  <filename>  (1) 
Clc1ccc(Nc2nc(-c3cccnc3)co2)cc1

$$$$
