
     RDKit          3D

 30 32  0  0  0  0  0  0  0  0999 V2000
    4.9332    1.7767   17.0016 H   0  0  0  0  0  0  0  0  0  0  0  0
    5.4077    1.2831   17.8467 C   0  0  0  0  0  0  0  0  0  0  0  0
    6.5677    0.6628   17.5868 N   0  0  0  0  0  0  0  0  0  0  0  0
    7.1898    0.0660   18.6087 C   0  0  0  0  0  0  0  0  0  0  0  0
    8.1325   -0.4177   18.3706 H   0  0  0  0  0  0  0  0  0  0  0  0
    6.6783    0.0197   19.9134 C   0  0  0  0  0  0  0  0  0  0  0  0
    7.4368   -0.7038   20.9532 C   0  0  0  0  0  0  0  0  0  0  0  0
    8.7735   -0.6857   20.8791 N   0  0  0  0  0  0  0  0  0  0  0  0
    9.4465   -1.2916   21.8635 C   0  0  0  0  0  0  0  0  0  0  0  0
   10.5281   -1.2483   21.7941 H   0  0  0  0  0  0  0  0  0  0  0  0
    8.8539   -1.9837   22.9214 C   0  0  0  0  0  0  0  0  0  0  0  0
    9.4533   -2.4853   23.6688 H   0  0  0  0  0  0  0  0  0  0  0  0
    7.4604   -2.0525   22.9680 C   0  0  0  0  0  0  0  0  0  0  0  0
    6.7491   -2.7770   24.0582 C   0  0  0  0  0  0  0  0  0  0  0  0
    5.8490   -2.0651   24.8706 C   0  0  0  0  0  0  0  0  0  0  0  0
    5.6935   -1.0136   24.6570 H   0  0  0  0  0  0  0  0  0  0  0  0
    5.1722   -2.6784   25.9217 C   0  0  0  0  0  0  0  0  0  0  0  0
    4.4820   -2.1171   26.5377 H   0  0  0  0  0  0  0  0  0  0  0  0
    5.3823   -4.0297   26.1747 C   0  0  0  0  0  0  0  0  0  0  0  0
    4.8844   -4.5561   26.9814 H   0  0  0  0  0  0  0  0  0  0  0  0
    6.2633   -4.7614   25.3811 C   0  0  0  0  0  0  0  0  0  0  0  0
    6.4805   -6.4157   25.8200 Cl  0  0  0  0  0  0  0  0  0  0  0  0
    6.9424   -4.1528   24.3113 C   0  0  0  0  0  0  0  0  0  0  0  0
    7.9794   -5.1037   23.2965 Cl  0  0  0  0  0  0  0  0  0  0  0  0
    6.7587   -1.3925   21.9625 C   0  0  0  0  0  0  0  0  0  0  0  0
    5.6868   -1.4417   21.9183 H   0  0  0  0  0  0  0  0  0  0  0  0
    5.4472    0.6490   20.1653 C   0  0  0  0  0  0  0  0  0  0  0  0
    5.0048    0.6475   21.1646 H   0  0  0  0  0  0  0  0  0  0  0  0
    4.8151    1.3048   19.1124 C   0  0  0  0  0  0  0  0  0  0  0  0
    3.8844    1.8336   19.2572 H   0  0  0  0  0  0  0  0  0  0  0  0
  1  2  1  0
  2  3  2  0
  3  4  1  0
  4  5  1  0
  4  6  2  0
  6  7  1  0
  7  8  2  0
  8  9  1  0
  9 10  1  0
  9 11  2  0
 11 12  1  0
 11 13  1  0
 13 14  1  0
 14 15  2  0
 15 16  1  0
 15 17  1  0
 17 18  1  0
 17 19  2  0
 19 20  1  0
 19 21  1  0
 21 22  1  0
 21 23  2  0
 23 24  1  0
 13 25  2  0
 25 26  1  0
  6 27  1  0
 27 28  1  0
 27 29  2  0
 29 30  1  0
 29  2  1  0
 25  7  1  0
 23 14  1  0
M  END
>  <cnnaffinity>  (1) 
-5.56942

>  <filename>  (1) 
Clc1cccc(-c2ccnc(-c3cccnc3)c2)c1Cl

$$$$
