
     RDKit          3D

 41 44  0  0  0  0  0  0  0  0999 V2000
    6.6913    1.7042   23.3670 Cl  0  0  0  0  0  0  0  0  0  0  0  0
    8.3534    1.7609   23.8758 C   0  0  0  0  0  0  0  0  0  0  0  0
    8.5530    1.4853   25.1561 N   0  0  0  0  0  0  0  0  0  0  0  0
    9.8157    1.4812   25.5940 C   0  0  0  0  0  0  0  0  0  0  0  0
   10.9044    1.8067   24.7852 C   0  0  0  0  0  0  0  0  0  0  0  0
   10.6671    2.0654   23.4350 C   0  0  0  0  0  0  0  0  0  0  0  0
    9.3617    2.0375   22.9252 C   0  0  0  0  0  0  0  0  0  0  0  0
    9.1582    2.0292   21.4259 C   0  0  0  0  0  0  0  0  0  0  0  0
    9.5038    0.6194   20.8760 C   0  0  0  0  0  0  0  0  0  0  0  0
    8.6284   -0.4882   21.3722 C   0  0  0  0  0  0  0  0  0  0  0  0
    8.9078   -1.3436   22.3299 N   0  0  0  0  0  0  0  0  0  0  0  0
    7.7313   -2.0175   22.5289 C   0  0  0  0  0  0  0  0  0  0  0  0
    7.4852   -3.0532   23.6189 C   0  0  0  0  0  0  0  0  0  0  0  0
    6.2231   -3.6918   23.7215 C   0  0  0  0  0  0  0  0  0  0  0  0
    6.0118   -4.6422   24.7209 C   0  0  0  0  0  0  0  0  0  0  0  0
    7.0517   -4.9206   25.6082 C   0  0  0  0  0  0  0  0  0  0  0  0
    8.2588   -4.2368   25.4500 C   0  0  0  0  0  0  0  0  0  0  0  0
    8.4825   -3.3434   24.4856 N   0  0  0  0  0  0  0  0  0  0  0  0
    9.0889   -4.4118   26.1326 H   0  0  0  0  0  0  0  0  0  0  0  0
    6.9469   -5.6479   26.4048 H   0  0  0  0  0  0  0  0  0  0  0  0
    5.0533   -5.1533   24.8176 H   0  0  0  0  0  0  0  0  0  0  0  0
    5.4253   -3.4228   23.0379 H   0  0  0  0  0  0  0  0  0  0  0  0
    6.7669   -1.6457   21.6887 N   0  0  0  0  0  0  0  0  0  0  0  0
    7.3506   -0.6927   20.9289 N   0  0  0  0  0  0  0  0  0  0  0  0
    6.6409   -0.0444   19.8787 C   0  0  0  0  0  0  0  0  0  0  0  0
    5.4384    0.6085   20.1581 C   0  0  0  0  0  0  0  0  0  0  0  0
    4.8172    1.2948   19.1101 C   0  0  0  0  0  0  0  0  0  0  0  0
    5.4028    1.2902   17.8375 C   0  0  0  0  0  0  0  0  0  0  0  0
    6.5309    0.6207   17.5527 N   0  0  0  0  0  0  0  0  0  0  0  0
    7.1291   -0.0303   18.5566 C   0  0  0  0  0  0  0  0  0  0  0  0
    8.0489   -0.5583   18.3078 H   0  0  0  0  0  0  0  0  0  0  0  0
    4.9521    1.8447   17.0170 H   0  0  0  0  0  0  0  0  0  0  0  0
    3.8954    1.8421   19.2718 H   0  0  0  0  0  0  0  0  0  0  0  0
    5.0315    0.5871   21.1731 H   0  0  0  0  0  0  0  0  0  0  0  0
    9.5014    0.6164   19.7867 H   0  0  0  0  0  0  0  0  0  0  0  0
   10.5252    0.3730   21.1800 H   0  0  0  0  0  0  0  0  0  0  0  0
    8.1427    2.3338   21.1507 H   0  0  0  0  0  0  0  0  0  0  0  0
    9.8293    2.7547   20.9575 H   0  0  0  0  0  0  0  0  0  0  0  0
   11.4959    2.2270   22.7441 H   0  0  0  0  0  0  0  0  0  0  0  0
   11.9075    1.8235   25.1837 H   0  0  0  0  0  0  0  0  0  0  0  0
    9.9467    1.1694   26.6220 H   0  0  0  0  0  0  0  0  0  0  0  0
  1  2  1  0
  2  3  2  0
  3  4  1  0
  4  5  2  0
  5  6  1  0
  6  7  2  0
  7  8  1  0
  8  9  1  0
  9 10  1  0
 10 11  2  0
 11 12  1  0
 12 13  1  0
 13 14  2  0
 14 15  1  0
 15 16  2  0
 16 17  1  0
 17 18  2  0
 17 19  1  0
 16 20  1  0
 15 21  1  0
 14 22  1  0
 12 23  2  0
 23 24  1  0
 24 25  1  0
 25 26  2  0
 26 27  1  0
 27 28  2  0
 28 29  1  0
 29 30  2  0
 30 31  1  0
 28 32  1  0
 27 33  1  0
 26 34  1  0
  9 35  1  0
  9 36  1  0
  8 37  1  0
  8 38  1  0
  6 39  1  0
  5 40  1  0
  4 41  1  0
  7  2  1  0
 24 10  1  0
 30 25  1  0
 18 13  1  0
M  END
>  <cnnaffinity>  (1) 
-6.14561

>  <filename>  (1) 
Clc1ncccc1CCc1nc(-c2ccccn2)nn1-c1cccnc1

$$$$
