
     RDKit          3D

 44 47  0  0  0  0  0  0  0  0999 V2000
    2.9641    4.2461   27.4082 Cl  0  0  0  0  0  0  0  0  0  0  0  0
    4.2160    3.4300   26.5160 C   0  0  0  0  0  0  0  0  0  0  0  0
    5.5441    3.8285   26.7011 C   0  0  0  0  0  0  0  0  0  0  0  0
    6.5270    3.1353   26.0028 C   0  0  0  0  0  0  0  0  0  0  0  0
    6.1635    2.0702   25.1640 C   0  0  0  0  0  0  0  0  0  0  0  0
    7.1917    1.2716   24.4187 C   0  0  0  0  0  0  0  0  0  0  0  0
    7.3851    1.7047   22.9495 C   0  0  0  0  0  0  0  0  0  0  0  0
    8.4356    0.8688   22.3026 C   0  0  0  0  0  0  0  0  0  0  0  0
    9.7375    1.0061   22.4929 N   0  0  0  0  0  0  0  0  0  0  0  0
   10.2747   -0.0853   21.8884 C   0  0  0  0  0  0  0  0  0  0  0  0
   11.7302   -0.4833   21.7622 C   0  0  0  0  0  0  0  0  0  0  0  0
   11.9545   -1.6799   21.0609 C   0  0  0  0  0  0  0  0  0  0  0  0
   13.2298   -2.0030   20.6381 C   0  0  0  0  0  0  0  0  0  0  0  0
   14.2750   -1.2049   21.0739 C   0  0  0  0  0  0  0  0  0  0  0  0
   14.0017   -0.1148   21.9195 C   0  0  0  0  0  0  0  0  0  0  0  0
   12.7567    0.2641   22.2421 N   0  0  0  0  0  0  0  0  0  0  0  0
   14.7970    0.5389   22.2777 H   0  0  0  0  0  0  0  0  0  0  0  0
   15.2359   -1.4298   20.6467 H   0  0  0  0  0  0  0  0  0  0  0  0
   13.4074   -2.8378   19.9572 H   0  0  0  0  0  0  0  0  0  0  0  0
   11.0825   -2.2651   20.7942 H   0  0  0  0  0  0  0  0  0  0  0  0
    9.3469   -0.8777   21.3383 N   0  0  0  0  0  0  0  0  0  0  0  0
    8.1878   -0.2719   21.6141 N   0  0  0  0  0  0  0  0  0  0  0  0
    6.9392   -0.8267   21.0954 C   0  0  0  0  0  0  0  0  0  0  0  0
    6.3787   -0.0426   19.9288 C   0  0  0  0  0  0  0  0  0  0  0  0
    5.1612    0.6395   19.9839 C   0  0  0  0  0  0  0  0  0  0  0  0
    4.7577    1.3918   18.8747 C   0  0  0  0  0  0  0  0  0  0  0  0
    5.5831    1.4156   17.7480 C   0  0  0  0  0  0  0  0  0  0  0  0
    6.7366    0.7392   17.6621 N   0  0  0  0  0  0  0  0  0  0  0  0
    7.1189    0.0379   18.7370 C   0  0  0  0  0  0  0  0  0  0  0  0
    8.0616   -0.4993   18.6407 H   0  0  0  0  0  0  0  0  0  0  0  0
    5.3035    1.9987   16.8700 H   0  0  0  0  0  0  0  0  0  0  0  0
    3.8394    1.9661   18.8816 H   0  0  0  0  0  0  0  0  0  0  0  0
    4.5369    0.5893   20.8789 H   0  0  0  0  0  0  0  0  0  0  0  0
    7.1790   -1.8538   20.8006 H   0  0  0  0  0  0  0  0  0  0  0  0
    6.2110   -0.8822   21.9134 H   0  0  0  0  0  0  0  0  0  0  0  0
    6.4449    1.6256   22.3934 H   0  0  0  0  0  0  0  0  0  0  0  0
    7.6899    2.7538   22.9062 H   0  0  0  0  0  0  0  0  0  0  0  0
    8.1620    1.3540   24.9228 H   0  0  0  0  0  0  0  0  0  0  0  0
    6.9239    0.2049   24.4440 H   0  0  0  0  0  0  0  0  0  0  0  0
    4.7961    1.7874   25.0583 C   0  0  0  0  0  0  0  0  0  0  0  0
    3.8331    2.4491   25.7164 N   0  0  0  0  0  0  0  0  0  0  0  0
    4.4509    0.9742   24.4199 H   0  0  0  0  0  0  0  0  0  0  0  0
    7.5767    3.4126   26.1034 H   0  0  0  0  0  0  0  0  0  0  0  0
    5.7703    4.6480   27.3698 H   0  0  0  0  0  0  0  0  0  0  0  0
  1  2  1  0
  2  3  2  0
  3  4  1  0
  4  5  2  0
  5  6  1  0
  6  7  1  0
  7  8  1  0
  8  9  2  0
  9 10  1  0
 10 11  1  0
 11 12  2  0
 12 13  1  0
 13 14  2  0
 14 15  1  0
 15 16  2  0
 15 17  1  0
 14 18  1  0
 13 19  1  0
 12 20  1  0
 10 21  2  0
 21 22  1  0
 22 23  1  0
 23 24  1  0
 24 25  2  0
 25 26  1  0
 26 27  2  0
 27 28  1  0
 28 29  2  0
 29 30  1  0
 27 31  1  0
 26 32  1  0
 25 33  1  0
 23 34  1  0
 23 35  1  0
  7 36  1  0
  7 37  1  0
  6 38  1  0
  6 39  1  0
  5 40  1  0
 40 41  2  0
 40 42  1  0
  4 43  1  0
  3 44  1  0
 41  2  1  0
 22  8  1  0
 29 24  1  0
 16 11  1  0
M  END
>  <cnnaffinity>  (1) 
-6.49558

>  <filename>  (1) 
Clc1ccc(CCc2nc(-c3ccccn3)nn2Cc2cccnc2)cn1

$$$$
