
     RDKit          3D

 28 30  0  0  0  0  0  0  0  0999 V2000
    5.1020    1.7735   16.9528 H   0  0  0  0  0  0  0  0  0  0  0  0
    5.5193    1.2514   17.8122 C   0  0  0  0  0  0  0  0  0  0  0  0
    6.6700    0.5933   17.6046 N   0  0  0  0  0  0  0  0  0  0  0  0
    7.2162   -0.0402   18.6454 C   0  0  0  0  0  0  0  0  0  0  0  0
    8.1461   -0.5753   18.4726 H   0  0  0  0  0  0  0  0  0  0  0  0
    6.6593   -0.0405   19.9300 C   0  0  0  0  0  0  0  0  0  0  0  0
    7.3981   -0.7013   20.9950 C   0  0  0  0  0  0  0  0  0  0  0  0
    8.4261   -1.5165   20.8608 N   0  0  0  0  0  0  0  0  0  0  0  0
    8.7012   -1.8450   22.1360 C   0  0  0  0  0  0  0  0  0  0  0  0
    9.6787   -2.7215   22.3863 O   0  0  0  0  0  0  0  0  0  0  0  0
    9.7247   -3.4131   23.5854 C   0  0  0  0  0  0  0  0  0  0  0  0
   11.0035   -3.8338   23.9554 C   0  0  0  0  0  0  0  0  0  0  0  0
   11.8544   -3.5365   23.3524 H   0  0  0  0  0  0  0  0  0  0  0  0
   11.1484   -4.6858   25.0464 C   0  0  0  0  0  0  0  0  0  0  0  0
   12.1301   -5.0809   25.2846 H   0  0  0  0  0  0  0  0  0  0  0  0
   10.0440   -5.0583   25.8154 C   0  0  0  0  0  0  0  0  0  0  0  0
   10.1537   -5.7174   26.6687 H   0  0  0  0  0  0  0  0  0  0  0  0
    8.7909   -4.5502   25.4772 C   0  0  0  0  0  0  0  0  0  0  0  0
    7.4391   -4.8501   26.5293 Cl  0  0  0  0  0  0  0  0  0  0  0  0
    8.5994   -3.7480   24.3540 C   0  0  0  0  0  0  0  0  0  0  0  0
    7.6032   -3.3828   24.1289 H   0  0  0  0  0  0  0  0  0  0  0  0
    7.9638   -1.2604   23.0659 N   0  0  0  0  0  0  0  0  0  0  0  0
    7.1081   -0.5427   22.2973 N   0  0  0  0  0  0  0  0  0  0  0  0
    6.4096    0.0532   22.7095 H   0  0  0  0  0  0  0  0  0  0  0  0
    5.4424    0.6226   20.1305 C   0  0  0  0  0  0  0  0  0  0  0  0
    4.9575    0.6239   21.1097 H   0  0  0  0  0  0  0  0  0  0  0  0
    4.8653    1.2787   19.0506 C   0  0  0  0  0  0  0  0  0  0  0  0
    3.9362    1.8238   19.1577 H   0  0  0  0  0  0  0  0  0  0  0  0
  1  2  1  0
  2  3  2  0
  3  4  1  0
  4  5  1  0
  4  6  2  0
  6  7  1  0
  7  8  2  0
  8  9  1  0
  9 10  1  0
 10 11  1  0
 11 12  2  0
 12 13  1  0
 12 14  1  0
 14 15  1  0
 14 16  2  0
 16 17  1  0
 16 18  1  0
 18 19  1  0
 18 20  2  0
 20 21  1  0
  9 22  2  0
 22 23  1  0
 23 24  1  0
  6 25  1  0
 25 26  1  0
 25 27  2  0
 27 28  1  0
 27  2  1  0
 23  7  1  0
 20 11  1  0
M  END
>  <cnnaffinity>  (1) 
-5.27432

>  <filename>  (1) 
Clc1cccc(Oc2n[nH]c(-c3cccnc3)n2)c1

$$$$
