
     RDKit          3D

 43 46  0  0  0  0  0  0  0  0999 V2000
    4.9618    1.8254   17.0128 H   0  0  0  0  0  0  0  0  0  0  0  0
    5.4414    1.2991   17.8382 C   0  0  0  0  0  0  0  0  0  0  0  0
    6.6047    0.6878   17.5685 N   0  0  0  0  0  0  0  0  0  0  0  0
    7.2197    0.0466   18.5742 C   0  0  0  0  0  0  0  0  0  0  0  0
    8.1551   -0.4487   18.3209 H   0  0  0  0  0  0  0  0  0  0  0  0
    6.7255   -0.0490   19.9060 C   0  0  0  0  0  0  0  0  0  0  0  0
    7.3848   -0.8044   20.8843 N   0  0  0  0  0  0  0  0  0  0  0  0
    6.9479   -0.8486   22.2814 C   0  0  1  0  0  0  0  0  0  0  0  0
    5.8802   -1.0194   22.3136 H   0  0  0  0  0  0  0  0  0  0  0  0
    7.7103   -2.0730   22.8104 C   0  0  0  0  0  0  0  0  0  0  0  0
    7.1135   -2.9752   22.6512 H   0  0  0  0  0  0  0  0  0  0  0  0
    7.9042   -1.9981   23.8832 H   0  0  0  0  0  0  0  0  0  0  0  0
    8.9951   -2.1076   21.9513 C   0  0  0  0  0  0  0  0  0  0  0  0
    9.0435   -3.0349   21.3772 H   0  0  0  0  0  0  0  0  0  0  0  0
    9.9099   -2.0434   22.5428 H   0  0  0  0  0  0  0  0  0  0  0  0
    8.8459   -0.9070   20.9965 C   0  0  2  0  0  0  0  0  0  0  0  0
    9.2983   -1.1223   20.0254 H   0  0  0  0  0  0  0  0  0  0  0  0
    9.4239    0.4146   21.5524 C   0  0  0  0  0  0  0  0  0  0  0  0
    9.2537    1.1782   20.7827 H   0  0  0  0  0  0  0  0  0  0  0  0
   10.5124    0.3150   21.6630 H   0  0  0  0  0  0  0  0  0  0  0  0
    8.7842    0.8900   22.8894 C   0  0  2  0  0  0  0  0  0  0  0  0
    8.8010    1.9878   22.8600 H   0  0  0  0  0  0  0  0  0  0  0  0
    9.6196    0.5049   24.1372 C   0  0  0  0  0  0  0  0  0  0  0  0
    9.6242   -0.5826   24.2766 H   0  0  0  0  0  0  0  0  0  0  0  0
   10.6629    0.7942   23.9573 H   0  0  0  0  0  0  0  0  0  0  0  0
    9.1383    1.2090   25.3912 C   0  0  0  0  0  0  0  0  0  0  0  0
    8.4702    0.5308   26.4214 C   0  0  0  0  0  0  0  0  0  0  0  0
    8.4184   -0.5541   26.3955 H   0  0  0  0  0  0  0  0  0  0  0  0
    7.8786    1.2211   27.4845 C   0  0  0  0  0  0  0  0  0  0  0  0
    7.3638    0.6860   28.2774 H   0  0  0  0  0  0  0  0  0  0  0  0
    7.9563    2.6178   27.5319 C   0  0  0  0  0  0  0  0  0  0  0  0
    7.1294    3.4947   28.7759 Cl  0  0  0  0  0  0  0  0  0  0  0  0
    8.7110    3.3018   26.5651 C   0  0  0  0  0  0  0  0  0  0  0  0
    8.9545    5.0143   26.6727 Cl  0  0  0  0  0  0  0  0  0  0  0  0
    9.2990    2.5996   25.5116 C   0  0  0  0  0  0  0  0  0  0  0  0
    9.8839    3.1567   24.7856 H   0  0  0  0  0  0  0  0  0  0  0  0
    7.2920    0.4662   23.0117 C   0  0  0  0  0  0  0  0  0  0  0  0
    6.6614    1.2573   22.5898 H   0  0  0  0  0  0  0  0  0  0  0  0
    7.0007    0.3705   24.0666 H   0  0  0  0  0  0  0  0  0  0  0  0
    5.4931    0.5969   20.1485 C   0  0  0  0  0  0  0  0  0  0  0  0
    5.0628    0.5845   21.1459 H   0  0  0  0  0  0  0  0  0  0  0  0
    4.8552    1.2753   19.1054 C   0  0  0  0  0  0  0  0  0  0  0  0
    3.9198    1.7950   19.2761 H   0  0  0  0  0  0  0  0  0  0  0  0
  1  2  1  0
  2  3  2  0
  3  4  1  0
  4  5  1  0
  4  6  2  0
  6  7  1  0
  7  8  1  0
  8  9  1  6
  8 10  1  0
 10 11  1  0
 10 12  1  0
 10 13  1  0
 13 14  1  0
 13 15  1  0
 13 16  1  0
 16 17  1  6
 16 18  1  0
 18 19  1  0
 18 20  1  0
 18 21  1  0
 21 22  1  6
 21 23  1  0
 23 24  1  0
 23 25  1  0
 23 26  1  0
 26 27  2  0
 27 28  1  0
 27 29  1  0
 29 30  1  0
 29 31  2  0
 31 32  1  0
 31 33  1  0
 33 34  1  0
 33 35  2  0
 35 36  1  0
 21 37  1  0
 37 38  1  0
 37 39  1  0
  6 40  1  0
 40 41  1  0
 40 42  2  0
 42 43  1  0
 42  2  1  0
 16  7  1  0
 35 26  1  0
 37  8  1  0
M  END
>  <cnnaffinity>  (1) 
-5.88925

>  <filename>  (1) 
Clc1ccc(C[C@H]2C[C@H]3CC[C@@H](C2)N3c2cccnc2)cc1Cl

$$$$
