
     RDKit          3D

 28 29  0  0  0  0  0  0  0  0999 V2000
    4.9141    1.7801   16.9953 H   0  0  0  0  0  0  0  0  0  0  0  0
    5.4043    1.2937   17.8386 C   0  0  0  0  0  0  0  0  0  0  0  0
    6.5690    0.6747   17.5788 N   0  0  0  0  0  0  0  0  0  0  0  0
    7.1792    0.0634   18.6024 C   0  0  0  0  0  0  0  0  0  0  0  0
    8.1222   -0.4215   18.3583 H   0  0  0  0  0  0  0  0  0  0  0  0
    6.6674   -0.0071   19.9234 C   0  0  0  0  0  0  0  0  0  0  0  0
    7.2898   -0.7168   20.9308 N   0  0  0  0  0  0  0  0  0  0  0  0
    6.8163   -0.8286   21.8191 H   0  0  0  0  0  0  0  0  0  0  0  0
    8.6282   -1.0853   20.8989 N   0  0  0  0  0  0  0  0  0  0  0  0
    8.7978   -1.6774   20.0923 H   0  0  0  0  0  0  0  0  0  0  0  0
    9.5744    0.0354   20.9681 C   0  0  0  0  0  0  0  0  0  0  0  0
    9.3762    0.7566   20.1657 H   0  0  0  0  0  0  0  0  0  0  0  0
   10.5841   -0.3576   20.8250 H   0  0  0  0  0  0  0  0  0  0  0  0
    9.4824    0.7477   22.2991 C   0  0  0  0  0  0  0  0  0  0  0  0
    8.7602    1.9433   22.4185 C   0  0  0  0  0  0  0  0  0  0  0  0
    8.2951    2.3611   21.5305 H   0  0  0  0  0  0  0  0  0  0  0  0
    8.6167    2.5931   23.6456 C   0  0  0  0  0  0  0  0  0  0  0  0
    8.0609    3.5244   23.7042 H   0  0  0  0  0  0  0  0  0  0  0  0
    9.1962    2.0397   24.7911 C   0  0  0  0  0  0  0  0  0  0  0  0
    9.0948    2.5377   25.7494 H   0  0  0  0  0  0  0  0  0  0  0  0
    9.9012    0.8373   24.7137 C   0  0  0  0  0  0  0  0  0  0  0  0
   10.3499    0.3899   25.5980 H   0  0  0  0  0  0  0  0  0  0  0  0
   10.0208    0.2043   23.4740 C   0  0  0  0  0  0  0  0  0  0  0  0
   10.8495   -1.3143   23.3966 Cl  0  0  0  0  0  0  0  0  0  0  0  0
    5.4426    0.6396   20.1691 C   0  0  0  0  0  0  0  0  0  0  0  0
    5.0119    0.6244   21.1774 H   0  0  0  0  0  0  0  0  0  0  0  0
    4.8157    1.3029   19.1123 C   0  0  0  0  0  0  0  0  0  0  0  0
    3.8809    1.8377   19.2646 H   0  0  0  0  0  0  0  0  0  0  0  0
  1  2  1  0
  2  3  2  0
  3  4  1  0
  4  5  1  0
  4  6  2  0
  6  7  1  0
  7  8  1  0
  7  9  1  0
  9 10  1  0
  9 11  1  0
 11 12  1  0
 11 13  1  0
 11 14  1  0
 14 15  2  0
 15 16  1  0
 15 17  1  0
 17 18  1  0
 17 19  2  0
 19 20  1  0
 19 21  1  0
 21 22  1  0
 21 23  2  0
 23 24  1  0
  6 25  1  0
 25 26  1  0
 25 27  2  0
 27 28  1  0
 27  2  1  0
 23 14  1  0
M  END
>  <cnnaffinity>  (1) 
-4.74397

>  <filename>  (1) 
Clc1ccccc1CNNc1cccnc1

$$$$
