
     RDKit          3D

 30 32  0  0  0  0  0  0  0  0999 V2000
    5.0202    1.8386   16.8770 H   0  0  0  0  0  0  0  0  0  0  0  0
    5.4250    1.3260   17.7454 C   0  0  0  0  0  0  0  0  0  0  0  0
    6.5792    0.6677   17.5556 N   0  0  0  0  0  0  0  0  0  0  0  0
    7.1078    0.0297   18.6038 C   0  0  0  0  0  0  0  0  0  0  0  0
    8.0542   -0.4840   18.4286 H   0  0  0  0  0  0  0  0  0  0  0  0
    6.5078    0.0053   19.8694 C   0  0  0  0  0  0  0  0  0  0  0  0
    7.2002   -0.7098   20.9349 C   0  0  0  0  0  0  0  0  0  0  0  0
    8.3752   -1.2562   20.8846 N   0  0  0  0  0  0  0  0  0  0  0  0
    8.6239   -1.6874   22.1811 C   0  0  0  0  0  0  0  0  0  0  0  0
    9.9634   -2.2581   22.5406 C   0  0  0  0  0  0  0  0  0  0  0  0
   10.3870   -2.6579   21.6194 H   0  0  0  0  0  0  0  0  0  0  0  0
    9.8355   -3.1106   23.2220 H   0  0  0  0  0  0  0  0  0  0  0  0
   10.9117   -1.2368   23.1661 C   0  0  0  0  0  0  0  0  0  0  0  0
   10.5963   -0.6830   24.4196 C   0  0  0  0  0  0  0  0  0  0  0  0
    9.6834   -1.0002   24.9118 H   0  0  0  0  0  0  0  0  0  0  0  0
   11.4298    0.2337   25.0575 C   0  0  0  0  0  0  0  0  0  0  0  0
   11.1790    0.5945   26.0574 H   0  0  0  0  0  0  0  0  0  0  0  0
   12.5939    0.6593   24.4151 C   0  0  0  0  0  0  0  0  0  0  0  0
   13.2298    1.3980   24.8864 H   0  0  0  0  0  0  0  0  0  0  0  0
   12.9297    0.1598   23.1544 C   0  0  0  0  0  0  0  0  0  0  0  0
   13.7909    0.5311   22.6042 H   0  0  0  0  0  0  0  0  0  0  0  0
   12.1019   -0.7991   22.5580 C   0  0  0  0  0  0  0  0  0  0  0  0
   12.6359   -1.4914   21.0508 Cl  0  0  0  0  0  0  0  0  0  0  0  0
    7.5435   -1.3987   22.9428 C   0  0  0  0  0  0  0  0  0  0  0  0
    7.2607   -1.5577   23.9718 H   0  0  0  0  0  0  0  0  0  0  0  0
    6.6198   -0.7775   22.1513 O   0  0  0  0  0  0  0  0  0  0  0  0
    5.3061    0.7109   20.0606 C   0  0  0  0  0  0  0  0  0  0  0  0
    4.8304    0.7463   21.0411 H   0  0  0  0  0  0  0  0  0  0  0  0
    4.7537    1.3776   18.9725 C   0  0  0  0  0  0  0  0  0  0  0  0
    3.8322    1.9463   19.0616 H   0  0  0  0  0  0  0  0  0  0  0  0
  1  2  1  0
  2  3  2  0
  3  4  1  0
  4  5  1  0
  4  6  2  0
  6  7  1  0
  7  8  2  0
  8  9  1  0
  9 10  1  0
 10 11  1  0
 10 12  1  0
 10 13  1  0
 13 14  2  0
 14 15  1  0
 14 16  1  0
 16 17  1  0
 16 18  2  0
 18 19  1  0
 18 20  1  0
 20 21  1  0
 20 22  2  0
 22 23  1  0
  9 24  2  0
 24 25  1  0
 24 26  1  0
  6 27  1  0
 27 28  1  0
 27 29  2  0
 29 30  1  0
 29  2  1  0
 26  7  1  0
 22 13  1  0
M  END
>  <cnnaffinity>  (1) 
-5.39302

>  <filename>  (1) 
Clc1ccccc1Cc1coc(-c2cccnc2)n1

$$$$
