
     RDKit          3D

 44 48  0  0  0  0  0  0  0  0999 V2000
   13.8159    6.1576   21.6812 Cl  0  0  0  0  0  0  0  0  0  0  0  0
   12.7272    4.8199   21.8798 C   0  0  0  0  0  0  0  0  0  0  0  0
   12.0196    4.6875   23.0774 C   0  0  0  0  0  0  0  0  0  0  0  0
   11.1210    3.6323   23.2115 C   0  0  0  0  0  0  0  0  0  0  0  0
   10.9175    2.7110   22.1631 C   0  0  0  0  0  0  0  0  0  0  0  0
    9.8724    1.6677   22.2887 C   0  0  0  0  0  0  0  0  0  0  0  0
    9.3450    0.9992   21.2733 N   0  0  0  0  0  0  0  0  0  0  0  0
    8.3459    0.2866   21.8531 N   0  0  0  0  0  0  0  0  0  0  0  0
    7.5355   -0.6024   21.0127 C   0  0  0  0  0  0  0  0  0  0  0  0
    6.7272    0.0842   19.9282 C   0  0  0  0  0  0  0  0  0  0  0  0
    5.4928    0.7016   20.1637 C   0  0  0  0  0  0  0  0  0  0  0  0
    4.8319    1.3241   19.1003 C   0  0  0  0  0  0  0  0  0  0  0  0
    5.4244    1.2960   17.8344 C   0  0  0  0  0  0  0  0  0  0  0  0
    6.5875    0.6824   17.5786 N   0  0  0  0  0  0  0  0  0  0  0  0
    7.2087    0.0962   18.6086 C   0  0  0  0  0  0  0  0  0  0  0  0
    8.1374   -0.4223   18.3682 H   0  0  0  0  0  0  0  0  0  0  0  0
    4.9419    1.7740   16.9832 H   0  0  0  0  0  0  0  0  0  0  0  0
    3.8793    1.8233   19.2333 H   0  0  0  0  0  0  0  0  0  0  0  0
    5.0450    0.6834   21.1611 H   0  0  0  0  0  0  0  0  0  0  0  0
    6.8684   -1.1661   21.6711 H   0  0  0  0  0  0  0  0  0  0  0  0
    8.2316   -1.3126   20.5521 H   0  0  0  0  0  0  0  0  0  0  0  0
    8.3703    0.4984   23.1986 C   0  0  0  0  0  0  0  0  0  0  0  0
    7.3569   -0.0022   24.1880 C   0  0  0  0  0  0  0  0  0  0  0  0
    7.8666   -0.0148   25.6735 C   0  0  0  0  0  0  0  0  0  0  0  0
    6.7121    0.5383   26.4365 C   0  0  0  0  0  0  0  0  0  0  0  0
    6.4244    0.7614   27.6928 N   0  0  0  0  0  0  0  0  0  0  0  0
    5.1581    1.3041   27.6522 C   0  0  0  0  0  0  0  0  0  0  0  0
    4.6956    1.4126   26.3661 C   0  0  0  0  0  0  0  0  0  0  0  0
    5.7181    0.9158   25.5903 N   0  0  0  0  0  0  0  0  0  0  0  0
    6.0808    0.9091   24.1915 C   0  0  0  0  0  0  0  0  0  0  0  0
    6.3142    1.9293   23.8528 H   0  0  0  0  0  0  0  0  0  0  0  0
    5.2713    0.5159   23.5669 H   0  0  0  0  0  0  0  0  0  0  0  0
    3.7791    1.7975   25.9436 H   0  0  0  0  0  0  0  0  0  0  0  0
    4.6541    1.5815   28.5677 H   0  0  0  0  0  0  0  0  0  0  0  0
    8.7472    0.6240   25.8019 H   0  0  0  0  0  0  0  0  0  0  0  0
    8.1305   -1.0168   26.0210 H   0  0  0  0  0  0  0  0  0  0  0  0
    7.0641   -1.0247   23.9288 H   0  0  0  0  0  0  0  0  0  0  0  0
    9.3189    1.3613   23.4888 N   0  0  0  0  0  0  0  0  0  0  0  0
   11.6881    2.8300   20.9935 C   0  0  0  0  0  0  0  0  0  0  0  0
   12.5860    3.8867   20.8499 C   0  0  0  0  0  0  0  0  0  0  0  0
   13.1766    3.9813   19.9497 H   0  0  0  0  0  0  0  0  0  0  0  0
   11.5443    2.1150   20.1900 H   0  0  0  0  0  0  0  0  0  0  0  0
   10.5619    3.4995   24.1348 H   0  0  0  0  0  0  0  0  0  0  0  0
   12.1725    5.4037   23.8809 H   0  0  0  0  0  0  0  0  0  0  0  0
  1  2  1  0
  2  3  2  0
  3  4  1  0
  4  5  2  0
  5  6  1  0
  6  7  2  0
  7  8  1  0
  8  9  1  0
  9 10  1  0
 10 11  2  0
 11 12  1  0
 12 13  2  0
 13 14  1  0
 14 15  2  0
 15 16  1  0
 13 17  1  0
 12 18  1  0
 11 19  1  0
  9 20  1  0
  9 21  1  0
  8 22  1  0
 22 23  1  0
 23 24  1  0
 24 25  1  0
 25 26  2  0
 26 27  1  0
 27 28  2  0
 28 29  1  0
 29 30  1  0
 30 31  1  0
 30 32  1  0
 28 33  1  0
 27 34  1  0
 24 35  1  0
 24 36  1  0
 23 37  1  0
 22 38  2  0
  5 39  1  0
 39 40  2  0
 40 41  1  0
 39 42  1  0
  4 43  1  0
  3 44  1  0
 40  2  1  0
 38  6  1  0
 15 10  1  0
 30 23  1  0
 29 25  1  0
M  END
>  <cnnaffinity>  (1) 
-6.2821

>  <filename>  (1) 
Clc1ccc(-c2nc(C3Cc4nccn4C3)n(Cc3cccnc3)n2)cc1

$$$$
