
     RDKit          3D

 33 35  0  0  0  0  0  0  0  0999 V2000
    6.9729   -5.7770   27.1792 Cl  0  0  0  0  0  0  0  0  0  0  0  0
    5.9069   -6.2008   25.8731 C   0  0  0  0  0  0  0  0  0  0  0  0
    5.1374   -7.3520   26.0041 C   0  0  0  0  0  0  0  0  0  0  0  0
    4.2895   -7.7461   24.9637 C   0  0  0  0  0  0  0  0  0  0  0  0
    4.1856   -6.9724   23.8050 C   0  0  0  0  0  0  0  0  0  0  0  0
    4.9383   -5.8053   23.6901 C   0  0  0  0  0  0  0  0  0  0  0  0
    5.8135   -5.4009   24.7172 C   0  0  0  0  0  0  0  0  0  0  0  0
    6.5741   -4.1997   24.5819 C   0  0  0  0  0  0  0  0  0  0  0  0
    7.2213   -3.1926   24.4846 C   0  0  0  0  0  0  0  0  0  0  0  0
    7.9860   -1.9621   24.2838 C   0  0  0  0  0  0  0  0  0  0  0  0
    8.0056   -1.5155   22.9018 N   0  0  0  0  0  0  0  0  0  0  0  0
    8.8732   -1.8890   21.9110 C   0  0  0  0  0  0  0  0  0  0  0  0
    8.5402   -1.4066   20.7442 N   0  0  0  0  0  0  0  0  0  0  0  0
    7.3798   -0.6966   20.9622 C   0  0  0  0  0  0  0  0  0  0  0  0
    6.6628    0.0070   19.9015 C   0  0  0  0  0  0  0  0  0  0  0  0
    5.4402    0.6536   20.1567 C   0  0  0  0  0  0  0  0  0  0  0  0
    4.8066    1.3091   19.1075 C   0  0  0  0  0  0  0  0  0  0  0  0
    5.4065    1.2889   17.8420 C   0  0  0  0  0  0  0  0  0  0  0  0
    6.5715    0.6739   17.5812 N   0  0  0  0  0  0  0  0  0  0  0  0
    7.1820    0.0569   18.5971 C   0  0  0  0  0  0  0  0  0  0  0  0
    8.1258   -0.4319   18.3789 H   0  0  0  0  0  0  0  0  0  0  0  0
    4.9182    1.7754   17.0018 H   0  0  0  0  0  0  0  0  0  0  0  0
    3.8739    1.8428   19.2623 H   0  0  0  0  0  0  0  0  0  0  0  0
    4.9961    0.6396   21.1552 H   0  0  0  0  0  0  0  0  0  0  0  0
    7.0284   -0.7651   22.2833 C   0  0  0  0  0  0  0  0  0  0  0  0
    6.1792   -0.3631   22.8204 H   0  0  0  0  0  0  0  0  0  0  0  0
    9.7334   -2.5192   22.1205 H   0  0  0  0  0  0  0  0  0  0  0  0
    7.5657   -1.1661   24.9047 H   0  0  0  0  0  0  0  0  0  0  0  0
    9.0121   -2.1068   24.6248 H   0  0  0  0  0  0  0  0  0  0  0  0
    4.8532   -5.1915   22.7999 H   0  0  0  0  0  0  0  0  0  0  0  0
    3.5166   -7.2716   23.0012 H   0  0  0  0  0  0  0  0  0  0  0  0
    3.7102   -8.6598   25.0596 H   0  0  0  0  0  0  0  0  0  0  0  0
    5.2441   -7.9471   26.9088 H   0  0  0  0  0  0  0  0  0  0  0  0
  1  2  1  0
  2  3  2  0
  3  4  1  0
  4  5  2  0
  5  6  1  0
  6  7  2  0
  7  8  1  0
  8  9  3  0
  9 10  1  0
 10 11  1  0
 11 12  1  0
 12 13  2  0
 13 14  1  0
 14 15  1  0
 15 16  2  0
 16 17  1  0
 17 18  2  0
 18 19  1  0
 19 20  2  0
 20 21  1  0
 18 22  1  0
 17 23  1  0
 16 24  1  0
 14 25  2  0
 25 26  1  0
 12 27  1  0
 10 28  1  0
 10 29  1  0
  6 30  1  0
  5 31  1  0
  4 32  1  0
  3 33  1  0
  7  2  1  0
 25 11  1  0
 20 15  1  0
M  END
>  <cnnaffinity>  (1) 
-5.57152

>  <filename>  (1) 
Clc1ccccc1C#CCn1cnc(-c2cccnc2)c1

$$$$
