
     RDKit          3D

 27 29  0  0  0  0  0  0  0  0999 V2000
    4.9304    1.8179   16.9772 H   0  0  0  0  0  0  0  0  0  0  0  0
    5.4024    1.3129   17.8204 C   0  0  0  0  0  0  0  0  0  0  0  0
    6.5644    0.6922   17.5680 N   0  0  0  0  0  0  0  0  0  0  0  0
    7.1650    0.0770   18.5973 C   0  0  0  0  0  0  0  0  0  0  0  0
    8.1156   -0.3968   18.3555 H   0  0  0  0  0  0  0  0  0  0  0  0
    6.6690    0.0291   19.9233 C   0  0  0  0  0  0  0  0  0  0  0  0
    7.4054   -0.6556   21.0237 C   0  0  0  0  0  0  0  0  0  0  0  0
    7.4288   -0.3297   22.4406 C   0  0  0  0  0  0  0  0  0  0  0  0
    6.9077    0.8624   23.1391 C   0  0  0  0  0  0  0  0  0  0  0  0
    6.0462    0.6956   24.2298 C   0  0  0  0  0  0  0  0  0  0  0  0
    5.8275   -0.3134   24.5695 H   0  0  0  0  0  0  0  0  0  0  0  0
    5.4944    1.8012   24.8678 C   0  0  0  0  0  0  0  0  0  0  0  0
    4.8000    1.6541   25.6861 H   0  0  0  0  0  0  0  0  0  0  0  0
    5.8218    3.0905   24.4495 C   0  0  0  0  0  0  0  0  0  0  0  0
    5.3804    3.9608   24.9218 H   0  0  0  0  0  0  0  0  0  0  0  0
    6.7076    3.2753   23.3848 C   0  0  0  0  0  0  0  0  0  0  0  0
    7.0673    4.8948   22.8908 Cl  0  0  0  0  0  0  0  0  0  0  0  0
    7.2647    2.1642   22.7292 C   0  0  0  0  0  0  0  0  0  0  0  0
    8.4000    2.4008   21.4434 Cl  0  0  0  0  0  0  0  0  0  0  0  0
    8.1005   -1.2097   23.1358 N   0  0  0  0  0  0  0  0  0  0  0  0
    8.6019   -2.1023   22.2347 O   0  0  0  0  0  0  0  0  0  0  0  0
    8.2154   -1.7578   21.0094 C   0  0  0  0  0  0  0  0  0  0  0  0
    8.6524   -2.4018   20.2739 H   0  0  0  0  0  0  0  0  0  0  0  0
    5.4409    0.6808   20.1521 C   0  0  0  0  0  0  0  0  0  0  0  0
    5.0031    0.6914   21.1520 H   0  0  0  0  0  0  0  0  0  0  0  0
    4.8046    1.3270   19.0833 C   0  0  0  0  0  0  0  0  0  0  0  0
    3.8610    1.8420   19.2120 H   0  0  0  0  0  0  0  0  0  0  0  0
  1  2  1  0
  2  3  2  0
  3  4  1  0
  4  5  1  0
  4  6  2  0
  6  7  1  0
  7  8  1  0
  8  9  1  0
  9 10  2  0
 10 11  1  0
 10 12  1  0
 12 13  1  0
 12 14  2  0
 14 15  1  0
 14 16  1  0
 16 17  1  0
 16 18  2  0
 18 19  1  0
  8 20  2  0
 20 21  1  0
 21 22  1  0
 22 23  1  0
  6 24  1  0
 24 25  1  0
 24 26  2  0
 26 27  1  0
 26  2  1  0
 22  7  2  0
 18  9  1  0
M  END
>  <cnnaffinity>  (1) 
-4.84271

>  <filename>  (1) 
Clc1cccc(-c2nocc2-c2cccnc2)c1Cl

$$$$
