
     RDKit          3D

 45 48  0  0  0  0  0  0  0  0999 V2000
    8.7238   -8.7499   22.3593 Cl  0  0  0  0  0  0  0  0  0  0  0  0
    7.8371   -7.2548   22.4916 C   0  0  0  0  0  0  0  0  0  0  0  0
    6.4966   -7.1271   22.8642 C   0  0  0  0  0  0  0  0  0  0  0  0
    6.1245   -5.9337   23.4986 C   0  0  0  0  0  0  0  0  0  0  0  0
    7.0640   -4.9010   23.6722 C   0  0  0  0  0  0  0  0  0  0  0  0
    6.7120   -3.7737   24.4871 N   0  0  0  0  0  0  0  0  0  0  0  0
    6.9327   -3.7257   25.8199 N   0  0  0  0  0  0  0  0  0  0  0  0
    5.4115   -2.2437   25.3042 C   0  0  0  0  0  0  0  0  0  0  0  0
    4.2047   -1.4326   25.7158 C   0  0  0  0  0  0  0  0  0  0  0  0
    4.4019    0.0754   26.0210 C   0  0  0  0  0  0  0  0  0  0  0  0
    3.4398    0.3293   27.2085 C   0  0  0  0  0  0  0  0  0  0  0  0
    2.7060   -0.8683   27.3934 O   0  0  0  0  0  0  0  0  0  0  0  0
    3.5376   -1.9408   27.0120 C   0  0  0  0  0  0  0  0  0  0  0  0
    2.8922   -2.8127   26.8586 H   0  0  0  0  0  0  0  0  0  0  0  0
    4.2885   -2.1800   27.7862 H   0  0  0  0  0  0  0  0  0  0  0  0
    3.9989    0.5800   28.1244 H   0  0  0  0  0  0  0  0  0  0  0  0
    2.7242    1.1394   27.0324 H   0  0  0  0  0  0  0  0  0  0  0  0
    5.4311    0.3043   26.3110 H   0  0  0  0  0  0  0  0  0  0  0  0
    4.1600    0.7047   25.1564 H   0  0  0  0  0  0  0  0  0  0  0  0
    3.4394   -1.5162   24.9406 H   0  0  0  0  0  0  0  0  0  0  0  0
    6.1767   -2.7978   26.2902 N   0  0  0  0  0  0  0  0  0  0  0  0
    5.8878   -2.7645   24.0795 C   0  0  0  0  0  0  0  0  0  0  0  0
    6.0830   -2.2419   22.6676 C   0  0  0  0  0  0  0  0  0  0  0  0
    6.6910   -0.8292   22.6830 C   0  0  0  0  0  0  0  0  0  0  0  0
    7.3178   -0.5205   21.4482 O   0  0  0  0  0  0  0  0  0  0  0  0
    6.6274   -0.0258   20.3845 C   0  0  0  0  0  0  0  0  0  0  0  0
    5.3499    0.5464   20.4073 C   0  0  0  0  0  0  0  0  0  0  0  0
    4.8279    1.0402   19.2025 C   0  0  0  0  0  0  0  0  0  0  0  0
    5.5836    0.9502   18.0328 C   0  0  0  0  0  0  0  0  0  0  0  0
    6.8147    0.4073   17.9984 N   0  0  0  0  0  0  0  0  0  0  0  0
    7.3135   -0.0549   19.1473 C   0  0  0  0  0  0  0  0  0  0  0  0
    8.3165   -0.4787   19.1391 H   0  0  0  0  0  0  0  0  0  0  0  0
    5.1990    1.3220   17.0861 H   0  0  0  0  0  0  0  0  0  0  0  0
    3.8509    1.5115   19.1689 H   0  0  0  0  0  0  0  0  0  0  0  0
    4.7835    0.6309   21.3335 H   0  0  0  0  0  0  0  0  0  0  0  0
    5.9685   -0.0536   22.9789 H   0  0  0  0  0  0  0  0  0  0  0  0
    7.5172   -0.7870   23.3966 H   0  0  0  0  0  0  0  0  0  0  0  0
    5.1693   -2.2914   22.0683 H   0  0  0  0  0  0  0  0  0  0  0  0
    6.7828   -2.8983   22.1457 H   0  0  0  0  0  0  0  0  0  0  0  0
    8.3105   -4.9586   23.0353 C   0  0  0  0  0  0  0  0  0  0  0  0
    8.6648   -6.1497   22.4050 C   0  0  0  0  0  0  0  0  0  0  0  0
    9.5528   -6.3608   21.8380 H   0  0  0  0  0  0  0  0  0  0  0  0
    8.9732   -4.1001   23.0984 H   0  0  0  0  0  0  0  0  0  0  0  0
    5.1309   -5.8237   23.9216 H   0  0  0  0  0  0  0  0  0  0  0  0
    5.8235   -7.9748   22.7970 H   0  0  0  0  0  0  0  0  0  0  0  0
  1  2  1  0
  2  3  2  0
  3  4  1  0
  4  5  2  0
  5  6  1  0
  6  7  1  0
  7  8  2  0
  8  9  1  0
  9 10  1  0
 10 11  1  0
 11 12  1  0
 12 13  1  0
 13 14  1  0
 13 15  1  0
 11 16  1  0
 11 17  1  0
 10 18  1  0
 10 19  1  0
  9 20  1  0
  8 21  1  0
 21 22  2  0
 22 23  1  0
 23 24  1  0
 24 25  1  0
 25 26  1  0
 26 27  2  0
 27 28  1  0
 28 29  2  0
 29 30  1  0
 30 31  2  0
 31 32  1  0
 29 33  1  0
 28 34  1  0
 27 35  1  0
 24 36  1  0
 24 37  1  0
 23 38  1  0
 23 39  1  0
  5 40  1  0
 40 41  2  0
 41 42  1  0
 40 43  1  0
  4 44  1  0
  3 45  1  0
 41  2  1  0
 22  6  1  0
 31 26  1  0
 13  9  1  0
M  END
>  <cnnaffinity>  (1) 
-5.61799

>  <filename>  (1) 
Clc1ccc(-n2nc(C3CCOC3)nc2CCOc2cccnc2)cc1

$$$$
