
     RDKit          3D

 38 41  0  0  0  0  0  0  0  0999 V2000
    5.0740    1.9703   17.0105 H   0  0  0  0  0  0  0  0  0  0  0  0
    5.3289    1.2842   17.8137 C   0  0  0  0  0  0  0  0  0  0  0  0
    6.3208    0.4157   17.5631 N   0  0  0  0  0  0  0  0  0  0  0  0
    6.6646   -0.4053   18.5567 C   0  0  0  0  0  0  0  0  0  0  0  0
    7.4729   -1.1004   18.3317 H   0  0  0  0  0  0  0  0  0  0  0  0
    6.1044   -0.3853   19.8466 C   0  0  0  0  0  0  0  0  0  0  0  0
    6.8295   -1.1299   20.8879 C   0  0  0  0  0  0  0  0  0  0  0  0
    6.2656   -1.8816   21.8330 N   0  0  0  0  0  0  0  0  0  0  0  0
    7.3150   -2.3208   22.5409 N   0  0  0  0  0  0  0  0  0  0  0  0
    8.5017   -1.8754   22.1085 C   0  0  0  0  0  0  0  0  0  0  0  0
    8.2495   -1.0790   21.0185 C   0  0  0  0  0  0  0  0  0  0  0  0
    9.2084   -0.1632   20.2958 C   0  0  0  0  0  0  0  0  0  0  0  0
    9.5903   -0.6434   19.3851 H   0  0  0  0  0  0  0  0  0  0  0  0
    8.6390    0.7138   19.9600 H   0  0  0  0  0  0  0  0  0  0  0  0
   10.3392    0.3288   21.1634 C   0  0  0  0  0  0  0  0  0  0  0  0
   10.1336    1.4879   21.9160 C   0  0  0  0  0  0  0  0  0  0  0  0
    9.1554    1.9528   21.8786 H   0  0  0  0  0  0  0  0  0  0  0  0
   11.1490    2.0430   22.6885 C   0  0  0  0  0  0  0  0  0  0  0  0
   11.0056    2.9990   23.1833 H   0  0  0  0  0  0  0  0  0  0  0  0
   12.3745    1.3815   22.7894 C   0  0  0  0  0  0  0  0  0  0  0  0
   13.5940    2.0737   23.7830 Cl  0  0  0  0  0  0  0  0  0  0  0  0
   12.5771    0.1709   22.1121 C   0  0  0  0  0  0  0  0  0  0  0  0
   14.0783   -0.6872   22.2325 Cl  0  0  0  0  0  0  0  0  0  0  0  0
   11.5663   -0.3315   21.2816 C   0  0  0  0  0  0  0  0  0  0  0  0
   11.7715   -1.2426   20.7295 H   0  0  0  0  0  0  0  0  0  0  0  0
    9.5776   -2.2339   23.0825 C   0  0  0  0  0  0  0  0  0  0  0  0
    9.9414   -1.3135   23.5444 H   0  0  0  0  0  0  0  0  0  0  0  0
   10.4355   -2.6987   22.5948 H   0  0  0  0  0  0  0  0  0  0  0  0
    8.8602   -3.1602   24.0925 C   0  0  0  0  0  0  0  0  0  0  0  0
    9.1962   -4.1900   23.9704 H   0  0  0  0  0  0  0  0  0  0  0  0
    9.0725   -2.8620   25.1193 H   0  0  0  0  0  0  0  0  0  0  0  0
    7.3362   -3.0653   23.7830 C   0  0  0  0  0  0  0  0  0  0  0  0
    6.8707   -4.0431   23.6368 H   0  0  0  0  0  0  0  0  0  0  0  0
    6.7777   -2.5256   24.5550 H   0  0  0  0  0  0  0  0  0  0  0  0
    5.0107    0.4716   20.0625 C   0  0  0  0  0  0  0  0  0  0  0  0
    4.5020    0.4918   21.0272 H   0  0  0  0  0  0  0  0  0  0  0  0
    4.6297    1.3261   19.0258 C   0  0  0  0  0  0  0  0  0  0  0  0
    3.8282    2.0496   19.1520 H   0  0  0  0  0  0  0  0  0  0  0  0
  1  2  1  0
  2  3  2  0
  3  4  1  0
  4  5  1  0
  4  6  2  0
  6  7  1  0
  7  8  2  0
  8  9  1  0
  9 10  1  0
 10 11  2  0
 11 12  1  0
 12 13  1  0
 12 14  1  0
 12 15  1  0
 15 16  2  0
 16 17  1  0
 16 18  1  0
 18 19  1  0
 18 20  2  0
 20 21  1  0
 20 22  1  0
 22 23  1  0
 22 24  2  0
 24 25  1  0
 10 26  1  0
 26 27  1  0
 26 28  1  0
 26 29  1  0
 29 30  1  0
 29 31  1  0
 29 32  1  0
 32 33  1  0
 32 34  1  0
  6 35  1  0
 35 36  1  0
 35 37  2  0
 37 38  1  0
 37  2  1  0
 11  7  1  0
 24 15  1  0
 32  9  1  0
M  END
>  <cnnaffinity>  (1) 
-6.45648

>  <filename>  (1) 
Clc1ccc(Cc2c(-c3cccnc3)nn3c2CCC3)cc1Cl

$$$$
