
     RDKit          3D

 32 35  0  0  0  0  0  0  0  0999 V2000
    4.9230    1.7743   17.0013 H   0  0  0  0  0  0  0  0  0  0  0  0
    5.4072    1.2879   17.8455 C   0  0  0  0  0  0  0  0  0  0  0  0
    6.5714    0.6698   17.5918 N   0  0  0  0  0  0  0  0  0  0  0  0
    7.1753    0.0570   18.6123 C   0  0  0  0  0  0  0  0  0  0  0  0
    8.1224   -0.4272   18.3724 H   0  0  0  0  0  0  0  0  0  0  0  0
    6.6477    0.0110   19.9142 C   0  0  0  0  0  0  0  0  0  0  0  0
    7.3470   -0.6867   20.9958 C   0  0  0  0  0  0  0  0  0  0  0  0
    6.8506   -0.7878   22.1889 N   0  0  0  0  0  0  0  0  0  0  0  0
    7.7314   -1.4601   22.9829 N   0  0  0  0  0  0  0  0  0  0  0  0
    7.8463   -1.7590   24.3232 C   0  0  0  0  0  0  0  0  0  0  0  0
    6.8434   -1.3732   25.3634 C   0  0  0  0  0  0  0  0  0  0  0  0
    7.1139   -1.8911   26.2883 H   0  0  0  0  0  0  0  0  0  0  0  0
    5.8530   -1.7203   25.0477 H   0  0  0  0  0  0  0  0  0  0  0  0
    6.8292    0.1313   25.5644 C   0  0  0  0  0  0  0  0  0  0  0  0
    5.8672    0.9137   24.9125 C   0  0  0  0  0  0  0  0  0  0  0  0
    5.1342    0.4094   24.2917 H   0  0  0  0  0  0  0  0  0  0  0  0
    5.8542    2.3047   25.0330 C   0  0  0  0  0  0  0  0  0  0  0  0
    5.0940    2.8897   24.5237 H   0  0  0  0  0  0  0  0  0  0  0  0
    6.8272    2.9344   25.8126 C   0  0  0  0  0  0  0  0  0  0  0  0
    6.8241    4.0142   25.9169 H   0  0  0  0  0  0  0  0  0  0  0  0
    7.8120    2.1830   26.4579 C   0  0  0  0  0  0  0  0  0  0  0  0
    8.5743    2.6612   27.0650 H   0  0  0  0  0  0  0  0  0  0  0  0
    7.8116    0.7919   26.3210 C   0  0  0  0  0  0  0  0  0  0  0  0
    9.0611   -0.1073   27.1287 Cl  0  0  0  0  0  0  0  0  0  0  0  0
    8.9956   -2.3414   24.5292 N   0  0  0  0  0  0  0  0  0  0  0  0
    9.6762   -2.4262   23.3298 N   0  0  0  0  0  0  0  0  0  0  0  0
    8.9019   -1.8780   22.4373 C   0  0  0  0  0  0  0  0  0  0  0  0
    8.9399   -1.4433   20.7495 S   0  0  0  0  0  0  0  0  0  0  0  0
    5.4274    0.6579   20.1632 C   0  0  0  0  0  0  0  0  0  0  0  0
    4.9985    0.6341   21.1682 H   0  0  0  0  0  0  0  0  0  0  0  0
    4.8021    1.3120   19.1075 C   0  0  0  0  0  0  0  0  0  0  0  0
    3.8707    1.8461   19.2585 H   0  0  0  0  0  0  0  0  0  0  0  0
  1  2  1  0
  2  3  2  0
  3  4  1  0
  4  5  1  0
  4  6  2  0
  6  7  1  0
  7  8  2  0
  8  9  1  0
  9 10  1  0
 10 11  1  0
 11 12  1  0
 11 13  1  0
 11 14  1  0
 14 15  2  0
 15 16  1  0
 15 17  1  0
 17 18  1  0
 17 19  2  0
 19 20  1  0
 19 21  1  0
 21 22  1  0
 21 23  2  0
 23 24  1  0
 10 25  2  0
 25 26  1  0
 26 27  2  0
 27 28  1  0
  6 29  1  0
 29 30  1  0
 29 31  2  0
 31 32  1  0
 31  2  1  0
 28  7  1  0
 27  9  1  0
 23 14  1  0
M  END
>  <cnnaffinity>  (1) 
-5.56596

>  <filename>  (1) 
Clc1ccccc1Cc1nnc2sc(-c3cccnc3)nn12

$$$$
