
     RDKit          3D

 25 26  0  0  0  0  0  0  0  0999 V2000
    4.9509    1.8552   16.9954 H   0  0  0  0  0  0  0  0  0  0  0  0
    5.3924    1.2833   17.8087 C   0  0  0  0  0  0  0  0  0  0  0  0
    6.5438    0.6506   17.5289 N   0  0  0  0  0  0  0  0  0  0  0  0
    7.1485   -0.0014   18.5306 C   0  0  0  0  0  0  0  0  0  0  0  0
    8.0944   -0.4863   18.2822 H   0  0  0  0  0  0  0  0  0  0  0  0
    6.6497   -0.0640   19.8479 C   0  0  0  0  0  0  0  0  0  0  0  0
    7.5653   -0.9074   21.1309 S   0  0  0  0  0  0  0  0  0  0  0  0
    8.6304    0.4541   21.7697 C   0  0  0  0  0  0  0  0  0  0  0  0
    9.3513   -0.0245   22.4365 H   0  0  0  0  0  0  0  0  0  0  0  0
    9.2009    0.8674   20.9289 H   0  0  0  0  0  0  0  0  0  0  0  0
    7.8696    1.5764   22.4434 C   0  0  0  0  0  0  0  0  0  0  0  0
    7.6353    2.7166   21.6676 C   0  0  0  0  0  0  0  0  0  0  0  0
    8.0800    2.7325   20.6829 H   0  0  0  0  0  0  0  0  0  0  0  0
    6.8611    3.7823   22.1162 C   0  0  0  0  0  0  0  0  0  0  0  0
    6.6663    4.6326   21.4643 H   0  0  0  0  0  0  0  0  0  0  0  0
    6.3218    3.7364   23.4026 C   0  0  0  0  0  0  0  0  0  0  0  0
    5.6981    4.5390   23.7762 H   0  0  0  0  0  0  0  0  0  0  0  0
    6.5667    2.6243   24.2202 C   0  0  0  0  0  0  0  0  0  0  0  0
    5.8529    2.6166   25.8013 Cl  0  0  0  0  0  0  0  0  0  0  0  0
    7.3385    1.5413   23.7505 C   0  0  0  0  0  0  0  0  0  0  0  0
    7.6151    0.1548   24.7554 Cl  0  0  0  0  0  0  0  0  0  0  0  0
    5.4256    0.5761   20.1076 C   0  0  0  0  0  0  0  0  0  0  0  0
    5.0152    0.5659   21.1191 H   0  0  0  0  0  0  0  0  0  0  0  0
    4.7854    1.2619   19.0680 C   0  0  0  0  0  0  0  0  0  0  0  0
    3.8560    1.8049   19.2233 H   0  0  0  0  0  0  0  0  0  0  0  0
  1  2  1  0
  2  3  2  0
  3  4  1  0
  4  5  1  0
  4  6  2  0
  6  7  1  0
  7  8  1  0
  8  9  1  0
  8 10  1  0
  8 11  1  0
 11 12  2  0
 12 13  1  0
 12 14  1  0
 14 15  1  0
 14 16  2  0
 16 17  1  0
 16 18  1  0
 18 19  1  0
 18 20  2  0
 20 21  1  0
  6 22  1  0
 22 23  1  0
 22 24  2  0
 24 25  1  0
 24  2  1  0
 20 11  1  0
M  END
>  <cnnaffinity>  (1) 
-4.99226

>  <filename>  (1) 
Clc1cccc(CSc2cccnc2)c1Cl

$$$$
