
     RDKit          3D

 35 37  0  0  0  0  0  0  0  0999 V2000
    4.9374    1.8484   16.8797 H   0  0  0  0  0  0  0  0  0  0  0  0
    5.3908    1.3614   17.7426 C   0  0  0  0  0  0  0  0  0  0  0  0
    6.5480    0.7148   17.5265 N   0  0  0  0  0  0  0  0  0  0  0  0
    7.1232    0.1011   18.5746 C   0  0  0  0  0  0  0  0  0  0  0  0
    8.0492   -0.4311   18.3537 H   0  0  0  0  0  0  0  0  0  0  0  0
    6.6040    0.1077   19.9027 C   0  0  0  0  0  0  0  0  0  0  0  0
    7.1529   -0.5849   21.0092 N   0  0  0  0  0  0  0  0  0  0  0  0
    7.6877    0.0970   22.1974 C   0  0  0  0  0  0  0  0  0  0  0  0
    7.1956    1.0650   22.3355 H   0  0  0  0  0  0  0  0  0  0  0  0
    8.7723    0.2815   22.0984 H   0  0  0  0  0  0  0  0  0  0  0  0
    7.4949   -0.7958   23.4403 C   0  0  0  0  0  0  0  0  0  0  0  0
    6.4132   -0.9754   23.5954 H   0  0  0  0  0  0  0  0  0  0  0  0
    7.8796   -0.2908   24.3329 H   0  0  0  0  0  0  0  0  0  0  0  0
    8.2410   -2.0440   23.2285 N   0  0  0  0  0  0  0  0  0  0  0  0
    8.6497   -2.8285   24.3282 C   0  0  0  0  0  0  0  0  0  0  0  0
    7.8489   -2.9955   25.4702 C   0  0  0  0  0  0  0  0  0  0  0  0
    6.8847   -2.4931   25.4923 H   0  0  0  0  0  0  0  0  0  0  0  0
    8.2749   -3.7937   26.5338 C   0  0  0  0  0  0  0  0  0  0  0  0
    7.6693   -3.8525   27.4335 H   0  0  0  0  0  0  0  0  0  0  0  0
    9.4803   -4.4931   26.4560 C   0  0  0  0  0  0  0  0  0  0  0  0
    9.8226   -5.1330   27.2685 H   0  0  0  0  0  0  0  0  0  0  0  0
   10.2790   -4.3485   25.3185 C   0  0  0  0  0  0  0  0  0  0  0  0
   11.7253   -5.2652   25.1782 Cl  0  0  0  0  0  0  0  0  0  0  0  0
    9.9069   -3.4785   24.2842 C   0  0  0  0  0  0  0  0  0  0  0  0
   11.0173   -3.1116   23.0103 Cl  0  0  0  0  0  0  0  0  0  0  0  0
    7.7063   -2.7673   22.0669 C   0  0  0  0  0  0  0  0  0  0  0  0
    8.2971   -3.6694   21.8800 H   0  0  0  0  0  0  0  0  0  0  0  0
    6.6641   -3.0895   22.2423 H   0  0  0  0  0  0  0  0  0  0  0  0
    7.7556   -1.8942   20.8032 C   0  0  0  0  0  0  0  0  0  0  0  0
    8.8070   -1.8208   20.4662 H   0  0  0  0  0  0  0  0  0  0  0  0
    7.1665   -2.3894   20.0258 H   0  0  0  0  0  0  0  0  0  0  0  0
    5.3975    0.8043   20.0900 C   0  0  0  0  0  0  0  0  0  0  0  0
    4.9684    0.8116   21.0901 H   0  0  0  0  0  0  0  0  0  0  0  0
    4.7761    1.4178   18.9977 C   0  0  0  0  0  0  0  0  0  0  0  0
    3.8299    1.9331   19.1134 H   0  0  0  0  0  0  0  0  0  0  0  0
  1  2  1  0
  2  3  2  0
  3  4  1  0
  4  5  1  0
  4  6  2  0
  6  7  1  0
  7  8  1  0
  8  9  1  0
  8 10  1  0
  8 11  1  0
 11 12  1  0
 11 13  1  0
 11 14  1  0
 14 15  1  0
 15 16  2  0
 16 17  1  0
 16 18  1  0
 18 19  1  0
 18 20  2  0
 20 21  1  0
 20 22  1  0
 22 23  1  0
 22 24  2  0
 24 25  1  0
 14 26  1  0
 26 27  1  0
 26 28  1  0
 26 29  1  0
 29 30  1  0
 29 31  1  0
  6 32  1  0
 32 33  1  0
 32 34  2  0
 34 35  1  0
 34  2  1  0
 29  7  1  0
 24 15  1  0
M  END
>  <cnnaffinity>  (1) 
-5.557

>  <filename>  (1) 
Clc1cccc(N2CCN(c3cccnc3)CC2)c1Cl

$$$$
