
     RDKit          3D

 42 45  0  0  0  0  0  0  0  0999 V2000
   13.1359    0.9572   22.6359 Cl  0  0  0  0  0  0  0  0  0  0  0  0
   11.6304    0.1579   22.9702 C   0  0  0  0  0  0  0  0  0  0  0  0
   11.5385   -1.2237   22.7685 C   0  0  0  0  0  0  0  0  0  0  0  0
   10.3948   -1.8733   23.2301 C   0  0  0  0  0  0  0  0  0  0  0  0
    9.3450   -1.1015   23.7462 C   0  0  0  0  0  0  0  0  0  0  0  0
    8.1125   -1.6822   24.1333 N   0  0  0  0  0  0  0  0  0  0  0  0
    7.4415   -1.2565   25.2370 N   0  0  0  0  0  0  0  0  0  0  0  0
    6.3801   -2.0401   25.2433 C   0  0  0  0  0  0  0  0  0  0  0  0
    5.3400   -1.9755   26.2950 C   0  0  0  0  0  0  0  0  0  0  0  0
    4.7362   -0.6651   26.7138 C   0  0  0  0  0  0  0  0  0  0  0  0
    3.8972   -1.6743   25.9878 C   0  0  0  0  0  0  0  0  0  0  0  0
    3.1533   -2.2303   26.5514 H   0  0  0  0  0  0  0  0  0  0  0  0
    3.6122   -1.4683   24.9626 H   0  0  0  0  0  0  0  0  0  0  0  0
    5.0547    0.2169   26.1610 H   0  0  0  0  0  0  0  0  0  0  0  0
    4.5585   -0.5042   27.7737 H   0  0  0  0  0  0  0  0  0  0  0  0
    5.4946   -2.7265   27.0624 H   0  0  0  0  0  0  0  0  0  0  0  0
    6.2997   -2.9210   24.2117 N   0  0  0  0  0  0  0  0  0  0  0  0
    7.3717   -2.6356   23.5008 C   0  0  0  0  0  0  0  0  0  0  0  0
    7.5876   -3.0883   22.0915 C   0  0  0  0  0  0  0  0  0  0  0  0
    6.8470   -2.1946   21.0694 C   0  0  0  0  0  0  0  0  0  0  0  0
    7.3621   -0.7478   20.9866 C   0  0  0  0  0  0  0  0  0  0  0  0
    6.6740    0.0433   19.8878 C   0  0  0  0  0  0  0  0  0  0  0  0
    5.4517    0.6969   20.1186 C   0  0  0  0  0  0  0  0  0  0  0  0
    4.8032    1.3376   19.0598 C   0  0  0  0  0  0  0  0  0  0  0  0
    5.4000    1.3157   17.7971 C   0  0  0  0  0  0  0  0  0  0  0  0
    6.5620    0.6982   17.5414 N   0  0  0  0  0  0  0  0  0  0  0  0
    7.1727    0.0905   18.5711 C   0  0  0  0  0  0  0  0  0  0  0  0
    8.1215   -0.3864   18.3185 H   0  0  0  0  0  0  0  0  0  0  0  0
    4.9231    1.8120   16.9540 H   0  0  0  0  0  0  0  0  0  0  0  0
    3.8586    1.8514   19.1996 H   0  0  0  0  0  0  0  0  0  0  0  0
    5.0101    0.7097   21.1175 H   0  0  0  0  0  0  0  0  0  0  0  0
    8.4498   -0.7533   20.8307 H   0  0  0  0  0  0  0  0  0  0  0  0
    7.1956   -0.2526   21.9519 H   0  0  0  0  0  0  0  0  0  0  0  0
    5.7795   -2.1778   21.3176 H   0  0  0  0  0  0  0  0  0  0  0  0
    6.9166   -2.6563   20.0829 H   0  0  0  0  0  0  0  0  0  0  0  0
    7.2288   -4.1193   22.0294 H   0  0  0  0  0  0  0  0  0  0  0  0
    8.6510   -3.1041   21.8479 H   0  0  0  0  0  0  0  0  0  0  0  0
    9.5312    0.2836   23.8523 C   0  0  0  0  0  0  0  0  0  0  0  0
   10.6574    0.9007   23.4748 N   0  0  0  0  0  0  0  0  0  0  0  0
    8.7465    0.9019   24.2753 H   0  0  0  0  0  0  0  0  0  0  0  0
   10.3296   -2.9606   23.2336 H   0  0  0  0  0  0  0  0  0  0  0  0
   12.3269   -1.7660   22.2619 H   0  0  0  0  0  0  0  0  0  0  0  0
  1  2  1  0
  2  3  2  0
  3  4  1  0
  4  5  2  0
  5  6  1  0
  6  7  1  0
  7  8  2  0
  8  9  1  0
  9 10  1  0
 10 11  1  0
 11 12  1  0
 11 13  1  0
 10 14  1  0
 10 15  1  0
  9 16  1  0
  8 17  1  0
 17 18  2  0
 18 19  1  0
 19 20  1  0
 20 21  1  0
 21 22  1  0
 22 23  2  0
 23 24  1  0
 24 25  2  0
 25 26  1  0
 26 27  2  0
 27 28  1  0
 25 29  1  0
 24 30  1  0
 23 31  1  0
 21 32  1  0
 21 33  1  0
 20 34  1  0
 20 35  1  0
 19 36  1  0
 19 37  1  0
  5 38  1  0
 38 39  2  0
 38 40  1  0
  4 41  1  0
  3 42  1  0
 39  2  1  0
 18  6  1  0
 27 22  1  0
 11  9  1  0
M  END
>  <cnnaffinity>  (1) 
-6.33376

>  <filename>  (1) 
Clc1ccc(-n2nc(C3CC3)nc2CCCc2cccnc2)cn1

$$$$
