
     RDKit          3D

 35 37  0  0  0  0  0  0  0  0999 V2000
    5.1168    1.7597   16.9961 H   0  0  0  0  0  0  0  0  0  0  0  0
    5.5604    1.2447   17.8478 C   0  0  0  0  0  0  0  0  0  0  0  0
    6.7168    0.6100   17.6182 N   0  0  0  0  0  0  0  0  0  0  0  0
    7.2872   -0.0239   18.6572 C   0  0  0  0  0  0  0  0  0  0  0  0
    8.2194   -0.5246   18.4038 H   0  0  0  0  0  0  0  0  0  0  0  0
    6.7722   -0.0505   19.9715 C   0  0  0  0  0  0  0  0  0  0  0  0
    7.4421   -0.7769   21.1683 C   0  0  0  0  0  0  0  0  0  0  0  0
    6.6173   -2.0533   21.5241 C   0  0  0  0  0  0  0  0  0  0  0  0
    6.2780   -2.9504   20.4908 C   0  0  0  0  0  0  0  0  0  0  0  0
    6.4935   -2.6755   19.4611 H   0  0  0  0  0  0  0  0  0  0  0  0
    5.6277   -4.1581   20.7486 C   0  0  0  0  0  0  0  0  0  0  0  0
    5.3938   -4.8155   19.9141 H   0  0  0  0  0  0  0  0  0  0  0  0
    5.2526   -4.4953   22.0479 C   0  0  0  0  0  0  0  0  0  0  0  0
    4.7183   -5.4167   22.2770 H   0  0  0  0  0  0  0  0  0  0  0  0
    5.5530   -3.6026   23.0759 C   0  0  0  0  0  0  0  0  0  0  0  0
    5.0359   -4.0230   24.6889 Cl  0  0  0  0  0  0  0  0  0  0  0  0
    6.2341   -2.4020   22.8365 C   0  0  0  0  0  0  0  0  0  0  0  0
    6.3863   -1.7351   23.6810 H   0  0  0  0  0  0  0  0  0  0  0  0
    7.5733    0.2034   22.3788 C   0  0  0  0  0  0  0  0  0  0  0  0
    7.9883   -0.3547   23.2273 H   0  0  0  0  0  0  0  0  0  0  0  0
    6.5955    0.5984   22.6733 H   0  0  0  0  0  0  0  0  0  0  0  0
    8.5470    1.3457   22.0833 C   0  0  0  0  0  0  0  0  0  0  0  0
    8.6614    2.0062   22.9492 H   0  0  0  0  0  0  0  0  0  0  0  0
    8.1844    1.9566   21.2370 H   0  0  0  0  0  0  0  0  0  0  0  0
    9.8408    0.8352   21.8130 O   0  0  0  0  0  0  0  0  0  0  0  0
    9.8594   -0.0328   20.6979 C   0  0  0  0  0  0  0  0  0  0  0  0
    9.6060    0.5459   19.7963 H   0  0  0  0  0  0  0  0  0  0  0  0
   10.8892   -0.3962   20.6110 H   0  0  0  0  0  0  0  0  0  0  0  0
    8.9016   -1.2126   20.8504 C   0  0  0  0  0  0  0  0  0  0  0  0
    9.2540   -1.8525   21.6654 H   0  0  0  0  0  0  0  0  0  0  0  0
    8.9324   -1.8245   19.9492 H   0  0  0  0  0  0  0  0  0  0  0  0
    5.5326    0.5786   20.1624 C   0  0  0  0  0  0  0  0  0  0  0  0
    5.0413    0.5362   21.1385 H   0  0  0  0  0  0  0  0  0  0  0  0
    4.9292    1.2475   19.0958 C   0  0  0  0  0  0  0  0  0  0  0  0
    3.9835    1.7654   19.2215 H   0  0  0  0  0  0  0  0  0  0  0  0
  1  2  1  0
  2  3  2  0
  3  4  1  0
  4  5  1  0
  4  6  2  0
  6  7  1  0
  7  8  1  0
  8  9  2  0
  9 10  1  0
  9 11  1  0
 11 12  1  0
 11 13  2  0
 13 14  1  0
 13 15  1  0
 15 16  1  0
 15 17  2  0
 17 18  1  0
  7 19  1  0
 19 20  1  0
 19 21  1  0
 19 22  1  0
 22 23  1  0
 22 24  1  0
 22 25  1  0
 25 26  1  0
 26 27  1  0
 26 28  1  0
 26 29  1  0
 29 30  1  0
 29 31  1  0
  6 32  1  0
 32 33  1  0
 32 34  2  0
 34 35  1  0
 34  2  1  0
 29  7  1  0
 17  8  1  0
M  END
>  <cnnaffinity>  (1) 
-4.11271

>  <filename>  (1) 
Clc1cccc(C2(c3cccnc3)CCOCC2)c1

$$$$
