
     RDKit          3D

 41 44  0  0  0  0  0  0  0  0999 V2000
    9.2777    3.1769   25.6024 Cl  0  0  0  0  0  0  0  0  0  0  0  0
    7.6254    2.7472   25.9519 C   0  0  0  0  0  0  0  0  0  0  0  0
    7.1178    3.2992   27.1341 C   0  0  0  0  0  0  0  0  0  0  0  0
    5.8145    3.0247   27.5396 C   0  0  0  0  0  0  0  0  0  0  0  0
    5.0147    2.1862   26.7559 C   0  0  0  0  0  0  0  0  0  0  0  0
    5.5065    1.6375   25.5702 C   0  0  0  0  0  0  0  0  0  0  0  0
    6.8264    1.9083   25.1344 C   0  0  0  0  0  0  0  0  0  0  0  0
    7.3416    1.3379   23.8667 C   0  0  0  0  0  0  0  0  0  0  0  0
    6.7397    0.3779   23.1728 N   0  0  0  0  0  0  0  0  0  0  0  0
    7.5702    0.1892   22.1201 N   0  0  0  0  0  0  0  0  0  0  0  0
    7.2613   -0.7362   21.0375 C   0  0  0  0  0  0  0  0  0  0  0  0
    6.6178   -0.0628   19.8373 C   0  0  0  0  0  0  0  0  0  0  0  0
    5.4193    0.6387   20.0102 C   0  0  0  0  0  0  0  0  0  0  0  0
    4.8765    1.3222   18.9228 C   0  0  0  0  0  0  0  0  0  0  0  0
    5.5352    1.2642   17.6918 C   0  0  0  0  0  0  0  0  0  0  0  0
    6.6648    0.5672   17.4957 N   0  0  0  0  0  0  0  0  0  0  0  0
    7.1859   -0.0699   18.5546 C   0  0  0  0  0  0  0  0  0  0  0  0
    8.1144   -0.6127   18.3620 H   0  0  0  0  0  0  0  0  0  0  0  0
    5.1375    1.7988   16.8294 H   0  0  0  0  0  0  0  0  0  0  0  0
    3.9774    1.9175   19.0298 H   0  0  0  0  0  0  0  0  0  0  0  0
    4.9495    0.6666   20.9947 H   0  0  0  0  0  0  0  0  0  0  0  0
    8.2027   -1.2221   20.7574 H   0  0  0  0  0  0  0  0  0  0  0  0
    6.5971   -1.4993   21.4566 H   0  0  0  0  0  0  0  0  0  0  0  0
    8.6106    1.0454   22.2133 C   0  0  0  0  0  0  0  0  0  0  0  0
    9.7416    1.1769   21.2303 C   0  0  0  0  0  0  0  0  0  0  0  0
   10.9849    0.4007   21.5632 C   0  0  0  0  0  0  0  0  0  0  0  0
   11.9712    0.6931   22.4767 C   0  0  0  0  0  0  0  0  0  0  0  0
   12.9161   -0.3669   22.4486 C   0  0  0  0  0  0  0  0  0  0  0  0
   12.4928   -1.2717   21.5123 C   0  0  0  0  0  0  0  0  0  0  0  0
   11.3022   -0.8080   20.9989 N   0  0  0  0  0  0  0  0  0  0  0  0
   10.8401   -1.2026   20.1946 H   0  0  0  0  0  0  0  0  0  0  0  0
   12.9457   -2.1950   21.1702 H   0  0  0  0  0  0  0  0  0  0  0  0
   13.7832   -0.4545   23.0893 H   0  0  0  0  0  0  0  0  0  0  0  0
   12.0323    1.5747   23.1088 H   0  0  0  0  0  0  0  0  0  0  0  0
    9.3701    0.9503   20.2259 H   0  0  0  0  0  0  0  0  0  0  0  0
   10.0311    2.2314   21.2447 H   0  0  0  0  0  0  0  0  0  0  0  0
    8.4881    1.7755   23.2888 N   0  0  0  0  0  0  0  0  0  0  0  0
    4.8627    0.9885   24.9736 H   0  0  0  0  0  0  0  0  0  0  0  0
    4.0018    1.9652   27.0748 H   0  0  0  0  0  0  0  0  0  0  0  0
    5.4236    3.4707   28.4534 H   0  0  0  0  0  0  0  0  0  0  0  0
    7.7572    3.9558   27.7140 H   0  0  0  0  0  0  0  0  0  0  0  0
  1  2  1  0
  2  3  2  0
  3  4  1  0
  4  5  2  0
  5  6  1  0
  6  7  2  0
  7  8  1  0
  8  9  2  0
  9 10  1  0
 10 11  1  0
 11 12  1  0
 12 13  2  0
 13 14  1  0
 14 15  2  0
 15 16  1  0
 16 17  2  0
 17 18  1  0
 15 19  1  0
 14 20  1  0
 13 21  1  0
 11 22  1  0
 11 23  1  0
 10 24  1  0
 24 25  1  0
 25 26  1  0
 26 27  2  0
 27 28  1  0
 28 29  2  0
 29 30  1  0
 30 31  1  0
 29 32  1  0
 28 33  1  0
 27 34  1  0
 25 35  1  0
 25 36  1  0
 24 37  2  0
  6 38  1  0
  5 39  1  0
  4 40  1  0
  3 41  1  0
  7  2  1  0
 37  8  1  0
 17 12  1  0
 30 26  1  0
M  END
>  <cnnaffinity>  (1) 
-5.97088

>  <filename>  (1) 
Clc1ccccc1-c1nc(Cc2ccc[nH]2)n(Cc2cccnc2)n1

$$$$
