
     RDKit          3D

 40 43  0  0  0  0  0  0  0  0999 V2000
    3.6369    1.2280   27.1927 Cl  0  0  0  0  0  0  0  0  0  0  0  0
    4.8329    1.1730   25.9410 C   0  0  0  0  0  0  0  0  0  0  0  0
    6.1422    0.7657   26.2087 C   0  0  0  0  0  0  0  0  0  0  0  0
    7.0409    0.7660   25.1430 C   0  0  0  0  0  0  0  0  0  0  0  0
    6.6094    1.1933   23.8807 C   0  0  0  0  0  0  0  0  0  0  0  0
    7.5374    1.2526   22.7118 C   0  0  0  0  0  0  0  0  0  0  0  0
    7.6560   -0.1257   22.1728 C   0  0  0  0  0  0  0  0  0  0  0  0
    8.2039   -1.0835   22.8955 N   0  0  0  0  0  0  0  0  0  0  0  0
    8.2867   -2.1178   22.0275 C   0  0  0  0  0  0  0  0  0  0  0  0
    8.7734   -3.5165   22.3436 C   0  0  0  0  0  0  0  0  0  0  0  0
    7.8006   -4.4174   23.1600 C   0  0  0  0  0  0  0  0  0  0  0  0
    8.7535   -5.3066   23.9701 C   0  0  0  0  0  0  0  0  0  0  0  0
    9.9386   -4.3670   24.1885 C   0  0  0  0  0  0  0  0  0  0  0  0
   10.0223   -3.5594   23.0218 O   0  0  0  0  0  0  0  0  0  0  0  0
   10.8937   -4.8901   24.3118 H   0  0  0  0  0  0  0  0  0  0  0  0
    9.7754   -3.7029   25.0499 H   0  0  0  0  0  0  0  0  0  0  0  0
    9.0434   -6.2038   23.4064 H   0  0  0  0  0  0  0  0  0  0  0  0
    8.3352   -5.6474   24.9229 H   0  0  0  0  0  0  0  0  0  0  0  0
    7.1921   -3.7926   23.8250 H   0  0  0  0  0  0  0  0  0  0  0  0
    7.1240   -4.9860   22.5122 H   0  0  0  0  0  0  0  0  0  0  0  0
    8.8919   -3.9232   21.3392 H   0  0  0  0  0  0  0  0  0  0  0  0
    7.8110   -1.8611   20.8195 N   0  0  0  0  0  0  0  0  0  0  0  0
    7.3678   -0.5812   20.9211 N   0  0  0  0  0  0  0  0  0  0  0  0
    6.6272    0.0383   19.8771 C   0  0  0  0  0  0  0  0  0  0  0  0
    5.4134    0.6942   20.1220 C   0  0  0  0  0  0  0  0  0  0  0  0
    4.7865    1.3268   19.0428 C   0  0  0  0  0  0  0  0  0  0  0  0
    5.3968    1.2952   17.7857 C   0  0  0  0  0  0  0  0  0  0  0  0
    6.5395    0.6287   17.5438 N   0  0  0  0  0  0  0  0  0  0  0  0
    7.1295    0.0028   18.5656 C   0  0  0  0  0  0  0  0  0  0  0  0
    8.0536   -0.5314   18.3547 H   0  0  0  0  0  0  0  0  0  0  0  0
    4.9625    1.8310   16.9441 H   0  0  0  0  0  0  0  0  0  0  0  0
    3.8549    1.8627   19.1732 H   0  0  0  0  0  0  0  0  0  0  0  0
    4.9841    0.7192   21.1257 H   0  0  0  0  0  0  0  0  0  0  0  0
    7.1599    1.9742   21.9895 H   0  0  0  0  0  0  0  0  0  0  0  0
    8.5333    1.5831   23.0226 H   0  0  0  0  0  0  0  0  0  0  0  0
    5.3411    1.5157   23.6136 N   0  0  0  0  0  0  0  0  0  0  0  0
    4.4777    1.5335   24.6362 C   0  0  0  0  0  0  0  0  0  0  0  0
    3.4634    1.8621   24.4211 H   0  0  0  0  0  0  0  0  0  0  0  0
    8.0562    0.4034   25.2394 H   0  0  0  0  0  0  0  0  0  0  0  0
    6.4398    0.4630   27.2123 H   0  0  0  0  0  0  0  0  0  0  0  0
  1  2  1  0
  2  3  2  0
  3  4  1  0
  4  5  2  0
  5  6  1  0
  6  7  1  0
  7  8  2  0
  8  9  1  0
  9 10  1  0
 10 11  1  0
 11 12  1  0
 12 13  1  0
 13 14  1  0
 13 15  1  0
 13 16  1  0
 12 17  1  0
 12 18  1  0
 11 19  1  0
 11 20  1  0
 10 21  1  0
  9 22  2  0
 22 23  1  0
 23 24  1  0
 24 25  2  0
 25 26  1  0
 26 27  2  0
 27 28  1  0
 28 29  2  0
 29 30  1  0
 27 31  1  0
 26 32  1  0
 25 33  1  0
  6 34  1  0
  6 35  1  0
  5 36  1  0
 36 37  2  0
 37 38  1  0
  4 39  1  0
  3 40  1  0
 37  2  1  0
 23  7  1  0
 29 24  1  0
 14 10  1  0
M  END
>  <cnnaffinity>  (1) 
-6.26346

>  <filename>  (1) 
Clc1ccc(Cc2nc(C3CCCO3)nn2-c2cccnc2)nc1

$$$$
