
     RDKit          3D

 43 46  0  0  0  0  0  0  0  0999 V2000
    5.0406    1.8434   16.9892 H   0  0  0  0  0  0  0  0  0  0  0  0
    5.4878    1.3074   17.8223 C   0  0  0  0  0  0  0  0  0  0  0  0
    6.6322    0.6578   17.5649 N   0  0  0  0  0  0  0  0  0  0  0  0
    7.2075   -0.0178   18.5688 C   0  0  0  0  0  0  0  0  0  0  0  0
    8.1464   -0.5172   18.3242 H   0  0  0  0  0  0  0  0  0  0  0  0
    6.6839   -0.1002   19.8909 C   0  0  0  0  0  0  0  0  0  0  0  0
    7.3025   -0.8527   20.9027 N   0  0  0  0  0  0  0  0  0  0  0  0
    7.0178   -0.5912   22.3254 C   0  0  1  0  0  0  0  0  0  0  0  0
    5.9502   -0.6521   22.5127 H   0  0  0  0  0  0  0  0  0  0  0  0
    7.7498   -1.7598   23.0160 C   0  0  0  0  0  0  0  0  0  0  0  0
    7.0640   -2.6013   23.1406 H   0  0  0  0  0  0  0  0  0  0  0  0
    8.0942   -1.5037   24.0212 H   0  0  0  0  0  0  0  0  0  0  0  0
    8.8853   -2.1280   22.0308 C   0  0  0  0  0  0  0  0  0  0  0  0
    9.8846   -2.1640   22.4736 H   0  0  0  0  0  0  0  0  0  0  0  0
    8.7063   -3.1202   21.6073 H   0  0  0  0  0  0  0  0  0  0  0  0
    8.7592   -1.0818   20.9082 C   0  0  2  0  0  0  0  0  0  0  0  0
    9.0949   -1.5067   19.9562 H   0  0  0  0  0  0  0  0  0  0  0  0
    9.4936    0.2574   21.1547 C   0  0  0  0  0  0  0  0  0  0  0  0
    9.3110    0.8787   20.2688 H   0  0  0  0  0  0  0  0  0  0  0  0
   10.5732    0.0665   21.1855 H   0  0  0  0  0  0  0  0  0  0  0  0
    9.0209    1.0515   22.4139 C   0  0  2  0  0  0  0  0  0  0  0  0
    9.1508    2.1203   22.1843 H   0  0  0  0  0  0  0  0  0  0  0  0
    9.8691    0.8035   23.6896 C   0  0  0  0  0  0  0  0  0  0  0  0
    9.4601    1.4094   24.5096 H   0  0  0  0  0  0  0  0  0  0  0  0
    9.7781   -0.2415   24.0074 H   0  0  0  0  0  0  0  0  0  0  0  0
   11.3364    1.1166   23.4991 C   0  0  0  0  0  0  0  0  0  0  0  0
   11.8402    2.4276   23.4611 C   0  0  0  0  0  0  0  0  0  0  0  0
   11.1769    3.2628   23.6883 H   0  0  0  0  0  0  0  0  0  0  0  0
   13.1745    2.6560   23.1103 C   0  0  0  0  0  0  0  0  0  0  0  0
   13.5322    3.6812   23.0280 H   0  0  0  0  0  0  0  0  0  0  0  0
   14.0415    1.5895   22.8341 C   0  0  0  0  0  0  0  0  0  0  0  0
   15.0825    1.7476   22.5729 H   0  0  0  0  0  0  0  0  0  0  0  0
   13.5330    0.2954   22.8625 C   0  0  0  0  0  0  0  0  0  0  0  0
   14.5089   -1.0625   22.4038 Cl  0  0  0  0  0  0  0  0  0  0  0  0
   12.2068    0.0585   23.2063 C   0  0  0  0  0  0  0  0  0  0  0  0
   11.8360   -0.9549   23.1676 H   0  0  0  0  0  0  0  0  0  0  0  0
    7.5159    0.8211   22.7081 C   0  0  0  0  0  0  0  0  0  0  0  0
    7.2942    1.0192   23.7656 H   0  0  0  0  0  0  0  0  0  0  0  0
    6.9301    1.5483   22.1311 H   0  0  0  0  0  0  0  0  0  0  0  0
    5.4680    0.5842   20.1169 C   0  0  0  0  0  0  0  0  0  0  0  0
    5.0214    0.5797   21.1072 H   0  0  0  0  0  0  0  0  0  0  0  0
    4.8710    1.2941   19.0741 C   0  0  0  0  0  0  0  0  0  0  0  0
    3.9437    1.8367   19.2292 H   0  0  0  0  0  0  0  0  0  0  0  0
  1  2  1  0
  2  3  2  0
  3  4  1  0
  4  5  1  0
  4  6  2  0
  6  7  1  0
  7  8  1  0
  8  9  1  6
  8 10  1  0
 10 11  1  0
 10 12  1  0
 10 13  1  0
 13 14  1  0
 13 15  1  0
 13 16  1  0
 16 17  1  6
 16 18  1  0
 18 19  1  0
 18 20  1  0
 18 21  1  0
 21 22  1  6
 21 23  1  0
 23 24  1  0
 23 25  1  0
 23 26  1  0
 26 27  2  0
 27 28  1  0
 27 29  1  0
 29 30  1  0
 29 31  2  0
 31 32  1  0
 31 33  1  0
 33 34  1  0
 33 35  2  0
 35 36  1  0
 21 37  1  0
 37 38  1  0
 37 39  1  0
  6 40  1  0
 40 41  1  0
 40 42  2  0
 42 43  1  0
 42  2  1  0
 16  7  1  0
 35 26  1  0
 37  8  1  0
M  END
>  <cnnaffinity>  (1) 
-6.30558

>  <filename>  (1) 
Clc1cccc(C[C@H]2C[C@H]3CC[C@@H](C2)N3c2cccnc2)c1

$$$$
