
     RDKit          3D

 30 32  0  0  0  0  0  0  0  0999 V2000
    4.9618    1.9358   16.6073 H   0  0  0  0  0  0  0  0  0  0  0  0
    5.3456    1.4267   17.4884 C   0  0  0  0  0  0  0  0  0  0  0  0
    6.4821    0.7305   17.3258 N   0  0  0  0  0  0  0  0  0  0  0  0
    6.9910    0.1312   18.4040 C   0  0  0  0  0  0  0  0  0  0  0  0
    7.9159   -0.4200   18.2534 H   0  0  0  0  0  0  0  0  0  0  0  0
    6.4052    0.1848   19.6850 C   0  0  0  0  0  0  0  0  0  0  0  0
    7.1109   -0.4536   20.7985 C   0  0  0  0  0  0  0  0  0  0  0  0
    8.3234   -1.0953   20.5398 N   0  0  0  0  0  0  0  0  0  0  0  0
    8.7307   -1.5037   21.6897 C   0  0  0  0  0  0  0  0  0  0  0  0
   10.0083   -2.2253   21.9955 C   0  0  0  0  0  0  0  0  0  0  0  0
   10.3488   -2.6168   21.0387 H   0  0  0  0  0  0  0  0  0  0  0  0
    9.7624   -3.0839   22.6301 H   0  0  0  0  0  0  0  0  0  0  0  0
   11.0739   -1.3644   22.6740 C   0  0  0  0  0  0  0  0  0  0  0  0
   10.7714   -0.7876   23.9218 C   0  0  0  0  0  0  0  0  0  0  0  0
    9.8263   -1.0551   24.3883 H   0  0  0  0  0  0  0  0  0  0  0  0
   11.6621    0.0908   24.5531 C   0  0  0  0  0  0  0  0  0  0  0  0
   11.4179    0.5013   25.5300 H   0  0  0  0  0  0  0  0  0  0  0  0
   12.8827    0.4039   23.9328 C   0  0  0  0  0  0  0  0  0  0  0  0
   13.5635    1.1241   24.3821 H   0  0  0  0  0  0  0  0  0  0  0  0
   13.2405   -0.2150   22.7351 C   0  0  0  0  0  0  0  0  0  0  0  0
   14.1979   -0.0309   22.2490 H   0  0  0  0  0  0  0  0  0  0  0  0
   12.3430   -1.0975   22.1209 C   0  0  0  0  0  0  0  0  0  0  0  0
   12.8986   -1.8490   20.6456 Cl  0  0  0  0  0  0  0  0  0  0  0  0
    7.8880   -1.2205   22.7079 O   0  0  0  0  0  0  0  0  0  0  0  0
    6.8515   -0.5416   22.1227 C   0  0  0  0  0  0  0  0  0  0  0  0
    6.0439   -0.2268   22.7668 H   0  0  0  0  0  0  0  0  0  0  0  0
    5.1978    0.8868   19.8300 C   0  0  0  0  0  0  0  0  0  0  0  0
    4.7004    0.9493   20.7994 H   0  0  0  0  0  0  0  0  0  0  0  0
    4.6662    1.5194   18.7081 C   0  0  0  0  0  0  0  0  0  0  0  0
    3.7554    2.1042   18.7751 H   0  0  0  0  0  0  0  0  0  0  0  0
  1  2  1  0
  2  3  2  0
  3  4  1  0
  4  5  1  0
  4  6  2  0
  6  7  1  0
  7  8  1  0
  8  9  2  0
  9 10  1  0
 10 11  1  0
 10 12  1  0
 10 13  1  0
 13 14  2  0
 14 15  1  0
 14 16  1  0
 16 17  1  0
 16 18  2  0
 18 19  1  0
 18 20  1  0
 20 21  1  0
 20 22  2  0
 22 23  1  0
  9 24  1  0
 24 25  1  0
 25 26  1  0
  6 27  1  0
 27 28  1  0
 27 29  2  0
 29 30  1  0
 29  2  1  0
 25  7  2  0
 22 13  1  0
M  END
>  <cnnaffinity>  (1) 
-5.44356

>  <filename>  (1) 
Clc1ccccc1Cc1nc(-c2cccnc2)co1

$$$$
