
     RDKit          3D

 17 18  0  0  0  0  0  0  0  0999 V2000
    9.9554   -1.3005   22.5753 H   0  0  0  0  0  0  0  0  0  0  0  0
    8.9818   -1.3028   22.1027 C   0  0  0  0  0  0  0  0  0  0  0  0
    7.9701   -2.1392   22.4738 N   0  0  0  0  0  0  0  0  0  0  0  0
    7.0050   -1.7567   21.6863 C   0  0  0  0  0  0  0  0  0  0  0  0
    5.4502   -2.4547   21.6126 Cl  0  0  0  0  0  0  0  0  0  0  0  0
    7.3959   -0.7357   20.8795 N   0  0  0  0  0  0  0  0  0  0  0  0
    6.6784   -0.0300   19.8684 C   0  0  0  0  0  0  0  0  0  0  0  0
    7.2114    0.0539   18.5715 C   0  0  0  0  0  0  0  0  0  0  0  0
    8.1751   -0.4015   18.3533 H   0  0  0  0  0  0  0  0  0  0  0  0
    6.5921    0.6825   17.5701 N   0  0  0  0  0  0  0  0  0  0  0  0
    5.4229    1.2890   17.8401 C   0  0  0  0  0  0  0  0  0  0  0  0
    4.9492    1.8007   17.0052 H   0  0  0  0  0  0  0  0  0  0  0  0
    4.8316    1.2847   19.1077 C   0  0  0  0  0  0  0  0  0  0  0  0
    3.8947    1.8107   19.2585 H   0  0  0  0  0  0  0  0  0  0  0  0
    5.4680    0.6105   20.1555 C   0  0  0  0  0  0  0  0  0  0  0  0
    5.0551    0.6011   21.1647 H   0  0  0  0  0  0  0  0  0  0  0  0
    8.6948   -0.4552   21.1417 N   0  0  0  0  0  0  0  0  0  0  0  0
  1  2  1  0
  2  3  1  0
  3  4  2  0
  4  5  1  0
  4  6  1  0
  6  7  1  0
  7  8  2  0
  8  9  1  0
  8 10  1  0
 10 11  2  0
 11 12  1  0
 11 13  1  0
 13 14  1  0
 13 15  2  0
 15 16  1  0
  6 17  1  0
 17  2  2  0
 15  7  1  0
M  END
>  <cnnaffinity>  (1) 
-4.09037

>  <filename>  (1) 
Clc1ncnn1-c1cccnc1

$$$$
