
     RDKit          3D

 32 34  0  0  0  0  0  0  0  0999 V2000
   10.4868   -1.3190   21.8294 H   0  0  0  0  0  0  0  0  0  0  0  0
    9.3977   -1.2818   21.8710 C   0  0  0  0  0  0  0  0  0  0  0  0
    8.7809   -0.7284   20.8284 N   0  0  0  0  0  0  0  0  0  0  0  0
    7.4456   -0.6974   20.8835 C   0  0  0  0  0  0  0  0  0  0  0  0
    6.7159    0.0293   19.8347 C   0  0  0  0  0  0  0  0  0  0  0  0
    7.2342    0.0757   18.5344 C   0  0  0  0  0  0  0  0  0  0  0  0
    8.1806   -0.4055   18.2977 H   0  0  0  0  0  0  0  0  0  0  0  0
    6.6179    0.6846   17.5167 N   0  0  0  0  0  0  0  0  0  0  0  0
    5.4550    1.2999   17.7733 C   0  0  0  0  0  0  0  0  0  0  0  0
    4.9785    1.7890   16.9266 H   0  0  0  0  0  0  0  0  0  0  0  0
    4.8596    1.3292   19.0380 C   0  0  0  0  0  0  0  0  0  0  0  0
    3.9203    1.8499   19.1802 H   0  0  0  0  0  0  0  0  0  0  0  0
    5.4993    0.6839   20.0918 C   0  0  0  0  0  0  0  0  0  0  0  0
    5.0705    0.7072   21.0973 H   0  0  0  0  0  0  0  0  0  0  0  0
    6.7367   -1.3361   21.8971 C   0  0  0  0  0  0  0  0  0  0  0  0
    5.6665   -1.4494   21.8322 H   0  0  0  0  0  0  0  0  0  0  0  0
    7.4723   -1.8632   22.9446 C   0  0  0  0  0  0  0  0  0  0  0  0
    6.7767   -2.5812   24.0791 C   0  0  0  0  0  0  0  0  0  0  0  0
    5.8039   -2.1141   24.2837 H   0  0  0  0  0  0  0  0  0  0  0  0
    7.3880   -2.4685   24.9812 H   0  0  0  0  0  0  0  0  0  0  0  0
    6.6238   -4.0524   23.7295 C   0  0  0  0  0  0  0  0  0  0  0  0
    7.7759   -4.8544   23.7708 C   0  0  0  0  0  0  0  0  0  0  0  0
    8.6900   -4.4288   24.1810 H   0  0  0  0  0  0  0  0  0  0  0  0
    7.7632   -6.1453   23.2540 C   0  0  0  0  0  0  0  0  0  0  0  0
    8.6723   -6.7406   23.2244 H   0  0  0  0  0  0  0  0  0  0  0  0
    6.5709   -6.6776   22.7427 C   0  0  0  0  0  0  0  0  0  0  0  0
    6.5801   -8.2866   22.1286 Cl  0  0  0  0  0  0  0  0  0  0  0  0
    5.3971   -5.9072   22.7415 C   0  0  0  0  0  0  0  0  0  0  0  0
    3.8694   -6.5358   22.2148 Cl  0  0  0  0  0  0  0  0  0  0  0  0
    5.4376   -4.5873   23.2126 C   0  0  0  0  0  0  0  0  0  0  0  0
    4.5358   -3.9857   23.1540 H   0  0  0  0  0  0  0  0  0  0  0  0
    8.8139   -1.8195   22.9459 N   0  0  0  0  0  0  0  0  0  0  0  0
  1  2  1  0
  2  3  2  0
  3  4  1  0
  4  5  1  0
  5  6  2  0
  6  7  1  0
  6  8  1  0
  8  9  2  0
  9 10  1  0
  9 11  1  0
 11 12  1  0
 11 13  2  0
 13 14  1  0
  4 15  2  0
 15 16  1  0
 15 17  1  0
 17 18  1  0
 18 19  1  0
 18 20  1  0
 18 21  1  0
 21 22  2  0
 22 23  1  0
 22 24  1  0
 24 25  1  0
 24 26  2  0
 26 27  1  0
 26 28  1  0
 28 29  1  0
 28 30  2  0
 30 31  1  0
 17 32  2  0
 32  2  1  0
 13  5  1  0
 30 21  1  0
M  END
>  <cnnaffinity>  (1) 
-5.67993

>  <filename>  (1) 
Clc1ccc(Cc2cc(-c3cccnc3)ncn2)cc1Cl

$$$$
