
     RDKit          3D

 28 30  0  0  0  0  0  0  0  0999 V2000
    4.9240    1.7789   16.9964 H   0  0  0  0  0  0  0  0  0  0  0  0
    5.4079    1.2932   17.8388 C   0  0  0  0  0  0  0  0  0  0  0  0
    6.5718    0.6760   17.5774 N   0  0  0  0  0  0  0  0  0  0  0  0
    7.1656    0.0517   18.5972 C   0  0  0  0  0  0  0  0  0  0  0  0
    8.1124   -0.4374   18.3767 H   0  0  0  0  0  0  0  0  0  0  0  0
    6.6504    0.0182   19.9022 C   0  0  0  0  0  0  0  0  0  0  0  0
    7.3976   -0.7104   20.9252 C   0  0  0  0  0  0  0  0  0  0  0  0
    8.0198   -1.8458   20.7156 N   0  0  0  0  0  0  0  0  0  0  0  0
    8.5103   -2.2333   21.9362 C   0  0  0  0  0  0  0  0  0  0  0  0
    9.0590   -3.1551   22.0648 H   0  0  0  0  0  0  0  0  0  0  0  0
    8.2160   -1.3050   22.8936 C   0  0  0  0  0  0  0  0  0  0  0  0
    8.4719   -1.2150   23.9403 H   0  0  0  0  0  0  0  0  0  0  0  0
    7.4899   -0.3187   22.2478 N   0  0  0  0  0  0  0  0  0  0  0  0
    7.0760    0.9212   22.8350 C   0  0  0  0  0  0  0  0  0  0  0  0
    6.1625    0.8861   23.8982 C   0  0  0  0  0  0  0  0  0  0  0  0
    5.8131   -0.0832   24.2403 H   0  0  0  0  0  0  0  0  0  0  0  0
    5.7031    2.0611   24.4957 C   0  0  0  0  0  0  0  0  0  0  0  0
    4.9949    2.0097   25.3194 H   0  0  0  0  0  0  0  0  0  0  0  0
    6.1638    3.3003   24.0383 C   0  0  0  0  0  0  0  0  0  0  0  0
    5.8120    4.2200   24.4992 H   0  0  0  0  0  0  0  0  0  0  0  0
    7.0874    3.3618   22.9917 C   0  0  0  0  0  0  0  0  0  0  0  0
    7.4597    4.3191   22.6294 H   0  0  0  0  0  0  0  0  0  0  0  0
    7.5499    2.1793   22.3999 C   0  0  0  0  0  0  0  0  0  0  0  0
    8.7253    2.2953   21.1282 Cl  0  0  0  0  0  0  0  0  0  0  0  0
    5.4321    0.6650   20.1612 C   0  0  0  0  0  0  0  0  0  0  0  0
    4.9966    0.6405   21.1661 H   0  0  0  0  0  0  0  0  0  0  0  0
    4.8012    1.3125   19.1040 C   0  0  0  0  0  0  0  0  0  0  0  0
    3.8679    1.8463   19.2558 H   0  0  0  0  0  0  0  0  0  0  0  0
  1  2  1  0
  2  3  2  0
  3  4  1  0
  4  5  1  0
  4  6  2  0
  6  7  1  0
  7  8  2  0
  8  9  1  0
  9 10  1  0
  9 11  2  0
 11 12  1  0
 11 13  1  0
 13 14  1  0
 14 15  2  0
 15 16  1  0
 15 17  1  0
 17 18  1  0
 17 19  2  0
 19 20  1  0
 19 21  1  0
 21 22  1  0
 21 23  2  0
 23 24  1  0
  6 25  1  0
 25 26  1  0
 25 27  2  0
 27 28  1  0
 27  2  1  0
 13  7  1  0
 23 14  1  0
M  END
>  <cnnaffinity>  (1) 
-4.77443

>  <filename>  (1) 
Clc1ccccc1-n1ccnc1-c1cccnc1

$$$$
