
     RDKit          3D

 30 32  0  0  0  0  0  0  0  0999 V2000
    4.9111    1.7887   16.9895 H   0  0  0  0  0  0  0  0  0  0  0  0
    5.3971    1.2995   17.8313 C   0  0  0  0  0  0  0  0  0  0  0  0
    6.5555    0.6778   17.5599 N   0  0  0  0  0  0  0  0  0  0  0  0
    7.1683    0.0639   18.5776 C   0  0  0  0  0  0  0  0  0  0  0  0
    8.1127   -0.4292   18.3607 H   0  0  0  0  0  0  0  0  0  0  0  0
    6.6548    0.0117   19.8934 C   0  0  0  0  0  0  0  0  0  0  0  0
    7.3160   -0.6925   20.9448 N   0  0  0  0  0  0  0  0  0  0  0  0
    6.7904   -1.6483   21.7806 C   0  0  0  0  0  0  0  0  0  0  0  0
    5.7528   -1.9570   21.7200 H   0  0  0  0  0  0  0  0  0  0  0  0
    7.6990   -2.1198   22.5879 N   0  0  0  0  0  0  0  0  0  0  0  0
    8.8681   -1.4541   22.3159 N   0  0  0  0  0  0  0  0  0  0  0  0
    8.6229   -0.5911   21.3658 C   0  0  0  0  0  0  0  0  0  0  0  0
    9.6489    0.3400   20.8082 C   0  0  0  0  0  0  0  0  0  0  0  0
   10.3744   -0.3179   20.3250 H   0  0  0  0  0  0  0  0  0  0  0  0
    9.2000    1.0032   20.0663 H   0  0  0  0  0  0  0  0  0  0  0  0
   10.3125    1.1588   21.8897 C   0  0  0  0  0  0  0  0  0  0  0  0
   11.5428    0.7460   22.4070 C   0  0  0  0  0  0  0  0  0  0  0  0
   12.0164   -0.1289   21.9722 H   0  0  0  0  0  0  0  0  0  0  0  0
   12.1399    1.4220   23.4687 C   0  0  0  0  0  0  0  0  0  0  0  0
   13.1032    1.0998   23.8472 H   0  0  0  0  0  0  0  0  0  0  0  0
   11.4931    2.5184   24.0321 C   0  0  0  0  0  0  0  0  0  0  0  0
   11.9379    3.0697   24.8458 H   0  0  0  0  0  0  0  0  0  0  0  0
   10.2484    2.9327   23.5538 C   0  0  0  0  0  0  0  0  0  0  0  0
    9.4965    4.2989   24.3064 Cl  0  0  0  0  0  0  0  0  0  0  0  0
    9.6507    2.2471   22.4850 C   0  0  0  0  0  0  0  0  0  0  0  0
    8.0929    2.7310   21.9031 Cl  0  0  0  0  0  0  0  0  0  0  0  0
    5.4372    0.6483   20.1607 C   0  0  0  0  0  0  0  0  0  0  0  0
    5.0209    0.6256   21.1727 H   0  0  0  0  0  0  0  0  0  0  0  0
    4.8087    1.3130   19.1022 C   0  0  0  0  0  0  0  0  0  0  0  0
    3.8765    1.8426   19.2597 H   0  0  0  0  0  0  0  0  0  0  0  0
  1  2  1  0
  2  3  2  0
  3  4  1  0
  4  5  1  0
  4  6  2  0
  6  7  1  0
  7  8  1  0
  8  9  1  0
  8 10  2  0
 10 11  1  0
 11 12  2  0
 12 13  1  0
 13 14  1  0
 13 15  1  0
 13 16  1  0
 16 17  2  0
 17 18  1  0
 17 19  1  0
 19 20  1  0
 19 21  2  0
 21 22  1  0
 21 23  1  0
 23 24  1  0
 23 25  2  0
 25 26  1  0
  6 27  1  0
 27 28  1  0
 27 29  2  0
 29 30  1  0
 29  2  1  0
 12  7  1  0
 25 16  1  0
M  END
>  <cnnaffinity>  (1) 
-5.67534

>  <filename>  (1) 
Clc1cccc(Cc2nncn2-c2cccnc2)c1Cl

$$$$
