
     RDKit          3D

 39 42  0  0  0  0  0  0  0  0999 V2000
   12.9390    1.5752   23.0799 Cl  0  0  0  0  0  0  0  0  0  0  0  0
   11.3146    2.1685   23.2536 C   0  0  0  0  0  0  0  0  0  0  0  0
   11.0584    3.1629   24.1960 C   0  0  0  0  0  0  0  0  0  0  0  0
    9.7677    3.6752   24.3510 C   0  0  0  0  0  0  0  0  0  0  0  0
    8.7282    3.1818   23.5660 C   0  0  0  0  0  0  0  0  0  0  0  0
    8.9747    2.1917   22.6132 C   0  0  0  0  0  0  0  0  0  0  0  0
   10.2678    1.6696   22.4436 C   0  0  0  0  0  0  0  0  0  0  0  0
   10.5918    0.7101   21.5351 O   0  0  0  0  0  0  0  0  0  0  0  0
    9.6183    0.1278   20.6790 C   0  0  0  0  0  0  0  0  0  0  0  0
    8.5391   -0.6696   21.3619 C   0  0  0  0  0  0  0  0  0  0  0  0
    8.7071   -1.4655   22.4007 N   0  0  0  0  0  0  0  0  0  0  0  0
    7.4880   -2.0307   22.5652 C   0  0  0  0  0  0  0  0  0  0  0  0
    7.2371   -2.9913   23.6840 C   0  0  0  0  0  0  0  0  0  0  0  0
    6.2165   -2.5148   24.7603 C   0  0  0  0  0  0  0  0  0  0  0  0
    5.1078   -3.9252   24.4294 S   0  0  0  0  0  0  0  0  0  0  0  0
    6.4971   -4.3046   23.3104 C   0  0  0  0  0  0  0  0  0  0  0  0
    6.1936   -4.3948   22.2627 H   0  0  0  0  0  0  0  0  0  0  0  0
    7.0357   -5.2059   23.6172 H   0  0  0  0  0  0  0  0  0  0  0  0
    5.7504   -1.5422   24.5748 H   0  0  0  0  0  0  0  0  0  0  0  0
    6.6187   -2.5323   25.7777 H   0  0  0  0  0  0  0  0  0  0  0  0
    8.2188   -3.1875   24.1231 H   0  0  0  0  0  0  0  0  0  0  0  0
    6.5800   -1.6512   21.6893 N   0  0  0  0  0  0  0  0  0  0  0  0
    7.2585   -0.7847   20.8910 N   0  0  0  0  0  0  0  0  0  0  0  0
    6.5728   -0.1076   19.8376 C   0  0  0  0  0  0  0  0  0  0  0  0
    5.3755    0.5698   20.1030 C   0  0  0  0  0  0  0  0  0  0  0  0
    4.7885    1.3048   19.0683 C   0  0  0  0  0  0  0  0  0  0  0  0
    5.3924    1.3095   17.8044 C   0  0  0  0  0  0  0  0  0  0  0  0
    6.4992    0.6063   17.5235 N   0  0  0  0  0  0  0  0  0  0  0  0
    7.0645   -0.0903   18.5174 C   0  0  0  0  0  0  0  0  0  0  0  0
    7.9522   -0.6641   18.2560 H   0  0  0  0  0  0  0  0  0  0  0  0
    4.9672    1.8900   16.9872 H   0  0  0  0  0  0  0  0  0  0  0  0
    3.8832    1.8816   19.2284 H   0  0  0  0  0  0  0  0  0  0  0  0
    4.9305    0.5158   21.0981 H   0  0  0  0  0  0  0  0  0  0  0  0
   10.1952   -0.5832   20.0834 H   0  0  0  0  0  0  0  0  0  0  0  0
    9.1856    0.8833   20.0113 H   0  0  0  0  0  0  0  0  0  0  0  0
    8.1618    1.8298   21.9941 H   0  0  0  0  0  0  0  0  0  0  0  0
    7.7235    3.5767   23.6842 H   0  0  0  0  0  0  0  0  0  0  0  0
    9.5752    4.4698   25.0609 H   0  0  0  0  0  0  0  0  0  0  0  0
   11.8778    3.5234   24.8062 H   0  0  0  0  0  0  0  0  0  0  0  0
  1  2  1  0
  2  3  2  0
  3  4  1  0
  4  5  2  0
  5  6  1  0
  6  7  2  0
  7  8  1  0
  8  9  1  0
  9 10  1  0
 10 11  2  0
 11 12  1  0
 12 13  1  0
 13 14  1  0
 14 15  1  0
 15 16  1  0
 16 17  1  0
 16 18  1  0
 14 19  1  0
 14 20  1  0
 13 21  1  0
 12 22  2  0
 22 23  1  0
 23 24  1  0
 24 25  2  0
 25 26  1  0
 26 27  2  0
 27 28  1  0
 28 29  2  0
 29 30  1  0
 27 31  1  0
 26 32  1  0
 25 33  1  0
  9 34  1  0
  9 35  1  0
  6 36  1  0
  5 37  1  0
  4 38  1  0
  3 39  1  0
  7  2  1  0
 23 10  1  0
 29 24  1  0
 16 13  1  0
M  END
>  <cnnaffinity>  (1) 
-6.03409

>  <filename>  (1) 
Clc1ccccc1OCc1nc(C2CSC2)nn1-c1cccnc1

$$$$
