
     RDKit          3D

 48 51  0  0  0  0  0  0  0  0999 V2000
    7.0028    1.4610   24.0791 Cl  0  0  0  0  0  0  0  0  0  0  0  0
    7.8365    2.9914   24.0934 C   0  0  0  0  0  0  0  0  0  0  0  0
    7.7478    3.7641   25.2546 C   0  0  0  0  0  0  0  0  0  0  0  0
    8.4063    4.9955   25.3061 C   0  0  0  0  0  0  0  0  0  0  0  0
    9.1470    5.4420   24.2093 C   0  0  0  0  0  0  0  0  0  0  0  0
    9.2157    4.6515   23.0636 C   0  0  0  0  0  0  0  0  0  0  0  0
    8.5587    3.4169   22.9672 C   0  0  0  0  0  0  0  0  0  0  0  0
    8.6548    2.5922   21.7054 C   0  0  0  0  0  0  0  0  0  0  0  0
    9.6633    1.5990   21.8826 O   0  0  0  0  0  0  0  0  0  0  0  0
    9.5822    0.5254   20.9636 C   0  0  0  0  0  0  0  0  0  0  0  0
    8.6166   -0.5342   21.4114 C   0  0  0  0  0  0  0  0  0  0  0  0
    8.8397   -1.3985   22.3803 N   0  0  0  0  0  0  0  0  0  0  0  0
    7.6403   -2.0227   22.5205 C   0  0  0  0  0  0  0  0  0  0  0  0
    7.4053   -3.0099   23.6238 C   0  0  0  0  0  0  0  0  0  0  0  0
    8.5142   -4.0891   23.6849 C   0  0  0  0  0  0  0  0  0  0  0  0
    8.3096   -4.9956   24.8994 C   0  0  0  0  0  0  0  0  0  0  0  0
    8.2475   -4.2541   26.1047 O   0  0  0  0  0  0  0  0  0  0  0  0
    7.1663   -3.3393   26.1231 C   0  0  0  0  0  0  0  0  0  0  0  0
    7.2770   -2.3028   25.0028 C   0  0  0  0  0  0  0  0  0  0  0  0
    8.1635   -1.6789   25.1756 H   0  0  0  0  0  0  0  0  0  0  0  0
    6.4057   -1.6359   25.0194 H   0  0  0  0  0  0  0  0  0  0  0  0
    7.1825   -2.8709   27.1098 H   0  0  0  0  0  0  0  0  0  0  0  0
    6.2140   -3.8902   26.0231 H   0  0  0  0  0  0  0  0  0  0  0  0
    9.1341   -5.7020   25.0197 H   0  0  0  0  0  0  0  0  0  0  0  0
    7.3784   -5.5770   24.7746 H   0  0  0  0  0  0  0  0  0  0  0  0
    9.4941   -3.6025   23.7614 H   0  0  0  0  0  0  0  0  0  0  0  0
    8.5240   -4.6879   22.7663 H   0  0  0  0  0  0  0  0  0  0  0  0
    6.4472   -3.4791   23.3779 H   0  0  0  0  0  0  0  0  0  0  0  0
    6.7096   -1.6317   21.6726 N   0  0  0  0  0  0  0  0  0  0  0  0
    7.3433   -0.6798   20.9368 N   0  0  0  0  0  0  0  0  0  0  0  0
    6.6503    0.0034   19.8979 C   0  0  0  0  0  0  0  0  0  0  0  0
    5.4343    0.6422   20.1639 C   0  0  0  0  0  0  0  0  0  0  0  0
    4.8117    1.3117   19.1056 C   0  0  0  0  0  0  0  0  0  0  0  0
    5.3985    1.2987   17.8338 C   0  0  0  0  0  0  0  0  0  0  0  0
    6.5531    0.6693   17.5698 N   0  0  0  0  0  0  0  0  0  0  0  0
    7.1606    0.0463   18.5871 C   0  0  0  0  0  0  0  0  0  0  0  0
    8.1036   -0.4405   18.3518 H   0  0  0  0  0  0  0  0  0  0  0  0
    4.9249    1.7923   16.9887 H   0  0  0  0  0  0  0  0  0  0  0  0
    3.8807    1.8397   19.2568 H   0  0  0  0  0  0  0  0  0  0  0  0
    5.0163    0.6058   21.1755 H   0  0  0  0  0  0  0  0  0  0  0  0
   10.5847    0.0916   20.9003 H   0  0  0  0  0  0  0  0  0  0  0  0
    9.2965    0.8854   19.9677 H   0  0  0  0  0  0  0  0  0  0  0  0
    7.6729    2.1465   21.4656 H   0  0  0  0  0  0  0  0  0  0  0  0
    8.9400    3.2185   20.8537 H   0  0  0  0  0  0  0  0  0  0  0  0
    9.8008    5.0070   22.2255 H   0  0  0  0  0  0  0  0  0  0  0  0
    9.6680    6.3956   24.2287 H   0  0  0  0  0  0  0  0  0  0  0  0
    8.3397    5.6041   26.2008 H   0  0  0  0  0  0  0  0  0  0  0  0
    7.1647    3.3864   26.0899 H   0  0  0  0  0  0  0  0  0  0  0  0
  1  2  1  0
  2  3  2  0
  3  4  1  0
  4  5  2  0
  5  6  1  0
  6  7  2  0
  7  8  1  0
  8  9  1  0
  9 10  1  0
 10 11  1  0
 11 12  2  0
 12 13  1  0
 13 14  1  0
 14 15  1  0
 15 16  1  0
 16 17  1  0
 17 18  1  0
 18 19  1  0
 19 20  1  0
 19 21  1  0
 18 22  1  0
 18 23  1  0
 16 24  1  0
 16 25  1  0
 15 26  1  0
 15 27  1  0
 14 28  1  0
 13 29  2  0
 29 30  1  0
 30 31  1  0
 31 32  2  0
 32 33  1  0
 33 34  2  0
 34 35  1  0
 35 36  2  0
 36 37  1  0
 34 38  1  0
 33 39  1  0
 32 40  1  0
 10 41  1  0
 10 42  1  0
  8 43  1  0
  8 44  1  0
  6 45  1  0
  5 46  1  0
  4 47  1  0
  3 48  1  0
  7  2  1  0
 30 11  1  0
 36 31  1  0
 19 14  1  0
M  END
>  <cnnaffinity>  (1) 
-5.9261

>  <filename>  (1) 
Clc1ccccc1COCc1nc(C2CCOCC2)nn1-c1cccnc1

$$$$
