
     RDKit          3D

 41 44  0  0  0  0  0  0  0  0999 V2000
    7.9646    5.3797   25.8531 Cl  0  0  0  0  0  0  0  0  0  0  0  0
    7.9844    5.4084   24.1126 C   0  0  0  0  0  0  0  0  0  0  0  0
    7.8268    6.6294   23.4582 C   0  0  0  0  0  0  0  0  0  0  0  0
    7.9025    6.7060   22.0628 C   0  0  0  0  0  0  0  0  0  0  0  0
    8.1299    5.5441   21.3329 C   0  0  0  0  0  0  0  0  0  0  0  0
    8.2562    4.3066   21.9747 C   0  0  0  0  0  0  0  0  0  0  0  0
    8.1554    4.2116   23.3741 C   0  0  0  0  0  0  0  0  0  0  0  0
    8.1655    3.0493   24.0698 O   0  0  0  0  0  0  0  0  0  0  0  0
    8.5525    1.8216   23.4555 C   0  0  0  0  0  0  0  0  0  0  0  0
    7.3398    1.1749   22.7803 C   0  0  0  0  0  0  0  0  0  0  0  0
    7.6262   -0.1722   22.2131 C   0  0  0  0  0  0  0  0  0  0  0  0
    8.2649   -1.1160   22.8751 N   0  0  0  0  0  0  0  0  0  0  0  0
    8.2543   -2.1640   22.0157 C   0  0  0  0  0  0  0  0  0  0  0  0
    8.8680   -3.4612   22.3809 C   0  0  0  0  0  0  0  0  0  0  0  0
    8.3134   -4.3167   23.4982 C   0  0  0  0  0  0  0  0  0  0  0  0
    8.1585   -4.7564   22.0713 C   0  0  0  0  0  0  0  0  0  0  0  0
    7.1718   -4.6561   21.6196 H   0  0  0  0  0  0  0  0  0  0  0  0
    8.7247   -5.6130   21.7142 H   0  0  0  0  0  0  0  0  0  0  0  0
    7.4369   -3.9612   24.0367 H   0  0  0  0  0  0  0  0  0  0  0  0
    9.0427   -4.8360   24.1183 H   0  0  0  0  0  0  0  0  0  0  0  0
    9.9547   -3.3980   22.3382 H   0  0  0  0  0  0  0  0  0  0  0  0
    7.6976   -1.9156   20.8428 N   0  0  0  0  0  0  0  0  0  0  0  0
    7.2569   -0.6395   20.9832 N   0  0  0  0  0  0  0  0  0  0  0  0
    6.5811    0.0125   19.9159 C   0  0  0  0  0  0  0  0  0  0  0  0
    5.3813    0.7045   20.1134 C   0  0  0  0  0  0  0  0  0  0  0  0
    4.8044    1.3478   19.0135 C   0  0  0  0  0  0  0  0  0  0  0  0
    5.4485    1.2810   17.7744 C   0  0  0  0  0  0  0  0  0  0  0  0
    6.5911    0.6002   17.5767 N   0  0  0  0  0  0  0  0  0  0  0  0
    7.1335   -0.0294   18.6233 C   0  0  0  0  0  0  0  0  0  0  0  0
    8.0540   -0.5807   18.4465 H   0  0  0  0  0  0  0  0  0  0  0  0
    5.0313    1.7846   16.9052 H   0  0  0  0  0  0  0  0  0  0  0  0
    3.8819    1.9068   19.1137 H   0  0  0  0  0  0  0  0  0  0  0  0
    4.9086    0.7303   21.0968 H   0  0  0  0  0  0  0  0  0  0  0  0
    6.9484    1.8558   22.0203 H   0  0  0  0  0  0  0  0  0  0  0  0
    6.5607    1.0602   23.5434 H   0  0  0  0  0  0  0  0  0  0  0  0
    8.9211    1.1857   24.2649 H   0  0  0  0  0  0  0  0  0  0  0  0
    9.3828    1.9969   22.7571 H   0  0  0  0  0  0  0  0  0  0  0  0
    8.4721    3.4085   21.4043 H   0  0  0  0  0  0  0  0  0  0  0  0
    8.2371    5.6092   20.2535 H   0  0  0  0  0  0  0  0  0  0  0  0
    7.8274    7.6639   21.5558 H   0  0  0  0  0  0  0  0  0  0  0  0
    7.6390    7.5147   24.0535 H   0  0  0  0  0  0  0  0  0  0  0  0
  1  2  1  0
  2  3  2  0
  3  4  1  0
  4  5  2  0
  5  6  1  0
  6  7  2  0
  7  8  1  0
  8  9  1  0
  9 10  1  0
 10 11  1  0
 11 12  2  0
 12 13  1  0
 13 14  1  0
 14 15  1  0
 15 16  1  0
 16 17  1  0
 16 18  1  0
 15 19  1  0
 15 20  1  0
 14 21  1  0
 13 22  2  0
 22 23  1  0
 23 24  1  0
 24 25  2  0
 25 26  1  0
 26 27  2  0
 27 28  1  0
 28 29  2  0
 29 30  1  0
 27 31  1  0
 26 32  1  0
 25 33  1  0
 10 34  1  0
 10 35  1  0
  9 36  1  0
  9 37  1  0
  6 38  1  0
  5 39  1  0
  4 40  1  0
  3 41  1  0
  7  2  1  0
 23 11  1  0
 29 24  1  0
 16 14  1  0
M  END
>  <cnnaffinity>  (1) 
-5.81638

>  <filename>  (1) 
Clc1ccccc1OCCc1nc(C2CC2)nn1-c1cccnc1

$$$$
