
     RDKit          3D

 32 34  0  0  0  0  0  0  0  0999 V2000
    4.9174    1.7772   17.0007 H   0  0  0  0  0  0  0  0  0  0  0  0
    5.4037    1.2937   17.8415 C   0  0  0  0  0  0  0  0  0  0  0  0
    6.5698    0.6797   17.5783 N   0  0  0  0  0  0  0  0  0  0  0  0
    7.1694    0.0561   18.5934 C   0  0  0  0  0  0  0  0  0  0  0  0
    8.1176   -0.4357   18.3796 H   0  0  0  0  0  0  0  0  0  0  0  0
    6.6485    0.0186   19.8926 C   0  0  0  0  0  0  0  0  0  0  0  0
    7.3938   -0.7213   20.9061 C   0  0  0  0  0  0  0  0  0  0  0  0
    7.9292   -1.9145   20.7707 N   0  0  0  0  0  0  0  0  0  0  0  0
    8.4865   -2.2118   21.9594 N   0  0  0  0  0  0  0  0  0  0  0  0
    8.3323   -1.2469   22.7958 N   0  0  0  0  0  0  0  0  0  0  0  0
    7.6476   -0.2828   22.1581 N   0  0  0  0  0  0  0  0  0  0  0  0
    7.3417    0.9812   22.8222 C   0  0  0  0  0  0  0  0  0  0  0  0
    7.0308    1.7020   22.0669 H   0  0  0  0  0  0  0  0  0  0  0  0
    8.2584    1.3685   23.2635 H   0  0  0  0  0  0  0  0  0  0  0  0
    6.2663    0.8456   23.9018 C   0  0  0  0  0  0  0  0  0  0  0  0
    6.6422    0.1873   24.6898 H   0  0  0  0  0  0  0  0  0  0  0  0
    5.3991    0.3510   23.4720 H   0  0  0  0  0  0  0  0  0  0  0  0
    5.8481    2.1815   24.4526 C   0  0  0  0  0  0  0  0  0  0  0  0
    4.8267    2.9219   23.8358 C   0  0  0  0  0  0  0  0  0  0  0  0
    4.3105    2.5132   22.9679 H   0  0  0  0  0  0  0  0  0  0  0  0
    4.4760    4.1834   24.3236 C   0  0  0  0  0  0  0  0  0  0  0  0
    3.6811    4.7470   23.8449 H   0  0  0  0  0  0  0  0  0  0  0  0
    5.1454    4.7265   25.4249 C   0  0  0  0  0  0  0  0  0  0  0  0
    4.8807    5.7046   25.8142 H   0  0  0  0  0  0  0  0  0  0  0  0
    6.1738    3.9916   26.0200 C   0  0  0  0  0  0  0  0  0  0  0  0
    7.0218    4.6579   27.3850 Cl  0  0  0  0  0  0  0  0  0  0  0  0
    6.5340    2.7309   25.5434 C   0  0  0  0  0  0  0  0  0  0  0  0
    7.3435    2.1816   26.0184 H   0  0  0  0  0  0  0  0  0  0  0  0
    5.4318    0.6624   20.1556 C   0  0  0  0  0  0  0  0  0  0  0  0
    4.9892    0.6342   21.1590 H   0  0  0  0  0  0  0  0  0  0  0  0
    4.7962    1.3134   19.1043 C   0  0  0  0  0  0  0  0  0  0  0  0
    3.8663    1.8482   19.2619 H   0  0  0  0  0  0  0  0  0  0  0  0
  1  2  1  0
  2  3  2  0
  3  4  1  0
  4  5  1  0
  4  6  2  0
  6  7  1  0
  7  8  2  0
  8  9  1  0
  9 10  2  0
 10 11  1  0
 11 12  1  0
 12 13  1  0
 12 14  1  0
 12 15  1  0
 15 16  1  0
 15 17  1  0
 15 18  1  0
 18 19  2  0
 19 20  1  0
 19 21  1  0
 21 22  1  0
 21 23  2  0
 23 24  1  0
 23 25  1  0
 25 26  1  0
 25 27  2  0
 27 28  1  0
  6 29  1  0
 29 30  1  0
 29 31  2  0
 31 32  1  0
 31  2  1  0
 11  7  1  0
 27 18  1  0
M  END
>  <cnnaffinity>  (1) 
-4.93724

>  <filename>  (1) 
Clc1cccc(CCn2nnnc2-c2cccnc2)c1

$$$$
