
     RDKit          3D

 35 38  0  0  0  0  0  0  0  0999 V2000
   10.5760    1.5053   25.6091 Cl  0  0  0  0  0  0  0  0  0  0  0  0
   10.6179    1.9322   23.9448 C   0  0  0  0  0  0  0  0  0  0  0  0
    9.5454    1.8980   23.0929 C   0  0  0  0  0  0  0  0  0  0  0  0
    8.2778    1.7483   23.5609 O   0  0  0  0  0  0  0  0  0  0  0  0
    7.2552    1.2000   22.7258 C   0  0  0  0  0  0  0  0  0  0  0  0
    7.5507   -0.1804   22.2069 C   0  0  0  0  0  0  0  0  0  0  0  0
    8.1322   -1.1328   22.9052 N   0  0  0  0  0  0  0  0  0  0  0  0
    8.2274   -2.1505   22.0173 C   0  0  0  0  0  0  0  0  0  0  0  0
    8.8695   -3.4396   22.3766 C   0  0  0  0  0  0  0  0  0  0  0  0
    8.3834   -4.3021   23.5192 C   0  0  0  0  0  0  0  0  0  0  0  0
    8.1799   -4.7584   22.1030 C   0  0  0  0  0  0  0  0  0  0  0  0
    8.7540   -5.6021   21.7265 H   0  0  0  0  0  0  0  0  0  0  0  0
    7.1658   -4.7238   21.7035 H   0  0  0  0  0  0  0  0  0  0  0  0
    7.5105   -3.9985   24.0968 H   0  0  0  0  0  0  0  0  0  0  0  0
    9.1505   -4.8066   24.1051 H   0  0  0  0  0  0  0  0  0  0  0  0
    9.9548   -3.3509   22.2875 H   0  0  0  0  0  0  0  0  0  0  0  0
    7.7603   -1.8842   20.8102 N   0  0  0  0  0  0  0  0  0  0  0  0
    7.2626   -0.6293   20.9487 N   0  0  0  0  0  0  0  0  0  0  0  0
    6.5835    0.0085   19.8731 C   0  0  0  0  0  0  0  0  0  0  0  0
    5.3747    0.6850   20.0739 C   0  0  0  0  0  0  0  0  0  0  0  0
    4.7994    1.3423   18.9847 C   0  0  0  0  0  0  0  0  0  0  0  0
    5.4443    1.3106   17.7448 C   0  0  0  0  0  0  0  0  0  0  0  0
    6.5827    0.6255   17.5371 N   0  0  0  0  0  0  0  0  0  0  0  0
    7.1231   -0.0261   18.5717 C   0  0  0  0  0  0  0  0  0  0  0  0
    8.0242   -0.5981   18.3647 H   0  0  0  0  0  0  0  0  0  0  0  0
    5.0257    1.8353   16.8881 H   0  0  0  0  0  0  0  0  0  0  0  0
    3.8625    1.8735   19.0902 H   0  0  0  0  0  0  0  0  0  0  0  0
    4.8905    0.6829   21.0528 H   0  0  0  0  0  0  0  0  0  0  0  0
    6.9798    1.8987   21.9221 H   0  0  0  0  0  0  0  0  0  0  0  0
    6.4111    1.1070   23.4098 H   0  0  0  0  0  0  0  0  0  0  0  0
    9.9612    2.0782   21.7344 C   0  0  0  0  0  0  0  0  0  0  0  0
   11.2884    2.3490   21.6270 C   0  0  0  0  0  0  0  0  0  0  0  0
   12.1044    2.3286   23.1401 S   0  0  0  0  0  0  0  0  0  0  0  0
   11.8427    2.5945   20.7332 H   0  0  0  0  0  0  0  0  0  0  0  0
    9.2935    1.9587   20.8924 H   0  0  0  0  0  0  0  0  0  0  0  0
  1  2  1  0
  2  3  2  0
  3  4  1  0
  4  5  1  0
  5  6  1  0
  6  7  2  0
  7  8  1  0
  8  9  1  0
  9 10  1  0
 10 11  1  0
 11 12  1  0
 11 13  1  0
 10 14  1  0
 10 15  1  0
  9 16  1  0
  8 17  2  0
 17 18  1  0
 18 19  1  0
 19 20  2  0
 20 21  1  0
 21 22  2  0
 22 23  1  0
 23 24  2  0
 24 25  1  0
 22 26  1  0
 21 27  1  0
 20 28  1  0
  5 29  1  0
  5 30  1  0
  3 31  1  0
 31 32  2  0
 32 33  1  0
 32 34  1  0
 31 35  1  0
 33  2  1  0
 18  6  1  0
 24 19  1  0
 11  9  1  0
M  END
>  <cnnaffinity>  (1) 
-5.86358

>  <filename>  (1) 
Clc1sccc1OCc1nc(C2CC2)nn1-c1cccnc1

$$$$
