
     RDKit          3D

 35 37  0  0  0  0  0  0  0  0999 V2000
    4.9509    1.8299   16.9924 H   0  0  0  0  0  0  0  0  0  0  0  0
    5.4134    1.2937   17.8187 C   0  0  0  0  0  0  0  0  0  0  0  0
    6.5509    0.6365   17.5444 N   0  0  0  0  0  0  0  0  0  0  0  0
    7.1536   -0.0052   18.5533 C   0  0  0  0  0  0  0  0  0  0  0  0
    8.0755   -0.5316   18.3095 H   0  0  0  0  0  0  0  0  0  0  0  0
    6.6622   -0.0325   19.8757 C   0  0  0  0  0  0  0  0  0  0  0  0
    7.3469   -0.7217   20.9181 N   0  0  0  0  0  0  0  0  0  0  0  0
    6.7765   -1.7127   21.6875 C   0  0  0  0  0  0  0  0  0  0  0  0
    5.7514   -2.0008   21.5067 H   0  0  0  0  0  0  0  0  0  0  0  0
    7.6996   -2.1489   22.5997 C   0  0  0  0  0  0  0  0  0  0  0  0
    7.5484   -2.9204   23.3443 H   0  0  0  0  0  0  0  0  0  0  0  0
    8.8784   -1.3786   22.4035 C   0  0  0  0  0  0  0  0  0  0  0  0
    9.7885   -1.4336   22.9963 H   0  0  0  0  0  0  0  0  0  0  0  0
    8.6416   -0.4949   21.3711 C   0  0  0  0  0  0  0  0  0  0  0  0
    9.4556    0.6469   20.8424 C   0  0  0  0  0  0  0  0  0  0  0  0
   10.4954    0.4886   21.1471 H   0  0  0  0  0  0  0  0  0  0  0  0
    9.4556    0.6408   19.7478 H   0  0  0  0  0  0  0  0  0  0  0  0
    9.0067    2.0419   21.3639 C   0  0  0  0  0  0  0  0  0  0  0  0
    7.9668    2.2435   21.0802 H   0  0  0  0  0  0  0  0  0  0  0  0
    9.6242    2.8052   20.8804 H   0  0  0  0  0  0  0  0  0  0  0  0
    9.2130    2.1079   22.8634 C   0  0  0  0  0  0  0  0  0  0  0  0
   10.5407    2.1906   23.3303 C   0  0  0  0  0  0  0  0  0  0  0  0
   11.3342    2.3718   22.6009 H   0  0  0  0  0  0  0  0  0  0  0  0
   10.8625    1.9554   24.6659 C   0  0  0  0  0  0  0  0  0  0  0  0
   11.9000    2.0054   24.9789 H   0  0  0  0  0  0  0  0  0  0  0  0
    9.8485    1.6238   25.5717 C   0  0  0  0  0  0  0  0  0  0  0  0
   10.1082    1.3185   26.5779 H   0  0  0  0  0  0  0  0  0  0  0  0
    8.5118    1.6232   25.1623 C   0  0  0  0  0  0  0  0  0  0  0  0
    7.7051    1.4274   25.8636 H   0  0  0  0  0  0  0  0  0  0  0  0
    8.2019    1.8596   23.8153 C   0  0  0  0  0  0  0  0  0  0  0  0
    6.5208    1.7347   23.3401 Cl  0  0  0  0  0  0  0  0  0  0  0  0
    5.4594    0.6342   20.1428 C   0  0  0  0  0  0  0  0  0  0  0  0
    5.0553    0.6429   21.1569 H   0  0  0  0  0  0  0  0  0  0  0  0
    4.8328    1.3060   19.0917 C   0  0  0  0  0  0  0  0  0  0  0  0
    3.9058    1.8388   19.2530 H   0  0  0  0  0  0  0  0  0  0  0  0
  1  2  1  0
  2  3  2  0
  3  4  1  0
  4  5  1  0
  4  6  2  0
  6  7  1  0
  7  8  1  0
  8  9  1  0
  8 10  2  0
 10 11  1  0
 10 12  1  0
 12 13  1  0
 12 14  2  0
 14 15  1  0
 15 16  1  0
 15 17  1  0
 15 18  1  0
 18 19  1  0
 18 20  1  0
 18 21  1  0
 21 22  2  0
 22 23  1  0
 22 24  1  0
 24 25  1  0
 24 26  2  0
 26 27  1  0
 26 28  1  0
 28 29  1  0
 28 30  2  0
 30 31  1  0
  6 32  1  0
 32 33  1  0
 32 34  2  0
 34 35  1  0
 34  2  1  0
 14  7  1  0
 30 21  1  0
M  END
>  <cnnaffinity>  (1) 
-5.303

>  <filename>  (1) 
Clc1ccccc1CCc1cccn1-c1cccnc1

$$$$
