
     RDKit          3D

 30 32  0  0  0  0  0  0  0  0999 V2000
    9.3660   -3.0723   21.9679 H   0  0  0  0  0  0  0  0  0  0  0  0
    8.7442   -2.1809   22.0492 C   0  0  0  0  0  0  0  0  0  0  0  0
    8.5136   -1.7540   23.2841 N   0  0  0  0  0  0  0  0  0  0  0  0
    7.7754   -0.6525   23.3685 C   0  0  0  0  0  0  0  0  0  0  0  0
    7.6911   -0.1754   24.6161 O   0  0  0  0  0  0  0  0  0  0  0  0
    6.8312    0.8269   25.0220 C   0  0  0  0  0  0  0  0  0  0  0  0
    7.3064    1.6174   26.0736 C   0  0  0  0  0  0  0  0  0  0  0  0
    8.3177    1.4443   26.4241 H   0  0  0  0  0  0  0  0  0  0  0  0
    6.4634    2.5471   26.6809 C   0  0  0  0  0  0  0  0  0  0  0  0
    6.8475    3.1711   27.4880 H   0  0  0  0  0  0  0  0  0  0  0  0
    5.1252    2.6623   26.2825 C   0  0  0  0  0  0  0  0  0  0  0  0
    4.4533    3.3662   26.7684 H   0  0  0  0  0  0  0  0  0  0  0  0
    4.6781    1.8630   25.2301 C   0  0  0  0  0  0  0  0  0  0  0  0
    3.0118    1.9358   24.7517 Cl  0  0  0  0  0  0  0  0  0  0  0  0
    5.5272    0.9844   24.5544 C   0  0  0  0  0  0  0  0  0  0  0  0
    5.1970    0.4477   23.6808 H   0  0  0  0  0  0  0  0  0  0  0  0
    7.1731   -0.0127   22.3798 N   0  0  0  0  0  0  0  0  0  0  0  0
    7.3776   -0.4793   21.1520 C   0  0  0  0  0  0  0  0  0  0  0  0
    6.6210    0.1641   20.0571 C   0  0  0  0  0  0  0  0  0  0  0  0
    7.1746    0.1409   18.7708 C   0  0  0  0  0  0  0  0  0  0  0  0
    8.1383   -0.3303   18.5850 H   0  0  0  0  0  0  0  0  0  0  0  0
    6.6071    0.6831   17.6936 N   0  0  0  0  0  0  0  0  0  0  0  0
    5.4216    1.2853   17.8569 C   0  0  0  0  0  0  0  0  0  0  0  0
    4.9763    1.7165   16.9627 H   0  0  0  0  0  0  0  0  0  0  0  0
    4.7667    1.3626   19.0903 C   0  0  0  0  0  0  0  0  0  0  0  0
    3.8084    1.8665   19.1529 H   0  0  0  0  0  0  0  0  0  0  0  0
    5.3745    0.8064   20.2145 C   0  0  0  0  0  0  0  0  0  0  0  0
    4.8876    0.8830   21.1919 H   0  0  0  0  0  0  0  0  0  0  0  0
    8.2451   -1.5441   20.9236 C   0  0  0  0  0  0  0  0  0  0  0  0
    8.5443   -1.8577   19.9421 H   0  0  0  0  0  0  0  0  0  0  0  0
  1  2  1  0
  2  3  2  0
  3  4  1  0
  4  5  1  0
  5  6  1  0
  6  7  2  0
  7  8  1  0
  7  9  1  0
  9 10  1  0
  9 11  2  0
 11 12  1  0
 11 13  1  0
 13 14  1  0
 13 15  2  0
 15 16  1  0
  4 17  2  0
 17 18  1  0
 18 19  1  0
 19 20  2  0
 20 21  1  0
 20 22  1  0
 22 23  2  0
 23 24  1  0
 23 25  1  0
 25 26  1  0
 25 27  2  0
 27 28  1  0
 18 29  2  0
 29 30  1  0
 29  2  1  0
 15  6  1  0
 27 19  1  0
M  END
>  <cnnaffinity>  (1) 
-5.05888

>  <filename>  (1) 
Clc1cccc(Oc2nccc(-c3cccnc3)n2)c1

$$$$
