
     RDKit          3D

 43 47  0  0  0  0  0  0  0  0999 V2000
    7.3515    4.5221   21.7953 Cl  0  0  0  0  0  0  0  0  0  0  0  0
    7.9156    4.2008   23.4052 C   0  0  0  0  0  0  0  0  0  0  0  0
    8.4459    5.2493   24.0175 N   0  0  0  0  0  0  0  0  0  0  0  0
    8.8576    5.0797   25.2762 C   0  0  0  0  0  0  0  0  0  0  0  0
    8.7426    3.8661   25.9519 C   0  0  0  0  0  0  0  0  0  0  0  0
    8.1985    2.7678   25.2820 C   0  0  0  0  0  0  0  0  0  0  0  0
    7.7630    2.9082   23.9575 C   0  0  0  0  0  0  0  0  0  0  0  0
    7.2415    1.7068   23.2056 C   0  0  0  0  0  0  0  0  0  0  0  0
    8.3270    1.0510   22.3142 C   0  0  0  0  0  0  0  0  0  0  0  0
    8.0395   -0.3715   21.9493 C   0  0  0  0  0  0  0  0  0  0  0  0
    8.4517   -1.4287   22.6237 N   0  0  0  0  0  0  0  0  0  0  0  0
    7.9377   -2.4779   21.9281 C   0  0  0  0  0  0  0  0  0  0  0  0
    8.1849   -3.8722   22.3678 C   0  0  0  0  0  0  0  0  0  0  0  0
    7.9681   -5.0245   21.3745 C   0  0  0  0  0  0  0  0  0  0  0  0
    7.0626   -4.8643   22.5498 C   0  0  0  0  0  0  0  0  0  0  0  0
    6.5003   -5.8450   23.5129 C   0  0  0  0  0  0  0  0  0  0  0  0
    5.6599   -4.6736   22.9973 C   0  0  0  0  0  0  0  0  0  0  0  0
    4.8447   -4.8825   22.3057 H   0  0  0  0  0  0  0  0  0  0  0  0
    5.5187   -3.8184   23.6594 H   0  0  0  0  0  0  0  0  0  0  0  0
    6.2420   -6.8004   23.0570 H   0  0  0  0  0  0  0  0  0  0  0  0
    6.8480   -5.8822   24.5442 H   0  0  0  0  0  0  0  0  0  0  0  0
    7.5612   -4.8020   20.3905 H   0  0  0  0  0  0  0  0  0  0  0  0
    8.6747   -5.8533   21.4376 H   0  0  0  0  0  0  0  0  0  0  0  0
    8.9740   -3.9144   23.1185 H   0  0  0  0  0  0  0  0  0  0  0  0
    7.2565   -2.1340   20.8480 N   0  0  0  0  0  0  0  0  0  0  0  0
    7.3037   -0.7780   20.8734 N   0  0  0  0  0  0  0  0  0  0  0  0
    6.6255   -0.0280   19.8657 C   0  0  0  0  0  0  0  0  0  0  0  0
    5.4298    0.6498   20.1274 C   0  0  0  0  0  0  0  0  0  0  0  0
    4.8194    1.3377   19.0722 C   0  0  0  0  0  0  0  0  0  0  0  0
    5.4253    1.3251   17.8121 C   0  0  0  0  0  0  0  0  0  0  0  0
    6.5677    0.6637   17.5550 N   0  0  0  0  0  0  0  0  0  0  0  0
    7.1421   -0.0024   18.5607 C   0  0  0  0  0  0  0  0  0  0  0  0
    8.0682   -0.5263   18.3397 H   0  0  0  0  0  0  0  0  0  0  0  0
    4.9763    1.8553   16.9728 H   0  0  0  0  0  0  0  0  0  0  0  0
    3.8914    1.8765   19.2192 H   0  0  0  0  0  0  0  0  0  0  0  0
    4.9807    0.6227   21.1227 H   0  0  0  0  0  0  0  0  0  0  0  0
    8.4760    1.6527   21.4138 H   0  0  0  0  0  0  0  0  0  0  0  0
    9.2836    1.0387   22.8465 H   0  0  0  0  0  0  0  0  0  0  0  0
    6.8892    0.9740   23.9417 H   0  0  0  0  0  0  0  0  0  0  0  0
    6.3728    1.9752   22.5926 H   0  0  0  0  0  0  0  0  0  0  0  0
    8.1114    1.8029   25.7850 H   0  0  0  0  0  0  0  0  0  0  0  0
    9.0615    3.7901   26.9772 H   0  0  0  0  0  0  0  0  0  0  0  0
    9.2882    5.9568   25.7570 H   0  0  0  0  0  0  0  0  0  0  0  0
  1  2  1  0
  2  3  2  0
  3  4  1  0
  4  5  2  0
  5  6  1  0
  6  7  2  0
  7  8  1  0
  8  9  1  0
  9 10  1  0
 10 11  2  0
 11 12  1  0
 12 13  1  0
 13 14  1  0
 14 15  1  0
 15 16  1  0
 16 17  1  0
 17 18  1  0
 17 19  1  0
 16 20  1  0
 16 21  1  0
 14 22  1  0
 14 23  1  0
 13 24  1  0
 12 25  2  0
 25 26  1  0
 26 27  1  0
 27 28  2  0
 28 29  1  0
 29 30  2  0
 30 31  1  0
 31 32  2  0
 32 33  1  0
 30 34  1  0
 29 35  1  0
 28 36  1  0
  9 37  1  0
  9 38  1  0
  8 39  1  0
  8 40  1  0
  6 41  1  0
  5 42  1  0
  4 43  1  0
  7  2  1  0
 26 10  1  0
 32 27  1  0
 15 13  1  0
 17 15  1  0
M  END
>  <cnnaffinity>  (1) 
-6.08319

>  <filename>  (1) 
Clc1ncccc1CCc1nc(C2CC23CC3)nn1-c1cccnc1

$$$$
