
     RDKit          3D

 19 20  0  0  0  0  0  0  0  0999 V2000
    4.9166    1.7797   16.9951 H   0  0  0  0  0  0  0  0  0  0  0  0
    5.4028    1.2923   17.8390 C   0  0  0  0  0  0  0  0  0  0  0  0
    6.5672    0.6731   17.5860 N   0  0  0  0  0  0  0  0  0  0  0  0
    7.1804    0.0613   18.6043 C   0  0  0  0  0  0  0  0  0  0  0  0
    8.1176   -0.4342   18.3668 H   0  0  0  0  0  0  0  0  0  0  0  0
    6.6684    0.0048   19.9148 C   0  0  0  0  0  0  0  0  0  0  0  0
    7.3675   -0.6839   20.9433 N   0  0  0  0  0  0  0  0  0  0  0  0
    6.7844   -1.3404   22.0093 C   0  0  0  0  0  0  0  0  0  0  0  0
    5.7113   -1.3974   22.0886 H   0  0  0  0  0  0  0  0  0  0  0  0
    7.7650   -1.8767   22.7964 C   0  0  0  0  0  0  0  0  0  0  0  0
    7.6307   -2.4488   23.7063 H   0  0  0  0  0  0  0  0  0  0  0  0
    8.9967   -1.5320   22.1801 C   0  0  0  0  0  0  0  0  0  0  0  0
   10.5613   -1.9556   22.7666 Cl  0  0  0  0  0  0  0  0  0  0  0  0
    8.7413   -0.8081   21.0485 C   0  0  0  0  0  0  0  0  0  0  0  0
    9.4165   -0.3504   20.3401 H   0  0  0  0  0  0  0  0  0  0  0  0
    5.4422    0.6468   20.1647 C   0  0  0  0  0  0  0  0  0  0  0  0
    5.0092    0.6402   21.1670 H   0  0  0  0  0  0  0  0  0  0  0  0
    4.8112    1.3081   19.1078 C   0  0  0  0  0  0  0  0  0  0  0  0
    3.8770    1.8405   19.2628 H   0  0  0  0  0  0  0  0  0  0  0  0
  1  2  1  0
  2  3  2  0
  3  4  1  0
  4  5  1  0
  4  6  2  0
  6  7  1  0
  7  8  1  0
  8  9  1  0
  8 10  2  0
 10 11  1  0
 10 12  1  0
 12 13  1  0
 12 14  2  0
 14 15  1  0
  6 16  1  0
 16 17  1  0
 16 18  2  0
 18 19  1  0
 18  2  1  0
 14  7  1  0
M  END
>  <cnnaffinity>  (1) 
-4.38109

>  <filename>  (1) 
Clc1ccn(-c2cccnc2)c1

$$$$
