
     RDKit          3D

 42 45  0  0  0  0  0  0  0  0999 V2000
    6.3178    4.0361   24.0482 Cl  0  0  0  0  0  0  0  0  0  0  0  0
    8.2560    4.0517   22.8171 C   0  0  0  0  0  0  0  0  0  0  0  0
    8.3274    4.1661   22.4711 C   0  0  0  0  0  0  0  0  0  0  0  0
    8.2920    2.6391   21.3754 C   0  0  0  0  0  0  0  0  0  0  0  0
    9.2374    1.7412   21.9048 C   0  0  0  0  0  0  0  0  0  0  0  0
    9.6341    0.4169   21.2946 C   0  0  0  0  0  0  0  0  0  0  0  0
    8.6563   -0.6283   21.6839 C   0  0  0  0  0  0  0  0  0  0  0  0
    8.8045   -1.4266   22.7078 N   0  0  0  0  0  0  0  0  0  0  0  0
    7.6464   -2.1493   22.7263 C   0  0  0  0  0  0  0  0  0  0  0  0
    7.3406   -3.1704   23.7898 C   0  0  0  0  0  0  0  0  0  0  0  0
    7.1447   -2.5073   25.1769 C   0  0  0  0  0  0  0  0  0  0  0  0
    8.5802   -2.2443   25.6765 C   0  0  0  0  0  0  0  0  0  0  0  0
    9.4641   -3.3281   25.0119 C   0  0  0  0  0  0  0  0  0  0  0  0
    8.5265   -4.1217   24.0717 C   0  0  0  0  0  0  0  0  0  0  0  0
    9.0250   -4.4716   23.1605 H   0  0  0  0  0  0  0  0  0  0  0  0
    8.1434   -5.0135   24.5865 H   0  0  0  0  0  0  0  0  0  0  0  0
   10.2718   -2.8636   24.4426 H   0  0  0  0  0  0  0  0  0  0  0  0
    9.9359   -3.9884   25.7491 H   0  0  0  0  0  0  0  0  0  0  0  0
    8.6377   -2.2636   26.7705 H   0  0  0  0  0  0  0  0  0  0  0  0
    8.9084   -1.2505   25.3600 H   0  0  0  0  0  0  0  0  0  0  0  0
    6.5255   -1.6032   25.1336 H   0  0  0  0  0  0  0  0  0  0  0  0
    6.6315   -3.2144   25.8433 H   0  0  0  0  0  0  0  0  0  0  0  0
    6.4460   -3.6987   23.4490 H   0  0  0  0  0  0  0  0  0  0  0  0
    6.7956   -1.8291   21.7739 N   0  0  0  0  0  0  0  0  0  0  0  0
    7.4467   -0.8404   21.0894 N   0  0  0  0  0  0  0  0  0  0  0  0
    6.7969   -0.1848   19.9972 C   0  0  0  0  0  0  0  0  0  0  0  0
    5.5952    0.5044   20.2039 C   0  0  0  0  0  0  0  0  0  0  0  0
    4.9980    1.1361   19.1087 C   0  0  0  0  0  0  0  0  0  0  0  0
    5.6066    1.0439   17.8510 C   0  0  0  0  0  0  0  0  0  0  0  0
    6.7406    0.3593   17.6383 N   0  0  0  0  0  0  0  0  0  0  0  0
    7.3127   -0.2430   18.6898 C   0  0  0  0  0  0  0  0  0  0  0  0
    8.2224   -0.8073   18.4882 H   0  0  0  0  0  0  0  0  0  0  0  0
    5.1642    1.5304   16.9834 H   0  0  0  0  0  0  0  0  0  0  0  0
    4.0744    1.6946   19.2176 H   0  0  0  0  0  0  0  0  0  0  0  0
    5.1414    0.5263   21.1980 H   0  0  0  0  0  0  0  0  0  0  0  0
   10.6108    0.0852   21.6720 H   0  0  0  0  0  0  0  0  0  0  0  0
    9.6938    0.4579   20.1991 H   0  0  0  0  0  0  0  0  0  0  0  0
    9.8180    2.0806   23.1306 N   0  0  0  0  0  0  0  0  0  0  0  0
    9.2932    3.4704   23.5388 C   0  0  0  0  0  0  0  0  0  0  0  0
    8.7182    3.5126   24.4278 H   0  0  0  0  0  0  0  0  0  0  0  0
    7.5652    2.3951   20.5977 H   0  0  0  0  0  0  0  0  0  0  0  0
    8.3652    4.8265   21.5994 H   0  0  0  0  0  0  0  0  0  0  0  0
  1  2  1  0
  2  3  2  0
  3  4  1  0
  4  5  2  0
  5  6  1  0
  6  7  1  0
  7  8  2  0
  8  9  1  0
  9 10  1  0
 10 11  1  0
 11 12  1  0
 12 13  1  0
 13 14  1  0
 14 15  1  0
 14 16  1  0
 13 17  1  0
 13 18  1  0
 12 19  1  0
 12 20  1  0
 11 21  1  0
 11 22  1  0
 10 23  1  0
  9 24  2  0
 24 25  1  0
 25 26  1  0
 26 27  2  0
 27 28  1  0
 28 29  2  0
 29 30  1  0
 30 31  2  0
 31 32  1  0
 29 33  1  0
 28 34  1  0
 27 35  1  0
  6 36  1  0
  6 37  1  0
  5 38  1  0
 38 39  2  0
 39 40  1  0
  4 41  1  0
  3 42  1  0
 39  2  1  0
 25  7  1  0
 31 26  1  0
 14 10  1  0
M  END
>  <cnnaffinity>  (1) 
-6.15615

>  <filename>  (1) 
Clc1ccc(Cc2nc(C3CCCC3)nn2-c2cccnc2)nc1

$$$$
