
     RDKit          3D

 41 44  0  0  0  0  0  0  0  0999 V2000
    9.4062    4.8746   24.9135 Cl  0  0  0  0  0  0  0  0  0  0  0  0
    8.8831    3.2187   25.0452 C   0  0  0  0  0  0  0  0  0  0  0  0
    7.5806    2.9367   25.4670 C   0  0  0  0  0  0  0  0  0  0  0  0
    7.1662    1.6060   25.5749 C   0  0  0  0  0  0  0  0  0  0  0  0
    8.0454    0.5621   25.2522 C   0  0  0  0  0  0  0  0  0  0  0  0
    7.5978   -0.7951   25.3475 N   0  0  0  0  0  0  0  0  0  0  0  0
    7.0279   -1.2859   26.4826 N   0  0  0  0  0  0  0  0  0  0  0  0
    6.7540   -2.5352   26.1617 C   0  0  0  0  0  0  0  0  0  0  0  0
    6.0408   -3.4565   27.0873 C   0  0  0  0  0  0  0  0  0  0  0  0
    4.7296   -3.0264   27.6968 C   0  0  0  0  0  0  0  0  0  0  0  0
    4.7474   -4.1026   26.6531 C   0  0  0  0  0  0  0  0  0  0  0  0
    4.3946   -3.8582   25.6535 H   0  0  0  0  0  0  0  0  0  0  0  0
    4.5429   -5.1270   26.9561 H   0  0  0  0  0  0  0  0  0  0  0  0
    4.3703   -2.0405   27.4110 H   0  0  0  0  0  0  0  0  0  0  0  0
    4.5162   -3.2949   28.7288 H   0  0  0  0  0  0  0  0  0  0  0  0
    6.7079   -4.0562   27.7011 H   0  0  0  0  0  0  0  0  0  0  0  0
    7.1005   -2.8874   24.8925 N   0  0  0  0  0  0  0  0  0  0  0  0
    7.6147   -1.7796   24.4034 C   0  0  0  0  0  0  0  0  0  0  0  0
    8.0112   -1.5868   22.9798 C   0  0  0  0  0  0  0  0  0  0  0  0
    6.9700   -0.7758   22.2048 C   0  0  0  0  0  0  0  0  0  0  0  0
    7.4168   -0.6805   20.8545 O   0  0  0  0  0  0  0  0  0  0  0  0
    6.6687   -0.0025   19.9389 C   0  0  0  0  0  0  0  0  0  0  0  0
    5.4469    0.6420   20.1818 C   0  0  0  0  0  0  0  0  0  0  0  0
    4.8154    1.3024   19.1130 C   0  0  0  0  0  0  0  0  0  0  0  0
    5.4009    1.2895   17.8465 C   0  0  0  0  0  0  0  0  0  0  0  0
    6.5681    0.6677   17.5995 N   0  0  0  0  0  0  0  0  0  0  0  0
    7.1799    0.0520   18.6175 C   0  0  0  0  0  0  0  0  0  0  0  0
    8.1251   -0.4359   18.3987 H   0  0  0  0  0  0  0  0  0  0  0  0
    4.9232    1.7803   16.9977 H   0  0  0  0  0  0  0  0  0  0  0  0
    3.8831    1.8355   19.2615 H   0  0  0  0  0  0  0  0  0  0  0  0
    5.0029    0.6311   21.1778 H   0  0  0  0  0  0  0  0  0  0  0  0
    6.8484    0.2245   22.6472 H   0  0  0  0  0  0  0  0  0  0  0  0
    6.0028   -1.2920   22.2414 H   0  0  0  0  0  0  0  0  0  0  0  0
    8.9778   -1.0843   22.9058 H   0  0  0  0  0  0  0  0  0  0  0  0
    8.1224   -2.5717   22.5222 H   0  0  0  0  0  0  0  0  0  0  0  0
    9.3522    0.8619   24.8367 C   0  0  0  0  0  0  0  0  0  0  0  0
    9.7734    2.1909   24.7335 C   0  0  0  0  0  0  0  0  0  0  0  0
   10.7816    2.4285   24.4098 H   0  0  0  0  0  0  0  0  0  0  0  0
   10.0498    0.0592   24.6215 H   0  0  0  0  0  0  0  0  0  0  0  0
    6.1652    1.3676   25.9188 H   0  0  0  0  0  0  0  0  0  0  0  0
    6.9101    3.7543   25.7161 H   0  0  0  0  0  0  0  0  0  0  0  0
  1  2  1  0
  2  3  2  0
  3  4  1  0
  4  5  2  0
  5  6  1  0
  6  7  1  0
  7  8  2  0
  8  9  1  0
  9 10  1  0
 10 11  1  0
 11 12  1  0
 11 13  1  0
 10 14  1  0
 10 15  1  0
  9 16  1  0
  8 17  1  0
 17 18  2  0
 18 19  1  0
 19 20  1  0
 20 21  1  0
 21 22  1  0
 22 23  2  0
 23 24  1  0
 24 25  2  0
 25 26  1  0
 26 27  2  0
 27 28  1  0
 25 29  1  0
 24 30  1  0
 23 31  1  0
 20 32  1  0
 20 33  1  0
 19 34  1  0
 19 35  1  0
  5 36  1  0
 36 37  2  0
 37 38  1  0
 36 39  1  0
  4 40  1  0
  3 41  1  0
 37  2  1  0
 18  6  1  0
 27 22  1  0
 11  9  1  0
M  END
>  <cnnaffinity>  (1) 
-5.60707

>  <filename>  (1) 
Clc1ccc(-n2nc(C3CC3)nc2CCOc2cccnc2)cc1

$$$$
