
     RDKit          3D

 40 43  0  0  0  0  0  0  0  0999 V2000
    5.4205   -3.4700   19.1175 Cl  0  0  0  0  0  0  0  0  0  0  0  0
    5.7072   -4.5233   20.4797 C   0  0  0  0  0  0  0  0  0  0  0  0
    5.7070   -5.9053   20.2971 C   0  0  0  0  0  0  0  0  0  0  0  0
    5.9070   -6.7076   21.4253 C   0  0  0  0  0  0  0  0  0  0  0  0
    6.1749   -6.2285   22.6412 N   0  0  0  0  0  0  0  0  0  0  0  0
    6.1784   -4.9053   22.7856 C   0  0  0  0  0  0  0  0  0  0  0  0
    5.8988   -3.9878   21.7576 C   0  0  0  0  0  0  0  0  0  0  0  0
    5.7889   -2.5113   22.0715 C   0  0  0  0  0  0  0  0  0  0  0  0
    7.0369   -1.7122   21.9171 C   0  0  0  0  0  0  0  0  0  0  0  0
    8.0518   -1.8713   22.7409 N   0  0  0  0  0  0  0  0  0  0  0  0
    8.9870   -1.0143   22.2616 C   0  0  0  0  0  0  0  0  0  0  0  0
   10.3753   -0.9349   22.8183 C   0  0  0  0  0  0  0  0  0  0  0  0
   11.1440   -2.2390   22.4885 C   0  0  0  0  0  0  0  0  0  0  0  0
   10.6928   -3.1775   23.6344 C   0  0  0  0  0  0  0  0  0  0  0  0
   10.1873   -2.3365   24.6614 O   0  0  0  0  0  0  0  0  0  0  0  0
   10.3978   -0.9797   24.3448 C   0  0  0  0  0  0  0  0  0  0  0  0
    9.6140   -0.4010   24.8423 H   0  0  0  0  0  0  0  0  0  0  0  0
   11.3800   -0.6390   24.7174 H   0  0  0  0  0  0  0  0  0  0  0  0
    9.8823   -3.8537   23.3293 H   0  0  0  0  0  0  0  0  0  0  0  0
   11.5161   -3.7813   24.0385 H   0  0  0  0  0  0  0  0  0  0  0  0
   10.8744   -2.5952   21.4927 H   0  0  0  0  0  0  0  0  0  0  0  0
   12.2290   -2.0756   22.4920 H   0  0  0  0  0  0  0  0  0  0  0  0
   10.8278   -0.0317   22.4138 H   0  0  0  0  0  0  0  0  0  0  0  0
    8.6238   -0.3477   21.1930 N   0  0  0  0  0  0  0  0  0  0  0  0
    7.3377   -0.7625   20.9855 N   0  0  0  0  0  0  0  0  0  0  0  0
    6.6193   -0.1948   19.8953 C   0  0  0  0  0  0  0  0  0  0  0  0
    5.3487    0.3841   20.0082 C   0  0  0  0  0  0  0  0  0  0  0  0
    4.8392    1.0472   18.8795 C   0  0  0  0  0  0  0  0  0  0  0  0
    5.5872    1.0671   17.6984 C   0  0  0  0  0  0  0  0  0  0  0  0
    6.7885    0.4754   17.5777 N   0  0  0  0  0  0  0  0  0  0  0  0
    7.2912   -0.1172   18.6622 C   0  0  0  0  0  0  0  0  0  0  0  0
    8.2794   -0.5665   18.5851 H   0  0  0  0  0  0  0  0  0  0  0  0
    5.2224    1.5827   16.8113 H   0  0  0  0  0  0  0  0  0  0  0  0
    3.8821    1.5566   18.9100 H   0  0  0  0  0  0  0  0  0  0  0  0
    4.8041    0.3779   20.9551 H   0  0  0  0  0  0  0  0  0  0  0  0
    4.9910   -2.0561   21.4896 H   0  0  0  0  0  0  0  0  0  0  0  0
    5.5395   -2.4353   23.1338 H   0  0  0  0  0  0  0  0  0  0  0  0
    6.4114   -4.5309   23.7835 H   0  0  0  0  0  0  0  0  0  0  0  0
    5.8448   -7.7885   21.3756 H   0  0  0  0  0  0  0  0  0  0  0  0
    5.5456   -6.3476   19.3221 H   0  0  0  0  0  0  0  0  0  0  0  0
  1  2  1  0
  2  3  2  0
  3  4  1  0
  4  5  2  0
  5  6  1  0
  6  7  2  0
  7  8  1  0
  8  9  1  0
  9 10  2  0
 10 11  1  0
 11 12  1  0
 12 13  1  0
 13 14  1  0
 14 15  1  0
 15 16  1  0
 16 17  1  0
 16 18  1  0
 14 19  1  0
 14 20  1  0
 13 21  1  0
 13 22  1  0
 12 23  1  0
 11 24  2  0
 24 25  1  0
 25 26  1  0
 26 27  2  0
 27 28  1  0
 28 29  2  0
 29 30  1  0
 30 31  2  0
 31 32  1  0
 29 33  1  0
 28 34  1  0
 27 35  1  0
  8 36  1  0
  8 37  1  0
  6 38  1  0
  4 39  1  0
  3 40  1  0
  7  2  1  0
 25  9  1  0
 31 26  1  0
 16 12  1  0
M  END
>  <cnnaffinity>  (1) 
-5.40276

>  <filename>  (1) 
Clc1ccncc1Cc1nc(C2CCOC2)nn1-c1cccnc1

$$$$
