
     RDKit          3D

 41 44  0  0  0  0  0  0  0  0999 V2000
   13.9902    0.1989   23.6204 Cl  0  0  0  0  0  0  0  0  0  0  0  0
   12.4838    0.5792   22.8918 C   0  0  0  0  0  0  0  0  0  0  0  0
   11.8795   -0.0827   21.8521 C   0  0  0  0  0  0  0  0  0  0  0  0
   10.7422    0.6016   21.5870 N   0  0  0  0  0  0  0  0  0  0  0  0
    9.6733    0.2132   20.6916 C   0  0  0  0  0  0  0  0  0  0  0  0
    8.6411   -0.6187   21.3595 C   0  0  0  0  0  0  0  0  0  0  0  0
    8.8545   -1.4743   22.3286 N   0  0  0  0  0  0  0  0  0  0  0  0
    7.6183   -1.9813   22.5676 C   0  0  0  0  0  0  0  0  0  0  0  0
    7.3888   -2.9302   23.6996 C   0  0  0  0  0  0  0  0  0  0  0  0
    7.5447   -2.2238   25.0745 C   0  0  0  0  0  0  0  0  0  0  0  0
    7.5362   -3.1966   26.2289 C   0  0  0  0  0  0  0  0  0  0  0  0
    7.7568   -4.5065   26.0852 C   0  0  0  0  0  0  0  0  0  0  0  0
    7.9760   -5.1625   24.7408 C   0  0  0  0  0  0  0  0  0  0  0  0
    8.3239   -4.1571   23.6303 C   0  0  0  0  0  0  0  0  0  0  0  0
    8.2530   -4.6419   22.6503 H   0  0  0  0  0  0  0  0  0  0  0  0
    9.3629   -3.8161   23.7328 H   0  0  0  0  0  0  0  0  0  0  0  0
    7.0597   -5.7062   24.4701 H   0  0  0  0  0  0  0  0  0  0  0  0
    8.7533   -5.9322   24.8143 H   0  0  0  0  0  0  0  0  0  0  0  0
    7.7777   -5.1533   26.9631 H   0  0  0  0  0  0  0  0  0  0  0  0
    7.3467   -2.7846   27.2194 H   0  0  0  0  0  0  0  0  0  0  0  0
    6.7579   -1.4713   25.2086 H   0  0  0  0  0  0  0  0  0  0  0  0
    8.4912   -1.6630   25.0873 H   0  0  0  0  0  0  0  0  0  0  0  0
    6.3539   -3.2620   23.5890 H   0  0  0  0  0  0  0  0  0  0  0  0
    6.6744   -1.5336   21.7685 N   0  0  0  0  0  0  0  0  0  0  0  0
    7.3407   -0.6812   20.9429 N   0  0  0  0  0  0  0  0  0  0  0  0
    6.6583    0.0069   19.9041 C   0  0  0  0  0  0  0  0  0  0  0  0
    5.4389    0.6461   20.1664 C   0  0  0  0  0  0  0  0  0  0  0  0
    4.8129    1.3108   19.1094 C   0  0  0  0  0  0  0  0  0  0  0  0
    5.4025    1.2950   17.8382 C   0  0  0  0  0  0  0  0  0  0  0  0
    6.5617    0.6725   17.5799 N   0  0  0  0  0  0  0  0  0  0  0  0
    7.1708    0.0533   18.5952 C   0  0  0  0  0  0  0  0  0  0  0  0
    8.1139   -0.4320   18.3617 H   0  0  0  0  0  0  0  0  0  0  0  0
    4.9220    1.7839   16.9932 H   0  0  0  0  0  0  0  0  0  0  0  0
    3.8808    1.8400   19.2601 H   0  0  0  0  0  0  0  0  0  0  0  0
    5.0170    0.6091   21.1741 H   0  0  0  0  0  0  0  0  0  0  0  0
    9.2447    1.1200   20.2679 H   0  0  0  0  0  0  0  0  0  0  0  0
   10.0832   -0.4006   19.8902 H   0  0  0  0  0  0  0  0  0  0  0  0
   10.5637    1.6430   22.4121 N   0  0  0  0  0  0  0  0  0  0  0  0
   11.6217    1.6516   23.2093 C   0  0  0  0  0  0  0  0  0  0  0  0
   11.7537    2.4039   23.9798 H   0  0  0  0  0  0  0  0  0  0  0  0
   12.1621   -0.9783   21.3130 H   0  0  0  0  0  0  0  0  0  0  0  0
  1  2  1  0
  2  3  2  0
  3  4  1  0
  4  5  1  0
  5  6  1  0
  6  7  2  0
  7  8  1  0
  8  9  1  0
  9 10  1  0
 10 11  1  0
 11 12  2  0
 12 13  1  0
 13 14  1  0
 14 15  1  0
 14 16  1  0
 13 17  1  0
 13 18  1  0
 12 19  1  0
 11 20  1  0
 10 21  1  0
 10 22  1  0
  9 23  1  0
  8 24  2  0
 24 25  1  0
 25 26  1  0
 26 27  2  0
 27 28  1  0
 28 29  2  0
 29 30  1  0
 30 31  2  0
 31 32  1  0
 29 33  1  0
 28 34  1  0
 27 35  1  0
  5 36  1  0
  5 37  1  0
  4 38  1  0
 38 39  2  0
 39 40  1  0
  3 41  1  0
 39  2  1  0
 25  6  1  0
 31 26  1  0
 14  9  1  0
M  END
>  <cnnaffinity>  (1) 
-6.60531

>  <filename>  (1) 
Clc1cnn(Cc2nc(C3CC=CCC3)nn2-c2cccnc2)c1

$$$$
