
     RDKit          3D

 40 43  0  0  0  0  0  0  0  0999 V2000
    9.2698    2.3860   21.0437 Cl  0  0  0  0  0  0  0  0  0  0  0  0
    9.5483    2.1908   22.7490 C   0  0  0  0  0  0  0  0  0  0  0  0
   10.8182    2.4910   23.2598 C   0  0  0  0  0  0  0  0  0  0  0  0
   11.0799    2.2572   24.6112 C   0  0  0  0  0  0  0  0  0  0  0  0
   10.0570    1.8023   25.4462 C   0  0  0  0  0  0  0  0  0  0  0  0
    8.7774    1.5711   24.9336 C   0  0  0  0  0  0  0  0  0  0  0  0
    8.5090    1.7138   23.5662 C   0  0  0  0  0  0  0  0  0  0  0  0
    7.1949    1.2132   22.9716 C   0  0  0  0  0  0  0  0  0  0  0  0
    7.3689   -0.1332   22.3255 C   0  0  0  0  0  0  0  0  0  0  0  0
    7.8910   -1.1714   22.9566 N   0  0  0  0  0  0  0  0  0  0  0  0
    7.9939   -2.1114   21.9840 C   0  0  0  0  0  0  0  0  0  0  0  0
    8.5780   -3.4677   22.1751 C   0  0  0  0  0  0  0  0  0  0  0  0
    7.6368   -4.5057   22.7791 C   0  0  0  0  0  0  0  0  0  0  0  0
    6.7840   -5.3591   21.8871 C   0  0  0  0  0  0  0  0  0  0  0  0
    7.9761   -5.9557   22.5800 C   0  0  0  0  0  0  0  0  0  0  0  0
    8.8610   -6.1831   21.9884 H   0  0  0  0  0  0  0  0  0  0  0  0
    7.8091   -6.6527   23.3981 H   0  0  0  0  0  0  0  0  0  0  0  0
    5.7953   -5.6451   22.2395 H   0  0  0  0  0  0  0  0  0  0  0  0
    6.8234   -5.1778   20.8136 H   0  0  0  0  0  0  0  0  0  0  0  0
    7.2082   -4.2272   23.7437 H   0  0  0  0  0  0  0  0  0  0  0  0
    8.9035   -3.7940   21.1816 H   0  0  0  0  0  0  0  0  0  0  0  0
    9.4665   -3.3588   22.8040 H   0  0  0  0  0  0  0  0  0  0  0  0
    7.5557   -1.7332   20.8058 N   0  0  0  0  0  0  0  0  0  0  0  0
    7.1125   -0.4682   21.0177 N   0  0  0  0  0  0  0  0  0  0  0  0
    6.4948    0.2070   19.9296 C   0  0  0  0  0  0  0  0  0  0  0  0
    5.2923    0.9189   20.0477 C   0  0  0  0  0  0  0  0  0  0  0  0
    4.7464    1.4802   18.8824 C   0  0  0  0  0  0  0  0  0  0  0  0
    5.4280    1.3407   17.6702 C   0  0  0  0  0  0  0  0  0  0  0  0
    6.5812    0.6599   17.5532 N   0  0  0  0  0  0  0  0  0  0  0  0
    7.0769    0.0869   18.6521 C   0  0  0  0  0  0  0  0  0  0  0  0
    7.9726   -0.5191   18.5329 H   0  0  0  0  0  0  0  0  0  0  0  0
    5.0542    1.7961   16.7535 H   0  0  0  0  0  0  0  0  0  0  0  0
    3.8145    2.0350   18.9036 H   0  0  0  0  0  0  0  0  0  0  0  0
    4.7752    1.0035   21.0044 H   0  0  0  0  0  0  0  0  0  0  0  0
    6.4597    1.1062   23.7761 H   0  0  0  0  0  0  0  0  0  0  0  0
    6.8107    1.9358   22.2475 H   0  0  0  0  0  0  0  0  0  0  0  0
    7.9659    1.2799   25.6018 H   0  0  0  0  0  0  0  0  0  0  0  0
   10.2582    1.6036   26.4883 H   0  0  0  0  0  0  0  0  0  0  0  0
   12.0704    2.4533   25.0163 H   0  0  0  0  0  0  0  0  0  0  0  0
   11.5814    2.8971   22.6022 H   0  0  0  0  0  0  0  0  0  0  0  0
  1  2  1  0
  2  3  2  0
  3  4  1  0
  4  5  2  0
  5  6  1  0
  6  7  2  0
  7  8  1  0
  8  9  1  0
  9 10  2  0
 10 11  1  0
 11 12  1  0
 12 13  1  0
 13 14  1  0
 14 15  1  0
 15 16  1  0
 15 17  1  0
 14 18  1  0
 14 19  1  0
 13 20  1  0
 12 21  1  0
 12 22  1  0
 11 23  2  0
 23 24  1  0
 24 25  1  0
 25 26  2  0
 26 27  1  0
 27 28  2  0
 28 29  1  0
 29 30  2  0
 30 31  1  0
 28 32  1  0
 27 33  1  0
 26 34  1  0
  8 35  1  0
  8 36  1  0
  6 37  1  0
  5 38  1  0
  4 39  1  0
  3 40  1  0
  7  2  1  0
 24  9  1  0
 30 25  1  0
 15 13  1  0
M  END
>  <cnnaffinity>  (1) 
-5.60837

>  <filename>  (1) 
Clc1ccccc1Cc1nc(CC2CC2)nn1-c1cccnc1

$$$$
