
     RDKit          3D

 38 41  0  0  0  0  0  0  0  0999 V2000
    5.1748   -3.9671   22.4250 Cl  0  0  0  0  0  0  0  0  0  0  0  0
    6.3860   -3.9045   23.6707 C   0  0  0  0  0  0  0  0  0  0  0  0
    6.2599   -4.8193   24.7218 C   0  0  0  0  0  0  0  0  0  0  0  0
    7.2015   -4.8460   25.7503 C   0  0  0  0  0  0  0  0  0  0  0  0
    8.2785   -3.9550   25.7364 C   0  0  0  0  0  0  0  0  0  0  0  0
    8.4048   -3.0460   24.6919 C   0  0  0  0  0  0  0  0  0  0  0  0
    7.4639   -2.9986   23.6358 C   0  0  0  0  0  0  0  0  0  0  0  0
    7.6554   -2.0072   22.5585 C   0  0  0  0  0  0  0  0  0  0  0  0
    6.7385   -1.5851   21.7069 N   0  0  0  0  0  0  0  0  0  0  0  0
    7.3905   -0.6343   20.9898 N   0  0  0  0  0  0  0  0  0  0  0  0
    6.7084    0.0337   19.9175 C   0  0  0  0  0  0  0  0  0  0  0  0
    5.4754    0.6480   20.1681 C   0  0  0  0  0  0  0  0  0  0  0  0
    4.8328    1.3076   19.1169 C   0  0  0  0  0  0  0  0  0  0  0  0
    5.4270    1.3040   17.8497 C   0  0  0  0  0  0  0  0  0  0  0  0
    6.5893    0.6855   17.5886 N   0  0  0  0  0  0  0  0  0  0  0  0
    7.2113    0.0667   18.6022 C   0  0  0  0  0  0  0  0  0  0  0  0
    8.1379   -0.4495   18.3479 H   0  0  0  0  0  0  0  0  0  0  0  0
    4.9463    1.8068   17.0133 H   0  0  0  0  0  0  0  0  0  0  0  0
    3.8862    1.8171   19.2683 H   0  0  0  0  0  0  0  0  0  0  0  0
    5.0426    0.5828   21.1675 H   0  0  0  0  0  0  0  0  0  0  0  0
    8.6605   -0.5172   21.4781 C   0  0  0  0  0  0  0  0  0  0  0  0
    9.5923    0.5928   21.1328 C   0  0  0  0  0  0  0  0  0  0  0  0
    9.1613    1.8663   21.8066 C   0  0  0  0  0  0  0  0  0  0  0  0
    9.0550    2.2691   23.1189 C   0  0  0  0  0  0  0  0  0  0  0  0
    8.4057    3.5366   23.1304 C   0  0  0  0  0  0  0  0  0  0  0  0
    8.1254    3.8570   21.8283 C   0  0  0  0  0  0  0  0  0  0  0  0
    8.5773    2.8262   21.0497 N   0  0  0  0  0  0  0  0  0  0  0  0
    8.3472    2.7167   20.0758 H   0  0  0  0  0  0  0  0  0  0  0  0
    7.6793    4.7280   21.3699 H   0  0  0  0  0  0  0  0  0  0  0  0
    8.1679    4.1282   24.0037 H   0  0  0  0  0  0  0  0  0  0  0  0
    9.3562    1.6968   23.9824 H   0  0  0  0  0  0  0  0  0  0  0  0
   10.5923    0.2869   21.4476 H   0  0  0  0  0  0  0  0  0  0  0  0
    9.5826    0.7505   20.0503 H   0  0  0  0  0  0  0  0  0  0  0  0
    8.8614   -1.3870   22.4316 N   0  0  0  0  0  0  0  0  0  0  0  0
    9.2460   -2.3561   24.6755 H   0  0  0  0  0  0  0  0  0  0  0  0
    9.0194   -3.9709   26.5316 H   0  0  0  0  0  0  0  0  0  0  0  0
    7.0974   -5.5609   26.5613 H   0  0  0  0  0  0  0  0  0  0  0  0
    5.4201   -5.5045   24.7159 H   0  0  0  0  0  0  0  0  0  0  0  0
  1  2  1  0
  2  3  2  0
  3  4  1  0
  4  5  2  0
  5  6  1  0
  6  7  2  0
  7  8  1  0
  8  9  2  0
  9 10  1  0
 10 11  1  0
 11 12  2  0
 12 13  1  0
 13 14  2  0
 14 15  1  0
 15 16  2  0
 16 17  1  0
 14 18  1  0
 13 19  1  0
 12 20  1  0
 10 21  1  0
 21 22  1  0
 22 23  1  0
 23 24  2  0
 24 25  1  0
 25 26  2  0
 26 27  1  0
 27 28  1  0
 26 29  1  0
 25 30  1  0
 24 31  1  0
 22 32  1  0
 22 33  1  0
 21 34  2  0
  6 35  1  0
  5 36  1  0
  4 37  1  0
  3 38  1  0
  7  2  1  0
 34  8  1  0
 16 11  1  0
 27 23  1  0
M  END
>  <cnnaffinity>  (1) 
-6.0393

>  <filename>  (1) 
Clc1ccccc1-c1nc(Cc2ccc[nH]2)n(-c2cccnc2)n1

$$$$
