
     RDKit          3D

 27 29  0  0  0  0  0  0  0  0999 V2000
    4.9178    1.7735   17.0013 H   0  0  0  0  0  0  0  0  0  0  0  0
    5.4074    1.2887   17.8433 C   0  0  0  0  0  0  0  0  0  0  0  0
    6.5726    0.6718   17.5883 N   0  0  0  0  0  0  0  0  0  0  0  0
    7.1739    0.0604   18.6127 C   0  0  0  0  0  0  0  0  0  0  0  0
    8.1151   -0.4290   18.3706 H   0  0  0  0  0  0  0  0  0  0  0  0
    6.6528    0.0052   19.9138 C   0  0  0  0  0  0  0  0  0  0  0  0
    7.3759   -0.7079   20.9754 C   0  0  0  0  0  0  0  0  0  0  0  0
    6.6944   -1.1145   22.0960 N   0  0  0  0  0  0  0  0  0  0  0  0
    7.4795   -1.7129   22.9468 C   0  0  0  0  0  0  0  0  0  0  0  0
    7.0193   -2.1974   24.2794 C   0  0  0  0  0  0  0  0  0  0  0  0
    6.0904   -1.4069   24.9874 C   0  0  0  0  0  0  0  0  0  0  0  0
    5.7166   -0.4964   24.5264 H   0  0  0  0  0  0  0  0  0  0  0  0
    5.6284   -1.7780   26.2486 C   0  0  0  0  0  0  0  0  0  0  0  0
    4.9029   -1.1547   26.7639 H   0  0  0  0  0  0  0  0  0  0  0  0
    6.0908   -2.9497   26.8461 C   0  0  0  0  0  0  0  0  0  0  0  0
    5.7362   -3.2430   27.8299 H   0  0  0  0  0  0  0  0  0  0  0  0
    7.0094   -3.7581   26.1725 C   0  0  0  0  0  0  0  0  0  0  0  0
    7.5344   -5.2103   26.9630 Cl  0  0  0  0  0  0  0  0  0  0  0  0
    7.4685   -3.3988   24.8856 C   0  0  0  0  0  0  0  0  0  0  0  0
    8.5332   -4.4715   24.0610 Cl  0  0  0  0  0  0  0  0  0  0  0  0
    9.1490   -1.7762   22.4364 S   0  0  0  0  0  0  0  0  0  0  0  0
    8.7125   -0.9771   20.9860 C   0  0  0  0  0  0  0  0  0  0  0  0
    9.4419   -0.7144   20.2374 H   0  0  0  0  0  0  0  0  0  0  0  0
    5.4322    0.6546   20.1621 C   0  0  0  0  0  0  0  0  0  0  0  0
    5.0060    0.6260   21.1678 H   0  0  0  0  0  0  0  0  0  0  0  0
    4.8056    1.3121   19.1086 C   0  0  0  0  0  0  0  0  0  0  0  0
    3.8726    1.8445   19.2623 H   0  0  0  0  0  0  0  0  0  0  0  0
  1  2  1  0
  2  3  2  0
  3  4  1  0
  4  5  1  0
  4  6  2  0
  6  7  1  0
  7  8  1  0
  8  9  2  0
  9 10  1  0
 10 11  2  0
 11 12  1  0
 11 13  1  0
 13 14  1  0
 13 15  2  0
 15 16  1  0
 15 17  1  0
 17 18  1  0
 17 19  2  0
 19 20  1  0
  9 21  1  0
 21 22  1  0
 22 23  1  0
  6 24  1  0
 24 25  1  0
 24 26  2  0
 26 27  1  0
 26  2  1  0
 22  7  2  0
 19 10  1  0
M  END
>  <cnnaffinity>  (1) 
-5.67135

>  <filename>  (1) 
Clc1cccc(-c2nc(-c3cccnc3)cs2)c1Cl

$$$$
