
     RDKit          3D

 28 30  0  0  0  0  0  0  0  0999 V2000
    4.9378    1.7997   16.9818 H   0  0  0  0  0  0  0  0  0  0  0  0
    5.4048    1.2920   17.8217 C   0  0  0  0  0  0  0  0  0  0  0  0
    6.5642    0.6725   17.5545 N   0  0  0  0  0  0  0  0  0  0  0  0
    7.1738    0.0541   18.5703 C   0  0  0  0  0  0  0  0  0  0  0  0
    8.1249   -0.4218   18.3360 H   0  0  0  0  0  0  0  0  0  0  0  0
    6.6583    0.0063   19.8749 C   0  0  0  0  0  0  0  0  0  0  0  0
    7.3946   -0.6944   20.9276 C   0  0  0  0  0  0  0  0  0  0  0  0
    8.5342   -1.3448   20.6849 N   0  0  0  0  0  0  0  0  0  0  0  0
    8.9000   -1.8475   21.8728 N   0  0  0  0  0  0  0  0  0  0  0  0
    9.7426   -2.4022   21.9496 H   0  0  0  0  0  0  0  0  0  0  0  0
    8.0367   -1.5406   22.8749 C   0  0  0  0  0  0  0  0  0  0  0  0
    8.1996   -1.9235   24.2850 C   0  0  0  0  0  0  0  0  0  0  0  0
    7.9465   -0.9245   25.2451 C   0  0  0  0  0  0  0  0  0  0  0  0
    7.6411    0.0516   24.8767 H   0  0  0  0  0  0  0  0  0  0  0  0
    8.0457   -1.1937   26.6073 C   0  0  0  0  0  0  0  0  0  0  0  0
    7.8546   -0.4233   27.3517 H   0  0  0  0  0  0  0  0  0  0  0  0
    8.3676   -2.4875   27.0099 C   0  0  0  0  0  0  0  0  0  0  0  0
    8.3462   -2.7777   28.0418 H   0  0  0  0  0  0  0  0  0  0  0  0
    8.6426   -3.4932   26.0839 C   0  0  0  0  0  0  0  0  0  0  0  0
    9.1028   -5.0489   26.7010 Cl  0  0  0  0  0  0  0  0  0  0  0  0
    8.5381   -3.2276   24.7105 C   0  0  0  0  0  0  0  0  0  0  0  0
    8.7639   -4.5175   23.5721 Cl  0  0  0  0  0  0  0  0  0  0  0  0
    7.0506   -0.7863   22.2860 C   0  0  0  0  0  0  0  0  0  0  0  0
    6.1936   -0.3583   22.7825 H   0  0  0  0  0  0  0  0  0  0  0  0
    5.4389    0.6519   20.1367 C   0  0  0  0  0  0  0  0  0  0  0  0
    4.9999    0.6493   21.1356 H   0  0  0  0  0  0  0  0  0  0  0  0
    4.8095    1.3070   19.0865 C   0  0  0  0  0  0  0  0  0  0  0  0
    3.8802    1.8356   19.2429 H   0  0  0  0  0  0  0  0  0  0  0  0
  1  2  1  0
  2  3  2  0
  3  4  1  0
  4  5  1  0
  4  6  2  0
  6  7  1  0
  7  8  2  0
  8  9  1  0
  9 10  1  0
  9 11  1  0
 11 12  1  0
 12 13  2  0
 13 14  1  0
 13 15  1  0
 15 16  1  0
 15 17  2  0
 17 18  1  0
 17 19  1  0
 19 20  1  0
 19 21  2  0
 21 22  1  0
 11 23  2  0
 23 24  1  0
  6 25  1  0
 25 26  1  0
 25 27  2  0
 27 28  1  0
 27  2  1  0
 23  7  1  0
 21 12  1  0
M  END
>  <cnnaffinity>  (1) 
-5.46168

>  <filename>  (1) 
Clc1cccc(-c2cc(-c3cccnc3)n[nH]2)c1Cl

$$$$
