
     RDKit          3D

 26 28  0  0  0  0  0  0  0  0999 V2000
    5.6235   -1.3745   27.4843 Cl  0  0  0  0  0  0  0  0  0  0  0  0
    6.9248   -1.8629   26.4268 C   0  0  0  0  0  0  0  0  0  0  0  0
    7.9839   -2.6183   26.9360 C   0  0  0  0  0  0  0  0  0  0  0  0
    9.0233   -3.0082   26.0899 C   0  0  0  0  0  0  0  0  0  0  0  0
    9.0142   -2.6511   24.7442 C   0  0  0  0  0  0  0  0  0  0  0  0
    7.9499   -1.8895   24.2232 C   0  0  0  0  0  0  0  0  0  0  0  0
    7.9441   -1.5083   22.7858 C   0  0  0  0  0  0  0  0  0  0  0  0
    8.9012   -1.8555   21.9588 N   0  0  0  0  0  0  0  0  0  0  0  0
    8.5059   -1.3020   20.7473 O   0  0  0  0  0  0  0  0  0  0  0  0
    7.3500   -0.6793   20.9711 C   0  0  0  0  0  0  0  0  0  0  0  0
    6.6574    0.0133   19.8957 C   0  0  0  0  0  0  0  0  0  0  0  0
    5.4408    0.6544   20.1551 C   0  0  0  0  0  0  0  0  0  0  0  0
    4.8048    1.3130   19.1144 C   0  0  0  0  0  0  0  0  0  0  0  0
    5.3997    1.2883   17.8515 C   0  0  0  0  0  0  0  0  0  0  0  0
    6.5693    0.6812   17.5999 N   0  0  0  0  0  0  0  0  0  0  0  0
    7.1884    0.0548   18.6051 C   0  0  0  0  0  0  0  0  0  0  0  0
    8.1364   -0.4399   18.3816 H   0  0  0  0  0  0  0  0  0  0  0  0
    4.9043    1.7684   17.0106 H   0  0  0  0  0  0  0  0  0  0  0  0
    3.8751    1.8439   19.2691 H   0  0  0  0  0  0  0  0  0  0  0  0
    5.0113    0.6270   21.1553 H   0  0  0  0  0  0  0  0  0  0  0  0
    6.9476   -0.7686   22.2033 N   0  0  0  0  0  0  0  0  0  0  0  0
    6.8999   -1.4962   25.0795 C   0  0  0  0  0  0  0  0  0  0  0  0
    6.0686   -0.9091   24.7015 H   0  0  0  0  0  0  0  0  0  0  0  0
    9.8316   -2.9634   24.1016 H   0  0  0  0  0  0  0  0  0  0  0  0
    9.8480   -3.5965   26.4843 H   0  0  0  0  0  0  0  0  0  0  0  0
    8.0063   -2.9047   27.9719 H   0  0  0  0  0  0  0  0  0  0  0  0
  1  2  1  0
  2  3  2  0
  3  4  1  0
  4  5  2  0
  5  6  1  0
  6  7  1  0
  7  8  2  0
  8  9  1  0
  9 10  1  0
 10 11  1  0
 11 12  2  0
 12 13  1  0
 13 14  2  0
 14 15  1  0
 15 16  2  0
 16 17  1  0
 14 18  1  0
 13 19  1  0
 12 20  1  0
 10 21  2  0
  6 22  2  0
 22 23  1  0
  5 24  1  0
  4 25  1  0
  3 26  1  0
 22  2  1  0
 21  7  1  0
 16 11  1  0
M  END
>  <cnnaffinity>  (1) 
-4.8057

>  <filename>  (1) 
Clc1cccc(-c2noc(-c3cccnc3)n2)c1

$$$$
