
     RDKit          3D

 24 25  0  0  0  0  0  0  0  0999 V2000
    4.9434    1.7959   16.9474 H   0  0  0  0  0  0  0  0  0  0  0  0
    5.4180    1.3137   17.8030 C   0  0  0  0  0  0  0  0  0  0  0  0
    6.5907    0.7032   17.5611 N   0  0  0  0  0  0  0  0  0  0  0  0
    7.1723    0.0599   18.5832 C   0  0  0  0  0  0  0  0  0  0  0  0
    8.1042   -0.4647   18.3736 H   0  0  0  0  0  0  0  0  0  0  0  0
    6.6380    0.0197   19.8857 C   0  0  0  0  0  0  0  0  0  0  0  0
    7.4775   -0.8607   21.2154 S   0  0  0  0  0  0  0  0  0  0  0  0
    8.6348    0.4848   22.1915 S   0  0  0  0  0  0  0  0  0  0  0  0
    7.5642    1.2189   23.3105 O   0  0  0  0  0  0  0  0  0  0  0  0
    6.8677    2.3853   22.8993 C   0  0  0  0  0  0  0  0  0  0  0  0
    7.2141    3.1778   21.8049 C   0  0  0  0  0  0  0  0  0  0  0  0
    8.0848    2.9559   21.2013 H   0  0  0  0  0  0  0  0  0  0  0  0
    6.4197    4.2943   21.5096 C   0  0  0  0  0  0  0  0  0  0  0  0
    6.6246    4.9201   20.6425 H   0  0  0  0  0  0  0  0  0  0  0  0
    5.3293    4.6317   22.3042 C   0  0  0  0  0  0  0  0  0  0  0  0
    4.7310    5.5021   22.0714 H   0  0  0  0  0  0  0  0  0  0  0  0
    5.0321    3.8454   23.4242 C   0  0  0  0  0  0  0  0  0  0  0  0
    3.6676    4.2415   24.4246 Cl  0  0  0  0  0  0  0  0  0  0  0  0
    5.8089    2.7295   23.7391 C   0  0  0  0  0  0  0  0  0  0  0  0
    5.6258    2.1135   24.6133 H   0  0  0  0  0  0  0  0  0  0  0  0
    5.4035    0.6375   20.1137 C   0  0  0  0  0  0  0  0  0  0  0  0
    4.9716    0.5866   21.1165 H   0  0  0  0  0  0  0  0  0  0  0  0
    4.7794    1.2957   19.0476 C   0  0  0  0  0  0  0  0  0  0  0  0
    3.8150    1.7774   19.1751 H   0  0  0  0  0  0  0  0  0  0  0  0
  1  2  1  0
  2  3  2  0
  3  4  1  0
  4  5  1  0
  4  6  2  0
  6  7  1  0
  7  8  1  0
  8  9  1  0
  9 10  1  0
 10 11  2  0
 11 12  1  0
 11 13  1  0
 13 14  1  0
 13 15  2  0
 15 16  1  0
 15 17  1  0
 17 18  1  0
 17 19  2  0
 19 20  1  0
  6 21  1  0
 21 22  1  0
 21 23  2  0
 23 24  1  0
 23  2  1  0
 19 10  1  0
M  END
>  <cnnaffinity>  (1) 
-4.67152

>  <filename>  (1) 
Clc1cccc(OSSc2cccnc2)c1

$$$$
