
     RDKit          3D

 38 41  0  0  0  0  0  0  0  0999 V2000
    5.0381   -4.0846   22.5120 Cl  0  0  0  0  0  0  0  0  0  0  0  0
    6.2819   -4.0585   23.7278 C   0  0  0  0  0  0  0  0  0  0  0  0
    6.1478   -4.9603   24.7952 C   0  0  0  0  0  0  0  0  0  0  0  0
    7.0931   -4.9802   25.8255 C   0  0  0  0  0  0  0  0  0  0  0  0
    8.1800   -4.0999   25.7974 C   0  0  0  0  0  0  0  0  0  0  0  0
    8.3157   -3.2188   24.7330 C   0  0  0  0  0  0  0  0  0  0  0  0
    7.3823   -3.1784   23.6712 C   0  0  0  0  0  0  0  0  0  0  0  0
    7.6246   -2.1991   22.5924 C   0  0  0  0  0  0  0  0  0  0  0  0
    6.7633   -1.7894   21.6830 N   0  0  0  0  0  0  0  0  0  0  0  0
    7.4482   -0.8187   21.0196 N   0  0  0  0  0  0  0  0  0  0  0  0
    6.7928   -0.0953   19.9687 C   0  0  0  0  0  0  0  0  0  0  0  0
    5.5830    0.5690   20.2124 C   0  0  0  0  0  0  0  0  0  0  0  0
    4.9712    1.2488   19.1551 C   0  0  0  0  0  0  0  0  0  0  0  0
    5.5704    1.2312   17.8913 C   0  0  0  0  0  0  0  0  0  0  0  0
    6.7177    0.5820   17.6419 N   0  0  0  0  0  0  0  0  0  0  0  0
    7.3094   -0.0535   18.6631 C   0  0  0  0  0  0  0  0  0  0  0  0
    8.2277   -0.5808   18.4185 H   0  0  0  0  0  0  0  0  0  0  0  0
    5.1177    1.7642   17.0573 H   0  0  0  0  0  0  0  0  0  0  0  0
    4.0460    1.7972   19.2955 H   0  0  0  0  0  0  0  0  0  0  0  0
    5.1328    0.5332   21.2049 H   0  0  0  0  0  0  0  0  0  0  0  0
    8.6869   -0.6856   21.5989 C   0  0  0  0  0  0  0  0  0  0  0  0
    9.6856    0.3881   21.3242 C   0  0  0  0  0  0  0  0  0  0  0  0
    9.2324    1.6967   21.9117 C   0  0  0  0  0  0  0  0  0  0  0  0
    9.4407    2.1687   23.1798 C   0  0  0  0  0  0  0  0  0  0  0  0
    8.7108    3.3203   23.3281 N   0  0  0  0  0  0  0  0  0  0  0  0
    8.0116    3.5766   22.1734 C   0  0  0  0  0  0  0  0  0  0  0  0
    8.3237    2.5802   21.2805 C   0  0  0  0  0  0  0  0  0  0  0  0
    7.9728    2.4168   20.2728 H   0  0  0  0  0  0  0  0  0  0  0  0
    7.3769    4.4479   22.0807 H   0  0  0  0  0  0  0  0  0  0  0  0
    8.6471    3.8633   24.1770 H   0  0  0  0  0  0  0  0  0  0  0  0
   10.0239    1.7482   23.9874 H   0  0  0  0  0  0  0  0  0  0  0  0
   10.6461    0.0475   21.7283 H   0  0  0  0  0  0  0  0  0  0  0  0
    9.8052    0.4782   20.2463 H   0  0  0  0  0  0  0  0  0  0  0  0
    8.8266   -1.5600   22.5528 N   0  0  0  0  0  0  0  0  0  0  0  0
    9.1562   -2.5296   24.7039 H   0  0  0  0  0  0  0  0  0  0  0  0
    8.9196   -4.0856   26.5975 H   0  0  0  0  0  0  0  0  0  0  0  0
    6.9895   -5.6781   26.6543 H   0  0  0  0  0  0  0  0  0  0  0  0
    5.2952   -5.6353   24.8152 H   0  0  0  0  0  0  0  0  0  0  0  0
  1  2  1  0
  2  3  2  0
  3  4  1  0
  4  5  2  0
  5  6  1  0
  6  7  2  0
  7  8  1  0
  8  9  2  0
  9 10  1  0
 10 11  1  0
 11 12  2  0
 12 13  1  0
 13 14  2  0
 14 15  1  0
 15 16  2  0
 16 17  1  0
 14 18  1  0
 13 19  1  0
 12 20  1  0
 10 21  1  0
 21 22  1  0
 22 23  1  0
 23 24  2  0
 24 25  1  0
 25 26  1  0
 26 27  2  0
 27 28  1  0
 26 29  1  0
 25 30  1  0
 24 31  1  0
 22 32  1  0
 22 33  1  0
 21 34  2  0
  6 35  1  0
  5 36  1  0
  4 37  1  0
  3 38  1  0
  7  2  1  0
 34  8  1  0
 16 11  1  0
 27 23  1  0
M  END
>  <cnnaffinity>  (1) 
-5.96439

>  <filename>  (1) 
Clc1ccccc1-c1nc(Cc2cc[nH]c2)n(-c2cccnc2)n1

$$$$
