
     RDKit          3D

 30 33  0  0  0  0  0  0  0  0999 V2000
    4.9121    1.8159   16.9716 H   0  0  0  0  0  0  0  0  0  0  0  0
    5.3755    1.3049   17.8177 C   0  0  0  0  0  0  0  0  0  0  0  0
    6.5378    0.6846   17.5622 N   0  0  0  0  0  0  0  0  0  0  0  0
    7.1521    0.0765   18.5807 C   0  0  0  0  0  0  0  0  0  0  0  0
    8.1022   -0.3890   18.3281 H   0  0  0  0  0  0  0  0  0  0  0  0
    6.6673    0.0266   19.9087 C   0  0  0  0  0  0  0  0  0  0  0  0
    7.4288   -0.6749   20.9636 C   0  0  0  0  0  0  0  0  0  0  0  0
    8.3381   -1.7044   20.9097 C   0  0  0  0  0  0  0  0  0  0  0  0
    8.7510   -2.1218   20.0105 H   0  0  0  0  0  0  0  0  0  0  0  0
    8.7900   -2.1174   22.1337 N   0  0  0  0  0  0  0  0  0  0  0  0
    8.1855   -1.2989   22.9527 C   0  0  0  0  0  0  0  0  0  0  0  0
    8.2488   -0.9448   24.6396 S   0  0  0  0  0  0  0  0  0  0  0  0
    7.1484    0.4107   24.3031 C   0  0  0  0  0  0  0  0  0  0  0  0
    6.7402    1.3331   25.3797 C   0  0  0  0  0  0  0  0  0  0  0  0
    7.6243    1.5493   26.4552 C   0  0  0  0  0  0  0  0  0  0  0  0
    8.5799    1.0256   26.4774 H   0  0  0  0  0  0  0  0  0  0  0  0
    7.2873    2.4114   27.4937 C   0  0  0  0  0  0  0  0  0  0  0  0
    7.9846    2.5458   28.3144 H   0  0  0  0  0  0  0  0  0  0  0  0
    6.0603    3.0776   27.4762 C   0  0  0  0  0  0  0  0  0  0  0  0
    5.7709    3.7644   28.2647 H   0  0  0  0  0  0  0  0  0  0  0  0
    5.1649    2.8718   26.4249 C   0  0  0  0  0  0  0  0  0  0  0  0
    3.6616    3.7334   26.4637 Cl  0  0  0  0  0  0  0  0  0  0  0  0
    5.4912    1.9978   25.3719 C   0  0  0  0  0  0  0  0  0  0  0  0
    4.3296    1.7468   24.1210 Cl  0  0  0  0  0  0  0  0  0  0  0  0
    6.7641    0.5394   23.0758 N   0  0  0  0  0  0  0  0  0  0  0  0
    7.3539   -0.4137   22.3276 N   0  0  0  0  0  0  0  0  0  0  0  0
    5.4365    0.6686   20.1463 C   0  0  0  0  0  0  0  0  0  0  0  0
    5.0253    0.6660   21.1552 H   0  0  0  0  0  0  0  0  0  0  0  0
    4.7882    1.3142   19.0875 C   0  0  0  0  0  0  0  0  0  0  0  0
    3.8547    1.8490   19.2277 H   0  0  0  0  0  0  0  0  0  0  0  0
  1  2  1  0
  2  3  2  0
  3  4  1  0
  4  5  1  0
  4  6  2  0
  6  7  1  0
  7  8  2  0
  8  9  1  0
  8 10  1  0
 10 11  2  0
 11 12  1  0
 12 13  1  0
 13 14  1  0
 14 15  2  0
 15 16  1  0
 15 17  1  0
 17 18  1  0
 17 19  2  0
 19 20  1  0
 19 21  1  0
 21 22  1  0
 21 23  2  0
 23 24  1  0
 13 25  2  0
 25 26  1  0
  6 27  1  0
 27 28  1  0
 27 29  2  0
 29 30  1  0
 29  2  1  0
 26  7  1  0
 26 11  1  0
 23 14  1  0
M  END
>  <cnnaffinity>  (1) 
-5.52111

>  <filename>  (1) 
Clc1cccc(-c2nn3c(-c4cccnc4)cnc3s2)c1Cl

$$$$
