
     RDKit          3D

 35 38  0  0  0  0  0  0  0  0999 V2000
    4.9803    1.7962   16.8926 H   0  0  0  0  0  0  0  0  0  0  0  0
    5.4546    1.3220   17.7508 C   0  0  0  0  0  0  0  0  0  0  0  0
    6.6259    0.7080   17.5232 N   0  0  0  0  0  0  0  0  0  0  0  0
    7.2292    0.1090   18.5553 C   0  0  0  0  0  0  0  0  0  0  0  0
    8.1718   -0.3876   18.3331 H   0  0  0  0  0  0  0  0  0  0  0  0
    6.7023    0.0828   19.8591 C   0  0  0  0  0  0  0  0  0  0  0  0
    7.3741   -0.6770   20.9302 C   0  0  0  0  0  0  0  0  0  0  0  0
    8.5842   -1.2266   20.7393 N   0  0  0  0  0  0  0  0  0  0  0  0
    8.7697   -1.9254   21.8796 N   0  0  0  0  0  0  0  0  0  0  0  0
    9.7620   -2.7483   22.3836 C   0  0  0  0  0  0  0  0  0  0  0  0
   10.7185   -2.8245   21.9018 H   0  0  0  0  0  0  0  0  0  0  0  0
    9.2559   -3.2707   23.5302 C   0  0  0  0  0  0  0  0  0  0  0  0
    9.6975   -3.9731   24.2187 H   0  0  0  0  0  0  0  0  0  0  0  0
    7.9876   -2.7467   23.7649 N   0  0  0  0  0  0  0  0  0  0  0  0
    6.9939   -3.2166   24.7256 C   0  0  0  0  0  0  0  0  0  0  0  0
    6.4546   -2.3507   25.1208 H   0  0  0  0  0  0  0  0  0  0  0  0
    7.5315   -3.6688   25.5653 H   0  0  0  0  0  0  0  0  0  0  0  0
    5.9987   -4.2085   24.1365 C   0  0  0  0  0  0  0  0  0  0  0  0
    4.6735   -3.8452   23.8767 C   0  0  0  0  0  0  0  0  0  0  0  0
    4.3397   -2.8527   24.1593 H   0  0  0  0  0  0  0  0  0  0  0  0
    3.7932   -4.7415   23.2696 C   0  0  0  0  0  0  0  0  0  0  0  0
    2.7555   -4.4936   23.0922 H   0  0  0  0  0  0  0  0  0  0  0  0
    4.2343   -6.0045   22.8697 C   0  0  0  0  0  0  0  0  0  0  0  0
    3.0873   -7.0350   22.0831 Cl  0  0  0  0  0  0  0  0  0  0  0  0
    5.5715   -6.3711   23.0934 C   0  0  0  0  0  0  0  0  0  0  0  0
    6.2401   -7.8341   22.4484 Cl  0  0  0  0  0  0  0  0  0  0  0  0
    6.4223   -5.4923   23.7730 C   0  0  0  0  0  0  0  0  0  0  0  0
    7.4365   -5.8204   23.9827 H   0  0  0  0  0  0  0  0  0  0  0  0
    7.7236   -1.8787   22.7308 C   0  0  0  0  0  0  0  0  0  0  0  0
    6.8132   -0.9882   22.1942 C   0  0  0  0  0  0  0  0  0  0  0  0
    5.9976   -0.4889   22.6798 H   0  0  0  0  0  0  0  0  0  0  0  0
    5.4760    0.7325   20.0755 C   0  0  0  0  0  0  0  0  0  0  0  0
    5.0262    0.7472   21.0672 H   0  0  0  0  0  0  0  0  0  0  0  0
    4.8410    1.3556   19.0058 C   0  0  0  0  0  0  0  0  0  0  0  0
    3.8933    1.8665   19.1324 H   0  0  0  0  0  0  0  0  0  0  0  0
  1  2  1  0
  2  3  2  0
  3  4  1  0
  4  5  1  0
  4  6  2  0
  6  7  1  0
  7  8  2  0
  8  9  1  0
  9 10  1  0
 10 11  1  0
 10 12  2  0
 12 13  1  0
 12 14  1  0
 14 15  1  0
 15 16  1  0
 15 17  1  0
 15 18  1  0
 18 19  2  0
 19 20  1  0
 19 21  1  0
 21 22  1  0
 21 23  2  0
 23 24  1  0
 23 25  1  0
 25 26  1  0
 25 27  2  0
 27 28  1  0
 14 29  1  0
 29 30  2  0
 30 31  1  0
  6 32  1  0
 32 33  1  0
 32 34  2  0
 34 35  1  0
 34  2  1  0
 30  7  1  0
 29  9  1  0
 27 18  1  0
M  END
>  <cnnaffinity>  (1) 
-5.99511

>  <filename>  (1) 
Clc1ccc(Cn2ccn3nc(-c4cccnc4)cc23)cc1Cl

$$$$
