
     RDKit          3D

 31 33  0  0  0  0  0  0  0  0999 V2000
    5.1265    1.8861   16.7922 H   0  0  0  0  0  0  0  0  0  0  0  0
    5.5179    1.3383   17.6478 C   0  0  0  0  0  0  0  0  0  0  0  0
    6.6536    0.6535   17.4431 N   0  0  0  0  0  0  0  0  0  0  0  0
    7.1523   -0.0185   18.4887 C   0  0  0  0  0  0  0  0  0  0  0  0
    8.0734   -0.5635   18.2986 H   0  0  0  0  0  0  0  0  0  0  0  0
    6.5693   -0.0759   19.7686 C   0  0  0  0  0  0  0  0  0  0  0  0
    7.2099   -0.8879   20.8303 C   0  0  0  0  0  0  0  0  0  0  0  0
    6.2933   -1.6073   22.1055 S   0  0  0  0  0  0  0  0  0  0  0  0
    7.7049   -2.1734   22.8953 C   0  0  0  0  0  0  0  0  0  0  0  0
    7.6279   -2.6990   23.8364 H   0  0  0  0  0  0  0  0  0  0  0  0
    8.8437   -1.8626   22.2141 C   0  0  0  0  0  0  0  0  0  0  0  0
   10.2548   -2.1183   22.7104 C   0  0  0  0  0  0  0  0  0  0  0  0
   10.8224   -2.6512   21.9365 H   0  0  0  0  0  0  0  0  0  0  0  0
   10.2319   -2.7679   23.5950 H   0  0  0  0  0  0  0  0  0  0  0  0
   10.9687   -0.8232   23.0684 C   0  0  0  0  0  0  0  0  0  0  0  0
   11.6958   -0.1017   22.1033 C   0  0  0  0  0  0  0  0  0  0  0  0
   11.7119   -0.4604   21.0743 H   0  0  0  0  0  0  0  0  0  0  0  0
   12.3951    1.0579   22.4423 C   0  0  0  0  0  0  0  0  0  0  0  0
   12.9743    1.5914   21.6911 H   0  0  0  0  0  0  0  0  0  0  0  0
   12.3141    1.5644   23.7425 C   0  0  0  0  0  0  0  0  0  0  0  0
   12.8456    2.4754   23.9968 H   0  0  0  0  0  0  0  0  0  0  0  0
   11.5274    0.9214   24.7029 C   0  0  0  0  0  0  0  0  0  0  0  0
   11.3767    1.3191   25.7038 H   0  0  0  0  0  0  0  0  0  0  0  0
   10.8675   -0.2583   24.3532 C   0  0  0  0  0  0  0  0  0  0  0  0
    9.8384   -0.9824   25.5604 Cl  0  0  0  0  0  0  0  0  0  0  0  0
    8.5375   -1.1606   21.0009 C   0  0  0  0  0  0  0  0  0  0  0  0
    9.2930   -0.8918   20.2691 H   0  0  0  0  0  0  0  0  0  0  0  0
    5.3899    0.6725   19.9636 C   0  0  0  0  0  0  0  0  0  0  0  0
    4.9111    0.7108   20.9430 H   0  0  0  0  0  0  0  0  0  0  0  0
    4.8593    1.3778   18.8821 C   0  0  0  0  0  0  0  0  0  0  0  0
    3.9539    1.9658   18.9866 H   0  0  0  0  0  0  0  0  0  0  0  0
  1  2  1  0
  2  3  2  0
  3  4  1  0
  4  5  1  0
  4  6  2  0
  6  7  1  0
  7  8  1  0
  8  9  1  0
  9 10  1  0
  9 11  2  0
 11 12  1  0
 12 13  1  0
 12 14  1  0
 12 15  1  0
 15 16  2  0
 16 17  1  0
 16 18  1  0
 18 19  1  0
 18 20  2  0
 20 21  1  0
 20 22  1  0
 22 23  1  0
 22 24  2  0
 24 25  1  0
 11 26  1  0
 26 27  1  0
  6 28  1  0
 28 29  1  0
 28 30  2  0
 30 31  1  0
 30  2  1  0
 26  7  2  0
 24 15  1  0
M  END
>  <cnnaffinity>  (1) 
-5.09702

>  <filename>  (1) 
Clc1ccccc1Cc1csc(-c2cccnc2)c1

$$$$
