
     RDKit          3D

 34 36  0  0  0  0  0  0  0  0999 V2000
    4.9120    1.8029   16.9755 H   0  0  0  0  0  0  0  0  0  0  0  0
    5.3859    1.3075   17.8174 C   0  0  0  0  0  0  0  0  0  0  0  0
    6.5497    0.6903   17.5490 N   0  0  0  0  0  0  0  0  0  0  0  0
    7.1550    0.0674   18.5693 C   0  0  0  0  0  0  0  0  0  0  0  0
    8.1110   -0.3960   18.3342 H   0  0  0  0  0  0  0  0  0  0  0  0
    6.6524    0.0086   19.8857 C   0  0  0  0  0  0  0  0  0  0  0  0
    7.3905   -0.6677   20.9670 C   0  0  0  0  0  0  0  0  0  0  0  0
    7.7445   -0.2187   22.2256 C   0  0  0  0  0  0  0  0  0  0  0  0
    7.5569    1.1682   22.7552 C   0  0  0  0  0  0  0  0  0  0  0  0
    7.7528    1.1900   23.8292 H   0  0  0  0  0  0  0  0  0  0  0  0
    6.5174    1.4992   22.6466 H   0  0  0  0  0  0  0  0  0  0  0  0
    8.4717    2.1823   22.0399 C   0  0  0  0  0  0  0  0  0  0  0  0
    9.5161    1.8830   22.1814 H   0  0  0  0  0  0  0  0  0  0  0  0
    8.2720    2.1288   20.9626 H   0  0  0  0  0  0  0  0  0  0  0  0
    8.2583    3.5895   22.5479 C   0  0  0  0  0  0  0  0  0  0  0  0
    7.3044    4.4210   21.9426 C   0  0  0  0  0  0  0  0  0  0  0  0
    6.7080    4.0186   21.1278 H   0  0  0  0  0  0  0  0  0  0  0  0
    7.0487    5.7123   22.3998 C   0  0  0  0  0  0  0  0  0  0  0  0
    6.3224    6.3231   21.8712 H   0  0  0  0  0  0  0  0  0  0  0  0
    7.7204    6.1900   23.5274 C   0  0  0  0  0  0  0  0  0  0  0  0
    7.5190    7.1912   23.8964 H   0  0  0  0  0  0  0  0  0  0  0  0
    8.6428    5.3745   24.1896 C   0  0  0  0  0  0  0  0  0  0  0  0
    9.1697    5.7104   25.0774 H   0  0  0  0  0  0  0  0  0  0  0  0
    8.8997    4.0920   23.6946 C   0  0  0  0  0  0  0  0  0  0  0  0
   10.0230    3.0854   24.5722 Cl  0  0  0  0  0  0  0  0  0  0  0  0
    8.5015   -1.2785   22.7772 C   0  0  0  0  0  0  0  0  0  0  0  0
    8.9990   -1.2982   23.7404 H   0  0  0  0  0  0  0  0  0  0  0  0
    8.6098   -2.3074   21.9471 N   0  0  0  0  0  0  0  0  0  0  0  0
    7.9355   -1.9033   20.8561 N   0  0  0  0  0  0  0  0  0  0  0  0
    7.8360   -2.5225   20.0643 H   0  0  0  0  0  0  0  0  0  0  0  0
    5.4379    0.6616   20.1399 C   0  0  0  0  0  0  0  0  0  0  0  0
    5.0165    0.6335   21.1497 H   0  0  0  0  0  0  0  0  0  0  0  0
    4.7970    1.3211   19.0877 C   0  0  0  0  0  0  0  0  0  0  0  0
    3.8661    1.8465   19.2445 H   0  0  0  0  0  0  0  0  0  0  0  0
  1  2  1  0
  2  3  2  0
  3  4  1  0
  4  5  1  0
  4  6  2  0
  6  7  1  0
  7  8  2  0
  8  9  1  0
  9 10  1  0
  9 11  1  0
  9 12  1  0
 12 13  1  0
 12 14  1  0
 12 15  1  0
 15 16  2  0
 16 17  1  0
 16 18  1  0
 18 19  1  0
 18 20  2  0
 20 21  1  0
 20 22  1  0
 22 23  1  0
 22 24  2  0
 24 25  1  0
  8 26  1  0
 26 27  1  0
 26 28  2  0
 28 29  1  0
 29 30  1  0
  6 31  1  0
 31 32  1  0
 31 33  2  0
 33 34  1  0
 33  2  1  0
 29  7  1  0
 24 15  1  0
M  END
>  <cnnaffinity>  (1) 
-5.32131

>  <filename>  (1) 
Clc1ccccc1CCc1cn[nH]c1-c1cccnc1

$$$$
