
     RDKit          3D

 42 45  0  0  0  0  0  0  0  0999 V2000
    6.1751    2.6000   25.7139 Cl  0  0  0  0  0  0  0  0  0  0  0  0
    7.5239    1.5404   26.0354 C   0  0  0  0  0  0  0  0  0  0  0  0
    7.5851    1.0872   27.2737 N   0  0  0  0  0  0  0  0  0  0  0  0
    8.5674    0.2265   27.5680 C   0  0  0  0  0  0  0  0  0  0  0  0
    9.5018   -0.2244   26.6418 C   0  0  0  0  0  0  0  0  0  0  0  0
    9.4158    0.2748   25.3433 C   0  0  0  0  0  0  0  0  0  0  0  0
    8.4379    1.2215   25.0077 C   0  0  0  0  0  0  0  0  0  0  0  0
    8.3948    1.8433   23.6326 C   0  0  0  0  0  0  0  0  0  0  0  0
    7.2919    1.2872   22.7083 C   0  0  0  0  0  0  0  0  0  0  0  0
    7.4736   -0.1077   22.2004 C   0  0  0  0  0  0  0  0  0  0  0  0
    8.0255   -1.1212   22.8510 N   0  0  0  0  0  0  0  0  0  0  0  0
    8.0444   -2.1166   21.9331 C   0  0  0  0  0  0  0  0  0  0  0  0
    8.6084   -3.4824   22.1445 C   0  0  0  0  0  0  0  0  0  0  0  0
    7.6855   -4.4932   22.8082 C   0  0  0  0  0  0  0  0  0  0  0  0
    6.7831   -5.3448   21.9560 C   0  0  0  0  0  0  0  0  0  0  0  0
    7.9866   -5.9527   22.6274 C   0  0  0  0  0  0  0  0  0  0  0  0
    7.8242   -6.6311   23.4583 H   0  0  0  0  0  0  0  0  0  0  0  0
    8.8410   -6.2215   22.0118 H   0  0  0  0  0  0  0  0  0  0  0  0
    6.8044   -5.2053   20.8747 H   0  0  0  0  0  0  0  0  0  0  0  0
    5.8047   -5.6280   22.3412 H   0  0  0  0  0  0  0  0  0  0  0  0
    7.3010   -4.1766   23.7764 H   0  0  0  0  0  0  0  0  0  0  0  0
    9.5344   -3.3801   22.7165 H   0  0  0  0  0  0  0  0  0  0  0  0
    8.8526   -3.8464   21.1439 H   0  0  0  0  0  0  0  0  0  0  0  0
    7.5503   -1.7873   20.7596 N   0  0  0  0  0  0  0  0  0  0  0  0
    7.1249   -0.5170   20.9396 N   0  0  0  0  0  0  0  0  0  0  0  0
    6.4833    0.1438   19.8542 C   0  0  0  0  0  0  0  0  0  0  0  0
    5.2849    0.8529   20.0043 C   0  0  0  0  0  0  0  0  0  0  0  0
    4.7372    1.4617   18.8690 C   0  0  0  0  0  0  0  0  0  0  0  0
    5.4139    1.3574   17.6500 C   0  0  0  0  0  0  0  0  0  0  0  0
    6.5498    0.6517   17.4954 N   0  0  0  0  0  0  0  0  0  0  0  0
    7.0478    0.0337   18.5687 C   0  0  0  0  0  0  0  0  0  0  0  0
    7.9246   -0.5954   18.4156 H   0  0  0  0  0  0  0  0  0  0  0  0
    5.0190    1.8250   16.7513 H   0  0  0  0  0  0  0  0  0  0  0  0
    3.7999    2.0067   18.9151 H   0  0  0  0  0  0  0  0  0  0  0  0
    4.7860    0.9018   20.9741 H   0  0  0  0  0  0  0  0  0  0  0  0
    6.3382    1.3296   23.2420 H   0  0  0  0  0  0  0  0  0  0  0  0
    7.1988    1.9518   21.8449 H   0  0  0  0  0  0  0  0  0  0  0  0
    8.2166    2.9211   23.7357 H   0  0  0  0  0  0  0  0  0  0  0  0
    9.3826    1.7421   23.1638 H   0  0  0  0  0  0  0  0  0  0  0  0
   10.0795   -0.0929   24.5674 H   0  0  0  0  0  0  0  0  0  0  0  0
   10.2692   -0.9290   26.9374 H   0  0  0  0  0  0  0  0  0  0  0  0
    8.5846   -0.1260   28.5900 H   0  0  0  0  0  0  0  0  0  0  0  0
  1  2  1  0
  2  3  2  0
  3  4  1  0
  4  5  2  0
  5  6  1  0
  6  7  2  0
  7  8  1  0
  8  9  1  0
  9 10  1  0
 10 11  2  0
 11 12  1  0
 12 13  1  0
 13 14  1  0
 14 15  1  0
 15 16  1  0
 16 17  1  0
 16 18  1  0
 15 19  1  0
 15 20  1  0
 14 21  1  0
 13 22  1  0
 13 23  1  0
 12 24  2  0
 24 25  1  0
 25 26  1  0
 26 27  2  0
 27 28  1  0
 28 29  2  0
 29 30  1  0
 30 31  2  0
 31 32  1  0
 29 33  1  0
 28 34  1  0
 27 35  1  0
  9 36  1  0
  9 37  1  0
  8 38  1  0
  8 39  1  0
  6 40  1  0
  5 41  1  0
  4 42  1  0
  7  2  1  0
 25 10  1  0
 31 26  1  0
 16 14  1  0
M  END
>  <cnnaffinity>  (1) 
-6.29488

>  <filename>  (1) 
Clc1ncccc1CCc1nc(CC2CC2)nn1-c1cccnc1

$$$$
