
     RDKit          3D

 32 33  0  0  0  0  0  0  0  0999 V2000
    9.3148    1.0053   21.3205 C   0  0  0  0  0  0  0  0  0  0  0  0
    9.0382   -0.4119   21.0341 N   0  0  0  0  0  0  0  0  0  0  0  0
    9.9414   -1.4150   21.6467 C   0  0  0  0  0  0  0  0  0  0  0  0
    9.7842   -1.5674   23.1456 C   0  0  0  0  0  0  0  0  0  0  0  0
    8.8509   -2.4704   23.6922 C   0  0  0  0  0  0  0  0  0  0  0  0
    8.5518   -2.4512   25.0564 C   0  0  0  0  0  0  0  0  0  0  0  0
    9.1509   -1.5100   25.8940 C   0  0  0  0  0  0  0  0  0  0  0  0
   10.0849   -0.6158   25.3666 C   0  0  0  0  0  0  0  0  0  0  0  0
   10.7231    0.6165   26.3762 Cl  0  0  0  0  0  0  0  0  0  0  0  0
   10.4715   -0.7057   24.0187 C   0  0  0  0  0  0  0  0  0  0  0  0
   11.8445    0.2121   23.4645 Cl  0  0  0  0  0  0  0  0  0  0  0  0
    8.9267   -1.4577   26.9567 H   0  0  0  0  0  0  0  0  0  0  0  0
    7.8342   -3.1630   25.4572 H   0  0  0  0  0  0  0  0  0  0  0  0
    8.2989   -3.1391   23.0337 H   0  0  0  0  0  0  0  0  0  0  0  0
    9.7824   -2.3781   21.1519 H   0  0  0  0  0  0  0  0  0  0  0  0
   10.9668   -1.1161   21.4150 H   0  0  0  0  0  0  0  0  0  0  0  0
    7.4297   -0.8585   21.2185 S   0  0  0  0  0  0  0  0  0  0  0  0
    7.3389   -2.2648   20.8601 O   0  0  0  0  0  0  0  0  0  0  0  0
    6.9295   -0.3827   22.4953 O   0  0  0  0  0  0  0  0  0  0  0  0
    6.6652    0.0636   19.9912 C   0  0  0  0  0  0  0  0  0  0  0  0
    5.4509    0.7238   20.2077 C   0  0  0  0  0  0  0  0  0  0  0  0
    4.8842    1.3142   19.0858 C   0  0  0  0  0  0  0  0  0  0  0  0
    5.5538    1.2251   17.8584 C   0  0  0  0  0  0  0  0  0  0  0  0
    6.7185    0.5830   17.6839 N   0  0  0  0  0  0  0  0  0  0  0  0
    7.2675   -0.0021   18.7462 C   0  0  0  0  0  0  0  0  0  0  0  0
    8.2184   -0.5109   18.5855 H   0  0  0  0  0  0  0  0  0  0  0  0
    5.1322    1.6819   16.9689 H   0  0  0  0  0  0  0  0  0  0  0  0
    3.9395    1.8416   19.1434 H   0  0  0  0  0  0  0  0  0  0  0  0
    4.9753    0.7696   21.1943 H   0  0  0  0  0  0  0  0  0  0  0  0
    9.0684    1.3018   22.3499 H   0  0  0  0  0  0  0  0  0  0  0  0
   10.3790    1.1966   21.1409 H   0  0  0  0  0  0  0  0  0  0  0  0
    8.7587    1.6511   20.6291 H   0  0  0  0  0  0  0  0  0  0  0  0
  1  2  1  0
  2  3  1  0
  3  4  1  0
  4  5  2  0
  5  6  1  0
  6  7  2  0
  7  8  1  0
  8  9  1  0
  8 10  2  0
 10 11  1  0
  7 12  1  0
  6 13  1  0
  5 14  1  0
  3 15  1  0
  3 16  1  0
  2 17  1  0
 17 18  2  0
 17 19  2  0
 17 20  1  0
 20 21  2  0
 21 22  1  0
 22 23  2  0
 23 24  1  0
 24 25  2  0
 25 26  1  0
 23 27  1  0
 22 28  1  0
 21 29  1  0
  1 30  1  0
  1 31  1  0
  1 32  1  0
 10  4  1  0
 25 20  1  0
M  END
>  <cnnaffinity>  (1) 
-4.79521

>  <filename>  (1) 
CN(Cc1cccc(Cl)c1Cl)S(=O)(=O)c1cccnc1

$$$$
