
     RDKit          3D

 38 40  0  0  0  0  0  0  0  0999 V2000
    4.9384    1.7875   16.9604 H   0  0  0  0  0  0  0  0  0  0  0  0
    5.4099    1.3059   17.8192 C   0  0  0  0  0  0  0  0  0  0  0  0
    6.5727    0.6749   17.5988 N   0  0  0  0  0  0  0  0  0  0  0  0
    7.1560    0.0677   18.6404 C   0  0  0  0  0  0  0  0  0  0  0  0
    8.1028   -0.4247   18.4291 H   0  0  0  0  0  0  0  0  0  0  0  0
    6.6442    0.0560   19.9499 C   0  0  0  0  0  0  0  0  0  0  0  0
    7.3876   -0.6388   21.0229 C   0  0  0  0  0  0  0  0  0  0  0  0
    8.1155   -1.7622   21.0463 C   0  0  0  0  0  0  0  0  0  0  0  0
    8.3789   -2.5195   20.3409 H   0  0  0  0  0  0  0  0  0  0  0  0
    8.5737   -2.0317   22.3101 O   0  0  0  0  0  0  0  0  0  0  0  0
    8.1451   -1.0556   23.1542 C   0  0  0  0  0  0  0  0  0  0  0  0
    8.3911   -1.0329   24.3386 O   0  0  0  0  0  0  0  0  0  0  0  0
    7.4093   -0.1733   22.3586 N   0  0  0  0  0  0  0  0  0  0  0  0
    6.8002    1.0000   22.7458 N   0  0  0  0  0  0  0  0  0  0  0  0
    6.1688    1.0594   24.0661 C   0  0  0  0  0  0  0  0  0  0  0  0
    6.6734    0.3806   24.7680 H   0  0  0  0  0  0  0  0  0  0  0  0
    5.1183    0.7421   23.9772 H   0  0  0  0  0  0  0  0  0  0  0  0
    6.3387    2.5282   24.4683 C   0  0  0  0  0  0  0  0  0  0  0  0
    7.1489    2.6223   25.2021 H   0  0  0  0  0  0  0  0  0  0  0  0
    5.4280    2.9331   24.9165 H   0  0  0  0  0  0  0  0  0  0  0  0
    6.7521    3.2862   23.1905 C   0  0  1  0  0  0  0  0  0  0  0  0
    5.8450    3.5054   22.5888 H   0  0  0  0  0  0  0  0  0  0  0  0
    7.5243    4.4959   23.4630 N   0  0  0  0  0  0  0  0  0  0  0  0
    8.0211    5.1130   22.2362 C   0  0  0  0  0  0  0  0  0  0  0  0
    8.6551    4.4007   21.6990 H   0  0  0  0  0  0  0  0  0  0  0  0
    7.2176    5.4429   21.5480 H   0  0  0  0  0  0  0  0  0  0  0  0
    8.6423    5.9798   22.4828 H   0  0  0  0  0  0  0  0  0  0  0  0
    6.7880    5.4325   24.3012 C   0  0  0  0  0  0  0  0  0  0  0  0
    7.4106    6.3068   24.5094 H   0  0  0  0  0  0  0  0  0  0  0  0
    5.8416    5.7825   23.8451 H   0  0  0  0  0  0  0  0  0  0  0  0
    6.5516    4.9689   25.2662 H   0  0  0  0  0  0  0  0  0  0  0  0
    7.5418    2.2181   22.4390 C   0  0  0  0  0  0  0  0  0  0  0  0
    7.5621    2.3965   21.3544 H   0  0  0  0  0  0  0  0  0  0  0  0
    8.5809    2.1816   22.8068 H   0  0  0  0  0  0  0  0  0  0  0  0
    5.4250    0.7350   20.1610 C   0  0  0  0  0  0  0  0  0  0  0  0
    5.0025    0.7962   21.1635 H   0  0  0  0  0  0  0  0  0  0  0  0
    4.7971    1.3451   19.0767 C   0  0  0  0  0  0  0  0  0  0  0  0
    3.8471    1.8548   19.1876 H   0  0  0  0  0  0  0  0  0  0  0  0
  1  2  1  0
  2  3  2  0
  3  4  1  0
  4  5  1  0
  4  6  2  0
  6  7  1  0
  7  8  2  0
  8  9  1  0
  8 10  1  0
 10 11  1  0
 11 12  2  0
 11 13  1  0
 13 14  1  0
 14 15  1  0
 15 16  1  0
 15 17  1  0
 15 18  1  0
 18 19  1  0
 18 20  1  0
 18 21  1  0
 21 22  1  6
 21 23  1  0
 23 24  1  0
 24 25  1  0
 24 26  1  0
 24 27  1  0
 23 28  1  0
 28 29  1  0
 28 30  1  0
 28 31  1  0
 21 32  1  0
 32 33  1  0
 32 34  1  0
  6 35  1  0
 35 36  1  0
 35 37  2  0
 37 38  1  0
 37  2  1  0
 13  7  1  0
 32 14  1  0
M  END
>  <cnnaffinity>  (1) 
-4.78578

>  <filename>  (1) 
CN(C)[C@@H]1CCN(n2c(-c3cccnc3)coc2=O)C1

$$$$
