
     RDKit          3D

 44 46  0  0  0  0  0  0  0  0999 V2000
    9.8340    0.4443   21.0559 C   0  0  0  0  0  0  0  0  0  0  0  0
    8.5909    0.2945   21.8193 N   0  0  0  0  0  0  0  0  0  0  0  0
    8.0182    1.4682   22.4886 C   0  0  0  0  0  0  0  0  0  0  0  0
    8.0405    2.6823   21.5558 C   0  0  0  0  0  0  0  0  0  0  0  0
    7.2343    3.8345   22.1613 C   0  0  0  0  0  0  0  0  0  0  0  0
    7.4433    3.9259   23.6032 N   0  0  0  0  0  0  0  0  0  0  0  0
    6.5210    4.6267   24.3918 C   0  0  0  0  0  0  0  0  0  0  0  0
    5.9803    5.8599   23.9742 C   0  0  0  0  0  0  0  0  0  0  0  0
    5.0524    6.5402   24.7691 C   0  0  0  0  0  0  0  0  0  0  0  0
    4.6323    5.9963   25.9882 C   0  0  0  0  0  0  0  0  0  0  0  0
    5.1532    4.7678   26.4105 C   0  0  0  0  0  0  0  0  0  0  0  0
    6.0937    4.0957   25.6258 C   0  0  0  0  0  0  0  0  0  0  0  0
    6.4965    3.1368   25.9332 H   0  0  0  0  0  0  0  0  0  0  0  0
    4.8314    4.3315   27.3554 H   0  0  0  0  0  0  0  0  0  0  0  0
    3.9032    6.5220   26.6005 H   0  0  0  0  0  0  0  0  0  0  0  0
    4.6504    7.4949   24.4311 H   0  0  0  0  0  0  0  0  0  0  0  0
    6.3085    6.2735   23.0258 H   0  0  0  0  0  0  0  0  0  0  0  0
    8.6475    3.3132   24.1489 C   0  0  0  0  0  0  0  0  0  0  0  0
    8.7283    1.8001   23.8239 C   0  0  0  0  0  0  0  0  0  0  0  0
    9.7799    1.4918   23.7972 H   0  0  0  0  0  0  0  0  0  0  0  0
    8.2492    1.2191   24.6204 H   0  0  0  0  0  0  0  0  0  0  0  0
    8.6865    3.4844   25.2290 H   0  0  0  0  0  0  0  0  0  0  0  0
    9.5347    3.8168   23.7266 H   0  0  0  0  0  0  0  0  0  0  0  0
    6.1610    3.6538   21.9827 H   0  0  0  0  0  0  0  0  0  0  0  0
    7.4916    4.7737   21.6410 H   0  0  0  0  0  0  0  0  0  0  0  0
    7.6368    2.3940   20.5814 H   0  0  0  0  0  0  0  0  0  0  0  0
    9.0819    3.0009   21.3991 H   0  0  0  0  0  0  0  0  0  0  0  0
    6.9701    1.2435   22.7369 H   0  0  0  0  0  0  0  0  0  0  0  0
    7.5269   -0.8064   21.1839 S   0  0  0  0  0  0  0  0  0  0  0  0
    8.3413   -1.8086   20.5320 O   0  0  0  0  0  0  0  0  0  0  0  0
    6.5731   -1.1305   22.2242 O   0  0  0  0  0  0  0  0  0  0  0  0
    6.6524    0.0409   19.9474 C   0  0  0  0  0  0  0  0  0  0  0  0
    5.4279    0.6638   20.2053 C   0  0  0  0  0  0  0  0  0  0  0  0
    4.8238    1.3055   19.1327 C   0  0  0  0  0  0  0  0  0  0  0  0
    5.4461    1.2658   17.8801 C   0  0  0  0  0  0  0  0  0  0  0  0
    6.6105    0.6421   17.6495 N   0  0  0  0  0  0  0  0  0  0  0  0
    7.2081    0.0354   18.6767 C   0  0  0  0  0  0  0  0  0  0  0  0
    8.1420   -0.4752   18.4397 H   0  0  0  0  0  0  0  0  0  0  0  0
    4.9855    1.7497   17.0237 H   0  0  0  0  0  0  0  0  0  0  0  0
    3.8842    1.8323   19.2537 H   0  0  0  0  0  0  0  0  0  0  0  0
    4.9584    0.6436   21.1926 H   0  0  0  0  0  0  0  0  0  0  0  0
   10.5072    1.0852   21.6305 H   0  0  0  0  0  0  0  0  0  0  0  0
    9.6690    0.8896   20.0621 H   0  0  0  0  0  0  0  0  0  0  0  0
   10.3044   -0.5355   20.9347 H   0  0  0  0  0  0  0  0  0  0  0  0
  1  2  1  0
  2  3  1  0
  3  4  1  0
  4  5  1  0
  5  6  1  0
  6  7  1  0
  7  8  2  0
  8  9  1  0
  9 10  2  0
 10 11  1  0
 11 12  2  0
 12 13  1  0
 11 14  1  0
 10 15  1  0
  9 16  1  0
  8 17  1  0
  6 18  1  0
 18 19  1  0
 19 20  1  0
 19 21  1  0
 18 22  1  0
 18 23  1  0
  5 24  1  0
  5 25  1  0
  4 26  1  0
  4 27  1  0
  3 28  1  0
  2 29  1  0
 29 30  2  0
 29 31  2  0
 29 32  1  0
 32 33  2  0
 33 34  1  0
 34 35  2  0
 35 36  1  0
 36 37  2  0
 37 38  1  0
 35 39  1  0
 34 40  1  0
 33 41  1  0
  1 42  1  0
  1 43  1  0
  1 44  1  0
 19  3  1  0
 37 32  1  0
 12  7  1  0
M  END
>  <cnnaffinity>  (1) 
-4.87855

>  <filename>  (1) 
CN(C1CCN(c2ccccc2)CC1)S(=O)(=O)c1cccnc1

$$$$
