
     RDKit          3D

 38 39  0  0  0  0  0  0  0  0999 V2000
   12.6578    3.9982   23.3395 H   0  0  0  0  0  0  0  0  0  0  0  0
   11.9843    4.3514   23.9364 O   0  0  0  0  0  0  0  0  0  0  0  0
   10.7196    4.0427   23.3761 C   0  0  0  0  0  0  0  0  0  0  0  0
   10.7317    4.1667   22.2819 H   0  0  0  0  0  0  0  0  0  0  0  0
   10.0188    4.7800   23.7850 H   0  0  0  0  0  0  0  0  0  0  0  0
   10.2261    2.6255   23.7052 C   0  0  0  0  0  0  0  0  0  0  0  0
   10.2562    2.5301   24.8049 H   0  0  0  0  0  0  0  0  0  0  0  0
    8.7740    2.4206   23.2154 C   0  0  0  0  0  0  0  0  0  0  0  0
    8.0977    3.1145   23.7279 H   0  0  0  0  0  0  0  0  0  0  0  0
    8.7153    2.6341   22.1393 H   0  0  0  0  0  0  0  0  0  0  0  0
    8.2792    0.9913   23.4708 C   0  0  0  0  0  0  0  0  0  0  0  0
    7.2599    0.8453   23.1037 H   0  0  0  0  0  0  0  0  0  0  0  0
    8.2536    0.7845   24.5510 H   0  0  0  0  0  0  0  0  0  0  0  0
    9.1576   -0.0443   22.9078 N   0  0  0  0  0  0  0  0  0  0  0  0
    9.0450   -0.2989   21.2600 S   0  0  0  0  0  0  0  0  0  0  0  0
    9.3872    0.9072   20.5272 O   0  0  0  0  0  0  0  0  0  0  0  0
    9.7723   -1.5331   21.0392 O   0  0  0  0  0  0  0  0  0  0  0  0
    7.4079   -0.5435   21.0446 N   0  0  0  0  0  0  0  0  0  0  0  0
    6.7142    0.0385   19.9112 C   0  0  0  0  0  0  0  0  0  0  0  0
    7.1824    0.0551   18.5652 C   0  0  0  0  0  0  0  0  0  0  0  0
    8.1225   -0.4272   18.3094 H   0  0  0  0  0  0  0  0  0  0  0  0
    6.5394    0.6518   17.5513 N   0  0  0  0  0  0  0  0  0  0  0  0
    5.3880    1.2828   17.8322 C   0  0  0  0  0  0  0  0  0  0  0  0
    4.9120    1.7991   17.0005 H   0  0  0  0  0  0  0  0  0  0  0  0
    4.8126    1.3005   19.1071 C   0  0  0  0  0  0  0  0  0  0  0  0
    3.8759    1.8274   19.2678 H   0  0  0  0  0  0  0  0  0  0  0  0
    5.4811    0.6487   20.1566 C   0  0  0  0  0  0  0  0  0  0  0  0
    5.0785    0.6115   21.1690 H   0  0  0  0  0  0  0  0  0  0  0  0
    6.7702   -1.6837   21.7020 C   0  0  0  0  0  0  0  0  0  0  0  0
    6.3829   -2.3839   20.9549 H   0  0  0  0  0  0  0  0  0  0  0  0
    5.9259   -1.3323   22.3005 H   0  0  0  0  0  0  0  0  0  0  0  0
    7.4585   -2.2182   22.3610 H   0  0  0  0  0  0  0  0  0  0  0  0
   10.5631    0.1178   23.3469 C   0  0  0  0  0  0  0  0  0  0  0  0
   10.5648   -0.0877   24.4290 H   0  0  0  0  0  0  0  0  0  0  0  0
   11.1879   -0.6544   22.8820 H   0  0  0  0  0  0  0  0  0  0  0  0
   11.1310    1.5299   23.0949 C   0  0  0  0  0  0  0  0  0  0  0  0
   11.2322    1.6909   22.0119 H   0  0  0  0  0  0  0  0  0  0  0  0
   12.1376    1.5860   23.5321 H   0  0  0  0  0  0  0  0  0  0  0  0
  1  2  1  0
  2  3  1  0
  3  4  1  0
  3  5  1  0
  3  6  1  0
  6  7  1  0
  6  8  1  0
  8  9  1  0
  8 10  1  0
  8 11  1  0
 11 12  1  0
 11 13  1  0
 11 14  1  0
 14 15  1  0
 15 16  2  0
 15 17  2  0
 15 18  1  0
 18 19  1  0
 19 20  2  0
 20 21  1  0
 20 22  1  0
 22 23  2  0
 23 24  1  0
 23 25  1  0
 25 26  1  0
 25 27  2  0
 27 28  1  0
 18 29  1  0
 29 30  1  0
 29 31  1  0
 29 32  1  0
 14 33  1  0
 33 34  1  0
 33 35  1  0
 33 36  1  0
 36 37  1  0
 36 38  1  0
 36  6  1  0
 27 19  1  0
M  END
>  <cnnaffinity>  (1) 
-5.10423

>  <filename>  (1) 
CN(c1cccnc1)S(=O)(=O)N1CCC(CO)CC1

$$$$
