
     RDKit          3D

 41 43  0  0  0  0  0  0  0  0999 V2000
    4.9167    1.7975   16.9800 H   0  0  0  0  0  0  0  0  0  0  0  0
    5.3915    1.3029   17.8266 C   0  0  0  0  0  0  0  0  0  0  0  0
    6.5587    0.6916   17.5649 N   0  0  0  0  0  0  0  0  0  0  0  0
    7.1820    0.0887   18.5860 C   0  0  0  0  0  0  0  0  0  0  0  0
    8.1156   -0.4244   18.3682 H   0  0  0  0  0  0  0  0  0  0  0  0
    6.6768    0.0502   19.8944 C   0  0  0  0  0  0  0  0  0  0  0  0
    7.3645   -0.6693   20.9329 N   0  0  0  0  0  0  0  0  0  0  0  0
    8.2771    0.0178   21.7159 C   0  0  0  0  0  0  0  0  0  0  0  0
    8.4080    1.0645   21.4791 H   0  0  0  0  0  0  0  0  0  0  0  0
    8.9734   -0.5717   22.7464 C   0  0  0  0  0  0  0  0  0  0  0  0
    9.8432    0.1375   23.5423 N   0  0  0  0  0  0  0  0  0  0  0  0
   10.4792   -0.4259   24.7196 C   0  0  0  0  0  0  0  0  0  0  0  0
   11.0440   -1.3169   24.4457 H   0  0  0  0  0  0  0  0  0  0  0  0
    9.7305   -0.7813   25.4444 H   0  0  0  0  0  0  0  0  0  0  0  0
   11.3420    0.7074   25.2949 C   0  0  0  0  0  0  0  0  0  0  0  0
   10.8571    1.1147   26.1859 H   0  0  0  0  0  0  0  0  0  0  0  0
   12.3332    0.3612   25.5887 H   0  0  0  0  0  0  0  0  0  0  0  0
   11.4605    1.7999   24.2167 C   0  0  1  0  0  0  0  0  0  0  0  0
   11.2874    2.7798   24.6713 H   0  0  0  0  0  0  0  0  0  0  0  0
   12.8180    1.8938   23.6380 N   0  0  0  0  0  0  0  0  0  0  0  0
   13.0168    3.1276   22.8862 C   0  0  0  0  0  0  0  0  0  0  0  0
   14.0621    3.2018   22.5694 H   0  0  0  0  0  0  0  0  0  0  0  0
   12.8024    3.9935   23.5234 H   0  0  0  0  0  0  0  0  0  0  0  0
   12.3849    3.2099   21.9799 H   0  0  0  0  0  0  0  0  0  0  0  0
   13.2237    0.7320   22.8553 C   0  0  0  0  0  0  0  0  0  0  0  0
   13.0707   -0.1928   23.4202 H   0  0  0  0  0  0  0  0  0  0  0  0
   12.6753    0.6338   21.9010 H   0  0  0  0  0  0  0  0  0  0  0  0
   14.2927    0.8075   22.6238 H   0  0  0  0  0  0  0  0  0  0  0  0
   10.2940    1.4906   23.2368 C   0  0  0  0  0  0  0  0  0  0  0  0
   10.6284    1.5959   22.1942 H   0  0  0  0  0  0  0  0  0  0  0  0
    9.4724    2.2020   23.3837 H   0  0  0  0  0  0  0  0  0  0  0  0
    8.7214   -1.9797   22.9737 C   0  0  0  0  0  0  0  0  0  0  0  0
    9.2665   -2.4708   23.7800 H   0  0  0  0  0  0  0  0  0  0  0  0
    7.8239   -2.6684   22.2198 C   0  0  0  0  0  0  0  0  0  0  0  0
    7.5997   -3.7158   22.3646 H   0  0  0  0  0  0  0  0  0  0  0  0
    7.0529   -2.0580   21.1396 C   0  0  0  0  0  0  0  0  0  0  0  0
    6.2369   -2.6614   20.4643 O   0  0  0  0  0  0  0  0  0  0  0  0
    5.4534    0.6679   20.1550 C   0  0  0  0  0  0  0  0  0  0  0  0
    5.0366    0.6083   21.1615 H   0  0  0  0  0  0  0  0  0  0  0  0
    4.8039    1.3169   19.0971 C   0  0  0  0  0  0  0  0  0  0  0  0
    3.8680    1.8387   19.2438 H   0  0  0  0  0  0  0  0  0  0  0  0
  1  2  1  0
  2  3  2  0
  3  4  1  0
  4  5  1  0
  4  6  2  0
  6  7  1  0
  7  8  1  0
  8  9  1  0
  8 10  2  0
 10 11  1  0
 11 12  1  0
 12 13  1  0
 12 14  1  0
 12 15  1  0
 15 16  1  0
 15 17  1  0
 15 18  1  0
 18 19  1  1
 18 20  1  0
 20 21  1  0
 21 22  1  0
 21 23  1  0
 21 24  1  0
 20 25  1  0
 25 26  1  0
 25 27  1  0
 25 28  1  0
 18 29  1  0
 29 30  1  0
 29 31  1  0
 10 32  1  0
 32 33  1  0
 32 34  2  0
 34 35  1  0
 34 36  1  0
 36 37  2  0
  6 38  1  0
 38 39  1  0
 38 40  2  0
 40 41  1  0
 40  2  1  0
 36  7  1  0
 29 11  1  0
M  END
>  <cnnaffinity>  (1) 
-5.40591

>  <filename>  (1) 
CN(C)[C@@H]1CCN(c2ccc(=O)n(-c3cccnc3)c2)C1

$$$$
