
     RDKit          3D

 32 33  0  0  0  0  0  0  0  0999 V2000
    4.9067    1.8894   16.9205 H   0  0  0  0  0  0  0  0  0  0  0  0
    5.3568    1.3513   17.7515 C   0  0  0  0  0  0  0  0  0  0  0  0
    6.5133    0.7227   17.4849 N   0  0  0  0  0  0  0  0  0  0  0  0
    7.1002    0.0696   18.4910 C   0  0  0  0  0  0  0  0  0  0  0  0
    8.0614   -0.3932   18.2719 H   0  0  0  0  0  0  0  0  0  0  0  0
    6.5557   -0.0302   19.7891 C   0  0  0  0  0  0  0  0  0  0  0  0
    7.2964   -0.6842   20.8506 N   0  0  0  0  0  0  0  0  0  0  0  0
    8.5607   -0.1931   21.1090 C   0  0  0  0  0  0  0  0  0  0  0  0
    8.8497    0.6669   20.4958 H   0  0  0  0  0  0  0  0  0  0  0  0
    9.2851   -0.7591   22.0860 C   0  0  0  0  0  0  0  0  0  0  0  0
   10.8789   -0.3212   22.4422 S   0  0  0  0  0  0  0  0  0  0  0  0
   11.5986   -1.5008   22.8369 O   0  0  0  0  0  0  0  0  0  0  0  0
   11.3357    0.5106   21.3458 O   0  0  0  0  0  0  0  0  0  0  0  0
   10.6305    0.7075   23.7191 N   0  0  0  0  0  0  0  0  0  0  0  0
   10.1372    2.0341   23.3612 C   0  0  0  0  0  0  0  0  0  0  0  0
   10.6906    2.4113   22.4953 H   0  0  0  0  0  0  0  0  0  0  0  0
   10.3287    2.7176   24.1935 H   0  0  0  0  0  0  0  0  0  0  0  0
    9.0582    2.0470   23.1450 H   0  0  0  0  0  0  0  0  0  0  0  0
   10.3249    0.2095   25.0574 C   0  0  0  0  0  0  0  0  0  0  0  0
   10.5450    1.0012   25.7822 H   0  0  0  0  0  0  0  0  0  0  0  0
   10.9503   -0.6525   25.2934 H   0  0  0  0  0  0  0  0  0  0  0  0
    9.2706   -0.0598   25.1792 H   0  0  0  0  0  0  0  0  0  0  0  0
    8.7913   -1.7340   22.9964 C   0  0  0  0  0  0  0  0  0  0  0  0
    9.2527   -2.0912   24.0574 O   0  0  0  0  0  0  0  0  0  0  0  0
    7.6139   -2.2536   22.5656 N   0  0  0  0  0  0  0  0  0  0  0  0
    7.2223   -2.9641   23.1474 H   0  0  0  0  0  0  0  0  0  0  0  0
    6.7704   -1.7719   21.6048 C   0  0  0  0  0  0  0  0  0  0  0  0
    5.6926   -2.2910   21.4370 O   0  0  0  0  0  0  0  0  0  0  0  0
    5.3523    0.6288   20.0567 C   0  0  0  0  0  0  0  0  0  0  0  0
    4.9268    0.6099   21.0613 H   0  0  0  0  0  0  0  0  0  0  0  0
    4.7460    1.3371   19.0109 C   0  0  0  0  0  0  0  0  0  0  0  0
    3.8273    1.8944   19.1653 H   0  0  0  0  0  0  0  0  0  0  0  0
  1  2  1  0
  2  3  2  0
  3  4  1  0
  4  5  1  0
  4  6  2  0
  6  7  1  0
  7  8  1  0
  8  9  1  0
  8 10  2  0
 10 11  1  0
 11 12  2  0
 11 13  2  0
 11 14  1  0
 14 15  1  0
 15 16  1  0
 15 17  1  0
 15 18  1  0
 14 19  1  0
 19 20  1  0
 19 21  1  0
 19 22  1  0
 10 23  1  0
 23 24  2  0
 23 25  1  0
 25 26  1  0
 25 27  1  0
 27 28  2  0
  6 29  1  0
 29 30  1  0
 29 31  2  0
 31 32  1  0
 31  2  1  0
 27  7  1  0
M  END
>  <cnnaffinity>  (1) 
-5.23468

>  <filename>  (1) 
CN(C)S(=O)(=O)c1cn(-c2cccnc2)c(=O)[nH]c1=O

$$$$
