
     RDKit          3D

 42 44  0  0  0  0  0  0  0  0999 V2000
    5.7762   -7.0210   27.7654 H   0  0  0  0  0  0  0  0  0  0  0  0
    6.6375   -6.3880   27.5478 C   0  0  0  0  0  0  0  0  0  0  0  0
    6.4740   -5.5161   26.5504 N   0  0  0  0  0  0  0  0  0  0  0  0
    7.5097   -4.7197   26.2440 C   0  0  0  0  0  0  0  0  0  0  0  0
    7.3356   -3.8703   25.1765 N   0  0  0  0  0  0  0  0  0  0  0  0
    8.4519   -3.1975   24.4997 C   0  0  0  0  0  0  0  0  0  0  0  0
    9.3600   -3.7997   24.6036 H   0  0  0  0  0  0  0  0  0  0  0  0
    8.6565   -2.2143   24.9491 H   0  0  0  0  0  0  0  0  0  0  0  0
    8.2019   -3.0190   22.9914 C   0  0  0  0  0  0  0  0  0  0  0  0
    8.2910   -4.0010   22.4963 H   0  0  0  0  0  0  0  0  0  0  0  0
    8.9804   -2.3736   22.5749 H   0  0  0  0  0  0  0  0  0  0  0  0
    6.8792   -2.4233   22.7609 N   0  0  0  0  0  0  0  0  0  0  0  0
    6.5772   -2.0069   21.4588 N   0  0  0  0  0  0  0  0  0  0  0  0
    6.4886   -3.0600   20.4702 C   0  0  0  0  0  0  0  0  0  0  0  0
    7.3250   -3.7741   20.5290 H   0  0  0  0  0  0  0  0  0  0  0  0
    5.5638   -3.6279   20.6119 H   0  0  0  0  0  0  0  0  0  0  0  0
    6.4467   -2.6257   19.4715 H   0  0  0  0  0  0  0  0  0  0  0  0
    7.2443   -0.7651   21.0918 C   0  0  0  0  0  0  0  0  0  0  0  0
    7.2248   -0.1492   21.9986 H   0  0  0  0  0  0  0  0  0  0  0  0
    8.3083   -0.9393   20.8406 H   0  0  0  0  0  0  0  0  0  0  0  0
    6.5764   -0.0181   19.9576 C   0  0  0  0  0  0  0  0  0  0  0  0
    7.1565    0.0070   18.6835 C   0  0  0  0  0  0  0  0  0  0  0  0
    8.1076   -0.5021   18.5106 H   0  0  0  0  0  0  0  0  0  0  0  0
    6.6287    0.6377   17.6259 N   0  0  0  0  0  0  0  0  0  0  0  0
    5.4725    1.2883   17.8197 C   0  0  0  0  0  0  0  0  0  0  0  0
    5.0660    1.7981   16.9493 H   0  0  0  0  0  0  0  0  0  0  0  0
    4.7988    1.3217   19.0469 C   0  0  0  0  0  0  0  0  0  0  0  0
    3.8647    1.8676   19.1321 H   0  0  0  0  0  0  0  0  0  0  0  0
    5.3609    0.6569   20.1389 C   0  0  0  0  0  0  0  0  0  0  0  0
    4.8807    0.6530   21.1205 H   0  0  0  0  0  0  0  0  0  0  0  0
    5.8565   -3.3092   23.3184 C   0  0  0  0  0  0  0  0  0  0  0  0
    5.9690   -4.3377   22.9283 H   0  0  0  0  0  0  0  0  0  0  0  0
    4.8629   -2.9624   23.0320 H   0  0  0  0  0  0  0  0  0  0  0  0
    6.0119   -3.3369   24.8314 C   0  0  0  0  0  0  0  0  0  0  0  0
    5.2329   -3.9568   25.2789 H   0  0  0  0  0  0  0  0  0  0  0  0
    5.8967   -2.3113   25.2161 H   0  0  0  0  0  0  0  0  0  0  0  0
    8.7222   -4.7375   26.9682 C   0  0  0  0  0  0  0  0  0  0  0  0
    9.4956   -4.0330   26.6990 H   0  0  0  0  0  0  0  0  0  0  0  0
    8.8622   -5.6381   28.0114 C   0  0  0  0  0  0  0  0  0  0  0  0
    9.8004   -5.6731   28.5614 H   0  0  0  0  0  0  0  0  0  0  0  0
    7.7979   -6.4985   28.3096 C   0  0  0  0  0  0  0  0  0  0  0  0
    7.8553   -7.2434   29.0932 H   0  0  0  0  0  0  0  0  0  0  0  0
  1  2  1  0
  2  3  2  0
  3  4  1  0
  4  5  1  0
  5  6  1  0
  6  7  1  0
  6  8  1  0
  6  9  1  0
  9 10  1  0
  9 11  1  0
  9 12  1  0
 12 13  1  0
 13 14  1  0
 14 15  1  0
 14 16  1  0
 14 17  1  0
 13 18  1  0
 18 19  1  0
 18 20  1  0
 18 21  1  0
 21 22  2  0
 22 23  1  0
 22 24  1  0
 24 25  2  0
 25 26  1  0
 25 27  1  0
 27 28  1  0
 27 29  2  0
 29 30  1  0
 12 31  1  0
 31 32  1  0
 31 33  1  0
 31 34  1  0
 34 35  1  0
 34 36  1  0
  4 37  2  0
 37 38  1  0
 37 39  1  0
 39 40  1  0
 39 41  2  0
 41 42  1  0
 41  2  1  0
 34  5  1  0
 29 21  1  0
M  END
>  <cnnaffinity>  (1) 
-4.93603

>  <filename>  (1) 
CN(Cc1cccnc1)N1CCN(c2ccccn2)CC1

$$$$
