
     RDKit          3D

 31 31  0  0  0  0  0  0  0  0999 V2000
    4.9885    1.8241   16.9855 H   0  0  0  0  0  0  0  0  0  0  0  0
    5.4444    1.2980   17.8243 C   0  0  0  0  0  0  0  0  0  0  0  0
    6.6104    0.6846   17.5856 N   0  0  0  0  0  0  0  0  0  0  0  0
    7.1944    0.0590   18.6138 C   0  0  0  0  0  0  0  0  0  0  0  0
    8.1501   -0.4137   18.4001 H   0  0  0  0  0  0  0  0  0  0  0  0
    6.6454   -0.0387   19.9064 C   0  0  0  0  0  0  0  0  0  0  0  0
    7.3370   -0.8639   20.9277 C   0  0  0  0  0  0  0  0  0  0  0  0
    6.5307   -1.7876   21.9980 S   0  0  0  0  0  0  0  0  0  0  0  0
    8.8767   -0.8814   20.9392 C   0  0  0  0  0  0  0  0  0  0  0  0
    9.2400   -1.4982   20.1076 H   0  0  0  0  0  0  0  0  0  0  0  0
    9.2227   -1.3509   21.8684 H   0  0  0  0  0  0  0  0  0  0  0  0
    9.4615    0.3931   20.7713 O   0  0  0  0  0  0  0  0  0  0  0  0
    9.3744    1.2118   21.9351 C   0  0  0  0  0  0  0  0  0  0  0  0
   10.0723    0.8619   22.7100 H   0  0  0  0  0  0  0  0  0  0  0  0
    8.3668    1.1864   22.3797 H   0  0  0  0  0  0  0  0  0  0  0  0
    9.7085    2.6345   21.5051 C   0  0  0  0  0  0  0  0  0  0  0  0
    8.9951    2.9232   20.7226 H   0  0  0  0  0  0  0  0  0  0  0  0
   10.6915    2.6258   21.0150 H   0  0  0  0  0  0  0  0  0  0  0  0
    9.6842    3.6618   22.5371 N   0  0  0  0  0  0  0  0  0  0  0  0
    8.3720    4.1312   22.9338 C   0  0  0  0  0  0  0  0  0  0  0  0
    7.7984    3.4588   23.6019 H   0  0  0  0  0  0  0  0  0  0  0  0
    8.4521    5.1080   23.4275 H   0  0  0  0  0  0  0  0  0  0  0  0
    7.7640    4.2865   22.0312 H   0  0  0  0  0  0  0  0  0  0  0  0
   10.7273    3.6212   23.5403 C   0  0  0  0  0  0  0  0  0  0  0  0
   10.6150    2.8482   24.3272 H   0  0  0  0  0  0  0  0  0  0  0  0
   11.6960    3.4496   23.0491 H   0  0  0  0  0  0  0  0  0  0  0  0
   10.7995    4.5968   24.0384 H   0  0  0  0  0  0  0  0  0  0  0  0
    5.4241    0.6217   20.1410 C   0  0  0  0  0  0  0  0  0  0  0  0
    4.9659    0.6163   21.1347 H   0  0  0  0  0  0  0  0  0  0  0  0
    4.8256    1.2978   19.0808 C   0  0  0  0  0  0  0  0  0  0  0  0
    3.9000    1.8429   19.2143 H   0  0  0  0  0  0  0  0  0  0  0  0
  1  2  1  0
  2  3  2  0
  3  4  1  0
  4  5  1  0
  4  6  2  0
  6  7  1  0
  7  8  2  0
  7  9  1  0
  9 10  1  0
  9 11  1  0
  9 12  1  0
 12 13  1  0
 13 14  1  0
 13 15  1  0
 13 16  1  0
 16 17  1  0
 16 18  1  0
 16 19  1  0
 19 20  1  0
 20 21  1  0
 20 22  1  0
 20 23  1  0
 19 24  1  0
 24 25  1  0
 24 26  1  0
 24 27  1  0
  6 28  1  0
 28 29  1  0
 28 30  2  0
 30 31  1  0
 30  2  1  0
M  END
>  <cnnaffinity>  (1) 
-3.90818

>  <filename>  (1) 
CN(C)CCOCC(=S)c1cccnc1

$$$$
