
     RDKit          3D

 39 41  0  0  0  0  0  0  0  0999 V2000
    5.1093    1.8367   16.9850 H   0  0  0  0  0  0  0  0  0  0  0  0
    5.5081    1.2973   17.8406 C   0  0  0  0  0  0  0  0  0  0  0  0
    6.6532    0.6309   17.6314 N   0  0  0  0  0  0  0  0  0  0  0  0
    7.1706   -0.0440   18.6656 C   0  0  0  0  0  0  0  0  0  0  0  0
    8.0844   -0.6008   18.4582 H   0  0  0  0  0  0  0  0  0  0  0  0
    6.5967   -0.0885   19.9454 C   0  0  0  0  0  0  0  0  0  0  0  0
    7.3110   -0.8210   21.0095 C   0  0  0  0  0  0  0  0  0  0  0  0
    6.6738   -1.6790   21.8139 N   0  0  0  0  0  0  0  0  0  0  0  0
    7.6498   -2.1543   22.5993 N   0  0  0  0  0  0  0  0  0  0  0  0
    8.8513   -1.6214   22.3651 C   0  0  0  0  0  0  0  0  0  0  0  0
    8.7074   -0.7339   21.3203 C   0  0  0  0  0  0  0  0  0  0  0  0
    9.7914    0.2354   20.9293 C   0  0  0  0  0  0  0  0  0  0  0  0
    9.5533    0.7445   19.9910 H   0  0  0  0  0  0  0  0  0  0  0  0
   10.7106   -0.3304   20.7372 H   0  0  0  0  0  0  0  0  0  0  0  0
   10.1438    1.2627   22.0332 C   0  0  0  0  0  0  0  0  0  0  0  0
   10.5196    0.7192   22.9119 H   0  0  0  0  0  0  0  0  0  0  0  0
   10.9811    1.8786   21.6738 H   0  0  0  0  0  0  0  0  0  0  0  0
    9.1042    2.1652   22.4971 N   0  0  0  0  0  0  0  0  0  0  0  0
    8.2528    1.7067   23.5760 C   0  0  0  0  0  0  0  0  0  0  0  0
    7.4735    0.9779   23.2863 H   0  0  0  0  0  0  0  0  0  0  0  0
    7.7450    2.5736   24.0177 H   0  0  0  0  0  0  0  0  0  0  0  0
    8.8785    1.2541   24.3547 H   0  0  0  0  0  0  0  0  0  0  0  0
    8.3957    2.9135   21.4808 C   0  0  0  0  0  0  0  0  0  0  0  0
    8.0701    3.8796   21.8869 H   0  0  0  0  0  0  0  0  0  0  0  0
    7.5060    2.4070   21.0677 H   0  0  0  0  0  0  0  0  0  0  0  0
    9.0565    3.1037   20.6328 H   0  0  0  0  0  0  0  0  0  0  0  0
    9.8315   -2.0304   23.4148 C   0  0  0  0  0  0  0  0  0  0  0  0
   10.7502   -2.4328   22.9795 H   0  0  0  0  0  0  0  0  0  0  0  0
   10.1231   -1.1547   24.0030 H   0  0  0  0  0  0  0  0  0  0  0  0
    9.0320   -3.0536   24.2695 C   0  0  0  0  0  0  0  0  0  0  0  0
    9.0706   -2.7917   25.3274 H   0  0  0  0  0  0  0  0  0  0  0  0
    9.4526   -4.0537   24.1552 H   0  0  0  0  0  0  0  0  0  0  0  0
    7.5592   -3.0265   23.7555 C   0  0  0  0  0  0  0  0  0  0  0  0
    7.1972   -4.0166   23.4624 H   0  0  0  0  0  0  0  0  0  0  0  0
    6.8612   -2.6007   24.4840 H   0  0  0  0  0  0  0  0  0  0  0  0
    5.3667    0.5697   20.1296 C   0  0  0  0  0  0  0  0  0  0  0  0
    4.8496    0.5069   21.0889 H   0  0  0  0  0  0  0  0  0  0  0  0
    4.8223    1.2882   19.0628 C   0  0  0  0  0  0  0  0  0  0  0  0
    3.8846    1.8316   19.1544 H   0  0  0  0  0  0  0  0  0  0  0  0
  1  2  1  0
  2  3  2  0
  3  4  1  0
  4  5  1  0
  4  6  2  0
  6  7  1  0
  7  8  2  0
  8  9  1  0
  9 10  1  0
 10 11  2  0
 11 12  1  0
 12 13  1  0
 12 14  1  0
 12 15  1  0
 15 16  1  0
 15 17  1  0
 15 18  1  0
 18 19  1  0
 19 20  1  0
 19 21  1  0
 19 22  1  0
 18 23  1  0
 23 24  1  0
 23 25  1  0
 23 26  1  0
 10 27  1  0
 27 28  1  0
 27 29  1  0
 27 30  1  0
 30 31  1  0
 30 32  1  0
 30 33  1  0
 33 34  1  0
 33 35  1  0
  6 36  1  0
 36 37  1  0
 36 38  2  0
 38 39  1  0
 38  2  1  0
 11  7  1  0
 33  9  1  0
M  END
>  <cnnaffinity>  (1) 
-5.23334

>  <filename>  (1) 
CN(C)CCc1c(-c2cccnc2)nn2c1CCC2

$$$$
