
     RDKit          3D

 42 44  0  0  0  0  0  0  0  0999 V2000
    4.9208    1.8061   16.9767 H   0  0  0  0  0  0  0  0  0  0  0  0
    5.3892    1.3041   17.8221 C   0  0  0  0  0  0  0  0  0  0  0  0
    6.5495    0.6802   17.5638 N   0  0  0  0  0  0  0  0  0  0  0  0
    7.1549    0.0613   18.5849 C   0  0  0  0  0  0  0  0  0  0  0  0
    8.0993   -0.4248   18.3451 H   0  0  0  0  0  0  0  0  0  0  0  0
    6.6474   -0.0027   19.8984 C   0  0  0  0  0  0  0  0  0  0  0  0
    7.3522   -0.7422   20.9895 C   0  0  0  0  0  0  0  0  0  0  0  0
    8.7531   -0.6273   21.1986 C   0  0  0  0  0  0  0  0  0  0  0  0
    9.3656    0.0096   20.5706 H   0  0  0  0  0  0  0  0  0  0  0  0
    9.3859   -1.2571   22.1802 N   0  0  0  0  0  0  0  0  0  0  0  0
    8.7086   -2.0440   23.0336 N   0  0  0  0  0  0  0  0  0  0  0  0
    7.3800   -2.2233   22.8981 C   0  0  0  0  0  0  0  0  0  0  0  0
    6.7365   -3.0432   23.8003 N   0  0  0  0  0  0  0  0  0  0  0  0
    5.4673   -3.6756   23.4421 C   0  0  0  0  0  0  0  0  0  0  0  0
    5.5101   -4.0405   22.4049 H   0  0  0  0  0  0  0  0  0  0  0  0
    4.6439   -2.9495   23.4909 H   0  0  0  0  0  0  0  0  0  0  0  0
    5.1341   -4.8372   24.3684 C   0  0  0  0  0  0  0  0  0  0  0  0
    5.8686   -5.6417   24.2338 H   0  0  0  0  0  0  0  0  0  0  0  0
    4.1491   -5.2352   24.1096 H   0  0  0  0  0  0  0  0  0  0  0  0
    5.1241   -4.3923   25.8451 C   0  0  0  0  0  0  0  0  0  0  0  0
    4.2438   -3.7465   25.9927 H   0  0  0  0  0  0  0  0  0  0  0  0
    4.9540   -5.5029   26.7873 N   0  0  0  0  0  0  0  0  0  0  0  0
    5.9131   -6.5954   26.6718 C   0  0  0  0  0  0  0  0  0  0  0  0
    5.6856   -7.2941   25.8437 H   0  0  0  0  0  0  0  0  0  0  0  0
    6.9303   -6.2133   26.5180 H   0  0  0  0  0  0  0  0  0  0  0  0
    5.9126   -7.1743   27.6037 H   0  0  0  0  0  0  0  0  0  0  0  0
    3.5931   -6.0108   26.8754 C   0  0  0  0  0  0  0  0  0  0  0  0
    3.5259   -6.7216   27.7071 H   0  0  0  0  0  0  0  0  0  0  0  0
    3.2414   -6.5326   25.9633 H   0  0  0  0  0  0  0  0  0  0  0  0
    2.8942   -5.1929   27.0893 H   0  0  0  0  0  0  0  0  0  0  0  0
    6.3652   -3.5265   26.1833 C   0  0  0  0  0  0  0  0  0  0  0  0
    6.8533   -3.9207   27.0793 H   0  0  0  0  0  0  0  0  0  0  0  0
    6.0270   -2.5111   26.4219 H   0  0  0  0  0  0  0  0  0  0  0  0
    7.3922   -3.4346   25.0509 C   0  0  0  0  0  0  0  0  0  0  0  0
    7.9177   -4.3925   24.9075 H   0  0  0  0  0  0  0  0  0  0  0  0
    8.1604   -2.6953   25.2973 H   0  0  0  0  0  0  0  0  0  0  0  0
    6.6670   -1.5698   21.8612 C   0  0  0  0  0  0  0  0  0  0  0  0
    5.5989   -1.7214   21.7769 H   0  0  0  0  0  0  0  0  0  0  0  0
    5.4292    0.6546   20.1387 C   0  0  0  0  0  0  0  0  0  0  0  0
    5.0082    0.6504   21.1448 H   0  0  0  0  0  0  0  0  0  0  0  0
    4.7947    1.3221   19.0885 C   0  0  0  0  0  0  0  0  0  0  0  0
    3.8616    1.8562   19.2362 H   0  0  0  0  0  0  0  0  0  0  0  0
  1  2  1  0
  2  3  2  0
  3  4  1  0
  4  5  1  0
  4  6  2  0
  6  7  1  0
  7  8  2  0
  8  9  1  0
  8 10  1  0
 10 11  2  0
 11 12  1  0
 12 13  1  0
 13 14  1  0
 14 15  1  0
 14 16  1  0
 14 17  1  0
 17 18  1  0
 17 19  1  0
 17 20  1  0
 20 21  1  0
 20 22  1  0
 22 23  1  0
 23 24  1  0
 23 25  1  0
 23 26  1  0
 22 27  1  0
 27 28  1  0
 27 29  1  0
 27 30  1  0
 20 31  1  0
 31 32  1  0
 31 33  1  0
 31 34  1  0
 34 35  1  0
 34 36  1  0
 12 37  2  0
 37 38  1  0
  6 39  1  0
 39 40  1  0
 39 41  2  0
 41 42  1  0
 41  2  1  0
 37  7  1  0
 34 13  1  0
M  END
>  <cnnaffinity>  (1) 
-5.04651

>  <filename>  (1) 
CN(C)C1CCN(c2cc(-c3cccnc3)cnn2)CC1

$$$$
