
     RDKit          3D

 42 44  0  0  0  0  0  0  0  0999 V2000
    8.2724    1.3184   22.3574 C   0  0  0  0  0  0  0  0  0  0  0  0
    7.4876    0.0860   22.5509 N   0  0  0  0  0  0  0  0  0  0  0  0
    7.7379   -0.5948   23.8401 C   0  0  0  0  0  0  0  0  0  0  0  0
    8.9493   -1.5366   23.8209 C   0  0  0  0  0  0  0  0  0  0  0  0
    9.1960   -2.1324   25.1994 C   0  0  0  0  0  0  0  0  0  0  0  0
    7.9734   -2.8001   25.6477 N   0  0  0  0  0  0  0  0  0  0  0  0
    8.0523   -3.9475   26.4269 C   0  0  0  0  0  0  0  0  0  0  0  0
    6.9837   -4.9100   26.4681 C   0  0  0  0  0  0  0  0  0  0  0  0
    7.0495   -6.0261   27.2023 N   0  0  0  0  0  0  0  0  0  0  0  0
    8.1905   -6.1941   27.9154 C   0  0  0  0  0  0  0  0  0  0  0  0
    9.2326   -5.2616   27.8700 C   0  0  0  0  0  0  0  0  0  0  0  0
    9.1878   -4.1440   27.1204 N   0  0  0  0  0  0  0  0  0  0  0  0
   10.1485   -5.4132   28.4375 H   0  0  0  0  0  0  0  0  0  0  0  0
    8.2648   -7.0952   28.5132 H   0  0  0  0  0  0  0  0  0  0  0  0
    6.0944   -4.7603   25.8554 H   0  0  0  0  0  0  0  0  0  0  0  0
    6.7961   -1.9357   25.7343 C   0  0  0  0  0  0  0  0  0  0  0  0
    6.4950   -1.3162   24.3697 C   0  0  0  0  0  0  0  0  0  0  0  0
    5.6705   -0.6007   24.4694 H   0  0  0  0  0  0  0  0  0  0  0  0
    6.1885   -2.0974   23.6719 H   0  0  0  0  0  0  0  0  0  0  0  0
    5.9375   -2.5150   26.0850 H   0  0  0  0  0  0  0  0  0  0  0  0
    6.9458   -1.1373   26.4852 H   0  0  0  0  0  0  0  0  0  0  0  0
    9.5129   -1.3598   25.9217 H   0  0  0  0  0  0  0  0  0  0  0  0
   10.0062   -2.8649   25.1596 H   0  0  0  0  0  0  0  0  0  0  0  0
    9.8408   -1.0173   23.4511 H   0  0  0  0  0  0  0  0  0  0  0  0
    8.7468   -2.3623   23.1289 H   0  0  0  0  0  0  0  0  0  0  0  0
    7.9389    0.2176   24.5642 H   0  0  0  0  0  0  0  0  0  0  0  0
    7.5363   -0.9018   21.1848 S   0  0  0  0  0  0  0  0  0  0  0  0
    6.7789   -2.1234   21.4072 O   0  0  0  0  0  0  0  0  0  0  0  0
    8.9170   -0.9813   20.7137 O   0  0  0  0  0  0  0  0  0  0  0  0
    6.6567    0.0691   20.0482 C   0  0  0  0  0  0  0  0  0  0  0  0
    5.4306    0.7015   20.2822 C   0  0  0  0  0  0  0  0  0  0  0  0
    4.8312    1.3036   19.1757 C   0  0  0  0  0  0  0  0  0  0  0  0
    5.4738    1.2458   17.9322 C   0  0  0  0  0  0  0  0  0  0  0  0
    6.6379    0.6111   17.7343 N   0  0  0  0  0  0  0  0  0  0  0  0
    7.2172    0.0314   18.7799 C   0  0  0  0  0  0  0  0  0  0  0  0
    8.1613   -0.4825   18.6045 H   0  0  0  0  0  0  0  0  0  0  0  0
    5.0272    1.7155   17.0539 H   0  0  0  0  0  0  0  0  0  0  0  0
    3.8813    1.8196   19.2559 H   0  0  0  0  0  0  0  0  0  0  0  0
    4.9565    0.7311   21.2692 H   0  0  0  0  0  0  0  0  0  0  0  0
    9.3523    1.1391   22.2570 H   0  0  0  0  0  0  0  0  0  0  0  0
    7.9345    1.8694   21.4749 H   0  0  0  0  0  0  0  0  0  0  0  0
    8.0999    1.9744   23.2211 H   0  0  0  0  0  0  0  0  0  0  0  0
  1  2  1  0
  2  3  1  0
  3  4  1  0
  4  5  1  0
  5  6  1  0
  6  7  1  0
  7  8  2  0
  8  9  1  0
  9 10  2  0
 10 11  1  0
 11 12  2  0
 11 13  1  0
 10 14  1  0
  8 15  1  0
  6 16  1  0
 16 17  1  0
 17 18  1  0
 17 19  1  0
 16 20  1  0
 16 21  1  0
  5 22  1  0
  5 23  1  0
  4 24  1  0
  4 25  1  0
  3 26  1  0
  2 27  1  0
 27 28  2  0
 27 29  2  0
 27 30  1  0
 30 31  2  0
 31 32  1  0
 32 33  2  0
 33 34  1  0
 34 35  2  0
 35 36  1  0
 33 37  1  0
 32 38  1  0
 31 39  1  0
  1 40  1  0
  1 41  1  0
  1 42  1  0
 17  3  1  0
 35 30  1  0
 12  7  1  0
M  END
>  <cnnaffinity>  (1) 
-5.36096

>  <filename>  (1) 
CN(C1CCN(c2cnccn2)CC1)S(=O)(=O)c1cccnc1

$$$$
