
     RDKit          3D

 42 43  0  0  0  0  0  0  0  0999 V2000
   10.0804   -0.5457   22.6882 H   0  0  0  0  0  0  0  0  0  0  0  0
    9.0496   -0.7628   22.4243 C   0  0  0  0  0  0  0  0  0  0  0  0
    8.1763   -1.1874   23.3365 C   0  0  0  0  0  0  0  0  0  0  0  0
    8.4136   -1.3846   24.6617 O   0  0  0  0  0  0  0  0  0  0  0  0
    9.6916   -1.8329   25.1121 C   0  0  0  0  0  0  0  0  0  0  0  0
   10.4493   -1.0460   24.9689 H   0  0  0  0  0  0  0  0  0  0  0  0
    9.5492   -1.9594   26.1892 H   0  0  0  0  0  0  0  0  0  0  0  0
   10.1557   -3.1458   24.4712 C   0  0  0  0  0  0  0  0  0  0  0  0
   11.1780   -3.3470   24.8065 H   0  0  0  0  0  0  0  0  0  0  0  0
   10.2089   -3.0297   23.3826 H   0  0  0  0  0  0  0  0  0  0  0  0
    9.2551   -4.3388   24.8108 C   0  0  0  0  0  0  0  0  0  0  0  0
    9.6014   -5.2460   24.2710 H   0  0  0  0  0  0  0  0  0  0  0  0
    8.2391   -4.1426   24.4477 H   0  0  0  0  0  0  0  0  0  0  0  0
    9.1975   -4.5599   26.2562 N   0  0  0  0  0  0  0  0  0  0  0  0
   10.3929   -5.2194   26.7601 C   0  0  0  0  0  0  0  0  0  0  0  0
   10.4650   -6.2754   26.4344 H   0  0  0  0  0  0  0  0  0  0  0  0
   11.2840   -4.7076   26.3892 H   0  0  0  0  0  0  0  0  0  0  0  0
   10.4323   -5.1744   27.8540 H   0  0  0  0  0  0  0  0  0  0  0  0
    7.9873   -5.2466   26.6816 C   0  0  0  0  0  0  0  0  0  0  0  0
    7.9252   -6.2894   26.3159 H   0  0  0  0  0  0  0  0  0  0  0  0
    7.1045   -4.7074   26.3227 H   0  0  0  0  0  0  0  0  0  0  0  0
    7.9196   -5.2652   27.7751 H   0  0  0  0  0  0  0  0  0  0  0  0
    6.7248   -1.4099   23.0088 C   0  0  0  0  0  0  0  0  0  0  0  0
    6.1853   -0.5031   23.3139 H   0  0  0  0  0  0  0  0  0  0  0  0
    6.3345   -2.2379   23.6090 H   0  0  0  0  0  0  0  0  0  0  0  0
    6.5374   -1.6662   21.5119 C   0  0  0  0  0  0  0  0  0  0  0  0
    5.4763   -1.6855   21.2435 H   0  0  0  0  0  0  0  0  0  0  0  0
    6.9375   -2.6642   21.2566 H   0  0  0  0  0  0  0  0  0  0  0  0
    7.2412   -0.6459   20.7424 N   0  0  0  0  0  0  0  0  0  0  0  0
    6.6196    0.0513   19.6897 C   0  0  0  0  0  0  0  0  0  0  0  0
    7.1666    0.1809   18.3816 C   0  0  0  0  0  0  0  0  0  0  0  0
    8.1235   -0.2854   18.1524 H   0  0  0  0  0  0  0  0  0  0  0  0
    6.5721    0.8277   17.3660 N   0  0  0  0  0  0  0  0  0  0  0  0
    5.3909    1.4198   17.6113 C   0  0  0  0  0  0  0  0  0  0  0  0
    4.9344    1.9449   16.7770 H   0  0  0  0  0  0  0  0  0  0  0  0
    4.7601    1.3714   18.8605 C   0  0  0  0  0  0  0  0  0  0  0  0
    3.8103    1.8759   19.0022 H   0  0  0  0  0  0  0  0  0  0  0  0
    5.3713    0.6714   19.9047 C   0  0  0  0  0  0  0  0  0  0  0  0
    4.9147    0.6179   20.8922 H   0  0  0  0  0  0  0  0  0  0  0  0
    8.6836   -0.6173   20.9625 C   0  0  0  0  0  0  0  0  0  0  0  0
    9.0944    0.3284   20.5822 H   0  0  0  0  0  0  0  0  0  0  0  0
    9.2029   -1.4167   20.3984 H   0  0  0  0  0  0  0  0  0  0  0  0
  1  2  1  0
  2  3  2  0
  3  4  1  0
  4  5  1  0
  5  6  1  0
  5  7  1  0
  5  8  1  0
  8  9  1  0
  8 10  1  0
  8 11  1  0
 11 12  1  0
 11 13  1  0
 11 14  1  0
 14 15  1  0
 15 16  1  0
 15 17  1  0
 15 18  1  0
 14 19  1  0
 19 20  1  0
 19 21  1  0
 19 22  1  0
  3 23  1  0
 23 24  1  0
 23 25  1  0
 23 26  1  0
 26 27  1  0
 26 28  1  0
 26 29  1  0
 29 30  1  0
 30 31  2  0
 31 32  1  0
 31 33  1  0
 33 34  2  0
 34 35  1  0
 34 36  1  0
 36 37  1  0
 36 38  2  0
 38 39  1  0
 29 40  1  0
 40 41  1  0
 40 42  1  0
 40  2  1  0
 38 30  1  0
M  END
>  <cnnaffinity>  (1) 
-4.18127

>  <filename>  (1) 
CN(C)CCCOC1=CCN(c2cccnc2)CC1

$$$$
