
     RDKit          3D

 37 38  0  0  0  0  0  0  0  0999 V2000
    4.9207    1.8271   16.9696 H   0  0  0  0  0  0  0  0  0  0  0  0
    5.3808    1.3051   17.8111 C   0  0  0  0  0  0  0  0  0  0  0  0
    6.5363    0.6777   17.5471 N   0  0  0  0  0  0  0  0  0  0  0  0
    7.1403    0.0375   18.5577 C   0  0  0  0  0  0  0  0  0  0  0  0
    8.0949   -0.4279   18.3037 H   0  0  0  0  0  0  0  0  0  0  0  0
    6.6386   -0.0331   19.8687 C   0  0  0  0  0  0  0  0  0  0  0  0
    7.4194   -0.6908   20.9955 C   0  0  0  0  0  0  0  0  0  0  0  0
    6.7407   -1.0532   21.7770 H   0  0  0  0  0  0  0  0  0  0  0  0
    7.9893   -1.5580   20.6459 H   0  0  0  0  0  0  0  0  0  0  0  0
    8.4225    0.2488   21.6681 C   0  0  1  0  0  0  0  0  0  0  0  0
    9.0855    0.6951   20.9158 H   0  0  0  0  0  0  0  0  0  0  0  0
    7.7165    1.2946   22.2758 F   0  0  0  0  0  0  0  0  0  0  0  0
    9.2396   -0.4143   22.6468 N   0  0  0  0  0  0  0  0  0  0  0  0
   10.3814    0.3913   23.1349 C   0  0  0  0  0  0  0  0  0  0  0  0
   11.3206    0.0446   22.6775 H   0  0  0  0  0  0  0  0  0  0  0  0
   10.2928    1.4480   22.8368 H   0  0  0  0  0  0  0  0  0  0  0  0
   10.3798    0.2495   24.6704 C   0  0  0  0  0  0  0  0  0  0  0  0
    9.9204    1.1355   25.1279 H   0  0  0  0  0  0  0  0  0  0  0  0
   11.3935    0.1424   25.0772 H   0  0  0  0  0  0  0  0  0  0  0  0
    9.4906   -0.9716   24.9894 C   0  0  1  0  0  0  0  0  0  0  0  0
   10.0967   -1.8957   24.9050 H   0  0  0  0  0  0  0  0  0  0  0  0
    8.8165   -0.9143   26.2984 N   0  0  0  0  0  0  0  0  0  0  0  0
    7.9072   -2.0355   26.5011 C   0  0  0  0  0  0  0  0  0  0  0  0
    8.4211   -3.0135   26.4226 H   0  0  0  0  0  0  0  0  0  0  0  0
    7.4607   -1.9623   27.4989 H   0  0  0  0  0  0  0  0  0  0  0  0
    7.0905   -2.0151   25.7705 H   0  0  0  0  0  0  0  0  0  0  0  0
    9.7114   -0.7866   27.4394 C   0  0  0  0  0  0  0  0  0  0  0  0
    9.1296   -0.5228   28.3338 H   0  0  0  0  0  0  0  0  0  0  0  0
   10.2699   -1.7120   27.6545 H   0  0  0  0  0  0  0  0  0  0  0  0
   10.4237    0.0209   27.2685 H   0  0  0  0  0  0  0  0  0  0  0  0
    8.5003   -0.9583   23.8076 C   0  0  0  0  0  0  0  0  0  0  0  0
    7.6260   -0.3383   24.0755 H   0  0  0  0  0  0  0  0  0  0  0  0
    8.1259   -1.9702   23.5982 H   0  0  0  0  0  0  0  0  0  0  0  0
    5.4374    0.6395   20.1208 C   0  0  0  0  0  0  0  0  0  0  0  0
    5.0285    0.6580   21.1325 H   0  0  0  0  0  0  0  0  0  0  0  0
    4.7904    1.3119   19.0763 C   0  0  0  0  0  0  0  0  0  0  0  0
    3.8639    1.8567   19.2284 H   0  0  0  0  0  0  0  0  0  0  0  0
  1  2  1  0
  2  3  2  0
  3  4  1  0
  4  5  1  0
  4  6  2  0
  6  7  1  0
  7  8  1  0
  7  9  1  0
  7 10  1  0
 10 11  1  6
 10 12  1  0
 10 13  1  0
 13 14  1  0
 14 15  1  0
 14 16  1  0
 14 17  1  0
 17 18  1  0
 17 19  1  0
 17 20  1  0
 20 21  1  1
 20 22  1  0
 22 23  1  0
 23 24  1  0
 23 25  1  0
 23 26  1  0
 22 27  1  0
 27 28  1  0
 27 29  1  0
 27 30  1  0
 20 31  1  0
 31 32  1  0
 31 33  1  0
  6 34  1  0
 34 35  1  0
 34 36  2  0
 36 37  1  0
 36  2  1  0
 31 13  1  0
M  END
>  <cnnaffinity>  (1) 
-4.20367

>  <filename>  (1) 
CN(C)[C@@H]1CCN([C@H](F)Cc2cccnc2)C1

$$$$
