
     RDKit          3D

 40 42  0  0  0  0  0  0  0  0999 V2000
    9.0079   -3.0568   22.2350 H   0  0  0  0  0  0  0  0  0  0  0  0
    8.4486   -2.1784   21.9442 C   0  0  0  0  0  0  0  0  0  0  0  0
    8.0683   -1.8572   20.7578 N   0  0  0  0  0  0  0  0  0  0  0  0
    7.3557   -0.6808   20.9479 C   0  0  0  0  0  0  0  0  0  0  0  0
    6.6460    0.0027   19.8817 C   0  0  0  0  0  0  0  0  0  0  0  0
    7.1665    0.0414   18.5770 C   0  0  0  0  0  0  0  0  0  0  0  0
    8.1183   -0.4351   18.3594 H   0  0  0  0  0  0  0  0  0  0  0  0
    6.5656    0.6740   17.5657 N   0  0  0  0  0  0  0  0  0  0  0  0
    5.4056    1.2944   17.8335 C   0  0  0  0  0  0  0  0  0  0  0  0
    4.9272    1.7871   16.9924 H   0  0  0  0  0  0  0  0  0  0  0  0
    4.8020    1.3154   19.0984 C   0  0  0  0  0  0  0  0  0  0  0  0
    3.8686    1.8441   19.2482 H   0  0  0  0  0  0  0  0  0  0  0  0
    5.4354    0.6615   20.1493 C   0  0  0  0  0  0  0  0  0  0  0  0
    5.0136    0.6337   21.1583 H   0  0  0  0  0  0  0  0  0  0  0  0
    7.3885   -0.3399   22.2800 C   0  0  0  0  0  0  0  0  0  0  0  0
    6.9611    0.7636   22.9703 N   0  0  0  0  0  0  0  0  0  0  0  0
    6.4425    0.6426   24.3229 C   0  0  0  0  0  0  0  0  0  0  0  0
    6.0002   -0.3520   24.4087 H   0  0  0  0  0  0  0  0  0  0  0  0
    7.2471    0.7225   25.0678 H   0  0  0  0  0  0  0  0  0  0  0  0
    5.3825    1.7127   24.5766 C   0  0  0  0  0  0  0  0  0  0  0  0
    4.5293    1.5363   23.9166 H   0  0  0  0  0  0  0  0  0  0  0  0
    4.9960    1.6318   25.5932 H   0  0  0  0  0  0  0  0  0  0  0  0
    5.9154    3.1205   24.2928 C   0  0  0  0  0  0  0  0  0  0  0  0
    5.0883    3.8469   24.4357 H   0  0  0  0  0  0  0  0  0  0  0  0
    7.0244    3.4863   25.1881 N   0  0  0  0  0  0  0  0  0  0  0  0
    6.6422    3.4174   26.5994 C   0  0  0  0  0  0  0  0  0  0  0  0
    6.5088    2.3858   26.9348 H   0  0  0  0  0  0  0  0  0  0  0  0
    5.7142    3.9722   26.8343 H   0  0  0  0  0  0  0  0  0  0  0  0
    7.4332    3.8486   27.2179 H   0  0  0  0  0  0  0  0  0  0  0  0
    7.5670    4.8112   24.8827 C   0  0  0  0  0  0  0  0  0  0  0  0
    8.1250    4.8168   23.9430 H   0  0  0  0  0  0  0  0  0  0  0  0
    8.2677    5.1120   25.6655 H   0  0  0  0  0  0  0  0  0  0  0  0
    6.7966    5.6029   24.8235 H   0  0  0  0  0  0  0  0  0  0  0  0
    6.3271    3.1375   22.8181 C   0  0  0  0  0  0  0  0  0  0  0  0
    5.4423    2.9219   22.2107 H   0  0  0  0  0  0  0  0  0  0  0  0
    6.6622    4.1307   22.5121 H   0  0  0  0  0  0  0  0  0  0  0  0
    7.3957    2.0881   22.5282 C   0  0  0  0  0  0  0  0  0  0  0  0
    7.5968    2.0414   21.4550 H   0  0  0  0  0  0  0  0  0  0  0  0
    8.3404    2.3717   23.0154 H   0  0  0  0  0  0  0  0  0  0  0  0
    8.0900   -1.3212   22.9270 O   0  0  0  0  0  0  0  0  0  0  0  0
  1  2  1  0
  2  3  2  0
  3  4  1  0
  4  5  1  0
  5  6  2  0
  6  7  1  0
  6  8  1  0
  8  9  2  0
  9 10  1  0
  9 11  1  0
 11 12  1  0
 11 13  2  0
 13 14  1  0
  4 15  2  0
 15 16  1  0
 16 17  1  0
 17 18  1  0
 17 19  1  0
 17 20  1  0
 20 21  1  0
 20 22  1  0
 20 23  1  0
 23 24  1  0
 23 25  1  0
 25 26  1  0
 26 27  1  0
 26 28  1  0
 26 29  1  0
 25 30  1  0
 30 31  1  0
 30 32  1  0
 30 33  1  0
 23 34  1  0
 34 35  1  0
 34 36  1  0
 34 37  1  0
 37 38  1  0
 37 39  1  0
 15 40  1  0
 40  2  1  0
 13  5  1  0
 37 16  1  0
M  END
>  <cnnaffinity>  (1) 
-4.9441

>  <filename>  (1) 
CN(C)C1CCN(c2ocnc2-c2cccnc2)CC1

$$$$
