
     RDKit          3D

 34 35  0  0  0  0  0  0  0  0999 V2000
    8.7524   -0.3824   21.1956 C   0  0  0  0  0  0  0  0  0  0  0  0
    7.3434   -0.6880   20.9678 N   0  0  0  0  0  0  0  0  0  0  0  0
    6.6702   -1.7227   21.6263 C   0  0  0  0  0  0  0  0  0  0  0  0
    5.5655   -2.0870   21.2668 O   0  0  0  0  0  0  0  0  0  0  0  0
    7.3709   -2.3971   22.8041 C   0  0  0  0  0  0  0  0  0  0  0  0
    6.5688   -3.5705   23.3960 C   0  0  0  0  0  0  0  0  0  0  0  0
    7.2891   -4.2097   24.5559 C   0  0  0  0  0  0  0  0  0  0  0  0
    7.0412   -3.7706   25.8659 C   0  0  0  0  0  0  0  0  0  0  0  0
    7.7228   -4.3082   26.9584 C   0  0  0  0  0  0  0  0  0  0  0  0
    8.6816   -5.3043   26.7577 C   0  0  0  0  0  0  0  0  0  0  0  0
    8.9630   -5.7564   25.4664 C   0  0  0  0  0  0  0  0  0  0  0  0
    8.2667   -5.2061   24.3854 C   0  0  0  0  0  0  0  0  0  0  0  0
    8.6323   -5.7926   22.7858 Cl  0  0  0  0  0  0  0  0  0  0  0  0
    9.7105   -6.5262   25.2919 H   0  0  0  0  0  0  0  0  0  0  0  0
    9.2101   -5.7313   27.6045 H   0  0  0  0  0  0  0  0  0  0  0  0
    7.5025   -3.9565   27.9602 H   0  0  0  0  0  0  0  0  0  0  0  0
    6.3007   -2.9899   26.0192 H   0  0  0  0  0  0  0  0  0  0  0  0
    6.3684   -4.3159   22.6198 H   0  0  0  0  0  0  0  0  0  0  0  0
    5.5848   -3.2161   23.7233 H   0  0  0  0  0  0  0  0  0  0  0  0
    7.5465   -1.6436   23.5827 H   0  0  0  0  0  0  0  0  0  0  0  0
    8.3648   -2.7422   22.4959 H   0  0  0  0  0  0  0  0  0  0  0  0
    6.6611    0.0055   19.9073 C   0  0  0  0  0  0  0  0  0  0  0  0
    5.4416    0.6465   20.1604 C   0  0  0  0  0  0  0  0  0  0  0  0
    4.8137    1.3140   19.1050 C   0  0  0  0  0  0  0  0  0  0  0  0
    5.4018    1.2961   17.8337 C   0  0  0  0  0  0  0  0  0  0  0  0
    6.5662    0.6799   17.5733 N   0  0  0  0  0  0  0  0  0  0  0  0
    7.1780    0.0707   18.5970 C   0  0  0  0  0  0  0  0  0  0  0  0
    8.1224   -0.4233   18.3732 H   0  0  0  0  0  0  0  0  0  0  0  0
    4.9167    1.7840   16.9912 H   0  0  0  0  0  0  0  0  0  0  0  0
    3.8778    1.8413   19.2584 H   0  0  0  0  0  0  0  0  0  0  0  0
    5.0150    0.6085   21.1626 H   0  0  0  0  0  0  0  0  0  0  0  0
    8.9982    0.5413   20.6668 H   0  0  0  0  0  0  0  0  0  0  0  0
    9.4322   -1.1656   20.8294 H   0  0  0  0  0  0  0  0  0  0  0  0
    8.9582   -0.2098   22.2573 H   0  0  0  0  0  0  0  0  0  0  0  0
  1  2  1  0
  2  3  1  0
  3  4  2  0
  3  5  1  0
  5  6  1  0
  6  7  1  0
  7  8  2  0
  8  9  1  0
  9 10  2  0
 10 11  1  0
 11 12  2  0
 12 13  1  0
 11 14  1  0
 10 15  1  0
  9 16  1  0
  8 17  1  0
  6 18  1  0
  6 19  1  0
  5 20  1  0
  5 21  1  0
  2 22  1  0
 22 23  2  0
 23 24  1  0
 24 25  2  0
 25 26  1  0
 26 27  2  0
 27 28  1  0
 25 29  1  0
 24 30  1  0
 23 31  1  0
  1 32  1  0
  1 33  1  0
  1 34  1  0
 12  7  1  0
 27 22  1  0
M  END
>  <cnnaffinity>  (1) 
-5.03271

>  <filename>  (1) 
CN(C(=O)CCc1ccccc1Cl)c1cccnc1

$$$$
