
     RDKit          3D

 29 30  0  0  0  0  0  0  0  0999 V2000
    4.9126    1.7860   16.9914 H   0  0  0  0  0  0  0  0  0  0  0  0
    5.3982    1.2962   17.8335 C   0  0  0  0  0  0  0  0  0  0  0  0
    6.5620    0.6827   17.5712 N   0  0  0  0  0  0  0  0  0  0  0  0
    7.1787    0.0778   18.5928 C   0  0  0  0  0  0  0  0  0  0  0  0
    8.1169   -0.4174   18.3648 H   0  0  0  0  0  0  0  0  0  0  0  0
    6.6789   -0.0060   19.9187 C   0  0  0  0  0  0  0  0  0  0  0  0
    7.3582   -0.7238   20.9107 N   0  0  0  0  0  0  0  0  0  0  0  0
    8.8063   -0.6476   20.9901 C   0  0  0  0  0  0  0  0  0  0  0  0
    9.1476   -0.9820   21.9741 H   0  0  0  0  0  0  0  0  0  0  0  0
    9.1718    0.3787   20.8457 H   0  0  0  0  0  0  0  0  0  0  0  0
    9.2902   -1.2712   20.2279 H   0  0  0  0  0  0  0  0  0  0  0  0
    6.6513   -1.4059   21.9797 C   0  0  0  0  0  0  0  0  0  0  0  0
    5.6445   -1.6540   21.6210 H   0  0  0  0  0  0  0  0  0  0  0  0
    7.1294   -2.3786   22.1527 H   0  0  0  0  0  0  0  0  0  0  0  0
    6.5612   -0.6636   23.3081 C   0  0  0  0  0  0  0  0  0  0  0  0
    6.8647    0.7005   23.4118 C   0  0  0  0  0  0  0  0  0  0  0  0
    7.1958    1.2328   22.5253 H   0  0  0  0  0  0  0  0  0  0  0  0
    6.7588    1.3727   24.6252 C   0  0  0  0  0  0  0  0  0  0  0  0
    7.0257    2.4217   24.6771 H   0  0  0  0  0  0  0  0  0  0  0  0
    6.3127    0.7031   25.7617 C   0  0  0  0  0  0  0  0  0  0  0  0
    6.2251    1.2105   26.7155 H   0  0  0  0  0  0  0  0  0  0  0  0
    5.9735   -0.6497   25.6797 C   0  0  0  0  0  0  0  0  0  0  0  0
    5.4024   -1.4355   27.1145 Cl  0  0  0  0  0  0  0  0  0  0  0  0
    6.1039   -1.3363   24.4615 C   0  0  0  0  0  0  0  0  0  0  0  0
    5.6139   -2.9992   24.3516 Cl  0  0  0  0  0  0  0  0  0  0  0  0
    5.4463    0.6371   20.1650 C   0  0  0  0  0  0  0  0  0  0  0  0
    5.0290    0.6192   21.1739 H   0  0  0  0  0  0  0  0  0  0  0  0
    4.8151    1.3058   19.1080 C   0  0  0  0  0  0  0  0  0  0  0  0
    3.8804    1.8364   19.2608 H   0  0  0  0  0  0  0  0  0  0  0  0
  1  2  1  0
  2  3  2  0
  3  4  1  0
  4  5  1  0
  4  6  2  0
  6  7  1  0
  7  8  1  0
  8  9  1  0
  8 10  1  0
  8 11  1  0
  7 12  1  0
 12 13  1  0
 12 14  1  0
 12 15  1  0
 15 16  2  0
 16 17  1  0
 16 18  1  0
 18 19  1  0
 18 20  2  0
 20 21  1  0
 20 22  1  0
 22 23  1  0
 22 24  2  0
 24 25  1  0
  6 26  1  0
 26 27  1  0
 26 28  2  0
 28 29  1  0
 28  2  1  0
 24 15  1  0
M  END
>  <cnnaffinity>  (1) 
-5.07246

>  <filename>  (1) 
CN(Cc1cccc(Cl)c1Cl)c1cccnc1

$$$$
