
     RDKit          3D

 42 43  0  0  0  0  0  0  0  0999 V2000
    9.2691    1.5135   20.8549 C   0  0  0  0  0  0  0  0  0  0  0  0
    8.7430    1.1194   22.1514 N   0  0  0  0  0  0  0  0  0  0  0  0
    9.4681    1.5996   23.3302 C   0  0  0  0  0  0  0  0  0  0  0  0
   10.8408    0.9221   23.5627 C   0  0  0  0  0  0  0  0  0  0  0  0
   10.8849   -0.5364   23.6285 N   0  0  0  0  0  0  0  0  0  0  0  0
   11.4353   -1.2318   22.4701 C   0  0  0  0  0  0  0  0  0  0  0  0
   11.7902   -2.2297   22.7516 H   0  0  0  0  0  0  0  0  0  0  0  0
   10.7105   -1.3411   21.6479 H   0  0  0  0  0  0  0  0  0  0  0  0
   12.3076   -0.6879   22.0871 H   0  0  0  0  0  0  0  0  0  0  0  0
    9.9553   -1.1895   24.4497 C   0  0  0  0  0  0  0  0  0  0  0  0
    9.7160   -0.7009   25.7502 C   0  0  0  0  0  0  0  0  0  0  0  0
    8.8355   -1.3596   26.6064 C   0  0  0  0  0  0  0  0  0  0  0  0
    8.1480   -2.4973   26.1734 C   0  0  0  0  0  0  0  0  0  0  0  0
    8.3443   -2.9703   24.8725 C   0  0  0  0  0  0  0  0  0  0  0  0
    9.2396   -2.3241   24.0162 C   0  0  0  0  0  0  0  0  0  0  0  0
    9.3626   -2.6520   22.9857 H   0  0  0  0  0  0  0  0  0  0  0  0
    7.7939   -3.8376   24.5142 H   0  0  0  0  0  0  0  0  0  0  0  0
    7.4666   -3.0100   26.8450 H   0  0  0  0  0  0  0  0  0  0  0  0
    8.6837   -0.9657   27.6081 H   0  0  0  0  0  0  0  0  0  0  0  0
   10.2260    0.2054   26.0630 H   0  0  0  0  0  0  0  0  0  0  0  0
   11.5211    1.2355   22.7605 H   0  0  0  0  0  0  0  0  0  0  0  0
   11.2585    1.3391   24.4875 H   0  0  0  0  0  0  0  0  0  0  0  0
    9.6704    2.6679   23.1977 H   0  0  0  0  0  0  0  0  0  0  0  0
    8.8196    1.4951   24.2037 H   0  0  0  0  0  0  0  0  0  0  0  0
    7.6963    0.2300   22.2891 C   0  0  0  0  0  0  0  0  0  0  0  0
    7.0288    0.1414   23.3046 O   0  0  0  0  0  0  0  0  0  0  0  0
    7.3691   -0.6911   21.0279 C   0  0  0  0  0  0  0  0  0  0  0  0
    6.6151   -1.7370   21.4597 F   0  0  0  0  0  0  0  0  0  0  0  0
    8.5446   -1.2682   20.5802 F   0  0  0  0  0  0  0  0  0  0  0  0
    6.6622    0.0067   19.8767 C   0  0  0  0  0  0  0  0  0  0  0  0
    5.4567    0.6674   20.1385 C   0  0  0  0  0  0  0  0  0  0  0  0
    4.8168    1.3207   19.0819 C   0  0  0  0  0  0  0  0  0  0  0  0
    5.4095    1.2897   17.8165 C   0  0  0  0  0  0  0  0  0  0  0  0
    6.5508    0.6403   17.5495 N   0  0  0  0  0  0  0  0  0  0  0  0
    7.1570    0.0044   18.5619 C   0  0  0  0  0  0  0  0  0  0  0  0
    8.0910   -0.4949   18.3079 H   0  0  0  0  0  0  0  0  0  0  0  0
    4.9489    1.8127   16.9810 H   0  0  0  0  0  0  0  0  0  0  0  0
    3.8843    1.8509   19.2274 H   0  0  0  0  0  0  0  0  0  0  0  0
    5.0406    0.6646   21.1475 H   0  0  0  0  0  0  0  0  0  0  0  0
    9.6544    0.6612   20.2866 H   0  0  0  0  0  0  0  0  0  0  0  0
   10.0866    2.2288   20.9840 H   0  0  0  0  0  0  0  0  0  0  0  0
    8.4943    2.0091   20.2597 H   0  0  0  0  0  0  0  0  0  0  0  0
  1  2  1  0
  2  3  1  0
  3  4  1  0
  4  5  1  0
  5  6  1  0
  6  7  1  0
  6  8  1  0
  6  9  1  0
  5 10  1  0
 10 11  2  0
 11 12  1  0
 12 13  2  0
 13 14  1  0
 14 15  2  0
 15 16  1  0
 14 17  1  0
 13 18  1  0
 12 19  1  0
 11 20  1  0
  4 21  1  0
  4 22  1  0
  3 23  1  0
  3 24  1  0
  2 25  1  0
 25 26  2  0
 25 27  1  0
 27 28  1  0
 27 29  1  0
 27 30  1  0
 30 31  2  0
 31 32  1  0
 32 33  2  0
 33 34  1  0
 34 35  2  0
 35 36  1  0
 33 37  1  0
 32 38  1  0
 31 39  1  0
  1 40  1  0
  1 41  1  0
  1 42  1  0
 15 10  1  0
 35 30  1  0
M  END
>  <cnnaffinity>  (1) 
-5.13796

>  <filename>  (1) 
CN(CCN(C)c1ccccc1)C(=O)C(F)(F)c1cccnc1

$$$$
