
     RDKit          3D

 32 33  0  0  0  0  0  0  0  0999 V2000
    8.4737   -2.9988   21.7640 C   0  0  0  0  0  0  0  0  0  0  0  0
    7.4594   -2.1763   21.0830 N   0  0  0  0  0  0  0  0  0  0  0  0
    6.0476   -2.5289   21.3549 C   0  0  0  0  0  0  0  0  0  0  0  0
    5.7636   -3.9938   21.0991 C   0  0  0  0  0  0  0  0  0  0  0  0
    5.6219   -4.9411   22.1346 C   0  0  0  0  0  0  0  0  0  0  0  0
    5.7700   -4.4468   23.8058 Cl  0  0  0  0  0  0  0  0  0  0  0  0
    5.3367   -6.2866   21.8839 C   0  0  0  0  0  0  0  0  0  0  0  0
    5.2439   -6.7075   20.5590 C   0  0  0  0  0  0  0  0  0  0  0  0
    5.4467   -5.8261   19.5010 C   0  0  0  0  0  0  0  0  0  0  0  0
    5.6635   -4.4754   19.7773 C   0  0  0  0  0  0  0  0  0  0  0  0
    5.6613   -3.3608   18.4340 Cl  0  0  0  0  0  0  0  0  0  0  0  0
    5.3476   -6.1828   18.4812 H   0  0  0  0  0  0  0  0  0  0  0  0
    4.9382   -7.7182   20.3108 H   0  0  0  0  0  0  0  0  0  0  0  0
    5.1803   -6.9697   22.7135 H   0  0  0  0  0  0  0  0  0  0  0  0
    5.7579   -2.2704   22.3788 H   0  0  0  0  0  0  0  0  0  0  0  0
    5.4116   -1.9587   20.6674 H   0  0  0  0  0  0  0  0  0  0  0  0
    7.7442   -0.5290   21.2759 S   0  0  0  0  0  0  0  0  0  0  0  0
    9.1340   -0.2928   20.9404 O   0  0  0  0  0  0  0  0  0  0  0  0
    7.1830   -0.1166   22.5496 O   0  0  0  0  0  0  0  0  0  0  0  0
    6.7525    0.0833   20.0109 C   0  0  0  0  0  0  0  0  0  0  0  0
    5.5248    0.7145   20.2120 C   0  0  0  0  0  0  0  0  0  0  0  0
    4.9331    1.2658   19.0806 C   0  0  0  0  0  0  0  0  0  0  0  0
    5.5777    1.1409   17.8423 C   0  0  0  0  0  0  0  0  0  0  0  0
    6.7229    0.4627   17.6769 N   0  0  0  0  0  0  0  0  0  0  0  0
    7.2904   -0.0913   18.7478 C   0  0  0  0  0  0  0  0  0  0  0  0
    8.1833   -0.6886   18.5748 H   0  0  0  0  0  0  0  0  0  0  0  0
    5.1472    1.5886   16.9469 H   0  0  0  0  0  0  0  0  0  0  0  0
    3.9890    1.7880   19.1484 H   0  0  0  0  0  0  0  0  0  0  0  0
    5.0514    0.7586   21.1983 H   0  0  0  0  0  0  0  0  0  0  0  0
    8.3556   -4.0293   21.4254 H   0  0  0  0  0  0  0  0  0  0  0  0
    9.4749   -2.6809   21.4630 H   0  0  0  0  0  0  0  0  0  0  0  0
    8.3786   -2.9999   22.8593 H   0  0  0  0  0  0  0  0  0  0  0  0
  1  2  1  0
  2  3  1  0
  3  4  1  0
  4  5  2  0
  5  6  1  0
  5  7  1  0
  7  8  2  0
  8  9  1  0
  9 10  2  0
 10 11  1  0
  9 12  1  0
  8 13  1  0
  7 14  1  0
  3 15  1  0
  3 16  1  0
  2 17  1  0
 17 18  2  0
 17 19  2  0
 17 20  1  0
 20 21  2  0
 21 22  1  0
 22 23  2  0
 23 24  1  0
 24 25  2  0
 25 26  1  0
 23 27  1  0
 22 28  1  0
 21 29  1  0
  1 30  1  0
  1 31  1  0
  1 32  1  0
 10  4  1  0
 25 20  1  0
M  END
>  <cnnaffinity>  (1) 
-5.27942

>  <filename>  (1) 
CN(Cc1c(Cl)cccc1Cl)S(=O)(=O)c1cccnc1

$$$$
