
     RDKit          3D

 43 45  0  0  0  0  0  0  0  0999 V2000
    8.2788    1.3218   22.3626 C   0  0  0  0  0  0  0  0  0  0  0  0
    7.4885    0.0919   22.5544 N   0  0  0  0  0  0  0  0  0  0  0  0
    7.7415   -0.5949   23.8433 C   0  0  0  0  0  0  0  0  0  0  0  0
    8.9402   -1.5563   23.8187 C   0  0  0  0  0  0  0  0  0  0  0  0
    9.1697   -2.1633   25.1977 C   0  0  0  0  0  0  0  0  0  0  0  0
    7.9417   -2.8068   25.6539 N   0  0  0  0  0  0  0  0  0  0  0  0
    8.0146   -3.9514   26.4325 C   0  0  0  0  0  0  0  0  0  0  0  0
    8.7794   -5.0414   25.9700 C   0  0  0  0  0  0  0  0  0  0  0  0
    8.7962   -6.2021   26.7278 C   0  0  0  0  0  0  0  0  0  0  0  0
    8.1138   -6.2155   27.9536 C   0  0  0  0  0  0  0  0  0  0  0  0
    7.4101   -5.0750   28.3274 C   0  0  0  0  0  0  0  0  0  0  0  0
    7.3192   -3.9709   27.5754 N   0  0  0  0  0  0  0  0  0  0  0  0
    6.8795   -5.0481   29.2765 H   0  0  0  0  0  0  0  0  0  0  0  0
    8.1180   -7.0834   28.6025 H   0  0  0  0  0  0  0  0  0  0  0  0
    9.3460   -7.0740   26.3766 H   0  0  0  0  0  0  0  0  0  0  0  0
    9.2906   -4.9402   25.0177 H   0  0  0  0  0  0  0  0  0  0  0  0
    6.7867   -1.9227   25.7545 C   0  0  0  0  0  0  0  0  0  0  0  0
    6.4946   -1.2985   24.3866 C   0  0  0  0  0  0  0  0  0  0  0  0
    5.6762   -0.5766   24.4826 H   0  0  0  0  0  0  0  0  0  0  0  0
    6.1799   -2.0828   23.6952 H   0  0  0  0  0  0  0  0  0  0  0  0
    5.9278   -2.5003   26.1086 H   0  0  0  0  0  0  0  0  0  0  0  0
    6.9596   -1.1378   26.5129 H   0  0  0  0  0  0  0  0  0  0  0  0
    9.4947   -1.3815   25.9093 H   0  0  0  0  0  0  0  0  0  0  0  0
    9.9906   -2.8867   25.1588 H   0  0  0  0  0  0  0  0  0  0  0  0
    9.8402   -1.0387   23.4644 H   0  0  0  0  0  0  0  0  0  0  0  0
    8.7273   -2.3712   23.1168 H   0  0  0  0  0  0  0  0  0  0  0  0
    7.9594    0.2164   24.5629 H   0  0  0  0  0  0  0  0  0  0  0  0
    7.5370   -0.9012   21.1892 S   0  0  0  0  0  0  0  0  0  0  0  0
    8.9126   -0.9847   20.7153 O   0  0  0  0  0  0  0  0  0  0  0  0
    6.7734   -2.1152   21.4175 O   0  0  0  0  0  0  0  0  0  0  0  0
    6.6593    0.0699   20.0429 C   0  0  0  0  0  0  0  0  0  0  0  0
    5.4322    0.6972   20.2790 C   0  0  0  0  0  0  0  0  0  0  0  0
    4.8298    1.3022   19.1744 C   0  0  0  0  0  0  0  0  0  0  0  0
    5.4712    1.2472   17.9288 C   0  0  0  0  0  0  0  0  0  0  0  0
    6.6375    0.6115   17.7273 N   0  0  0  0  0  0  0  0  0  0  0  0
    7.2174    0.0300   18.7744 C   0  0  0  0  0  0  0  0  0  0  0  0
    8.1621   -0.4819   18.5920 H   0  0  0  0  0  0  0  0  0  0  0  0
    5.0233    1.7168   17.0545 H   0  0  0  0  0  0  0  0  0  0  0  0
    3.8784    1.8201   19.2587 H   0  0  0  0  0  0  0  0  0  0  0  0
    4.9585    0.7211   21.2655 H   0  0  0  0  0  0  0  0  0  0  0  0
    8.1045    1.9762   23.2262 H   0  0  0  0  0  0  0  0  0  0  0  0
    7.9426    1.8694   21.4762 H   0  0  0  0  0  0  0  0  0  0  0  0
    9.3593    1.1368   22.2602 H   0  0  0  0  0  0  0  0  0  0  0  0
  1  2  1  0
  2  3  1  0
  3  4  1  0
  4  5  1  0
  5  6  1  0
  6  7  1  0
  7  8  2  0
  8  9  1  0
  9 10  2  0
 10 11  1  0
 11 12  2  0
 11 13  1  0
 10 14  1  0
  9 15  1  0
  8 16  1  0
  6 17  1  0
 17 18  1  0
 18 19  1  0
 18 20  1  0
 17 21  1  0
 17 22  1  0
  5 23  1  0
  5 24  1  0
  4 25  1  0
  4 26  1  0
  3 27  1  0
  2 28  1  0
 28 29  2  0
 28 30  2  0
 28 31  1  0
 31 32  2  0
 32 33  1  0
 33 34  2  0
 34 35  1  0
 35 36  2  0
 36 37  1  0
 34 38  1  0
 33 39  1  0
 32 40  1  0
  1 41  1  0
  1 42  1  0
  1 43  1  0
 18  3  1  0
 36 31  1  0
 12  7  1  0
M  END
>  <cnnaffinity>  (1) 
-5.2956

>  <filename>  (1) 
CN(C1CCN(c2ccccn2)CC1)S(=O)(=O)c1cccnc1

$$$$
