
     RDKit          3D

 35 36  0  0  0  0  0  0  0  0999 V2000
    5.0021    1.8010   16.9815 H   0  0  0  0  0  0  0  0  0  0  0  0
    5.4560    1.2928   17.8268 C   0  0  0  0  0  0  0  0  0  0  0  0
    6.6005    0.6460   17.5641 N   0  0  0  0  0  0  0  0  0  0  0  0
    7.1904    0.0207   18.5881 C   0  0  0  0  0  0  0  0  0  0  0  0
    8.1096   -0.5152   18.3518 H   0  0  0  0  0  0  0  0  0  0  0  0
    6.6764   -0.0075   19.8950 C   0  0  0  0  0  0  0  0  0  0  0  0
    7.4147   -0.7399   20.9434 C   0  0  0  0  0  0  0  0  0  0  0  0
    6.4119   -1.7518   21.9607 S   0  0  0  0  0  0  0  0  0  0  0  0
    7.5484   -2.2956   23.1437 C   0  0  0  0  0  0  0  0  0  0  0  0
    6.8606   -2.9460   24.0992 O   0  0  0  0  0  0  0  0  0  0  0  0
    7.5682   -3.6699   25.1056 C   0  0  0  0  0  0  0  0  0  0  0  0
    8.3463   -3.0624   25.5851 H   0  0  0  0  0  0  0  0  0  0  0  0
    6.8236   -3.8981   25.8686 H   0  0  0  0  0  0  0  0  0  0  0  0
    8.1612   -4.9604   24.5509 C   0  0  0  0  0  0  0  0  0  0  0  0
    7.3550   -5.5579   24.0789 H   0  0  0  0  0  0  0  0  0  0  0  0
    8.8654   -4.7210   23.7440 H   0  0  0  0  0  0  0  0  0  0  0  0
    8.8592   -5.6808   25.5956 N   0  0  0  0  0  0  0  0  0  0  0  0
   10.0161   -6.4145   25.1306 C   0  0  0  0  0  0  0  0  0  0  0  0
    9.8591   -7.0412   24.2356 H   0  0  0  0  0  0  0  0  0  0  0  0
   10.8206   -5.7037   24.8957 H   0  0  0  0  0  0  0  0  0  0  0  0
   10.3753   -7.0907   25.9096 H   0  0  0  0  0  0  0  0  0  0  0  0
    7.9927   -6.3386   26.5524 C   0  0  0  0  0  0  0  0  0  0  0  0
    7.4976   -5.6047   27.1977 H   0  0  0  0  0  0  0  0  0  0  0  0
    7.1956   -6.9505   26.0946 H   0  0  0  0  0  0  0  0  0  0  0  0
    8.5733   -6.9785   27.2204 H   0  0  0  0  0  0  0  0  0  0  0  0
    8.8826   -2.1001   23.0966 C   0  0  0  0  0  0  0  0  0  0  0  0
    9.5584   -2.5487   23.8136 H   0  0  0  0  0  0  0  0  0  0  0  0
    9.5634   -1.2949   22.0919 C   0  0  0  0  0  0  0  0  0  0  0  0
   10.7808   -1.1731   22.1206 O   0  0  0  0  0  0  0  0  0  0  0  0
    8.7589   -0.6451   21.0540 C   0  0  0  0  0  0  0  0  0  0  0  0
    9.3391   -0.0340   20.3717 H   0  0  0  0  0  0  0  0  0  0  0  0
    5.4647    0.6570   20.1457 C   0  0  0  0  0  0  0  0  0  0  0  0
    5.0304    0.6430   21.1477 H   0  0  0  0  0  0  0  0  0  0  0  0
    4.8473    1.3198   19.0869 C   0  0  0  0  0  0  0  0  0  0  0  0
    3.9162    1.8557   19.2257 H   0  0  0  0  0  0  0  0  0  0  0  0
  1  2  1  0
  2  3  2  0
  3  4  1  0
  4  5  1  0
  4  6  2  0
  6  7  1  0
  7  8  1  0
  8  9  1  0
  9 10  1  0
 10 11  1  0
 11 12  1  0
 11 13  1  0
 11 14  1  0
 14 15  1  0
 14 16  1  0
 14 17  1  0
 17 18  1  0
 18 19  1  0
 18 20  1  0
 18 21  1  0
 17 22  1  0
 22 23  1  0
 22 24  1  0
 22 25  1  0
  9 26  2  0
 26 27  1  0
 26 28  1  0
 28 29  2  0
 28 30  1  0
 30 31  1  0
  6 32  1  0
 32 33  1  0
 32 34  2  0
 34 35  1  0
 34  2  1  0
 30  7  2  0
M  END
>  <cnnaffinity>  (1) 
-4.98662

>  <filename>  (1) 
CN(C)CCOc1cc(=O)cc(-c2cccnc2)s1

$$$$
