
     RDKit          3D

 46 48  0  0  0  0  0  0  0  0999 V2000
    4.9898    1.8523   16.9398 H   0  0  0  0  0  0  0  0  0  0  0  0
    5.4308    1.3095   17.7760 C   0  0  0  0  0  0  0  0  0  0  0  0
    6.5849    0.6743   17.5295 N   0  0  0  0  0  0  0  0  0  0  0  0
    7.1675    0.0350   18.5565 C   0  0  0  0  0  0  0  0  0  0  0  0
    8.1051   -0.4559   18.3112 H   0  0  0  0  0  0  0  0  0  0  0  0
    6.6618   -0.0298   19.8726 C   0  0  0  0  0  0  0  0  0  0  0  0
    7.3825   -0.8140   20.9711 C   0  0  2  0  0  0  0  0  0  0  0  0
    6.9848   -1.8393   20.9576 H   0  0  0  0  0  0  0  0  0  0  0  0
    7.1082   -0.2639   22.4032 C   0  0  0  0  0  0  0  0  0  0  0  0
    6.0993   -0.5534   22.7088 H   0  0  0  0  0  0  0  0  0  0  0  0
    7.1223    0.8343   22.3846 H   0  0  0  0  0  0  0  0  0  0  0  0
    8.1043   -0.7698   23.4669 C   0  0  1  0  0  0  0  0  0  0  0  0
    7.5734   -1.0242   24.3899 H   0  0  0  0  0  0  0  0  0  0  0  0
    8.7758   -1.9772   22.9262 N   0  0  0  0  0  0  0  0  0  0  0  0
    9.4348   -2.6973   23.9843 N   0  0  0  0  0  0  0  0  0  0  0  0
   10.1885   -3.2448   23.5547 H   0  0  0  0  0  0  0  0  0  0  0  0
    8.4876   -3.6561   24.5711 C   0  0  0  0  0  0  0  0  0  0  0  0
    7.5395   -3.1421   24.7802 H   0  0  0  0  0  0  0  0  0  0  0  0
    8.2537   -4.4426   23.8341 H   0  0  0  0  0  0  0  0  0  0  0  0
    9.0351   -4.2328   25.8799 C   0  0  0  0  0  0  0  0  0  0  0  0
   10.0243   -4.6991   25.6756 H   0  0  0  0  0  0  0  0  0  0  0  0
    9.2135   -3.3872   26.5603 H   0  0  0  0  0  0  0  0  0  0  0  0
    8.0799   -5.1566   26.4942 N   0  0  0  0  0  0  0  0  0  0  0  0
    8.2847   -5.3632   27.9183 C   0  0  0  0  0  0  0  0  0  0  0  0
    7.5833   -6.1231   28.2862 H   0  0  0  0  0  0  0  0  0  0  0  0
    8.0808   -4.4349   28.4635 H   0  0  0  0  0  0  0  0  0  0  0  0
    9.3082   -5.7034   28.1637 H   0  0  0  0  0  0  0  0  0  0  0  0
    7.9464   -6.4182   25.7874 C   0  0  0  0  0  0  0  0  0  0  0  0
    8.7740   -7.1266   25.9927 H   0  0  0  0  0  0  0  0  0  0  0  0
    7.9233   -6.2433   24.7051 H   0  0  0  0  0  0  0  0  0  0  0  0
    6.9930   -6.8783   26.0812 H   0  0  0  0  0  0  0  0  0  0  0  0
    9.7298   -1.3739   21.9648 C   0  0  2  0  0  0  0  0  0  0  0  0
   10.4831   -2.1176   21.6741 H   0  0  0  0  0  0  0  0  0  0  0  0
   10.3632   -0.1920   22.7461 C   0  0  0  0  0  0  0  0  0  0  0  0
   10.6717    0.6222   22.0815 H   0  0  0  0  0  0  0  0  0  0  0  0
   11.2466   -0.5549   23.2811 H   0  0  0  0  0  0  0  0  0  0  0  0
    9.2617    0.2205   23.7527 C   0  0  0  0  0  0  0  0  0  0  0  0
    9.6054    0.0766   24.7819 H   0  0  0  0  0  0  0  0  0  0  0  0
    8.9375    1.2604   23.6372 H   0  0  0  0  0  0  0  0  0  0  0  0
    8.9179   -0.9375   20.7243 C   0  0  0  0  0  0  0  0  0  0  0  0
    9.0900   -1.6654   19.9249 H   0  0  0  0  0  0  0  0  0  0  0  0
    9.3041    0.0240   20.3620 H   0  0  0  0  0  0  0  0  0  0  0  0
    5.4413    0.6345   20.0897 C   0  0  0  0  0  0  0  0  0  0  0  0
    4.9819    0.6468   21.0811 H   0  0  0  0  0  0  0  0  0  0  0  0
    4.8209    1.3059   19.0311 C   0  0  0  0  0  0  0  0  0  0  0  0
    3.8923    1.8486   19.1737 H   0  0  0  0  0  0  0  0  0  0  0  0
  1  2  1  0
  2  3  2  0
  3  4  1  0
  4  5  1  0
  4  6  2  0
  6  7  1  0
  7  8  1  1
  7  9  1  0
  9 10  1  0
  9 11  1  0
  9 12  1  0
 12 13  1  1
 12 14  1  0
 14 15  1  0
 15 16  1  0
 15 17  1  0
 17 18  1  0
 17 19  1  0
 17 20  1  0
 20 21  1  0
 20 22  1  0
 20 23  1  0
 23 24  1  0
 24 25  1  0
 24 26  1  0
 24 27  1  0
 23 28  1  0
 28 29  1  0
 28 30  1  0
 28 31  1  0
 14 32  1  0
 32 33  1  6
 32 34  1  0
 34 35  1  0
 34 36  1  0
 34 37  1  0
 37 38  1  0
 37 39  1  0
 32 40  1  0
 40 41  1  0
 40 42  1  0
  6 43  1  0
 43 44  1  0
 43 45  2  0
 45 46  1  0
 45  2  1  0
 40  7  1  0
 37 12  1  0
M  END
>  <cnnaffinity>  (1) 
-4.62788

>  <filename>  (1) 
CN(C)CCNN1[C@@H]2CC[C@H]1C[C@@H](c1cccnc1)C2

$$$$
