
     RDKit          3D

 39 40  0  0  0  0  0  0  0  0999 V2000
    4.9164    1.7920   16.9879 H   0  0  0  0  0  0  0  0  0  0  0  0
    5.3939    1.3002   17.8317 C   0  0  0  0  0  0  0  0  0  0  0  0
    6.5555    0.6814   17.5730 N   0  0  0  0  0  0  0  0  0  0  0  0
    7.1548    0.0513   18.5910 C   0  0  0  0  0  0  0  0  0  0  0  0
    8.1135   -0.4166   18.3688 H   0  0  0  0  0  0  0  0  0  0  0  0
    6.6364   -0.0156   19.9001 C   0  0  0  0  0  0  0  0  0  0  0  0
    7.4053   -0.6813   21.0381 C   0  0  0  0  0  0  0  0  0  0  0  0
    6.7088   -1.0542   21.8030 H   0  0  0  0  0  0  0  0  0  0  0  0
    7.9853   -1.5265   20.6593 H   0  0  0  0  0  0  0  0  0  0  0  0
    8.4051    0.3394   21.6213 C   0  0  0  0  0  0  0  0  0  0  0  0
    9.9491    0.4124   21.0666 S   0  0  0  0  0  0  0  0  0  0  0  0
    7.9126    1.2551   22.5241 N   0  0  0  0  0  0  0  0  0  0  0  0
    7.0797    0.8755   23.6732 C   0  0  0  0  0  0  0  0  0  0  0  0
    7.2960   -0.1635   23.9393 H   0  0  0  0  0  0  0  0  0  0  0  0
    6.0021    0.9336   23.4376 H   0  0  0  0  0  0  0  0  0  0  0  0
    7.3804    1.7697   24.8764 C   0  0  0  0  0  0  0  0  0  0  0  0
    6.7098    1.5256   25.7055 H   0  0  0  0  0  0  0  0  0  0  0  0
    8.3992    1.5788   25.2345 H   0  0  0  0  0  0  0  0  0  0  0  0
    7.2377    3.2573   24.5194 C   0  0  0  0  0  0  0  0  0  0  0  0
    6.2076    3.4217   24.1622 H   0  0  0  0  0  0  0  0  0  0  0  0
    7.4323    4.1844   25.6416 N   0  0  0  0  0  0  0  0  0  0  0  0
    6.2518    4.3237   26.4844 C   0  0  0  0  0  0  0  0  0  0  0  0
    5.9659    3.3956   27.0180 H   0  0  0  0  0  0  0  0  0  0  0  0
    5.3930    4.6478   25.8866 H   0  0  0  0  0  0  0  0  0  0  0  0
    6.4232    5.0957   27.2428 H   0  0  0  0  0  0  0  0  0  0  0  0
    8.6098    3.9307   26.4617 C   0  0  0  0  0  0  0  0  0  0  0  0
    8.7981    4.7947   27.1077 H   0  0  0  0  0  0  0  0  0  0  0  0
    9.4975    3.7881   25.8402 H   0  0  0  0  0  0  0  0  0  0  0  0
    8.5092    3.0421   27.1133 H   0  0  0  0  0  0  0  0  0  0  0  0
    8.1652    3.5860   23.3485 C   0  0  0  0  0  0  0  0  0  0  0  0
    8.0291    4.6318   23.0617 H   0  0  0  0  0  0  0  0  0  0  0  0
    9.2111    3.4729   23.6533 H   0  0  0  0  0  0  0  0  0  0  0  0
    7.8796    2.6825   22.1534 C   0  0  0  0  0  0  0  0  0  0  0  0
    6.8921    2.9295   21.7235 H   0  0  0  0  0  0  0  0  0  0  0  0
    8.6223    2.8501   21.3698 H   0  0  0  0  0  0  0  0  0  0  0  0
    5.4345    0.6500   20.1470 C   0  0  0  0  0  0  0  0  0  0  0  0
    5.0044    0.6376   21.1539 H   0  0  0  0  0  0  0  0  0  0  0  0
    4.7998    1.3188   19.0979 C   0  0  0  0  0  0  0  0  0  0  0  0
    3.8687    1.8491   19.2483 H   0  0  0  0  0  0  0  0  0  0  0  0
  1  2  1  0
  2  3  2  0
  3  4  1  0
  4  5  1  0
  4  6  2  0
  6  7  1  0
  7  8  1  0
  7  9  1  0
  7 10  1  0
 10 11  2  0
 10 12  1  0
 12 13  1  0
 13 14  1  0
 13 15  1  0
 13 16  1  0
 16 17  1  0
 16 18  1  0
 16 19  1  0
 19 20  1  0
 19 21  1  0
 21 22  1  0
 22 23  1  0
 22 24  1  0
 22 25  1  0
 21 26  1  0
 26 27  1  0
 26 28  1  0
 26 29  1  0
 19 30  1  0
 30 31  1  0
 30 32  1  0
 30 33  1  0
 33 34  1  0
 33 35  1  0
  6 36  1  0
 36 37  1  0
 36 38  2  0
 38 39  1  0
 38  2  1  0
 33 12  1  0
M  END
>  <cnnaffinity>  (1) 
-4.63405

>  <filename>  (1) 
CN(C)C1CCN(C(=S)Cc2cccnc2)CC1

$$$$
