
     RDKit          3D

 50 53  0  0  0  0  0  0  0  0999 V2000
    7.2122    2.4121   22.9046 C   0  0  0  0  0  0  0  0  0  0  0  0
    8.6244    2.1818   22.6428 N   0  0  0  0  0  0  0  0  0  0  0  0
    9.0673    1.9960   21.2679 C   0  0  0  0  0  0  0  0  0  0  0  0
    9.5669    0.5724   20.9213 C   0  0  0  0  0  0  0  0  0  0  0  0
    8.6559   -0.5003   21.4056 C   0  0  0  0  0  0  0  0  0  0  0  0
    8.8950   -1.3585   22.3746 N   0  0  0  0  0  0  0  0  0  0  0  0
    7.6823   -1.9389   22.5743 C   0  0  0  0  0  0  0  0  0  0  0  0
    7.4231   -2.8410   23.7449 C   0  0  0  0  0  0  0  0  0  0  0  0
    6.6639   -2.1322   24.9088 C   0  0  0  0  0  0  0  0  0  0  0  0
    5.8663   -3.2411   25.6394 C   0  0  0  0  0  0  0  0  0  0  0  0
    5.9317   -4.5059   24.7430 C   0  0  0  0  0  0  0  0  0  0  0  0
    6.5483   -4.0649   23.4052 C   0  0  0  0  0  0  0  0  0  0  0  0
    5.7699   -3.7566   22.6939 H   0  0  0  0  0  0  0  0  0  0  0  0
    7.1337   -4.8564   22.9193 H   0  0  0  0  0  0  0  0  0  0  0  0
    4.9450   -4.9635   24.5987 H   0  0  0  0  0  0  0  0  0  0  0  0
    6.5557   -5.2743   25.2176 H   0  0  0  0  0  0  0  0  0  0  0  0
    4.8309   -2.9171   25.8012 H   0  0  0  0  0  0  0  0  0  0  0  0
    6.2720   -3.4552   26.6361 H   0  0  0  0  0  0  0  0  0  0  0  0
    5.9666   -1.3835   24.5013 H   0  0  0  0  0  0  0  0  0  0  0  0
    7.3523   -1.5792   25.5670 H   0  0  0  0  0  0  0  0  0  0  0  0
    8.4174   -3.1523   24.0937 H   0  0  0  0  0  0  0  0  0  0  0  0
    6.7340   -1.5452   21.7402 N   0  0  0  0  0  0  0  0  0  0  0  0
    7.3738   -0.6356   20.9624 N   0  0  0  0  0  0  0  0  0  0  0  0
    6.6775    0.0190   19.9101 C   0  0  0  0  0  0  0  0  0  0  0  0
    5.4554    0.6504   20.1670 C   0  0  0  0  0  0  0  0  0  0  0  0
    4.8136    1.3104   19.1130 C   0  0  0  0  0  0  0  0  0  0  0  0
    5.4035    1.2946   17.8429 C   0  0  0  0  0  0  0  0  0  0  0  0
    6.5576    0.6628   17.5801 N   0  0  0  0  0  0  0  0  0  0  0  0
    7.1740    0.0460   18.5952 C   0  0  0  0  0  0  0  0  0  0  0  0
    8.1083   -0.4584   18.3535 H   0  0  0  0  0  0  0  0  0  0  0  0
    4.9326    1.8032   17.0037 H   0  0  0  0  0  0  0  0  0  0  0  0
    3.8753    1.8387   19.2604 H   0  0  0  0  0  0  0  0  0  0  0  0
    5.0273    0.6078   21.1691 H   0  0  0  0  0  0  0  0  0  0  0  0
   10.5560    0.3766   21.3463 H   0  0  0  0  0  0  0  0  0  0  0  0
    9.6339    0.4853   19.8384 H   0  0  0  0  0  0  0  0  0  0  0  0
    9.8742    2.7045   21.0284 H   0  0  0  0  0  0  0  0  0  0  0  0
    8.2250    2.2484   20.6123 H   0  0  0  0  0  0  0  0  0  0  0  0
    9.4540    1.8195   23.6846 C   0  0  0  0  0  0  0  0  0  0  0  0
    8.9662    1.1252   24.8067 C   0  0  0  0  0  0  0  0  0  0  0  0
    9.8695    0.7735   25.8012 C   0  0  0  0  0  0  0  0  0  0  0  0
   11.1743    1.0500   25.7346 N   0  0  0  0  0  0  0  0  0  0  0  0
   11.6291    1.7310   24.6777 C   0  0  0  0  0  0  0  0  0  0  0  0
   10.8202    2.1321   23.6260 C   0  0  0  0  0  0  0  0  0  0  0  0
   11.2242    2.6735   22.7783 H   0  0  0  0  0  0  0  0  0  0  0  0
   12.6910    1.9825   24.6839 H   0  0  0  0  0  0  0  0  0  0  0  0
    9.5433    0.2641   26.7120 H   0  0  0  0  0  0  0  0  0  0  0  0
    7.9197    0.8454   24.8595 H   0  0  0  0  0  0  0  0  0  0  0  0
    6.6614    1.4798   23.1181 H   0  0  0  0  0  0  0  0  0  0  0  0
    7.1035    3.0835   23.7683 H   0  0  0  0  0  0  0  0  0  0  0  0
    6.7618    2.8951   22.0287 H   0  0  0  0  0  0  0  0  0  0  0  0
  1  2  1  0
  2  3  1  0
  3  4  1  0
  4  5  1  0
  5  6  2  0
  6  7  1  0
  7  8  1  0
  8  9  1  0
  9 10  1  0
 10 11  1  0
 11 12  1  0
 12 13  1  0
 12 14  1  0
 11 15  1  0
 11 16  1  0
 10 17  1  0
 10 18  1  0
  9 19  1  0
  9 20  1  0
  8 21  1  0
  7 22  2  0
 22 23  1  0
 23 24  1  0
 24 25  2  0
 25 26  1  0
 26 27  2  0
 27 28  1  0
 28 29  2  0
 29 30  1  0
 27 31  1  0
 26 32  1  0
 25 33  1  0
  4 34  1  0
  4 35  1  0
  3 36  1  0
  3 37  1  0
  2 38  1  0
 38 39  2  0
 39 40  1  0
 40 41  2  0
 41 42  1  0
 42 43  2  0
 43 44  1  0
 42 45  1  0
 40 46  1  0
 39 47  1  0
  1 48  1  0
  1 49  1  0
  1 50  1  0
 23  5  1  0
 29 24  1  0
 43 38  1  0
 12  8  1  0
M  END
>  <cnnaffinity>  (1) 
-6.29864

>  <filename>  (1) 
CN(CCc1nc(C2CCCC2)nn1-c1cccnc1)c1ccncc1

$$$$
