
     RDKit          3D

 22 22  0  0  0  0  0  0  0  0999 V2000
    4.8075    1.2360   23.7171 H   0  0  0  0  0  0  0  0  0  0  0  0
    5.8103    1.0912   23.8729 N   0  0  0  0  0  0  0  0  0  0  0  0
    6.2160    0.0190   23.4923 N   0  0  0  0  0  4  0  0  0  0  0  0
    6.7345   -1.0512   23.2763 N   0  0  0  0  0  0  0  0  0  0  0  0
    6.6571   -1.5219   21.8672 C   0  0  0  0  0  0  0  0  0  0  0  0
    7.1096   -2.5200   21.8779 H   0  0  0  0  0  0  0  0  0  0  0  0
    5.6087   -1.6494   21.5717 H   0  0  0  0  0  0  0  0  0  0  0  0
    7.3535   -0.6831   20.9254 N   0  0  0  0  0  0  0  0  0  0  0  0
    6.6701    0.0006   19.9142 C   0  0  0  0  0  0  0  0  0  0  0  0
    7.1785    0.0772   18.5932 C   0  0  0  0  0  0  0  0  0  0  0  0
    8.1199   -0.4226   18.3675 H   0  0  0  0  0  0  0  0  0  0  0  0
    6.5593    0.6832   17.5787 N   0  0  0  0  0  0  0  0  0  0  0  0
    5.3963    1.2977   17.8365 C   0  0  0  0  0  0  0  0  0  0  0  0
    4.9111    1.7860   16.9920 H   0  0  0  0  0  0  0  0  0  0  0  0
    4.8095    1.3102   19.1064 C   0  0  0  0  0  0  0  0  0  0  0  0
    3.8777    1.8417   19.2577 H   0  0  0  0  0  0  0  0  0  0  0  0
    5.4394    0.6399   20.1573 C   0  0  0  0  0  0  0  0  0  0  0  0
    5.0195    0.6230   21.1659 H   0  0  0  0  0  0  0  0  0  0  0  0
    8.7877   -0.5045   21.0807 C   0  0  0  0  0  0  0  0  0  0  0  0
    9.1086   -0.9374   22.0326 H   0  0  0  0  0  0  0  0  0  0  0  0
    9.0511    0.5621   21.0901 H   0  0  0  0  0  0  0  0  0  0  0  0
    9.3630   -0.9740   20.2679 H   0  0  0  0  0  0  0  0  0  0  0  0
  1  2  1  0
  2  3  2  0
  3  4  2  0
  4  5  1  0
  5  6  1  0
  5  7  1  0
  5  8  1  0
  8  9  1  0
  9 10  2  0
 10 11  1  0
 10 12  1  0
 12 13  2  0
 13 14  1  0
 13 15  1  0
 15 16  1  0
 15 17  2  0
 17 18  1  0
  8 19  1  0
 19 20  1  0
 19 21  1  0
 19 22  1  0
 17  9  1  0
M  CHG  1   3   1
M  END
>  <cnnaffinity>  (1) 
-4.26976

>  <filename>  (1) 
CN(CN=[N+]=N)c1cccnc1

$$$$
