
     RDKit          3D

 27 27  0  0  0  0  0  0  0  0999 V2000
    4.9206    1.7810   17.0042 H   0  0  0  0  0  0  0  0  0  0  0  0
    5.4071    1.2868   17.8466 C   0  0  0  0  0  0  0  0  0  0  0  0
    6.5705    0.6690   17.5844 N   0  0  0  0  0  0  0  0  0  0  0  0
    7.1882    0.0526   18.5973 C   0  0  0  0  0  0  0  0  0  0  0  0
    8.1321   -0.4292   18.3656 H   0  0  0  0  0  0  0  0  0  0  0  0
    6.6938   -0.0097   19.9165 C   0  0  0  0  0  0  0  0  0  0  0  0
    7.3237   -0.6902   21.0133 N   0  0  0  0  0  0  0  0  0  0  0  0
    8.4069   -1.2469   20.7334 N   0  0  0  0  0  0  0  0  0  0  0  0
    9.0225   -1.9213   21.8822 C   0  0  0  0  0  0  0  0  0  0  0  0
   10.0162   -2.2319   21.5631 H   0  0  0  0  0  0  0  0  0  0  0  0
    9.1540   -1.2341   22.7249 H   0  0  0  0  0  0  0  0  0  0  0  0
    8.2576   -3.1709   22.3107 C   0  0  0  0  0  0  0  0  0  0  0  0
    7.2591   -2.8620   22.6611 H   0  0  0  0  0  0  0  0  0  0  0  0
    8.0896   -3.7655   21.4069 H   0  0  0  0  0  0  0  0  0  0  0  0
    8.9679   -3.9852   23.3042 N   0  0  0  0  0  0  0  0  0  0  0  0
    8.5073   -5.3704   23.2877 C   0  0  0  0  0  0  0  0  0  0  0  0
    7.4263   -5.4742   23.5065 H   0  0  0  0  0  0  0  0  0  0  0  0
    8.6973   -5.8227   22.3092 H   0  0  0  0  0  0  0  0  0  0  0  0
    9.0523   -5.9652   24.0296 H   0  0  0  0  0  0  0  0  0  0  0  0
    8.8380   -3.4391   24.6517 C   0  0  0  0  0  0  0  0  0  0  0  0
    7.7862   -3.4046   24.9958 H   0  0  0  0  0  0  0  0  0  0  0  0
    9.4035   -4.0467   25.3663 H   0  0  0  0  0  0  0  0  0  0  0  0
    9.2392   -2.4238   24.7018 H   0  0  0  0  0  0  0  0  0  0  0  0
    5.4722    0.6308   20.1753 C   0  0  0  0  0  0  0  0  0  0  0  0
    5.0492    0.6067   21.1793 H   0  0  0  0  0  0  0  0  0  0  0  0
    4.8283    1.2920   19.1219 C   0  0  0  0  0  0  0  0  0  0  0  0
    3.8946    1.8257   19.2698 H   0  0  0  0  0  0  0  0  0  0  0  0
  1  2  1  0
  2  3  2  0
  3  4  1  0
  4  5  1  0
  4  6  2  0
  6  7  1  0
  7  8  2  3
  8  9  1  0
  9 10  1  0
  9 11  1  0
  9 12  1  0
 12 13  1  0
 12 14  1  0
 12 15  1  0
 15 16  1  0
 16 17  1  0
 16 18  1  0
 16 19  1  0
 15 20  1  0
 20 21  1  0
 20 22  1  0
 20 23  1  0
  6 24  1  0
 24 25  1  0
 24 26  2  0
 26 27  1  0
 26  2  1  0
M  END
>  <cnnaffinity>  (1) 
-4.01316

>  <filename>  (1) 
CN(C)CCN=Nc1cccnc1

$$$$
