
     RDKit          3D

 37 38  0  0  0  0  0  0  0  0999 V2000
    4.9380    1.7829   17.0092 H   0  0  0  0  0  0  0  0  0  0  0  0
    5.4106    1.2805   17.8504 C   0  0  0  0  0  0  0  0  0  0  0  0
    6.5738    0.6640   17.5905 N   0  0  0  0  0  0  0  0  0  0  0  0
    7.1981    0.0584   18.6068 C   0  0  0  0  0  0  0  0  0  0  0  0
    8.1419   -0.4255   18.3619 H   0  0  0  0  0  0  0  0  0  0  0  0
    6.6946    0.0016   19.9286 C   0  0  0  0  0  0  0  0  0  0  0  0
    7.4055   -0.6414   20.9754 N   0  0  0  0  0  0  0  0  0  0  0  0
    6.8546   -1.5167   21.9125 C   0  0  0  0  0  0  0  0  0  0  0  0
    5.7934   -2.0899   21.8637 O   0  0  0  0  0  0  0  0  0  0  0  0
    7.8140   -1.7079   22.8988 N   0  0  0  0  0  0  0  0  0  0  0  0
    7.5374   -2.2599   24.2250 C   0  0  0  0  0  0  0  0  0  0  0  0
    6.8464   -3.1013   24.1033 H   0  0  0  0  0  0  0  0  0  0  0  0
    8.4888   -2.6383   24.6166 H   0  0  0  0  0  0  0  0  0  0  0  0
    6.9380   -1.2253   25.1872 C   0  0  0  0  0  0  0  0  0  0  0  0
    5.9536   -0.9063   24.8181 H   0  0  0  0  0  0  0  0  0  0  0  0
    6.7581   -1.7124   26.1559 H   0  0  0  0  0  0  0  0  0  0  0  0
    7.8108    0.0180   25.3876 C   0  0  0  0  0  0  0  0  0  0  0  0
    7.8825    0.5416   24.4237 H   0  0  0  0  0  0  0  0  0  0  0  0
    7.3111    0.7196   26.0885 H   0  0  0  0  0  0  0  0  0  0  0  0
    9.1622   -0.3000   25.8404 N   0  0  0  0  0  0  0  0  0  0  0  0
   10.0917    0.7810   25.5405 C   0  0  0  0  0  0  0  0  0  0  0  0
    9.8376    1.7288   26.0571 H   0  0  0  0  0  0  0  0  0  0  0  0
   10.1062    0.9656   24.4601 H   0  0  0  0  0  0  0  0  0  0  0  0
   11.1039    0.4892   25.8408 H   0  0  0  0  0  0  0  0  0  0  0  0
    9.2223   -0.6606   27.2518 C   0  0  0  0  0  0  0  0  0  0  0  0
   10.2599   -0.8873   27.5201 H   0  0  0  0  0  0  0  0  0  0  0  0
    8.6250   -1.5576   27.4531 H   0  0  0  0  0  0  0  0  0  0  0  0
    8.8613    0.1522   27.9129 H   0  0  0  0  0  0  0  0  0  0  0  0
    9.0473   -1.3060   22.4603 C   0  0  0  0  0  0  0  0  0  0  0  0
   10.1034   -1.5117   23.0133 O   0  0  0  0  0  0  0  0  0  0  0  0
    8.8501   -0.6063   21.1357 C   0  0  0  0  0  0  0  0  0  0  0  0
    9.3893   -1.1725   20.3624 H   0  0  0  0  0  0  0  0  0  0  0  0
    9.2729    0.4049   21.1794 H   0  0  0  0  0  0  0  0  0  0  0  0
    5.4585    0.6262   20.1761 C   0  0  0  0  0  0  0  0  0  0  0  0
    5.0238    0.5864   21.1742 H   0  0  0  0  0  0  0  0  0  0  0  0
    4.8216    1.2896   19.1194 C   0  0  0  0  0  0  0  0  0  0  0  0
    3.8896    1.8252   19.2654 H   0  0  0  0  0  0  0  0  0  0  0  0
  1  2  1  0
  2  3  2  0
  3  4  1  0
  4  5  1  0
  4  6  2  0
  6  7  1  0
  7  8  1  0
  8  9  2  0
  8 10  1  0
 10 11  1  0
 11 12  1  0
 11 13  1  0
 11 14  1  0
 14 15  1  0
 14 16  1  0
 14 17  1  0
 17 18  1  0
 17 19  1  0
 17 20  1  0
 20 21  1  0
 21 22  1  0
 21 23  1  0
 21 24  1  0
 20 25  1  0
 25 26  1  0
 25 27  1  0
 25 28  1  0
 10 29  1  0
 29 30  2  0
 29 31  1  0
 31 32  1  0
 31 33  1  0
  6 34  1  0
 34 35  1  0
 34 36  2  0
 36 37  1  0
 36  2  1  0
 31  7  1  0
M  END
>  <cnnaffinity>  (1) 
-4.77776

>  <filename>  (1) 
CN(C)CCCN1C(=O)CN(c2cccnc2)C1=O

$$$$
