
     RDKit          3D

 29 30  0  0  0  0  0  0  0  0999 V2000
    5.0098    1.6751   17.0679 H   0  0  0  0  0  0  0  0  0  0  0  0
    5.4809    1.2355   17.9453 C   0  0  0  0  0  0  0  0  0  0  0  0
    6.6536    0.6203   17.7367 N   0  0  0  0  0  0  0  0  0  0  0  0
    7.2533    0.0663   18.7841 C   0  0  0  0  0  0  0  0  0  0  0  0
    8.2030   -0.4221   18.5796 H   0  0  0  0  0  0  0  0  0  0  0  0
    6.7134    0.1183   20.0635 C   0  0  0  0  0  0  0  0  0  0  0  0
    7.7551   -0.7695   21.1465 S   0  0  0  0  0  0  0  0  0  0  0  0
    9.1165   -0.3316   20.9001 O   0  0  0  0  0  0  0  0  0  0  0  0
    7.4079   -2.1727   21.0190 O   0  0  0  0  0  0  0  0  0  0  0  0
    7.2487   -0.2607   22.6404 N   0  0  0  0  0  0  0  0  0  0  0  0
    7.8197    0.9034   23.2135 C   0  0  0  0  0  0  0  0  0  0  0  0
    8.2085    2.0238   22.4539 C   0  0  0  0  0  0  0  0  0  0  0  0
    8.1232    2.0234   21.3734 H   0  0  0  0  0  0  0  0  0  0  0  0
    8.7141    3.1640   23.0939 C   0  0  0  0  0  0  0  0  0  0  0  0
    8.9900    4.0382   22.5060 H   0  0  0  0  0  0  0  0  0  0  0  0
    8.8493    3.2092   24.4877 C   0  0  0  0  0  0  0  0  0  0  0  0
    9.2248    4.0780   25.0151 H   0  0  0  0  0  0  0  0  0  0  0  0
    8.4615    2.0911   25.2121 C   0  0  0  0  0  0  0  0  0  0  0  0
    8.5308    2.1128   26.5545 F   0  0  0  0  0  0  0  0  0  0  0  0
    7.9636    0.9501   24.6073 C   0  0  0  0  0  0  0  0  0  0  0  0
    7.6849    0.1149   25.2307 H   0  0  0  0  0  0  0  0  0  0  0  0
    6.6287   -1.2763   23.5022 C   0  0  0  0  0  0  0  0  0  0  0  0
    5.9042   -0.7598   24.1446 H   0  0  0  0  0  0  0  0  0  0  0  0
    6.1297   -2.0301   22.8901 H   0  0  0  0  0  0  0  0  0  0  0  0
    7.3726   -1.7858   24.1278 H   0  0  0  0  0  0  0  0  0  0  0  0
    5.4861    0.7431   20.3092 C   0  0  0  0  0  0  0  0  0  0  0  0
    5.0270    0.8137   21.3009 H   0  0  0  0  0  0  0  0  0  0  0  0
    4.8602    1.3089   19.1969 C   0  0  0  0  0  0  0  0  0  0  0  0
    3.9076    1.8187   19.2783 H   0  0  0  0  0  0  0  0  0  0  0  0
  1  2  1  0
  2  3  2  0
  3  4  1  0
  4  5  1  0
  4  6  2  0
  6  7  1  0
  7  8  2  0
  7  9  2  0
  7 10  1  0
 10 11  1  0
 11 12  2  0
 12 13  1  0
 12 14  1  0
 14 15  1  0
 14 16  2  0
 16 17  1  0
 16 18  1  0
 18 19  1  0
 18 20  2  0
 20 21  1  0
 10 22  1  0
 22 23  1  0
 22 24  1  0
 22 25  1  0
  6 26  1  0
 26 27  1  0
 26 28  2  0
 28 29  1  0
 28  2  1  0
 20 11  1  0
M  END
>  <cnnaffinity>  (1) 
-4.53441

>  <filename>  (1) 
CN(c1cccc(F)c1)S(=O)(=O)c1cccnc1

$$$$
