
     RDKit          3D

 34 35  0  0  0  0  0  0  0  0999 V2000
    5.1034    1.6789   16.9085 H   0  0  0  0  0  0  0  0  0  0  0  0
    5.4234    1.1092   17.7816 C   0  0  0  0  0  0  0  0  0  0  0  0
    6.4435    0.2575   17.5997 N   0  0  0  0  0  0  0  0  0  0  0  0
    6.8979   -0.3957   18.6776 C   0  0  0  0  0  0  0  0  0  0  0  0
    7.7233   -1.0836   18.4755 H   0  0  0  0  0  0  0  0  0  0  0  0
    6.4186   -0.1991   19.9849 C   0  0  0  0  0  0  0  0  0  0  0  0
    7.1904   -0.8073   21.1238 C   0  0  0  0  0  0  0  0  0  0  0  0
    6.6810   -2.1892   21.2341 N   0  0  0  0  0  0  0  0  0  0  0  0
    5.9405   -2.2227   21.9371 H   0  0  0  0  0  0  0  0  0  0  0  0
    7.6267   -3.2993   22.0017 S   0  0  0  0  0  0  0  0  0  0  0  0
    7.7884   -2.8889   23.3829 O   0  0  0  0  0  0  0  0  0  0  0  0
    8.7494   -3.6872   21.1815 O   0  0  0  0  0  0  0  0  0  0  0  0
    6.4507   -4.4831   21.9685 N   0  0  0  0  0  0  0  0  0  0  0  0
    6.0928   -4.8924   20.5977 C   0  0  0  0  0  0  0  0  0  0  0  0
    5.2838   -5.6303   20.6380 H   0  0  0  0  0  0  0  0  0  0  0  0
    6.9344   -5.3342   20.0454 H   0  0  0  0  0  0  0  0  0  0  0  0
    5.7063   -4.0298   20.0427 H   0  0  0  0  0  0  0  0  0  0  0  0
    6.8106   -5.6025   22.8616 C   0  0  0  0  0  0  0  0  0  0  0  0
    7.0048   -5.2368   23.8771 H   0  0  0  0  0  0  0  0  0  0  0  0
    5.9643   -6.2962   22.9295 H   0  0  0  0  0  0  0  0  0  0  0  0
    7.6799   -6.1846   22.5157 H   0  0  0  0  0  0  0  0  0  0  0  0
    7.2425   -0.0527   22.4836 C   0  0  0  0  0  0  0  0  0  0  0  0
    6.8466    0.9630   22.4002 H   0  0  0  0  0  0  0  0  0  0  0  0
    6.7658   -0.5571   23.3224 H   0  0  0  0  0  0  0  0  0  0  0  0
    8.7940   -0.0887   22.4883 C   0  0  0  0  0  0  0  0  0  0  0  0
    9.2134   -0.8151   23.1928 H   0  0  0  0  0  0  0  0  0  0  0  0
    9.2986    0.8775   22.6275 H   0  0  0  0  0  0  0  0  0  0  0  0
    8.7374   -0.6006   21.0288 C   0  0  0  0  0  0  0  0  0  0  0  0
    9.3229   -1.4799   20.7610 H   0  0  0  0  0  0  0  0  0  0  0  0
    8.9721    0.2050   20.3267 H   0  0  0  0  0  0  0  0  0  0  0  0
    5.2644    0.5864   20.1275 C   0  0  0  0  0  0  0  0  0  0  0  0
    4.7698    0.6775   21.0963 H   0  0  0  0  0  0  0  0  0  0  0  0
    4.7780    1.2676   19.0117 C   0  0  0  0  0  0  0  0  0  0  0  0
    3.9325    1.9382   19.0945 H   0  0  0  0  0  0  0  0  0  0  0  0
  1  2  1  0
  2  3  2  0
  3  4  1  0
  4  5  1  0
  4  6  2  0
  6  7  1  0
  7  8  1  0
  8  9  1  0
  8 10  1  0
 10 11  2  0
 10 12  2  0
 10 13  1  0
 13 14  1  0
 14 15  1  0
 14 16  1  0
 14 17  1  0
 13 18  1  0
 18 19  1  0
 18 20  1  0
 18 21  1  0
  7 22  1  0
 22 23  1  0
 22 24  1  0
 22 25  1  0
 25 26  1  0
 25 27  1  0
 25 28  1  0
 28 29  1  0
 28 30  1  0
  6 31  1  0
 31 32  1  0
 31 33  2  0
 33 34  1  0
 33  2  1  0
 28  7  1  0
M  END
>  <cnnaffinity>  (1) 
-4.72342

>  <filename>  (1) 
CN(C)S(=O)(=O)NC1(c2cccnc2)CCC1

$$$$
