
     RDKit          3D

 35 37  0  0  0  0  0  0  0  0999 V2000
    6.8924    0.0103   25.0943 C   0  0  0  0  0  0  0  0  0  0  0  0
    7.7913   -0.9828   24.5204 N   0  0  0  0  0  0  0  0  0  0  0  0
    8.5025   -1.9177   25.3916 C   0  0  0  0  0  0  0  0  0  0  0  0
    7.8579   -3.2898   25.4955 C   0  0  0  0  0  0  0  0  0  0  0  0
    8.5183   -4.4301   25.0152 C   0  0  0  0  0  0  0  0  0  0  0  0
    7.8970   -5.6809   25.0589 C   0  0  0  0  0  0  0  0  0  0  0  0
    6.6171   -5.8194   25.6035 C   0  0  0  0  0  0  0  0  0  0  0  0
    5.9849   -4.6816   26.0958 C   0  0  0  0  0  0  0  0  0  0  0  0
    4.7543   -4.8023   26.6210 F   0  0  0  0  0  0  0  0  0  0  0  0
    6.5794   -3.4246   26.0599 C   0  0  0  0  0  0  0  0  0  0  0  0
    6.0270   -2.5733   26.4529 H   0  0  0  0  0  0  0  0  0  0  0  0
    6.1041   -6.7746   25.6674 H   0  0  0  0  0  0  0  0  0  0  0  0
    8.4196   -6.5486   24.6680 H   0  0  0  0  0  0  0  0  0  0  0  0
    9.5099   -4.3340   24.5759 H   0  0  0  0  0  0  0  0  0  0  0  0
    9.5451   -2.0080   25.0736 H   0  0  0  0  0  0  0  0  0  0  0  0
    8.5362   -1.4758   26.3914 H   0  0  0  0  0  0  0  0  0  0  0  0
    7.8181   -1.1172   23.1605 C   0  0  0  0  0  0  0  0  0  0  0  0
    7.1011   -0.3864   22.3587 N   0  0  0  0  0  0  0  0  0  0  0  0
    7.3723   -0.6866   21.0413 C   0  0  0  0  0  0  0  0  0  0  0  0
    6.6577    0.0109   19.9456 C   0  0  0  0  0  0  0  0  0  0  0  0
    5.4299    0.6577   20.1702 C   0  0  0  0  0  0  0  0  0  0  0  0
    4.8058    1.3061   19.1077 C   0  0  0  0  0  0  0  0  0  0  0  0
    5.4071    1.2854   17.8463 C   0  0  0  0  0  0  0  0  0  0  0  0
    6.5714    0.6642   17.6061 N   0  0  0  0  0  0  0  0  0  0  0  0
    7.1704    0.0533   18.6340 C   0  0  0  0  0  0  0  0  0  0  0  0
    8.1178   -0.4153   18.3718 H   0  0  0  0  0  0  0  0  0  0  0  0
    4.9316    1.7754   16.9979 H   0  0  0  0  0  0  0  0  0  0  0  0
    3.8759    1.8409   19.2539 H   0  0  0  0  0  0  0  0  0  0  0  0
    4.9990    0.6417   21.1732 H   0  0  0  0  0  0  0  0  0  0  0  0
    8.2996   -1.6547   20.8505 C   0  0  0  0  0  0  0  0  0  0  0  0
    8.8772   -2.2667   22.3582 S   0  0  0  0  0  0  0  0  0  0  0  0
    8.6850   -1.9887   19.9138 H   0  0  0  0  0  0  0  0  0  0  0  0
    6.9286   -0.0451   26.1877 H   0  0  0  0  0  0  0  0  0  0  0  0
    5.8524   -0.1367   24.7748 H   0  0  0  0  0  0  0  0  0  0  0  0
    7.1970    1.0214   24.8023 H   0  0  0  0  0  0  0  0  0  0  0  0
  1  2  1  0
  2  3  1  0
  3  4  1  0
  4  5  2  0
  5  6  1  0
  6  7  2  0
  7  8  1  0
  8  9  1  0
  8 10  2  0
 10 11  1  0
  7 12  1  0
  6 13  1  0
  5 14  1  0
  3 15  1  0
  3 16  1  0
  2 17  1  0
 17 18  2  0
 18 19  1  0
 19 20  1  0
 20 21  2  0
 21 22  1  0
 22 23  2  0
 23 24  1  0
 24 25  2  0
 25 26  1  0
 23 27  1  0
 22 28  1  0
 21 29  1  0
 19 30  2  0
 30 31  1  0
 30 32  1  0
  1 33  1  0
  1 34  1  0
  1 35  1  0
 10  4  1  0
 31 17  1  0
 25 20  1  0
M  END
>  <cnnaffinity>  (1) 
-5.29243

>  <filename>  (1) 
CN(Cc1cccc(F)c1)c1nc(-c2cccnc2)cs1

$$$$
