
     RDKit          3D

 35 37  0  0  0  0  0  0  0  0999 V2000
    4.9131    1.8096   16.9747 H   0  0  0  0  0  0  0  0  0  0  0  0
    5.3776    1.3031   17.8213 C   0  0  0  0  0  0  0  0  0  0  0  0
    6.5403    0.6828   17.5678 N   0  0  0  0  0  0  0  0  0  0  0  0
    7.1531    0.0759   18.5869 C   0  0  0  0  0  0  0  0  0  0  0  0
    8.1030   -0.3939   18.3388 H   0  0  0  0  0  0  0  0  0  0  0  0
    6.6625    0.0323   19.9126 C   0  0  0  0  0  0  0  0  0  0  0  0
    7.4177   -0.6592   20.9737 C   0  0  0  0  0  0  0  0  0  0  0  0
    8.3371   -1.6812   20.9336 C   0  0  0  0  0  0  0  0  0  0  0  0
    8.7374   -2.1136   20.0352 H   0  0  0  0  0  0  0  0  0  0  0  0
    8.7884   -2.0699   22.1651 N   0  0  0  0  0  0  0  0  0  0  0  0
    8.1613   -1.2495   22.9675 C   0  0  0  0  0  0  0  0  0  0  0  0
    8.2229   -0.8821   24.6558 S   0  0  0  0  0  0  0  0  0  0  0  0
    7.1096    0.4085   24.2879 C   0  0  0  0  0  0  0  0  0  0  0  0
    6.7514    1.1631   25.3114 O   0  0  0  0  0  0  0  0  0  0  0  0
    5.8483    2.2673   25.0946 C   0  0  0  0  0  0  0  0  0  0  0  0
    5.0054    1.9664   24.4575 H   0  0  0  0  0  0  0  0  0  0  0  0
    5.4944    2.4654   26.1099 H   0  0  0  0  0  0  0  0  0  0  0  0
    6.5771    3.4805   24.4986 C   0  0  0  0  0  0  0  0  0  0  0  0
    7.3869    3.7903   25.1898 H   0  0  0  0  0  0  0  0  0  0  0  0
    7.0611    3.1402   23.5700 H   0  0  0  0  0  0  0  0  0  0  0  0
    5.6592    4.5805   24.1967 N   0  0  0  0  0  0  0  0  0  0  0  0
    5.3387    5.3986   25.3611 C   0  0  0  0  0  0  0  0  0  0  0  0
    6.2284    5.9129   25.7781 H   0  0  0  0  0  0  0  0  0  0  0  0
    4.8893    4.7927   26.1575 H   0  0  0  0  0  0  0  0  0  0  0  0
    4.6064    6.1643   25.0750 H   0  0  0  0  0  0  0  0  0  0  0  0
    6.1588    5.4086   23.1046 C   0  0  0  0  0  0  0  0  0  0  0  0
    6.2806    4.7960   22.2025 H   0  0  0  0  0  0  0  0  0  0  0  0
    7.1311    5.8902   23.3334 H   0  0  0  0  0  0  0  0  0  0  0  0
    5.4357    6.1991   22.8750 H   0  0  0  0  0  0  0  0  0  0  0  0
    6.7139    0.5778   23.0651 N   0  0  0  0  0  0  0  0  0  0  0  0
    7.3202   -0.3912   22.3279 N   0  0  0  0  0  0  0  0  0  0  0  0
    5.4308    0.6710   20.1498 C   0  0  0  0  0  0  0  0  0  0  0  0
    5.0160    0.6597   21.1560 H   0  0  0  0  0  0  0  0  0  0  0  0
    4.7884    1.3153   19.0897 C   0  0  0  0  0  0  0  0  0  0  0  0
    3.8558    1.8490   19.2316 H   0  0  0  0  0  0  0  0  0  0  0  0
  1  2  1  0
  2  3  2  0
  3  4  1  0
  4  5  1  0
  4  6  2  0
  6  7  1  0
  7  8  2  0
  8  9  1  0
  8 10  1  0
 10 11  2  0
 11 12  1  0
 12 13  1  0
 13 14  1  0
 14 15  1  0
 15 16  1  0
 15 17  1  0
 15 18  1  0
 18 19  1  0
 18 20  1  0
 18 21  1  0
 21 22  1  0
 22 23  1  0
 22 24  1  0
 22 25  1  0
 21 26  1  0
 26 27  1  0
 26 28  1  0
 26 29  1  0
 13 30  2  0
 30 31  1  0
  6 32  1  0
 32 33  1  0
 32 34  2  0
 34 35  1  0
 34  2  1  0
 31  7  1  0
 31 11  1  0
M  END
>  <cnnaffinity>  (1) 
-4.6904

>  <filename>  (1) 
CN(C)CCOc1nn2c(-c3cccnc3)cnc2s1

$$$$
