
     RDKit          3D

 38 39  0  0  0  0  0  0  0  0999 V2000
    4.9511    1.7681   17.0111 H   0  0  0  0  0  0  0  0  0  0  0  0
    5.4203    1.2780   17.8610 C   0  0  0  0  0  0  0  0  0  0  0  0
    6.5817    0.6549   17.6177 N   0  0  0  0  0  0  0  0  0  0  0  0
    7.1820    0.0252   18.6263 C   0  0  0  0  0  0  0  0  0  0  0  0
    8.1295   -0.4576   18.3905 H   0  0  0  0  0  0  0  0  0  0  0  0
    6.6276    0.0039   19.8978 C   0  0  0  0  0  0  0  0  0  0  0  0
    7.4646   -0.9091   21.1316 S   0  0  0  0  0  0  0  0  0  0  0  0
    6.4194   -1.4201   22.0106 O   0  0  0  0  0  0  0  0  0  0  0  0
    8.3709   -1.8267   20.4401 O   0  0  0  0  0  0  0  0  0  0  0  0
    8.5790    0.3346   22.1298 C   0  0  0  0  0  0  0  0  0  0  0  0
    9.4217   -0.3698   23.1082 N   0  0  0  0  0  0  0  0  0  0  0  0
   10.8372   -0.4954   22.9870 C   0  0  0  0  0  0  0  0  0  0  0  0
   11.4339   -1.4999   22.2094 C   0  0  0  0  0  0  0  0  0  0  0  0
   10.7932   -2.2112   21.6899 H   0  0  0  0  0  0  0  0  0  0  0  0
   12.8321   -1.5377   22.0894 C   0  0  0  0  0  0  0  0  0  0  0  0
   13.3086   -2.3203   21.5038 H   0  0  0  0  0  0  0  0  0  0  0  0
   13.6242   -0.5859   22.7457 C   0  0  0  0  0  0  0  0  0  0  0  0
   14.7075   -0.6369   22.6805 H   0  0  0  0  0  0  0  0  0  0  0  0
   13.0249    0.4039   23.5335 C   0  0  0  0  0  0  0  0  0  0  0  0
   13.6276    1.1410   24.0562 H   0  0  0  0  0  0  0  0  0  0  0  0
   11.6355    0.4426   23.6524 C   0  0  0  0  0  0  0  0  0  0  0  0
   11.1206    1.2108   24.2233 H   0  0  0  0  0  0  0  0  0  0  0  0
    8.8401   -1.1802   24.1661 C   0  0  0  0  0  0  0  0  0  0  0  0
    7.7469   -1.1014   24.1567 H   0  0  0  0  0  0  0  0  0  0  0  0
    9.2308   -0.8644   25.1430 H   0  0  0  0  0  0  0  0  0  0  0  0
    9.0863   -2.2449   24.0340 H   0  0  0  0  0  0  0  0  0  0  0  0
    7.6663    1.3327   22.8707 C   0  0  0  0  0  0  0  0  0  0  0  0
    8.2937    1.9652   23.5113 H   0  0  0  0  0  0  0  0  0  0  0  0
    6.9244    0.8292   23.4948 H   0  0  0  0  0  0  0  0  0  0  0  0
    7.1500    1.9962   22.1670 H   0  0  0  0  0  0  0  0  0  0  0  0
    9.4299    1.0993   21.1043 C   0  0  0  0  0  0  0  0  0  0  0  0
   10.1057    1.7924   21.6199 H   0  0  0  0  0  0  0  0  0  0  0  0
   10.0349    0.4095   20.5130 H   0  0  0  0  0  0  0  0  0  0  0  0
    8.7882    1.6928   20.4488 H   0  0  0  0  0  0  0  0  0  0  0  0
    5.4279    0.6536   20.1815 C   0  0  0  0  0  0  0  0  0  0  0  0
    4.9777    0.6377   21.1786 H   0  0  0  0  0  0  0  0  0  0  0  0
    4.8164    1.3081   19.1216 C   0  0  0  0  0  0  0  0  0  0  0  0
    3.8845    1.8375   19.2557 H   0  0  0  0  0  0  0  0  0  0  0  0
  1  2  1  0
  2  3  2  0
  3  4  1  0
  4  5  1  0
  4  6  2  0
  6  7  1  0
  7  8  2  0
  7  9  2  0
  7 10  1  0
 10 11  1  0
 11 12  1  0
 12 13  2  0
 13 14  1  0
 13 15  1  0
 15 16  1  0
 15 17  2  0
 17 18  1  0
 17 19  1  0
 19 20  1  0
 19 21  2  0
 21 22  1  0
 11 23  1  0
 23 24  1  0
 23 25  1  0
 23 26  1  0
 10 27  1  0
 27 28  1  0
 27 29  1  0
 27 30  1  0
 10 31  1  0
 31 32  1  0
 31 33  1  0
 31 34  1  0
  6 35  1  0
 35 36  1  0
 35 37  2  0
 37 38  1  0
 37  2  1  0
 21 12  1  0
M  END
>  <cnnaffinity>  (1) 
-4.83111

>  <filename>  (1) 
CN(c1ccccc1)C(C)(C)S(=O)(=O)c1cccnc1

$$$$
