
     RDKit          3D

 36 38  0  0  0  0  0  0  0  0999 V2000
    4.9179    1.7955   16.9828 H   0  0  0  0  0  0  0  0  0  0  0  0
    5.3947    1.3021   17.8257 C   0  0  0  0  0  0  0  0  0  0  0  0
    6.5588    0.6871   17.5621 N   0  0  0  0  0  0  0  0  0  0  0  0
    7.1808    0.0790   18.5794 C   0  0  0  0  0  0  0  0  0  0  0  0
    8.1232   -0.4207   18.3495 H   0  0  0  0  0  0  0  0  0  0  0  0
    6.6634    0.0264   19.8889 C   0  0  0  0  0  0  0  0  0  0  0  0
    7.3573   -0.6766   20.9387 N   0  0  0  0  0  0  0  0  0  0  0  0
    8.6474   -0.2832   21.2812 C   0  0  0  0  0  0  0  0  0  0  0  0
    9.0605    0.5479   20.7154 H   0  0  0  0  0  0  0  0  0  0  0  0
    9.3698   -0.8661   22.2739 C   0  0  0  0  0  0  0  0  0  0  0  0
   10.6798   -0.4070   22.5549 N   0  0  0  0  0  0  0  0  0  0  0  0
   10.9020    0.9242   22.9589 C   0  0  0  0  0  0  0  0  0  0  0  0
    9.9308    1.6258   23.7027 C   0  0  0  0  0  0  0  0  0  0  0  0
    9.0080    1.1171   23.9673 H   0  0  0  0  0  0  0  0  0  0  0  0
   10.1496    2.9553   24.0742 C   0  0  0  0  0  0  0  0  0  0  0  0
    9.3775    3.4907   24.6238 H   0  0  0  0  0  0  0  0  0  0  0  0
   11.3421    3.5993   23.7241 C   0  0  0  0  0  0  0  0  0  0  0  0
   11.5024    4.6378   24.0019 H   0  0  0  0  0  0  0  0  0  0  0  0
   12.3211    2.9038   23.0068 C   0  0  0  0  0  0  0  0  0  0  0  0
   13.2552    3.3887   22.7285 H   0  0  0  0  0  0  0  0  0  0  0  0
   12.1074    1.5736   22.6352 C   0  0  0  0  0  0  0  0  0  0  0  0
   12.8586    1.0220   22.0812 H   0  0  0  0  0  0  0  0  0  0  0  0
   11.7921   -1.3099   22.2965 C   0  0  0  0  0  0  0  0  0  0  0  0
   11.4310   -2.3313   22.4553 H   0  0  0  0  0  0  0  0  0  0  0  0
   12.1950   -1.2261   21.2727 H   0  0  0  0  0  0  0  0  0  0  0  0
   12.6085   -1.0985   22.9933 H   0  0  0  0  0  0  0  0  0  0  0  0
    8.7389   -2.0050   23.0179 C   0  0  0  0  0  0  0  0  0  0  0  0
    9.1755   -2.6963   23.9192 O   0  0  0  0  0  0  0  0  0  0  0  0
    7.4719   -2.3001   22.5967 N   0  0  0  0  0  0  0  0  0  0  0  0
    7.0214   -3.0429   23.0885 H   0  0  0  0  0  0  0  0  0  0  0  0
    6.7259   -1.7447   21.6145 C   0  0  0  0  0  0  0  0  0  0  0  0
    5.6312   -2.1953   21.3763 O   0  0  0  0  0  0  0  0  0  0  0  0
    5.4441    0.6568   20.1496 C   0  0  0  0  0  0  0  0  0  0  0  0
    5.0190    0.6098   21.1513 H   0  0  0  0  0  0  0  0  0  0  0  0
    4.8079    1.3189   19.0956 C   0  0  0  0  0  0  0  0  0  0  0  0
    3.8735    1.8434   19.2476 H   0  0  0  0  0  0  0  0  0  0  0  0
  1  2  1  0
  2  3  2  0
  3  4  1  0
  4  5  1  0
  4  6  2  0
  6  7  1  0
  7  8  1  0
  8  9  1  0
  8 10  2  0
 10 11  1  0
 11 12  1  0
 12 13  2  0
 13 14  1  0
 13 15  1  0
 15 16  1  0
 15 17  2  0
 17 18  1  0
 17 19  1  0
 19 20  1  0
 19 21  2  0
 21 22  1  0
 11 23  1  0
 23 24  1  0
 23 25  1  0
 23 26  1  0
 10 27  1  0
 27 28  2  0
 27 29  1  0
 29 30  1  0
 29 31  1  0
 31 32  2  0
  6 33  1  0
 33 34  1  0
 33 35  2  0
 35 36  1  0
 35  2  1  0
 31  7  1  0
 21 12  1  0
M  END
>  <cnnaffinity>  (1) 
-5.57619

>  <filename>  (1) 
CN(c1ccccc1)c1cn(-c2cccnc2)c(=O)[nH]c1=O

$$$$
