
     RDKit          3D

 31 32  0  0  0  0  0  0  0  0999 V2000
    4.9630    1.8928   16.8610 H   0  0  0  0  0  0  0  0  0  0  0  0
    5.3940    1.3853   17.7220 C   0  0  0  0  0  0  0  0  0  0  0  0
    6.5821    0.7997   17.5184 N   0  0  0  0  0  0  0  0  0  0  0  0
    7.1565    0.1987   18.5648 C   0  0  0  0  0  0  0  0  0  0  0  0
    8.1481   -0.2139   18.3872 H   0  0  0  0  0  0  0  0  0  0  0  0
    6.5664    0.0806   19.8352 C   0  0  0  0  0  0  0  0  0  0  0  0
    7.3050   -0.6237   20.9526 C   0  0  1  0  0  0  0  0  0  0  0  0
    6.7960   -0.4287   21.9102 H   0  0  0  0  0  0  0  0  0  0  0  0
    7.5056   -2.1899   20.9272 C   0  0  0  0  0  0  0  0  0  0  0  0
    6.7221   -3.0992   20.8797 O   0  0  0  0  0  0  0  0  0  0  0  0
    8.8588   -2.3534   21.0683 N   0  0  0  0  0  0  0  0  0  0  0  0
    9.2920   -3.2291   21.2821 H   0  0  0  0  0  0  0  0  0  0  0  0
    9.5793   -1.2036   21.1935 C   0  0  0  0  0  0  0  0  0  0  0  0
   10.7546   -1.1728   21.4338 O   0  0  0  0  0  0  0  0  0  0  0  0
    8.7181   -0.1714   21.0031 N   0  0  0  0  0  0  0  0  0  0  0  0
    9.2935    1.2687   21.5673 S   0  0  0  0  0  0  0  0  0  0  0  0
   10.5342    1.5520   20.8963 O   0  0  0  0  0  0  0  0  0  0  0  0
    8.1630    2.1664   21.5294 O   0  0  0  0  0  0  0  0  0  0  0  0
    9.6030    0.9179   23.1475 N   0  0  0  0  0  0  0  0  0  0  0  0
    8.4920    0.9702   24.0867 C   0  0  0  0  0  0  0  0  0  0  0  0
    7.7713    1.7321   23.7696 H   0  0  0  0  0  0  0  0  0  0  0  0
    7.9777    0.0035   24.1936 H   0  0  0  0  0  0  0  0  0  0  0  0
    8.8674    1.2617   25.0736 H   0  0  0  0  0  0  0  0  0  0  0  0
   10.9280    0.5082   23.5949 C   0  0  0  0  0  0  0  0  0  0  0  0
   10.9760   -0.5759   23.7460 H   0  0  0  0  0  0  0  0  0  0  0  0
   11.1526    1.0055   24.5461 H   0  0  0  0  0  0  0  0  0  0  0  0
   11.6763    0.8042   22.8548 H   0  0  0  0  0  0  0  0  0  0  0  0
    5.3147    0.6911   20.0243 C   0  0  0  0  0  0  0  0  0  0  0  0
    4.8225    0.6738   21.0001 H   0  0  0  0  0  0  0  0  0  0  0  0
    4.7237    1.3606   18.9473 C   0  0  0  0  0  0  0  0  0  0  0  0
    3.7800    1.8845   19.0456 H   0  0  0  0  0  0  0  0  0  0  0  0
  1  2  1  0
  2  3  2  0
  3  4  1  0
  4  5  1  0
  4  6  2  0
  6  7  1  0
  7  8  1  1
  7  9  1  0
  9 10  2  0
  9 11  1  0
 11 12  1  0
 11 13  1  0
 13 14  2  0
 13 15  1  0
 15 16  1  0
 16 17  2  0
 16 18  2  0
 16 19  1  0
 19 20  1  0
 20 21  1  0
 20 22  1  0
 20 23  1  0
 19 24  1  0
 24 25  1  0
 24 26  1  0
 24 27  1  0
  6 28  1  0
 28 29  1  0
 28 30  2  0
 30 31  1  0
 30  2  1  0
 15  7  1  0
M  END
>  <cnnaffinity>  (1) 
-4.88864

>  <filename>  (1) 
CN(C)S(=O)(=O)N1C(=O)NC(=O)[C@@H]1c1cccnc1

$$$$
