
     RDKit          3D

 44 46  0  0  0  0  0  0  0  0999 V2000
    4.9193    1.7992   16.9842 H   0  0  0  0  0  0  0  0  0  0  0  0
    5.3871    1.2995   17.8307 C   0  0  0  0  0  0  0  0  0  0  0  0
    6.5443    0.6706   17.5688 N   0  0  0  0  0  0  0  0  0  0  0  0
    7.1562    0.0469   18.5811 C   0  0  0  0  0  0  0  0  0  0  0  0
    8.1168   -0.4171   18.3643 H   0  0  0  0  0  0  0  0  0  0  0  0
    6.6389   -0.0102   19.8877 C   0  0  0  0  0  0  0  0  0  0  0  0
    7.3461   -0.6863   20.9411 N   0  0  0  0  0  0  0  0  0  0  0  0
    6.7200   -1.7430   21.5885 C   0  0  0  0  0  0  0  0  0  0  0  0
    5.7175   -1.9809   21.2577 H   0  0  0  0  0  0  0  0  0  0  0  0
    7.3274   -2.4594   22.5862 C   0  0  0  0  0  0  0  0  0  0  0  0
    6.7494   -3.5815   23.2239 N   0  0  0  0  0  0  0  0  0  0  0  0
    5.8804   -4.4840   22.4689 C   0  0  0  0  0  0  0  0  0  0  0  0
    4.8252   -4.1505   22.4414 H   0  0  0  0  0  0  0  0  0  0  0  0
    6.2454   -4.5023   21.4359 H   0  0  0  0  0  0  0  0  0  0  0  0
    5.9727   -5.8899   23.0693 C   0  0  0  0  0  0  0  0  0  0  0  0
    5.3643   -6.5980   22.4980 H   0  0  0  0  0  0  0  0  0  0  0  0
    7.0124   -6.2275   22.9897 H   0  0  0  0  0  0  0  0  0  0  0  0
    5.5873   -5.8735   24.5578 C   0  0  0  0  0  0  0  0  0  0  0  0
    5.7249   -6.8855   24.9848 H   0  0  0  0  0  0  0  0  0  0  0  0
    4.1801   -5.4899   24.7643 N   0  0  0  0  0  0  0  0  0  0  0  0
    3.8379   -5.4451   26.1899 C   0  0  0  0  0  0  0  0  0  0  0  0
    2.7566   -5.3190   26.2992 H   0  0  0  0  0  0  0  0  0  0  0  0
    4.3098   -4.5919   26.6884 H   0  0  0  0  0  0  0  0  0  0  0  0
    4.1232   -6.3661   26.7388 H   0  0  0  0  0  0  0  0  0  0  0  0
    3.2617   -6.3843   24.0528 C   0  0  0  0  0  0  0  0  0  0  0  0
    3.3058   -6.2239   22.9704 H   0  0  0  0  0  0  0  0  0  0  0  0
    2.2353   -6.1690   24.3644 H   0  0  0  0  0  0  0  0  0  0  0  0
    3.4529   -7.4589   24.2504 H   0  0  0  0  0  0  0  0  0  0  0  0
    6.5676   -4.9195   25.2595 C   0  0  0  0  0  0  0  0  0  0  0  0
    6.4051   -4.9032   26.3422 H   0  0  0  0  0  0  0  0  0  0  0  0
    7.5833   -5.3006   25.0986 H   0  0  0  0  0  0  0  0  0  0  0  0
    6.4775   -3.5149   24.6647 C   0  0  0  0  0  0  0  0  0  0  0  0
    7.2285   -2.8655   25.1267 H   0  0  0  0  0  0  0  0  0  0  0  0
    5.4913   -3.0680   24.8920 H   0  0  0  0  0  0  0  0  0  0  0  0
    8.6544   -2.0616   22.9696 C   0  0  0  0  0  0  0  0  0  0  0  0
    9.1265   -2.6538   23.7534 H   0  0  0  0  0  0  0  0  0  0  0  0
    9.2956   -1.0335   22.3519 C   0  0  0  0  0  0  0  0  0  0  0  0
   10.2968   -0.7136   22.5979 H   0  0  0  0  0  0  0  0  0  0  0  0
    8.6782   -0.2586   21.2842 C   0  0  0  0  0  0  0  0  0  0  0  0
    9.2332    0.6664   20.7145 O   0  0  0  0  0  0  0  0  0  0  0  0
    5.4286    0.6359   20.1478 C   0  0  0  0  0  0  0  0  0  0  0  0
    5.0310    0.6209   21.1643 H   0  0  0  0  0  0  0  0  0  0  0  0
    4.7981    1.3155   19.0993 C   0  0  0  0  0  0  0  0  0  0  0  0
    3.8703    1.8513   19.2501 H   0  0  0  0  0  0  0  0  0  0  0  0
  1  2  1  0
  2  3  2  0
  3  4  1  0
  4  5  1  0
  4  6  2  0
  6  7  1  0
  7  8  1  0
  8  9  1  0
  8 10  2  0
 10 11  1  0
 11 12  1  0
 12 13  1  0
 12 14  1  0
 12 15  1  0
 15 16  1  0
 15 17  1  0
 15 18  1  0
 18 19  1  0
 18 20  1  0
 20 21  1  0
 21 22  1  0
 21 23  1  0
 21 24  1  0
 20 25  1  0
 25 26  1  0
 25 27  1  0
 25 28  1  0
 18 29  1  0
 29 30  1  0
 29 31  1  0
 29 32  1  0
 32 33  1  0
 32 34  1  0
 10 35  1  0
 35 36  1  0
 35 37  2  0
 37 38  1  0
 37 39  1  0
 39 40  2  0
  6 41  1  0
 41 42  1  0
 41 43  2  0
 43 44  1  0
 43  2  1  0
 39  7  1  0
 32 11  1  0
M  END
>  <cnnaffinity>  (1) 
-5.50369

>  <filename>  (1) 
CN(C)C1CCN(c2ccc(=O)n(-c3cccnc3)c2)CC1

$$$$
