
     RDKit          3D

 30 31  0  0  0  0  0  0  0  0999 V2000
    4.9254    1.7817   16.9970 H   0  0  0  0  0  0  0  0  0  0  0  0
    5.4048    1.2887   17.8436 C   0  0  0  0  0  0  0  0  0  0  0  0
    6.5663    0.6685   17.5899 N   0  0  0  0  0  0  0  0  0  0  0  0
    7.1919    0.0631   18.6051 C   0  0  0  0  0  0  0  0  0  0  0  0
    8.1280   -0.4371   18.3628 H   0  0  0  0  0  0  0  0  0  0  0  0
    6.6922    0.0273   19.9211 C   0  0  0  0  0  0  0  0  0  0  0  0
    7.3957   -0.6620   20.9649 N   0  0  0  0  0  0  0  0  0  0  0  0
    8.7487   -0.4993   21.2527 C   0  0  0  0  0  0  0  0  0  0  0  0
    9.3520    0.1619   20.6369 H   0  0  0  0  0  0  0  0  0  0  0  0
    9.0458   -1.3055   22.2984 C   0  0  0  0  0  0  0  0  0  0  0  0
   10.6721   -1.5590   23.0368 S   0  0  0  0  0  0  0  0  0  0  0  0
   11.6499   -1.1339   22.0567 O   0  0  0  0  0  0  0  0  0  0  0  0
   10.6677   -2.8654   23.6620 O   0  0  0  0  0  0  0  0  0  0  0  0
   10.6890   -0.4319   24.2692 N   0  0  0  0  0  0  0  0  0  0  0  0
   10.6531    0.9573   23.8013 C   0  0  0  0  0  0  0  0  0  0  0  0
   11.4416    1.1450   23.0696 H   0  0  0  0  0  0  0  0  0  0  0  0
    9.6743    1.2436   23.3825 H   0  0  0  0  0  0  0  0  0  0  0  0
   10.8431    1.6005   24.6641 H   0  0  0  0  0  0  0  0  0  0  0  0
    9.7077   -0.6856   25.3336 C   0  0  0  0  0  0  0  0  0  0  0  0
    9.9286   -0.0050   26.1605 H   0  0  0  0  0  0  0  0  0  0  0  0
    8.6704   -0.4908   25.0235 H   0  0  0  0  0  0  0  0  0  0  0  0
    9.7823   -1.7046   25.7147 H   0  0  0  0  0  0  0  0  0  0  0  0
    7.8401   -1.9461   22.6403 N   0  0  0  0  0  0  0  0  0  0  0  0
    7.6459   -2.6880   23.3030 H   0  0  0  0  0  0  0  0  0  0  0  0
    6.8520   -1.6628   21.7500 C   0  0  0  0  0  0  0  0  0  0  0  0
    5.4468   -2.5453   21.6254 S   0  0  0  0  0  0  0  0  0  0  0  0
    5.4615    0.6461   20.1743 C   0  0  0  0  0  0  0  0  0  0  0  0
    5.0222    0.6129   21.1724 H   0  0  0  0  0  0  0  0  0  0  0  0
    4.8231    1.3030   19.1151 C   0  0  0  0  0  0  0  0  0  0  0  0
    3.8896    1.8308   19.2589 H   0  0  0  0  0  0  0  0  0  0  0  0
  1  2  1  0
  2  3  2  0
  3  4  1  0
  4  5  1  0
  4  6  2  0
  6  7  1  0
  7  8  1  0
  8  9  1  0
  8 10  2  0
 10 11  1  0
 11 12  2  0
 11 13  2  0
 11 14  1  0
 14 15  1  0
 15 16  1  0
 15 17  1  0
 15 18  1  0
 14 19  1  0
 19 20  1  0
 19 21  1  0
 19 22  1  0
 10 23  1  0
 23 24  1  0
 23 25  1  0
 25 26  2  0
  6 27  1  0
 27 28  1  0
 27 29  2  0
 29 30  1  0
 29  2  1  0
 25  7  1  0
M  END
>  <cnnaffinity>  (1) 
-5.1947

>  <filename>  (1) 
CN(C)S(=O)(=O)c1cn(-c2cccnc2)c(=S)[nH]1

$$$$
