
     RDKit          3D

 33 34  0  0  0  0  0  0  0  0999 V2000
    4.9105    1.6768   16.8293 H   0  0  0  0  0  0  0  0  0  0  0  0
    5.3408    1.3418   17.7675 C   0  0  0  0  0  0  0  0  0  0  0  0
    6.5453    0.7548   17.6777 N   0  0  0  0  0  0  0  0  0  0  0  0
    7.0900    0.3201   18.8135 C   0  0  0  0  0  0  0  0  0  0  0  0
    8.0783   -0.1251   18.7308 H   0  0  0  0  0  0  0  0  0  0  0  0
    6.4820    0.4220   20.0884 C   0  0  0  0  0  0  0  0  0  0  0  0
    7.1199   -0.1773   21.2085 N   0  0  0  0  0  0  0  0  0  0  0  0
    7.8877   -1.3438   21.1206 C   0  0  0  0  0  0  0  0  0  0  0  0
    8.0328   -1.8317   20.1685 H   0  0  0  0  0  0  0  0  0  0  0  0
    8.3484   -1.6621   22.3468 C   0  0  0  0  0  0  0  0  0  0  0  0
    9.0122   -2.9182   22.7837 C   0  0  0  0  0  0  0  0  0  0  0  0
    9.7052   -3.2327   22.0031 H   0  0  0  0  0  0  0  0  0  0  0  0
    9.6064   -2.7780   23.6916 H   0  0  0  0  0  0  0  0  0  0  0  0
    8.0040   -4.0583   23.0026 C   0  0  0  0  0  0  0  0  0  0  0  0
    7.3908   -3.8524   23.8991 H   0  0  0  0  0  0  0  0  0  0  0  0
    7.2968   -4.0664   22.1627 H   0  0  0  0  0  0  0  0  0  0  0  0
    8.6745   -5.3556   23.0955 N   0  0  0  0  0  0  0  0  0  0  0  0
    9.2019   -5.6230   24.4269 C   0  0  0  0  0  0  0  0  0  0  0  0
    9.6470   -6.6251   24.4547 H   0  0  0  0  0  0  0  0  0  0  0  0
    8.4308   -5.5694   25.2226 H   0  0  0  0  0  0  0  0  0  0  0  0
   10.0025   -4.9119   24.6675 H   0  0  0  0  0  0  0  0  0  0  0  0
    7.9132   -6.4703   22.5521 C   0  0  0  0  0  0  0  0  0  0  0  0
    7.7273   -6.2992   21.4842 H   0  0  0  0  0  0  0  0  0  0  0  0
    8.5122   -7.3875   22.6308 H   0  0  0  0  0  0  0  0  0  0  0  0
    6.9364   -6.6522   23.0438 H   0  0  0  0  0  0  0  0  0  0  0  0
    7.8756   -0.6716   23.2004 N   0  0  0  0  0  0  0  0  0  0  0  0
    7.9840   -0.5479   24.1888 H   0  0  0  0  0  0  0  0  0  0  0  0
    7.1094    0.2595   22.5453 C   0  0  0  0  0  0  0  0  0  0  0  0
    6.5782    1.2295   23.0555 O   0  0  0  0  0  0  0  0  0  0  0  0
    5.2478    1.0867   20.1745 C   0  0  0  0  0  0  0  0  0  0  0  0
    4.7915    1.2704   21.1481 H   0  0  0  0  0  0  0  0  0  0  0  0
    4.6621    1.5266   18.9785 C   0  0  0  0  0  0  0  0  0  0  0  0
    3.6992    2.0306   18.9753 H   0  0  0  0  0  0  0  0  0  0  0  0
  1  2  1  0
  2  3  2  0
  3  4  1  0
  4  5  1  0
  4  6  2  0
  6  7  1  0
  7  8  1  0
  8  9  1  0
  8 10  2  0
 10 11  1  0
 11 12  1  0
 11 13  1  0
 11 14  1  0
 14 15  1  0
 14 16  1  0
 14 17  1  0
 17 18  1  0
 18 19  1  0
 18 20  1  0
 18 21  1  0
 17 22  1  0
 22 23  1  0
 22 24  1  0
 22 25  1  0
 10 26  1  0
 26 27  1  0
 26 28  1  0
 28 29  2  0
  6 30  1  0
 30 31  1  0
 30 32  2  0
 32 33  1  0
 32  2  1  0
 28  7  1  0
M  END
>  <cnnaffinity>  (1) 
-4.71267

>  <filename>  (1) 
CN(C)CCc1cn(-c2cccnc2)c(=O)[nH]1

$$$$
