
     RDKit          3D

 36 38  0  0  0  0  0  0  0  0999 V2000
    4.9421    1.8177   16.9606 H   0  0  0  0  0  0  0  0  0  0  0  0
    5.3912    1.3097   17.8113 C   0  0  0  0  0  0  0  0  0  0  0  0
    6.5521    0.6762   17.5783 N   0  0  0  0  0  0  0  0  0  0  0  0
    7.1504    0.0828   18.6139 C   0  0  0  0  0  0  0  0  0  0  0  0
    8.0790   -0.4455   18.3906 H   0  0  0  0  0  0  0  0  0  0  0  0
    6.6422    0.1087   19.9230 C   0  0  0  0  0  0  0  0  0  0  0  0
    7.4098   -0.5263   20.9935 C   0  0  0  0  0  0  0  0  0  0  0  0
    8.0408   -1.6815   20.7757 N   0  0  0  0  0  0  0  0  0  0  0  0
    8.6054   -1.9732   21.9431 N   0  0  0  0  0  0  0  0  0  0  0  0
    8.4598   -1.0511   22.8944 C   0  0  0  0  0  0  0  0  0  0  0  0
    7.6612   -0.1002   22.3159 C   0  0  0  0  0  0  0  0  0  0  0  0
    7.2284    1.3699   23.0461 S   0  0  0  0  0  0  0  0  0  0  0  0
    8.1875    1.6280   24.1118 O   0  0  0  0  0  0  0  0  0  0  0  0
    5.7993    1.3800   23.3031 O   0  0  0  0  0  0  0  0  0  0  0  0
    7.5185    2.4662   21.8064 N   0  0  0  0  0  0  0  0  0  0  0  0
    8.9002    2.4625   21.3219 C   0  0  0  0  0  0  0  0  0  0  0  0
    8.9728    3.1416   20.4740 H   0  0  0  0  0  0  0  0  0  0  0  0
    9.1770    1.4831   20.9307 H   0  0  0  0  0  0  0  0  0  0  0  0
    9.6330    2.7707   22.0787 H   0  0  0  0  0  0  0  0  0  0  0  0
    7.0545    3.7926   22.2316 C   0  0  0  0  0  0  0  0  0  0  0  0
    5.9982    3.7315   22.4900 H   0  0  0  0  0  0  0  0  0  0  0  0
    7.1518    4.4943   21.3979 H   0  0  0  0  0  0  0  0  0  0  0  0
    7.6093    4.1819   23.0961 H   0  0  0  0  0  0  0  0  0  0  0  0
    9.3968   -1.2585   24.0253 C   0  0  0  0  0  0  0  0  0  0  0  0
   10.0756   -0.4052   24.1188 H   0  0  0  0  0  0  0  0  0  0  0  0
    8.8594   -1.2979   24.9726 H   0  0  0  0  0  0  0  0  0  0  0  0
   10.1034   -2.5913   23.6208 C   0  0  0  0  0  0  0  0  0  0  0  0
   11.1764   -2.4691   23.5438 H   0  0  0  0  0  0  0  0  0  0  0  0
    9.9050   -3.3823   24.3418 H   0  0  0  0  0  0  0  0  0  0  0  0
    9.5799   -2.9827   22.2117 C   0  0  0  0  0  0  0  0  0  0  0  0
    9.1037   -3.9615   22.1499 H   0  0  0  0  0  0  0  0  0  0  0  0
   10.3464   -2.8950   21.4425 H   0  0  0  0  0  0  0  0  0  0  0  0
    5.3995    0.7189   20.1406 C   0  0  0  0  0  0  0  0  0  0  0  0
    4.9569    0.7229   21.1384 H   0  0  0  0  0  0  0  0  0  0  0  0
    4.7702    1.3360   19.0616 C   0  0  0  0  0  0  0  0  0  0  0  0
    3.8233    1.8451   19.1873 H   0  0  0  0  0  0  0  0  0  0  0  0
  1  2  1  0
  2  3  2  0
  3  4  1  0
  4  5  1  0
  4  6  2  0
  6  7  1  0
  7  8  2  0
  8  9  1  0
  9 10  1  0
 10 11  2  0
 11 12  1  0
 12 13  2  0
 12 14  2  0
 12 15  1  0
 15 16  1  0
 16 17  1  0
 16 18  1  0
 16 19  1  0
 15 20  1  0
 20 21  1  0
 20 22  1  0
 20 23  1  0
 10 24  1  0
 24 25  1  0
 24 26  1  0
 24 27  1  0
 27 28  1  0
 27 29  1  0
 27 30  1  0
 30 31  1  0
 30 32  1  0
  6 33  1  0
 33 34  1  0
 33 35  2  0
 35 36  1  0
 35  2  1  0
 11  7  1  0
 30  9  1  0
M  END
>  <cnnaffinity>  (1) 
-5.08294

>  <filename>  (1) 
CN(C)S(=O)(=O)c1c(-c2cccnc2)nn2c1CCC2

$$$$
