
     RDKit          3D

 34 35  0  0  0  0  0  0  0  0999 V2000
    5.0248    1.7371   16.9551 H   0  0  0  0  0  0  0  0  0  0  0  0
    5.4736    1.2704   17.8258 C   0  0  0  0  0  0  0  0  0  0  0  0
    6.6536    0.6596   17.6215 N   0  0  0  0  0  0  0  0  0  0  0  0
    7.2437    0.0883   18.6811 C   0  0  0  0  0  0  0  0  0  0  0  0
    8.1949   -0.4113   18.5141 H   0  0  0  0  0  0  0  0  0  0  0  0
    6.6699    0.0950   19.9630 C   0  0  0  0  0  0  0  0  0  0  0  0
    7.3746   -0.4234   21.0504 O   0  0  0  0  0  0  0  0  0  0  0  0
    6.8789   -1.4984   21.7398 C   0  0  0  0  0  0  0  0  0  0  0  0
    5.9406   -2.1611   21.3706 O   0  0  0  0  0  0  0  0  0  0  0  0
    7.7293   -1.7582   22.9791 C   0  0  0  0  0  0  0  0  0  0  0  0
    7.9519   -0.5603   23.9291 C   0  0  0  0  0  0  0  0  0  0  0  0
    7.1957    0.2151   23.7876 H   0  0  0  0  0  0  0  0  0  0  0  0
    8.9094   -0.0891   23.6803 H   0  0  0  0  0  0  0  0  0  0  0  0
    8.0155   -0.9625   25.4166 C   0  0  0  0  0  0  0  0  0  0  0  0
    9.0784   -1.2784   25.9298 O   0  0  0  0  0  0  0  0  0  0  0  0
    6.8226   -1.0453   26.1017 N   0  0  0  0  0  0  0  0  0  0  0  0
    5.5424   -0.8106   25.4477 C   0  0  0  0  0  0  0  0  0  0  0  0
    5.4186   -1.4833   24.5934 H   0  0  0  0  0  0  0  0  0  0  0  0
    4.7220   -0.9992   26.1436 H   0  0  0  0  0  0  0  0  0  0  0  0
    5.4446    0.2252   25.0965 H   0  0  0  0  0  0  0  0  0  0  0  0
    6.8785   -1.4656   27.5023 C   0  0  0  0  0  0  0  0  0  0  0  0
    5.8682   -1.6179   27.8989 H   0  0  0  0  0  0  0  0  0  0  0  0
    7.3861   -0.7050   28.1051 H   0  0  0  0  0  0  0  0  0  0  0  0
    7.4396   -2.4020   27.6023 H   0  0  0  0  0  0  0  0  0  0  0  0
    7.7353   -3.1693   23.5168 C   0  0  0  0  0  0  0  0  0  0  0  0
    7.0867   -3.8851   23.0214 H   0  0  0  0  0  0  0  0  0  0  0  0
    7.8376   -3.2804   24.5913 H   0  0  0  0  0  0  0  0  0  0  0  0
    8.9384   -2.6665   22.7960 C   0  0  0  0  0  0  0  0  0  0  0  0
    9.1720   -3.0316   21.8005 H   0  0  0  0  0  0  0  0  0  0  0  0
    9.8131   -2.4162   23.3950 H   0  0  0  0  0  0  0  0  0  0  0  0
    5.4302    0.6987   20.1675 C   0  0  0  0  0  0  0  0  0  0  0  0
    4.9895    0.6761   21.1645 H   0  0  0  0  0  0  0  0  0  0  0  0
    4.8241    1.3133   19.0666 C   0  0  0  0  0  0  0  0  0  0  0  0
    3.8739    1.8307   19.1632 H   0  0  0  0  0  0  0  0  0  0  0  0
  1  2  1  0
  2  3  2  0
  3  4  1  0
  4  5  1  0
  4  6  2  0
  6  7  1  0
  7  8  1  0
  8  9  2  0
  8 10  1  0
 10 11  1  0
 11 12  1  0
 11 13  1  0
 11 14  1  0
 14 15  2  0
 14 16  1  0
 16 17  1  0
 17 18  1  0
 17 19  1  0
 17 20  1  0
 16 21  1  0
 21 22  1  0
 21 23  1  0
 21 24  1  0
 10 25  1  0
 25 26  1  0
 25 27  1  0
 25 28  1  0
 28 29  1  0
 28 30  1  0
  6 31  1  0
 31 32  1  0
 31 33  2  0
 33 34  1  0
 33  2  1  0
 28 10  1  0
M  END
>  <cnnaffinity>  (1) 
-4.54336

>  <filename>  (1) 
CN(C)C(=O)CC1(C(=O)Oc2cccnc2)CC1

$$$$
