
     RDKit          3D

 33 34  0  0  0  0  0  0  0  0999 V2000
   10.0165   -2.5362   22.7597 C   0  0  0  0  0  0  0  0  0  0  0  0
    9.2977   -1.4661   23.4657 N   0  0  0  0  0  0  0  0  0  0  0  0
    7.8091   -1.4584   23.3942 C   0  0  0  0  0  0  0  0  0  0  0  0
    7.1834   -0.5248   22.3364 C   0  0  0  0  0  0  0  0  0  0  0  0
    6.3151    0.2587   22.6981 O   0  0  0  0  0  0  0  0  0  0  0  0
    7.4714   -0.6870   20.9818 N   0  0  0  0  0  0  0  0  0  0  0  0
    6.8319   -0.0300   19.9031 C   0  0  0  0  0  0  0  0  0  0  0  0
    5.7035    0.7504   20.1454 C   0  0  0  0  0  0  0  0  0  0  0  0
    5.0700    1.3765   19.0734 C   0  0  0  0  0  0  0  0  0  0  0  0
    5.5576    1.1970   17.7767 C   0  0  0  0  0  0  0  0  0  0  0  0
    6.6405    0.4375   17.5096 N   0  0  0  0  0  0  0  0  0  0  0  0
    7.2671   -0.1518   18.5545 C   0  0  0  0  0  0  0  0  0  0  0  0
    8.1529   -0.7450   18.3406 H   0  0  0  0  0  0  0  0  0  0  0  0
    5.0429    1.6942   16.9618 H   0  0  0  0  0  0  0  0  0  0  0  0
    4.2068    2.0108   19.2455 H   0  0  0  0  0  0  0  0  0  0  0  0
    5.3054    0.8721   21.1479 H   0  0  0  0  0  0  0  0  0  0  0  0
    8.2413   -1.3103   20.7618 H   0  0  0  0  0  0  0  0  0  0  0  0
    7.3995   -1.1875   24.3734 H   0  0  0  0  0  0  0  0  0  0  0  0
    7.4582   -2.4694   23.1606 H   0  0  0  0  0  0  0  0  0  0  0  0
    9.9590   -0.2495   23.6633 C   0  0  0  0  0  0  0  0  0  0  0  0
   10.1925    0.1733   24.9660 C   0  0  0  0  0  0  0  0  0  0  0  0
   10.8294    1.3903   25.2108 C   0  0  0  0  0  0  0  0  0  0  0  0
   11.2611    2.1804   24.1365 C   0  0  0  0  0  0  0  0  0  0  0  0
   11.0235    1.7647   22.8208 C   0  0  0  0  0  0  0  0  0  0  0  0
   11.5471    2.7741   21.4956 Cl  0  0  0  0  0  0  0  0  0  0  0  0
   10.3543    0.5532   22.5827 C   0  0  0  0  0  0  0  0  0  0  0  0
    9.9431   -0.0064   20.8016 Br  0  0  0  0  0  0  0  0  0  0  0  0
   11.7582    3.1310   24.3068 H   0  0  0  0  0  0  0  0  0  0  0  0
   10.9661    1.6961   26.2403 H   0  0  0  0  0  0  0  0  0  0  0  0
    9.8557   -0.4655   25.7758 H   0  0  0  0  0  0  0  0  0  0  0  0
    9.4865   -2.7853   21.8384 H   0  0  0  0  0  0  0  0  0  0  0  0
   10.0822   -3.4325   23.3831 H   0  0  0  0  0  0  0  0  0  0  0  0
   11.0282   -2.2192   22.4970 H   0  0  0  0  0  0  0  0  0  0  0  0
  1  2  1  0
  2  3  1  0
  3  4  1  0
  4  5  2  0
  4  6  1  0
  6  7  1  0
  7  8  2  0
  8  9  1  0
  9 10  2  0
 10 11  1  0
 11 12  2  0
 12 13  1  0
 10 14  1  0
  9 15  1  0
  8 16  1  0
  6 17  1  0
  3 18  1  0
  3 19  1  0
  2 20  1  0
 20 21  2  0
 21 22  1  0
 22 23  2  0
 23 24  1  0
 24 25  1  0
 24 26  2  0
 26 27  1  0
 23 28  1  0
 22 29  1  0
 21 30  1  0
  1 31  1  0
  1 32  1  0
  1 33  1  0
 12  7  1  0
 26 20  1  0
M  END
>  <cnnaffinity>  (1) 
-5.36117

>  <filename>  (1) 
CN(CC(=O)Nc1cccnc1)c1cccc(Cl)c1Br

$$$$
