
     RDKit          3D

 40 42  0  0  0  0  0  0  0  0999 V2000
    4.9521    1.8081   16.9514 H   0  0  0  0  0  0  0  0  0  0  0  0
    5.4137    1.2916   17.7907 C   0  0  0  0  0  0  0  0  0  0  0  0
    6.5715    0.6595   17.5418 N   0  0  0  0  0  0  0  0  0  0  0  0
    7.1706    0.0369   18.5646 C   0  0  0  0  0  0  0  0  0  0  0  0
    8.1076   -0.4690   18.3286 H   0  0  0  0  0  0  0  0  0  0  0  0
    6.6550    0.0168   19.8764 C   0  0  0  0  0  0  0  0  0  0  0  0
    7.3572   -0.6729   20.9734 C   0  0  0  0  0  0  0  0  0  0  0  0
    8.1665   -1.7129   20.7611 N   0  0  0  0  0  0  0  0  0  0  0  0
    8.5357   -2.0842   21.9830 N   0  0  0  0  0  0  0  0  0  0  0  0
    8.0402   -1.3570   22.9934 C   0  0  0  0  0  0  0  0  0  0  0  0
    7.2754   -0.3845   22.3717 C   0  0  0  0  0  0  0  0  0  0  0  0
    6.5770    0.6690   22.8748 O   0  0  0  0  0  0  0  0  0  0  0  0
    6.7933    0.9710   24.2433 C   0  0  0  0  0  0  0  0  0  0  0  0
    5.9320    1.5564   24.5703 H   0  0  0  0  0  0  0  0  0  0  0  0
    6.8017    0.0492   24.8364 H   0  0  0  0  0  0  0  0  0  0  0  0
    8.0876    1.7760   24.4668 C   0  0  0  0  0  0  0  0  0  0  0  0
    8.9486    1.1697   24.1568 H   0  0  0  0  0  0  0  0  0  0  0  0
    8.0880    2.6483   23.7914 H   0  0  0  0  0  0  0  0  0  0  0  0
    8.2929    2.2292   25.8424 N   0  0  0  0  0  0  0  0  0  0  0  0
    7.3236    3.2160   26.2898 C   0  0  0  0  0  0  0  0  0  0  0  0
    6.3372    2.8013   26.5704 H   0  0  0  0  0  0  0  0  0  0  0  0
    7.1466    3.9712   25.5160 H   0  0  0  0  0  0  0  0  0  0  0  0
    7.7208    3.7363   27.1664 H   0  0  0  0  0  0  0  0  0  0  0  0
    8.4747    1.1530   26.8098 C   0  0  0  0  0  0  0  0  0  0  0  0
    7.6734    0.3928   26.7899 H   0  0  0  0  0  0  0  0  0  0  0  0
    8.4795    1.5689   27.8228 H   0  0  0  0  0  0  0  0  0  0  0  0
    9.4325    0.6456   26.6442 H   0  0  0  0  0  0  0  0  0  0  0  0
    8.4875   -1.9507   24.3012 C   0  0  0  0  0  0  0  0  0  0  0  0
    9.0750   -1.2394   24.8863 H   0  0  0  0  0  0  0  0  0  0  0  0
    7.6319   -2.2152   24.9302 H   0  0  0  0  0  0  0  0  0  0  0  0
    9.3294   -3.1917   23.8858 C   0  0  0  0  0  0  0  0  0  0  0  0
    8.8705   -4.1053   24.2601 H   0  0  0  0  0  0  0  0  0  0  0  0
   10.3450   -3.1412   24.2804 H   0  0  0  0  0  0  0  0  0  0  0  0
    9.3562   -3.2070   22.3365 C   0  0  0  0  0  0  0  0  0  0  0  0
   10.3556   -3.0565   21.9233 H   0  0  0  0  0  0  0  0  0  0  0  0
    8.9150   -4.1125   21.9127 H   0  0  0  0  0  0  0  0  0  0  0  0
    5.4343    0.6753   20.1093 C   0  0  0  0  0  0  0  0  0  0  0  0
    5.0047    0.6824   21.1096 H   0  0  0  0  0  0  0  0  0  0  0  0
    4.8030    1.3139   19.0487 C   0  0  0  0  0  0  0  0  0  0  0  0
    3.8666    1.8394   19.1908 H   0  0  0  0  0  0  0  0  0  0  0  0
  1  2  1  0
  2  3  2  0
  3  4  1  0
  4  5  1  0
  4  6  2  0
  6  7  1  0
  7  8  2  0
  8  9  1  0
  9 10  1  0
 10 11  2  0
 11 12  1  0
 12 13  1  0
 13 14  1  0
 13 15  1  0
 13 16  1  0
 16 17  1  0
 16 18  1  0
 16 19  1  0
 19 20  1  0
 20 21  1  0
 20 22  1  0
 20 23  1  0
 19 24  1  0
 24 25  1  0
 24 26  1  0
 24 27  1  0
 10 28  1  0
 28 29  1  0
 28 30  1  0
 28 31  1  0
 31 32  1  0
 31 33  1  0
 31 34  1  0
 34 35  1  0
 34 36  1  0
  6 37  1  0
 37 38  1  0
 37 39  2  0
 39 40  1  0
 39  2  1  0
 11  7  1  0
 34  9  1  0
M  END
>  <cnnaffinity>  (1) 
-5.10698

>  <filename>  (1) 
CN(C)CCOc1c(-c2cccnc2)nn2c1CCC2

$$$$
