
     RDKit          3D

 43 45  0  0  0  0  0  0  0  0999 V2000
    4.9800    1.8279   16.8726 H   0  0  0  0  0  0  0  0  0  0  0  0
    5.4251    1.3011   17.7141 C   0  0  0  0  0  0  0  0  0  0  0  0
    6.5858    0.6676   17.4809 N   0  0  0  0  0  0  0  0  0  0  0  0
    7.1746    0.0435   18.5156 C   0  0  0  0  0  0  0  0  0  0  0  0
    8.1129   -0.4665   18.3010 H   0  0  0  0  0  0  0  0  0  0  0  0
    6.6481    0.0097   19.8343 C   0  0  0  0  0  0  0  0  0  0  0  0
    7.2620   -0.6479   20.9236 N   0  0  0  0  0  0  0  0  0  0  0  0
    6.6331   -0.7869   21.7067 H   0  0  0  0  0  0  0  0  0  0  0  0
    8.6319   -0.5307   21.2898 C   0  0  0  0  0  0  0  0  0  0  0  0
    9.6001    0.2961   20.6735 C   0  0  0  0  0  0  0  0  0  0  0  0
    9.4319    0.9659   19.8436 H   0  0  0  0  0  0  0  0  0  0  0  0
   10.7949    0.2113   21.2367 N   0  0  0  0  0  0  0  0  0  0  0  0
   10.6242   -0.7069   22.2075 N   0  0  0  0  0  0  0  0  0  0  0  0
   11.3486   -0.8595   22.8962 H   0  0  0  0  0  0  0  0  0  0  0  0
    9.3446   -1.1780   22.3081 C   0  0  0  0  0  0  0  0  0  0  0  0
    8.9690   -2.0402   23.3337 N   0  0  0  0  0  0  0  0  0  0  0  0
    9.6927   -3.2747   23.6308 C   0  0  0  0  0  0  0  0  0  0  0  0
   10.2279   -3.1972   24.5933 H   0  0  0  0  0  0  0  0  0  0  0  0
   10.4465   -3.4324   22.8515 H   0  0  0  0  0  0  0  0  0  0  0  0
    8.7161   -4.4524   23.7056 C   0  0  0  0  0  0  0  0  0  0  0  0
    9.2446   -5.3809   23.9469 H   0  0  0  0  0  0  0  0  0  0  0  0
    8.2571   -4.5904   22.7180 H   0  0  0  0  0  0  0  0  0  0  0  0
    7.6161   -4.1504   24.7507 C   0  0  0  0  0  0  0  0  0  0  0  0
    8.1226   -3.9039   25.7005 H   0  0  0  0  0  0  0  0  0  0  0  0
    6.6863   -5.2416   25.0487 N   0  0  0  0  0  0  0  0  0  0  0  0
    6.1412   -5.9510   23.8962 C   0  0  0  0  0  0  0  0  0  0  0  0
    6.9021   -6.4431   23.2609 H   0  0  0  0  0  0  0  0  0  0  0  0
    5.4615   -6.7332   24.2522 H   0  0  0  0  0  0  0  0  0  0  0  0
    5.5466   -5.2862   23.2602 H   0  0  0  0  0  0  0  0  0  0  0  0
    7.1746   -6.1667   26.0634 C   0  0  0  0  0  0  0  0  0  0  0  0
    6.3767   -6.8794   26.3072 H   0  0  0  0  0  0  0  0  0  0  0  0
    8.0840   -6.7239   25.7646 H   0  0  0  0  0  0  0  0  0  0  0  0
    7.4218   -5.6336   26.9887 H   0  0  0  0  0  0  0  0  0  0  0  0
    6.8660   -2.8916   24.3036 C   0  0  0  0  0  0  0  0  0  0  0  0
    6.0594   -2.6606   25.0055 H   0  0  0  0  0  0  0  0  0  0  0  0
    6.4125   -3.0899   23.3258 H   0  0  0  0  0  0  0  0  0  0  0  0
    7.8280   -1.7076   24.1839 C   0  0  0  0  0  0  0  0  0  0  0  0
    7.3226   -0.8366   23.7518 H   0  0  0  0  0  0  0  0  0  0  0  0
    8.1605   -1.4052   25.1952 H   0  0  0  0  0  0  0  0  0  0  0  0
    5.4142    0.6437   20.0345 C   0  0  0  0  0  0  0  0  0  0  0  0
    4.9631    0.6396   21.0260 H   0  0  0  0  0  0  0  0  0  0  0  0
    4.7967    1.3054   18.9662 C   0  0  0  0  0  0  0  0  0  0  0  0
    3.8554    1.8300   19.0968 H   0  0  0  0  0  0  0  0  0  0  0  0
  1  2  1  0
  2  3  2  0
  3  4  1  0
  4  5  1  0
  4  6  2  0
  6  7  1  0
  7  8  1  0
  7  9  1  0
  9 10  1  0
 10 11  1  0
 10 12  2  0
 12 13  1  0
 13 14  1  0
 13 15  1  0
 15 16  1  0
 16 17  1  0
 17 18  1  0
 17 19  1  0
 17 20  1  0
 20 21  1  0
 20 22  1  0
 20 23  1  0
 23 24  1  0
 23 25  1  0
 25 26  1  0
 26 27  1  0
 26 28  1  0
 26 29  1  0
 25 30  1  0
 30 31  1  0
 30 32  1  0
 30 33  1  0
 23 34  1  0
 34 35  1  0
 34 36  1  0
 34 37  1  0
 37 38  1  0
 37 39  1  0
  6 40  1  0
 40 41  1  0
 40 42  2  0
 42 43  1  0
 42  2  1  0
 15  9  2  0
 37 16  1  0
M  END
>  <cnnaffinity>  (1) 
-5.51303

>  <filename>  (1) 
CN(C)C1CCN(c2[nH]ncc2Nc2cccnc2)CC1

$$$$
