
     RDKit          3D

 34 35  0  0  0  0  0  0  0  0999 V2000
    5.0830    1.7581   16.9136 H   0  0  0  0  0  0  0  0  0  0  0  0
    5.5459    1.2836   17.7746 C   0  0  0  0  0  0  0  0  0  0  0  0
    6.7240    0.6747   17.5572 N   0  0  0  0  0  0  0  0  0  0  0  0
    7.3020    0.0643   18.5956 C   0  0  0  0  0  0  0  0  0  0  0  0
    8.2574   -0.4196   18.4034 H   0  0  0  0  0  0  0  0  0  0  0  0
    6.7352    0.0089   19.8841 C   0  0  0  0  0  0  0  0  0  0  0  0
    7.3801   -0.7601   20.9629 C   0  0  0  0  0  0  0  0  0  0  0  0
    8.7439   -0.6924   20.9216 O   0  0  0  0  0  0  0  0  0  0  0  0
    9.5010   -1.3345   21.8545 C   0  0  0  0  0  0  0  0  0  0  0  0
   10.9535   -1.0440   21.6688 C   0  0  0  0  0  0  0  0  0  0  0  0
   11.5163   -1.8746   22.0949 H   0  0  0  0  0  0  0  0  0  0  0  0
   11.1838   -0.9708   20.6066 H   0  0  0  0  0  0  0  0  0  0  0  0
   11.3801    0.2755   22.3186 C   0  0  0  0  0  0  0  0  0  0  0  0
   10.7801    1.0797   21.8709 H   0  0  0  0  0  0  0  0  0  0  0  0
   11.1375    0.2642   23.4015 H   0  0  0  0  0  0  0  0  0  0  0  0
   12.7823    0.5925   22.0749 N   0  0  0  0  0  0  0  0  0  0  0  0
   13.7610   -0.3988   22.4867 C   0  0  0  0  0  0  0  0  0  0  0  0
   13.9167   -0.4481   23.5754 H   0  0  0  0  0  0  0  0  0  0  0  0
   14.7339   -0.1522   22.0541 H   0  0  0  0  0  0  0  0  0  0  0  0
   13.4866   -1.3866   22.1168 H   0  0  0  0  0  0  0  0  0  0  0  0
   13.1129    1.9000   22.6138 C   0  0  0  0  0  0  0  0  0  0  0  0
   12.8078    2.0303   23.6701 H   0  0  0  0  0  0  0  0  0  0  0  0
   14.1921    2.0776   22.5709 H   0  0  0  0  0  0  0  0  0  0  0  0
   12.6323    2.6808   22.0198 H   0  0  0  0  0  0  0  0  0  0  0  0
    8.9410   -2.0683   22.8328 C   0  0  0  0  0  0  0  0  0  0  0  0
    9.5192   -2.5996   23.5762 H   0  0  0  0  0  0  0  0  0  0  0  0
    7.4820   -2.1628   22.9558 C   0  0  0  0  0  0  0  0  0  0  0  0
    6.9332   -2.7611   23.8666 O   0  0  0  0  0  0  0  0  0  0  0  0
    6.7380   -1.4831   21.9018 C   0  0  0  0  0  0  0  0  0  0  0  0
    5.6676   -1.6050   21.9119 H   0  0  0  0  0  0  0  0  0  0  0  0
    5.5238    0.6807   20.0985 C   0  0  0  0  0  0  0  0  0  0  0  0
    5.0950    0.7239   21.1028 H   0  0  0  0  0  0  0  0  0  0  0  0
    4.9142    1.3207   19.0240 C   0  0  0  0  0  0  0  0  0  0  0  0
    3.9722    1.8453   19.1367 H   0  0  0  0  0  0  0  0  0  0  0  0
  1  2  1  0
  2  3  2  0
  3  4  1  0
  4  5  1  0
  4  6  2  0
  6  7  1  0
  7  8  1  0
  8  9  1  0
  9 10  1  0
 10 11  1  0
 10 12  1  0
 10 13  1  0
 13 14  1  0
 13 15  1  0
 13 16  1  0
 16 17  1  0
 17 18  1  0
 17 19  1  0
 17 20  1  0
 16 21  1  0
 21 22  1  0
 21 23  1  0
 21 24  1  0
  9 25  2  0
 25 26  1  0
 25 27  1  0
 27 28  2  0
 27 29  1  0
 29 30  1  0
  6 31  1  0
 31 32  1  0
 31 33  2  0
 33 34  1  0
 33  2  1  0
 29  7  2  0
M  END
>  <cnnaffinity>  (1) 
-4.38728

>  <filename>  (1) 
CN(C)CCc1cc(=O)cc(-c2cccnc2)o1

$$$$
