
     RDKit          3D

 46 48  0  0  0  0  0  0  0  0999 V2000
    4.9216    1.7858   16.9898 H   0  0  0  0  0  0  0  0  0  0  0  0
    5.4018    1.2939   17.8322 C   0  0  0  0  0  0  0  0  0  0  0  0
    6.5615    0.6742   17.5726 N   0  0  0  0  0  0  0  0  0  0  0  0
    7.1559    0.0465   18.5954 C   0  0  0  0  0  0  0  0  0  0  0  0
    8.1150   -0.4173   18.3666 H   0  0  0  0  0  0  0  0  0  0  0  0
    6.6439   -0.0155   19.9019 C   0  0  0  0  0  0  0  0  0  0  0  0
    7.3493   -0.7955   20.9847 C   0  0  0  0  0  0  0  0  0  0  0  0
    6.8299   -2.1772   20.9448 N   0  0  0  0  0  0  0  0  0  0  0  0
    7.1355   -2.5657   20.0509 H   0  0  0  0  0  0  0  0  0  0  0  0
    7.2276   -2.9958   22.0493 N   0  0  0  0  0  0  0  0  0  0  0  0
    7.9649   -4.1851   21.6517 C   0  0  0  0  0  0  0  0  0  0  0  0
    8.8900   -3.8290   21.1927 H   0  0  0  0  0  0  0  0  0  0  0  0
    7.4181   -4.7481   20.8689 H   0  0  0  0  0  0  0  0  0  0  0  0
    8.2385   -5.0929   22.8699 C   0  0  0  0  0  0  0  0  0  0  0  0
    9.2800   -5.3750   22.8617 H   0  0  0  0  0  0  0  0  0  0  0  0
    7.6684   -6.0245   22.7832 H   0  0  0  0  0  0  0  0  0  0  0  0
    7.9263   -4.4399   24.2275 C   0  0  0  0  0  0  0  0  0  0  0  0
    8.6113   -3.5763   24.3379 H   0  0  0  0  0  0  0  0  0  0  0  0
    8.1298   -5.3667   25.3556 N   0  0  0  0  0  0  0  0  0  0  0  0
    9.4749   -5.9480   25.3749 C   0  0  0  0  0  0  0  0  0  0  0  0
    9.6425   -6.4791   26.3171 H   0  0  0  0  0  0  0  0  0  0  0  0
    9.6055   -6.6823   24.5756 H   0  0  0  0  0  0  0  0  0  0  0  0
   10.2782   -5.1918   25.2815 H   0  0  0  0  0  0  0  0  0  0  0  0
    7.8697   -4.7121   26.6425 C   0  0  0  0  0  0  0  0  0  0  0  0
    8.4806   -3.8009   26.7974 H   0  0  0  0  0  0  0  0  0  0  0  0
    8.0906   -5.3966   27.4684 H   0  0  0  0  0  0  0  0  0  0  0  0
    6.8170   -4.4337   26.7410 H   0  0  0  0  0  0  0  0  0  0  0  0
    6.4811   -3.9053   24.2071 C   0  0  0  0  0  0  0  0  0  0  0  0
    6.3883   -3.1077   24.9526 H   0  0  0  0  0  0  0  0  0  0  0  0
    5.7976   -4.7064   24.5002 H   0  0  0  0  0  0  0  0  0  0  0  0
    6.0560   -3.3771   22.8301 C   0  0  0  0  0  0  0  0  0  0  0  0
    5.4344   -2.4988   22.9368 H   0  0  0  0  0  0  0  0  0  0  0  0
    5.4444   -4.1042   22.2677 H   0  0  0  0  0  0  0  0  0  0  0  0
    8.9067   -0.7112   20.9889 C   0  0  0  0  0  0  0  0  0  0  0  0
    9.4117   -1.6750   20.8637 H   0  0  0  0  0  0  0  0  0  0  0  0
    9.3028   -0.0151   20.2481 H   0  0  0  0  0  0  0  0  0  0  0  0
    8.8819   -0.1428   22.4266 C   0  0  0  0  0  0  0  0  0  0  0  0
    9.3531    0.8373   22.5494 H   0  0  0  0  0  0  0  0  0  0  0  0
    9.2853   -0.8318   23.1762 H   0  0  0  0  0  0  0  0  0  0  0  0
    7.3374   -0.1219   22.3880 C   0  0  0  0  0  0  0  0  0  0  0  0
    6.9137    0.8834   22.3637 H   0  0  0  0  0  0  0  0  0  0  0  0
    6.8287   -0.6946   23.1673 H   0  0  0  0  0  0  0  0  0  0  0  0
    5.4306    0.6468   20.1482 C   0  0  0  0  0  0  0  0  0  0  0  0
    5.0030    0.6360   21.1556 H   0  0  0  0  0  0  0  0  0  0  0  0
    4.8020    1.3119   19.0970 C   0  0  0  0  0  0  0  0  0  0  0  0
    3.8737    1.8478   19.2537 H   0  0  0  0  0  0  0  0  0  0  0  0
  1  2  1  0
  2  3  2  0
  3  4  1  0
  4  5  1  0
  4  6  2  0
  6  7  1  0
  7  8  1  0
  8  9  1  0
  8 10  1  0
 10 11  1  0
 11 12  1  0
 11 13  1  0
 11 14  1  0
 14 15  1  0
 14 16  1  0
 14 17  1  0
 17 18  1  0
 17 19  1  0
 19 20  1  0
 20 21  1  0
 20 22  1  0
 20 23  1  0
 19 24  1  0
 24 25  1  0
 24 26  1  0
 24 27  1  0
 17 28  1  0
 28 29  1  0
 28 30  1  0
 28 31  1  0
 31 32  1  0
 31 33  1  0
  7 34  1  0
 34 35  1  0
 34 36  1  0
 34 37  1  0
 37 38  1  0
 37 39  1  0
 37 40  1  0
 40 41  1  0
 40 42  1  0
  6 43  1  0
 43 44  1  0
 43 45  2  0
 45 46  1  0
 45  2  1  0
 40  7  1  0
 31 10  1  0
M  END
>  <cnnaffinity>  (1) 
-5.00876

>  <filename>  (1) 
CN(C)C1CCN(NC2(c3cccnc3)CCC2)CC1

$$$$
