
     RDKit          3D

 35 36  0  0  0  0  0  0  0  0999 V2000
    4.9354    1.7944   16.9844 H   0  0  0  0  0  0  0  0  0  0  0  0
    5.3986    1.2888   17.8308 C   0  0  0  0  0  0  0  0  0  0  0  0
    6.5601    0.6641   17.5849 N   0  0  0  0  0  0  0  0  0  0  0  0
    7.1708    0.0577   18.6118 C   0  0  0  0  0  0  0  0  0  0  0  0
    8.1136   -0.4283   18.3716 H   0  0  0  0  0  0  0  0  0  0  0  0
    6.6728    0.0326   19.9426 C   0  0  0  0  0  0  0  0  0  0  0  0
    7.3568   -0.6190   20.9978 N   0  0  0  0  0  0  0  0  0  0  0  0
    7.4027   -0.3353   22.3583 C   0  0  0  0  0  0  0  0  0  0  0  0
    6.8709    0.8326   22.7409 O   0  0  0  0  0  0  0  0  0  0  0  0
    6.9486    1.1430   24.1468 C   0  0  0  0  0  0  0  0  0  0  0  0
    6.4297    0.3594   24.7137 H   0  0  0  0  0  0  0  0  0  0  0  0
    8.0012    1.1551   24.4590 H   0  0  0  0  0  0  0  0  0  0  0  0
    6.2950    2.5115   24.3807 C   0  0  0  0  0  0  0  0  0  0  0  0
    6.8129    3.2737   23.7773 H   0  0  0  0  0  0  0  0  0  0  0  0
    5.2552    2.4876   24.0190 H   0  0  0  0  0  0  0  0  0  0  0  0
    6.2837    2.9584   25.7759 N   0  0  0  0  0  0  0  0  0  0  0  0
    7.5980    3.2254   26.3408 C   0  0  0  0  0  0  0  0  0  0  0  0
    8.1895    3.8377   25.6482 H   0  0  0  0  0  0  0  0  0  0  0  0
    8.1796    2.3131   26.5808 H   0  0  0  0  0  0  0  0  0  0  0  0
    7.4791    3.7946   27.2709 H   0  0  0  0  0  0  0  0  0  0  0  0
    5.4646    2.1508   26.6668 C   0  0  0  0  0  0  0  0  0  0  0  0
    5.3047    2.7001   27.6027 H   0  0  0  0  0  0  0  0  0  0  0  0
    4.4810    1.9674   26.2154 H   0  0  0  0  0  0  0  0  0  0  0  0
    5.9139    1.1720   26.9272 H   0  0  0  0  0  0  0  0  0  0  0  0
    7.9793   -1.1932   23.1108 N   0  0  0  0  0  0  0  0  0  0  0  0
    8.4184   -2.2898   22.2504 C   0  0  0  0  0  0  0  0  0  0  0  0
    9.5016   -2.4549   22.3415 H   0  0  0  0  0  0  0  0  0  0  0  0
    7.9266   -3.2289   22.5445 H   0  0  0  0  0  0  0  0  0  0  0  0
    8.0317   -1.8940   20.8095 C   0  0  0  0  0  0  0  0  0  0  0  0
    8.9020   -1.7860   20.1478 H   0  0  0  0  0  0  0  0  0  0  0  0
    7.3428   -2.6152   20.3556 H   0  0  0  0  0  0  0  0  0  0  0  0
    5.4408    0.6640   20.1667 C   0  0  0  0  0  0  0  0  0  0  0  0
    5.0211    0.6406   21.1663 H   0  0  0  0  0  0  0  0  0  0  0  0
    4.8037    1.3042   19.0974 C   0  0  0  0  0  0  0  0  0  0  0  0
    3.8701    1.8345   19.2436 H   0  0  0  0  0  0  0  0  0  0  0  0
  1  2  1  0
  2  3  2  0
  3  4  1  0
  4  5  1  0
  4  6  2  0
  6  7  1  0
  7  8  1  0
  8  9  1  0
  9 10  1  0
 10 11  1  0
 10 12  1  0
 10 13  1  0
 13 14  1  0
 13 15  1  0
 13 16  1  0
 16 17  1  0
 17 18  1  0
 17 19  1  0
 17 20  1  0
 16 21  1  0
 21 22  1  0
 21 23  1  0
 21 24  1  0
  8 25  2  0
 25 26  1  0
 26 27  1  0
 26 28  1  0
 26 29  1  0
 29 30  1  0
 29 31  1  0
  6 32  1  0
 32 33  1  0
 32 34  2  0
 34 35  1  0
 34  2  1  0
 29  7  1  0
M  END
>  <cnnaffinity>  (1) 
-4.24456

>  <filename>  (1) 
CN(C)CCOC1=NCCN1c1cccnc1

$$$$
