
     RDKit          3D

 36 38  0  0  0  0  0  0  0  0999 V2000
    4.9217    1.7809   16.9953 H   0  0  0  0  0  0  0  0  0  0  0  0
    5.4045    1.2948   17.8366 C   0  0  0  0  0  0  0  0  0  0  0  0
    6.5658    0.6730   17.5788 N   0  0  0  0  0  0  0  0  0  0  0  0
    7.1650    0.0559   18.6005 C   0  0  0  0  0  0  0  0  0  0  0  0
    8.1109   -0.4311   18.3768 H   0  0  0  0  0  0  0  0  0  0  0  0
    6.6513    0.0408   19.9031 C   0  0  0  0  0  0  0  0  0  0  0  0
    7.3928   -0.6721   20.9471 C   0  0  0  0  0  0  0  0  0  0  0  0
    7.6080   -1.9663   20.9389 N   0  0  0  0  0  0  0  0  0  0  0  0
    8.3180   -2.2305   22.0828 C   0  0  0  0  0  0  0  0  0  0  0  0
    8.6361   -3.2353   22.3328 H   0  0  0  0  0  0  0  0  0  0  0  0
    8.5644   -1.0781   22.7733 C   0  0  0  0  0  0  0  0  0  0  0  0
    9.1084   -0.8886   23.6894 H   0  0  0  0  0  0  0  0  0  0  0  0
    7.9607   -0.0686   22.0349 N   0  0  0  0  0  0  0  0  0  0  0  0
    7.9707    1.3573   22.3185 C   0  0  0  0  0  0  0  0  0  0  0  0
    8.8295    1.5334   22.9795 H   0  0  0  0  0  0  0  0  0  0  0  0
    8.1484    1.8862   21.3825 H   0  0  0  0  0  0  0  0  0  0  0  0
    6.7571    1.8607   22.9178 N   0  0  0  0  0  0  0  0  0  0  0  0
    6.1383    3.0505   22.4778 C   0  0  0  0  0  0  0  0  0  0  0  0
    4.7306    3.1669   22.4812 C   0  0  0  0  0  0  0  0  0  0  0  0
    4.1312    2.3279   22.8187 H   0  0  0  0  0  0  0  0  0  0  0  0
    4.1099    4.3421   22.0456 C   0  0  0  0  0  0  0  0  0  0  0  0
    3.0251    4.4117   22.0280 H   0  0  0  0  0  0  0  0  0  0  0  0
    4.8745    5.4347   21.6258 C   0  0  0  0  0  0  0  0  0  0  0  0
    4.3938    6.3347   21.2487 H   0  0  0  0  0  0  0  0  0  0  0  0
    6.2689    5.3334   21.6264 C   0  0  0  0  0  0  0  0  0  0  0  0
    6.8758    6.1634   21.2735 H   0  0  0  0  0  0  0  0  0  0  0  0
    6.8961    4.1604   22.0489 C   0  0  0  0  0  0  0  0  0  0  0  0
    7.9794    4.0935   22.0765 H   0  0  0  0  0  0  0  0  0  0  0  0
    6.2507    1.1914   24.1042 C   0  0  0  0  0  0  0  0  0  0  0  0
    6.9934    0.4888   24.4920 H   0  0  0  0  0  0  0  0  0  0  0  0
    5.3395    0.6137   23.9120 H   0  0  0  0  0  0  0  0  0  0  0  0
    6.0223    1.9068   24.8992 H   0  0  0  0  0  0  0  0  0  0  0  0
    5.4281    0.6727   20.1565 C   0  0  0  0  0  0  0  0  0  0  0  0
    4.9940    0.6433   21.1632 H   0  0  0  0  0  0  0  0  0  0  0  0
    4.7988    1.3193   19.0998 C   0  0  0  0  0  0  0  0  0  0  0  0
    3.8643    1.8483   19.2536 H   0  0  0  0  0  0  0  0  0  0  0  0
  1  2  1  0
  2  3  2  0
  3  4  1  0
  4  5  1  0
  4  6  2  0
  6  7  1  0
  7  8  2  0
  8  9  1  0
  9 10  1  0
  9 11  2  0
 11 12  1  0
 11 13  1  0
 13 14  1  0
 14 15  1  0
 14 16  1  0
 14 17  1  0
 17 18  1  0
 18 19  2  0
 19 20  1  0
 19 21  1  0
 21 22  1  0
 21 23  2  0
 23 24  1  0
 23 25  1  0
 25 26  1  0
 25 27  2  0
 27 28  1  0
 17 29  1  0
 29 30  1  0
 29 31  1  0
 29 32  1  0
  6 33  1  0
 33 34  1  0
 33 35  2  0
 35 36  1  0
 35  2  1  0
 13  7  1  0
 27 18  1  0
M  END
>  <cnnaffinity>  (1) 
-4.84714

>  <filename>  (1) 
CN(Cn1ccnc1-c1cccnc1)c1ccccc1

$$$$
