
     RDKit          3D

 34 34  0  0  0  0  0  0  0  0999 V2000
    4.9472    1.8041   16.9897 H   0  0  0  0  0  0  0  0  0  0  0  0
    5.3933    1.2803   17.8339 C   0  0  0  0  0  0  0  0  0  0  0  0
    6.5519    0.6530   17.5802 N   0  0  0  0  0  0  0  0  0  0  0  0
    7.1732    0.0573   18.5990 C   0  0  0  0  0  0  0  0  0  0  0  0
    8.1284   -0.4074   18.3598 H   0  0  0  0  0  0  0  0  0  0  0  0
    6.6707    0.0137   19.9135 C   0  0  0  0  0  0  0  0  0  0  0  0
    7.4695   -0.6585   20.9780 C   0  0  0  0  0  0  0  0  0  0  0  0
    9.0853   -0.5213   21.0547 S   0  0  0  0  0  0  0  0  0  0  0  0
    6.6585   -1.4017   22.0320 C   0  0  0  0  0  0  0  0  0  0  0  0
    6.5006   -0.7177   22.8847 H   0  0  0  0  0  0  0  0  0  0  0  0
    5.6766   -1.6149   21.5897 H   0  0  0  0  0  0  0  0  0  0  0  0
    7.2675   -2.5939   22.4629 O   0  0  0  0  0  0  0  0  0  0  0  0
    6.5967   -3.2492   23.5254 C   0  0  0  0  0  0  0  0  0  0  0  0
    6.4822   -2.5679   24.3905 H   0  0  0  0  0  0  0  0  0  0  0  0
    5.5793   -3.5587   23.2276 H   0  0  0  0  0  0  0  0  0  0  0  0
    7.4179   -4.4698   23.9309 C   0  0  0  0  0  0  0  0  0  0  0  0
    7.5740   -5.1124   23.0548 H   0  0  0  0  0  0  0  0  0  0  0  0
    6.8433   -5.0530   24.6644 H   0  0  0  0  0  0  0  0  0  0  0  0
    8.7809   -4.0802   24.5118 C   0  0  0  0  0  0  0  0  0  0  0  0
    8.6435   -3.3916   25.3772 H   0  0  0  0  0  0  0  0  0  0  0  0
    9.3288   -3.5207   23.7392 H   0  0  0  0  0  0  0  0  0  0  0  0
    9.5873   -5.2355   24.8880 N   0  0  0  0  0  0  0  0  0  0  0  0
    9.1711   -5.8497   26.1456 C   0  0  0  0  0  0  0  0  0  0  0  0
    8.1060   -6.1120   26.1454 H   0  0  0  0  0  0  0  0  0  0  0  0
    9.3547   -5.1860   27.0163 H   0  0  0  0  0  0  0  0  0  0  0  0
    9.7428   -6.7751   26.2843 H   0  0  0  0  0  0  0  0  0  0  0  0
   11.0004   -4.8835   24.9568 C   0  0  0  0  0  0  0  0  0  0  0  0
   11.3388   -4.5036   23.9878 H   0  0  0  0  0  0  0  0  0  0  0  0
   11.2052   -4.1063   25.7177 H   0  0  0  0  0  0  0  0  0  0  0  0
   11.5852   -5.7680   25.2183 H   0  0  0  0  0  0  0  0  0  0  0  0
    5.4325    0.6401   20.1526 C   0  0  0  0  0  0  0  0  0  0  0  0
    4.9790    0.6529   21.1446 H   0  0  0  0  0  0  0  0  0  0  0  0
    4.7937    1.2936   19.0957 C   0  0  0  0  0  0  0  0  0  0  0  0
    3.8699    1.8399   19.2313 H   0  0  0  0  0  0  0  0  0  0  0  0
  1  2  1  0
  2  3  2  0
  3  4  1  0
  4  5  1  0
  4  6  2  0
  6  7  1  0
  7  8  2  0
  7  9  1  0
  9 10  1  0
  9 11  1  0
  9 12  1  0
 12 13  1  0
 13 14  1  0
 13 15  1  0
 13 16  1  0
 16 17  1  0
 16 18  1  0
 16 19  1  0
 19 20  1  0
 19 21  1  0
 19 22  1  0
 22 23  1  0
 23 24  1  0
 23 25  1  0
 23 26  1  0
 22 27  1  0
 27 28  1  0
 27 29  1  0
 27 30  1  0
  6 31  1  0
 31 32  1  0
 31 33  2  0
 33 34  1  0
 33  2  1  0
M  END
>  <cnnaffinity>  (1) 
-3.76428

>  <filename>  (1) 
CN(C)CCCOCC(=S)c1cccnc1

$$$$
