
     RDKit          3D

 42 44  0  0  0  0  0  0  0  0999 V2000
   10.1224    6.1825   26.1670 H   0  0  0  0  0  0  0  0  0  0  0  0
   10.6180    5.7010   25.3249 C   0  0  0  0  0  0  0  0  0  0  0  0
   10.0793    4.5480   24.9249 N   0  0  0  0  0  0  0  0  0  0  0  0
   10.6878    3.9029   23.9159 C   0  0  0  0  0  0  0  0  0  0  0  0
   10.1627    2.6851   23.5410 N   0  0  0  0  0  0  0  0  0  0  0  0
    8.7795    2.2923   23.8721 C   0  0  0  0  0  0  0  0  0  0  0  0
    8.7464    1.7809   24.8432 H   0  0  0  0  0  0  0  0  0  0  0  0
    8.1537    3.1807   23.9619 H   0  0  0  0  0  0  0  0  0  0  0  0
    8.1673    1.3654   22.7948 C   0  0  0  0  0  0  0  0  0  0  0  0
    7.1448    1.1093   23.0853 H   0  0  0  0  0  0  0  0  0  0  0  0
    8.0796    1.9521   21.8661 H   0  0  0  0  0  0  0  0  0  0  0  0
    8.9269    0.1094   22.5676 N   0  0  0  0  0  0  0  0  0  0  0  0
    8.7478   -0.4006   21.2145 C   0  0  0  0  0  0  0  0  0  0  0  0
    9.1229    0.3278   20.4732 H   0  0  0  0  0  0  0  0  0  0  0  0
    9.3477   -1.3214   21.1168 H   0  0  0  0  0  0  0  0  0  0  0  0
    7.3832   -0.7070   20.8992 N   0  0  0  0  0  0  0  0  0  0  0  0
    6.6808    0.0091   19.9059 C   0  0  0  0  0  0  0  0  0  0  0  0
    7.1747    0.0807   18.5774 C   0  0  0  0  0  0  0  0  0  0  0  0
    8.1147   -0.4195   18.3564 H   0  0  0  0  0  0  0  0  0  0  0  0
    6.5550    0.6874   17.5579 N   0  0  0  0  0  0  0  0  0  0  0  0
    5.3930    1.3014   17.8295 C   0  0  0  0  0  0  0  0  0  0  0  0
    4.9098    1.7922   16.9879 H   0  0  0  0  0  0  0  0  0  0  0  0
    4.8117    1.3084   19.1019 C   0  0  0  0  0  0  0  0  0  0  0  0
    3.8805    1.8363   19.2590 H   0  0  0  0  0  0  0  0  0  0  0  0
    5.4474    0.6401   20.1573 C   0  0  0  0  0  0  0  0  0  0  0  0
    5.0279    0.6165   21.1645 H   0  0  0  0  0  0  0  0  0  0  0  0
    6.6891   -1.6973   21.6902 C   0  0  0  0  0  0  0  0  0  0  0  0
    6.2045   -2.4412   21.0424 H   0  0  0  0  0  0  0  0  0  0  0  0
    5.9054   -1.2605   22.3146 H   0  0  0  0  0  0  0  0  0  0  0  0
    7.3890   -2.2094   22.3600 H   0  0  0  0  0  0  0  0  0  0  0  0
   10.3453    0.2485   22.9632 C   0  0  0  0  0  0  0  0  0  0  0  0
   10.9560   -0.4693   22.4062 H   0  0  0  0  0  0  0  0  0  0  0  0
   10.4417   -0.0377   24.0184 H   0  0  0  0  0  0  0  0  0  0  0  0
   10.9354    1.6761   22.7914 C   0  0  0  0  0  0  0  0  0  0  0  0
   11.9720    1.6533   23.1400 H   0  0  0  0  0  0  0  0  0  0  0  0
   10.9606    1.9087   21.7158 H   0  0  0  0  0  0  0  0  0  0  0  0
   11.8209    4.4416   23.2537 C   0  0  0  0  0  0  0  0  0  0  0  0
   12.2351    3.9008   22.4166 H   0  0  0  0  0  0  0  0  0  0  0  0
   12.3389    5.6635   23.6669 C   0  0  0  0  0  0  0  0  0  0  0  0
   13.2038    6.1017   23.1631 H   0  0  0  0  0  0  0  0  0  0  0  0
   11.7268    6.3094   24.7432 C   0  0  0  0  0  0  0  0  0  0  0  0
   12.0855    7.2626   25.1106 H   0  0  0  0  0  0  0  0  0  0  0  0
  1  2  1  0
  2  3  2  0
  3  4  1  0
  4  5  1  0
  5  6  1  0
  6  7  1  0
  6  8  1  0
  6  9  1  0
  9 10  1  0
  9 11  1  0
  9 12  1  0
 12 13  1  0
 13 14  1  0
 13 15  1  0
 13 16  1  0
 16 17  1  0
 17 18  2  0
 18 19  1  0
 18 20  1  0
 20 21  2  0
 21 22  1  0
 21 23  1  0
 23 24  1  0
 23 25  2  0
 25 26  1  0
 16 27  1  0
 27 28  1  0
 27 29  1  0
 27 30  1  0
 12 31  1  0
 31 32  1  0
 31 33  1  0
 31 34  1  0
 34 35  1  0
 34 36  1  0
  4 37  2  0
 37 38  1  0
 37 39  1  0
 39 40  1  0
 39 41  2  0
 41 42  1  0
 41  2  1  0
 34  5  1  0
 25 17  1  0
M  END
>  <cnnaffinity>  (1) 
-4.96824

>  <filename>  (1) 
CN(CN1CCN(c2ccccn2)CC1)c1cccnc1

$$$$
