
     RDKit          3D

 41 43  0  0  0  0  0  0  0  0999 V2000
    4.9565    1.8063   17.0076 H   0  0  0  0  0  0  0  0  0  0  0  0
    5.4283    1.2880   17.8376 C   0  0  0  0  0  0  0  0  0  0  0  0
    6.5750    0.6446   17.5651 N   0  0  0  0  0  0  0  0  0  0  0  0
    7.1953    0.0135   18.5682 C   0  0  0  0  0  0  0  0  0  0  0  0
    8.1157   -0.5129   18.3073 H   0  0  0  0  0  0  0  0  0  0  0  0
    6.7125   -0.0030   19.8911 C   0  0  0  0  0  0  0  0  0  0  0  0
    7.3965   -0.6954   20.9318 N   0  0  0  0  0  0  0  0  0  0  0  0
    8.7439   -0.8833   21.1414 C   0  0  0  0  0  0  0  0  0  0  0  0
    9.5042   -0.4643   20.4909 H   0  0  0  0  0  0  0  0  0  0  0  0
    9.0022   -1.6140   22.1901 N   0  0  0  0  0  0  0  0  0  0  0  0
    7.7811   -1.9114   22.7295 C   0  0  0  0  0  0  0  0  0  0  0  0
    7.6612   -2.6836   23.8637 N   0  0  0  0  0  0  0  0  0  0  0  0
    8.8528   -3.3123   24.4345 C   0  0  0  0  0  0  0  0  0  0  0  0
    9.5694   -3.5191   23.6337 H   0  0  0  0  0  0  0  0  0  0  0  0
    9.3550   -2.6302   25.1447 H   0  0  0  0  0  0  0  0  0  0  0  0
    8.4321   -4.5925   25.1405 C   0  0  0  0  0  0  0  0  0  0  0  0
    7.9956   -5.2599   24.3888 H   0  0  0  0  0  0  0  0  0  0  0  0
    9.2886   -5.1267   25.5696 H   0  0  0  0  0  0  0  0  0  0  0  0
    7.3575   -4.2893   26.2085 C   0  0  0  0  0  0  0  0  0  0  0  0
    7.7820   -3.5586   26.9201 H   0  0  0  0  0  0  0  0  0  0  0  0
    6.8978   -5.4476   26.9739 N   0  0  0  0  0  0  0  0  0  0  0  0
    6.5990   -6.6148   26.1594 C   0  0  0  0  0  0  0  0  0  0  0  0
    6.0049   -6.3711   25.2719 H   0  0  0  0  0  0  0  0  0  0  0  0
    6.0192   -7.3291   26.7486 H   0  0  0  0  0  0  0  0  0  0  0  0
    7.5386   -7.1099   25.8548 H   0  0  0  0  0  0  0  0  0  0  0  0
    7.7915   -5.8757   28.0434 C   0  0  0  0  0  0  0  0  0  0  0  0
    7.9319   -5.0882   28.7823 H   0  0  0  0  0  0  0  0  0  0  0  0
    7.3259   -6.7083   28.5866 H   0  0  0  0  0  0  0  0  0  0  0  0
    8.7869   -6.2062   27.6830 H   0  0  0  0  0  0  0  0  0  0  0  0
    6.1598   -3.6195   25.5252 C   0  0  0  0  0  0  0  0  0  0  0  0
    5.7528   -4.3037   24.7739 H   0  0  0  0  0  0  0  0  0  0  0  0
    5.3586   -3.4261   26.2429 H   0  0  0  0  0  0  0  0  0  0  0  0
    6.6138   -2.3495   24.8268 C   0  0  0  0  0  0  0  0  0  0  0  0
    5.7763   -1.8682   24.3144 H   0  0  0  0  0  0  0  0  0  0  0  0
    6.9806   -1.6196   25.5701 H   0  0  0  0  0  0  0  0  0  0  0  0
    6.7796   -1.3794   21.9697 C   0  0  0  0  0  0  0  0  0  0  0  0
    5.7176   -1.5327   22.0492 H   0  0  0  0  0  0  0  0  0  0  0  0
    5.5006    0.6584   20.1586 C   0  0  0  0  0  0  0  0  0  0  0  0
    5.0923    0.6783   21.1696 H   0  0  0  0  0  0  0  0  0  0  0  0
    4.8477    1.3072   19.1087 C   0  0  0  0  0  0  0  0  0  0  0  0
    3.9048    1.8202   19.2667 H   0  0  0  0  0  0  0  0  0  0  0  0
  1  2  1  0
  2  3  2  0
  3  4  1  0
  4  5  1  0
  4  6  2  0
  6  7  1  0
  7  8  1  0
  8  9  1  0
  8 10  2  0
 10 11  1  0
 11 12  1  0
 12 13  1  0
 13 14  1  0
 13 15  1  0
 13 16  1  0
 16 17  1  0
 16 18  1  0
 16 19  1  0
 19 20  1  0
 19 21  1  0
 21 22  1  0
 22 23  1  0
 22 24  1  0
 22 25  1  0
 21 26  1  0
 26 27  1  0
 26 28  1  0
 26 29  1  0
 19 30  1  0
 30 31  1  0
 30 32  1  0
 30 33  1  0
 33 34  1  0
 33 35  1  0
 11 36  2  0
 36 37  1  0
  6 38  1  0
 38 39  1  0
 38 40  2  0
 40 41  1  0
 40  2  1  0
 36  7  1  0
 33 12  1  0
M  END
>  <cnnaffinity>  (1) 
-4.9612

>  <filename>  (1) 
CN(C)C1CCN(c2cn(-c3cccnc3)cn2)CC1

$$$$
