
     RDKit          3D

 35 37  0  0  0  0  0  0  0  0999 V2000
    4.9334    1.8029   16.9751 H   0  0  0  0  0  0  0  0  0  0  0  0
    5.3958    1.3024   17.8268 C   0  0  0  0  0  0  0  0  0  0  0  0
    6.5585    0.6782   17.5793 N   0  0  0  0  0  0  0  0  0  0  0  0
    7.1591    0.0565   18.5984 C   0  0  0  0  0  0  0  0  0  0  0  0
    8.1002   -0.4425   18.3710 H   0  0  0  0  0  0  0  0  0  0  0  0
    6.6498    0.0278   19.9029 C   0  0  0  0  0  0  0  0  0  0  0  0
    7.3995   -0.7113   20.9224 C   0  0  0  0  0  0  0  0  0  0  0  0
    7.9209   -1.8995   20.7619 N   0  0  0  0  0  0  0  0  0  0  0  0
    8.4726   -2.2858   21.9589 N   0  0  0  0  0  0  0  0  0  0  0  0
    8.2912   -1.3061   22.7975 C   0  0  0  0  0  0  0  0  0  0  0  0
    8.6298   -1.2905   23.8247 H   0  0  0  0  0  0  0  0  0  0  0  0
    7.6193   -0.2685   22.2042 N   0  0  0  0  0  0  0  0  0  0  0  0
    7.3258    1.0331   22.8039 C   0  0  0  0  0  0  0  0  0  0  0  0
    6.4137    0.9422   23.4128 H   0  0  0  0  0  0  0  0  0  0  0  0
    7.1454    1.7496   21.9945 H   0  0  0  0  0  0  0  0  0  0  0  0
    8.3789    1.5074   23.6524 N   0  0  0  0  0  0  0  0  0  0  0  0
    9.5036    2.1456   23.1180 C   0  0  0  0  0  0  0  0  0  0  0  0
   10.3502    2.9127   23.9422 C   0  0  0  0  0  0  0  0  0  0  0  0
   10.1023    2.9886   24.9916 H   0  0  0  0  0  0  0  0  0  0  0  0
   11.4790    3.5498   23.4223 C   0  0  0  0  0  0  0  0  0  0  0  0
   12.1104    4.1431   24.0798 H   0  0  0  0  0  0  0  0  0  0  0  0
   11.7896    3.4239   22.0678 C   0  0  0  0  0  0  0  0  0  0  0  0
   12.6484    3.9405   21.6474 H   0  0  0  0  0  0  0  0  0  0  0  0
   10.9673    2.6539   21.2396 C   0  0  0  0  0  0  0  0  0  0  0  0
   11.2039    2.5907   20.1818 H   0  0  0  0  0  0  0  0  0  0  0  0
    9.8212    2.0349   21.7474 C   0  0  0  0  0  0  0  0  0  0  0  0
    9.1541    1.4555   21.1174 H   0  0  0  0  0  0  0  0  0  0  0  0
    8.2570    1.2955   25.0883 C   0  0  0  0  0  0  0  0  0  0  0  0
    7.4148    0.6206   25.2832 H   0  0  0  0  0  0  0  0  0  0  0  0
    9.1700    0.8408   25.4989 H   0  0  0  0  0  0  0  0  0  0  0  0
    8.0721    2.2324   25.6381 H   0  0  0  0  0  0  0  0  0  0  0  0
    5.4234    0.6664   20.1452 C   0  0  0  0  0  0  0  0  0  0  0  0
    4.9697    0.6402   21.1368 H   0  0  0  0  0  0  0  0  0  0  0  0
    4.7914    1.3194   19.0877 C   0  0  0  0  0  0  0  0  0  0  0  0
    3.8584    1.8499   19.2301 H   0  0  0  0  0  0  0  0  0  0  0  0
  1  2  1  0
  2  3  2  0
  3  4  1  0
  4  5  1  0
  4  6  2  0
  6  7  1  0
  7  8  2  0
  8  9  1  0
  9 10  2  0
 10 11  1  0
 10 12  1  0
 12 13  1  0
 13 14  1  0
 13 15  1  0
 13 16  1  0
 16 17  1  0
 17 18  2  0
 18 19  1  0
 18 20  1  0
 20 21  1  0
 20 22  2  0
 22 23  1  0
 22 24  1  0
 24 25  1  0
 24 26  2  0
 26 27  1  0
 16 28  1  0
 28 29  1  0
 28 30  1  0
 28 31  1  0
  6 32  1  0
 32 33  1  0
 32 34  2  0
 34 35  1  0
 34  2  1  0
 12  7  1  0
 26 17  1  0
M  END
>  <cnnaffinity>  (1) 
-5.15302

>  <filename>  (1) 
CN(Cn1cnnc1-c1cccnc1)c1ccccc1

$$$$
