
     RDKit          3D

 42 44  0  0  0  0  0  0  0  0999 V2000
    9.1448   -0.2452   20.0230 H   0  0  0  0  0  0  0  0  0  0  0  0
    8.5297   -0.6304   20.8334 C   0  0  0  0  0  0  0  0  0  0  0  0
    9.1870   -1.1983   21.8523 N   0  0  0  0  0  0  0  0  0  0  0  0
    8.4378   -1.6160   22.9007 C   0  0  0  0  0  0  0  0  0  0  0  0
    9.1413   -2.1721   23.9527 N   0  0  0  0  0  0  0  0  0  0  0  0
    8.6164   -2.1821   25.3198 C   0  0  0  0  0  0  0  0  0  0  0  0
    7.8923   -1.3746   25.4650 H   0  0  0  0  0  0  0  0  0  0  0  0
    9.4430   -1.9676   26.0119 H   0  0  0  0  0  0  0  0  0  0  0  0
    8.0344   -3.5578   25.6406 C   0  0  0  0  0  0  0  0  0  0  0  0
    7.1016   -3.6925   25.0797 H   0  0  0  0  0  0  0  0  0  0  0  0
    7.7699   -3.6328   26.6984 H   0  0  0  0  0  0  0  0  0  0  0  0
    9.0254   -4.6874   25.2654 C   0  0  0  0  0  0  0  0  0  0  0  0
    8.5640   -5.2380   24.4312 H   0  0  0  0  0  0  0  0  0  0  0  0
    9.1781   -5.6577   26.3507 N   0  0  0  0  0  0  0  0  0  0  0  0
    9.8423   -5.1911   27.5702 C   0  0  0  0  0  0  0  0  0  0  0  0
    9.7163   -4.1140   27.7343 H   0  0  0  0  0  0  0  0  0  0  0  0
    9.4265   -5.7118   28.4401 H   0  0  0  0  0  0  0  0  0  0  0  0
   10.9282   -5.4014   27.5656 H   0  0  0  0  0  0  0  0  0  0  0  0
    9.7427   -6.9307   25.9178 C   0  0  0  0  0  0  0  0  0  0  0  0
   10.8284   -7.0144   26.1144 H   0  0  0  0  0  0  0  0  0  0  0  0
    9.2490   -7.7635   26.4253 H   0  0  0  0  0  0  0  0  0  0  0  0
    9.5935   -7.0659   24.8443 H   0  0  0  0  0  0  0  0  0  0  0  0
   10.3818   -4.1711   24.7465 C   0  0  0  0  0  0  0  0  0  0  0  0
   10.9374   -3.7106   25.5641 H   0  0  0  0  0  0  0  0  0  0  0  0
   10.9794   -5.0260   24.4175 H   0  0  0  0  0  0  0  0  0  0  0  0
   10.1754   -3.1718   23.6155 C   0  0  0  0  0  0  0  0  0  0  0  0
    9.8511   -3.7316   22.7277 H   0  0  0  0  0  0  0  0  0  0  0  0
   11.1130   -2.6658   23.3451 H   0  0  0  0  0  0  0  0  0  0  0  0
    7.0070   -1.4960   22.8485 C   0  0  0  0  0  0  0  0  0  0  0  0
    6.4015   -1.8608   23.6716 H   0  0  0  0  0  0  0  0  0  0  0  0
    6.3581   -0.9621   21.7989 N   0  0  0  0  0  0  0  0  0  0  0  0
    7.1150   -0.5143   20.7676 C   0  0  0  0  0  0  0  0  0  0  0  0
    6.4205    0.1218   19.6150 C   0  0  0  0  0  0  0  0  0  0  0  0
    6.9886    0.0696   18.3260 C   0  0  0  0  0  0  0  0  0  0  0  0
    7.8819   -0.5259   18.1402 H   0  0  0  0  0  0  0  0  0  0  0  0
    6.5058    0.7103   17.2580 N   0  0  0  0  0  0  0  0  0  0  0  0
    5.4038    1.4517   17.4303 C   0  0  0  0  0  0  0  0  0  0  0  0
    5.0444    1.9930   16.5561 H   0  0  0  0  0  0  0  0  0  0  0  0
    4.7199    1.5323   18.6492 C   0  0  0  0  0  0  0  0  0  0  0  0
    3.8292    2.1449   18.7184 H   0  0  0  0  0  0  0  0  0  0  0  0
    5.2230    0.8433   19.7521 C   0  0  0  0  0  0  0  0  0  0  0  0
    4.7010    0.8690   20.7101 H   0  0  0  0  0  0  0  0  0  0  0  0
  1  2  1  0
  2  3  2  0
  3  4  1  0
  4  5  1  0
  5  6  1  0
  6  7  1  0
  6  8  1  0
  6  9  1  0
  9 10  1  0
  9 11  1  0
  9 12  1  0
 12 13  1  0
 12 14  1  0
 14 15  1  0
 15 16  1  0
 15 17  1  0
 15 18  1  0
 14 19  1  0
 19 20  1  0
 19 21  1  0
 19 22  1  0
 12 23  1  0
 23 24  1  0
 23 25  1  0
 23 26  1  0
 26 27  1  0
 26 28  1  0
  4 29  2  0
 29 30  1  0
 29 31  1  0
 31 32  2  0
 32 33  1  0
 33 34  2  0
 34 35  1  0
 34 36  1  0
 36 37  2  0
 37 38  1  0
 37 39  1  0
 39 40  1  0
 39 41  2  0
 41 42  1  0
 32  2  1  0
 41 33  1  0
 26  5  1  0
M  END
>  <cnnaffinity>  (1) 
-5.17711

>  <filename>  (1) 
CN(C)C1CCN(c2cnc(-c3cccnc3)cn2)CC1

$$$$
