
     RDKit          3D

 35 37  0  0  0  0  0  0  0  0999 V2000
    4.9669    1.8133   17.0073 H   0  0  0  0  0  0  0  0  0  0  0  0
    5.3975    1.2653   17.8418 C   0  0  0  0  0  0  0  0  0  0  0  0
    6.5473    0.6173   17.5995 N   0  0  0  0  0  0  0  0  0  0  0  0
    7.1287   -0.0183   18.6259 C   0  0  0  0  0  0  0  0  0  0  0  0
    8.0885   -0.4982   18.4167 H   0  0  0  0  0  0  0  0  0  0  0  0
    6.5984   -0.0792   19.9349 C   0  0  0  0  0  0  0  0  0  0  0  0
    7.3211   -0.7013   20.9723 N   0  0  0  0  0  0  0  0  0  0  0  0
    6.7254   -1.7459   21.6824 N   0  0  0  0  0  0  0  0  0  0  0  0
    5.8228   -1.5337   22.0905 H   0  0  0  0  0  0  0  0  0  0  0  0
    7.3740   -2.7424   22.3811 C   0  0  0  0  0  0  0  0  0  0  0  0
    8.5387   -3.0616   22.2234 O   0  0  0  0  0  0  0  0  0  0  0  0
    6.5023   -3.4263   23.3685 C   0  0  0  0  0  0  0  0  0  0  0  0
    5.2986   -3.9421   22.9534 C   0  0  0  0  0  0  0  0  0  0  0  0
    4.9215   -3.7389   21.9535 H   0  0  0  0  0  0  0  0  0  0  0  0
    4.5268   -4.7688   23.7022 N   0  0  0  0  0  0  0  0  0  0  0  0
    4.9534   -5.0646   24.9147 C   0  0  0  0  0  0  0  0  0  0  0  0
    4.3436   -5.7583   25.4923 H   0  0  0  0  0  0  0  0  0  0  0  0
    6.1623   -4.5676   25.4928 C   0  0  0  0  0  0  0  0  0  0  0  0
    6.6106   -4.9137   26.8049 C   0  0  0  0  0  0  0  0  0  0  0  0
    6.0254   -5.5987   27.4124 H   0  0  0  0  0  0  0  0  0  0  0  0
    7.7921   -4.4040   27.2903 C   0  0  0  0  0  0  0  0  0  0  0  0
    8.1378   -4.6729   28.2840 H   0  0  0  0  0  0  0  0  0  0  0  0
    8.5907   -3.5387   26.4966 C   0  0  0  0  0  0  0  0  0  0  0  0
    9.5280   -3.1557   26.8935 H   0  0  0  0  0  0  0  0  0  0  0  0
    8.1952   -3.2109   25.2181 C   0  0  0  0  0  0  0  0  0  0  0  0
    8.8272   -2.6019   24.5806 H   0  0  0  0  0  0  0  0  0  0  0  0
    6.9717   -3.7137   24.6867 C   0  0  0  0  0  0  0  0  0  0  0  0
    8.7426   -0.4225   21.1730 C   0  0  0  0  0  0  0  0  0  0  0  0
    8.9587    0.5769   20.7869 H   0  0  0  0  0  0  0  0  0  0  0  0
    9.3950   -1.1608   20.6894 H   0  0  0  0  0  0  0  0  0  0  0  0
    8.9642   -0.4302   22.2440 H   0  0  0  0  0  0  0  0  0  0  0  0
    5.3868    0.6100   20.1626 C   0  0  0  0  0  0  0  0  0  0  0  0
    4.9684    0.6477   21.1688 H   0  0  0  0  0  0  0  0  0  0  0  0
    4.7837    1.2849   19.0986 C   0  0  0  0  0  0  0  0  0  0  0  0
    3.8664    1.8480   19.2387 H   0  0  0  0  0  0  0  0  0  0  0  0
  1  2  1  0
  2  3  2  0
  3  4  1  0
  4  5  1  0
  4  6  2  0
  6  7  1  0
  7  8  1  0
  8  9  1  0
  8 10  1  0
 10 11  2  0
 10 12  1  0
 12 13  2  0
 13 14  1  0
 13 15  1  0
 15 16  2  0
 16 17  1  0
 16 18  1  0
 18 19  2  0
 19 20  1  0
 19 21  1  0
 21 22  1  0
 21 23  2  0
 23 24  1  0
 23 25  1  0
 25 26  1  0
 25 27  2  0
  7 28  1  0
 28 29  1  0
 28 30  1  0
 28 31  1  0
  6 32  1  0
 32 33  1  0
 32 34  2  0
 34 35  1  0
 34  2  1  0
 27 12  1  0
 27 18  1  0
M  END
>  <cnnaffinity>  (1) 
-5.17188

>  <filename>  (1) 
CN(NC(=O)c1cncc2ccccc12)c1cccnc1

$$$$
