
     RDKit          3D

 32 33  0  0  0  0  0  0  0  0999 V2000
    5.1906    1.9365   16.5878 H   0  0  0  0  0  0  0  0  0  0  0  0
    5.5732    1.4885   17.5079 C   0  0  0  0  0  0  0  0  0  0  0  0
    6.7494    0.8507   17.4115 N   0  0  0  0  0  0  0  0  0  0  0  0
    7.2626    0.3202   18.5258 C   0  0  0  0  0  0  0  0  0  0  0  0
    8.2432   -0.1442   18.4424 H   0  0  0  0  0  0  0  0  0  0  0  0
    6.6199    0.3465   19.7676 C   0  0  0  0  0  0  0  0  0  0  0  0
    7.3574   -0.3171   20.8867 C   0  0  0  0  0  0  0  0  0  0  0  0
    8.5590   -0.5063   20.8541 O   0  0  0  0  0  0  0  0  0  0  0  0
    6.5527   -0.7083   21.9376 N   0  0  0  0  0  0  0  0  0  0  0  0
    5.5593   -0.7190   21.7810 H   0  0  0  0  0  0  0  0  0  0  0  0
    7.0110   -1.4351   23.0338 N   0  0  0  0  0  0  0  0  0  0  0  0
    6.7819   -2.8251   23.1456 C   0  0  0  0  0  0  0  0  0  0  0  0
    5.7771   -3.3790   22.7320 O   0  0  0  0  0  0  0  0  0  0  0  0
    7.9201   -3.5775   23.7956 C   0  0  0  0  0  0  0  0  0  0  0  0
    9.2584   -3.2196   23.5353 C   0  0  0  0  0  0  0  0  0  0  0  0
    9.4862   -2.4020   22.8447 H   0  0  0  0  0  0  0  0  0  0  0  0
   10.2950   -3.8994   24.1712 C   0  0  0  0  0  0  0  0  0  0  0  0
   11.3341   -3.6493   24.0187 H   0  0  0  0  0  0  0  0  0  0  0  0
    9.9934   -4.9454   25.0379 C   0  0  0  0  0  0  0  0  0  0  0  0
   11.0041   -5.5715   25.6555 F   0  0  0  0  0  0  0  0  0  0  0  0
    8.6854   -5.3507   25.2771 C   0  0  0  0  0  0  0  0  0  0  0  0
    8.4848   -6.1901   25.9326 H   0  0  0  0  0  0  0  0  0  0  0  0
    7.6480   -4.6562   24.6564 C   0  0  0  0  0  0  0  0  0  0  0  0
    6.6173   -4.9427   24.8493 H   0  0  0  0  0  0  0  0  0  0  0  0
    7.5923   -0.6078   24.0945 C   0  0  0  0  0  0  0  0  0  0  0  0
    6.8082   -0.0754   24.6488 H   0  0  0  0  0  0  0  0  0  0  0  0
    8.1622   -1.2237   24.7957 H   0  0  0  0  0  0  0  0  0  0  0  0
    8.2770    0.1211   23.6445 H   0  0  0  0  0  0  0  0  0  0  0  0
    5.3924    1.0227   19.8650 C   0  0  0  0  0  0  0  0  0  0  0  0
    4.8783    1.1531   20.8219 H   0  0  0  0  0  0  0  0  0  0  0  0
    4.8653    1.6021   18.7104 C   0  0  0  0  0  0  0  0  0  0  0  0
    3.9246    2.1420   18.7216 H   0  0  0  0  0  0  0  0  0  0  0  0
  1  2  1  0
  2  3  2  0
  3  4  1  0
  4  5  1  0
  4  6  2  0
  6  7  1  0
  7  8  2  0
  7  9  1  0
  9 10  1  0
  9 11  1  0
 11 12  1  0
 12 13  2  0
 12 14  1  0
 14 15  2  0
 15 16  1  0
 15 17  1  0
 17 18  1  0
 17 19  2  0
 19 20  1  0
 19 21  1  0
 21 22  1  0
 21 23  2  0
 23 24  1  0
 11 25  1  0
 25 26  1  0
 25 27  1  0
 25 28  1  0
  6 29  1  0
 29 30  1  0
 29 31  2  0
 31 32  1  0
 31  2  1  0
 23 14  1  0
M  END
>  <cnnaffinity>  (1) 
-4.70158

>  <filename>  (1) 
CN(NC(=O)c1cccnc1)C(=O)c1ccc(F)cc1

$$$$
