
     RDKit          3D

 35 37  0  0  0  0  0  0  0  0999 V2000
    5.0269    1.7658   17.0163 H   0  0  0  0  0  0  0  0  0  0  0  0
    5.4425    1.2442   17.8764 C   0  0  0  0  0  0  0  0  0  0  0  0
    6.5852    0.5792   17.6586 N   0  0  0  0  0  0  0  0  0  0  0  0
    7.1266   -0.0571   18.6979 C   0  0  0  0  0  0  0  0  0  0  0  0
    8.0708   -0.5681   18.5274 H   0  0  0  0  0  0  0  0  0  0  0  0
    6.5665   -0.0895   19.9791 C   0  0  0  0  0  0  0  0  0  0  0  0
    7.4099   -0.8025   20.9850 C   0  0  0  0  0  0  0  0  0  0  0  0
    8.5718   -1.1096   20.7569 O   0  0  0  0  0  0  0  0  0  0  0  0
    6.8079   -1.0504   22.1785 N   0  0  0  0  0  0  0  0  0  0  0  0
    5.8187   -0.8818   22.2599 H   0  0  0  0  0  0  0  0  0  0  0  0
    7.4985   -1.5189   23.2841 N   0  0  0  0  0  0  0  0  0  0  0  0
    6.8194   -2.5148   24.0162 C   0  0  0  0  0  0  0  0  0  0  0  0
    6.2667   -2.2458   25.2508 C   0  0  0  0  0  0  0  0  0  0  0  0
    6.3118   -1.2328   25.6502 H   0  0  0  0  0  0  0  0  0  0  0  0
    5.6682   -3.1697   26.0528 N   0  0  0  0  0  0  0  0  0  0  0  0
    5.5802   -4.4068   25.6097 C   0  0  0  0  0  0  0  0  0  0  0  0
    5.1356   -5.1424   26.2820 H   0  0  0  0  0  0  0  0  0  0  0  0
    6.0448   -4.8248   24.3218 C   0  0  0  0  0  0  0  0  0  0  0  0
    5.8867   -6.1655   23.8536 C   0  0  0  0  0  0  0  0  0  0  0  0
    5.3453   -6.8820   24.4716 H   0  0  0  0  0  0  0  0  0  0  0  0
    6.4483   -6.5486   22.6585 C   0  0  0  0  0  0  0  0  0  0  0  0
    6.3668   -7.5826   22.3326 H   0  0  0  0  0  0  0  0  0  0  0  0
    7.1603   -5.6146   21.8601 C   0  0  0  0  0  0  0  0  0  0  0  0
    7.6204   -5.9432   20.9323 H   0  0  0  0  0  0  0  0  0  0  0  0
    7.2829   -4.2996   22.2658 C   0  0  0  0  0  0  0  0  0  0  0  0
    7.8270   -3.5762   21.6631 H   0  0  0  0  0  0  0  0  0  0  0  0
    6.7171   -3.8619   23.5034 C   0  0  0  0  0  0  0  0  0  0  0  0
    8.3167   -0.5127   23.9518 C   0  0  0  0  0  0  0  0  0  0  0  0
    7.7127    0.3202   24.3454 H   0  0  0  0  0  0  0  0  0  0  0  0
    9.0348   -0.1216   23.2261 H   0  0  0  0  0  0  0  0  0  0  0  0
    8.8715   -1.0020   24.7550 H   0  0  0  0  0  0  0  0  0  0  0  0
    5.3539    0.5927   20.1938 C   0  0  0  0  0  0  0  0  0  0  0  0
    4.8563    0.6367   21.1673 H   0  0  0  0  0  0  0  0  0  0  0  0
    4.7885    1.2667   19.1132 C   0  0  0  0  0  0  0  0  0  0  0  0
    3.8605    1.8203   19.2122 H   0  0  0  0  0  0  0  0  0  0  0  0
  1  2  1  0
  2  3  2  0
  3  4  1  0
  4  5  1  0
  4  6  2  0
  6  7  1  0
  7  8  2  0
  7  9  1  0
  9 10  1  0
  9 11  1  0
 11 12  1  0
 12 13  2  0
 13 14  1  0
 13 15  1  0
 15 16  2  0
 16 17  1  0
 16 18  1  0
 18 19  2  0
 19 20  1  0
 19 21  1  0
 21 22  1  0
 21 23  2  0
 23 24  1  0
 23 25  1  0
 25 26  1  0
 25 27  2  0
 11 28  1  0
 28 29  1  0
 28 30  1  0
 28 31  1  0
  6 32  1  0
 32 33  1  0
 32 34  2  0
 34 35  1  0
 34  2  1  0
 27 12  1  0
 27 18  1  0
M  END
>  <cnnaffinity>  (1) 
-5.24401

>  <filename>  (1) 
CN(NC(=O)c1cccnc1)c1cncc2ccccc12

$$$$
