
     RDKit          3D

 27 27  0  0  0  0  0  0  0  0999 V2000
    4.9710    1.7841   17.0289 H   0  0  0  0  0  0  0  0  0  0  0  0
    5.4196    1.2747   17.8807 C   0  0  0  0  0  0  0  0  0  0  0  0
    6.5665    0.6182   17.6518 N   0  0  0  0  0  0  0  0  0  0  0  0
    7.1445   -0.0001   18.6902 C   0  0  0  0  0  0  0  0  0  0  0  0
    8.0782   -0.5190   18.4742 H   0  0  0  0  0  0  0  0  0  0  0  0
    6.6251   -0.0167   20.0090 C   0  0  0  0  0  0  0  0  0  0  0  0
    7.2914   -0.6718   21.0540 N   0  0  0  0  0  0  0  0  0  0  0  0
    6.5420   -1.1725   22.1125 N   0  0  0  0  0  0  0  0  0  0  0  0
    6.2460   -2.1385   22.0295 H   0  0  0  0  0  0  0  0  0  0  0  0
    6.8630   -0.9504   23.4295 C   0  0  0  0  0  0  0  0  0  0  0  0
    7.5695   -0.0899   23.9068 O   0  0  0  0  0  0  0  0  0  0  0  0
    6.2575   -1.9670   24.1762 N   0  0  0  0  0  0  0  0  0  0  0  0
    5.2508   -1.9155   24.0967 H   0  0  0  0  0  0  0  0  0  0  0  0
    6.4260   -1.7749   25.7833 S   0  0  0  0  0  0  0  0  0  0  0  0
    7.7806   -1.7131   26.2461 O   0  0  0  0  0  0  0  0  0  0  0  0
    5.4281   -2.6240   26.3724 O   0  0  0  0  0  0  0  0  0  0  0  0
    5.8593   -0.2466   25.8837 N   0  0  0  0  0  0  0  0  0  0  0  0
    6.6586    0.2399   25.4778 H   0  0  0  0  0  0  0  0  0  0  0  0
    5.8909   -0.1302   26.8882 H   0  0  0  0  0  0  0  0  0  0  0  0
    8.7299   -0.9087   21.0589 C   0  0  0  0  0  0  0  0  0  0  0  0
    9.0733   -1.0347   22.0935 H   0  0  0  0  0  0  0  0  0  0  0  0
    8.9940   -1.7953   20.4644 H   0  0  0  0  0  0  0  0  0  0  0  0
    9.2537   -0.0414   20.6467 H   0  0  0  0  0  0  0  0  0  0  0  0
    5.4077    0.6663   20.2181 C   0  0  0  0  0  0  0  0  0  0  0  0
    4.9729    0.6758   21.2160 H   0  0  0  0  0  0  0  0  0  0  0  0
    4.8122    1.3199   19.1406 C   0  0  0  0  0  0  0  0  0  0  0  0
    3.8858    1.8686   19.2667 H   0  0  0  0  0  0  0  0  0  0  0  0
  1  2  1  0
  2  3  2  0
  3  4  1  0
  4  5  1  0
  4  6  2  0
  6  7  1  0
  7  8  1  0
  8  9  1  0
  8 10  1  0
 10 11  2  0
 10 12  1  0
 12 13  1  0
 12 14  1  0
 14 15  2  0
 14 16  2  0
 14 17  1  0
 17 18  1  0
 17 19  1  0
  7 20  1  0
 20 21  1  0
 20 22  1  0
 20 23  1  0
  6 24  1  0
 24 25  1  0
 24 26  2  0
 26 27  1  0
 26  2  1  0
M  END
>  <cnnaffinity>  (1) 
-4.11119

>  <filename>  (1) 
CN(NC(=O)NS(N)(=O)=O)c1cccnc1

$$$$
