
     RDKit          3D

 38 39  0  0  0  0  0  0  0  0999 V2000
    5.0208    1.8427   16.9935 H   0  0  0  0  0  0  0  0  0  0  0  0
    5.4411    1.3004   17.8388 C   0  0  0  0  0  0  0  0  0  0  0  0
    6.5845    0.6371   17.6108 N   0  0  0  0  0  0  0  0  0  0  0  0
    7.1350   -0.0154   18.6421 C   0  0  0  0  0  0  0  0  0  0  0  0
    8.0676   -0.5406   18.4323 H   0  0  0  0  0  0  0  0  0  0  0  0
    6.5965   -0.0649   19.9471 C   0  0  0  0  0  0  0  0  0  0  0  0
    7.2658   -0.7136   21.0041 N   0  0  0  0  0  0  0  0  0  0  0  0
    6.5130   -1.4974   21.8624 N   0  0  0  0  0  0  0  0  0  0  0  0
    6.7692   -1.4496   22.8384 H   0  0  0  0  0  0  0  0  0  0  0  0
    5.9551   -2.7352   21.5361 C   0  0  0  0  0  0  0  0  0  0  0  0
    5.9376   -3.2342   20.4373 O   0  0  0  0  0  0  0  0  0  0  0  0
    5.3909   -3.3038   22.6830 N   0  0  0  0  0  0  0  0  0  0  0  0
    5.1574   -2.5466   23.3103 H   0  0  0  0  0  0  0  0  0  0  0  0
    4.2561   -4.2349   22.5269 C   0  0  0  0  0  0  0  0  0  0  0  0
    3.5781   -3.8313   21.7664 H   0  0  0  0  0  0  0  0  0  0  0  0
    3.4470   -4.3293   23.8341 C   0  0  0  0  0  0  0  0  0  0  0  0
    2.4226   -4.6039   23.5545 H   0  0  0  0  0  0  0  0  0  0  0  0
    3.3748   -3.3313   24.2830 H   0  0  0  0  0  0  0  0  0  0  0  0
    3.9543   -5.3359   24.8865 C   0  0  0  0  0  0  0  0  0  0  0  0
    3.1661   -5.4531   25.6448 H   0  0  0  0  0  0  0  0  0  0  0  0
    4.8350   -4.9193   25.3966 H   0  0  0  0  0  0  0  0  0  0  0  0
    4.3184   -6.6973   24.2685 C   0  0  0  0  0  0  0  0  0  0  0  0
    3.4055   -7.1973   23.9065 H   0  0  0  0  0  0  0  0  0  0  0  0
    4.7412   -7.3592   25.0348 H   0  0  0  0  0  0  0  0  0  0  0  0
    5.2988   -6.5237   23.0977 C   0  0  0  0  0  0  0  0  0  0  0  0
    6.2380   -6.0779   23.4557 H   0  0  0  0  0  0  0  0  0  0  0  0
    5.5566   -7.4980   22.6603 H   0  0  0  0  0  0  0  0  0  0  0  0
    4.6840   -5.6225   22.0191 C   0  0  0  0  0  0  0  0  0  0  0  0
    3.7775   -6.1180   21.6395 H   0  0  0  0  0  0  0  0  0  0  0  0
    5.3601   -5.4815   21.1730 H   0  0  0  0  0  0  0  0  0  0  0  0
    8.7123   -0.7382   21.1461 C   0  0  0  0  0  0  0  0  0  0  0  0
    9.1275    0.1775   20.7216 H   0  0  0  0  0  0  0  0  0  0  0  0
    9.1832   -1.6021   20.6568 H   0  0  0  0  0  0  0  0  0  0  0  0
    8.9771   -0.7462   22.2103 H   0  0  0  0  0  0  0  0  0  0  0  0
    5.3722    0.6074   20.1535 C   0  0  0  0  0  0  0  0  0  0  0  0
    4.9082    0.5738   21.1391 H   0  0  0  0  0  0  0  0  0  0  0  0
    4.8059    1.3096   19.0874 C   0  0  0  0  0  0  0  0  0  0  0  0
    3.8889    1.8772   19.2101 H   0  0  0  0  0  0  0  0  0  0  0  0
  1  2  1  0
  2  3  2  0
  3  4  1  0
  4  5  1  0
  4  6  2  0
  6  7  1  0
  7  8  1  0
  8  9  1  0
  8 10  1  0
 10 11  2  0
 10 12  1  0
 12 13  1  0
 12 14  1  0
 14 15  1  0
 14 16  1  0
 16 17  1  0
 16 18  1  0
 16 19  1  0
 19 20  1  0
 19 21  1  0
 19 22  1  0
 22 23  1  0
 22 24  1  0
 22 25  1  0
 25 26  1  0
 25 27  1  0
 25 28  1  0
 28 29  1  0
 28 30  1  0
  7 31  1  0
 31 32  1  0
 31 33  1  0
 31 34  1  0
  6 35  1  0
 35 36  1  0
 35 37  2  0
 37 38  1  0
 37  2  1  0
 28 14  1  0
M  END
>  <cnnaffinity>  (1) 
-4.87396

>  <filename>  (1) 
CN(NC(=O)NC1CCCCC1)c1cccnc1

$$$$
