
     RDKit          3D

 34 36  0  0  0  0  0  0  0  0999 V2000
    4.9725    1.8809   16.9153 H   0  0  0  0  0  0  0  0  0  0  0  0
    5.4271    1.3883   17.7725 C   0  0  0  0  0  0  0  0  0  0  0  0
    6.5839    0.7543   17.5350 N   0  0  0  0  0  0  0  0  0  0  0  0
    7.1814    0.1626   18.5703 C   0  0  0  0  0  0  0  0  0  0  0  0
    8.1255   -0.3367   18.3620 H   0  0  0  0  0  0  0  0  0  0  0  0
    6.6690    0.1597   19.8779 C   0  0  0  0  0  0  0  0  0  0  0  0
    7.5062   -0.5890   20.8741 C   0  0  0  0  0  0  0  0  0  0  0  0
    8.5103   -1.1852   20.5373 O   0  0  0  0  0  0  0  0  0  0  0  0
    7.0124   -0.5854   22.1635 N   0  0  0  0  0  0  0  0  0  0  0  0
    6.4289    0.1994   22.4135 H   0  0  0  0  0  0  0  0  0  0  0  0
    7.6331   -1.2748   23.2112 N   0  0  0  0  0  0  0  0  0  0  0  0
    7.4205   -2.6870   23.2360 C   0  0  0  0  0  0  0  0  0  0  0  0
    6.2485   -3.2593   22.7393 C   0  0  0  0  0  0  0  0  0  0  0  0
    5.5052   -2.5850   22.3284 H   0  0  0  0  0  0  0  0  0  0  0  0
    6.0499   -4.6562   22.7712 C   0  0  0  0  0  0  0  0  0  0  0  0
    5.1261   -5.0625   22.3699 H   0  0  0  0  0  0  0  0  0  0  0  0
    7.0054   -5.5126   23.3088 C   0  0  0  0  0  0  0  0  0  0  0  0
    6.8441   -6.5853   23.3255 H   0  0  0  0  0  0  0  0  0  0  0  0
    8.1859   -4.9366   23.8144 C   0  0  0  0  0  0  0  0  0  0  0  0
    8.4215   -3.5414   23.7717 C   0  0  0  0  0  0  0  0  0  0  0  0
    9.7374   -3.3309   24.3010 C   0  0  0  0  0  0  0  0  0  0  0  0
   10.2357   -2.3750   24.3585 H   0  0  0  0  0  0  0  0  0  0  0  0
   10.2348   -4.5483   24.6651 C   0  0  0  0  0  0  0  0  0  0  0  0
   11.1883   -4.8161   25.1096 H   0  0  0  0  0  0  0  0  0  0  0  0
    9.2999   -5.5170   24.3700 N   0  0  0  0  0  0  0  0  0  0  0  0
    9.3939   -6.4988   24.5673 H   0  0  0  0  0  0  0  0  0  0  0  0
    7.6066   -0.5340   24.4707 C   0  0  0  0  0  0  0  0  0  0  0  0
    8.1663    0.4014   24.3549 H   0  0  0  0  0  0  0  0  0  0  0  0
    8.0952   -1.1135   25.2576 H   0  0  0  0  0  0  0  0  0  0  0  0
    6.5838   -0.2867   24.8090 H   0  0  0  0  0  0  0  0  0  0  0  0
    5.4374    0.8006   20.1075 C   0  0  0  0  0  0  0  0  0  0  0  0
    4.9504    0.8298   21.0882 H   0  0  0  0  0  0  0  0  0  0  0  0
    4.8117    1.4239   19.0286 C   0  0  0  0  0  0  0  0  0  0  0  0
    3.8730    1.9549   19.1477 H   0  0  0  0  0  0  0  0  0  0  0  0
  1  2  1  0
  2  3  2  0
  3  4  1  0
  4  5  1  0
  4  6  2  0
  6  7  1  0
  7  8  2  0
  7  9  1  0
  9 10  1  0
  9 11  1  0
 11 12  1  0
 12 13  2  0
 13 14  1  0
 13 15  1  0
 15 16  1  0
 15 17  2  0
 17 18  1  0
 17 19  1  0
 19 20  2  0
 20 21  1  0
 21 22  1  0
 21 23  2  0
 23 24  1  0
 23 25  1  0
 25 26  1  0
 11 27  1  0
 27 28  1  0
 27 29  1  0
 27 30  1  0
  6 31  1  0
 31 32  1  0
 31 33  2  0
 33 34  1  0
 33  2  1  0
 20 12  1  0
 25 19  1  0
M  END
>  <cnnaffinity>  (1) 
-5.16811

>  <filename>  (1) 
CN(NC(=O)c1cccnc1)c1cccc2[nH]ccc12

$$$$
