
     RDKit          3D

 33 35  0  0  0  0  0  0  0  0999 V2000
    5.0734    1.6992   16.9216 H   0  0  0  0  0  0  0  0  0  0  0  0
    5.5102    1.2390   17.8047 C   0  0  0  0  0  0  0  0  0  0  0  0
    6.6834    0.6071   17.6279 N   0  0  0  0  0  0  0  0  0  0  0  0
    7.2660    0.0500   18.6992 C   0  0  0  0  0  0  0  0  0  0  0  0
    8.2092   -0.4767   18.5473 H   0  0  0  0  0  0  0  0  0  0  0  0
    6.7126    0.0965   19.9932 C   0  0  0  0  0  0  0  0  0  0  0  0
    7.3332   -0.4709   21.1395 N   0  0  0  0  0  0  0  0  0  0  0  0
    8.7320   -0.4660   21.1003 N   0  0  0  0  0  0  0  0  0  0  0  0
    9.1124    0.4632   21.2202 H   0  0  0  0  0  0  0  0  0  0  0  0
    9.6123   -1.4030   21.6085 C   0  0  0  0  0  0  0  0  0  0  0  0
    9.4316   -2.6076   21.5961 O   0  0  0  0  0  0  0  0  0  0  0  0
   10.8699   -0.7595   22.1162 C   0  0  0  0  0  0  0  0  0  0  0  0
   12.0787   -1.3618   21.9897 C   0  0  0  0  0  0  0  0  0  0  0  0
   12.2843   -2.3294   21.5406 H   0  0  0  0  0  0  0  0  0  0  0  0
   13.3838   -0.4348   22.6130 S   0  0  0  0  0  0  0  0  0  0  0  0
   12.3081    0.8417   23.1012 C   0  0  0  0  0  0  0  0  0  0  0  0
   12.6711    2.0339   23.7576 C   0  0  0  0  0  0  0  0  0  0  0  0
   13.7140    2.2401   23.9705 H   0  0  0  0  0  0  0  0  0  0  0  0
   11.6707    2.9150   24.1471 C   0  0  0  0  0  0  0  0  0  0  0  0
   11.9241    3.8318   24.6769 H   0  0  0  0  0  0  0  0  0  0  0  0
   10.3179    2.6109   23.8771 C   0  0  0  0  0  0  0  0  0  0  0  0
    9.5430    3.3018   24.1939 H   0  0  0  0  0  0  0  0  0  0  0  0
    9.9601    1.4446   23.2171 C   0  0  0  0  0  0  0  0  0  0  0  0
    8.9048    1.2032   23.0961 H   0  0  0  0  0  0  0  0  0  0  0  0
   10.9694    0.5351   22.7960 C   0  0  0  0  0  0  0  0  0  0  0  0
    6.7153   -1.6734   21.6959 C   0  0  0  0  0  0  0  0  0  0  0  0
    5.6323   -1.5725   21.6131 H   0  0  0  0  0  0  0  0  0  0  0  0
    6.9983   -1.7488   22.7499 H   0  0  0  0  0  0  0  0  0  0  0  0
    7.0504   -2.5894   21.1941 H   0  0  0  0  0  0  0  0  0  0  0  0
    5.4638    0.7212   20.1497 C   0  0  0  0  0  0  0  0  0  0  0  0
    5.0103    0.7371   21.1388 H   0  0  0  0  0  0  0  0  0  0  0  0
    4.8605    1.3136   19.0399 C   0  0  0  0  0  0  0  0  0  0  0  0
    3.9103    1.8289   19.1233 H   0  0  0  0  0  0  0  0  0  0  0  0
  1  2  1  0
  2  3  2  0
  3  4  1  0
  4  5  1  0
  4  6  2  0
  6  7  1  0
  7  8  1  0
  8  9  1  0
  8 10  1  0
 10 11  2  0
 10 12  1  0
 12 13  2  0
 13 14  1  0
 13 15  1  0
 15 16  1  0
 16 17  2  0
 17 18  1  0
 17 19  1  0
 19 20  1  0
 19 21  2  0
 21 22  1  0
 21 23  1  0
 23 24  1  0
 23 25  2  0
  7 26  1  0
 26 27  1  0
 26 28  1  0
 26 29  1  0
  6 30  1  0
 30 31  1  0
 30 32  2  0
 32 33  1  0
 32  2  1  0
 25 12  1  0
 25 16  1  0
M  END
>  <cnnaffinity>  (1) 
-5.81811

>  <filename>  (1) 
CN(NC(=O)c1csc2ccccc12)c1cccnc1

$$$$
