
     RDKit          3D

 33 34  0  0  0  0  0  0  0  0999 V2000
    4.9590    2.0680   16.8083 H   0  0  0  0  0  0  0  0  0  0  0  0
    5.3658    1.4972   17.6399 C   0  0  0  0  0  0  0  0  0  0  0  0
    6.4804    0.7958   17.3914 N   0  0  0  0  0  0  0  0  0  0  0  0
    7.0095    0.0879   18.3947 C   0  0  0  0  0  0  0  0  0  0  0  0
    7.9205   -0.4411   18.1134 H   0  0  0  0  0  0  0  0  0  0  0  0
    6.4554    0.0255   19.6782 C   0  0  0  0  0  0  0  0  0  0  0  0
    7.0146   -0.7635   20.8209 C   0  0  0  0  0  0  0  0  0  0  0  0
    6.3968   -0.9224   21.8498 O   0  0  0  0  0  0  0  0  0  0  0  0
    8.3133   -1.2428   20.6585 N   0  0  0  0  0  0  0  0  0  0  0  0
    8.5020   -1.5229   19.7097 H   0  0  0  0  0  0  0  0  0  0  0  0
    8.9959   -1.9894   21.6277 N   0  0  0  0  0  0  0  0  0  0  0  0
   10.1035   -1.5122   22.3776 C   0  0  0  0  0  0  0  0  0  0  0  0
   10.7944   -2.2740   23.0330 O   0  0  0  0  0  0  0  0  0  0  0  0
   10.3085   -0.1594   22.3119 N   0  0  0  0  0  0  0  0  0  0  0  0
    9.6821    0.3575   21.7242 H   0  0  0  0  0  0  0  0  0  0  0  0
   11.3739    0.5031   22.9042 C   0  0  0  0  0  0  0  0  0  0  0  0
   11.8662    0.0995   24.1410 C   0  0  0  0  0  0  0  0  0  0  0  0
   11.3727   -0.6935   24.6819 H   0  0  0  0  0  0  0  0  0  0  0  0
   12.9976    0.7406   24.6219 C   0  0  0  0  0  0  0  0  0  0  0  0
   13.4541    0.4107   25.5534 H   0  0  0  0  0  0  0  0  0  0  0  0
   13.6147    1.7388   23.9758 N   0  0  0  0  0  0  0  0  0  0  0  0
   13.0968    2.1357   22.8097 C   0  0  0  0  0  0  0  0  0  0  0  0
   13.6306    2.9287   22.2915 H   0  0  0  0  0  0  0  0  0  0  0  0
   11.9592    1.5721   22.2388 C   0  0  0  0  0  0  0  0  0  0  0  0
   11.5569    1.9181   21.2964 H   0  0  0  0  0  0  0  0  0  0  0  0
    8.3867   -3.2546   22.0352 C   0  0  0  0  0  0  0  0  0  0  0  0
    9.1411   -3.8348   22.5706 H   0  0  0  0  0  0  0  0  0  0  0  0
    8.0743   -3.8156   21.1482 H   0  0  0  0  0  0  0  0  0  0  0  0
    7.5289   -3.0877   22.6975 H   0  0  0  0  0  0  0  0  0  0  0  0
    5.2768    0.7614   19.9188 C   0  0  0  0  0  0  0  0  0  0  0  0
    4.8136    0.7295   20.9059 H   0  0  0  0  0  0  0  0  0  0  0  0
    4.7318    1.5124   18.8854 C   0  0  0  0  0  0  0  0  0  0  0  0
    3.8441    2.1175   19.0328 H   0  0  0  0  0  0  0  0  0  0  0  0
  1  2  1  0
  2  3  2  0
  3  4  1  0
  4  5  1  0
  4  6  2  0
  6  7  1  0
  7  8  2  0
  7  9  1  0
  9 10  1  0
  9 11  1  0
 11 12  1  0
 12 13  2  0
 12 14  1  0
 14 15  1  0
 14 16  1  0
 16 17  2  0
 17 18  1  0
 17 19  1  0
 19 20  1  0
 19 21  2  0
 21 22  1  0
 22 23  1  0
 22 24  2  0
 24 25  1  0
 11 26  1  0
 26 27  1  0
 26 28  1  0
 26 29  1  0
  6 30  1  0
 30 31  1  0
 30 32  2  0
 32 33  1  0
 32  2  1  0
 24 16  1  0
M  END
>  <cnnaffinity>  (1) 
-5.19372

>  <filename>  (1) 
CN(NC(=O)c1cccnc1)C(=O)Nc1ccncc1

$$$$
