
     RDKit          3D

 34 35  0  0  0  0  0  0  0  0999 V2000
    4.9729    1.7692   17.0117 H   0  0  0  0  0  0  0  0  0  0  0  0
    5.4305    1.2852   17.8712 C   0  0  0  0  0  0  0  0  0  0  0  0
    6.5920    0.6535   17.6490 N   0  0  0  0  0  0  0  0  0  0  0  0
    7.1641    0.0327   18.6824 C   0  0  0  0  0  0  0  0  0  0  0  0
    8.1054   -0.4747   18.4768 H   0  0  0  0  0  0  0  0  0  0  0  0
    6.6240    0.0151   19.9767 C   0  0  0  0  0  0  0  0  0  0  0  0
    7.3891   -0.8001   20.9678 C   0  0  0  0  0  0  0  0  0  0  0  0
    8.1444   -1.6855   20.6180 O   0  0  0  0  0  0  0  0  0  0  0  0
    7.1816   -0.4159   22.2904 N   0  0  0  0  0  0  0  0  0  0  0  0
    6.9932    0.5793   22.3323 H   0  0  0  0  0  0  0  0  0  0  0  0
    7.8796   -0.9366   23.3999 N   0  0  0  0  0  0  0  0  0  0  0  0
    7.2693   -1.1824   24.6517 C   0  0  0  0  0  0  0  0  0  0  0  0
    7.9164   -1.6054   25.5961 O   0  0  0  0  0  0  0  0  0  0  0  0
    5.9329   -0.8664   24.7290 N   0  0  0  0  0  0  0  0  0  0  0  0
    5.4387   -0.9322   23.8547 H   0  0  0  0  0  0  0  0  0  0  0  0
    5.1903   -0.7789   25.9196 C   0  0  0  0  0  0  0  0  0  0  0  0
    5.7767   -0.2522   27.0777 C   0  0  0  0  0  0  0  0  0  0  0  0
    6.8200    0.0349   27.0353 H   0  0  0  0  0  0  0  0  0  0  0  0
    5.0269   -0.1182   28.2462 C   0  0  0  0  0  0  0  0  0  0  0  0
    5.4737    0.2913   29.1472 H   0  0  0  0  0  0  0  0  0  0  0  0
    3.6898   -0.5243   28.2549 C   0  0  0  0  0  0  0  0  0  0  0  0
    2.7630   -0.3702   29.7200 Cl  0  0  0  0  0  0  0  0  0  0  0  0
    3.0943   -1.0539   27.1060 C   0  0  0  0  0  0  0  0  0  0  0  0
    2.0547   -1.3636   27.1401 H   0  0  0  0  0  0  0  0  0  0  0  0
    3.8481   -1.1721   25.9320 C   0  0  0  0  0  0  0  0  0  0  0  0
    3.4022   -1.5864   25.0330 H   0  0  0  0  0  0  0  0  0  0  0  0
    9.2728   -1.3492   23.2289 C   0  0  0  0  0  0  0  0  0  0  0  0
    9.7070   -0.8150   22.3840 H   0  0  0  0  0  0  0  0  0  0  0  0
    9.3502   -2.4267   23.0455 H   0  0  0  0  0  0  0  0  0  0  0  0
    9.8264   -1.1080   24.1389 H   0  0  0  0  0  0  0  0  0  0  0  0
    5.4104    0.6883   20.1985 C   0  0  0  0  0  0  0  0  0  0  0  0
    4.9267    0.7042   21.1775 H   0  0  0  0  0  0  0  0  0  0  0  0
    4.8019    1.3251   19.1193 C   0  0  0  0  0  0  0  0  0  0  0  0
    3.8614    1.8532   19.2337 H   0  0  0  0  0  0  0  0  0  0  0  0
  1  2  1  0
  2  3  2  0
  3  4  1  0
  4  5  1  0
  4  6  2  0
  6  7  1  0
  7  8  2  0
  7  9  1  0
  9 10  1  0
  9 11  1  0
 11 12  1  0
 12 13  2  0
 12 14  1  0
 14 15  1  0
 14 16  1  0
 16 17  2  0
 17 18  1  0
 17 19  1  0
 19 20  1  0
 19 21  2  0
 21 22  1  0
 21 23  1  0
 23 24  1  0
 23 25  2  0
 25 26  1  0
 11 27  1  0
 27 28  1  0
 27 29  1  0
 27 30  1  0
  6 31  1  0
 31 32  1  0
 31 33  2  0
 33 34  1  0
 33  2  1  0
 25 16  1  0
M  END
>  <cnnaffinity>  (1) 
-5.0649

>  <filename>  (1) 
CN(NC(=O)c1cccnc1)C(=O)Nc1ccc(Cl)cc1

$$$$
