
     RDKit          3D

 28 30  0  0  0  0  0  0  0  0999 V2000
    4.9001    1.8989   16.8669 H   0  0  0  0  0  0  0  0  0  0  0  0
    5.3628    1.3658   17.6943 C   0  0  0  0  0  0  0  0  0  0  0  0
    6.5263    0.7484   17.4266 N   0  0  0  0  0  0  0  0  0  0  0  0
    7.1225    0.1055   18.4395 C   0  0  0  0  0  0  0  0  0  0  0  0
    8.0780   -0.3536   18.1861 H   0  0  0  0  0  0  0  0  0  0  0  0
    6.6095    0.0238   19.7550 C   0  0  0  0  0  0  0  0  0  0  0  0
    7.3182   -0.6700   20.8608 C   0  0  0  0  0  0  0  0  0  0  0  0
    7.3209   -0.4801   22.2262 C   0  0  0  0  0  0  0  0  0  0  0  0
    6.7649    0.2231   22.8232 H   0  0  0  0  0  0  0  0  0  0  0  0
    8.2318   -1.4166   22.7655 C   0  0  0  0  0  0  0  0  0  0  0  0
    8.5645   -1.5597   24.2053 C   0  0  0  0  0  0  0  0  0  0  0  0
    8.0088   -0.7239   25.0943 N   0  0  0  0  0  0  0  0  0  0  0  0
    8.4151   -1.1366   26.2926 N   0  0  0  0  0  0  0  0  0  0  0  0
    7.8014   -0.5863   27.4860 C   0  0  0  0  0  0  0  0  0  0  0  0
    8.5358   -0.0676   28.1090 H   0  0  0  0  0  0  0  0  0  0  0  0
    7.3303   -1.3834   28.0578 H   0  0  0  0  0  0  0  0  0  0  0  0
    7.0264    0.1047   27.1590 H   0  0  0  0  0  0  0  0  0  0  0  0
    9.2392   -2.2079   26.2140 C   0  0  0  0  0  0  0  0  0  0  0  0
    9.6576   -2.6419   27.1159 H   0  0  0  0  0  0  0  0  0  0  0  0
    9.3646   -2.5181   24.8807 C   0  0  0  0  0  0  0  0  0  0  0  0
    9.9120   -3.3382   24.4413 H   0  0  0  0  0  0  0  0  0  0  0  0
    8.7472   -2.1743   21.7894 N   0  0  0  0  0  0  0  0  0  0  0  0
    8.1938   -1.6952   20.6703 N   0  0  0  0  0  0  0  0  0  0  0  0
    8.4052   -2.1390   19.7919 H   0  0  0  0  0  0  0  0  0  0  0  0
    5.3868    0.6751   20.0001 C   0  0  0  0  0  0  0  0  0  0  0  0
    4.9484    0.6440   20.9987 H   0  0  0  0  0  0  0  0  0  0  0  0
    4.7569    1.3516   18.9546 C   0  0  0  0  0  0  0  0  0  0  0  0
    3.8239    1.8814   19.1080 H   0  0  0  0  0  0  0  0  0  0  0  0
  1  2  1  0
  2  3  2  0
  3  4  1  0
  4  5  1  0
  4  6  2  0
  6  7  1  0
  7  8  2  0
  8  9  1  0
  8 10  1  0
 10 11  1  0
 11 12  2  0
 12 13  1  0
 13 14  1  0
 14 15  1  0
 14 16  1  0
 14 17  1  0
 13 18  1  0
 18 19  1  0
 18 20  2  0
 20 21  1  0
 10 22  2  0
 22 23  1  0
 23 24  1  0
  6 25  1  0
 25 26  1  0
 25 27  2  0
 27 28  1  0
 27  2  1  0
 23  7  1  0
 20 11  1  0
M  END
>  <cnnaffinity>  (1) 
-4.68975

>  <filename>  (1) 
Cn1ccc(-c2cc(-c3cccnc3)[nH]n2)n1

$$$$
