
     RDKit          3D

 44 47  0  0  0  0  0  0  0  0999 V2000
   13.5956    0.3552   23.5618 C   0  0  0  0  0  0  0  0  0  0  0  0
   12.3896    0.8005   22.8991 N   0  0  0  0  0  0  0  0  0  0  0  0
   11.6125    1.8250   23.3136 C   0  0  0  0  0  0  0  0  0  0  0  0
   10.4854    1.8110   22.5188 C   0  0  0  0  0  0  0  0  0  0  0  0
   10.6711    0.6998   21.6705 C   0  0  0  0  0  0  0  0  0  0  0  0
    9.6820    0.1732   20.6886 C   0  0  0  0  0  0  0  0  0  0  0  0
    8.6281   -0.6410   21.3440 C   0  0  0  0  0  0  0  0  0  0  0  0
    8.8398   -1.4811   22.3277 N   0  0  0  0  0  0  0  0  0  0  0  0
    7.6096   -2.0084   22.5549 C   0  0  0  0  0  0  0  0  0  0  0  0
    7.3853   -3.0101   23.6383 C   0  0  0  0  0  0  0  0  0  0  0  0
    8.1059   -4.3511   23.3146 C   0  0  0  0  0  0  0  0  0  0  0  0
    8.0884   -5.3009   24.4900 C   0  0  0  0  0  0  0  0  0  0  0  0
    7.8513   -4.9146   25.7452 C   0  0  0  0  0  0  0  0  0  0  0  0
    7.5101   -3.4904   26.1292 C   0  0  0  0  0  0  0  0  0  0  0  0
    7.8594   -2.4819   25.0189 C   0  0  0  0  0  0  0  0  0  0  0  0
    8.9470   -2.3073   24.9747 H   0  0  0  0  0  0  0  0  0  0  0  0
    7.4009   -1.5095   25.2404 H   0  0  0  0  0  0  0  0  0  0  0  0
    6.4327   -3.4323   26.3567 H   0  0  0  0  0  0  0  0  0  0  0  0
    8.0165   -3.2266   27.0670 H   0  0  0  0  0  0  0  0  0  0  0  0
    7.8753   -5.6493   26.5521 H   0  0  0  0  0  0  0  0  0  0  0  0
    8.3080   -6.3470   24.2739 H   0  0  0  0  0  0  0  0  0  0  0  0
    7.6458   -4.8359   22.4428 H   0  0  0  0  0  0  0  0  0  0  0  0
    9.1517   -4.1483   23.0244 H   0  0  0  0  0  0  0  0  0  0  0  0
    6.2978   -3.1705   23.6619 H   0  0  0  0  0  0  0  0  0  0  0  0
    6.6612   -1.5664   21.7541 N   0  0  0  0  0  0  0  0  0  0  0  0
    7.3227   -0.6947   20.9485 N   0  0  0  0  0  0  0  0  0  0  0  0
    6.6499   -0.0068   19.8993 C   0  0  0  0  0  0  0  0  0  0  0  0
    5.4371    0.6401   20.1560 C   0  0  0  0  0  0  0  0  0  0  0  0
    4.8070    1.3119   19.1046 C   0  0  0  0  0  0  0  0  0  0  0  0
    5.3979    1.2951   17.8351 C   0  0  0  0  0  0  0  0  0  0  0  0
    6.5527    0.6645   17.5776 N   0  0  0  0  0  0  0  0  0  0  0  0
    7.1631    0.0402   18.5902 C   0  0  0  0  0  0  0  0  0  0  0  0
    8.1109   -0.4386   18.3493 H   0  0  0  0  0  0  0  0  0  0  0  0
    4.9322    1.8021   16.9921 H   0  0  0  0  0  0  0  0  0  0  0  0
    3.8734    1.8465   19.2535 H   0  0  0  0  0  0  0  0  0  0  0  0
    5.0184    0.5995   21.1612 H   0  0  0  0  0  0  0  0  0  0  0  0
   10.1629   -0.4931   19.9669 H   0  0  0  0  0  0  0  0  0  0  0  0
    9.2120    1.0165   20.1798 H   0  0  0  0  0  0  0  0  0  0  0  0
   11.8251    0.1016   21.9034 N   0  0  0  0  0  0  0  0  0  0  0  0
    9.6433    2.4878   22.5280 H   0  0  0  0  0  0  0  0  0  0  0  0
   11.9353    2.4404   24.1440 H   0  0  0  0  0  0  0  0  0  0  0  0
   14.1943    1.2336   23.8173 H   0  0  0  0  0  0  0  0  0  0  0  0
   14.1433   -0.2935   22.8757 H   0  0  0  0  0  0  0  0  0  0  0  0
   13.3288   -0.1774   24.4815 H   0  0  0  0  0  0  0  0  0  0  0  0
  1  2  1  0
  2  3  1  0
  3  4  2  0
  4  5  1  0
  5  6  1  0
  6  7  1  0
  7  8  2  0
  8  9  1  0
  9 10  1  0
 10 11  1  0
 11 12  1  0
 12 13  2  0
 13 14  1  0
 14 15  1  0
 15 16  1  0
 15 17  1  0
 14 18  1  0
 14 19  1  0
 13 20  1  0
 12 21  1  0
 11 22  1  0
 11 23  1  0
 10 24  1  0
  9 25  2  0
 25 26  1  0
 26 27  1  0
 27 28  2  0
 28 29  1  0
 29 30  2  0
 30 31  1  0
 31 32  2  0
 32 33  1  0
 30 34  1  0
 29 35  1  0
 28 36  1  0
  6 37  1  0
  6 38  1  0
  5 39  2  0
  4 40  1  0
  3 41  1  0
  1 42  1  0
  1 43  1  0
  1 44  1  0
 39  2  1  0
 26  7  1  0
 32 27  1  0
 15 10  1  0
M  END
>  <cnnaffinity>  (1) 
-6.38748

>  <filename>  (1) 
Cn1ccc(Cc2nc(C3CC=CCC3)nn2-c2cccnc2)n1

$$$$
