
     RDKit          3D

 43 46  0  0  0  0  0  0  0  0999 V2000
   13.7113    0.6881   23.5575 C   0  0  0  0  0  0  0  0  0  0  0  0
   12.4400    0.9105   22.9103 N   0  0  0  0  0  0  0  0  0  0  0  0
   11.8517    0.1518   21.9571 C   0  0  0  0  0  0  0  0  0  0  0  0
   10.6442    0.7416   21.6512 C   0  0  0  0  0  0  0  0  0  0  0  0
    9.6089    0.1716   20.7088 C   0  0  0  0  0  0  0  0  0  0  0  0
    8.5606   -0.6855   21.3490 C   0  0  0  0  0  0  0  0  0  0  0  0
    8.7490   -1.5249   22.3413 N   0  0  0  0  0  0  0  0  0  0  0  0
    7.5093   -2.0500   22.5555 C   0  0  0  0  0  0  0  0  0  0  0  0
    7.3130   -3.0390   23.6628 C   0  0  0  0  0  0  0  0  0  0  0  0
    7.7240   -2.4747   25.0399 C   0  0  0  0  0  0  0  0  0  0  0  0
    8.0166   -3.6982   25.9209 C   0  0  0  0  0  0  0  0  0  0  0  0
    8.3246   -4.8643   24.9522 C   0  0  0  0  0  0  0  0  0  0  0  0
    8.2198   -4.2819   23.5342 C   0  0  0  0  0  0  0  0  0  0  0  0
    9.2084   -3.9435   23.2034 H   0  0  0  0  0  0  0  0  0  0  0  0
    7.8461   -5.0020   22.7979 H   0  0  0  0  0  0  0  0  0  0  0  0
    7.5983   -5.6711   25.0950 H   0  0  0  0  0  0  0  0  0  0  0  0
    9.3151   -5.2978   25.1297 H   0  0  0  0  0  0  0  0  0  0  0  0
    8.8471   -3.4995   26.6072 H   0  0  0  0  0  0  0  0  0  0  0  0
    7.1483   -3.9435   26.5403 H   0  0  0  0  0  0  0  0  0  0  0  0
    6.9625   -1.8090   25.4601 H   0  0  0  0  0  0  0  0  0  0  0  0
    8.6403   -1.8887   24.9035 H   0  0  0  0  0  0  0  0  0  0  0  0
    6.2578   -3.3325   23.6692 H   0  0  0  0  0  0  0  0  0  0  0  0
    6.5802   -1.6077   21.7352 N   0  0  0  0  0  0  0  0  0  0  0  0
    7.2592   -0.7447   20.9329 N   0  0  0  0  0  0  0  0  0  0  0  0
    6.5956   -0.0483   19.8775 C   0  0  0  0  0  0  0  0  0  0  0  0
    5.3938    0.6214   20.1284 C   0  0  0  0  0  0  0  0  0  0  0  0
    4.7931    1.3176   19.0782 C   0  0  0  0  0  0  0  0  0  0  0  0
    5.3989    1.3089   17.8161 C   0  0  0  0  0  0  0  0  0  0  0  0
    6.5374    0.6480   17.5589 N   0  0  0  0  0  0  0  0  0  0  0  0
    7.1205   -0.0078   18.5700 C   0  0  0  0  0  0  0  0  0  0  0  0
    8.0621   -0.5040   18.3330 H   0  0  0  0  0  0  0  0  0  0  0  0
    4.9524    1.8476   16.9849 H   0  0  0  0  0  0  0  0  0  0  0  0
    3.8736    1.8708   19.2300 H   0  0  0  0  0  0  0  0  0  0  0  0
    4.9683    0.5966   21.1324 H   0  0  0  0  0  0  0  0  0  0  0  0
   10.1090   -0.4780   19.9804 H   0  0  0  0  0  0  0  0  0  0  0  0
    9.1138    0.9636   20.1369 H   0  0  0  0  0  0  0  0  0  0  0  0
   10.6064    1.8785   22.4960 C   0  0  0  0  0  0  0  0  0  0  0  0
   11.6996    1.9701   23.2432 N   0  0  0  0  0  0  0  0  0  0  0  0
    9.8293    2.6279   22.6157 H   0  0  0  0  0  0  0  0  0  0  0  0
   12.3461   -0.7370   21.5795 H   0  0  0  0  0  0  0  0  0  0  0  0
   14.5214    1.2252   23.0598 H   0  0  0  0  0  0  0  0  0  0  0  0
   13.6264    1.0149   24.5941 H   0  0  0  0  0  0  0  0  0  0  0  0
   13.9414   -0.3745   23.5429 H   0  0  0  0  0  0  0  0  0  0  0  0
  1  2  1  0
  2  3  1  0
  3  4  2  0
  4  5  1  0
  5  6  1  0
  6  7  2  0
  7  8  1  0
  8  9  1  0
  9 10  1  0
 10 11  1  0
 11 12  1  0
 12 13  1  0
 13 14  1  0
 13 15  1  0
 12 16  1  0
 12 17  1  0
 11 18  1  0
 11 19  1  0
 10 20  1  0
 10 21  1  0
  9 22  1  0
  8 23  2  0
 23 24  1  0
 24 25  1  0
 25 26  2  0
 26 27  1  0
 27 28  2  0
 28 29  1  0
 29 30  2  0
 30 31  1  0
 28 32  1  0
 27 33  1  0
 26 34  1  0
  5 35  1  0
  5 36  1  0
  4 37  1  0
 37 38  2  0
 37 39  1  0
  3 40  1  0
  1 41  1  0
  1 42  1  0
  1 43  1  0
 38  2  1  0
 24  6  1  0
 30 25  1  0
 13  9  1  0
M  END
>  <cnnaffinity>  (1) 
-6.28948

>  <filename>  (1) 
Cn1cc(Cc2nc(C3CCCC3)nn2-c2cccnc2)cn1

$$$$
