
     RDKit          3D

 47 50  0  0  0  0  0  0  0  0999 V2000
   12.3225    2.0604   24.5573 C   0  0  0  0  0  0  0  0  0  0  0  0
   11.3411    1.9349   23.5153 N   0  0  0  0  0  0  0  0  0  0  0  0
   11.3545    1.0720   22.4787 C   0  0  0  0  0  0  0  0  0  0  0  0
   10.1439    1.1735   21.8422 C   0  0  0  0  0  0  0  0  0  0  0  0
    9.6022    0.2418   20.7868 C   0  0  0  0  0  0  0  0  0  0  0  0
    8.5400   -0.6605   21.3324 C   0  0  0  0  0  0  0  0  0  0  0  0
    8.7546   -1.5003   22.3234 N   0  0  0  0  0  0  0  0  0  0  0  0
    7.5398   -2.0830   22.5114 C   0  0  0  0  0  0  0  0  0  0  0  0
    7.3521   -3.0576   23.6286 C   0  0  0  0  0  0  0  0  0  0  0  0
    7.3640   -2.3197   24.9944 C   0  0  0  0  0  0  0  0  0  0  0  0
    7.4092   -3.2790   26.1545 C   0  0  0  0  0  0  0  0  0  0  0  0
    7.7309   -4.5685   26.0316 C   0  0  0  0  0  0  0  0  0  0  0  0
    8.1271   -5.2067   24.7219 C   0  0  0  0  0  0  0  0  0  0  0  0
    8.4323   -4.1672   23.6336 C   0  0  0  0  0  0  0  0  0  0  0  0
    8.5074   -4.6510   22.6530 H   0  0  0  0  0  0  0  0  0  0  0  0
    9.4080   -3.7032   23.8313 H   0  0  0  0  0  0  0  0  0  0  0  0
    8.9868   -5.8704   24.8811 H   0  0  0  0  0  0  0  0  0  0  0  0
    7.3089   -5.8590   24.3867 H   0  0  0  0  0  0  0  0  0  0  0  0
    7.6896   -5.2161   26.9055 H   0  0  0  0  0  0  0  0  0  0  0  0
    7.1611   -2.8764   27.1340 H   0  0  0  0  0  0  0  0  0  0  0  0
    8.2371   -1.6505   25.0384 H   0  0  0  0  0  0  0  0  0  0  0  0
    6.4865   -1.6669   25.0835 H   0  0  0  0  0  0  0  0  0  0  0  0
    6.3660   -3.5115   23.4876 H   0  0  0  0  0  0  0  0  0  0  0  0
    6.5968   -1.6694   21.6910 N   0  0  0  0  0  0  0  0  0  0  0  0
    7.2484   -0.7602   20.9080 N   0  0  0  0  0  0  0  0  0  0  0  0
    6.5779   -0.0588   19.8670 C   0  0  0  0  0  0  0  0  0  0  0  0
    5.3893    0.6230   20.1353 C   0  0  0  0  0  0  0  0  0  0  0  0
    4.7801    1.3252   19.0908 C   0  0  0  0  0  0  0  0  0  0  0  0
    5.3759    1.3173   17.8241 C   0  0  0  0  0  0  0  0  0  0  0  0
    6.5045    0.6458   17.5514 N   0  0  0  0  0  0  0  0  0  0  0  0
    7.0882   -0.0194   18.5555 C   0  0  0  0  0  0  0  0  0  0  0  0
    8.0172   -0.5360   18.3166 H   0  0  0  0  0  0  0  0  0  0  0  0
    4.9294    1.8674   16.9997 H   0  0  0  0  0  0  0  0  0  0  0  0
    3.8705    1.8930   19.2528 H   0  0  0  0  0  0  0  0  0  0  0  0
    4.9984    0.6318   21.1538 H   0  0  0  0  0  0  0  0  0  0  0  0
    9.2309    0.7990   19.9224 H   0  0  0  0  0  0  0  0  0  0  0  0
   10.4010   -0.4248   20.4402 H   0  0  0  0  0  0  0  0  0  0  0  0
    9.4506    2.1462   22.6082 C   0  0  0  0  0  0  0  0  0  0  0  0
    8.0091    2.5688   22.4721 C   0  0  0  0  0  0  0  0  0  0  0  0
    7.1846    1.7473   23.1538 F   0  0  0  0  0  0  0  0  0  0  0  0
    7.8048    3.8150   22.9097 F   0  0  0  0  0  0  0  0  0  0  0  0
    7.6031    2.5118   21.1828 F   0  0  0  0  0  0  0  0  0  0  0  0
   10.1830    2.5741   23.6300 N   0  0  0  0  0  0  0  0  0  0  0  0
   12.1964    0.4231   22.2715 H   0  0  0  0  0  0  0  0  0  0  0  0
   12.0325    2.9523   25.0986 H   0  0  0  0  0  0  0  0  0  0  0  0
   13.3223    2.1639   24.1371 H   0  0  0  0  0  0  0  0  0  0  0  0
   12.3092    1.2060   25.2353 H   0  0  0  0  0  0  0  0  0  0  0  0
  1  2  1  0
  2  3  1  0
  3  4  2  0
  4  5  1  0
  5  6  1  0
  6  7  2  0
  7  8  1  0
  8  9  1  0
  9 10  1  0
 10 11  1  0
 11 12  2  0
 12 13  1  0
 13 14  1  0
 14 15  1  0
 14 16  1  0
 13 17  1  0
 13 18  1  0
 12 19  1  0
 11 20  1  0
 10 21  1  0
 10 22  1  0
  9 23  1  0
  8 24  2  0
 24 25  1  0
 25 26  1  0
 26 27  2  0
 27 28  1  0
 28 29  2  0
 29 30  1  0
 30 31  2  0
 31 32  1  0
 29 33  1  0
 28 34  1  0
 27 35  1  0
  5 36  1  0
  5 37  1  0
  4 38  1  0
 38 39  1  0
 39 40  1  0
 39 41  1  0
 39 42  1  0
 38 43  2  0
  3 44  1  0
  1 45  1  0
  1 46  1  0
  1 47  1  0
 43  2  1  0
 25  6  1  0
 31 26  1  0
 14  9  1  0
M  END
>  <cnnaffinity>  (1) 
-6.53522

>  <filename>  (1) 
Cn1cc(Cc2nc(C3CC=CCC3)nn2-c2cccnc2)c(C(F)(F)F)n1

$$$$
