
     RDKit          3D

 43 46  0  0  0  0  0  0  0  0999 V2000
    5.2349   -1.2123   26.4602 C   0  0  0  0  0  0  0  0  0  0  0  0
    6.0568   -0.1872   25.8478 N   0  0  0  0  0  0  0  0  0  0  0  0
    7.1445    0.4209   26.3718 C   0  0  0  0  0  0  0  0  0  0  0  0
    7.6010    1.3031   25.4198 C   0  0  0  0  0  0  0  0  0  0  0  0
    6.7041    1.1601   24.3424 C   0  0  0  0  0  0  0  0  0  0  0  0
    6.8075    1.7838   22.9854 C   0  0  0  0  0  0  0  0  0  0  0  0
    7.9396    1.1302   22.2803 C   0  0  0  0  0  0  0  0  0  0  0  0
    9.1891    1.4874   22.4453 N   0  0  0  0  0  0  0  0  0  0  0  0
    9.8816    0.3973   22.0193 C   0  0  0  0  0  0  0  0  0  0  0  0
   11.3401    0.3266   22.1761 C   0  0  0  0  0  0  0  0  0  0  0  0
   12.0684   -0.7434   21.6267 C   0  0  0  0  0  0  0  0  0  0  0  0
   13.4437   -0.7880   21.8254 C   0  0  0  0  0  0  0  0  0  0  0  0
   14.3433   -2.0602   21.0635 Cl  0  0  0  0  0  0  0  0  0  0  0  0
   14.0966    0.1934   22.5742 C   0  0  0  0  0  0  0  0  0  0  0  0
   13.3638    1.2384   23.1440 C   0  0  0  0  0  0  0  0  0  0  0  0
   11.9932    1.3279   22.9228 C   0  0  0  0  0  0  0  0  0  0  0  0
   11.4028    2.1495   23.3219 H   0  0  0  0  0  0  0  0  0  0  0  0
   13.8634    2.0027   23.7360 H   0  0  0  0  0  0  0  0  0  0  0  0
   15.1642    0.1558   22.6716 H   0  0  0  0  0  0  0  0  0  0  0  0
   11.5906   -1.5032   21.0147 H   0  0  0  0  0  0  0  0  0  0  0  0
    9.1207   -0.5738   21.5356 N   0  0  0  0  0  0  0  0  0  0  0  0
    7.8697   -0.0990   21.7368 N   0  0  0  0  0  0  0  0  0  0  0  0
    6.7006   -0.7692   21.1864 C   0  0  0  0  0  0  0  0  0  0  0  0
    6.1728   -0.0487   19.9612 C   0  0  0  0  0  0  0  0  0  0  0  0
    4.9565    0.6444   19.9141 C   0  0  0  0  0  0  0  0  0  0  0  0
    4.6446    1.3772   18.7629 C   0  0  0  0  0  0  0  0  0  0  0  0
    5.5450    1.3749   17.6951 C   0  0  0  0  0  0  0  0  0  0  0  0
    6.7007    0.6944   17.7115 N   0  0  0  0  0  0  0  0  0  0  0  0
    7.0010    0.0213   18.8277 C   0  0  0  0  0  0  0  0  0  0  0  0
    7.9695   -0.4804   18.8406 H   0  0  0  0  0  0  0  0  0  0  0  0
    5.3373    1.9479   16.7904 H   0  0  0  0  0  0  0  0  0  0  0  0
    3.7459    1.9794   18.6974 H   0  0  0  0  0  0  0  0  0  0  0  0
    4.2622    0.6355   20.7586 H   0  0  0  0  0  0  0  0  0  0  0  0
    5.9566   -0.8067   21.9882 H   0  0  0  0  0  0  0  0  0  0  0  0
    7.0195   -1.7947   20.9729 H   0  0  0  0  0  0  0  0  0  0  0  0
    7.0437    2.8455   23.0575 H   0  0  0  0  0  0  0  0  0  0  0  0
    5.8833    1.6512   22.4244 H   0  0  0  0  0  0  0  0  0  0  0  0
    5.7848    0.2460   24.6055 N   0  0  0  0  0  0  0  0  0  0  0  0
    8.4964    1.9131   25.4070 H   0  0  0  0  0  0  0  0  0  0  0  0
    7.5041    0.1608   27.3624 H   0  0  0  0  0  0  0  0  0  0  0  0
    5.8695   -1.9081   27.0194 H   0  0  0  0  0  0  0  0  0  0  0  0
    4.5019   -0.7688   27.1427 H   0  0  0  0  0  0  0  0  0  0  0  0
    4.7188   -1.7487   25.6608 H   0  0  0  0  0  0  0  0  0  0  0  0
  1  2  1  0
  2  3  1  0
  3  4  2  0
  4  5  1  0
  5  6  1  0
  6  7  1  0
  7  8  2  0
  8  9  1  0
  9 10  1  0
 10 11  2  0
 11 12  1  0
 12 13  1  0
 12 14  2  0
 14 15  1  0
 15 16  2  0
 16 17  1  0
 15 18  1  0
 14 19  1  0
 11 20  1  0
  9 21  2  0
 21 22  1  0
 22 23  1  0
 23 24  1  0
 24 25  2  0
 25 26  1  0
 26 27  2  0
 27 28  1  0
 28 29  2  0
 29 30  1  0
 27 31  1  0
 26 32  1  0
 25 33  1  0
 23 34  1  0
 23 35  1  0
  6 36  1  0
  6 37  1  0
  5 38  2  0
  4 39  1  0
  3 40  1  0
  1 41  1  0
  1 42  1  0
  1 43  1  0
 38  2  1  0
 22  7  1  0
 29 24  1  0
 16 10  1  0
M  END
>  <cnnaffinity>  (1) 
-6.44939

>  <filename>  (1) 
Cn1ccc(Cc2nc(-c3cccc(Cl)c3)nn2Cc2cccnc2)n1

$$$$
