
     RDKit          3D

 43 46  0  0  0  0  0  0  0  0999 V2000
    9.6897    1.7892   25.9546 C   0  0  0  0  0  0  0  0  0  0  0  0
    8.9125    1.8994   24.7463 N   0  0  0  0  0  0  0  0  0  0  0  0
    7.5679    1.7963   24.5982 C   0  0  0  0  0  0  0  0  0  0  0  0
    7.3291    1.9080   23.2489 C   0  0  0  0  0  0  0  0  0  0  0  0
    8.6039    2.0559   22.6530 C   0  0  0  0  0  0  0  0  0  0  0  0
    8.9903    1.9568   21.2026 C   0  0  0  0  0  0  0  0  0  0  0  0
    9.5220    0.5359   20.8226 C   0  0  0  0  0  0  0  0  0  0  0  0
    8.6408   -0.5845   21.2950 C   0  0  0  0  0  0  0  0  0  0  0  0
    8.8658   -1.4034   22.3051 N   0  0  0  0  0  0  0  0  0  0  0  0
    7.6420   -1.9518   22.5352 C   0  0  0  0  0  0  0  0  0  0  0  0
    7.3842   -2.8454   23.7037 C   0  0  0  0  0  0  0  0  0  0  0  0
    6.4071   -2.2949   24.7996 C   0  0  0  0  0  0  0  0  0  0  0  0
    5.4223   -3.4466   24.4983 C   0  0  0  0  0  0  0  0  0  0  0  0
    6.4188   -4.0501   23.4812 C   0  0  0  0  0  0  0  0  0  0  0  0
    6.8540   -5.0048   23.7920 H   0  0  0  0  0  0  0  0  0  0  0  0
    6.0379   -4.1538   22.4589 H   0  0  0  0  0  0  0  0  0  0  0  0
    4.4824   -3.1164   24.0426 H   0  0  0  0  0  0  0  0  0  0  0  0
    5.1823   -4.0839   25.3561 H   0  0  0  0  0  0  0  0  0  0  0  0
    6.8381   -2.3198   25.8048 H   0  0  0  0  0  0  0  0  0  0  0  0
    6.0152   -1.2869   24.6122 H   0  0  0  0  0  0  0  0  0  0  0  0
    8.3638   -3.1288   24.1032 H   0  0  0  0  0  0  0  0  0  0  0  0
    6.6946   -1.5650   21.6980 N   0  0  0  0  0  0  0  0  0  0  0  0
    7.3517   -0.7145   20.8690 N   0  0  0  0  0  0  0  0  0  0  0  0
    6.6567   -0.0351   19.8342 C   0  0  0  0  0  0  0  0  0  0  0  0
    5.4503    0.6126   20.1153 C   0  0  0  0  0  0  0  0  0  0  0  0
    4.8255    1.3151   19.0813 C   0  0  0  0  0  0  0  0  0  0  0  0
    5.4151    1.3261   17.8124 C   0  0  0  0  0  0  0  0  0  0  0  0
    6.5567    0.6802   17.5284 N   0  0  0  0  0  0  0  0  0  0  0  0
    7.1560    0.0156   18.5241 C   0  0  0  0  0  0  0  0  0  0  0  0
    8.0750   -0.5126   18.2709 H   0  0  0  0  0  0  0  0  0  0  0  0
    4.9462    1.8568   16.9872 H   0  0  0  0  0  0  0  0  0  0  0  0
    3.8941    1.8440   19.2506 H   0  0  0  0  0  0  0  0  0  0  0  0
    5.0236    0.5420   21.1156 H   0  0  0  0  0  0  0  0  0  0  0  0
   10.5095    0.3795   21.2664 H   0  0  0  0  0  0  0  0  0  0  0  0
    9.6149    0.4669   19.7385 H   0  0  0  0  0  0  0  0  0  0  0  0
    8.1213    2.1924   20.5836 H   0  0  0  0  0  0  0  0  0  0  0  0
    9.7645    2.7000   20.9925 H   0  0  0  0  0  0  0  0  0  0  0  0
    9.5455    2.0734   23.5843 N   0  0  0  0  0  0  0  0  0  0  0  0
    6.3831    1.8426   22.7333 H   0  0  0  0  0  0  0  0  0  0  0  0
    6.9069    1.6202   25.4423 H   0  0  0  0  0  0  0  0  0  0  0  0
    9.5162    2.6621   26.5811 H   0  0  0  0  0  0  0  0  0  0  0  0
   10.7409    1.7267   25.6709 H   0  0  0  0  0  0  0  0  0  0  0  0
    9.4100    0.8939   26.5114 H   0  0  0  0  0  0  0  0  0  0  0  0
  1  2  1  0
  2  3  1  0
  3  4  2  0
  4  5  1  0
  5  6  1  0
  6  7  1  0
  7  8  1  0
  8  9  2  0
  9 10  1  0
 10 11  1  0
 11 12  1  0
 12 13  1  0
 13 14  1  0
 14 15  1  0
 14 16  1  0
 13 17  1  0
 13 18  1  0
 12 19  1  0
 12 20  1  0
 11 21  1  0
 10 22  2  0
 22 23  1  0
 23 24  1  0
 24 25  2  0
 25 26  1  0
 26 27  2  0
 27 28  1  0
 28 29  2  0
 29 30  1  0
 27 31  1  0
 26 32  1  0
 25 33  1  0
  7 34  1  0
  7 35  1  0
  6 36  1  0
  6 37  1  0
  5 38  2  0
  4 39  1  0
  3 40  1  0
  1 41  1  0
  1 42  1  0
  1 43  1  0
 38  2  1  0
 23  8  1  0
 29 24  1  0
 14 11  1  0
M  END
>  <cnnaffinity>  (1) 
-5.85722

>  <filename>  (1) 
Cn1ccc(CCc2nc(C3CCC3)nn2-c2cccnc2)n1

$$$$
