
     RDKit          3D

 30 32  0  0  0  0  0  0  0  0999 V2000
    4.9127    1.8074   16.9707 H   0  0  0  0  0  0  0  0  0  0  0  0
    5.3840    1.3076   17.8148 C   0  0  0  0  0  0  0  0  0  0  0  0
    6.5479    0.6888   17.5498 N   0  0  0  0  0  0  0  0  0  0  0  0
    7.1548    0.0669   18.5672 C   0  0  0  0  0  0  0  0  0  0  0  0
    8.1123   -0.3938   18.3256 H   0  0  0  0  0  0  0  0  0  0  0  0
    6.6526    0.0198   19.8867 C   0  0  0  0  0  0  0  0  0  0  0  0
    7.3736   -0.6408   20.9829 C   0  0  0  0  0  0  0  0  0  0  0  0
    7.5276   -0.3071   22.3240 C   0  0  0  0  0  0  0  0  0  0  0  0
    7.0412    0.8455   22.9478 N   0  0  0  0  0  0  0  0  0  0  0  0
    6.9705    1.7113   22.4436 H   0  0  0  0  0  0  0  0  0  0  0  0
    6.7492    0.9886   24.2815 C   0  0  0  0  0  0  0  0  0  0  0  0
    6.6611    2.1945   24.8238 N   0  0  0  0  0  0  0  0  0  0  0  0
    6.3477    1.9539   26.1190 N   0  0  0  0  0  0  0  0  0  0  0  0
    6.0817    3.0102   27.0729 C   0  0  0  0  0  0  0  0  0  0  0  0
    6.4054    2.6760   28.0629 H   0  0  0  0  0  0  0  0  0  0  0  0
    5.0129    3.2442   27.1311 H   0  0  0  0  0  0  0  0  0  0  0  0
    6.6411    3.9027   26.7989 H   0  0  0  0  0  0  0  0  0  0  0  0
    6.1979    0.6352   26.3666 C   0  0  0  0  0  0  0  0  0  0  0  0
    5.9062    0.2885   27.3475 H   0  0  0  0  0  0  0  0  0  0  0  0
    6.4502   -0.0318   25.1967 C   0  0  0  0  0  0  0  0  0  0  0  0
    6.4088   -1.0735   24.9320 H   0  0  0  0  0  0  0  0  0  0  0  0
    8.2992   -1.3668   22.8741 C   0  0  0  0  0  0  0  0  0  0  0  0
    8.6488   -1.4732   23.8946 H   0  0  0  0  0  0  0  0  0  0  0  0
    8.6020   -2.2812   21.9603 N   0  0  0  0  0  0  0  0  0  0  0  0
    8.0443   -1.8155   20.8328 N   0  0  0  0  0  0  0  0  0  0  0  0
    8.1243   -2.3569   19.9854 H   0  0  0  0  0  0  0  0  0  0  0  0
    5.4288    0.6627   20.1337 C   0  0  0  0  0  0  0  0  0  0  0  0
    5.0139    0.6282   21.1427 H   0  0  0  0  0  0  0  0  0  0  0  0
    4.7906    1.3198   19.0824 C   0  0  0  0  0  0  0  0  0  0  0  0
    3.8619    1.8498   19.2367 H   0  0  0  0  0  0  0  0  0  0  0  0
  1  2  1  0
  2  3  2  0
  3  4  1  0
  4  5  1  0
  4  6  2  0
  6  7  1  0
  7  8  2  0
  8  9  1  0
  9 10  1  0
  9 11  1  0
 11 12  2  0
 12 13  1  0
 13 14  1  0
 14 15  1  0
 14 16  1  0
 14 17  1  0
 13 18  1  0
 18 19  1  0
 18 20  2  0
 20 21  1  0
  8 22  1  0
 22 23  1  0
 22 24  2  0
 24 25  1  0
 25 26  1  0
  6 27  1  0
 27 28  1  0
 27 29  2  0
 29 30  1  0
 29  2  1  0
 25  7  1  0
 20 11  1  0
M  END
>  <cnnaffinity>  (1) 
-5.07981

>  <filename>  (1) 
Cn1ccc(Nc2cn[nH]c2-c2cccnc2)n1

$$$$
