
     RDKit          3D

 43 46  0  0  0  0  0  0  0  0999 V2000
   11.2615    2.3413   23.5560 C   0  0  0  0  0  0  0  0  0  0  0  0
    9.8332    2.2370   23.7975 N   0  0  0  0  0  0  0  0  0  0  0  0
    9.2195    2.0978   25.0167 C   0  0  0  0  0  0  0  0  0  0  0  0
    7.9271    1.9022   24.9103 N   0  0  0  0  0  0  0  0  0  0  0  0
    7.6893    1.9070   23.5642 C   0  0  0  0  0  0  0  0  0  0  0  0
    8.8399    2.1146   22.8439 C   0  0  0  0  0  0  0  0  0  0  0  0
    9.0601    2.0159   21.3670 C   0  0  0  0  0  0  0  0  0  0  0  0
    9.5351    0.6052   20.9261 C   0  0  0  0  0  0  0  0  0  0  0  0
    8.6497   -0.4984   21.4003 C   0  0  0  0  0  0  0  0  0  0  0  0
    8.8867   -1.3177   22.4082 N   0  0  0  0  0  0  0  0  0  0  0  0
    7.6885   -1.9312   22.5850 C   0  0  0  0  0  0  0  0  0  0  0  0
    7.4225   -2.8588   23.7208 C   0  0  0  0  0  0  0  0  0  0  0  0
    6.3618   -2.3538   24.7526 C   0  0  0  0  0  0  0  0  0  0  0  0
    5.4551   -3.5494   24.3863 C   0  0  0  0  0  0  0  0  0  0  0  0
    6.5190   -4.0833   23.4000 C   0  0  0  0  0  0  0  0  0  0  0  0
    6.1992   -4.1315   22.3541 H   0  0  0  0  0  0  0  0  0  0  0  0
    6.9558   -5.0491   23.6674 H   0  0  0  0  0  0  0  0  0  0  0  0
    4.5106   -3.2655   23.9133 H   0  0  0  0  0  0  0  0  0  0  0  0
    5.2191   -4.2169   25.2190 H   0  0  0  0  0  0  0  0  0  0  0  0
    5.9509   -1.3656   24.5143 H   0  0  0  0  0  0  0  0  0  0  0  0
    6.7056   -2.3234   25.7898 H   0  0  0  0  0  0  0  0  0  0  0  0
    8.3873   -3.1059   24.1657 H   0  0  0  0  0  0  0  0  0  0  0  0
    6.7496   -1.5795   21.7232 N   0  0  0  0  0  0  0  0  0  0  0  0
    7.3747   -0.6646   20.9409 N   0  0  0  0  0  0  0  0  0  0  0  0
    6.6627    0.0055   19.9046 C   0  0  0  0  0  0  0  0  0  0  0  0
    5.4433    0.6411   20.1677 C   0  0  0  0  0  0  0  0  0  0  0  0
    4.8135    1.3090   19.1112 C   0  0  0  0  0  0  0  0  0  0  0  0
    5.4009    1.2957   17.8391 C   0  0  0  0  0  0  0  0  0  0  0  0
    6.5606    0.6738   17.5786 N   0  0  0  0  0  0  0  0  0  0  0  0
    7.1702    0.0542   18.5952 C   0  0  0  0  0  0  0  0  0  0  0  0
    8.1140   -0.4340   18.3685 H   0  0  0  0  0  0  0  0  0  0  0  0
    4.9193    1.7851   16.9942 H   0  0  0  0  0  0  0  0  0  0  0  0
    3.8803    1.8388   19.2632 H   0  0  0  0  0  0  0  0  0  0  0  0
    5.0152    0.6093   21.1737 H   0  0  0  0  0  0  0  0  0  0  0  0
   10.5240    0.4025   21.3409 H   0  0  0  0  0  0  0  0  0  0  0  0
    9.6112    0.5713   19.8386 H   0  0  0  0  0  0  0  0  0  0  0  0
    9.7801    2.7684   21.0237 H   0  0  0  0  0  0  0  0  0  0  0  0
    8.1110    2.2423   20.8690 H   0  0  0  0  0  0  0  0  0  0  0  0
    6.7088    1.7074   23.1540 H   0  0  0  0  0  0  0  0  0  0  0  0
    9.7750    2.1649   25.9442 H   0  0  0  0  0  0  0  0  0  0  0  0
   11.4603    3.0213   22.7237 H   0  0  0  0  0  0  0  0  0  0  0  0
   11.7499    2.7523   24.4392 H   0  0  0  0  0  0  0  0  0  0  0  0
   11.7289    1.3741   23.3307 H   0  0  0  0  0  0  0  0  0  0  0  0
  1  2  1  0
  2  3  1  0
  3  4  2  0
  4  5  1  0
  5  6  2  0
  6  7  1  0
  7  8  1  0
  8  9  1  0
  9 10  2  0
 10 11  1  0
 11 12  1  0
 12 13  1  0
 13 14  1  0
 14 15  1  0
 15 16  1  0
 15 17  1  0
 14 18  1  0
 14 19  1  0
 13 20  1  0
 13 21  1  0
 12 22  1  0
 11 23  2  0
 23 24  1  0
 24 25  1  0
 25 26  2  0
 26 27  1  0
 27 28  2  0
 28 29  1  0
 29 30  2  0
 30 31  1  0
 28 32  1  0
 27 33  1  0
 26 34  1  0
  8 35  1  0
  8 36  1  0
  7 37  1  0
  7 38  1  0
  5 39  1  0
  3 40  1  0
  1 41  1  0
  1 42  1  0
  1 43  1  0
  6  2  1  0
 24  9  1  0
 30 25  1  0
 15 12  1  0
M  END
>  <cnnaffinity>  (1) 
-5.91065

>  <filename>  (1) 
Cn1cncc1CCc1nc(C2CCC2)nn1-c1cccnc1

$$$$
