
     RDKit          3D

 47 50  0  0  0  0  0  0  0  0999 V2000
    8.8138   -4.1146   23.9735 C   0  0  0  0  0  0  0  0  0  0  0  0
    8.2238   -5.1808   23.1820 N   0  0  0  0  0  0  0  0  0  0  0  0
    8.2363   -6.5123   23.4761 C   0  0  0  0  0  0  0  0  0  0  0  0
    7.3841   -7.1623   22.6031 C   0  0  0  0  0  0  0  0  0  0  0  0
    6.8343   -6.1783   21.7575 C   0  0  0  0  0  0  0  0  0  0  0  0
    7.4549   -4.9896   22.0615 C   0  0  0  0  0  0  0  0  0  0  0  0
    7.8186   -3.8706   21.0820 C   0  0  0  0  0  0  0  0  0  0  0  0
    6.6914   -3.5964   20.3067 C   0  0  0  0  0  0  0  0  0  0  0  0
    5.6592   -2.6753   20.7643 C   0  0  0  0  0  0  0  0  0  0  0  0
    4.7438   -3.4692   21.5741 N   0  0  0  0  0  0  0  0  0  0  0  0
    5.1105   -3.1924   22.8122 C   0  0  0  0  0  0  0  0  0  0  0  0
    4.3512   -3.8073   23.9530 C   0  0  0  0  0  0  0  0  0  0  0  0
    3.7946   -5.0971   23.8321 C   0  0  0  0  0  0  0  0  0  0  0  0
    2.8723   -5.5300   24.7796 C   0  0  0  0  0  0  0  0  0  0  0  0
    2.3034   -6.7358   24.6245 F   0  0  0  0  0  0  0  0  0  0  0  0
    2.4886   -4.7406   25.8614 C   0  0  0  0  0  0  0  0  0  0  0  0
    3.0973   -3.4904   26.0148 C   0  0  0  0  0  0  0  0  0  0  0  0
    4.0327   -3.0290   25.0848 C   0  0  0  0  0  0  0  0  0  0  0  0
    4.5028   -2.0568   25.2160 H   0  0  0  0  0  0  0  0  0  0  0  0
    2.8201   -2.8583   26.8543 H   0  0  0  0  0  0  0  0  0  0  0  0
    1.7300   -5.1104   26.5448 H   0  0  0  0  0  0  0  0  0  0  0  0
    4.0386   -5.7637   23.0065 H   0  0  0  0  0  0  0  0  0  0  0  0
    6.0455   -2.2364   22.9688 N   0  0  0  0  0  0  0  0  0  0  0  0
    6.1322   -1.6703   21.7464 N   0  0  0  0  0  0  0  0  0  0  0  0
    6.9444   -0.5000   21.4605 C   0  0  0  0  0  0  0  0  0  0  0  0
    6.5115    0.2289   20.1916 C   0  0  0  0  0  0  0  0  0  0  0  0
    5.3610    1.0287   20.1839 C   0  0  0  0  0  0  0  0  0  0  0  0
    4.9450    1.6076   18.9808 C   0  0  0  0  0  0  0  0  0  0  0  0
    5.6863    1.3547   17.8241 C   0  0  0  0  0  0  0  0  0  0  0  0
    6.7999    0.6101   17.8086 N   0  0  0  0  0  0  0  0  0  0  0  0
    7.1897    0.0665   18.9710 C   0  0  0  0  0  0  0  0  0  0  0  0
    8.0977   -0.5368   18.9197 H   0  0  0  0  0  0  0  0  0  0  0  0
    5.3606    1.7553   16.8653 H   0  0  0  0  0  0  0  0  0  0  0  0
    4.0685    2.2438   18.9291 H   0  0  0  0  0  0  0  0  0  0  0  0
    4.8012    1.1908   21.1064 H   0  0  0  0  0  0  0  0  0  0  0  0
    6.8631    0.1616   22.3286 H   0  0  0  0  0  0  0  0  0  0  0  0
    8.0050   -0.7837   21.3823 H   0  0  0  0  0  0  0  0  0  0  0  0
    6.3779   -4.2208   19.4907 H   0  0  0  0  0  0  0  0  0  0  0  0
    5.1986   -2.2383   19.8236 H   0  0  0  0  0  0  0  0  0  0  0  0
    8.6728   -4.2911   20.5104 H   0  0  0  0  0  0  0  0  0  0  0  0
    8.1680   -2.9737   21.6398 H   0  0  0  0  0  0  0  0  0  0  0  0
    6.0751   -6.2853   20.9938 H   0  0  0  0  0  0  0  0  0  0  0  0
    7.1887   -8.2204   22.4960 H   0  0  0  0  0  0  0  0  0  0  0  0
    8.8806   -6.8368   24.2826 H   0  0  0  0  0  0  0  0  0  0  0  0
    9.7701   -3.7780   23.5531 H   0  0  0  0  0  0  0  0  0  0  0  0
    8.9963   -4.4708   24.9923 H   0  0  0  0  0  0  0  0  0  0  0  0
    8.1099   -3.2724   23.9959 H   0  0  0  0  0  0  0  0  0  0  0  0
  1  2  1  0
  2  3  1  0
  3  4  2  0
  4  5  1  0
  5  6  2  0
  6  7  1  0
  7  8  1  0
  8  9  1  0
  9 10  2  0
 10 11  1  0
 11 12  1  0
 12 13  2  0
 13 14  1  0
 14 15  1  0
 14 16  2  0
 16 17  1  0
 17 18  2  0
 18 19  1  0
 17 20  1  0
 16 21  1  0
 13 22  1  0
 11 23  2  0
 23 24  1  0
 24 25  1  0
 25 26  1  0
 26 27  2  0
 27 28  1  0
 28 29  2  0
 29 30  1  0
 30 31  2  0
 31 32  1  0
 29 33  1  0
 28 34  1  0
 27 35  1  0
 25 36  1  0
 25 37  1  0
  8 38  1  0
  8 39  1  0
  7 40  1  0
  7 41  1  0
  5 42  1  0
  4 43  1  0
  3 44  1  0
  1 45  1  0
  1 46  1  0
  1 47  1  0
  6  2  1  0
 24  9  1  0
 31 26  1  0
 18 12  1  0
M  END
>  <cnnaffinity>  (1) 
-5.97831

>  <filename>  (1) 
Cn1cccc1CCc1nc(-c2cccc(F)c2)nn1Cc1cccnc1

$$$$
