
     RDKit          3D

 44 47  0  0  0  0  0  0  0  0999 V2000
   12.2837   -1.2890   21.3193 C   0  0  0  0  0  0  0  0  0  0  0  0
   11.8467   -0.0406   21.9226 N   0  0  0  0  0  0  0  0  0  0  0  0
   12.4827    0.6672   22.9266 C   0  0  0  0  0  0  0  0  0  0  0  0
   11.6942    1.7539   23.1684 C   0  0  0  0  0  0  0  0  0  0  0  0
   10.5897    1.7379   22.3504 N   0  0  0  0  0  0  0  0  0  0  0  0
   10.7122    0.6560   21.6262 C   0  0  0  0  0  0  0  0  0  0  0  0
    9.6661    0.2110   20.6631 C   0  0  0  0  0  0  0  0  0  0  0  0
    8.6386   -0.6220   21.3320 C   0  0  0  0  0  0  0  0  0  0  0  0
    8.8704   -1.4706   22.3027 N   0  0  0  0  0  0  0  0  0  0  0  0
    7.6363   -1.9913   22.5520 C   0  0  0  0  0  0  0  0  0  0  0  0
    7.4107   -2.9891   23.6436 C   0  0  0  0  0  0  0  0  0  0  0  0
    8.1148   -4.3351   23.3347 C   0  0  0  0  0  0  0  0  0  0  0  0
    8.0968   -5.2850   24.5067 C   0  0  0  0  0  0  0  0  0  0  0  0
    7.8557   -4.8974   25.7624 C   0  0  0  0  0  0  0  0  0  0  0  0
    7.5103   -3.4734   26.1322 C   0  0  0  0  0  0  0  0  0  0  0  0
    7.8580   -2.4629   25.0259 C   0  0  0  0  0  0  0  0  0  0  0  0
    7.3892   -1.4961   25.2432 H   0  0  0  0  0  0  0  0  0  0  0  0
    8.9407   -2.2860   25.0031 H   0  0  0  0  0  0  0  0  0  0  0  0
    8.0030   -3.1914   27.0705 H   0  0  0  0  0  0  0  0  0  0  0  0
    6.4336   -3.4258   26.3477 H   0  0  0  0  0  0  0  0  0  0  0  0
    7.8997   -5.6267   26.5718 H   0  0  0  0  0  0  0  0  0  0  0  0
    8.3067   -6.3323   24.2964 H   0  0  0  0  0  0  0  0  0  0  0  0
    7.6617   -4.8096   22.4559 H   0  0  0  0  0  0  0  0  0  0  0  0
    9.1604   -4.1391   23.0613 H   0  0  0  0  0  0  0  0  0  0  0  0
    6.3299   -3.1541   23.6697 H   0  0  0  0  0  0  0  0  0  0  0  0
    6.6833   -1.5522   21.7581 N   0  0  0  0  0  0  0  0  0  0  0  0
    7.3357   -0.6872   20.9365 N   0  0  0  0  0  0  0  0  0  0  0  0
    6.6500    0.0024   19.9004 C   0  0  0  0  0  0  0  0  0  0  0  0
    5.4361    0.6455   20.1666 C   0  0  0  0  0  0  0  0  0  0  0  0
    4.8122    1.3111   19.1090 C   0  0  0  0  0  0  0  0  0  0  0  0
    5.4020    1.2951   17.8377 C   0  0  0  0  0  0  0  0  0  0  0  0
    6.5615    0.6723   17.5775 N   0  0  0  0  0  0  0  0  0  0  0  0
    7.1663    0.0523   18.5943 C   0  0  0  0  0  0  0  0  0  0  0  0
    8.1140   -0.4282   18.3682 H   0  0  0  0  0  0  0  0  0  0  0  0
    4.9194    1.7835   16.9937 H   0  0  0  0  0  0  0  0  0  0  0  0
    3.8798    1.8406   19.2614 H   0  0  0  0  0  0  0  0  0  0  0  0
    5.0150    0.6112   21.1744 H   0  0  0  0  0  0  0  0  0  0  0  0
   10.0613   -0.4123   19.8560 H   0  0  0  0  0  0  0  0  0  0  0  0
    9.2078    1.1035   20.2350 H   0  0  0  0  0  0  0  0  0  0  0  0
   11.8650    2.5449   23.8879 H   0  0  0  0  0  0  0  0  0  0  0  0
   13.4209    0.3413   23.3531 H   0  0  0  0  0  0  0  0  0  0  0  0
   12.6020   -1.1736   20.2799 H   0  0  0  0  0  0  0  0  0  0  0  0
   13.1349   -1.6676   21.8823 H   0  0  0  0  0  0  0  0  0  0  0  0
   11.4818   -2.0303   21.3384 H   0  0  0  0  0  0  0  0  0  0  0  0
  1  2  1  0
  2  3  1  0
  3  4  2  0
  4  5  1  0
  5  6  2  0
  6  7  1  0
  7  8  1  0
  8  9  2  0
  9 10  1  0
 10 11  1  0
 11 12  1  0
 12 13  1  0
 13 14  2  0
 14 15  1  0
 15 16  1  0
 16 17  1  0
 16 18  1  0
 15 19  1  0
 15 20  1  0
 14 21  1  0
 13 22  1  0
 12 23  1  0
 12 24  1  0
 11 25  1  0
 10 26  2  0
 26 27  1  0
 27 28  1  0
 28 29  2  0
 29 30  1  0
 30 31  2  0
 31 32  1  0
 32 33  2  0
 33 34  1  0
 31 35  1  0
 30 36  1  0
 29 37  1  0
  7 38  1  0
  7 39  1  0
  4 40  1  0
  3 41  1  0
  1 42  1  0
  1 43  1  0
  1 44  1  0
  6  2  1  0
 27  8  1  0
 33 28  1  0
 16 11  1  0
M  END
>  <cnnaffinity>  (1) 
-6.45426

>  <filename>  (1) 
Cn1ccnc1Cc1nc(C2CC=CCC2)nn1-c1cccnc1

$$$$
