
     RDKit          3D

 47 50  0  0  0  0  0  0  0  0999 V2000
    2.6873    2.8261   26.0935 C   0  0  0  0  0  0  0  0  0  0  0  0
    4.1227    2.7386   25.9249 N   0  0  0  0  0  0  0  0  0  0  0  0
    5.0514    3.5997   26.4465 C   0  0  0  0  0  0  0  0  0  0  0  0
    6.2884    3.2515   25.9624 C   0  0  0  0  0  0  0  0  0  0  0  0
    6.1095    2.1288   25.1122 C   0  0  0  0  0  0  0  0  0  0  0  0
    7.1559    1.3900   24.3503 C   0  0  0  0  0  0  0  0  0  0  0  0
    7.2489    1.7682   22.8495 C   0  0  0  0  0  0  0  0  0  0  0  0
    8.2208    0.8544   22.1945 C   0  0  0  0  0  0  0  0  0  0  0  0
    9.5240    0.9518   22.3901 N   0  0  0  0  0  0  0  0  0  0  0  0
   10.0002   -0.2129   21.9033 C   0  0  0  0  0  0  0  0  0  0  0  0
   11.4388   -0.5784   21.8560 C   0  0  0  0  0  0  0  0  0  0  0  0
   11.7619   -1.6889   21.0718 C   0  0  0  0  0  0  0  0  0  0  0  0
   13.0853   -1.9177   20.7511 C   0  0  0  0  0  0  0  0  0  0  0  0
   13.4395   -2.8291   19.8441 F   0  0  0  0  0  0  0  0  0  0  0  0
   14.1143   -1.1912   21.3109 C   0  0  0  0  0  0  0  0  0  0  0  0
   13.7912   -0.1559   22.1785 C   0  0  0  0  0  0  0  0  0  0  0  0
   14.7750    0.5905   22.6897 F   0  0  0  0  0  0  0  0  0  0  0  0
   12.4671    0.1640   22.4797 C   0  0  0  0  0  0  0  0  0  0  0  0
   12.2713    0.9946   23.1460 H   0  0  0  0  0  0  0  0  0  0  0  0
   15.0931   -1.4607   20.9748 H   0  0  0  0  0  0  0  0  0  0  0  0
   10.9424   -2.3054   20.7217 H   0  0  0  0  0  0  0  0  0  0  0  0
    9.0631   -1.0078   21.3943 N   0  0  0  0  0  0  0  0  0  0  0  0
    7.9222   -0.3188   21.5965 N   0  0  0  0  0  0  0  0  0  0  0  0
    6.6643   -0.8077   21.0358 C   0  0  0  0  0  0  0  0  0  0  0  0
    6.1800    0.0027   19.8498 C   0  0  0  0  0  0  0  0  0  0  0  0
    4.9893    0.7379   19.8814 C   0  0  0  0  0  0  0  0  0  0  0  0
    4.6209    1.4768   18.7540 C   0  0  0  0  0  0  0  0  0  0  0  0
    5.4574    1.4515   17.6346 C   0  0  0  0  0  0  0  0  0  0  0  0
    6.6014    0.7509   17.5815 N   0  0  0  0  0  0  0  0  0  0  0  0
    6.9503    0.0618   18.6749 C   0  0  0  0  0  0  0  0  0  0  0  0
    7.8954   -0.4783   18.6128 H   0  0  0  0  0  0  0  0  0  0  0  0
    5.2071    2.0311   16.7474 H   0  0  0  0  0  0  0  0  0  0  0  0
    3.7201    2.0824   18.7385 H   0  0  0  0  0  0  0  0  0  0  0  0
    4.3669    0.7422   20.7803 H   0  0  0  0  0  0  0  0  0  0  0  0
    6.8474   -1.8512   20.7598 H   0  0  0  0  0  0  0  0  0  0  0  0
    5.9051   -0.8105   21.8254 H   0  0  0  0  0  0  0  0  0  0  0  0
    6.2732    1.7364   22.3540 H   0  0  0  0  0  0  0  0  0  0  0  0
    7.6351    2.7850   22.7398 H   0  0  0  0  0  0  0  0  0  0  0  0
    6.9747    0.3057   24.4383 H   0  0  0  0  0  0  0  0  0  0  0  0
    8.1503    1.5661   24.7858 H   0  0  0  0  0  0  0  0  0  0  0  0
    4.7685    1.8431   25.1118 C   0  0  0  0  0  0  0  0  0  0  0  0
    4.2211    1.0545   24.6078 H   0  0  0  0  0  0  0  0  0  0  0  0
    7.2306    3.7408   26.1832 H   0  0  0  0  0  0  0  0  0  0  0  0
    4.7602    4.3772   27.1402 H   0  0  0  0  0  0  0  0  0  0  0  0
    2.4567    3.2134   27.0891 H   0  0  0  0  0  0  0  0  0  0  0  0
    2.2322    3.4823   25.3411 H   0  0  0  0  0  0  0  0  0  0  0  0
    2.2505    1.8279   26.0037 H   0  0  0  0  0  0  0  0  0  0  0  0
  1  2  1  0
  2  3  1  0
  3  4  2  0
  4  5  1  0
  5  6  1  0
  6  7  1  0
  7  8  1  0
  8  9  2  0
  9 10  1  0
 10 11  1  0
 11 12  2  0
 12 13  1  0
 13 14  1  0
 13 15  2  0
 15 16  1  0
 16 17  1  0
 16 18  2  0
 18 19  1  0
 15 20  1  0
 12 21  1  0
 10 22  2  0
 22 23  1  0
 23 24  1  0
 24 25  1  0
 25 26  2  0
 26 27  1  0
 27 28  2  0
 28 29  1  0
 29 30  2  0
 30 31  1  0
 28 32  1  0
 27 33  1  0
 26 34  1  0
 24 35  1  0
 24 36  1  0
  7 37  1  0
  7 38  1  0
  6 39  1  0
  6 40  1  0
  5 41  2  0
 41 42  1  0
  4 43  1  0
  3 44  1  0
  1 45  1  0
  1 46  1  0
  1 47  1  0
 41  2  1  0
 23  8  1  0
 30 25  1  0
 18 11  1  0
M  END
>  <cnnaffinity>  (1) 
-6.55822

>  <filename>  (1) 
Cn1ccc(CCc2nc(-c3cc(F)cc(F)c3)nn2Cc2cccnc2)c1

$$$$
