
     RDKit          3D

 45 48  0  0  0  0  0  0  0  0999 V2000
   12.2782   -1.2642   21.3507 C   0  0  0  0  0  0  0  0  0  0  0  0
   11.8747    0.0192   21.9066 N   0  0  0  0  0  0  0  0  0  0  0  0
   12.5036    0.6706   22.9411 C   0  0  0  0  0  0  0  0  0  0  0  0
   11.7724    1.7872   23.2771 C   0  0  0  0  0  0  0  0  0  0  0  0
   10.6439    1.7985   22.4126 C   0  0  0  0  0  0  0  0  0  0  0  0
   10.7261    0.6983   21.5903 C   0  0  0  0  0  0  0  0  0  0  0  0
    9.6651    0.1790   20.6642 C   0  0  0  0  0  0  0  0  0  0  0  0
    8.6232   -0.6556   21.3364 C   0  0  0  0  0  0  0  0  0  0  0  0
    8.8399   -1.5148   22.3043 N   0  0  0  0  0  0  0  0  0  0  0  0
    7.6013   -2.0189   22.5531 C   0  0  0  0  0  0  0  0  0  0  0  0
    7.3786   -3.0042   23.6520 C   0  0  0  0  0  0  0  0  0  0  0  0
    8.1188   -4.3374   23.3470 C   0  0  0  0  0  0  0  0  0  0  0  0
    8.1040   -5.2759   24.5299 C   0  0  0  0  0  0  0  0  0  0  0  0
    7.8492   -4.8811   25.7792 C   0  0  0  0  0  0  0  0  0  0  0  0
    7.4872   -3.4581   26.1497 C   0  0  0  0  0  0  0  0  0  0  0  0
    7.8350   -2.4558   25.0332 C   0  0  0  0  0  0  0  0  0  0  0  0
    7.3662   -1.4853   25.2427 H   0  0  0  0  0  0  0  0  0  0  0  0
    8.9217   -2.2752   25.0066 H   0  0  0  0  0  0  0  0  0  0  0  0
    7.9854   -3.1820   27.0891 H   0  0  0  0  0  0  0  0  0  0  0  0
    6.4074   -3.4102   26.3686 H   0  0  0  0  0  0  0  0  0  0  0  0
    7.8737   -5.6094   26.5913 H   0  0  0  0  0  0  0  0  0  0  0  0
    8.3394   -6.3208   24.3241 H   0  0  0  0  0  0  0  0  0  0  0  0
    9.1649   -4.1246   23.0656 H   0  0  0  0  0  0  0  0  0  0  0  0
    7.6730   -4.8342   22.4744 H   0  0  0  0  0  0  0  0  0  0  0  0
    6.2924   -3.1780   23.6750 H   0  0  0  0  0  0  0  0  0  0  0  0
    6.6529   -1.5651   21.7610 N   0  0  0  0  0  0  0  0  0  0  0  0
    7.3164   -0.7017   20.9493 N   0  0  0  0  0  0  0  0  0  0  0  0
    6.6429   -0.0141   19.8988 C   0  0  0  0  0  0  0  0  0  0  0  0
    5.4325    0.6386   20.1555 C   0  0  0  0  0  0  0  0  0  0  0  0
    4.8053    1.3130   19.1036 C   0  0  0  0  0  0  0  0  0  0  0  0
    5.3976    1.2961   17.8352 C   0  0  0  0  0  0  0  0  0  0  0  0
    6.5518    0.6623   17.5783 N   0  0  0  0  0  0  0  0  0  0  0  0
    7.1571    0.0342   18.5913 C   0  0  0  0  0  0  0  0  0  0  0  0
    8.1061   -0.4432   18.3501 H   0  0  0  0  0  0  0  0  0  0  0  0
    4.9341    1.8058   16.9923 H   0  0  0  0  0  0  0  0  0  0  0  0
    3.8720    1.8497   19.2520 H   0  0  0  0  0  0  0  0  0  0  0  0
    5.0134    0.6014   21.1598 H   0  0  0  0  0  0  0  0  0  0  0  0
    9.1714    1.0348   20.2057 H   0  0  0  0  0  0  0  0  0  0  0  0
   10.0537   -0.4532   19.8564 H   0  0  0  0  0  0  0  0  0  0  0  0
    9.8243    2.5054   22.4140 H   0  0  0  0  0  0  0  0  0  0  0  0
   11.9995    2.5082   24.0548 H   0  0  0  0  0  0  0  0  0  0  0  0
   13.4251    0.2769   23.3469 H   0  0  0  0  0  0  0  0  0  0  0  0
   13.1491   -1.6272   21.9029 H   0  0  0  0  0  0  0  0  0  0  0  0
   12.5537   -1.1825   20.2919 H   0  0  0  0  0  0  0  0  0  0  0  0
   11.4555   -1.9817   21.4529 H   0  0  0  0  0  0  0  0  0  0  0  0
  1  2  1  0
  2  3  1  0
  3  4  2  0
  4  5  1  0
  5  6  2  0
  6  7  1  0
  7  8  1  0
  8  9  2  0
  9 10  1  0
 10 11  1  0
 11 12  1  0
 12 13  1  0
 13 14  2  0
 14 15  1  0
 15 16  1  0
 16 17  1  0
 16 18  1  0
 15 19  1  0
 15 20  1  0
 14 21  1  0
 13 22  1  0
 12 23  1  0
 12 24  1  0
 11 25  1  0
 10 26  2  0
 26 27  1  0
 27 28  1  0
 28 29  2  0
 29 30  1  0
 30 31  2  0
 31 32  1  0
 32 33  2  0
 33 34  1  0
 31 35  1  0
 30 36  1  0
 29 37  1  0
  7 38  1  0
  7 39  1  0
  5 40  1  0
  4 41  1  0
  3 42  1  0
  1 43  1  0
  1 44  1  0
  1 45  1  0
  6  2  1  0
 27  8  1  0
 33 28  1  0
 16 11  1  0
M  END
>  <cnnaffinity>  (1) 
-6.52944

>  <filename>  (1) 
Cn1cccc1Cc1nc(C2CC=CCC2)nn1-c1cccnc1

$$$$
