
     RDKit          3D

 46 49  0  0  0  0  0  0  0  0999 V2000
   14.7052   -1.6379   19.9561 C   0  0  0  0  0  0  0  0  0  0  0  0
   13.9191   -1.3114   21.1254 N   0  0  0  0  0  0  0  0  0  0  0  0
   12.5853   -1.5344   21.1450 C   0  0  0  0  0  0  0  0  0  0  0  0
   12.0300   -0.5146   21.8776 C   0  0  0  0  0  0  0  0  0  0  0  0
   10.6483   -0.1364   21.8434 C   0  0  0  0  0  0  0  0  0  0  0  0
    9.7236   -0.8703   21.2525 N   0  0  0  0  0  0  0  0  0  0  0  0
    8.6014   -0.1468   21.4403 N   0  0  0  0  0  0  0  0  0  0  0  0
    7.3085   -0.6922   21.0446 C   0  0  0  0  0  0  0  0  0  0  0  0
    6.6113    0.0667   19.9383 C   0  0  0  0  0  0  0  0  0  0  0  0
    5.3906    0.7152   20.1360 C   0  0  0  0  0  0  0  0  0  0  0  0
    4.7817    1.3548   19.0522 C   0  0  0  0  0  0  0  0  0  0  0  0
    5.4262    1.3303   17.8117 C   0  0  0  0  0  0  0  0  0  0  0  0
    6.6019    0.7173   17.6045 N   0  0  0  0  0  0  0  0  0  0  0  0
    7.1777    0.1139   18.6522 C   0  0  0  0  0  0  0  0  0  0  0  0
    8.1411   -0.3575   18.4600 H   0  0  0  0  0  0  0  0  0  0  0  0
    4.9787    1.8235   16.9483 H   0  0  0  0  0  0  0  0  0  0  0  0
    3.8400    1.8792   19.1574 H   0  0  0  0  0  0  0  0  0  0  0  0
    4.9365    0.7294   21.1311 H   0  0  0  0  0  0  0  0  0  0  0  0
    7.5179   -1.7157   20.7212 H   0  0  0  0  0  0  0  0  0  0  0  0
    6.6635   -0.7605   21.9296 H   0  0  0  0  0  0  0  0  0  0  0  0
    8.9039    0.9678   22.1457 C   0  0  0  0  0  0  0  0  0  0  0  0
    7.9186    1.8137   22.8629 C   0  0  0  0  0  0  0  0  0  0  0  0
    7.7267    1.2742   24.3034 C   0  0  0  0  0  0  0  0  0  0  0  0
    6.6691    2.0091   25.0796 C   0  0  0  0  0  0  0  0  0  0  0  0
    6.9463    3.0685   25.9529 C   0  0  0  0  0  0  0  0  0  0  0  0
    8.2231    3.4795   26.0816 F   0  0  0  0  0  0  0  0  0  0  0  0
    5.9666    3.7254   26.6951 C   0  0  0  0  0  0  0  0  0  0  0  0
    4.6360    3.3147   26.5623 C   0  0  0  0  0  0  0  0  0  0  0  0
    4.2953    2.2911   25.6715 C   0  0  0  0  0  0  0  0  0  0  0  0
    5.3150    1.6937   24.9369 C   0  0  0  0  0  0  0  0  0  0  0  0
    4.9803    0.7658   24.0194 F   0  0  0  0  0  0  0  0  0  0  0  0
    3.2771    1.9406   25.5420 H   0  0  0  0  0  0  0  0  0  0  0  0
    3.8587    3.7953   27.1517 H   0  0  0  0  0  0  0  0  0  0  0  0
    6.2678    4.5286   27.3592 H   0  0  0  0  0  0  0  0  0  0  0  0
    8.6886    1.3284   24.8274 H   0  0  0  0  0  0  0  0  0  0  0  0
    7.4673    0.2069   24.2556 H   0  0  0  0  0  0  0  0  0  0  0  0
    8.3244    2.8267   22.9098 H   0  0  0  0  0  0  0  0  0  0  0  0
    6.9658    1.8569   22.3238 H   0  0  0  0  0  0  0  0  0  0  0  0
   10.1994    1.0044   22.4031 N   0  0  0  0  0  0  0  0  0  0  0  0
   13.1313    0.2356   22.3651 C   0  0  0  0  0  0  0  0  0  0  0  0
   14.2547   -0.2453   21.8823 N   0  0  0  0  0  0  0  0  0  0  0  0
   13.1442    1.1298   22.9752 H   0  0  0  0  0  0  0  0  0  0  0  0
   12.1264   -2.3344   20.5762 H   0  0  0  0  0  0  0  0  0  0  0  0
   14.1919   -1.2683   19.0730 H   0  0  0  0  0  0  0  0  0  0  0  0
   15.6480   -1.1109   19.9765 H   0  0  0  0  0  0  0  0  0  0  0  0
   14.8543   -2.7173   19.8908 H   0  0  0  0  0  0  0  0  0  0  0  0
  1  2  1  0
  2  3  1  0
  3  4  2  0
  4  5  1  0
  5  6  2  0
  6  7  1  0
  7  8  1  0
  8  9  1  0
  9 10  2  0
 10 11  1  0
 11 12  2  0
 12 13  1  0
 13 14  2  0
 14 15  1  0
 12 16  1  0
 11 17  1  0
 10 18  1  0
  8 19  1  0
  8 20  1  0
  7 21  1  0
 21 22  1  0
 22 23  1  0
 23 24  1  0
 24 25  2  0
 25 26  1  0
 25 27  1  0
 27 28  2  0
 28 29  1  0
 29 30  2  0
 30 31  1  0
 29 32  1  0
 28 33  1  0
 27 34  1  0
 23 35  1  0
 23 36  1  0
 22 37  1  0
 22 38  1  0
 21 39  2  0
  4 40  1  0
 40 41  2  0
 40 42  1  0
  3 43  1  0
  1 44  1  0
  1 45  1  0
  1 46  1  0
 41  2  1  0
 39  5  1  0
 14  9  1  0
 30 24  1  0
M  END
>  <cnnaffinity>  (1) 
-6.72472

>  <filename>  (1) 
Cn1cc(-c2nc(CCc3c(F)cccc3F)n(Cc3cccnc3)n2)cn1

$$$$
