
     RDKit          3D

 36 38  0  0  0  0  0  0  0  0999 V2000
    6.4415   -1.5186   22.9696 H   0  0  0  0  0  0  0  0  0  0  0  0
    6.4104   -0.5235   22.6841 N   0  0  0  0  0  0  0  0  0  0  0  0
    7.3459   -0.7631   21.3972 S   0  0  1  0  0  6  0  0  0  0  0  0
    7.4656   -2.1913   21.2025 O   0  0  0  0  0  0  0  0  0  0  0  0
    6.6056    0.0953   20.1452 C   0  0  0  0  0  0  0  0  0  0  0  0
    7.3526    0.1207   18.9804 C   0  0  0  0  0  0  0  0  0  0  0  0
    8.3663   -0.2839   18.9274 H   0  0  0  0  0  0  0  0  0  0  0  0
    6.8774    0.6560   17.8582 N   0  0  0  0  0  0  0  0  0  0  0  0
    5.6705    1.2451   17.8988 C   0  0  0  0  0  0  0  0  0  0  0  0
    5.3091    1.6693   16.9629 H   0  0  0  0  0  0  0  0  0  0  0  0
    4.9009    1.3322   19.0653 C   0  0  0  0  0  0  0  0  0  0  0  0
    3.9599    1.8701   19.0407 H   0  0  0  0  0  0  0  0  0  0  0  0
    5.3636    0.7391   20.2311 C   0  0  0  0  0  0  0  0  0  0  0  0
    4.8082    0.7753   21.1737 H   0  0  0  0  0  0  0  0  0  0  0  0
    8.8398    0.0272   21.4513 N   0  0  0  0  0  0  0  0  0  0  0  0
    8.6963    1.4292   21.9369 C   0  0  0  0  0  0  0  0  0  0  0  0
    7.8573    1.9525   21.4590 H   0  0  0  0  0  0  0  0  0  0  0  0
    9.6127    1.9707   21.6665 H   0  0  0  0  0  0  0  0  0  0  0  0
    8.5766    1.3008   23.4568 C   0  0  0  0  0  0  0  0  0  0  0  0
    7.5640    0.9473   23.6765 H   0  0  0  0  0  0  0  0  0  0  0  0
    8.7808    2.2418   23.9756 H   0  0  0  0  0  0  0  0  0  0  0  0
    9.5387    0.1426   23.8129 C   0  0  2  0  0  0  0  0  0  0  0  0
    9.0831   -0.5119   24.5630 H   0  0  0  0  0  0  0  0  0  0  0  0
   10.9517    0.5816   24.2351 C   0  0  0  0  0  0  0  0  0  0  0  0
   10.9369    1.5367   24.7772 H   0  0  0  0  0  0  0  0  0  0  0  0
   11.3972   -0.1690   24.9180 H   0  0  0  0  0  0  0  0  0  0  0  0
   11.7044    0.7015   22.9935 N   0  0  0  0  0  0  0  0  0  0  0  0
   13.1390    0.7893   23.1396 C   0  0  0  0  0  0  0  0  0  0  0  0
   13.4135    1.7095   23.6637 H   0  0  0  0  0  0  0  0  0  0  0  0
   13.5681   -0.0635   23.6971 H   0  0  0  0  0  0  0  0  0  0  0  0
   13.6082    0.8190   22.1519 H   0  0  0  0  0  0  0  0  0  0  0  0
   11.2447   -0.3959   22.1380 C   0  0  0  0  0  0  0  0  0  0  0  0
   11.7859   -1.3365   22.3588 H   0  0  0  0  0  0  0  0  0  0  0  0
   11.3707   -0.1692   21.0710 H   0  0  0  0  0  0  0  0  0  0  0  0
    9.7467   -0.6133   22.4634 C   0  0  2  0  0  0  0  0  0  0  0  0
    9.5504   -1.6900   22.5433 H   0  0  0  0  0  0  0  0  0  0  0  0
  1  2  1  0
  2  3  2  0
  3  4  2  0
  3  5  1  0
  5  6  2  0
  6  7  1  0
  6  8  1  0
  8  9  2  0
  9 10  1  0
  9 11  1  0
 11 12  1  0
 11 13  2  0
 13 14  1  0
  3 15  1  1
 15 16  1  0
 16 17  1  0
 16 18  1  0
 16 19  1  0
 19 20  1  0
 19 21  1  0
 19 22  1  0
 22 23  1  1
 22 24  1  0
 24 25  1  0
 24 26  1  0
 24 27  1  0
 27 28  1  0
 28 29  1  0
 28 30  1  0
 28 31  1  0
 27 32  1  0
 32 33  1  0
 32 34  1  0
 32 35  1  0
 35 36  1  1
 13  5  1  0
 35 15  1  0
 35 22  1  0
M  END
>  <cnnaffinity>  (1) 
-4.99713

>  <filename>  (1) 
CN1C[C@H]2CCN([S@](=N)(=O)c3cccnc3)[C@H]2C1

$$$$
