
     RDKit          3D

 46 49  0  0  0  0  0  0  0  0999 V2000
    3.1595    2.7235   25.9010 C   0  0  0  0  0  0  0  0  0  0  0  0
    4.5838    2.5550   25.7290 N   0  0  0  0  0  0  0  0  0  0  0  0
    5.2012    1.6485   24.9376 C   0  0  0  0  0  0  0  0  0  0  0  0
    6.5483    1.9224   24.9840 C   0  0  0  0  0  0  0  0  0  0  0  0
    7.6132    1.2309   24.2083 C   0  0  0  0  0  0  0  0  0  0  0  0
    7.8218    1.8068   22.7842 C   0  0  0  0  0  0  0  0  0  0  0  0
    8.8099    0.9561   22.0834 C   0  0  0  0  0  0  0  0  0  0  0  0
   10.1081    1.0049   22.3311 N   0  0  0  0  0  0  0  0  0  0  0  0
   10.5487   -0.1791   21.8645 C   0  0  0  0  0  0  0  0  0  0  0  0
   11.9501   -0.6015   21.8287 C   0  0  0  0  0  0  0  0  0  0  0  0
   13.0380    0.1860   22.2333 C   0  0  0  0  0  0  0  0  0  0  0  0
   14.3026   -0.1009   21.7249 C   0  0  0  0  0  0  0  0  0  0  0  0
   14.4120   -1.1280   20.7685 C   0  0  0  0  0  0  0  0  0  0  0  0
   15.4257   -1.1571   19.8994 F   0  0  0  0  0  0  0  0  0  0  0  0
   13.4097   -2.0555   20.5575 C   0  0  0  0  0  0  0  0  0  0  0  0
   12.1881   -1.7941   21.1366 C   0  0  0  0  0  0  0  0  0  0  0  0
   11.3299   -2.4266   20.9893 H   0  0  0  0  0  0  0  0  0  0  0  0
   13.5860   -2.9007   19.9001 H   0  0  0  0  0  0  0  0  0  0  0  0
   15.1414    0.5482   21.9533 H   0  0  0  0  0  0  0  0  0  0  0  0
   12.8731    1.0514   22.8701 H   0  0  0  0  0  0  0  0  0  0  0  0
    9.6010   -0.9437   21.3374 N   0  0  0  0  0  0  0  0  0  0  0  0
    8.4913   -0.2018   21.4600 N   0  0  0  0  0  0  0  0  0  0  0  0
    7.2114   -0.7485   21.0171 C   0  0  0  0  0  0  0  0  0  0  0  0
    6.5430    0.0265   19.9032 C   0  0  0  0  0  0  0  0  0  0  0  0
    5.3213    0.6836   20.0764 C   0  0  0  0  0  0  0  0  0  0  0  0
    4.7535    1.3568   18.9917 C   0  0  0  0  0  0  0  0  0  0  0  0
    5.4317    1.3495   17.7702 C   0  0  0  0  0  0  0  0  0  0  0  0
    6.6013    0.7178   17.5809 N   0  0  0  0  0  0  0  0  0  0  0  0
    7.1378    0.0852   18.6313 C   0  0  0  0  0  0  0  0  0  0  0  0
    8.0902   -0.4129   18.4493 H   0  0  0  0  0  0  0  0  0  0  0  0
    5.0208    1.8703   16.9058 H   0  0  0  0  0  0  0  0  0  0  0  0
    3.8193    1.8983   19.0862 H   0  0  0  0  0  0  0  0  0  0  0  0
    4.8234    0.6689   21.0480 H   0  0  0  0  0  0  0  0  0  0  0  0
    7.4378   -1.7680   20.6883 H   0  0  0  0  0  0  0  0  0  0  0  0
    6.5441   -0.8247   21.8849 H   0  0  0  0  0  0  0  0  0  0  0  0
    6.8839    1.8373   22.2231 H   0  0  0  0  0  0  0  0  0  0  0  0
    8.2197    2.8215   22.8408 H   0  0  0  0  0  0  0  0  0  0  0  0
    8.5766    1.2589   24.7370 H   0  0  0  0  0  0  0  0  0  0  0  0
    7.3635    0.1623   24.1150 H   0  0  0  0  0  0  0  0  0  0  0  0
    6.6395    3.0269   25.8573 C   0  0  0  0  0  0  0  0  0  0  0  0
    5.4442    3.4079   26.2905 N   0  0  0  0  0  0  0  0  0  0  0  0
    7.5277    3.5632   26.1786 H   0  0  0  0  0  0  0  0  0  0  0  0
    4.6459    0.8729   24.4195 H   0  0  0  0  0  0  0  0  0  0  0  0
    2.6819    1.7413   25.8866 H   0  0  0  0  0  0  0  0  0  0  0  0
    2.9803    3.2064   26.8626 H   0  0  0  0  0  0  0  0  0  0  0  0
    2.7429    3.3416   25.0990 H   0  0  0  0  0  0  0  0  0  0  0  0
  1  2  1  0
  2  3  1  0
  3  4  2  0
  4  5  1  0
  5  6  1  0
  6  7  1  0
  7  8  2  0
  8  9  1  0
  9 10  1  0
 10 11  2  0
 11 12  1  0
 12 13  2  0
 13 14  1  0
 13 15  1  0
 15 16  2  0
 16 17  1  0
 15 18  1  0
 12 19  1  0
 11 20  1  0
  9 21  2  0
 21 22  1  0
 22 23  1  0
 23 24  1  0
 24 25  2  0
 25 26  1  0
 26 27  2  0
 27 28  1  0
 28 29  2  0
 29 30  1  0
 27 31  1  0
 26 32  1  0
 25 33  1  0
 23 34  1  0
 23 35  1  0
  6 36  1  0
  6 37  1  0
  5 38  1  0
  5 39  1  0
  4 40  1  0
 40 41  2  0
 40 42  1  0
  3 43  1  0
  1 44  1  0
  1 45  1  0
  1 46  1  0
 41  2  1  0
 22  7  1  0
 29 24  1  0
 16 10  1  0
M  END
>  <cnnaffinity>  (1) 
-6.57094

>  <filename>  (1) 
Cn1cc(CCc2nc(-c3ccc(F)cc3)nn2Cc2cccnc2)cn1

$$$$
