
     RDKit          3D

 43 46  0  0  0  0  0  0  0  0999 V2000
    8.4309    0.0922   27.3947 C   0  0  0  0  0  0  0  0  0  0  0  0
    7.5987    0.4531   26.2631 N   0  0  0  0  0  0  0  0  0  0  0  0
    6.3832   -0.0187   25.9039 C   0  0  0  0  0  0  0  0  0  0  0  0
    6.0869    0.5680   24.6882 C   0  0  0  0  0  0  0  0  0  0  0  0
    7.2085    1.3663   24.3847 C   0  0  0  0  0  0  0  0  0  0  0  0
    7.5801    2.0176   23.0822 C   0  0  0  0  0  0  0  0  0  0  0  0
    8.5209    1.0912   22.3741 C   0  0  0  0  0  0  0  0  0  0  0  0
    9.8285    1.1325   22.5311 N   0  0  0  0  0  0  0  0  0  0  0  0
   10.2500   -0.0449   22.0234 C   0  0  0  0  0  0  0  0  0  0  0  0
   11.6445   -0.5092   21.9387 C   0  0  0  0  0  0  0  0  0  0  0  0
   11.8632   -1.6631   21.1669 C   0  0  0  0  0  0  0  0  0  0  0  0
   13.1381   -2.0108   20.7583 C   0  0  0  0  0  0  0  0  0  0  0  0
   14.2283   -1.2913   21.2217 C   0  0  0  0  0  0  0  0  0  0  0  0
   14.0637   -0.2516   22.1413 C   0  0  0  0  0  0  0  0  0  0  0  0
   12.7658    0.1322   22.5101 C   0  0  0  0  0  0  0  0  0  0  0  0
   12.6187    1.4194   23.6667 Cl  0  0  0  0  0  0  0  0  0  0  0  0
   14.9079    0.2786   22.5744 H   0  0  0  0  0  0  0  0  0  0  0  0
   15.1774   -1.5825   20.8083 H   0  0  0  0  0  0  0  0  0  0  0  0
   13.3052   -2.8190   20.0553 H   0  0  0  0  0  0  0  0  0  0  0  0
   10.9895   -2.2326   20.8613 H   0  0  0  0  0  0  0  0  0  0  0  0
    9.2698   -0.7845   21.5185 N   0  0  0  0  0  0  0  0  0  0  0  0
    8.1615   -0.0600   21.7561 N   0  0  0  0  0  0  0  0  0  0  0  0
    6.8845   -0.5682   21.2581 C   0  0  0  0  0  0  0  0  0  0  0  0
    6.3576    0.1803   20.0577 C   0  0  0  0  0  0  0  0  0  0  0  0
    5.1352    0.8569   20.0621 C   0  0  0  0  0  0  0  0  0  0  0  0
    4.7086    1.4837   18.8891 C   0  0  0  0  0  0  0  0  0  0  0  0
    5.5240    1.4098   17.7564 C   0  0  0  0  0  0  0  0  0  0  0  0
    6.7088    0.7780   17.7344 N   0  0  0  0  0  0  0  0  0  0  0  0
    7.1069    0.1908   18.8691 C   0  0  0  0  0  0  0  0  0  0  0  0
    8.0650   -0.3283   18.8354 H   0  0  0  0  0  0  0  0  0  0  0  0
    5.2117    1.8718   16.8219 H   0  0  0  0  0  0  0  0  0  0  0  0
    3.7778    2.0391   18.8462 H   0  0  0  0  0  0  0  0  0  0  0  0
    4.5265    0.8924   20.9681 H   0  0  0  0  0  0  0  0  0  0  0  0
    6.1515   -0.5708   22.0710 H   0  0  0  0  0  0  0  0  0  0  0  0
    7.0908   -1.6144   21.0034 H   0  0  0  0  0  0  0  0  0  0  0  0
    6.6924    2.2137   22.4742 H   0  0  0  0  0  0  0  0  0  0  0  0
    8.1161    2.9510   23.2710 H   0  0  0  0  0  0  0  0  0  0  0  0
    8.0918    1.3161   25.3716 N   0  0  0  0  0  0  0  0  0  0  0  0
    5.1885    0.4649   24.0966 H   0  0  0  0  0  0  0  0  0  0  0  0
    5.8663   -0.7434   26.5227 H   0  0  0  0  0  0  0  0  0  0  0  0
    8.3397    0.8331   28.1928 H   0  0  0  0  0  0  0  0  0  0  0  0
    8.1377   -0.8935   27.7614 H   0  0  0  0  0  0  0  0  0  0  0  0
    9.4687    0.0584   27.0507 H   0  0  0  0  0  0  0  0  0  0  0  0
  1  2  1  0
  2  3  1  0
  3  4  2  0
  4  5  1  0
  5  6  1  0
  6  7  1  0
  7  8  2  0
  8  9  1  0
  9 10  1  0
 10 11  2  0
 11 12  1  0
 12 13  2  0
 13 14  1  0
 14 15  2  0
 15 16  1  0
 14 17  1  0
 13 18  1  0
 12 19  1  0
 11 20  1  0
  9 21  2  0
 21 22  1  0
 22 23  1  0
 23 24  1  0
 24 25  2  0
 25 26  1  0
 26 27  2  0
 27 28  1  0
 28 29  2  0
 29 30  1  0
 27 31  1  0
 26 32  1  0
 25 33  1  0
 23 34  1  0
 23 35  1  0
  6 36  1  0
  6 37  1  0
  5 38  2  0
  4 39  1  0
  3 40  1  0
  1 41  1  0
  1 42  1  0
  1 43  1  0
 38  2  1  0
 22  7  1  0
 29 24  1  0
 15 10  1  0
M  END
>  <cnnaffinity>  (1) 
-6.57086

>  <filename>  (1) 
Cn1ccc(Cc2nc(-c3ccccc3Cl)nn2Cc2cccnc2)n1

$$$$
