
     RDKit          3D

 48 51  0  0  0  0  0  0  0  0999 V2000
    8.7930    5.3682   24.4193 C   0  0  0  0  0  0  0  0  0  0  0  0
    8.9598    3.9429   24.1919 N   0  0  0  0  0  0  0  0  0  0  0  0
    9.8739    3.4297   23.1832 C   0  0  0  0  0  0  0  0  0  0  0  0
    9.6273    1.9127   23.1781 C   0  0  0  0  0  0  0  0  0  0  0  0
    8.2370    1.7261   23.8203 C   0  0  0  0  0  0  0  0  0  0  0  0
    7.1025    1.3130   22.8308 C   0  0  0  0  0  0  0  0  0  0  0  0
    7.2839   -0.0805   22.2907 C   0  0  0  0  0  0  0  0  0  0  0  0
    7.8177   -1.0635   22.9949 N   0  0  0  0  0  0  0  0  0  0  0  0
    8.0345   -2.0345   22.0810 C   0  0  0  0  0  0  0  0  0  0  0  0
    8.8000   -3.3049   22.3602 C   0  0  0  0  0  0  0  0  0  0  0  0
    9.9672   -3.0918   23.3695 C   0  0  0  0  0  0  0  0  0  0  0  0
    9.6026   -3.3669   24.8107 C   0  0  0  0  0  0  0  0  0  0  0  0
    8.3844   -3.7488   25.2030 C   0  0  0  0  0  0  0  0  0  0  0  0
    7.3041   -4.1643   24.2268 C   0  0  0  0  0  0  0  0  0  0  0  0
    7.8828   -4.4591   22.8322 C   0  0  0  0  0  0  0  0  0  0  0  0
    7.0789   -4.6633   22.1152 H   0  0  0  0  0  0  0  0  0  0  0  0
    8.4981   -5.3669   22.8775 H   0  0  0  0  0  0  0  0  0  0  0  0
    6.5694   -3.3501   24.1630 H   0  0  0  0  0  0  0  0  0  0  0  0
    6.7565   -5.0350   24.6157 H   0  0  0  0  0  0  0  0  0  0  0  0
    8.1326   -3.7460   26.2642 H   0  0  0  0  0  0  0  0  0  0  0  0
   10.4200   -3.3157   25.5284 H   0  0  0  0  0  0  0  0  0  0  0  0
   10.3409   -2.0651   23.2823 H   0  0  0  0  0  0  0  0  0  0  0  0
   10.8236   -3.7248   23.1188 H   0  0  0  0  0  0  0  0  0  0  0  0
    9.1872   -3.5514   21.3720 H   0  0  0  0  0  0  0  0  0  0  0  0
    7.6059   -1.7484   20.8650 N   0  0  0  0  0  0  0  0  0  0  0  0
    7.0814   -0.4973   21.0032 N   0  0  0  0  0  0  0  0  0  0  0  0
    6.4630    0.1477   19.8919 C   0  0  0  0  0  0  0  0  0  0  0  0
    5.2655    0.8663   20.0131 C   0  0  0  0  0  0  0  0  0  0  0  0
    4.7389    1.4667   18.8637 C   0  0  0  0  0  0  0  0  0  0  0  0
    5.4190    1.3322   17.6492 C   0  0  0  0  0  0  0  0  0  0  0  0
    6.5582    0.6293   17.5246 N   0  0  0  0  0  0  0  0  0  0  0  0
    7.0558    0.0450   18.6180 C   0  0  0  0  0  0  0  0  0  0  0  0
    7.9682   -0.5332   18.4946 H   0  0  0  0  0  0  0  0  0  0  0  0
    5.0425    1.7964   16.7397 H   0  0  0  0  0  0  0  0  0  0  0  0
    3.8240    2.0455   18.9018 H   0  0  0  0  0  0  0  0  0  0  0  0
    4.7446    0.9335   20.9706 H   0  0  0  0  0  0  0  0  0  0  0  0
    7.0361    2.0169   21.9899 H   0  0  0  0  0  0  0  0  0  0  0  0
    6.1455    1.3455   23.3680 H   0  0  0  0  0  0  0  0  0  0  0  0
    7.9742    3.0582   24.5278 C   0  0  0  0  0  0  0  0  0  0  0  0
    7.0348    3.3008   25.2653 O   0  0  0  0  0  0  0  0  0  0  0  0
    8.2677    0.9716   24.6138 H   0  0  0  0  0  0  0  0  0  0  0  0
   10.3903    1.4098   23.7814 H   0  0  0  0  0  0  0  0  0  0  0  0
    9.6953    1.4975   22.1657 H   0  0  0  0  0  0  0  0  0  0  0  0
   10.9112    3.6832   23.4381 H   0  0  0  0  0  0  0  0  0  0  0  0
    9.6559    3.8794   22.2065 H   0  0  0  0  0  0  0  0  0  0  0  0
    8.7456    5.5881   25.4912 H   0  0  0  0  0  0  0  0  0  0  0  0
    9.6419    5.9098   23.9886 H   0  0  0  0  0  0  0  0  0  0  0  0
    7.8710    5.7452   23.9566 H   0  0  0  0  0  0  0  0  0  0  0  0
  1  2  1  0
  2  3  1  0
  3  4  1  0
  4  5  1  0
  5  6  1  0
  6  7  1  0
  7  8  2  0
  8  9  1  0
  9 10  1  0
 10 11  1  0
 11 12  1  0
 12 13  2  0
 13 14  1  0
 14 15  1  0
 15 16  1  0
 15 17  1  0
 14 18  1  0
 14 19  1  0
 13 20  1  0
 12 21  1  0
 11 22  1  0
 11 23  1  0
 10 24  1  0
  9 25  2  0
 25 26  1  0
 26 27  1  0
 27 28  2  0
 28 29  1  0
 29 30  2  0
 30 31  1  0
 31 32  2  0
 32 33  1  0
 30 34  1  0
 29 35  1  0
 28 36  1  0
  6 37  1  0
  6 38  1  0
  5 39  1  0
 39 40  2  0
  5 41  1  0
  4 42  1  0
  4 43  1  0
  3 44  1  0
  3 45  1  0
  1 46  1  0
  1 47  1  0
  1 48  1  0
 39  2  1  0
 26  7  1  0
 32 27  1  0
 15 10  1  0
M  END
>  <cnnaffinity>  (1) 
-6.39359

>  <filename>  (1) 
CN1CCC(Cc2nc(C3CC=CCC3)nn2-c2cccnc2)C1=O

$$$$
