
     RDKit          3D

 46 49  0  0  0  0  0  0  0  0999 V2000
    5.1306    0.3287   24.8961 C   0  0  0  0  0  0  0  0  0  0  0  0
    6.3596   -0.4337   24.7839 N   0  0  0  0  0  0  0  0  0  0  0  0
    6.4988   -1.7940   24.8084 C   0  0  0  0  0  0  0  0  0  0  0  0
    7.7562   -2.1718   24.7768 N   0  0  0  0  0  0  0  0  0  0  0  0
    8.4613   -0.9991   24.7234 C   0  0  0  0  0  0  0  0  0  0  0  0
    7.6311    0.0984   24.6930 C   0  0  0  0  0  0  0  0  0  0  0  0
    7.9056    1.5421   24.3909 C   0  0  0  0  0  0  0  0  0  0  0  0
    7.8335    1.8655   22.8693 C   0  0  0  0  0  0  0  0  0  0  0  0
    8.7887    0.9967   22.1226 C   0  0  0  0  0  0  0  0  0  0  0  0
   10.0927    1.0305   22.3499 N   0  0  0  0  0  0  0  0  0  0  0  0
   10.5281   -0.1289   21.8148 C   0  0  0  0  0  0  0  0  0  0  0  0
   11.9175   -0.5860   21.7920 C   0  0  0  0  0  0  0  0  0  0  0  0
   13.0207    0.1783   22.2101 C   0  0  0  0  0  0  0  0  0  0  0  0
   14.2883   -0.1237   21.7196 C   0  0  0  0  0  0  0  0  0  0  0  0
   14.3935   -1.1530   20.7718 C   0  0  0  0  0  0  0  0  0  0  0  0
   15.4081   -1.1974   19.9061 F   0  0  0  0  0  0  0  0  0  0  0  0
   13.3773   -2.0670   20.5547 C   0  0  0  0  0  0  0  0  0  0  0  0
   12.1459   -1.7922   21.1173 C   0  0  0  0  0  0  0  0  0  0  0  0
   11.2820   -2.4262   21.0039 H   0  0  0  0  0  0  0  0  0  0  0  0
   13.5508   -2.8803   19.8589 H   0  0  0  0  0  0  0  0  0  0  0  0
   15.1295    0.5134   21.9704 H   0  0  0  0  0  0  0  0  0  0  0  0
   12.8907    1.0620   22.8199 H   0  0  0  0  0  0  0  0  0  0  0  0
    9.5715   -0.8587   21.2547 N   0  0  0  0  0  0  0  0  0  0  0  0
    8.4649   -0.1177   21.4253 N   0  0  0  0  0  0  0  0  0  0  0  0
    7.1753   -0.6882   21.0633 C   0  0  0  0  0  0  0  0  0  0  0  0
    6.4968    0.0428   19.9333 C   0  0  0  0  0  0  0  0  0  0  0  0
    5.2738    0.6973   20.0830 C   0  0  0  0  0  0  0  0  0  0  0  0
    4.7204    1.3589   18.9852 C   0  0  0  0  0  0  0  0  0  0  0  0
    5.4135    1.3358   17.7720 C   0  0  0  0  0  0  0  0  0  0  0  0
    6.5832    0.6998   17.6006 N   0  0  0  0  0  0  0  0  0  0  0  0
    7.1067    0.0823   18.6660 C   0  0  0  0  0  0  0  0  0  0  0  0
    8.0609   -0.4192   18.5055 H   0  0  0  0  0  0  0  0  0  0  0  0
    5.0140    1.8538   16.9017 H   0  0  0  0  0  0  0  0  0  0  0  0
    3.7859    1.9010   19.0625 H   0  0  0  0  0  0  0  0  0  0  0  0
    4.7604    0.6895   21.0467 H   0  0  0  0  0  0  0  0  0  0  0  0
    6.5468   -0.7397   21.9611 H   0  0  0  0  0  0  0  0  0  0  0  0
    7.4079   -1.7171   20.7688 H   0  0  0  0  0  0  0  0  0  0  0  0
    6.8202    1.7196   22.4824 H   0  0  0  0  0  0  0  0  0  0  0  0
    8.1098    2.9098   22.6982 H   0  0  0  0  0  0  0  0  0  0  0  0
    8.9206    1.7624   24.7371 H   0  0  0  0  0  0  0  0  0  0  0  0
    7.2334    2.2060   24.9463 H   0  0  0  0  0  0  0  0  0  0  0  0
    9.5433   -1.0018   24.6739 H   0  0  0  0  0  0  0  0  0  0  0  0
    5.6410   -2.4553   24.8536 H   0  0  0  0  0  0  0  0  0  0  0  0
    4.8848    0.8317   23.9521 H   0  0  0  0  0  0  0  0  0  0  0  0
    4.3138   -0.3457   25.1561 H   0  0  0  0  0  0  0  0  0  0  0  0
    5.2159    1.0850   25.6841 H   0  0  0  0  0  0  0  0  0  0  0  0
  1  2  1  0
  2  3  1  0
  3  4  2  0
  4  5  1  0
  5  6  2  0
  6  7  1  0
  7  8  1  0
  8  9  1  0
  9 10  2  0
 10 11  1  0
 11 12  1  0
 12 13  2  0
 13 14  1  0
 14 15  2  0
 15 16  1  0
 15 17  1  0
 17 18  2  0
 18 19  1  0
 17 20  1  0
 14 21  1  0
 13 22  1  0
 11 23  2  0
 23 24  1  0
 24 25  1  0
 25 26  1  0
 26 27  2  0
 27 28  1  0
 28 29  2  0
 29 30  1  0
 30 31  2  0
 31 32  1  0
 29 33  1  0
 28 34  1  0
 27 35  1  0
 25 36  1  0
 25 37  1  0
  8 38  1  0
  8 39  1  0
  7 40  1  0
  7 41  1  0
  5 42  1  0
  3 43  1  0
  1 44  1  0
  1 45  1  0
  1 46  1  0
  6  2  1  0
 24  9  1  0
 31 26  1  0
 18 12  1  0
M  END
>  <cnnaffinity>  (1) 
-6.69525

>  <filename>  (1) 
Cn1cncc1CCc1nc(-c2ccc(F)cc2)nn1Cc1cccnc1

$$$$
