
     RDKit          3D

 46 49  0  0  0  0  0  0  0  0999 V2000
    8.0118    3.4257   26.2006 C   0  0  0  0  0  0  0  0  0  0  0  0
    6.7095    2.8687   25.8870 N   0  0  0  0  0  0  0  0  0  0  0  0
    5.5203    3.2747   26.4398 C   0  0  0  0  0  0  0  0  0  0  0  0
    4.5192    2.4605   25.9731 C   0  0  0  0  0  0  0  0  0  0  0  0
    5.1276    1.5171   25.1041 C   0  0  0  0  0  0  0  0  0  0  0  0
    6.4744    1.7941   25.0540 C   0  0  0  0  0  0  0  0  0  0  0  0
    7.5241    1.1509   24.2074 C   0  0  0  0  0  0  0  0  0  0  0  0
    7.7005    1.7935   22.7997 C   0  0  0  0  0  0  0  0  0  0  0  0
    8.7436    1.0677   22.0111 C   0  0  0  0  0  0  0  0  0  0  0  0
   10.0415    1.2484   22.1596 N   0  0  0  0  0  0  0  0  0  0  0  0
   10.5864    0.1224   21.6229 C   0  0  0  0  0  0  0  0  0  0  0  0
   12.0249   -0.2293   21.8689 C   0  0  0  0  0  0  0  0  0  0  0  0
   12.6102   -1.4252   21.3958 C   0  0  0  0  0  0  0  0  0  0  0  0
   13.8969   -1.7779   21.8208 C   0  0  0  0  0  0  0  0  0  0  0  0
   14.6204   -1.0456   22.6751 N   0  0  0  0  0  0  0  0  0  0  0  0
   14.0816    0.0986   23.1087 C   0  0  0  0  0  0  0  0  0  0  0  0
   12.8218    0.5554   22.7272 C   0  0  0  0  0  0  0  0  0  0  0  0
   12.4638    1.4881   23.1392 H   0  0  0  0  0  0  0  0  0  0  0  0
   14.6622    0.6969   23.8040 H   0  0  0  0  0  0  0  0  0  0  0  0
   14.3538   -2.7154   21.5012 H   0  0  0  0  0  0  0  0  0  0  0  0
   12.0832   -2.0744   20.7137 H   0  0  0  0  0  0  0  0  0  0  0  0
    9.6974   -0.6939   21.0757 N   0  0  0  0  0  0  0  0  0  0  0  0
    8.5193   -0.0832   21.3368 N   0  0  0  0  0  0  0  0  0  0  0  0
    7.2487   -0.7029   20.9704 C   0  0  0  0  0  0  0  0  0  0  0  0
    6.5036    0.0289   19.8726 C   0  0  0  0  0  0  0  0  0  0  0  0
    5.2786    0.6838   20.0521 C   0  0  0  0  0  0  0  0  0  0  0  0
    4.7155    1.3669   18.9687 C   0  0  0  0  0  0  0  0  0  0  0  0
    5.3930    1.3607   17.7459 C   0  0  0  0  0  0  0  0  0  0  0  0
    6.5538    0.7173   17.5481 N   0  0  0  0  0  0  0  0  0  0  0  0
    7.0851    0.0794   18.5959 C   0  0  0  0  0  0  0  0  0  0  0  0
    8.0315   -0.4308   18.4219 H   0  0  0  0  0  0  0  0  0  0  0  0
    4.9910    1.8934   16.8857 H   0  0  0  0  0  0  0  0  0  0  0  0
    3.7862    1.9186   19.0617 H   0  0  0  0  0  0  0  0  0  0  0  0
    4.7718    0.6756   21.0212 H   0  0  0  0  0  0  0  0  0  0  0  0
    7.4938   -1.7224   20.6595 H   0  0  0  0  0  0  0  0  0  0  0  0
    6.6238   -0.7822   21.8695 H   0  0  0  0  0  0  0  0  0  0  0  0
    8.0253    2.8315   22.9113 H   0  0  0  0  0  0  0  0  0  0  0  0
    6.7476    1.8135   22.2617 H   0  0  0  0  0  0  0  0  0  0  0  0
    8.5003    1.1490   24.7142 H   0  0  0  0  0  0  0  0  0  0  0  0
    7.2540    0.0931   24.0852 H   0  0  0  0  0  0  0  0  0  0  0  0
    4.6411    0.7038   24.5749 H   0  0  0  0  0  0  0  0  0  0  0  0
    3.4692    2.5321   26.2203 H   0  0  0  0  0  0  0  0  0  0  0  0
    5.4921    4.1174   27.1169 H   0  0  0  0  0  0  0  0  0  0  0  0
    8.5310    3.7245   25.2833 H   0  0  0  0  0  0  0  0  0  0  0  0
    8.6375    2.7037   26.7407 H   0  0  0  0  0  0  0  0  0  0  0  0
    7.8849    4.3115   26.8265 H   0  0  0  0  0  0  0  0  0  0  0  0
  1  2  1  0
  2  3  1  0
  3  4  2  0
  4  5  1  0
  5  6  2  0
  6  7  1  0
  7  8  1  0
  8  9  1  0
  9 10  2  0
 10 11  1  0
 11 12  1  0
 12 13  2  0
 13 14  1  0
 14 15  2  0
 15 16  1  0
 16 17  2  0
 17 18  1  0
 16 19  1  0
 14 20  1  0
 13 21  1  0
 11 22  2  0
 22 23  1  0
 23 24  1  0
 24 25  1  0
 25 26  2  0
 26 27  1  0
 27 28  2  0
 28 29  1  0
 29 30  2  0
 30 31  1  0
 28 32  1  0
 27 33  1  0
 26 34  1  0
 24 35  1  0
 24 36  1  0
  8 37  1  0
  8 38  1  0
  7 39  1  0
  7 40  1  0
  5 41  1  0
  4 42  1  0
  3 43  1  0
  1 44  1  0
  1 45  1  0
  1 46  1  0
  6  2  1  0
 23  9  1  0
 30 25  1  0
 17 12  1  0
M  END
>  <cnnaffinity>  (1) 
-6.43023

>  <filename>  (1) 
Cn1cccc1CCc1nc(-c2ccncc2)nn1Cc1cccnc1

$$$$
