
     RDKit          3D

 43 46  0  0  0  0  0  0  0  0999 V2000
    7.6895    1.4200   27.3254 C   0  0  0  0  0  0  0  0  0  0  0  0
    7.2562    1.5944   25.9532 N   0  0  0  0  0  0  0  0  0  0  0  0
    8.0406    1.5715   24.8470 C   0  0  0  0  0  0  0  0  0  0  0  0
    7.2041    1.5697   23.7484 C   0  0  0  0  0  0  0  0  0  0  0  0
    7.5747    1.3387   22.3008 C   0  0  0  0  0  0  0  0  0  0  0  0
    7.6383   -0.1157   21.9045 C   0  0  0  0  0  0  0  0  0  0  0  0
    8.2481   -1.0443   22.6148 N   0  0  0  0  0  0  0  0  0  0  0  0
    8.0654   -2.1777   21.8990 C   0  0  0  0  0  0  0  0  0  0  0  0
    8.5645   -3.5051   22.4117 C   0  0  0  0  0  0  0  0  0  0  0  0
    7.8083   -4.7145   21.8325 C   0  0  0  0  0  0  0  0  0  0  0  0
    8.1376   -5.8860   22.7586 C   0  0  0  0  0  0  0  0  0  0  0  0
    8.3783   -5.2542   24.1498 C   0  0  0  0  0  0  0  0  0  0  0  0
    8.4820   -3.7195   23.9481 C   0  0  0  0  0  0  0  0  0  0  0  0
    9.3497   -3.2811   24.4566 H   0  0  0  0  0  0  0  0  0  0  0  0
    7.5975   -3.2078   24.3514 H   0  0  0  0  0  0  0  0  0  0  0  0
    7.5605   -5.4811   24.8416 H   0  0  0  0  0  0  0  0  0  0  0  0
    9.2884   -5.6746   24.5899 H   0  0  0  0  0  0  0  0  0  0  0  0
    9.0339   -6.4192   22.4210 H   0  0  0  0  0  0  0  0  0  0  0  0
    7.3342   -6.6308   22.7761 H   0  0  0  0  0  0  0  0  0  0  0  0
    8.0588   -4.9010   20.7840 H   0  0  0  0  0  0  0  0  0  0  0  0
    6.7346   -4.4898   21.8870 H   0  0  0  0  0  0  0  0  0  0  0  0
    9.6275   -3.5136   22.1446 H   0  0  0  0  0  0  0  0  0  0  0  0
    7.4403   -1.9957   20.7415 N   0  0  0  0  0  0  0  0  0  0  0  0
    7.1493   -0.6700   20.7529 N   0  0  0  0  0  0  0  0  0  0  0  0
    6.4542   -0.0708   19.6645 C   0  0  0  0  0  0  0  0  0  0  0  0
    5.2770    0.6557   19.8753 C   0  0  0  0  0  0  0  0  0  0  0  0
    4.7409    1.3765   18.8027 C   0  0  0  0  0  0  0  0  0  0  0  0
    5.3682    1.2990   17.5575 C   0  0  0  0  0  0  0  0  0  0  0  0
    6.4420    0.5214   17.3262 N   0  0  0  0  0  0  0  0  0  0  0  0
    6.9591   -0.1616   18.3545 C   0  0  0  0  0  0  0  0  0  0  0  0
    7.8213   -0.7900   18.1430 H   0  0  0  0  0  0  0  0  0  0  0  0
    5.0058    1.8838   16.7132 H   0  0  0  0  0  0  0  0  0  0  0  0
    3.8725    2.0120   18.9349 H   0  0  0  0  0  0  0  0  0  0  0  0
    4.7971    0.6451   20.8566 H   0  0  0  0  0  0  0  0  0  0  0  0
    8.5755    1.7489   22.1270 H   0  0  0  0  0  0  0  0  0  0  0  0
    6.8926    1.8762   21.6331 H   0  0  0  0  0  0  0  0  0  0  0  0
    5.9277    1.6856   24.3328 C   0  0  0  0  0  0  0  0  0  0  0  0
    4.4501    1.9154   23.4876 Cl  0  0  0  0  0  0  0  0  0  0  0  0
    5.9594    1.6908   25.6548 N   0  0  0  0  0  0  0  0  0  0  0  0
    9.1209    1.5805   24.9381 H   0  0  0  0  0  0  0  0  0  0  0  0
    6.8080    1.3560   27.9654 H   0  0  0  0  0  0  0  0  0  0  0  0
    8.2633    0.4954   27.4010 H   0  0  0  0  0  0  0  0  0  0  0  0
    8.3029    2.2571   27.6597 H   0  0  0  0  0  0  0  0  0  0  0  0
  1  2  1  0
  2  3  1  0
  3  4  2  0
  4  5  1  0
  5  6  1  0
  6  7  2  0
  7  8  1  0
  8  9  1  0
  9 10  1  0
 10 11  1  0
 11 12  1  0
 12 13  1  0
 13 14  1  0
 13 15  1  0
 12 16  1  0
 12 17  1  0
 11 18  1  0
 11 19  1  0
 10 20  1  0
 10 21  1  0
  9 22  1  0
  8 23  2  0
 23 24  1  0
 24 25  1  0
 25 26  2  0
 26 27  1  0
 27 28  2  0
 28 29  1  0
 29 30  2  0
 30 31  1  0
 28 32  1  0
 27 33  1  0
 26 34  1  0
  5 35  1  0
  5 36  1  0
  4 37  1  0
 37 38  1  0
 37 39  2  0
  3 40  1  0
  1 41  1  0
  1 42  1  0
  1 43  1  0
 39  2  1  0
 24  6  1  0
 30 25  1  0
 13  9  1  0
M  END
>  <cnnaffinity>  (1) 
-5.70392

>  <filename>  (1) 
Cn1cc(Cc2nc(C3CCCC3)nn2-c2cccnc2)c(Cl)n1

$$$$
