
     RDKit          3D

 39 42  0  0  0  0  0  0  0  0999 V2000
    5.0098    1.7904   16.9134 H   0  0  0  0  0  0  0  0  0  0  0  0
    5.4540    1.2875   17.7671 C   0  0  0  0  0  0  0  0  0  0  0  0
    6.5662    0.5801   17.5210 N   0  0  0  0  0  0  0  0  0  0  0  0
    7.1386   -0.0493   18.5510 C   0  0  0  0  0  0  0  0  0  0  0  0
    8.0220   -0.6430   18.3269 H   0  0  0  0  0  0  0  0  0  0  0  0
    6.6662    0.0377   19.8684 C   0  0  0  0  0  0  0  0  0  0  0  0
    7.4354   -0.6531   20.9094 C   0  0  0  0  0  0  0  0  0  0  0  0
    8.1145   -1.7686   20.7525 N   0  0  0  0  0  0  0  0  0  0  0  0
    8.6062   -2.0772   21.9967 C   0  0  0  0  0  0  0  0  0  0  0  0
    9.1988   -2.9707   22.1568 H   0  0  0  0  0  0  0  0  0  0  0  0
    8.2587   -1.1325   22.9168 C   0  0  0  0  0  0  0  0  0  0  0  0
    8.4264   -0.9996   23.9762 H   0  0  0  0  0  0  0  0  0  0  0  0
    7.5186   -0.2064   22.2162 N   0  0  0  0  0  0  0  0  0  0  0  0
    7.0763    1.0165   22.7140 N   0  0  0  0  0  0  0  0  0  0  0  0
    6.2600    0.9561   23.9276 C   0  0  0  0  0  0  0  0  0  0  0  0
    5.2631    0.5662   23.7038 H   0  0  0  0  0  0  0  0  0  0  0  0
    6.7168    0.2879   24.6761 H   0  0  0  0  0  0  0  0  0  0  0  0
    6.2629    2.4050   24.4049 C   0  0  0  0  0  0  0  0  0  0  0  0
    5.9810    2.5079   25.4574 H   0  0  0  0  0  0  0  0  0  0  0  0
    5.5692    2.9995   23.7933 H   0  0  0  0  0  0  0  0  0  0  0  0
    7.7101    2.8524   24.1254 C   0  0  2  0  0  0  0  0  0  0  0  0
    8.3715    2.5535   24.9488 H   0  0  0  0  0  0  0  0  0  0  0  0
    7.8693    4.3385   23.7711 C   0  0  0  0  0  0  0  0  0  0  0  0
    8.8976    4.6901   23.9899 H   0  0  0  0  0  0  0  0  0  0  0  0
    7.1780    4.9712   24.3496 H   0  0  0  0  0  0  0  0  0  0  0  0
    7.5422    4.3998   22.3563 N   0  0  0  0  0  0  0  0  0  0  0  0
    7.7694    5.6557   21.6729 C   0  0  0  0  0  0  0  0  0  0  0  0
    8.8082    6.0357   21.7504 H   0  0  0  0  0  0  0  0  0  0  0  0
    7.0895    6.4284   22.0603 H   0  0  0  0  0  0  0  0  0  0  0  0
    7.5184    5.5320   20.6168 H   0  0  0  0  0  0  0  0  0  0  0  0
    7.9835    3.1564   21.7141 C   0  0  0  0  0  0  0  0  0  0  0  0
    7.2632    2.8013   20.9620 H   0  0  0  0  0  0  0  0  0  0  0  0
    8.9550    3.2406   21.1977 H   0  0  0  0  0  0  0  0  0  0  0  0
    8.0843    2.0909   22.8343 C   0  0  2  0  0  0  0  0  0  0  0  0
    9.0961    1.6634   22.8690 H   0  0  0  0  0  0  0  0  0  0  0  0
    5.4941    0.7725   20.1117 C   0  0  0  0  0  0  0  0  0  0  0  0
    5.0987    0.8625   21.1259 H   0  0  0  0  0  0  0  0  0  0  0  0
    4.8615    1.3871   19.0344 C   0  0  0  0  0  0  0  0  0  0  0  0
    3.9366    1.9388   19.1646 H   0  0  0  0  0  0  0  0  0  0  0  0
  1  2  1  0
  2  3  2  0
  3  4  1  0
  4  5  1  0
  4  6  2  0
  6  7  1  0
  7  8  2  0
  8  9  1  0
  9 10  1  0
  9 11  2  0
 11 12  1  0
 11 13  1  0
 13 14  1  0
 14 15  1  0
 15 16  1  0
 15 17  1  0
 15 18  1  0
 18 19  1  0
 18 20  1  0
 18 21  1  0
 21 22  1  1
 21 23  1  0
 23 24  1  0
 23 25  1  0
 23 26  1  0
 26 27  1  0
 27 28  1  0
 27 29  1  0
 27 30  1  0
 26 31  1  0
 31 32  1  0
 31 33  1  0
 31 34  1  0
 34 35  1  1
  6 36  1  0
 36 37  1  0
 36 38  2  0
 38 39  1  0
 38  2  1  0
 13  7  1  0
 34 14  1  0
 34 21  1  0
M  END
>  <cnnaffinity>  (1) 
-4.84663

>  <filename>  (1) 
CN1C[C@H]2CCN(n3ccnc3-c3cccnc3)[C@H]2C1

$$$$
