
     RDKit          3D

 45 49  0  0  0  0  0  0  0  0999 V2000
    4.9445    1.7876   17.0097 H   0  0  0  0  0  0  0  0  0  0  0  0
    5.4153    1.2793   17.8458 C   0  0  0  0  0  0  0  0  0  0  0  0
    6.5752    0.6592   17.5807 N   0  0  0  0  0  0  0  0  0  0  0  0
    7.1927    0.0447   18.6012 C   0  0  0  0  0  0  0  0  0  0  0  0
    8.1378   -0.4302   18.3431 H   0  0  0  0  0  0  0  0  0  0  0  0
    6.7034   -0.0108   19.9439 C   0  0  0  0  0  0  0  0  0  0  0  0
    7.3833   -0.6445   20.9699 N   0  0  0  0  0  0  0  0  0  0  0  0
    8.6714   -1.2974   20.7881 C   0  0  0  0  0  0  0  0  0  0  0  0
    9.4328   -0.5949   20.4267 H   0  0  0  0  0  0  0  0  0  0  0  0
    8.5899   -2.0905   20.0582 H   0  0  0  0  0  0  0  0  0  0  0  0
    9.0105   -1.9181   22.1284 C   0  0  1  0  0  0  0  0  0  0  0  0
    9.5345   -2.8648   22.1170 H   0  0  0  0  0  0  0  0  0  0  0  0
    9.2584   -0.9707   23.2660 C   0  0  1  0  0  0  0  0  0  0  0  0
    9.8443   -1.3591   24.1023 H   0  0  0  0  0  0  0  0  0  0  0  0
    9.4278    0.4126   22.9039 N   0  0  0  0  0  0  0  0  0  0  0  0
   10.7705    0.7186   22.3775 C   0  0  0  0  0  0  0  0  0  0  0  0
   11.2025   -0.1515   21.8698 H   0  0  0  0  0  0  0  0  0  0  0  0
   10.6799    1.5132   21.6192 H   0  0  0  0  0  0  0  0  0  0  0  0
   11.6274    1.1900   23.5756 C   0  0  0  0  0  0  0  0  0  0  0  0
   12.2386    0.3651   23.9649 H   0  0  0  0  0  0  0  0  0  0  0  0
   12.3368    1.9674   23.2749 H   0  0  0  0  0  0  0  0  0  0  0  0
   10.5857    1.6679   24.6143 C   0  0  2  0  0  0  0  0  0  0  0  0
   10.6991    2.7294   24.8529 H   0  0  0  0  0  0  0  0  0  0  0  0
   10.5316    0.8616   25.9146 C   0  0  0  0  0  0  0  0  0  0  0  0
   11.0270   -0.1216   25.7998 H   0  0  0  0  0  0  0  0  0  0  0  0
   11.0448    1.3627   26.7139 H   0  0  0  0  0  0  0  0  0  0  0  0
    9.1393    0.7698   26.3215 N   0  0  0  0  0  0  0  0  0  0  0  0
    8.8822   -0.3863   27.1549 C   0  0  0  0  0  0  0  0  0  0  0  0
    9.0204   -1.3506   26.6252 H   0  0  0  0  0  0  0  0  0  0  0  0
    7.8704   -0.3555   27.5704 H   0  0  0  0  0  0  0  0  0  0  0  0
    9.5800   -0.3810   28.0004 H   0  0  0  0  0  0  0  0  0  0  0  0
    8.2707    0.9897   25.1648 C   0  0  0  0  0  0  0  0  0  0  0  0
    7.6645    0.1084   24.9206 H   0  0  0  0  0  0  0  0  0  0  0  0
    7.5508    1.7888   25.3854 H   0  0  0  0  0  0  0  0  0  0  0  0
    9.1930    1.4067   23.9816 C   0  0  2  0  0  0  0  0  0  0  0  0
    8.7993    2.3094   23.4912 H   0  0  0  0  0  0  0  0  0  0  0  0
    7.8985   -1.5884   23.0714 C   0  0  1  0  0  0  0  0  0  0  0  0
    7.5403   -2.2885   23.8187 H   0  0  0  0  0  0  0  0  0  0  0  0
    6.8573   -0.7792   22.3236 C   0  0  0  0  0  0  0  0  0  0  0  0
    6.6832    0.2046   22.7853 H   0  0  0  0  0  0  0  0  0  0  0  0
    5.9154   -1.3314   22.3093 H   0  0  0  0  0  0  0  0  0  0  0  0
    5.4652    0.6339   20.1731 C   0  0  0  0  0  0  0  0  0  0  0  0
    5.0220    0.6270   21.1682 H   0  0  0  0  0  0  0  0  0  0  0  0
    4.8271    1.2885   19.1146 C   0  0  0  0  0  0  0  0  0  0  0  0
    3.8911    1.8186   19.2718 H   0  0  0  0  0  0  0  0  0  0  0  0
  1  2  1  0
  2  3  2  0
  3  4  1  0
  4  5  1  0
  4  6  2  0
  6  7  1  0
  7  8  1  0
  8  9  1  0
  8 10  1  0
  8 11  1  0
 11 12  1  6
 11 13  1  0
 13 14  1  1
 13 15  1  0
 15 16  1  0
 16 17  1  0
 16 18  1  0
 16 19  1  0
 19 20  1  0
 19 21  1  0
 19 22  1  0
 22 23  1  1
 22 24  1  0
 24 25  1  0
 24 26  1  0
 24 27  1  0
 27 28  1  0
 28 29  1  0
 28 30  1  0
 28 31  1  0
 27 32  1  0
 32 33  1  0
 32 34  1  0
 32 35  1  0
 35 36  1  6
 13 37  1  0
 37 38  1  1
 37 39  1  0
 39 40  1  0
 39 41  1  0
  6 42  1  0
 42 43  1  0
 42 44  2  0
 44 45  1  0
 44  2  1  0
 39  7  1  0
 37 11  1  0
 35 15  1  0
 35 22  1  0
M  END
>  <cnnaffinity>  (1) 
-5.25925

>  <filename>  (1) 
CN1C[C@H]2CCN([C@@H]3[C@@H]4CN(c5cccnc5)C[C@@H]43)[C@H]2C1

$$$$
