
     RDKit          3D

 43 46  0  0  0  0  0  0  0  0999 V2000
    8.1238    0.3780   27.5678 C   0  0  0  0  0  0  0  0  0  0  0  0
    7.1548    0.5551   26.5029 N   0  0  0  0  0  0  0  0  0  0  0  0
    5.9025    0.0587   26.3894 C   0  0  0  0  0  0  0  0  0  0  0  0
    5.4593    0.3982   25.1281 C   0  0  0  0  0  0  0  0  0  0  0  0
    6.5272    1.1160   24.5521 C   0  0  0  0  0  0  0  0  0  0  0  0
    6.6747    1.6620   23.1587 C   0  0  0  0  0  0  0  0  0  0  0  0
    7.7178    0.8798   22.4205 C   0  0  0  0  0  0  0  0  0  0  0  0
    9.0016    1.1076   22.5693 N   0  0  0  0  0  0  0  0  0  0  0  0
    9.5956    0.0054   22.0419 C   0  0  0  0  0  0  0  0  0  0  0  0
   11.0675   -0.1789   22.1014 C   0  0  0  0  0  0  0  0  0  0  0  0
   11.7116   -1.1949   21.3665 C   0  0  0  0  0  0  0  0  0  0  0  0
   13.0935   -1.3173   21.4772 C   0  0  0  0  0  0  0  0  0  0  0  0
   13.7538   -2.2170   20.7327 F   0  0  0  0  0  0  0  0  0  0  0  0
   13.8415   -0.4960   22.3140 C   0  0  0  0  0  0  0  0  0  0  0  0
   13.2037    0.5081   23.0462 C   0  0  0  0  0  0  0  0  0  0  0  0
   11.8246    0.6817   22.9323 C   0  0  0  0  0  0  0  0  0  0  0  0
   11.3057    1.4774   23.4625 H   0  0  0  0  0  0  0  0  0  0  0  0
   13.7907    1.1478   23.7014 H   0  0  0  0  0  0  0  0  0  0  0  0
   14.9101   -0.6532   22.3603 H   0  0  0  0  0  0  0  0  0  0  0  0
   11.1448   -1.9087   20.7802 H   0  0  0  0  0  0  0  0  0  0  0  0
    8.7425   -0.8575   21.5141 N   0  0  0  0  0  0  0  0  0  0  0  0
    7.5338   -0.2879   21.7611 N   0  0  0  0  0  0  0  0  0  0  0  0
    6.3531   -0.7698   21.0518 C   0  0  0  0  0  0  0  0  0  0  0  0
    6.0047    0.0430   19.8201 C   0  0  0  0  0  0  0  0  0  0  0  0
    4.8218    0.7815   19.7104 C   0  0  0  0  0  0  0  0  0  0  0  0
    4.6187    1.5505   18.5618 C   0  0  0  0  0  0  0  0  0  0  0  0
    5.6020    1.5457   17.5689 C   0  0  0  0  0  0  0  0  0  0  0  0
    6.7294    0.8220   17.6415 N   0  0  0  0  0  0  0  0  0  0  0  0
    6.9169    0.1010   18.7523 C   0  0  0  0  0  0  0  0  0  0  0  0
    7.8500   -0.4645   18.8131 H   0  0  0  0  0  0  0  0  0  0  0  0
    5.4805    2.1498   16.6706 H   0  0  0  0  0  0  0  0  0  0  0  0
    3.7290    2.1547   18.4256 H   0  0  0  0  0  0  0  0  0  0  0  0
    4.0730    0.7618   20.5091 H   0  0  0  0  0  0  0  0  0  0  0  0
    5.5204   -0.7677   21.7507 H   0  0  0  0  0  0  0  0  0  0  0  0
    6.5763   -1.8082   20.7924 H   0  0  0  0  0  0  0  0  0  0  0  0
    5.7153    1.6639   22.6315 H   0  0  0  0  0  0  0  0  0  0  0  0
    7.0385    2.6899   23.2175 H   0  0  0  0  0  0  0  0  0  0  0  0
    7.5342    1.2161   25.4082 N   0  0  0  0  0  0  0  0  0  0  0  0
    4.5079    0.1748   24.6697 H   0  0  0  0  0  0  0  0  0  0  0  0
    5.4375   -0.4747   27.2095 H   0  0  0  0  0  0  0  0  0  0  0  0
    7.9014   -0.5395   28.1101 H   0  0  0  0  0  0  0  0  0  0  0  0
    8.1129    1.2286   28.2518 H   0  0  0  0  0  0  0  0  0  0  0  0
    9.1111    0.2923   27.1068 H   0  0  0  0  0  0  0  0  0  0  0  0
  1  2  1  0
  2  3  1  0
  3  4  2  0
  4  5  1  0
  5  6  1  0
  6  7  1  0
  7  8  2  0
  8  9  1  0
  9 10  1  0
 10 11  2  0
 11 12  1  0
 12 13  1  0
 12 14  2  0
 14 15  1  0
 15 16  2  0
 16 17  1  0
 15 18  1  0
 14 19  1  0
 11 20  1  0
  9 21  2  0
 21 22  1  0
 22 23  1  0
 23 24  1  0
 24 25  2  0
 25 26  1  0
 26 27  2  0
 27 28  1  0
 28 29  2  0
 29 30  1  0
 27 31  1  0
 26 32  1  0
 25 33  1  0
 23 34  1  0
 23 35  1  0
  6 36  1  0
  6 37  1  0
  5 38  2  0
  4 39  1  0
  3 40  1  0
  1 41  1  0
  1 42  1  0
  1 43  1  0
 38  2  1  0
 22  7  1  0
 29 24  1  0
 16 10  1  0
M  END
>  <cnnaffinity>  (1) 
-6.42306

>  <filename>  (1) 
Cn1ccc(Cc2nc(-c3cccc(F)c3)nn2Cc2cccnc2)n1

$$$$
