
     RDKit          3D

 42 45  0  0  0  0  0  0  0  0999 V2000
    5.0881    1.6513   16.9626 H   0  0  0  0  0  0  0  0  0  0  0  0
    5.4515    1.0962   17.8247 C   0  0  0  0  0  0  0  0  0  0  0  0
    6.5452    0.3428   17.6221 N   0  0  0  0  0  0  0  0  0  0  0  0
    7.0311   -0.3207   18.6737 C   0  0  0  0  0  0  0  0  0  0  0  0
    7.8965   -0.9559   18.4814 H   0  0  0  0  0  0  0  0  0  0  0  0
    6.5100   -0.2216   19.9776 C   0  0  0  0  0  0  0  0  0  0  0  0
    7.2171   -0.9304   21.0687 C   0  0  0  0  0  0  0  0  0  0  0  0
    7.9701   -0.4063   22.1410 C   0  0  0  0  0  0  0  0  0  0  0  0
    8.2616    0.9419   22.3754 N   0  0  0  0  0  0  0  0  0  0  0  0
    7.7368    2.0307   21.5477 C   0  0  0  0  0  0  0  0  0  0  0  0
    6.7165    2.3182   21.8452 H   0  0  0  0  0  0  0  0  0  0  0  0
    7.7286    1.7444   20.4960 H   0  0  0  0  0  0  0  0  0  0  0  0
    8.7191    3.1659   21.7626 C   0  0  0  0  0  0  0  0  0  0  0  0
    9.5889    2.9545   21.1210 H   0  0  0  0  0  0  0  0  0  0  0  0
    8.3077    4.1516   21.5214 H   0  0  0  0  0  0  0  0  0  0  0  0
    9.1534    3.0047   23.2192 C   0  0  2  0  0  0  0  0  0  0  0  0
    8.4082    3.4180   23.9113 H   0  0  0  0  0  0  0  0  0  0  0  0
   10.5567    3.5565   23.5048 C   0  0  0  0  0  0  0  0  0  0  0  0
   10.8034    4.3951   22.8288 H   0  0  0  0  0  0  0  0  0  0  0  0
   10.6417    3.9629   24.5213 H   0  0  0  0  0  0  0  0  0  0  0  0
   11.4900    2.4348   23.3395 N   0  0  0  0  0  0  0  0  0  0  0  0
   12.6409    2.7019   22.4999 C   0  0  0  0  0  0  0  0  0  0  0  0
   12.3836    2.8366   21.4320 H   0  0  0  0  0  0  0  0  0  0  0  0
   13.1601    3.6080   22.8318 H   0  0  0  0  0  0  0  0  0  0  0  0
   13.3662    1.8850   22.5629 H   0  0  0  0  0  0  0  0  0  0  0  0
   10.7520    1.2082   23.0002 C   0  0  0  0  0  0  0  0  0  0  0  0
   11.1436    0.3490   23.5603 H   0  0  0  0  0  0  0  0  0  0  0  0
   10.8397    0.9472   21.9302 H   0  0  0  0  0  0  0  0  0  0  0  0
    9.2571    1.4681   23.3383 C   0  0  2  0  0  0  0  0  0  0  0  0
    9.0350    1.1238   24.3600 H   0  0  0  0  0  0  0  0  0  0  0  0
    8.4899   -1.4002   23.0635 C   0  0  0  0  0  0  0  0  0  0  0  0
    9.0616   -1.0478   23.9199 H   0  0  0  0  0  0  0  0  0  0  0  0
    8.2955   -2.7413   22.8921 C   0  0  0  0  0  0  0  0  0  0  0  0
    8.6773   -3.4938   23.5677 H   0  0  0  0  0  0  0  0  0  0  0  0
    7.5825   -3.2669   21.7373 C   0  0  0  0  0  0  0  0  0  0  0  0
    7.3744   -4.4341   21.4620 O   0  0  0  0  0  0  0  0  0  0  0  0
    7.1440   -2.2878   20.8750 N   0  0  0  0  0  0  0  0  0  0  0  0
    6.7074   -2.6942   20.0586 H   0  0  0  0  0  0  0  0  0  0  0  0
    5.3215    0.4995   20.1541 C   0  0  0  0  0  0  0  0  0  0  0  0
    4.8475    0.5202   21.1361 H   0  0  0  0  0  0  0  0  0  0  0  0
    4.7941    1.1817   19.0545 C   0  0  0  0  0  0  0  0  0  0  0  0
    3.9101    1.7970   19.1482 H   0  0  0  0  0  0  0  0  0  0  0  0
  1  2  1  0
  2  3  2  0
  3  4  1  0
  4  5  1  0
  4  6  2  0
  6  7  1  0
  7  8  2  0
  8  9  1  0
  9 10  1  0
 10 11  1  0
 10 12  1  0
 10 13  1  0
 13 14  1  0
 13 15  1  0
 13 16  1  0
 16 17  1  1
 16 18  1  0
 18 19  1  0
 18 20  1  0
 18 21  1  0
 21 22  1  0
 22 23  1  0
 22 24  1  0
 22 25  1  0
 21 26  1  0
 26 27  1  0
 26 28  1  0
 26 29  1  0
 29 30  1  1
  8 31  1  0
 31 32  1  0
 31 33  2  0
 33 34  1  0
 33 35  1  0
 35 36  2  0
 35 37  1  0
 37 38  1  0
  6 39  1  0
 39 40  1  0
 39 41  2  0
 41 42  1  0
 41  2  1  0
 37  7  1  0
 29  9  1  0
 29 16  1  0
M  END
>  <cnnaffinity>  (1) 
-5.51605

>  <filename>  (1) 
CN1C[C@H]2CCN(c3ccc(=O)[nH]c3-c3cccnc3)[C@H]2C1

$$$$
