
     RDKit          3D

 46 49  0  0  0  0  0  0  0  0999 V2000
   15.0264    1.1698   22.4446 C   0  0  0  0  0  0  0  0  0  0  0  0
   14.3368    0.1071   22.5837 N   0  0  0  0  0  0  0  0  0  0  0  0
   12.9810    0.3063   22.6168 C   0  0  0  0  0  0  0  0  0  0  0  0
   12.1206   -0.5293   22.0000 C   0  0  0  0  0  0  0  0  0  0  0  0
   10.7404   -0.1578   21.8026 C   0  0  0  0  0  0  0  0  0  0  0  0
    9.8401   -0.9075   21.1954 N   0  0  0  0  0  0  0  0  0  0  0  0
    8.7017   -0.2048   21.3681 N   0  0  0  0  0  0  0  0  0  0  0  0
    7.4265   -0.7704   20.9496 C   0  0  0  0  0  0  0  0  0  0  0  0
    6.7136    0.0088   19.8712 C   0  0  0  0  0  0  0  0  0  0  0  0
    5.4740    0.6219   20.0691 C   0  0  0  0  0  0  0  0  0  0  0  0
    4.8818    1.3047   19.0050 C   0  0  0  0  0  0  0  0  0  0  0  0
    5.5488    1.3413   17.7785 C   0  0  0  0  0  0  0  0  0  0  0  0
    6.7384    0.7545   17.5696 N   0  0  0  0  0  0  0  0  0  0  0  0
    7.2990    0.1121   18.5998 C   0  0  0  0  0  0  0  0  0  0  0  0
    8.2602   -0.3678   18.4079 H   0  0  0  0  0  0  0  0  0  0  0  0
    5.1103    1.8516   16.9224 H   0  0  0  0  0  0  0  0  0  0  0  0
    3.9329    1.8135   19.1130 H   0  0  0  0  0  0  0  0  0  0  0  0
    4.9779    0.5600   21.0399 H   0  0  0  0  0  0  0  0  0  0  0  0
    6.7826   -0.8832   21.8295 H   0  0  0  0  0  0  0  0  0  0  0  0
    7.6606   -1.7774   20.5983 H   0  0  0  0  0  0  0  0  0  0  0  0
    8.9682    0.9242   22.0659 C   0  0  0  0  0  0  0  0  0  0  0  0
    7.9318    1.7605   22.7393 C   0  0  0  0  0  0  0  0  0  0  0  0
    7.6298    1.2132   24.1609 C   0  0  0  0  0  0  0  0  0  0  0  0
    6.5465    1.9592   24.8986 C   0  0  0  0  0  0  0  0  0  0  0  0
    5.2051    1.5792   24.7482 C   0  0  0  0  0  0  0  0  0  0  0  0
    4.2188    2.2787   25.4346 C   0  0  0  0  0  0  0  0  0  0  0  0
    2.9392    1.8997   25.2918 F   0  0  0  0  0  0  0  0  0  0  0  0
    4.5085    3.3455   26.2779 C   0  0  0  0  0  0  0  0  0  0  0  0
    5.8463    3.7054   26.4047 C   0  0  0  0  0  0  0  0  0  0  0  0
    6.1617    4.7264   27.2164 F   0  0  0  0  0  0  0  0  0  0  0  0
    6.8682    3.0363   25.7384 C   0  0  0  0  0  0  0  0  0  0  0  0
    7.8939    3.3541   25.8977 H   0  0  0  0  0  0  0  0  0  0  0  0
    3.7291    3.8679   26.8158 H   0  0  0  0  0  0  0  0  0  0  0  0
    4.9172    0.7357   24.1289 H   0  0  0  0  0  0  0  0  0  0  0  0
    8.5585    1.2372   24.7454 H   0  0  0  0  0  0  0  0  0  0  0  0
    7.3423    0.1540   24.0759 H   0  0  0  0  0  0  0  0  0  0  0  0
    7.0176    1.7901   22.1399 H   0  0  0  0  0  0  0  0  0  0  0  0
    8.3081    2.7855   22.7974 H   0  0  0  0  0  0  0  0  0  0  0  0
   10.2576    0.9945   22.3326 N   0  0  0  0  0  0  0  0  0  0  0  0
   12.6383   -1.8220   21.4397 C   0  0  0  0  0  0  0  0  0  0  0  0
   13.7663   -2.2978   21.5032 N   0  0  0  0  0  0  0  0  0  0  0  0
   11.7608   -2.3671   20.9102 H   0  0  0  0  0  0  0  0  0  0  0  0
   12.6319    1.2292   23.1070 H   0  0  0  0  0  0  0  0  0  0  0  0
   14.6215    2.1479   22.7295 H   0  0  0  0  0  0  0  0  0  0  0  0
   16.2397    0.7110   20.0309 H   0  0  0  0  0  0  0  0  0  0  0  0
   15.9293    1.1516   21.8256 H   0  0  0  0  0  0  0  0  0  0  0  0
  1  2  1  0
  2  3  1  0
  3  4  2  0
  4  5  1  0
  5  6  2  0
  6  7  1  0
  7  8  1  0
  8  9  1  0
  9 10  2  0
 10 11  1  0
 11 12  2  0
 12 13  1  0
 13 14  2  0
 14 15  1  0
 12 16  1  0
 11 17  1  0
 10 18  1  0
  8 19  1  0
  8 20  1  0
  7 21  1  0
 21 22  1  0
 22 23  1  0
 23 24  1  0
 24 25  2  0
 25 26  1  0
 26 27  1  0
 26 28  2  0
 28 29  1  0
 29 30  1  0
 29 31  2  0
 31 32  1  0
 28 33  1  0
 25 34  1  0
 23 35  1  0
 23 36  1  0
 22 37  1  0
 22 38  1  0
 21 39  2  0
  4 40  1  0
 40 41  2  0
 40 42  1  0
  3 43  1  0
  1 44  1  0
  1 45  1  0
  1 46  1  0
 41  2  1  0
 39  5  1  0
 14  9  1  0
 31 24  1  0
M  END
>  <cnnaffinity>  (1) 
-6.67345

>  <filename>  (1) 
Cn1cc(-c2nc(CCc3cc(F)cc(F)c3)n(Cc3cccnc3)n2)cn1

$$$$
