
     RDKit          3D

 43 46  0  0  0  0  0  0  0  0999 V2000
   11.1996   -1.3071   21.7064 C   0  0  0  0  0  0  0  0  0  0  0  0
   11.7955    0.0068   21.8158 N   0  0  0  0  0  0  0  0  0  0  0  0
   13.0126    0.2967   22.3717 C   0  0  0  0  0  0  0  0  0  0  0  0
   13.2420    1.5807   22.4296 N   0  0  0  0  0  0  0  0  0  0  0  0
   12.1281    2.1607   21.8800 C   0  0  0  0  0  0  0  0  0  0  0  0
   11.2068    1.2160   21.4966 C   0  0  0  0  0  0  0  0  0  0  0  0
    9.7823    1.3902   21.0264 C   0  0  0  0  0  0  0  0  0  0  0  0
    8.7646    1.1364   22.0928 C   0  0  0  0  0  0  0  0  0  0  0  0
    8.7035    1.8580   23.1905 N   0  0  0  0  0  0  0  0  0  0  0  0
    7.6593    1.3176   23.8666 C   0  0  0  0  0  0  0  0  0  0  0  0
    7.2266    1.8434   25.1735 C   0  0  0  0  0  0  0  0  0  0  0  0
    7.9567    2.8791   25.7876 C   0  0  0  0  0  0  0  0  0  0  0  0
    7.5798    3.3680   27.0364 C   0  0  0  0  0  0  0  0  0  0  0  0
    6.4664    2.8143   27.6744 C   0  0  0  0  0  0  0  0  0  0  0  0
    5.9923    3.4158   29.2344 Cl  0  0  0  0  0  0  0  0  0  0  0  0
    5.7250    1.7880   27.0815 C   0  0  0  0  0  0  0  0  0  0  0  0
    6.1047    1.3063   25.8300 C   0  0  0  0  0  0  0  0  0  0  0  0
    5.5508    0.4999   25.3537 H   0  0  0  0  0  0  0  0  0  0  0  0
    4.8673    1.3727   27.5990 H   0  0  0  0  0  0  0  0  0  0  0  0
    8.1375    4.1657   27.5147 H   0  0  0  0  0  0  0  0  0  0  0  0
    8.8284    3.2834   25.2777 H   0  0  0  0  0  0  0  0  0  0  0  0
    7.0760    0.3095   23.2359 N   0  0  0  0  0  0  0  0  0  0  0  0
    7.8015    0.1850   22.0994 N   0  0  0  0  0  0  0  0  0  0  0  0
    7.3632   -0.7166   21.0290 C   0  0  0  0  0  0  0  0  0  0  0  0
    6.6498   -0.0100   19.8836 C   0  0  0  0  0  0  0  0  0  0  0  0
    5.4382    0.6546   20.1284 C   0  0  0  0  0  0  0  0  0  0  0  0
    4.8042    1.3137   19.0752 C   0  0  0  0  0  0  0  0  0  0  0  0
    5.4059    1.2968   17.8143 C   0  0  0  0  0  0  0  0  0  0  0  0
    6.5559    0.6580   17.5518 N   0  0  0  0  0  0  0  0  0  0  0  0
    7.1528    0.0265   18.5711 C   0  0  0  0  0  0  0  0  0  0  0  0
    8.0917   -0.4725   18.3167 H   0  0  0  0  0  0  0  0  0  0  0  0
    4.9454    1.8193   16.9798 H   0  0  0  0  0  0  0  0  0  0  0  0
    3.8695    1.8476   19.2146 H   0  0  0  0  0  0  0  0  0  0  0  0
    5.0127    0.6707   21.1345 H   0  0  0  0  0  0  0  0  0  0  0  0
    8.2329   -1.2846   20.6753 H   0  0  0  0  0  0  0  0  0  0  0  0
    6.6968   -1.4386   21.5125 H   0  0  0  0  0  0  0  0  0  0  0  0
    9.5477    0.7848   20.1448 H   0  0  0  0  0  0  0  0  0  0  0  0
    9.6443    2.4401   20.7492 H   0  0  0  0  0  0  0  0  0  0  0  0
   12.0348    3.2324   21.7814 H   0  0  0  0  0  0  0  0  0  0  0  0
   13.6941   -0.4775   22.7082 H   0  0  0  0  0  0  0  0  0  0  0  0
   10.4350   -1.4496   22.4742 H   0  0  0  0  0  0  0  0  0  0  0  0
   10.7459   -1.4276   20.7238 H   0  0  0  0  0  0  0  0  0  0  0  0
   11.9637   -2.0792   21.8191 H   0  0  0  0  0  0  0  0  0  0  0  0
  1  2  1  0
  2  3  1  0
  3  4  2  0
  4  5  1  0
  5  6  2  0
  6  7  1  0
  7  8  1  0
  8  9  2  0
  9 10  1  0
 10 11  1  0
 11 12  2  0
 12 13  1  0
 13 14  2  0
 14 15  1  0
 14 16  1  0
 16 17  2  0
 17 18  1  0
 16 19  1  0
 13 20  1  0
 12 21  1  0
 10 22  2  0
 22 23  1  0
 23 24  1  0
 24 25  1  0
 25 26  2  0
 26 27  1  0
 27 28  2  0
 28 29  1  0
 29 30  2  0
 30 31  1  0
 28 32  1  0
 27 33  1  0
 26 34  1  0
 24 35  1  0
 24 36  1  0
  7 37  1  0
  7 38  1  0
  5 39  1  0
  3 40  1  0
  1 41  1  0
  1 42  1  0
  1 43  1  0
  6  2  1  0
 23  8  1  0
 30 25  1  0
 17 11  1  0
M  END
>  <cnnaffinity>  (1) 
-5.84198

>  <filename>  (1) 
Cn1cncc1Cc1nc(-c2ccc(Cl)cc2)nn1Cc1cccnc1

$$$$
