
     RDKit          3D

 43 46  0  0  0  0  0  0  0  0999 V2000
    7.4639    1.2517   26.1644 C   0  0  0  0  0  0  0  0  0  0  0  0
    8.2592    1.6660   25.0329 N   0  0  0  0  0  0  0  0  0  0  0  0
    7.8500    1.7139   23.7453 C   0  0  0  0  0  0  0  0  0  0  0  0
    8.9425    2.0340   22.9729 C   0  0  0  0  0  0  0  0  0  0  0  0
    9.0445    2.0129   21.4706 C   0  0  0  0  0  0  0  0  0  0  0  0
    9.5119    0.6247   20.9479 C   0  0  0  0  0  0  0  0  0  0  0  0
    8.6378   -0.4969   21.4035 C   0  0  0  0  0  0  0  0  0  0  0  0
    8.8711   -1.3213   22.4018 N   0  0  0  0  0  0  0  0  0  0  0  0
    7.6682   -1.9332   22.5856 C   0  0  0  0  0  0  0  0  0  0  0  0
    7.4226   -2.8896   23.6994 C   0  0  0  0  0  0  0  0  0  0  0  0
    6.1854   -3.5606   23.7914 C   0  0  0  0  0  0  0  0  0  0  0  0
    5.9857   -4.4525   24.8391 C   0  0  0  0  0  0  0  0  0  0  0  0
    4.8111   -5.0877   24.9237 F   0  0  0  0  0  0  0  0  0  0  0  0
    6.9455   -4.7191   25.8094 C   0  0  0  0  0  0  0  0  0  0  0  0
    8.1518   -4.0377   25.6898 C   0  0  0  0  0  0  0  0  0  0  0  0
    9.0968   -4.2699   26.6091 F   0  0  0  0  0  0  0  0  0  0  0  0
    8.4198   -3.1323   24.6680 C   0  0  0  0  0  0  0  0  0  0  0  0
    9.3897   -2.6418   24.6409 H   0  0  0  0  0  0  0  0  0  0  0  0
    6.7620   -5.4204   26.6176 H   0  0  0  0  0  0  0  0  0  0  0  0
    5.3890   -3.3907   23.0723 H   0  0  0  0  0  0  0  0  0  0  0  0
    6.7334   -1.5785   21.7211 N   0  0  0  0  0  0  0  0  0  0  0  0
    7.3619   -0.6659   20.9414 N   0  0  0  0  0  0  0  0  0  0  0  0
    6.6582    0.0051   19.9015 C   0  0  0  0  0  0  0  0  0  0  0  0
    5.4391    0.6411   20.1628 C   0  0  0  0  0  0  0  0  0  0  0  0
    4.8128    1.3100   19.1079 C   0  0  0  0  0  0  0  0  0  0  0  0
    5.4001    1.2966   17.8366 C   0  0  0  0  0  0  0  0  0  0  0  0
    6.5584    0.6716   17.5756 N   0  0  0  0  0  0  0  0  0  0  0  0
    7.1674    0.0506   18.5919 C   0  0  0  0  0  0  0  0  0  0  0  0
    8.1130   -0.4357   18.3666 H   0  0  0  0  0  0  0  0  0  0  0  0
    4.9208    1.7872   16.9925 H   0  0  0  0  0  0  0  0  0  0  0  0
    3.8811    1.8389   19.2602 H   0  0  0  0  0  0  0  0  0  0  0  0
    5.0072    0.6055   21.1657 H   0  0  0  0  0  0  0  0  0  0  0  0
   10.5180    0.4076   21.3142 H   0  0  0  0  0  0  0  0  0  0  0  0
    9.5650    0.6403   19.8572 H   0  0  0  0  0  0  0  0  0  0  0  0
    9.7434    2.7823   21.1244 H   0  0  0  0  0  0  0  0  0  0  0  0
    8.0721    2.2586   21.0233 H   0  0  0  0  0  0  0  0  0  0  0  0
    9.9857    2.1507   23.9191 C   0  0  0  0  0  0  0  0  0  0  0  0
    9.5640    1.9309   25.1590 N   0  0  0  0  0  0  0  0  0  0  0  0
   11.0301    2.3782   23.7324 H   0  0  0  0  0  0  0  0  0  0  0  0
    6.8369    1.4380   23.4790 H   0  0  0  0  0  0  0  0  0  0  0  0
    7.4378    0.1600   26.2544 H   0  0  0  0  0  0  0  0  0  0  0  0
    6.4476    1.6212   26.0272 H   0  0  0  0  0  0  0  0  0  0  0  0
    7.8836    1.6818   27.0732 H   0  0  0  0  0  0  0  0  0  0  0  0
  1  2  1  0
  2  3  1  0
  3  4  2  0
  4  5  1  0
  5  6  1  0
  6  7  1  0
  7  8  2  0
  8  9  1  0
  9 10  1  0
 10 11  2  0
 11 12  1  0
 12 13  1  0
 12 14  2  0
 14 15  1  0
 15 16  1  0
 15 17  2  0
 17 18  1  0
 14 19  1  0
 11 20  1  0
  9 21  2  0
 21 22  1  0
 22 23  1  0
 23 24  2  0
 24 25  1  0
 25 26  2  0
 26 27  1  0
 27 28  2  0
 28 29  1  0
 26 30  1  0
 25 31  1  0
 24 32  1  0
  6 33  1  0
  6 34  1  0
  5 35  1  0
  5 36  1  0
  4 37  1  0
 37 38  2  0
 37 39  1  0
  3 40  1  0
  1 41  1  0
  1 42  1  0
  1 43  1  0
 38  2  1  0
 22  7  1  0
 28 23  1  0
 17 10  1  0
M  END
>  <cnnaffinity>  (1) 
-5.94393

>  <filename>  (1) 
Cn1cc(CCc2nc(-c3cc(F)cc(F)c3)nn2-c2cccnc2)cn1

$$$$
