
     RDKit          3D

 38 40  0  0  0  0  0  0  0  0999 V2000
    5.0041    1.7632   16.9330 H   0  0  0  0  0  0  0  0  0  0  0  0
    5.4521    1.2954   17.8097 C   0  0  0  0  0  0  0  0  0  0  0  0
    6.6200    0.6659   17.6030 N   0  0  0  0  0  0  0  0  0  0  0  0
    7.1933    0.0760   18.6587 C   0  0  0  0  0  0  0  0  0  0  0  0
    8.1491   -0.4195   18.4749 H   0  0  0  0  0  0  0  0  0  0  0  0
    6.6383    0.0629   19.9487 C   0  0  0  0  0  0  0  0  0  0  0  0
    7.3726   -0.6158   21.0836 C   0  0  0  0  0  0  0  0  0  0  0  0
    6.7470   -0.6913   21.9789 H   0  0  0  0  0  0  0  0  0  0  0  0
    7.7107   -1.6174   20.8005 H   0  0  0  0  0  0  0  0  0  0  0  0
    8.5791    0.1220   21.4412 N   0  0  0  0  0  0  0  0  0  0  0  0
    9.7561   -0.1822   20.8751 N   0  0  0  0  0  0  0  0  0  0  0  0
   10.5737    0.7596   21.1803 N   0  0  0  0  0  0  0  0  0  0  0  0
    9.9656    1.6999   21.9160 N   0  0  0  0  0  0  0  0  0  0  0  0
    8.7215    1.2924   22.0895 C   0  0  0  0  0  0  0  0  0  0  0  0
    7.6602    1.9392   22.9555 C   0  0  0  0  0  0  0  0  0  0  0  0
    6.8349    1.2731   23.5642 O   0  0  0  0  0  0  0  0  0  0  0  0
    7.7317    3.3105   23.0242 N   0  0  0  0  0  0  0  0  0  0  0  0
    8.0625    4.1797   21.8763 C   0  0  0  0  0  0  0  0  0  0  0  0
    8.6376    3.6003   21.1501 H   0  0  0  0  0  0  0  0  0  0  0  0
    7.1332    4.5351   21.4001 H   0  0  0  0  0  0  0  0  0  0  0  0
    8.9084    5.3878   22.2972 C   0  0  0  0  0  0  0  0  0  0  0  0
    8.9429    6.0849   21.4440 H   0  0  0  0  0  0  0  0  0  0  0  0
    9.9393    5.0366   22.5089 H   0  0  0  0  0  0  0  0  0  0  0  0
    8.3321    6.1183   23.4301 N   0  0  0  0  0  0  0  0  0  0  0  0
    9.1778    7.2351   23.8464 C   0  0  0  0  0  0  0  0  0  0  0  0
    8.5830    8.0058   24.3483 H   0  0  0  0  0  0  0  0  0  0  0  0
    9.9686    6.9368   24.5621 H   0  0  0  0  0  0  0  0  0  0  0  0
    9.6628    7.7061   22.9820 H   0  0  0  0  0  0  0  0  0  0  0  0
    8.0208    5.2320   24.5586 C   0  0  0  0  0  0  0  0  0  0  0  0
    7.4947    5.8220   25.3221 H   0  0  0  0  0  0  0  0  0  0  0  0
    8.9361    4.8237   25.0363 H   0  0  0  0  0  0  0  0  0  0  0  0
    7.1251    4.0575   24.1393 C   0  0  0  0  0  0  0  0  0  0  0  0
    6.9743    3.3782   24.9809 H   0  0  0  0  0  0  0  0  0  0  0  0
    6.1429    4.4430   23.8371 H   0  0  0  0  0  0  0  0  0  0  0  0
    5.4282    0.7308   20.1449 C   0  0  0  0  0  0  0  0  0  0  0  0
    4.9795    0.7511   21.1403 H   0  0  0  0  0  0  0  0  0  0  0  0
    4.8195    1.3557   19.0524 C   0  0  0  0  0  0  0  0  0  0  0  0
    3.8756    1.8821   19.1493 H   0  0  0  0  0  0  0  0  0  0  0  0
  1  2  1  0
  2  3  2  0
  3  4  1  0
  4  5  1  0
  4  6  2  0
  6  7  1  0
  7  8  1  0
  7  9  1  0
  7 10  1  0
 10 11  1  0
 11 12  2  0
 12 13  1  0
 13 14  2  0
 14 15  1  0
 15 16  2  0
 15 17  1  0
 17 18  1  0
 18 19  1  0
 18 20  1  0
 18 21  1  0
 21 22  1  0
 21 23  1  0
 21 24  1  0
 24 25  1  0
 25 26  1  0
 25 27  1  0
 25 28  1  0
 24 29  1  0
 29 30  1  0
 29 31  1  0
 29 32  1  0
 32 33  1  0
 32 34  1  0
  6 35  1  0
 35 36  1  0
 35 37  2  0
 37 38  1  0
 37  2  1  0
 14 10  1  0
 32 17  1  0
M  END
>  <cnnaffinity>  (1) 
-4.38174

>  <filename>  (1) 
CN1CCN(C(=O)c2nnnn2Cc2cccnc2)CC1

$$$$
