
     RDKit          3D

 40 42  0  0  0  0  0  0  0  0999 V2000
    5.0131    1.8042   16.9643 H   0  0  0  0  0  0  0  0  0  0  0  0
    5.4442    1.2710   17.8088 C   0  0  0  0  0  0  0  0  0  0  0  0
    6.5806    0.5975   17.5709 N   0  0  0  0  0  0  0  0  0  0  0  0
    7.1280   -0.0591   18.6008 C   0  0  0  0  0  0  0  0  0  0  0  0
    8.0557   -0.5819   18.3817 H   0  0  0  0  0  0  0  0  0  0  0  0
    6.6147   -0.0867   19.9122 C   0  0  0  0  0  0  0  0  0  0  0  0
    7.3501   -0.8218   21.0104 C   0  0  0  0  0  0  0  0  0  0  0  0
    6.8931   -2.1836   20.9920 O   0  0  0  0  0  0  0  0  0  0  0  0
    7.3059   -3.0847   22.0374 C   0  0  0  0  0  0  0  0  0  0  0  0
    8.0585   -2.6065   22.6803 H   0  0  0  0  0  0  0  0  0  0  0  0
    7.9226   -4.3402   21.4169 C   0  0  0  0  0  0  0  0  0  0  0  0
    8.7378   -4.0360   20.7648 H   0  0  0  0  0  0  0  0  0  0  0  0
    8.3629   -4.9500   22.2208 H   0  0  0  0  0  0  0  0  0  0  0  0
    6.8809   -5.1624   20.6427 C   0  0  0  0  0  0  0  0  0  0  0  0
    6.5334   -4.5979   19.7675 H   0  0  0  0  0  0  0  0  0  0  0  0
    7.3439   -6.0856   20.2857 H   0  0  0  0  0  0  0  0  0  0  0  0
    5.6995   -5.5157   21.4319 N   0  0  0  0  0  0  0  0  0  0  0  0
    5.9354   -6.6044   22.3797 C   0  0  0  0  0  0  0  0  0  0  0  0
    4.9796   -6.9615   22.7871 H   0  0  0  0  0  0  0  0  0  0  0  0
    6.5964   -6.3370   23.2243 H   0  0  0  0  0  0  0  0  0  0  0  0
    6.4083   -7.4538   21.8703 H   0  0  0  0  0  0  0  0  0  0  0  0
    5.0948   -4.3096   22.0175 C   0  0  0  0  0  0  0  0  0  0  0  0
    4.7651   -3.6566   21.1988 H   0  0  0  0  0  0  0  0  0  0  0  0
    4.2042   -4.5983   22.5937 H   0  0  0  0  0  0  0  0  0  0  0  0
    6.0829   -3.4935   22.8736 C   0  0  0  0  0  0  0  0  0  0  0  0
    6.4290   -4.1164   23.7089 H   0  0  0  0  0  0  0  0  0  0  0  0
    5.5803   -2.6173   23.2953 H   0  0  0  0  0  0  0  0  0  0  0  0
    8.9043   -0.6635   20.9835 C   0  0  0  0  0  0  0  0  0  0  0  0
    9.2506    0.0638   20.2440 H   0  0  0  0  0  0  0  0  0  0  0  0
    9.4574   -1.5953   20.8327 H   0  0  0  0  0  0  0  0  0  0  0  0
    8.8765   -0.0866   22.4183 C   0  0  0  0  0  0  0  0  0  0  0  0
    9.3323   -0.7362   23.1738 H   0  0  0  0  0  0  0  0  0  0  0  0
    9.3098    0.9131   22.5175 H   0  0  0  0  0  0  0  0  0  0  0  0
    7.3296   -0.1174   22.4039 C   0  0  0  0  0  0  0  0  0  0  0  0
    6.8768    0.8767   22.3748 H   0  0  0  0  0  0  0  0  0  0  0  0
    6.8471   -0.6870   23.2014 H   0  0  0  0  0  0  0  0  0  0  0  0
    5.4059    0.6005   20.1238 C   0  0  0  0  0  0  0  0  0  0  0  0
    4.9550    0.6067   21.1179 H   0  0  0  0  0  0  0  0  0  0  0  0
    4.8163    1.2860   19.0615 C   0  0  0  0  0  0  0  0  0  0  0  0
    3.8982    1.8468   19.1903 H   0  0  0  0  0  0  0  0  0  0  0  0
  1  2  1  0
  2  3  2  0
  3  4  1  0
  4  5  1  0
  4  6  2  0
  6  7  1  0
  7  8  1  0
  8  9  1  0
  9 10  1  0
  9 11  1  0
 11 12  1  0
 11 13  1  0
 11 14  1  0
 14 15  1  0
 14 16  1  0
 14 17  1  0
 17 18  1  0
 18 19  1  0
 18 20  1  0
 18 21  1  0
 17 22  1  0
 22 23  1  0
 22 24  1  0
 22 25  1  0
 25 26  1  0
 25 27  1  0
  7 28  1  0
 28 29  1  0
 28 30  1  0
 28 31  1  0
 31 32  1  0
 31 33  1  0
 31 34  1  0
 34 35  1  0
 34 36  1  0
  6 37  1  0
 37 38  1  0
 37 39  2  0
 39 40  1  0
 39  2  1  0
 34  7  1  0
 25  9  1  0
M  END
>  <cnnaffinity>  (1) 
-4.2507

>  <filename>  (1) 
CN1CCC(OC2(c3cccnc3)CCC2)CC1

$$$$
