
     RDKit          3D

 46 49  0  0  0  0  0  0  0  0999 V2000
   10.6342    3.1486   24.0264 C   0  0  0  0  0  0  0  0  0  0  0  0
   10.9074    2.1392   23.0204 N   0  0  0  0  0  0  0  0  0  0  0  0
   12.0304    1.3430   22.9620 C   0  0  0  0  0  0  0  0  0  0  0  0
   11.8781    0.5637   21.8535 C   0  0  0  0  0  0  0  0  0  0  0  0
   10.7048    0.8681   21.2147 N   0  0  0  0  0  0  0  0  0  0  0  0
   10.1199    1.7868   21.9556 C   0  0  0  0  0  0  0  0  0  0  0  0
    8.6864    2.2255   21.7766 C   0  0  0  0  0  0  0  0  0  0  0  0
    7.6615    1.3333   22.5510 C   0  0  0  0  0  0  0  0  0  0  0  0
    7.5941   -0.0826   22.0648 C   0  0  0  0  0  0  0  0  0  0  0  0
    8.1932   -1.0945   22.6474 N   0  0  0  0  0  0  0  0  0  0  0  0
    8.0790   -2.1148   21.7228 C   0  0  0  0  0  0  0  0  0  0  0  0
    8.6738   -3.3900   21.9670 C   0  0  0  0  0  0  0  0  0  0  0  0
    7.9654   -4.6406   21.8041 C   0  0  0  0  0  0  0  0  0  0  0  0
    8.4204   -5.8386   22.7443 C   0  0  0  0  0  0  0  0  0  0  0  0
    8.9200   -5.5662   24.0701 C   0  0  0  0  0  0  0  0  0  0  0  0
    9.2410   -4.3043   24.7426 C   0  0  0  0  0  0  0  0  0  0  0  0
    8.4510   -3.5474   24.5266 H   0  0  0  0  0  0  0  0  0  0  0  0
   10.1911   -3.8546   24.3488 H   0  0  0  0  0  0  0  0  0  0  0  0
    9.1031   -6.4772   24.6266 H   0  0  0  0  0  0  0  0  0  0  0  0
    9.3258   -4.5005   25.8487 H   0  0  0  0  0  0  0  0  0  0  0  0
    9.1277   -6.5050   22.2079 H   0  0  0  0  0  0  0  0  0  0  0  0
    7.5474   -6.5074   22.8575 H   0  0  0  0  0  0  0  0  0  0  0  0
    6.8900   -4.4545   21.9769 H   0  0  0  0  0  0  0  0  0  0  0  0
    8.0341   -4.9834   20.7533 H   0  0  0  0  0  0  0  0  0  0  0  0
    9.6942   -3.3305   22.3019 H   0  0  0  0  0  0  0  0  0  0  0  0
    7.4054   -1.7681   20.6312 N   0  0  0  0  0  0  0  0  0  0  0  0
    7.0828   -0.4693   20.8547 N   0  0  0  0  0  0  0  0  0  0  0  0
    6.4446    0.2859   19.8156 C   0  0  0  0  0  0  0  0  0  0  0  0
    5.2664    1.0285   19.9828 C   0  0  0  0  0  0  0  0  0  0  0  0
    4.6916    1.6125   18.8442 C   0  0  0  0  0  0  0  0  0  0  0  0
    5.3349    1.4862   17.6087 C   0  0  0  0  0  0  0  0  0  0  0  0
    6.4971    0.8305   17.4567 N   0  0  0  0  0  0  0  0  0  0  0  0
    7.0318    0.2530   18.5345 C   0  0  0  0  0  0  0  0  0  0  0  0
    7.9809   -0.2615   18.3998 H   0  0  0  0  0  0  0  0  0  0  0  0
    4.9215    1.9333   16.7067 H   0  0  0  0  0  0  0  0  0  0  0  0
    3.7666    2.1749   18.9040 H   0  0  0  0  0  0  0  0  0  0  0  0
    4.7920    1.1508   20.9599 H   0  0  0  0  0  0  0  0  0  0  0  0
    6.6610    1.7712   22.5101 H   0  0  0  0  0  0  0  0  0  0  0  0
    7.9401    1.2858   23.6098 H   0  0  0  0  0  0  0  0  0  0  0  0
    8.4666    2.1803   20.7061 H   0  0  0  0  0  0  0  0  0  0  0  0
    8.5687    3.2697   22.0874 H   0  0  0  0  0  0  0  0  0  0  0  0
   12.5192   -0.2403   21.5124 H   0  0  0  0  0  0  0  0  0  0  0  0
   12.8241    1.4139   23.6926 H   0  0  0  0  0  0  0  0  0  0  0  0
    9.7820    2.8678   24.6563 H   0  0  0  0  0  0  0  0  0  0  0  0
   10.4376    4.1213   23.5628 H   0  0  0  0  0  0  0  0  0  0  0  0
   11.5168    3.2473   24.6602 H   0  0  0  0  0  0  0  0  0  0  0  0
  1  2  1  0
  2  3  1  0
  3  4  2  0
  4  5  1  0
  5  6  2  0
  6  7  1  0
  7  8  1  0
  8  9  1  0
  9 10  2  0
 10 11  1  0
 11 12  1  0
 12 13  1  0
 13 14  1  0
 14 15  1  0
 15 16  1  0
 16 17  1  0
 16 18  1  0
 15 19  1  0
 15 20  1  0
 14 21  1  0
 14 22  1  0
 13 23  1  0
 13 24  1  0
 12 25  1  0
 11 26  2  0
 26 27  1  0
 27 28  1  0
 28 29  2  0
 29 30  1  0
 30 31  2  0
 31 32  1  0
 32 33  2  0
 33 34  1  0
 31 35  1  0
 30 36  1  0
 29 37  1  0
  8 38  1  0
  8 39  1  0
  7 40  1  0
  7 41  1  0
  4 42  1  0
  3 43  1  0
  1 44  1  0
  1 45  1  0
  1 46  1  0
  6  2  1  0
 27  9  1  0
 33 28  1  0
 16 12  1  0
M  END
>  <cnnaffinity>  (1) 
-6.03796

>  <filename>  (1) 
Cn1ccnc1CCc1nc(C2CCCC2)nn1-c1cccnc1

$$$$
