
     RDKit          3D

 49 52  0  0  0  0  0  0  0  0999 V2000
    9.5922    1.3145   26.2512 C   0  0  0  0  0  0  0  0  0  0  0  0
    9.0392    1.6586   24.9683 N   0  0  0  0  0  0  0  0  0  0  0  0
    9.6987    1.8979   23.8141 C   0  0  0  0  0  0  0  0  0  0  0  0
    8.7553    2.0260   22.8116 C   0  0  0  0  0  0  0  0  0  0  0  0
    9.0150    1.9975   21.3194 C   0  0  0  0  0  0  0  0  0  0  0  0
    9.5105    0.5971   20.8559 C   0  0  0  0  0  0  0  0  0  0  0  0
    8.6414   -0.5292   21.3285 C   0  0  0  0  0  0  0  0  0  0  0  0
    8.8911   -1.3632   22.3198 N   0  0  0  0  0  0  0  0  0  0  0  0
    7.6679   -1.9106   22.5799 C   0  0  0  0  0  0  0  0  0  0  0  0
    7.4045   -2.7895   23.7757 C   0  0  0  0  0  0  0  0  0  0  0  0
    8.5015   -3.8647   23.9630 C   0  0  0  0  0  0  0  0  0  0  0  0
    8.2447   -4.7376   25.2062 C   0  0  0  0  0  0  0  0  0  0  0  0
    8.0527   -3.9013   26.4642 C   0  0  0  0  0  0  0  0  0  0  0  0
    7.7261   -4.7179   27.5159 F   0  0  0  0  0  0  0  0  0  0  0  0
    9.2509   -3.3095   26.7995 F   0  0  0  0  0  0  0  0  0  0  0  0
    6.9926   -2.8200   26.3100 C   0  0  0  0  0  0  0  0  0  0  0  0
    7.2460   -1.9396   25.0723 C   0  0  0  0  0  0  0  0  0  0  0  0
    6.4273   -1.2177   24.9536 H   0  0  0  0  0  0  0  0  0  0  0  0
    8.1686   -1.3626   25.2318 H   0  0  0  0  0  0  0  0  0  0  0  0
    6.0215   -3.3261   26.2324 H   0  0  0  0  0  0  0  0  0  0  0  0
    6.9814   -2.2283   27.2311 H   0  0  0  0  0  0  0  0  0  0  0  0
    7.3328   -5.3350   25.0743 H   0  0  0  0  0  0  0  0  0  0  0  0
    9.0698   -5.4336   25.3883 H   0  0  0  0  0  0  0  0  0  0  0  0
    9.4718   -3.3597   24.0612 H   0  0  0  0  0  0  0  0  0  0  0  0
    8.5617   -4.4994   23.0707 H   0  0  0  0  0  0  0  0  0  0  0  0
    6.4446   -3.2804   23.5709 H   0  0  0  0  0  0  0  0  0  0  0  0
    6.7066   -1.5167   21.7703 N   0  0  0  0  0  0  0  0  0  0  0  0
    7.3439   -0.6592   20.9271 N   0  0  0  0  0  0  0  0  0  0  0  0
    6.6462   -0.0146   19.8741 C   0  0  0  0  0  0  0  0  0  0  0  0
    5.4258    0.6192   20.1302 C   0  0  0  0  0  0  0  0  0  0  0  0
    4.8122    1.3087   19.0803 C   0  0  0  0  0  0  0  0  0  0  0  0
    5.4127    1.3101   17.8173 C   0  0  0  0  0  0  0  0  0  0  0  0
    6.5556    0.6601   17.5505 N   0  0  0  0  0  0  0  0  0  0  0  0
    7.1506    0.0155   18.5621 C   0  0  0  0  0  0  0  0  0  0  0  0
    8.0779   -0.5044   18.3232 H   0  0  0  0  0  0  0  0  0  0  0  0
    4.9548    1.8434   16.9849 H   0  0  0  0  0  0  0  0  0  0  0  0
    3.8848    1.8444   19.2375 H   0  0  0  0  0  0  0  0  0  0  0  0
    4.9866    0.5610   21.1259 H   0  0  0  0  0  0  0  0  0  0  0  0
    9.5859    0.5636   19.7688 H   0  0  0  0  0  0  0  0  0  0  0  0
   10.5113    0.4220   21.2554 H   0  0  0  0  0  0  0  0  0  0  0  0
    8.1094    2.2720   20.7639 H   0  0  0  0  0  0  0  0  0  0  0  0
    9.7736    2.7373   21.0387 H   0  0  0  0  0  0  0  0  0  0  0  0
    7.5294    1.8902   23.5095 C   0  0  0  0  0  0  0  0  0  0  0  0
    7.7116    1.6401   24.8044 N   0  0  0  0  0  0  0  0  0  0  0  0
    6.5192    1.9948   23.1309 H   0  0  0  0  0  0  0  0  0  0  0  0
   10.7808    1.9583   23.7970 H   0  0  0  0  0  0  0  0  0  0  0  0
    9.6526    0.2268   26.3931 H   0  0  0  0  0  0  0  0  0  0  0  0
   10.6028    1.7228   26.3222 H   0  0  0  0  0  0  0  0  0  0  0  0
    8.9387    1.7470   27.0153 H   0  0  0  0  0  0  0  0  0  0  0  0
  1  2  1  0
  2  3  1  0
  3  4  2  0
  4  5  1  0
  5  6  1  0
  6  7  1  0
  7  8  2  0
  8  9  1  0
  9 10  1  0
 10 11  1  0
 11 12  1  0
 12 13  1  0
 13 14  1  0
 13 15  1  0
 13 16  1  0
 16 17  1  0
 17 18  1  0
 17 19  1  0
 16 20  1  0
 16 21  1  0
 12 22  1  0
 12 23  1  0
 11 24  1  0
 11 25  1  0
 10 26  1  0
  9 27  2  0
 27 28  1  0
 28 29  1  0
 29 30  2  0
 30 31  1  0
 31 32  2  0
 32 33  1  0
 33 34  2  0
 34 35  1  0
 32 36  1  0
 31 37  1  0
 30 38  1  0
  6 39  1  0
  6 40  1  0
  5 41  1  0
  5 42  1  0
  4 43  1  0
 43 44  2  0
 43 45  1  0
  3 46  1  0
  1 47  1  0
  1 48  1  0
  1 49  1  0
 44  2  1  0
 28  7  1  0
 34 29  1  0
 17 10  1  0
M  END
>  <cnnaffinity>  (1) 
-6.45312

>  <filename>  (1) 
Cn1cc(CCc2nc(C3CCC(F)(F)CC3)nn2-c2cccnc2)cn1

$$$$
