
     RDKit          3D

 46 49  0  0  0  0  0  0  0  0999 V2000
    7.6261    4.6079   27.5602 C   0  0  0  0  0  0  0  0  0  0  0  0
    7.4236    3.5257   26.6189 N   0  0  0  0  0  0  0  0  0  0  0  0
    8.1787    3.1686   25.5624 C   0  0  0  0  0  0  0  0  0  0  0  0
    7.4790    2.1699   24.8991 C   0  0  0  0  0  0  0  0  0  0  0  0
    7.7865    1.5113   23.6483 C   0  0  0  0  0  0  0  0  0  0  0  0
    7.1042    0.4850   23.1586 N   0  0  0  0  0  0  0  0  0  0  0  0
    7.7823    0.1834   22.0244 N   0  0  0  0  0  0  0  0  0  0  0  0
    7.2739   -0.7504   21.0206 C   0  0  0  0  0  0  0  0  0  0  0  0
    6.6034   -0.0383   19.8649 C   0  0  0  0  0  0  0  0  0  0  0  0
    5.4204    0.6667   20.1083 C   0  0  0  0  0  0  0  0  0  0  0  0
    4.8081    1.3343   19.0476 C   0  0  0  0  0  0  0  0  0  0  0  0
    5.4190    1.2942   17.7909 C   0  0  0  0  0  0  0  0  0  0  0  0
    6.5592    0.6343   17.5406 N   0  0  0  0  0  0  0  0  0  0  0  0
    7.1300   -0.0130   18.5649 C   0  0  0  0  0  0  0  0  0  0  0  0
    8.0588   -0.5414   18.3347 H   0  0  0  0  0  0  0  0  0  0  0  0
    4.9752    1.8129   16.9446 H   0  0  0  0  0  0  0  0  0  0  0  0
    3.8836    1.8841   19.1835 H   0  0  0  0  0  0  0  0  0  0  0  0
    5.0131    0.6907   21.1219 H   0  0  0  0  0  0  0  0  0  0  0  0
    8.1074   -1.3645   20.6598 H   0  0  0  0  0  0  0  0  0  0  0  0
    6.5755   -1.4067   21.5474 H   0  0  0  0  0  0  0  0  0  0  0  0
    8.8066    1.0490   21.8790 C   0  0  0  0  0  0  0  0  0  0  0  0
    9.8985    0.7674   20.8994 C   0  0  0  0  0  0  0  0  0  0  0  0
   10.7320   -0.4791   21.3387 C   0  0  0  0  0  0  0  0  0  0  0  0
   11.3747   -0.1827   22.6685 C   0  0  0  0  0  0  0  0  0  0  0  0
   12.3145    0.8453   22.7185 C   0  0  0  0  0  0  0  0  0  0  0  0
   12.6123    1.5627   21.6229 F   0  0  0  0  0  0  0  0  0  0  0  0
   12.9381    1.1860   23.9053 C   0  0  0  0  0  0  0  0  0  0  0  0
   13.8283    2.1744   23.8708 F   0  0  0  0  0  0  0  0  0  0  0  0
   12.5992    0.5507   25.0853 C   0  0  0  0  0  0  0  0  0  0  0  0
   11.4987   -0.3099   25.1002 C   0  0  0  0  0  0  0  0  0  0  0  0
   10.9080   -0.6883   23.8926 C   0  0  0  0  0  0  0  0  0  0  0  0
   10.0607   -1.3665   23.8836 H   0  0  0  0  0  0  0  0  0  0  0  0
   11.1109   -0.6591   26.0495 H   0  0  0  0  0  0  0  0  0  0  0  0
   13.2453    0.6958   25.9315 H   0  0  0  0  0  0  0  0  0  0  0  0
   10.1127   -1.3842   21.4168 H   0  0  0  0  0  0  0  0  0  0  0  0
   11.5047   -0.6999   20.5960 H   0  0  0  0  0  0  0  0  0  0  0  0
    9.4865    0.6319   19.8978 H   0  0  0  0  0  0  0  0  0  0  0  0
   10.5351    1.6521   20.8598 H   0  0  0  0  0  0  0  0  0  0  0  0
    8.8251    1.9162   22.8736 N   0  0  0  0  0  0  0  0  0  0  0  0
    6.3128    1.9880   25.6700 C   0  0  0  0  0  0  0  0  0  0  0  0
    6.2891    2.8177   26.6979 N   0  0  0  0  0  0  0  0  0  0  0  0
    5.4824    1.3126   25.5018 H   0  0  0  0  0  0  0  0  0  0  0  0
    9.1489    3.6127   25.3672 H   0  0  0  0  0  0  0  0  0  0  0  0
    6.8897    5.3969   27.3842 H   0  0  0  0  0  0  0  0  0  0  0  0
    8.6374    4.9998   27.4476 H   0  0  0  0  0  0  0  0  0  0  0  0
    7.4939    4.2231   28.5713 H   0  0  0  0  0  0  0  0  0  0  0  0
  1  2  1  0
  2  3  1  0
  3  4  2  0
  4  5  1  0
  5  6  2  0
  6  7  1  0
  7  8  1  0
  8  9  1  0
  9 10  2  0
 10 11  1  0
 11 12  2  0
 12 13  1  0
 13 14  2  0
 14 15  1  0
 12 16  1  0
 11 17  1  0
 10 18  1  0
  8 19  1  0
  8 20  1  0
  7 21  1  0
 21 22  1  0
 22 23  1  0
 23 24  1  0
 24 25  2  0
 25 26  1  0
 25 27  1  0
 27 28  1  0
 27 29  2  0
 29 30  1  0
 30 31  2  0
 31 32  1  0
 30 33  1  0
 29 34  1  0
 23 35  1  0
 23 36  1  0
 22 37  1  0
 22 38  1  0
 21 39  2  0
  4 40  1  0
 40 41  2  0
 40 42  1  0
  3 43  1  0
  1 44  1  0
  1 45  1  0
  1 46  1  0
 41  2  1  0
 39  5  1  0
 14  9  1  0
 31 24  1  0
M  END
>  <cnnaffinity>  (1) 
-5.93867

>  <filename>  (1) 
Cn1cc(-c2nc(CCc3cccc(F)c3F)n(Cc3cccnc3)n2)cn1

$$$$
