
     RDKit          3D

 41 42  0  0  0  0  0  0  0  0999 V2000
    4.9504    1.8082   17.0632 H   0  0  0  0  0  0  0  0  0  0  0  0
    5.4611    1.2800   17.8635 C   0  0  0  0  0  0  0  0  0  0  0  0
    6.6242    0.6775   17.5526 N   0  0  0  0  0  0  0  0  0  0  0  0
    7.2744    0.0572   18.5466 C   0  0  0  0  0  0  0  0  0  0  0  0
    8.2111   -0.4219   18.2644 H   0  0  0  0  0  0  0  0  0  0  0  0
    6.8335   -0.0259   19.8938 C   0  0  0  0  0  0  0  0  0  0  0  0
    7.6002   -0.6812   20.8827 N   0  0  0  0  0  0  0  0  0  0  0  0
    8.2729   -1.3116   20.4775 H   0  0  0  0  0  0  0  0  0  0  0  0
    7.0329   -1.2376   22.0995 C   0  0  0  0  0  0  0  0  0  0  0  0
    6.5041   -0.1954   22.9011 O   0  0  0  0  0  0  0  0  0  0  0  0
    7.3939    0.8356   23.3192 C   0  0  0  0  0  0  0  0  0  0  0  0
    8.3541    0.7593   22.7829 H   0  0  0  0  0  0  0  0  0  0  0  0
    7.6448    0.7365   24.8253 C   0  0  0  0  0  0  0  0  0  0  0  0
    6.6902    0.8274   25.3600 H   0  0  0  0  0  0  0  0  0  0  0  0
    8.0680   -0.2384   25.0876 H   0  0  0  0  0  0  0  0  0  0  0  0
    8.5779    1.8626   25.2724 C   0  0  0  0  0  0  0  0  0  0  0  0
    9.5928    1.6926   24.8500 H   0  0  0  0  0  0  0  0  0  0  0  0
    8.6927    1.8387   26.3639 H   0  0  0  0  0  0  0  0  0  0  0  0
    8.0249    3.1685   24.9058 N   0  0  0  0  0  0  0  0  0  0  0  0
    8.8086    4.2739   25.4313 C   0  0  0  0  0  0  0  0  0  0  0  0
    8.9002    4.1828   26.5196 H   0  0  0  0  0  0  0  0  0  0  0  0
    9.8326    4.3469   25.0124 H   0  0  0  0  0  0  0  0  0  0  0  0
    8.3000    5.2238   25.2312 H   0  0  0  0  0  0  0  0  0  0  0  0
    7.7421    3.3054   23.4744 C   0  0  0  0  0  0  0  0  0  0  0  0
    8.6636    3.2904   22.8518 H   0  0  0  0  0  0  0  0  0  0  0  0
    7.2800    4.2864   23.3096 H   0  0  0  0  0  0  0  0  0  0  0  0
    6.7965    2.2024   22.9934 C   0  0  0  0  0  0  0  0  0  0  0  0
    5.8228    2.3106   23.4887 H   0  0  0  0  0  0  0  0  0  0  0  0
    6.6288    2.2888   21.9137 H   0  0  0  0  0  0  0  0  0  0  0  0
    8.1534   -1.9772   22.8296 C   0  0  0  0  0  0  0  0  0  0  0  0
    7.7929   -2.3515   23.7919 H   0  0  0  0  0  0  0  0  0  0  0  0
    9.0082   -1.3168   23.0046 H   0  0  0  0  0  0  0  0  0  0  0  0
    8.4910   -2.8339   22.2376 H   0  0  0  0  0  0  0  0  0  0  0  0
    5.8918   -2.1914   21.7716 C   0  0  0  0  0  0  0  0  0  0  0  0
    5.4718   -2.6330   22.6771 H   0  0  0  0  0  0  0  0  0  0  0  0
    6.2508   -2.9975   21.1256 H   0  0  0  0  0  0  0  0  0  0  0  0
    5.1047   -1.6679   21.2327 H   0  0  0  0  0  0  0  0  0  0  0  0
    5.6120    0.5966   20.1815 C   0  0  0  0  0  0  0  0  0  0  0  0
    5.2422    0.5788   21.2034 H   0  0  0  0  0  0  0  0  0  0  0  0
    4.9234    1.2497   19.1544 C   0  0  0  0  0  0  0  0  0  0  0  0
    3.9762    1.7339   19.3458 H   0  0  0  0  0  0  0  0  0  0  0  0
  1  2  1  0
  2  3  2  0
  3  4  1  0
  4  5  1  0
  4  6  2  0
  6  7  1  0
  7  8  1  0
  7  9  1  0
  9 10  1  0
 10 11  1  0
 11 12  1  0
 11 13  1  0
 13 14  1  0
 13 15  1  0
 13 16  1  0
 16 17  1  0
 16 18  1  0
 16 19  1  0
 19 20  1  0
 20 21  1  0
 20 22  1  0
 20 23  1  0
 19 24  1  0
 24 25  1  0
 24 26  1  0
 24 27  1  0
 27 28  1  0
 27 29  1  0
  9 30  1  0
 30 31  1  0
 30 32  1  0
 30 33  1  0
  9 34  1  0
 34 35  1  0
 34 36  1  0
 34 37  1  0
  6 38  1  0
 38 39  1  0
 38 40  2  0
 40 41  1  0
 40  2  1  0
 27 11  1  0
M  END
>  <cnnaffinity>  (1) 
-4.36076

>  <filename>  (1) 
CN1CCC(OC(C)(C)Nc2cccnc2)CC1

$$$$
