
     RDKit          3D

 44 47  0  0  0  0  0  0  0  0999 V2000
    8.8771    2.3257   25.0165 C   0  0  0  0  0  0  0  0  0  0  0  0
    8.2619    2.7967   23.7878 N   0  0  0  0  0  0  0  0  0  0  0  0
    8.3775    4.0998   23.3900 C   0  0  0  0  0  0  0  0  0  0  0  0
    8.9016    4.9962   24.0232 O   0  0  0  0  0  0  0  0  0  0  0  0
    7.7040    4.2267   22.0424 C   0  0  0  0  0  0  0  0  0  0  0  0
    7.4038    2.7969   21.5746 C   0  0  0  0  0  0  0  0  0  0  0  0
    7.8098    1.8669   22.7548 C   0  0  1  0  0  0  0  0  0  0  0  0
    8.8357    0.8019   22.3881 C   0  0  0  0  0  0  0  0  0  0  0  0
   10.1285    0.7776   22.6758 N   0  0  0  0  0  0  0  0  0  0  0  0
   10.5943   -0.3035   22.0083 C   0  0  0  0  0  0  0  0  0  0  0  0
   12.0424   -0.6202   21.8459 C   0  0  0  0  0  0  0  0  0  0  0  0
   12.3899   -1.6721   20.9907 C   0  0  0  0  0  0  0  0  0  0  0  0
   13.6580   -1.7965   20.4100 C   0  0  0  0  0  0  0  0  0  0  0  0
   14.6047   -0.8285   20.7202 C   0  0  0  0  0  0  0  0  0  0  0  0
   16.0279   -0.3624   19.6439 Cl  0  0  0  0  0  0  0  0  0  0  0  0
   14.3674    0.0578   21.7970 C   0  0  0  0  0  0  0  0  0  0  0  0
   13.0900    0.1809   22.3414 C   0  0  0  0  0  0  0  0  0  0  0  0
   12.9213    0.9466   23.0943 H   0  0  0  0  0  0  0  0  0  0  0  0
   15.1479    0.7344   22.1282 H   0  0  0  0  0  0  0  0  0  0  0  0
   13.8687   -2.6405   19.7710 H   0  0  0  0  0  0  0  0  0  0  0  0
   11.5786   -2.3362   20.7495 H   0  0  0  0  0  0  0  0  0  0  0  0
    9.6423   -0.9688   21.3600 N   0  0  0  0  0  0  0  0  0  0  0  0
    8.5223   -0.2536   21.5959 N   0  0  0  0  0  0  0  0  0  0  0  0
    7.2365   -0.7399   21.0833 C   0  0  0  0  0  0  0  0  0  0  0  0
    6.5868    0.0504   19.9532 C   0  0  0  0  0  0  0  0  0  0  0  0
    5.3243    0.6469   20.0870 C   0  0  0  0  0  0  0  0  0  0  0  0
    4.7587    1.3082   18.9901 C   0  0  0  0  0  0  0  0  0  0  0  0
    5.4611    1.3238   17.7829 C   0  0  0  0  0  0  0  0  0  0  0  0
    6.6579    0.7375   17.6227 N   0  0  0  0  0  0  0  0  0  0  0  0
    7.1967    0.1297   18.6894 C   0  0  0  0  0  0  0  0  0  0  0  0
    8.1606   -0.3477   18.5176 H   0  0  0  0  0  0  0  0  0  0  0  0
    5.0454    1.8251   16.9096 H   0  0  0  0  0  0  0  0  0  0  0  0
    3.8017    1.8159   19.0585 H   0  0  0  0  0  0  0  0  0  0  0  0
    4.7915    0.6196   21.0406 H   0  0  0  0  0  0  0  0  0  0  0  0
    6.5292   -0.8124   21.9174 H   0  0  0  0  0  0  0  0  0  0  0  0
    7.4369   -1.7616   20.7482 H   0  0  0  0  0  0  0  0  0  0  0  0
    6.9249    1.3338   23.1267 H   0  0  0  0  0  0  0  0  0  0  0  0
    6.3388    2.6888   21.3435 H   0  0  0  0  0  0  0  0  0  0  0  0
    7.9630    2.5137   20.6776 H   0  0  0  0  0  0  0  0  0  0  0  0
    8.3513    4.8002   21.3800 H   0  0  0  0  0  0  0  0  0  0  0  0
    6.7988    4.8234   22.1915 H   0  0  0  0  0  0  0  0  0  0  0  0
    8.4406    2.8360   25.8811 H   0  0  0  0  0  0  0  0  0  0  0  0
    9.9626    2.4836   24.9949 H   0  0  0  0  0  0  0  0  0  0  0  0
    8.6908    1.2507   25.0945 H   0  0  0  0  0  0  0  0  0  0  0  0
  1  2  1  0
  2  3  1  0
  3  4  2  0
  3  5  1  0
  5  6  1  0
  6  7  1  0
  7  8  1  0
  8  9  2  0
  9 10  1  0
 10 11  1  0
 11 12  2  0
 12 13  1  0
 13 14  2  0
 14 15  1  0
 14 16  1  0
 16 17  2  0
 17 18  1  0
 16 19  1  0
 13 20  1  0
 12 21  1  0
 10 22  2  0
 22 23  1  0
 23 24  1  0
 24 25  1  0
 25 26  2  0
 26 27  1  0
 27 28  2  0
 28 29  1  0
 29 30  2  0
 30 31  1  0
 28 32  1  0
 27 33  1  0
 26 34  1  0
 24 35  1  0
 24 36  1  0
  7 37  1  1
  6 38  1  0
  6 39  1  0
  5 40  1  0
  5 41  1  0
  1 42  1  0
  1 43  1  0
  1 44  1  0
  7  2  1  0
 23  8  1  0
 30 25  1  0
 17 11  1  0
M  END
>  <cnnaffinity>  (1) 
-6.31854

>  <filename>  (1) 
CN1C(=O)CC[C@H]1c1nc(-c2ccc(Cl)cc2)nn1Cc1cccnc1

$$$$
