
     RDKit          3D

 27 28  0  0  0  0  0  0  0  0999 V2000
    4.9713    1.7725   17.0139 H   0  0  0  0  0  0  0  0  0  0  0  0
    5.4294    1.2685   17.8589 C   0  0  0  0  0  0  0  0  0  0  0  0
    6.5952    0.6467   17.6100 N   0  0  0  0  0  0  0  0  0  0  0  0
    7.1969    0.0296   18.6352 C   0  0  0  0  0  0  0  0  0  0  0  0
    8.1439   -0.4655   18.4252 H   0  0  0  0  0  0  0  0  0  0  0  0
    6.6668    0.0133   19.9418 C   0  0  0  0  0  0  0  0  0  0  0  0
    7.3580   -0.7151   20.9171 O   0  0  0  0  0  0  0  0  0  0  0  0
    7.3678   -0.3267   22.2253 C   0  0  0  0  0  0  0  0  0  0  0  0
    7.0140    0.7481   22.6323 O   0  0  0  0  0  0  0  0  0  0  0  0
    7.9303   -1.3947   23.1190 C   0  0  0  0  0  0  0  0  0  0  0  0
    7.4830   -1.2329   24.1021 H   0  0  0  0  0  0  0  0  0  0  0  0
    7.6965   -2.3881   22.7361 H   0  0  0  0  0  0  0  0  0  0  0  0
    9.3962   -1.1851   23.1909 C   0  0  0  0  0  0  0  0  0  0  0  0
   10.1955   -1.8075   22.3455 N   0  0  0  0  0  0  0  0  0  0  0  0
   11.4240   -1.3538   22.6246 N   0  0  0  0  0  0  0  0  0  0  0  0
   12.5507   -1.8906   21.8953 C   0  0  0  0  0  0  0  0  0  0  0  0
   12.8668   -2.8437   22.3357 H   0  0  0  0  0  0  0  0  0  0  0  0
   13.3850   -1.1891   21.9463 H   0  0  0  0  0  0  0  0  0  0  0  0
   12.2360   -2.0173   20.8566 H   0  0  0  0  0  0  0  0  0  0  0  0
   11.4258   -0.4481   23.6299 C   0  0  0  0  0  0  0  0  0  0  0  0
   12.3625   -0.0514   24.0093 H   0  0  0  0  0  0  0  0  0  0  0  0
   10.1156   -0.3141   24.0342 C   0  0  0  0  0  0  0  0  0  0  0  0
    9.7109    0.2842   24.8389 H   0  0  0  0  0  0  0  0  0  0  0  0
    5.4485    0.6506   20.1922 C   0  0  0  0  0  0  0  0  0  0  0  0
    5.0207    0.6542   21.1925 H   0  0  0  0  0  0  0  0  0  0  0  0
    4.8199    1.2884   19.1164 C   0  0  0  0  0  0  0  0  0  0  0  0
    3.8811    1.8172   19.2557 H   0  0  0  0  0  0  0  0  0  0  0  0
  1  2  1  0
  2  3  2  0
  3  4  1  0
  4  5  1  0
  4  6  2  0
  6  7  1  0
  7  8  1  0
  8  9  2  0
  8 10  1  0
 10 11  1  0
 10 12  1  0
 10 13  1  0
 13 14  2  0
 14 15  1  0
 15 16  1  0
 16 17  1  0
 16 18  1  0
 16 19  1  0
 15 20  1  0
 20 21  1  0
 20 22  2  0
 22 23  1  0
  6 24  1  0
 24 25  1  0
 24 26  2  0
 26 27  1  0
 26  2  1  0
 22 13  1  0
M  END
>  <cnnaffinity>  (1) 
-4.54568

>  <filename>  (1) 
Cn1ccc(CC(=O)Oc2cccnc2)n1

$$$$
