
     RDKit          3D

 49 52  0  0  0  0  0  0  0  0999 V2000
    7.4335    1.4534   26.1539 C   0  0  0  0  0  0  0  0  0  0  0  0
    8.3516    1.6993   25.0640 N   0  0  0  0  0  0  0  0  0  0  0  0
    9.6880    1.8697   25.1804 C   0  0  0  0  0  0  0  0  0  0  0  0
   10.1669    2.0695   23.9073 C   0  0  0  0  0  0  0  0  0  0  0  0
    9.0285    2.0086   23.0722 C   0  0  0  0  0  0  0  0  0  0  0  0
    9.0404    1.9962   21.5640 C   0  0  0  0  0  0  0  0  0  0  0  0
    9.4974    0.6233   20.9675 C   0  0  0  0  0  0  0  0  0  0  0  0
    8.6292   -0.5178   21.3945 C   0  0  0  0  0  0  0  0  0  0  0  0
    8.8625   -1.3509   22.3880 N   0  0  0  0  0  0  0  0  0  0  0  0
    7.6570   -1.9578   22.5715 C   0  0  0  0  0  0  0  0  0  0  0  0
    7.4094   -2.8789   23.7250 C   0  0  0  0  0  0  0  0  0  0  0  0
    8.4721   -4.0147   23.7872 C   0  0  0  0  0  0  0  0  0  0  0  0
    8.6677   -4.5919   25.2093 C   0  0  0  0  0  0  0  0  0  0  0  0
    7.4170   -4.4631   26.0623 C   0  0  0  0  0  0  0  0  0  0  0  0
    6.4119   -5.1990   25.4781 F   0  0  0  0  0  0  0  0  0  0  0  0
    7.6311   -5.0347   27.2882 F   0  0  0  0  0  0  0  0  0  0  0  0
    6.9432   -3.0153   26.2408 C   0  0  0  0  0  0  0  0  0  0  0  0
    7.3319   -2.0947   25.0612 C   0  0  0  0  0  0  0  0  0  0  0  0
    8.3157   -1.6385   25.2462 H   0  0  0  0  0  0  0  0  0  0  0  0
    6.6188   -1.2629   24.9794 H   0  0  0  0  0  0  0  0  0  0  0  0
    5.8589   -3.0606   26.3809 H   0  0  0  0  0  0  0  0  0  0  0  0
    7.3728   -2.6405   27.1757 H   0  0  0  0  0  0  0  0  0  0  0  0
    8.9617   -5.6436   25.1853 H   0  0  0  0  0  0  0  0  0  0  0  0
    9.4576   -4.0543   25.7450 H   0  0  0  0  0  0  0  0  0  0  0  0
    9.4379   -3.6467   23.4211 H   0  0  0  0  0  0  0  0  0  0  0  0
    8.1612   -4.8116   23.1007 H   0  0  0  0  0  0  0  0  0  0  0  0
    6.4283   -3.3199   23.5335 H   0  0  0  0  0  0  0  0  0  0  0  0
    6.7216   -1.5966   21.7184 N   0  0  0  0  0  0  0  0  0  0  0  0
    7.3538   -0.6834   20.9322 N   0  0  0  0  0  0  0  0  0  0  0  0
    6.6524   -0.0021   19.8975 C   0  0  0  0  0  0  0  0  0  0  0  0
    5.4371    0.6403   20.1634 C   0  0  0  0  0  0  0  0  0  0  0  0
    4.8136    1.3097   19.1065 C   0  0  0  0  0  0  0  0  0  0  0  0
    5.3994    1.2972   17.8339 C   0  0  0  0  0  0  0  0  0  0  0  0
    6.5558    0.6694   17.5709 N   0  0  0  0  0  0  0  0  0  0  0  0
    7.1622    0.0461   18.5874 C   0  0  0  0  0  0  0  0  0  0  0  0
    8.1092   -0.4356   18.3612 H   0  0  0  0  0  0  0  0  0  0  0  0
    4.9237    1.7904   16.9897 H   0  0  0  0  0  0  0  0  0  0  0  0
    3.8825    1.8391   19.2570 H   0  0  0  0  0  0  0  0  0  0  0  0
    5.0169    0.6063   21.1734 H   0  0  0  0  0  0  0  0  0  0  0  0
    9.5235    0.6871   19.8778 H   0  0  0  0  0  0  0  0  0  0  0  0
   10.5193    0.3938   21.2828 H   0  0  0  0  0  0  0  0  0  0  0  0
    9.7281    2.7758   21.2197 H   0  0  0  0  0  0  0  0  0  0  0  0
    8.0465    2.2596   21.1840 H   0  0  0  0  0  0  0  0  0  0  0  0
    7.9321    1.8021   23.7945 N   0  0  0  0  0  0  0  0  0  0  0  0
   11.1859    2.2287   23.5902 H   0  0  0  0  0  0  0  0  0  0  0  0
   10.1661    1.8566   26.1528 H   0  0  0  0  0  0  0  0  0  0  0  0
    7.7569    0.5914   26.7474 H   0  0  0  0  0  0  0  0  0  0  0  0
    6.4425    1.2627   25.7427 H   0  0  0  0  0  0  0  0  0  0  0  0
    7.3892    2.3212   26.8156 H   0  0  0  0  0  0  0  0  0  0  0  0
  1  2  1  0
  2  3  1  0
  3  4  2  0
  4  5  1  0
  5  6  1  0
  6  7  1  0
  7  8  1  0
  8  9  2  0
  9 10  1  0
 10 11  1  0
 11 12  1  0
 12 13  1  0
 13 14  1  0
 14 15  1  0
 14 16  1  0
 14 17  1  0
 17 18  1  0
 18 19  1  0
 18 20  1  0
 17 21  1  0
 17 22  1  0
 13 23  1  0
 13 24  1  0
 12 25  1  0
 12 26  1  0
 11 27  1  0
 10 28  2  0
 28 29  1  0
 29 30  1  0
 30 31  2  0
 31 32  1  0
 32 33  2  0
 33 34  1  0
 34 35  2  0
 35 36  1  0
 33 37  1  0
 32 38  1  0
 31 39  1  0
  7 40  1  0
  7 41  1  0
  6 42  1  0
  6 43  1  0
  5 44  2  0
  4 45  1  0
  3 46  1  0
  1 47  1  0
  1 48  1  0
  1 49  1  0
 44  2  1  0
 29  8  1  0
 35 30  1  0
 18 11  1  0
M  END
>  <cnnaffinity>  (1) 
-6.21033

>  <filename>  (1) 
Cn1ccc(CCc2nc(C3CCC(F)(F)CC3)nn2-c2cccnc2)n1

$$$$
