
     RDKit          3D

 43 46  0  0  0  0  0  0  0  0999 V2000
   12.2781   -1.2990   21.3131 C   0  0  0  0  0  0  0  0  0  0  0  0
   11.8507   -0.0476   21.9157 N   0  0  0  0  0  0  0  0  0  0  0  0
   12.4934    0.6599   22.9157 C   0  0  0  0  0  0  0  0  0  0  0  0
   11.7113    1.7506   23.1576 C   0  0  0  0  0  0  0  0  0  0  0  0
   10.6043    1.7393   22.3447 N   0  0  0  0  0  0  0  0  0  0  0  0
   10.7183    0.6545   21.6206 C   0  0  0  0  0  0  0  0  0  0  0  0
    9.6688    0.2147   20.6612 C   0  0  0  0  0  0  0  0  0  0  0  0
    8.6435   -0.6116   21.3339 C   0  0  0  0  0  0  0  0  0  0  0  0
    8.8700   -1.4416   22.3217 N   0  0  0  0  0  0  0  0  0  0  0  0
    7.6371   -1.9553   22.5775 C   0  0  0  0  0  0  0  0  0  0  0  0
    7.3813   -2.9108   23.7087 C   0  0  0  0  0  0  0  0  0  0  0  0
    6.2557   -3.9235   23.4244 C   0  0  0  0  0  0  0  0  0  0  0  0
    6.5172   -5.1135   24.3631 C   0  0  0  0  0  0  0  0  0  0  0  0
    7.9999   -5.0191   24.7999 C   0  0  0  0  0  0  0  0  0  0  0  0
    8.5914   -3.7820   24.1003 C   0  0  0  0  0  0  0  0  0  0  0  0
    9.1388   -4.0735   23.1978 H   0  0  0  0  0  0  0  0  0  0  0  0
    9.3008   -3.2439   24.7380 H   0  0  0  0  0  0  0  0  0  0  0  0
    8.0684   -4.9235   25.8894 H   0  0  0  0  0  0  0  0  0  0  0  0
    8.5598   -5.9235   24.5419 H   0  0  0  0  0  0  0  0  0  0  0  0
    6.2984   -6.0613   23.8615 H   0  0  0  0  0  0  0  0  0  0  0  0
    5.8589   -5.0723   25.2378 H   0  0  0  0  0  0  0  0  0  0  0  0
    6.3130   -4.2361   22.3766 H   0  0  0  0  0  0  0  0  0  0  0  0
    5.2645   -3.4819   23.5675 H   0  0  0  0  0  0  0  0  0  0  0  0
    7.1005   -2.2928   24.5729 H   0  0  0  0  0  0  0  0  0  0  0  0
    6.6859   -1.5253   21.7652 N   0  0  0  0  0  0  0  0  0  0  0  0
    7.3432   -0.6837   20.9312 N   0  0  0  0  0  0  0  0  0  0  0  0
    6.6504    0.0008   19.8995 C   0  0  0  0  0  0  0  0  0  0  0  0
    5.4357    0.6426   20.1673 C   0  0  0  0  0  0  0  0  0  0  0  0
    4.8127    1.3096   19.1099 C   0  0  0  0  0  0  0  0  0  0  0  0
    5.4014    1.2950   17.8382 C   0  0  0  0  0  0  0  0  0  0  0  0
    6.5603    0.6721   17.5769 N   0  0  0  0  0  0  0  0  0  0  0  0
    7.1655    0.0511   18.5927 C   0  0  0  0  0  0  0  0  0  0  0  0
    8.1137   -0.4285   18.3670 H   0  0  0  0  0  0  0  0  0  0  0  0
    4.9208    1.7843   16.9943 H   0  0  0  0  0  0  0  0  0  0  0  0
    3.8813    1.8397   19.2615 H   0  0  0  0  0  0  0  0  0  0  0  0
    5.0146    0.6123   21.1751 H   0  0  0  0  0  0  0  0  0  0  0  0
   10.0555   -0.4122   19.8528 H   0  0  0  0  0  0  0  0  0  0  0  0
    9.2076    1.1074   20.2381 H   0  0  0  0  0  0  0  0  0  0  0  0
   11.8864    2.5445   23.8739 H   0  0  0  0  0  0  0  0  0  0  0  0
   13.4322    0.3294   23.3380 H   0  0  0  0  0  0  0  0  0  0  0  0
   13.1266   -1.6830   21.8772 H   0  0  0  0  0  0  0  0  0  0  0  0
   11.4687   -2.0333   21.3355 H   0  0  0  0  0  0  0  0  0  0  0  0
   12.5984   -1.1836   20.2738 H   0  0  0  0  0  0  0  0  0  0  0  0
  1  2  1  0
  2  3  1  0
  3  4  2  0
  4  5  1  0
  5  6  2  0
  6  7  1  0
  7  8  1  0
  8  9  2  0
  9 10  1  0
 10 11  1  0
 11 12  1  0
 12 13  1  0
 13 14  1  0
 14 15  1  0
 15 16  1  0
 15 17  1  0
 14 18  1  0
 14 19  1  0
 13 20  1  0
 13 21  1  0
 12 22  1  0
 12 23  1  0
 11 24  1  0
 10 25  2  0
 25 26  1  0
 26 27  1  0
 27 28  2  0
 28 29  1  0
 29 30  2  0
 30 31  1  0
 31 32  2  0
 32 33  1  0
 30 34  1  0
 29 35  1  0
 28 36  1  0
  7 37  1  0
  7 38  1  0
  4 39  1  0
  3 40  1  0
  1 41  1  0
  1 42  1  0
  1 43  1  0
  6  2  1  0
 26  8  1  0
 32 27  1  0
 15 11  1  0
M  END
>  <cnnaffinity>  (1) 
-6.30754

>  <filename>  (1) 
Cn1ccnc1Cc1nc(C2CCCC2)nn1-c1cccnc1

$$$$
