
     RDKit          3D

 46 49  0  0  0  0  0  0  0  0999 V2000
   13.3880    1.4233   22.5812 C   0  0  0  0  0  0  0  0  0  0  0  0
   12.4811    0.6839   23.4413 N   0  0  0  0  0  0  0  0  0  0  0  0
   12.5053    0.6354   24.8047 C   0  0  0  0  0  0  0  0  0  0  0  0
   11.5824   -0.1466   25.3047 N   0  0  0  0  0  0  0  0  0  0  0  0
   10.9077   -0.6206   24.2068 C   0  0  0  0  0  0  0  0  0  0  0  0
   11.4367   -0.1258   23.0353 C   0  0  0  0  0  0  0  0  0  0  0  0
   10.9660   -0.2880   21.6156 C   0  0  0  0  0  0  0  0  0  0  0  0
   10.0805    0.8768   21.0774 C   0  0  0  0  0  0  0  0  0  0  0  0
    8.8865    1.1156   21.9451 C   0  0  0  0  0  0  0  0  0  0  0  0
    8.8193    1.9924   22.9231 N   0  0  0  0  0  0  0  0  0  0  0  0
    7.7530    1.5667   23.6571 C   0  0  0  0  0  0  0  0  0  0  0  0
    7.3714    2.2211   24.9411 C   0  0  0  0  0  0  0  0  0  0  0  0
    6.1761    1.8692   25.6051 C   0  0  0  0  0  0  0  0  0  0  0  0
    5.8475    2.5238   26.7871 C   0  0  0  0  0  0  0  0  0  0  0  0
    4.7156    2.1852   27.4218 F   0  0  0  0  0  0  0  0  0  0  0  0
    6.6502    3.5182   27.3408 C   0  0  0  0  0  0  0  0  0  0  0  0
    7.8323    3.8367   26.6779 C   0  0  0  0  0  0  0  0  0  0  0  0
    8.6139    4.8050   27.1772 F   0  0  0  0  0  0  0  0  0  0  0  0
    8.2183    3.2016   25.5044 C   0  0  0  0  0  0  0  0  0  0  0  0
    9.1582    3.4789   25.0356 H   0  0  0  0  0  0  0  0  0  0  0  0
    6.3717    4.0177   28.2569 H   0  0  0  0  0  0  0  0  0  0  0  0
    5.5176    1.0969   25.2181 H   0  0  0  0  0  0  0  0  0  0  0  0
    7.1286    0.5205   23.1369 N   0  0  0  0  0  0  0  0  0  0  0  0
    7.8564    0.2400   22.0299 N   0  0  0  0  0  0  0  0  0  0  0  0
    7.3543   -0.6968   21.0264 C   0  0  0  0  0  0  0  0  0  0  0  0
    6.6560   -0.0078   19.8747 C   0  0  0  0  0  0  0  0  0  0  0  0
    5.4519    0.6651   20.1166 C   0  0  0  0  0  0  0  0  0  0  0  0
    4.8271    1.3197   19.0556 C   0  0  0  0  0  0  0  0  0  0  0  0
    5.4354    1.2883   17.7974 C   0  0  0  0  0  0  0  0  0  0  0  0
    6.5852    0.6421   17.5449 N   0  0  0  0  0  0  0  0  0  0  0  0
    7.1681    0.0107   18.5720 C   0  0  0  0  0  0  0  0  0  0  0  0
    8.0870   -0.5340   18.3395 H   0  0  0  0  0  0  0  0  0  0  0  0
    4.9786    1.8004   16.9533 H   0  0  0  0  0  0  0  0  0  0  0  0
    3.8936    1.8537   19.1965 H   0  0  0  0  0  0  0  0  0  0  0  0
    5.0264    0.6670   21.1209 H   0  0  0  0  0  0  0  0  0  0  0  0
    6.6497   -1.3456   21.5565 H   0  0  0  0  0  0  0  0  0  0  0  0
    8.1903   -1.3085   20.6661 H   0  0  0  0  0  0  0  0  0  0  0  0
   10.6525    1.8091   21.0157 H   0  0  0  0  0  0  0  0  0  0  0  0
    9.7299    0.6377   20.0699 H   0  0  0  0  0  0  0  0  0  0  0  0
   11.8206   -0.4481   20.9456 H   0  0  0  0  0  0  0  0  0  0  0  0
   10.3679   -1.2052   21.5657 H   0  0  0  0  0  0  0  0  0  0  0  0
   10.0822   -1.3145   24.3006 H   0  0  0  0  0  0  0  0  0  0  0  0
   13.2196    1.2224   25.3633 H   0  0  0  0  0  0  0  0  0  0  0  0
   12.8065    1.9928   21.8444 H   0  0  0  0  0  0  0  0  0  0  0  0
   13.9640    2.1337   23.1750 H   0  0  0  0  0  0  0  0  0  0  0  0
   14.0748    0.7440   22.0525 H   0  0  0  0  0  0  0  0  0  0  0  0
  1  2  1  0
  2  3  1  0
  3  4  2  0
  4  5  1  0
  5  6  2  0
  6  7  1  0
  7  8  1  0
  8  9  1  0
  9 10  2  0
 10 11  1  0
 11 12  1  0
 12 13  2  0
 13 14  1  0
 14 15  1  0
 14 16  2  0
 16 17  1  0
 17 18  1  0
 17 19  2  0
 19 20  1  0
 16 21  1  0
 13 22  1  0
 11 23  2  0
 23 24  1  0
 24 25  1  0
 25 26  1  0
 26 27  2  0
 27 28  1  0
 28 29  2  0
 29 30  1  0
 30 31  2  0
 31 32  1  0
 29 33  1  0
 28 34  1  0
 27 35  1  0
 25 36  1  0
 25 37  1  0
  8 38  1  0
  8 39  1  0
  7 40  1  0
  7 41  1  0
  5 42  1  0
  3 43  1  0
  1 44  1  0
  1 45  1  0
  1 46  1  0
  6  2  1  0
 24  9  1  0
 31 26  1  0
 19 12  1  0
M  END
>  <cnnaffinity>  (1) 
-5.62007

>  <filename>  (1) 
Cn1cncc1CCc1nc(-c2cc(F)cc(F)c2)nn1Cc1cccnc1

$$$$
