
     RDKit          3D

 43 46  0  0  0  0  0  0  0  0999 V2000
    9.7396    2.1423   21.2719 C   0  0  0  0  0  0  0  0  0  0  0  0
    9.8273    2.1472   22.7138 N   0  0  0  0  0  0  0  0  0  0  0  0
   10.8859    2.5161   23.4990 C   0  0  0  0  0  0  0  0  0  0  0  0
   10.6381    2.3300   24.7714 N   0  0  0  0  0  0  0  0  0  0  0  0
    9.3648    1.8230   24.8171 C   0  0  0  0  0  0  0  0  0  0  0  0
    8.8308    1.7203   23.5565 C   0  0  0  0  0  0  0  0  0  0  0  0
    7.4981    1.1994   23.0703 C   0  0  0  0  0  0  0  0  0  0  0  0
    7.5875   -0.1378   22.3914 C   0  0  0  0  0  0  0  0  0  0  0  0
    8.0456   -1.1820   23.0529 N   0  0  0  0  0  0  0  0  0  0  0  0
    8.0657   -2.1690   22.1265 C   0  0  0  0  0  0  0  0  0  0  0  0
    8.5901   -3.5405   22.4464 C   0  0  0  0  0  0  0  0  0  0  0  0
    7.8326   -4.7064   21.7805 C   0  0  0  0  0  0  0  0  0  0  0  0
    8.2171   -5.9425   22.6082 C   0  0  0  0  0  0  0  0  0  0  0  0
    8.5174   -5.4397   24.0403 C   0  0  0  0  0  0  0  0  0  0  0  0
    8.5880   -3.8973   23.9539 C   0  0  0  0  0  0  0  0  0  0  0  0
    7.7185   -3.4410   24.4419 H   0  0  0  0  0  0  0  0  0  0  0  0
    9.4778   -3.4945   24.4498 H   0  0  0  0  0  0  0  0  0  0  0  0
    9.4640   -5.8661   24.3989 H   0  0  0  0  0  0  0  0  0  0  0  0
    7.7300   -5.7510   24.7410 H   0  0  0  0  0  0  0  0  0  0  0  0
    9.1054   -6.4209   22.1811 H   0  0  0  0  0  0  0  0  0  0  0  0
    7.4305   -6.7024   22.5952 H   0  0  0  0  0  0  0  0  0  0  0  0
    8.0780   -4.8200   20.7187 H   0  0  0  0  0  0  0  0  0  0  0  0
    6.7540   -4.5082   21.8558 H   0  0  0  0  0  0  0  0  0  0  0  0
    9.6300   -3.5064   22.1038 H   0  0  0  0  0  0  0  0  0  0  0  0
    7.6452   -1.8063   20.9272 N   0  0  0  0  0  0  0  0  0  0  0  0
    7.2724   -0.5058   21.1114 N   0  0  0  0  0  0  0  0  0  0  0  0
    6.6226    0.1562   20.0279 C   0  0  0  0  0  0  0  0  0  0  0  0
    5.4119    0.8443   20.1823 C   0  0  0  0  0  0  0  0  0  0  0  0
    4.8293    1.4148   19.0429 C   0  0  0  0  0  0  0  0  0  0  0  0
    5.4737    1.3004   17.8087 C   0  0  0  0  0  0  0  0  0  0  0  0
    6.6216    0.6187   17.6512 N   0  0  0  0  0  0  0  0  0  0  0  0
    7.1610    0.0456   18.7313 C   0  0  0  0  0  0  0  0  0  0  0  0
    8.0522   -0.5522   18.5643 H   0  0  0  0  0  0  0  0  0  0  0  0
    5.0624    1.7701   16.9147 H   0  0  0  0  0  0  0  0  0  0  0  0
    3.8928    1.9551   19.1084 H   0  0  0  0  0  0  0  0  0  0  0  0
    4.9240    0.8959   21.1552 H   0  0  0  0  0  0  0  0  0  0  0  0
    6.9712    1.9306   22.4520 H   0  0  0  0  0  0  0  0  0  0  0  0
    6.8983    1.0460   23.9691 H   0  0  0  0  0  0  0  0  0  0  0  0
    8.8831    1.5460   25.7465 H   0  0  0  0  0  0  0  0  0  0  0  0
   11.7995    2.9375   23.0849 H   0  0  0  0  0  0  0  0  0  0  0  0
   10.6657    2.5166   20.8405 H   0  0  0  0  0  0  0  0  0  0  0  0
    8.9157    2.7850   20.9575 H   0  0  0  0  0  0  0  0  0  0  0  0
    9.5713    1.1293   20.8963 H   0  0  0  0  0  0  0  0  0  0  0  0
  1  2  1  0
  2  3  1  0
  3  4  2  0
  4  5  1  0
  5  6  2  0
  6  7  1  0
  7  8  1  0
  8  9  2  0
  9 10  1  0
 10 11  1  0
 11 12  1  0
 12 13  1  0
 13 14  1  0
 14 15  1  0
 15 16  1  0
 15 17  1  0
 14 18  1  0
 14 19  1  0
 13 20  1  0
 13 21  1  0
 12 22  1  0
 12 23  1  0
 11 24  1  0
 10 25  2  0
 25 26  1  0
 26 27  1  0
 27 28  2  0
 28 29  1  0
 29 30  2  0
 30 31  1  0
 31 32  2  0
 32 33  1  0
 30 34  1  0
 29 35  1  0
 28 36  1  0
  7 37  1  0
  7 38  1  0
  5 39  1  0
  3 40  1  0
  1 41  1  0
  1 42  1  0
  1 43  1  0
  6  2  1  0
 26  8  1  0
 32 27  1  0
 15 11  1  0
M  END
>  <cnnaffinity>  (1) 
-6.18982

>  <filename>  (1) 
Cn1cncc1Cc1nc(C2CCCC2)nn1-c1cccnc1

$$$$
