
     RDKit          3D

 46 49  0  0  0  0  0  0  0  0999 V2000
    8.5411    4.1188   24.4700 C   0  0  0  0  0  0  0  0  0  0  0  0
    8.5454    3.3473   23.2393 N   0  0  0  0  0  0  0  0  0  0  0  0
    7.8837    3.5911   22.0829 C   0  0  0  0  0  0  0  0  0  0  0  0
    8.2509    2.5873   21.2104 C   0  0  0  0  0  0  0  0  0  0  0  0
    9.1537    1.7997   21.9359 C   0  0  0  0  0  0  0  0  0  0  0  0
    9.7403    0.4956   21.5278 C   0  0  0  0  0  0  0  0  0  0  0  0
    8.7462   -0.5912   21.7728 C   0  0  0  0  0  0  0  0  0  0  0  0
    8.8514   -1.4218   22.7805 N   0  0  0  0  0  0  0  0  0  0  0  0
    7.7367   -2.1847   22.6839 C   0  0  0  0  0  0  0  0  0  0  0  0
    7.4199   -3.1937   23.7547 C   0  0  0  0  0  0  0  0  0  0  0  0
    6.7420   -4.4876   23.2214 C   0  0  0  0  0  0  0  0  0  0  0  0
    5.2107   -4.4046   23.3237 C   0  0  0  0  0  0  0  0  0  0  0  0
    4.7662   -4.2785   24.7869 C   0  0  0  0  0  0  0  0  0  0  0  0
    3.5164   -3.7154   24.8191 F   0  0  0  0  0  0  0  0  0  0  0  0
    4.6249   -5.5411   25.3186 F   0  0  0  0  0  0  0  0  0  0  0  0
    5.7280   -3.4804   25.6837 C   0  0  0  0  0  0  0  0  0  0  0  0
    6.5755   -2.4882   24.8736 C   0  0  0  0  0  0  0  0  0  0  0  0
    5.9006   -1.7501   24.4164 H   0  0  0  0  0  0  0  0  0  0  0  0
    7.2482   -1.9205   25.5265 H   0  0  0  0  0  0  0  0  0  0  0  0
    6.3757   -4.1990   26.1978 H   0  0  0  0  0  0  0  0  0  0  0  0
    5.1456   -2.9703   26.4566 H   0  0  0  0  0  0  0  0  0  0  0  0
    4.7253   -5.2886   22.9009 H   0  0  0  0  0  0  0  0  0  0  0  0
    4.8545   -3.5281   22.7680 H   0  0  0  0  0  0  0  0  0  0  0  0
    7.0831   -5.3360   23.8315 H   0  0  0  0  0  0  0  0  0  0  0  0
    7.0538   -4.6949   22.1909 H   0  0  0  0  0  0  0  0  0  0  0  0
    8.3966   -3.4658   24.1689 H   0  0  0  0  0  0  0  0  0  0  0  0
    6.9397   -1.8760   21.6827 N   0  0  0  0  0  0  0  0  0  0  0  0
    7.5867   -0.8368   21.0784 N   0  0  0  0  0  0  0  0  0  0  0  0
    6.8932   -0.1526   20.0200 C   0  0  0  0  0  0  0  0  0  0  0  0
    5.6786    0.5090   20.2697 C   0  0  0  0  0  0  0  0  0  0  0  0
    5.0683    1.1994   19.2185 C   0  0  0  0  0  0  0  0  0  0  0  0
    5.6568    1.1629   17.9469 C   0  0  0  0  0  0  0  0  0  0  0  0
    6.7897    0.4892   17.6904 N   0  0  0  0  0  0  0  0  0  0  0  0
    7.3880   -0.1495   18.7052 C   0  0  0  0  0  0  0  0  0  0  0  0
    8.3016   -0.6931   18.4628 H   0  0  0  0  0  0  0  0  0  0  0  0
    5.1916    1.6758   17.1052 H   0  0  0  0  0  0  0  0  0  0  0  0
    4.1416    1.7509   19.3632 H   0  0  0  0  0  0  0  0  0  0  0  0
    5.2287    0.4844   21.2659 H   0  0  0  0  0  0  0  0  0  0  0  0
   10.6113    0.2977   22.1579 H   0  0  0  0  0  0  0  0  0  0  0  0
   10.0191    0.4939   20.4750 H   0  0  0  0  0  0  0  0  0  0  0  0
    9.3308    2.2670   23.1589 N   0  0  0  0  0  0  0  0  0  0  0  0
    7.9223    2.3642   20.2041 H   0  0  0  0  0  0  0  0  0  0  0  0
    7.2215    4.4479   22.0035 H   0  0  0  0  0  0  0  0  0  0  0  0
    8.6222    3.4240   25.3124 H   0  0  0  0  0  0  0  0  0  0  0  0
    9.3809    4.8233   24.4819 H   0  0  0  0  0  0  0  0  0  0  0  0
    7.6003    4.6702   24.5318 H   0  0  0  0  0  0  0  0  0  0  0  0
  1  2  1  0
  2  3  1  0
  3  4  2  0
  4  5  1  0
  5  6  1  0
  6  7  1  0
  7  8  2  0
  8  9  1  0
  9 10  1  0
 10 11  1  0
 11 12  1  0
 12 13  1  0
 13 14  1  0
 13 15  1  0
 13 16  1  0
 16 17  1  0
 17 18  1  0
 17 19  1  0
 16 20  1  0
 16 21  1  0
 12 22  1  0
 12 23  1  0
 11 24  1  0
 11 25  1  0
 10 26  1  0
  9 27  2  0
 27 28  1  0
 28 29  1  0
 29 30  2  0
 30 31  1  0
 31 32  2  0
 32 33  1  0
 33 34  2  0
 34 35  1  0
 32 36  1  0
 31 37  1  0
 30 38  1  0
  6 39  1  0
  6 40  1  0
  5 41  2  0
  4 42  1  0
  3 43  1  0
  1 44  1  0
  1 45  1  0
  1 46  1  0
 41  2  1  0
 28  7  1  0
 34 29  1  0
 17 10  1  0
M  END
>  <cnnaffinity>  (1) 
-6.04637

>  <filename>  (1) 
Cn1ccc(Cc2nc(C3CCC(F)(F)CC3)nn2-c2cccnc2)n1

$$$$
