
     RDKit          3D

 31 33  0  0  0  0  0  0  0  0999 V2000
    4.9217    1.8210   16.9577 H   0  0  0  0  0  0  0  0  0  0  0  0
    5.3801    1.3147   17.8083 C   0  0  0  0  0  0  0  0  0  0  0  0
    6.5379    0.6854   17.5586 N   0  0  0  0  0  0  0  0  0  0  0  0
    7.1362    0.0659   18.5867 C   0  0  0  0  0  0  0  0  0  0  0  0
    8.0804   -0.4227   18.3559 H   0  0  0  0  0  0  0  0  0  0  0  0
    6.6215    0.0086   19.8952 C   0  0  0  0  0  0  0  0  0  0  0  0
    7.3556   -0.6999   20.9622 C   0  0  0  0  0  0  0  0  0  0  0  0
    8.6836   -0.6315   21.3334 C   0  0  0  0  0  0  0  0  0  0  0  0
    9.7658    0.3038   20.8379 C   0  0  0  0  0  0  0  0  0  0  0  0
   10.6633   -0.2777   20.6252 H   0  0  0  0  0  0  0  0  0  0  0  0
    9.4469    0.7897   19.9114 H   0  0  0  0  0  0  0  0  0  0  0  0
   10.1768    1.3316   21.8543 C   0  0  0  0  0  0  0  0  0  0  0  0
   11.2740    1.2685   22.5748 N   0  0  0  0  0  0  0  0  0  0  0  0
   11.1920    2.3036   23.4711 C   0  0  0  0  0  0  0  0  0  0  0  0
   11.9649    2.4287   24.2199 H   0  0  0  0  0  0  0  0  0  0  0  0
   10.0350    3.0091   23.2714 C   0  0  0  0  0  0  0  0  0  0  0  0
    9.6245    3.9060   23.7154 H   0  0  0  0  0  0  0  0  0  0  0  0
    9.3846    2.3730   22.2342 N   0  0  0  0  0  0  0  0  0  0  0  0
    8.0864    2.7193   21.6850 C   0  0  0  0  0  0  0  0  0  0  0  0
    7.2774    2.1179   22.1175 H   0  0  0  0  0  0  0  0  0  0  0  0
    8.0958    2.5374   20.6073 H   0  0  0  0  0  0  0  0  0  0  0  0
    7.8997    3.7786   21.8841 H   0  0  0  0  0  0  0  0  0  0  0  0
    8.7964   -1.5320   22.4268 C   0  0  0  0  0  0  0  0  0  0  0  0
    9.6737   -1.7564   23.0296 H   0  0  0  0  0  0  0  0  0  0  0  0
    7.6331   -2.1009   22.7189 N   0  0  0  0  0  0  0  0  0  0  0  0
    6.7722   -1.5679   21.8331 N   0  0  0  0  0  0  0  0  0  0  0  0
    5.8021   -1.8565   21.8491 H   0  0  0  0  0  0  0  0  0  0  0  0
    5.4063    0.6680   20.1317 C   0  0  0  0  0  0  0  0  0  0  0  0
    4.9815    0.6719   21.1356 H   0  0  0  0  0  0  0  0  0  0  0  0
    4.7798    1.3307   19.0744 C   0  0  0  0  0  0  0  0  0  0  0  0
    3.8480    1.8669   19.2129 H   0  0  0  0  0  0  0  0  0  0  0  0
  1  2  1  0
  2  3  2  0
  3  4  1  0
  4  5  1  0
  4  6  2  0
  6  7  1  0
  7  8  2  0
  8  9  1  0
  9 10  1  0
  9 11  1  0
  9 12  1  0
 12 13  2  0
 13 14  1  0
 14 15  1  0
 14 16  2  0
 16 17  1  0
 16 18  1  0
 18 19  1  0
 19 20  1  0
 19 21  1  0
 19 22  1  0
  8 23  1  0
 23 24  1  0
 23 25  2  0
 25 26  1  0
 26 27  1  0
  6 28  1  0
 28 29  1  0
 28 30  2  0
 30 31  1  0
 30  2  1  0
 26  7  1  0
 18 12  1  0
M  END
>  <cnnaffinity>  (1) 
-5.18572

>  <filename>  (1) 
Cn1ccnc1Cc1cn[nH]c1-c1cccnc1

$$$$
