
     RDKit          3D

 46 49  0  0  0  0  0  0  0  0999 V2000
    5.2381   -2.6145   25.1464 C   0  0  0  0  0  0  0  0  0  0  0  0
    6.2403   -1.5690   25.0884 N   0  0  0  0  0  0  0  0  0  0  0  0
    6.0377   -0.2649   24.7746 C   0  0  0  0  0  0  0  0  0  0  0  0
    7.2670    0.3606   24.7872 C   0  0  0  0  0  0  0  0  0  0  0  0
    7.5665    1.7775   24.3642 C   0  0  0  0  0  0  0  0  0  0  0  0
    7.6026    1.9618   22.8244 C   0  0  0  0  0  0  0  0  0  0  0  0
    8.5645    1.0044   22.2068 C   0  0  0  0  0  0  0  0  0  0  0  0
    9.8737    1.0781   22.3890 N   0  0  0  0  0  0  0  0  0  0  0  0
   10.3275   -0.0824   21.8680 C   0  0  0  0  0  0  0  0  0  0  0  0
   11.7484   -0.4745   21.7534 C   0  0  0  0  0  0  0  0  0  0  0  0
   12.8258    0.3019   22.2235 C   0  0  0  0  0  0  0  0  0  0  0  0
   14.1126   -0.0922   21.8600 C   0  0  0  0  0  0  0  0  0  0  0  0
   15.1256    0.6630   22.2993 F   0  0  0  0  0  0  0  0  0  0  0  0
   14.3416   -1.1570   20.9755 C   0  0  0  0  0  0  0  0  0  0  0  0
   13.2663   -1.9431   20.5824 C   0  0  0  0  0  0  0  0  0  0  0  0
   11.9923   -1.6552   21.0426 C   0  0  0  0  0  0  0  0  0  0  0  0
   11.1286   -2.2731   20.8239 H   0  0  0  0  0  0  0  0  0  0  0  0
   13.4297   -2.7667   19.8973 H   0  0  0  0  0  0  0  0  0  0  0  0
   15.2762   -1.3524   20.4743 H   0  0  0  0  0  0  0  0  0  0  0  0
   12.6930    1.2095   22.8112 H   0  0  0  0  0  0  0  0  0  0  0  0
    9.3657   -0.8626   21.3837 N   0  0  0  0  0  0  0  0  0  0  0  0
    8.2443   -0.1581   21.5948 N   0  0  0  0  0  0  0  0  0  0  0  0
    6.9667   -0.6901   21.1299 C   0  0  0  0  0  0  0  0  0  0  0  0
    6.4060    0.0665   19.9482 C   0  0  0  0  0  0  0  0  0  0  0  0
    5.1894    0.7496   19.9963 C   0  0  0  0  0  0  0  0  0  0  0  0
    4.7606    1.4446   18.8628 C   0  0  0  0  0  0  0  0  0  0  0  0
    5.5617    1.4214   17.7190 C   0  0  0  0  0  0  0  0  0  0  0  0
    6.7303    0.7663   17.6496 N   0  0  0  0  0  0  0  0  0  0  0  0
    7.1392    0.1231   18.7496 C   0  0  0  0  0  0  0  0  0  0  0  0
    8.1068   -0.3735   18.6764 H   0  0  0  0  0  0  0  0  0  0  0  0
    5.2555    1.9568   16.8211 H   0  0  0  0  0  0  0  0  0  0  0  0
    3.8344    2.0063   18.8599 H   0  0  0  0  0  0  0  0  0  0  0  0
    4.5907    0.7536   20.9094 H   0  0  0  0  0  0  0  0  0  0  0  0
    7.1780   -1.7316   20.8597 H   0  0  0  0  0  0  0  0  0  0  0  0
    6.2615   -0.7015   21.9674 H   0  0  0  0  0  0  0  0  0  0  0  0
    7.9451    2.9727   22.5864 H   0  0  0  0  0  0  0  0  0  0  0  0
    6.6064    1.8454   22.3834 H   0  0  0  0  0  0  0  0  0  0  0  0
    6.8415    2.4737   24.7967 H   0  0  0  0  0  0  0  0  0  0  0  0
    8.5430    2.0788   24.7622 H   0  0  0  0  0  0  0  0  0  0  0  0
    8.1628   -0.6856   25.1320 C   0  0  0  0  0  0  0  0  0  0  0  0
    7.5321   -1.8453   25.2991 N   0  0  0  0  0  0  0  0  0  0  0  0
    9.2442   -0.6508   25.2353 H   0  0  0  0  0  0  0  0  0  0  0  0
    5.0420    0.1088   24.5477 H   0  0  0  0  0  0  0  0  0  0  0  0
    4.3078   -2.1992   25.5409 H   0  0  0  0  0  0  0  0  0  0  0  0
    5.5900   -3.4051   25.8117 H   0  0  0  0  0  0  0  0  0  0  0  0
    5.0434   -3.0392   24.1553 H   0  0  0  0  0  0  0  0  0  0  0  0
  1  2  1  0
  2  3  1  0
  3  4  2  0
  4  5  1  0
  5  6  1  0
  6  7  1  0
  7  8  2  0
  8  9  1  0
  9 10  1  0
 10 11  2  0
 11 12  1  0
 12 13  1  0
 12 14  2  0
 14 15  1  0
 15 16  2  0
 16 17  1  0
 15 18  1  0
 14 19  1  0
 11 20  1  0
  9 21  2  0
 21 22  1  0
 22 23  1  0
 23 24  1  0
 24 25  2  0
 25 26  1  0
 26 27  2  0
 27 28  1  0
 28 29  2  0
 29 30  1  0
 27 31  1  0
 26 32  1  0
 25 33  1  0
 23 34  1  0
 23 35  1  0
  6 36  1  0
  6 37  1  0
  5 38  1  0
  5 39  1  0
  4 40  1  0
 40 41  2  0
 40 42  1  0
  3 43  1  0
  1 44  1  0
  1 45  1  0
  1 46  1  0
 41  2  1  0
 22  7  1  0
 29 24  1  0
 16 10  1  0
M  END
>  <cnnaffinity>  (1) 
-6.57661

>  <filename>  (1) 
Cn1cc(CCc2nc(-c3cccc(F)c3)nn2Cc2cccnc2)cn1

$$$$
