
     RDKit          3D

 43 46  0  0  0  0  0  0  0  0999 V2000
    5.3950   -0.7252   26.1830 C   0  0  0  0  0  0  0  0  0  0  0  0
    6.4923    0.0133   25.5916 N   0  0  0  0  0  0  0  0  0  0  0  0
    7.7133    0.2505   26.1218 C   0  0  0  0  0  0  0  0  0  0  0  0
    8.3982    1.0175   25.2067 C   0  0  0  0  0  0  0  0  0  0  0  0
    7.4946    1.1919   24.1385 C   0  0  0  0  0  0  0  0  0  0  0  0
    7.7847    1.8161   22.8060 C   0  0  0  0  0  0  0  0  0  0  0  0
    8.7876    0.9424   22.1245 C   0  0  0  0  0  0  0  0  0  0  0  0
   10.0891    1.0175   22.3315 N   0  0  0  0  0  0  0  0  0  0  0  0
   10.5579   -0.1600   21.8421 C   0  0  0  0  0  0  0  0  0  0  0  0
   11.9999   -0.5263   21.7703 C   0  0  0  0  0  0  0  0  0  0  0  0
   13.0432    0.2820   22.2713 C   0  0  0  0  0  0  0  0  0  0  0  0
   14.3379    0.1049   21.7875 C   0  0  0  0  0  0  0  0  0  0  0  0
   14.5767   -0.8364   20.7620 C   0  0  0  0  0  0  0  0  0  0  0  0
   15.9708   -0.4448   19.6614 Cl  0  0  0  0  0  0  0  0  0  0  0  0
   13.6415   -1.8298   20.4908 C   0  0  0  0  0  0  0  0  0  0  0  0
   12.3600   -1.6617   21.0258 C   0  0  0  0  0  0  0  0  0  0  0  0
   11.5550   -2.3483   20.8200 H   0  0  0  0  0  0  0  0  0  0  0  0
   13.8831   -2.6969   19.8851 H   0  0  0  0  0  0  0  0  0  0  0  0
   15.1287    0.7895   22.0823 H   0  0  0  0  0  0  0  0  0  0  0  0
   12.8701    1.0917   22.9713 H   0  0  0  0  0  0  0  0  0  0  0  0
    9.6062   -0.9390   21.3383 N   0  0  0  0  0  0  0  0  0  0  0  0
    8.4770   -0.2129   21.5024 N   0  0  0  0  0  0  0  0  0  0  0  0
    7.1773   -0.7275   21.0631 C   0  0  0  0  0  0  0  0  0  0  0  0
    6.5177    0.0375   19.9267 C   0  0  0  0  0  0  0  0  0  0  0  0
    5.2847    0.6911   20.0678 C   0  0  0  0  0  0  0  0  0  0  0  0
    4.7388    1.3569   18.9663 C   0  0  0  0  0  0  0  0  0  0  0  0
    5.4409    1.3389   17.7577 C   0  0  0  0  0  0  0  0  0  0  0  0
    6.6165    0.7106   17.5965 N   0  0  0  0  0  0  0  0  0  0  0  0
    7.1317    0.0851   18.6628 C   0  0  0  0  0  0  0  0  0  0  0  0
    8.0857   -0.4169   18.5036 H   0  0  0  0  0  0  0  0  0  0  0  0
    5.0467    1.8523   16.8817 H   0  0  0  0  0  0  0  0  0  0  0  0
    3.7990    1.8955   19.0351 H   0  0  0  0  0  0  0  0  0  0  0  0
    4.7579    0.6888   21.0264 H   0  0  0  0  0  0  0  0  0  0  0  0
    7.3651   -1.7649   20.7715 H   0  0  0  0  0  0  0  0  0  0  0  0
    6.5145   -0.7410   21.9365 H   0  0  0  0  0  0  0  0  0  0  0  0
    8.2236    2.8104   22.9226 H   0  0  0  0  0  0  0  0  0  0  0  0
    6.8591    1.9021   22.2320 H   0  0  0  0  0  0  0  0  0  0  0  0
    6.3481    0.5737   24.3786 N   0  0  0  0  0  0  0  0  0  0  0  0
    9.4256    1.3517   25.2107 H   0  0  0  0  0  0  0  0  0  0  0  0
    7.9980   -0.1697   27.0782 H   0  0  0  0  0  0  0  0  0  0  0  0
    4.7674   -1.1095   25.3755 H   0  0  0  0  0  0  0  0  0  0  0  0
    4.7962   -0.0841   26.8395 H   0  0  0  0  0  0  0  0  0  0  0  0
    5.7929   -1.5608   26.7661 H   0  0  0  0  0  0  0  0  0  0  0  0
  1  2  1  0
  2  3  1  0
  3  4  2  0
  4  5  1  0
  5  6  1  0
  6  7  1  0
  7  8  2  0
  8  9  1  0
  9 10  1  0
 10 11  2  0
 11 12  1  0
 12 13  2  0
 13 14  1  0
 13 15  1  0
 15 16  2  0
 16 17  1  0
 15 18  1  0
 12 19  1  0
 11 20  1  0
  9 21  2  0
 21 22  1  0
 22 23  1  0
 23 24  1  0
 24 25  2  0
 25 26  1  0
 26 27  2  0
 27 28  1  0
 28 29  2  0
 29 30  1  0
 27 31  1  0
 26 32  1  0
 25 33  1  0
 23 34  1  0
 23 35  1  0
  6 36  1  0
  6 37  1  0
  5 38  2  0
  4 39  1  0
  3 40  1  0
  1 41  1  0
  1 42  1  0
  1 43  1  0
 38  2  1  0
 22  7  1  0
 29 24  1  0
 16 10  1  0
M  END
>  <cnnaffinity>  (1) 
-6.48945

>  <filename>  (1) 
Cn1ccc(Cc2nc(-c3ccc(Cl)cc3)nn2Cc2cccnc2)n1

$$$$
