
     RDKit          3D

 38 41  0  0  0  0  0  0  0  0999 V2000
    5.2012    1.2885   17.4294 H   0  0  0  0  0  0  0  0  0  0  0  0
    5.7269    0.7408   18.2108 C   0  0  0  0  0  0  0  0  0  0  0  0
    6.9488    0.2793   17.9001 N   0  0  0  0  0  0  0  0  0  0  0  0
    7.5988   -0.4181   18.8325 C   0  0  0  0  0  0  0  0  0  0  0  0
    8.5816   -0.7900   18.5452 H   0  0  0  0  0  0  0  0  0  0  0  0
    7.0641   -0.7013   20.1044 C   0  0  0  0  0  0  0  0  0  0  0  0
    7.8909   -1.4848   21.0265 C   0  0  0  0  0  0  0  0  0  0  0  0
    9.1168   -1.8882   20.7939 N   0  0  0  0  0  0  0  0  0  0  0  0
    9.6071   -2.5437   21.9002 N   0  0  0  0  0  0  0  0  0  0  0  0
    8.6547   -2.4999   22.7864 C   0  0  0  0  0  0  0  0  0  0  0  0
    8.3743   -2.9710   24.4387 S   0  0  0  0  0  0  0  0  0  0  0  0
    6.7418   -2.3255   24.2677 C   0  0  0  0  0  0  0  0  0  0  0  0
    5.7480   -2.3039   25.4187 C   0  0  0  0  0  0  0  0  0  0  0  0
    5.3939   -1.2382   25.8971 O   0  0  0  0  0  0  0  0  0  0  0  0
    5.2885   -3.5083   25.9063 N   0  0  0  0  0  0  0  0  0  0  0  0
    4.3296   -3.5482   27.0311 C   0  0  0  0  0  0  0  0  0  0  0  0
    3.4493   -4.1167   26.6990 H   0  0  0  0  0  0  0  0  0  0  0  0
    4.0109   -2.5379   27.2916 H   0  0  0  0  0  0  0  0  0  0  0  0
    4.9495   -4.2850   28.2280 C   0  0  0  0  0  0  0  0  0  0  0  0
    5.8223   -3.7021   28.5779 H   0  0  0  0  0  0  0  0  0  0  0  0
    4.2201   -4.3369   29.0504 H   0  0  0  0  0  0  0  0  0  0  0  0
    5.3170   -5.6528   27.8352 N   0  0  0  0  0  0  0  0  0  0  0  0
    5.7867   -6.4658   28.9444 C   0  0  0  0  0  0  0  0  0  0  0  0
    6.7637   -6.1508   29.3612 H   0  0  0  0  0  0  0  0  0  0  0  0
    5.8836   -7.5095   28.6212 H   0  0  0  0  0  0  0  0  0  0  0  0
    5.0545   -6.4383   29.7599 H   0  0  0  0  0  0  0  0  0  0  0  0
    6.2479   -5.6595   26.6972 C   0  0  0  0  0  0  0  0  0  0  0  0
    7.2358   -5.2331   26.9684 H   0  0  0  0  0  0  0  0  0  0  0  0
    6.4060   -6.7036   26.3900 H   0  0  0  0  0  0  0  0  0  0  0  0
    5.6574   -4.8764   25.5056 C   0  0  0  0  0  0  0  0  0  0  0  0
    6.3381   -4.8712   24.6534 H   0  0  0  0  0  0  0  0  0  0  0  0
    4.7331   -5.3888   25.2006 H   0  0  0  0  0  0  0  0  0  0  0  0
    6.4633   -1.7811   23.1236 N   0  0  0  0  0  0  0  0  0  0  0  0
    7.5426   -1.8718   22.3080 N   0  0  0  0  0  0  0  0  0  0  0  0
    5.7858   -0.2109   20.4232 C   0  0  0  0  0  0  0  0  0  0  0  0
    5.3646   -0.4186   21.4085 H   0  0  0  0  0  0  0  0  0  0  0  0
    5.1093    0.5241   19.4502 C   0  0  0  0  0  0  0  0  0  0  0  0
    4.1164    0.9230   19.6435 H   0  0  0  0  0  0  0  0  0  0  0  0
  1  2  1  0
  2  3  2  0
  3  4  1  0
  4  5  1  0
  4  6  2  0
  6  7  1  0
  7  8  2  0
  8  9  1  0
  9 10  2  0
 10 11  1  0
 11 12  1  0
 12 13  1  0
 13 14  2  0
 13 15  1  0
 15 16  1  0
 16 17  1  0
 16 18  1  0
 16 19  1  0
 19 20  1  0
 19 21  1  0
 19 22  1  0
 22 23  1  0
 23 24  1  0
 23 25  1  0
 23 26  1  0
 22 27  1  0
 27 28  1  0
 27 29  1  0
 27 30  1  0
 30 31  1  0
 30 32  1  0
 12 33  2  0
 33 34  1  0
  6 35  1  0
 35 36  1  0
 35 37  2  0
 37 38  1  0
 37  2  1  0
 34  7  1  0
 34 10  1  0
 30 15  1  0
M  END
>  <cnnaffinity>  (1) 
-4.93611

>  <filename>  (1) 
CN1CCN(C(=O)c2nn3c(-c4cccnc4)nnc3s2)CC1

$$$$
