
     RDKit          3D

 44 47  0  0  0  0  0  0  0  0999 V2000
    8.9668    1.6159   25.5950 C   0  0  0  0  0  0  0  0  0  0  0  0
    7.6034    1.1077   25.5535 N   0  0  0  0  0  0  0  0  0  0  0  0
    7.0472    0.3642   26.5637 C   0  0  0  0  0  0  0  0  0  0  0  0
    5.7759    0.0031   26.1994 C   0  0  0  0  0  0  0  0  0  0  0  0
    5.5495    0.5500   24.9068 C   0  0  0  0  0  0  0  0  0  0  0  0
    6.6870    1.2218   24.5299 C   0  0  0  0  0  0  0  0  0  0  0  0
    7.0449    1.8277   23.1969 C   0  0  0  0  0  0  0  0  0  0  0  0
    8.0426    0.9737   22.4663 C   0  0  0  0  0  0  0  0  0  0  0  0
    9.3501    1.1238   22.5434 N   0  0  0  0  0  0  0  0  0  0  0  0
    9.8397   -0.0123   21.9862 C   0  0  0  0  0  0  0  0  0  0  0  0
   11.2790   -0.3117   21.8851 C   0  0  0  0  0  0  0  0  0  0  0  0
   11.6635   -1.4926   21.2253 C   0  0  0  0  0  0  0  0  0  0  0  0
   13.0113   -1.8184   21.1148 C   0  0  0  0  0  0  0  0  0  0  0  0
   13.9741   -1.0378   21.7489 C   0  0  0  0  0  0  0  0  0  0  0  0
   13.6127    0.1609   22.3716 C   0  0  0  0  0  0  0  0  0  0  0  0
   12.2691    0.5445   22.4148 C   0  0  0  0  0  0  0  0  0  0  0  0
   11.9998    1.4986   22.8621 H   0  0  0  0  0  0  0  0  0  0  0  0
   14.3687    0.8069   22.8081 H   0  0  0  0  0  0  0  0  0  0  0  0
   14.9917   -1.3909   21.7500 H   0  0  0  0  0  0  0  0  0  0  0  0
   13.3392   -2.6574   20.5156 H   0  0  0  0  0  0  0  0  0  0  0  0
   10.8861   -2.1287   20.8128 H   0  0  0  0  0  0  0  0  0  0  0  0
    8.8958   -0.8256   21.5243 N   0  0  0  0  0  0  0  0  0  0  0  0
    7.7458   -0.1795   21.8283 N   0  0  0  0  0  0  0  0  0  0  0  0
    6.4783   -0.6322   21.2503 C   0  0  0  0  0  0  0  0  0  0  0  0
    6.0842    0.0955   19.9756 C   0  0  0  0  0  0  0  0  0  0  0  0
    4.9026    0.8362   19.8608 C   0  0  0  0  0  0  0  0  0  0  0  0
    4.6614    1.5434   18.6791 C   0  0  0  0  0  0  0  0  0  0  0  0
    5.6049    1.4706   17.6516 C   0  0  0  0  0  0  0  0  0  0  0  0
    6.7234    0.7342   17.7231 N   0  0  0  0  0  0  0  0  0  0  0  0
    6.9443    0.0693   18.8633 C   0  0  0  0  0  0  0  0  0  0  0  0
    7.8561   -0.5261   18.8984 H   0  0  0  0  0  0  0  0  0  0  0  0
    5.4629    2.0315   16.7296 H   0  0  0  0  0  0  0  0  0  0  0  0
    3.7716    2.1517   18.5510 H   0  0  0  0  0  0  0  0  0  0  0  0
    4.1778    0.8538   20.6785 H   0  0  0  0  0  0  0  0  0  0  0  0
    5.6978   -0.5091   22.0026 H   0  0  0  0  0  0  0  0  0  0  0  0
    6.6059   -1.7047   21.0775 H   0  0  0  0  0  0  0  0  0  0  0  0
    7.4906    2.8230   23.3158 H   0  0  0  0  0  0  0  0  0  0  0  0
    6.1367    1.9606   22.6003 H   0  0  0  0  0  0  0  0  0  0  0  0
    4.6501    0.4758   24.3086 H   0  0  0  0  0  0  0  0  0  0  0  0
    5.0891   -0.5973   26.7814 H   0  0  0  0  0  0  0  0  0  0  0  0
    7.6188    0.1828   27.4653 H   0  0  0  0  0  0  0  0  0  0  0  0
    9.1978    1.9669   26.6034 H   0  0  0  0  0  0  0  0  0  0  0  0
    9.0739    2.4554   24.9030 H   0  0  0  0  0  0  0  0  0  0  0  0
    9.6887    0.8446   25.3049 H   0  0  0  0  0  0  0  0  0  0  0  0
  1  2  1  0
  2  3  1  0
  3  4  2  0
  4  5  1  0
  5  6  2  0
  6  7  1  0
  7  8  1  0
  8  9  2  0
  9 10  1  0
 10 11  1  0
 11 12  2  0
 12 13  1  0
 13 14  2  0
 14 15  1  0
 15 16  2  0
 16 17  1  0
 15 18  1  0
 14 19  1  0
 13 20  1  0
 12 21  1  0
 10 22  2  0
 22 23  1  0
 23 24  1  0
 24 25  1  0
 25 26  2  0
 26 27  1  0
 27 28  2  0
 28 29  1  0
 29 30  2  0
 30 31  1  0
 28 32  1  0
 27 33  1  0
 26 34  1  0
 24 35  1  0
 24 36  1  0
  7 37  1  0
  7 38  1  0
  5 39  1  0
  4 40  1  0
  3 41  1  0
  1 42  1  0
  1 43  1  0
  1 44  1  0
  6  2  1  0
 23  8  1  0
 30 25  1  0
 16 11  1  0
M  END
>  <cnnaffinity>  (1) 
-6.3184

>  <filename>  (1) 
Cn1cccc1Cc1nc(-c2ccccc2)nn1Cc1cccnc1

$$$$
