
     RDKit          3D

 44 47  0  0  0  0  0  0  0  0999 V2000
   12.2674   -1.2656   21.4357 C   0  0  0  0  0  0  0  0  0  0  0  0
   11.8799    0.0504   21.9080 N   0  0  0  0  0  0  0  0  0  0  0  0
   12.4761    0.7530   22.9180 C   0  0  0  0  0  0  0  0  0  0  0  0
   11.8022    1.8287   23.2438 N   0  0  0  0  0  0  0  0  0  0  0  0
   10.7062    1.8153   22.4185 C   0  0  0  0  0  0  0  0  0  0  0  0
   10.7224    0.7258   21.5792 C   0  0  0  0  0  0  0  0  0  0  0  0
    9.6653    0.1791   20.6548 C   0  0  0  0  0  0  0  0  0  0  0  0
    8.6215   -0.6657   21.3220 C   0  0  0  0  0  0  0  0  0  0  0  0
    8.8271   -1.5048   22.3141 N   0  0  0  0  0  0  0  0  0  0  0  0
    7.5926   -2.0171   22.5444 C   0  0  0  0  0  0  0  0  0  0  0  0
    7.3510   -3.0168   23.6279 C   0  0  0  0  0  0  0  0  0  0  0  0
    7.0041   -4.4045   23.0339 C   0  0  0  0  0  0  0  0  0  0  0  0
    6.4738   -5.3583   24.0678 C   0  0  0  0  0  0  0  0  0  0  0  0
    6.0864   -4.9927   25.2895 C   0  0  0  0  0  0  0  0  0  0  0  0
    6.1040   -3.5651   25.7815 C   0  0  0  0  0  0  0  0  0  0  0  0
    6.2695   -2.5583   24.6338 C   0  0  0  0  0  0  0  0  0  0  0  0
    5.3198   -2.4758   24.0976 H   0  0  0  0  0  0  0  0  0  0  0  0
    6.5027   -1.5622   25.0287 H   0  0  0  0  0  0  0  0  0  0  0  0
    6.9124   -3.4463   26.5160 H   0  0  0  0  0  0  0  0  0  0  0  0
    5.1800   -3.3540   26.3354 H   0  0  0  0  0  0  0  0  0  0  0  0
    5.7286   -5.7481   25.9873 H   0  0  0  0  0  0  0  0  0  0  0  0
    6.4019   -6.3984   23.7617 H   0  0  0  0  0  0  0  0  0  0  0  0
    7.8871   -4.8391   22.5470 H   0  0  0  0  0  0  0  0  0  0  0  0
    6.2533   -4.2874   22.2418 H   0  0  0  0  0  0  0  0  0  0  0  0
    8.3072   -3.0935   24.1538 H   0  0  0  0  0  0  0  0  0  0  0  0
    6.6506   -1.5831   21.7272 N   0  0  0  0  0  0  0  0  0  0  0  0
    7.3188   -0.7172   20.9222 N   0  0  0  0  0  0  0  0  0  0  0  0
    6.6350   -0.0291   19.8811 C   0  0  0  0  0  0  0  0  0  0  0  0
    5.4248    0.6216   20.1466 C   0  0  0  0  0  0  0  0  0  0  0  0
    4.8045    1.3049   19.0999 C   0  0  0  0  0  0  0  0  0  0  0  0
    5.3999    1.2969   17.8335 C   0  0  0  0  0  0  0  0  0  0  0  0
    6.5445    0.6500   17.5623 N   0  0  0  0  0  0  0  0  0  0  0  0
    7.1473    0.0104   18.5706 C   0  0  0  0  0  0  0  0  0  0  0  0
    8.0901   -0.4871   18.3321 H   0  0  0  0  0  0  0  0  0  0  0  0
    4.9407    1.8303   17.0069 H   0  0  0  0  0  0  0  0  0  0  0  0
    3.8806    1.8472   19.2606 H   0  0  0  0  0  0  0  0  0  0  0  0
    5.0069    0.5847   21.1528 H   0  0  0  0  0  0  0  0  0  0  0  0
   10.1015   -0.4631   19.8786 H   0  0  0  0  0  0  0  0  0  0  0  0
    9.1610    1.0095   20.1596 H   0  0  0  0  0  0  0  0  0  0  0  0
    9.9527    2.5859   22.4992 H   0  0  0  0  0  0  0  0  0  0  0  0
   13.3773    0.3937   23.3979 H   0  0  0  0  0  0  0  0  0  0  0  0
   11.4353   -1.9547   21.5999 H   0  0  0  0  0  0  0  0  0  0  0  0
   12.5377   -1.2528   20.3759 H   0  0  0  0  0  0  0  0  0  0  0  0
   13.1355   -1.6138   21.9977 H   0  0  0  0  0  0  0  0  0  0  0  0
  1  2  1  0
  2  3  1  0
  3  4  2  0
  4  5  1  0
  5  6  2  0
  6  7  1  0
  7  8  1  0
  8  9  2  0
  9 10  1  0
 10 11  1  0
 11 12  1  0
 12 13  1  0
 13 14  2  0
 14 15  1  0
 15 16  1  0
 16 17  1  0
 16 18  1  0
 15 19  1  0
 15 20  1  0
 14 21  1  0
 13 22  1  0
 12 23  1  0
 12 24  1  0
 11 25  1  0
 10 26  2  0
 26 27  1  0
 27 28  1  0
 28 29  2  0
 29 30  1  0
 30 31  2  0
 31 32  1  0
 32 33  2  0
 33 34  1  0
 31 35  1  0
 30 36  1  0
 29 37  1  0
  7 38  1  0
  7 39  1  0
  5 40  1  0
  3 41  1  0
  1 42  1  0
  1 43  1  0
  1 44  1  0
  6  2  1  0
 27  8  1  0
 33 28  1  0
 16 11  1  0
M  END
>  <cnnaffinity>  (1) 
-6.48034

>  <filename>  (1) 
Cn1cncc1Cc1nc(C2CC=CCC2)nn1-c1cccnc1

$$$$
