
     RDKit          3D

 43 46  0  0  0  0  0  0  0  0999 V2000
    5.2597   -0.7894   26.2809 C   0  0  0  0  0  0  0  0  0  0  0  0
    6.2812    0.0557   25.6982 N   0  0  0  0  0  0  0  0  0  0  0  0
    7.4725    0.4003   26.2383 C   0  0  0  0  0  0  0  0  0  0  0  0
    8.1083    1.2020   25.3189 C   0  0  0  0  0  0  0  0  0  0  0  0
    7.2018    1.2963   24.2439 C   0  0  0  0  0  0  0  0  0  0  0  0
    7.4675    1.9093   22.9017 C   0  0  0  0  0  0  0  0  0  0  0  0
    8.4412    1.0104   22.2178 C   0  0  0  0  0  0  0  0  0  0  0  0
    9.7498    1.0966   22.3486 N   0  0  0  0  0  0  0  0  0  0  0  0
   10.1838   -0.0964   21.8743 C   0  0  0  0  0  0  0  0  0  0  0  0
   11.5922   -0.5270   21.7970 C   0  0  0  0  0  0  0  0  0  0  0  0
   12.6799    0.2380   22.2637 C   0  0  0  0  0  0  0  0  0  0  0  0
   13.9867   -0.1986   21.9986 C   0  0  0  0  0  0  0  0  0  0  0  0
   14.1950   -1.3206   21.1838 C   0  0  0  0  0  0  0  0  0  0  0  0
   13.1191   -2.0534   20.7070 C   0  0  0  0  0  0  0  0  0  0  0  0
   11.8300   -1.7219   21.1024 C   0  0  0  0  0  0  0  0  0  0  0  0
   10.9768   -2.3236   20.8111 H   0  0  0  0  0  0  0  0  0  0  0  0
   13.3011   -2.8517   19.9950 H   0  0  0  0  0  0  0  0  0  0  0  0
   15.1631   -1.6309   20.8364 H   0  0  0  0  0  0  0  0  0  0  0  0
   14.8313    0.3747   22.3634 H   0  0  0  0  0  0  0  0  0  0  0  0
   12.5048    1.1774   22.7875 H   0  0  0  0  0  0  0  0  0  0  0  0
    9.2094   -0.8847   21.4321 N   0  0  0  0  0  0  0  0  0  0  0  0
    8.0972   -0.1663   21.6631 N   0  0  0  0  0  0  0  0  0  0  0  0
    6.7931   -0.6515   21.2208 C   0  0  0  0  0  0  0  0  0  0  0  0
    6.2770    0.0789   20.0007 C   0  0  0  0  0  0  0  0  0  0  0  0
    5.0662    0.7755   20.0016 C   0  0  0  0  0  0  0  0  0  0  0  0
    4.6708    1.4361   18.8361 C   0  0  0  0  0  0  0  0  0  0  0  0
    5.5075    1.3784   17.7180 C   0  0  0  0  0  0  0  0  0  0  0  0
    6.6761    0.7195   17.6963 N   0  0  0  0  0  0  0  0  0  0  0  0
    7.0453    0.0986   18.8226 C   0  0  0  0  0  0  0  0  0  0  0  0
    8.0053   -0.4161   18.7983 H   0  0  0  0  0  0  0  0  0  0  0  0
    5.2329    1.8858   16.7967 H   0  0  0  0  0  0  0  0  0  0  0  0
    3.7460    1.9995   18.7883 H   0  0  0  0  0  0  0  0  0  0  0  0
    4.4535    0.8153   20.9062 H   0  0  0  0  0  0  0  0  0  0  0  0
    6.9277   -1.7198   21.0235 H   0  0  0  0  0  0  0  0  0  0  0  0
    6.1104   -0.5433   22.0703 H   0  0  0  0  0  0  0  0  0  0  0  0
    6.5424    2.0034   22.3256 H   0  0  0  0  0  0  0  0  0  0  0  0
    7.9428    2.8878   22.9985 H   0  0  0  0  0  0  0  0  0  0  0  0
    6.1093    0.5858   24.4764 N   0  0  0  0  0  0  0  0  0  0  0  0
    9.1126    1.6056   25.3258 H   0  0  0  0  0  0  0  0  0  0  0  0
    7.7695    0.0202   27.2067 H   0  0  0  0  0  0  0  0  0  0  0  0
    5.7424   -1.5756   26.8675 H   0  0  0  0  0  0  0  0  0  0  0  0
    4.5950   -0.2171   26.9379 H   0  0  0  0  0  0  0  0  0  0  0  0
    4.6844   -1.2428   25.4699 H   0  0  0  0  0  0  0  0  0  0  0  0
  1  2  1  0
  2  3  1  0
  3  4  2  0
  4  5  1  0
  5  6  1  0
  6  7  1  0
  7  8  2  0
  8  9  1  0
  9 10  1  0
 10 11  2  0
 11 12  1  0
 12 13  2  0
 13 14  1  0
 14 15  2  0
 15 16  1  0
 14 17  1  0
 13 18  1  0
 12 19  1  0
 11 20  1  0
  9 21  2  0
 21 22  1  0
 22 23  1  0
 23 24  1  0
 24 25  2  0
 25 26  1  0
 26 27  2  0
 27 28  1  0
 28 29  2  0
 29 30  1  0
 27 31  1  0
 26 32  1  0
 25 33  1  0
 23 34  1  0
 23 35  1  0
  6 36  1  0
  6 37  1  0
  5 38  2  0
  4 39  1  0
  3 40  1  0
  1 41  1  0
  1 42  1  0
  1 43  1  0
 38  2  1  0
 22  7  1  0
 29 24  1  0
 15 10  1  0
M  END
>  <cnnaffinity>  (1) 
-6.33527

>  <filename>  (1) 
Cn1ccc(Cc2nc(-c3ccccc3)nn2Cc2cccnc2)n1

$$$$
