
     RDKit          3D

 49 52  0  0  0  0  0  0  0  0999 V2000
   11.2024    2.1798   23.6368 C   0  0  0  0  0  0  0  0  0  0  0  0
    9.7689    2.1373   23.8509 N   0  0  0  0  0  0  0  0  0  0  0  0
    9.1456    1.9891   25.0789 C   0  0  0  0  0  0  0  0  0  0  0  0
    7.8133    1.8774   24.7996 C   0  0  0  0  0  0  0  0  0  0  0  0
    7.5916    1.9460   23.4484 N   0  0  0  0  0  0  0  0  0  0  0  0
    8.7813    2.0922   22.9003 C   0  0  0  0  0  0  0  0  0  0  0  0
    9.0398    2.0151   21.4170 C   0  0  0  0  0  0  0  0  0  0  0  0
    9.5297    0.6081   20.9410 C   0  0  0  0  0  0  0  0  0  0  0  0
    8.6500   -0.5191   21.3874 C   0  0  0  0  0  0  0  0  0  0  0  0
    8.8771   -1.3387   22.3990 N   0  0  0  0  0  0  0  0  0  0  0  0
    7.6691   -1.9290   22.5848 C   0  0  0  0  0  0  0  0  0  0  0  0
    7.3946   -2.8360   23.7465 C   0  0  0  0  0  0  0  0  0  0  0  0
    6.6699   -2.0742   24.8879 C   0  0  0  0  0  0  0  0  0  0  0  0
    6.3642   -2.9913   26.0779 C   0  0  0  0  0  0  0  0  0  0  0  0
    5.6151   -4.2401   25.6410 C   0  0  0  0  0  0  0  0  0  0  0  0
    5.4259   -5.0678   26.7150 F   0  0  0  0  0  0  0  0  0  0  0  0
    4.3571   -3.8780   25.2183 F   0  0  0  0  0  0  0  0  0  0  0  0
    6.3081   -5.0001   24.5186 C   0  0  0  0  0  0  0  0  0  0  0  0
    6.6079   -4.0921   23.3189 C   0  0  0  0  0  0  0  0  0  0  0  0
    7.1692   -4.6476   22.5592 H   0  0  0  0  0  0  0  0  0  0  0  0
    5.6717   -3.7675   22.8475 H   0  0  0  0  0  0  0  0  0  0  0  0
    5.6778   -5.8465   24.2322 H   0  0  0  0  0  0  0  0  0  0  0  0
    7.2373   -5.4056   24.9357 H   0  0  0  0  0  0  0  0  0  0  0  0
    7.2935   -3.3242   26.5532 H   0  0  0  0  0  0  0  0  0  0  0  0
    5.7721   -2.4766   26.8412 H   0  0  0  0  0  0  0  0  0  0  0  0
    5.7383   -1.6463   24.4990 H   0  0  0  0  0  0  0  0  0  0  0  0
    7.2891   -1.2397   25.2263 H   0  0  0  0  0  0  0  0  0  0  0  0
    8.3806   -3.1336   24.1159 H   0  0  0  0  0  0  0  0  0  0  0  0
    6.7345   -1.5674   21.7246 N   0  0  0  0  0  0  0  0  0  0  0  0
    7.3721   -0.6659   20.9362 N   0  0  0  0  0  0  0  0  0  0  0  0
    6.6600    0.0055   19.9015 C   0  0  0  0  0  0  0  0  0  0  0  0
    5.4409    0.6400   20.1687 C   0  0  0  0  0  0  0  0  0  0  0  0
    4.8142    1.3079   19.1108 C   0  0  0  0  0  0  0  0  0  0  0  0
    5.4005    1.2960   17.8381 C   0  0  0  0  0  0  0  0  0  0  0  0
    6.5588    0.6726   17.5761 N   0  0  0  0  0  0  0  0  0  0  0  0
    7.1678    0.0526   18.5926 C   0  0  0  0  0  0  0  0  0  0  0  0
    8.1120   -0.4338   18.3651 H   0  0  0  0  0  0  0  0  0  0  0  0
    4.9224    1.7874   16.9932 H   0  0  0  0  0  0  0  0  0  0  0  0
    3.8824    1.8384   19.2600 H   0  0  0  0  0  0  0  0  0  0  0  0
    5.0212    0.6102   21.1795 H   0  0  0  0  0  0  0  0  0  0  0  0
    9.5976    0.6024   19.8512 H   0  0  0  0  0  0  0  0  0  0  0  0
   10.5267    0.3978   21.3344 H   0  0  0  0  0  0  0  0  0  0  0  0
    8.0991    2.2619   20.9149 H   0  0  0  0  0  0  0  0  0  0  0  0
    9.7720    2.7762   21.1226 H   0  0  0  0  0  0  0  0  0  0  0  0
    6.9892    1.7236   25.4856 H   0  0  0  0  0  0  0  0  0  0  0  0
    9.6937    1.9925   26.0101 H   0  0  0  0  0  0  0  0  0  0  0  0
   11.6751    2.5714   24.5366 H   0  0  0  0  0  0  0  0  0  0  0  0
   11.6377    1.1937   23.4303 H   0  0  0  0  0  0  0  0  0  0  0  0
   11.4514    2.8546   22.8139 H   0  0  0  0  0  0  0  0  0  0  0  0
  1  2  1  0
  2  3  1  0
  3  4  2  0
  4  5  1  0
  5  6  2  0
  6  7  1  0
  7  8  1  0
  8  9  1  0
  9 10  2  0
 10 11  1  0
 11 12  1  0
 12 13  1  0
 13 14  1  0
 14 15  1  0
 15 16  1  0
 15 17  1  0
 15 18  1  0
 18 19  1  0
 19 20  1  0
 19 21  1  0
 18 22  1  0
 18 23  1  0
 14 24  1  0
 14 25  1  0
 13 26  1  0
 13 27  1  0
 12 28  1  0
 11 29  2  0
 29 30  1  0
 30 31  1  0
 31 32  2  0
 32 33  1  0
 33 34  2  0
 34 35  1  0
 35 36  2  0
 36 37  1  0
 34 38  1  0
 33 39  1  0
 32 40  1  0
  8 41  1  0
  8 42  1  0
  7 43  1  0
  7 44  1  0
  4 45  1  0
  3 46  1  0
  1 47  1  0
  1 48  1  0
  1 49  1  0
  6  2  1  0
 30  9  1  0
 36 31  1  0
 19 12  1  0
M  END
>  <cnnaffinity>  (1) 
-6.0405

>  <filename>  (1) 
Cn1ccnc1CCc1nc(C2CCC(F)(F)CC2)nn1-c1cccnc1

$$$$
