
     RDKit          3D

 46 49  0  0  0  0  0  0  0  0999 V2000
    7.9612    3.4971   26.1235 C   0  0  0  0  0  0  0  0  0  0  0  0
    6.6249    2.9983   25.8546 N   0  0  0  0  0  0  0  0  0  0  0  0
    5.4873    3.4367   26.4828 C   0  0  0  0  0  0  0  0  0  0  0  0
    4.4325    2.6553   26.0868 C   0  0  0  0  0  0  0  0  0  0  0  0
    4.9512    1.6930   25.1808 C   0  0  0  0  0  0  0  0  0  0  0  0
    6.2993    1.9291   25.0479 C   0  0  0  0  0  0  0  0  0  0  0  0
    7.2702    1.2237   24.1770 C   0  0  0  0  0  0  0  0  0  0  0  0
    7.3110    1.7054   22.7047 C   0  0  0  0  0  0  0  0  0  0  0  0
    8.3749    0.9312   22.0143 C   0  0  0  0  0  0  0  0  0  0  0  0
    9.6458    1.1386   22.2770 N   0  0  0  0  0  0  0  0  0  0  0  0
   10.2423   -0.0069   21.8610 C   0  0  0  0  0  0  0  0  0  0  0  0
   11.6771   -0.1404   22.0657 C   0  0  0  0  0  0  0  0  0  0  0  0
   12.4858   -1.0940   21.4292 C   0  0  0  0  0  0  0  0  0  0  0  0
   13.8549   -0.9498   21.6096 C   0  0  0  0  0  0  0  0  0  0  0  0
   14.6856   -1.7477   20.9385 F   0  0  0  0  0  0  0  0  0  0  0  0
   14.3563    0.0858   22.4088 C   0  0  0  0  0  0  0  0  0  0  0  0
   13.5733    0.9374   23.0752 N   0  0  0  0  0  0  0  0  0  0  0  0
   12.2591    0.8370   22.8933 C   0  0  0  0  0  0  0  0  0  0  0  0
   11.6256    1.5609   23.3992 H   0  0  0  0  0  0  0  0  0  0  0  0
   15.4142    0.2618   22.4629 H   0  0  0  0  0  0  0  0  0  0  0  0
   12.0853   -1.8428   20.7474 H   0  0  0  0  0  0  0  0  0  0  0  0
    9.4288   -0.8850   21.3089 N   0  0  0  0  0  0  0  0  0  0  0  0
    8.2225   -0.2660   21.4108 N   0  0  0  0  0  0  0  0  0  0  0  0
    6.9785   -0.8503   20.9312 C   0  0  0  0  0  0  0  0  0  0  0  0
    6.3376   -0.0446   19.8204 C   0  0  0  0  0  0  0  0  0  0  0  0
    5.1320    0.6558   19.9523 C   0  0  0  0  0  0  0  0  0  0  0  0
    4.6758    1.4126   18.8675 C   0  0  0  0  0  0  0  0  0  0  0  0
    5.4367    1.4319   17.6945 C   0  0  0  0  0  0  0  0  0  0  0  0
    6.5831    0.7506   17.5432 N   0  0  0  0  0  0  0  0  0  0  0  0
    7.0082    0.0367   18.5906 C   0  0  0  0  0  0  0  0  0  0  0  0
    7.9291   -0.5282   18.4502 H   0  0  0  0  0  0  0  0  0  0  0  0
    5.1063    2.0068   16.8318 H   0  0  0  0  0  0  0  0  0  0  0  0
    3.7585    1.9887   18.9228 H   0  0  0  0  0  0  0  0  0  0  0  0
    4.5560    0.6170   20.8818 H   0  0  0  0  0  0  0  0  0  0  0  0
    7.2222   -1.8609   20.5972 H   0  0  0  0  0  0  0  0  0  0  0  0
    6.2960   -0.9411   21.7854 H   0  0  0  0  0  0  0  0  0  0  0  0
    7.5822    2.7638   22.6599 H   0  0  0  0  0  0  0  0  0  0  0  0
    6.3452    1.5925   22.2077 H   0  0  0  0  0  0  0  0  0  0  0  0
    7.0148    0.1562   24.1748 H   0  0  0  0  0  0  0  0  0  0  0  0
    8.2909    1.2877   24.5830 H   0  0  0  0  0  0  0  0  0  0  0  0
    4.4142    0.8882   24.6889 H   0  0  0  0  0  0  0  0  0  0  0  0
    3.4075    2.7504   26.4176 H   0  0  0  0  0  0  0  0  0  0  0  0
    5.5424    4.2751   27.1632 H   0  0  0  0  0  0  0  0  0  0  0  0
    8.5757    2.7470   26.6375 H   0  0  0  0  0  0  0  0  0  0  0  0
    7.8863    4.3786   26.7640 H   0  0  0  0  0  0  0  0  0  0  0  0
    8.4672    3.7875   25.1970 H   0  0  0  0  0  0  0  0  0  0  0  0
  1  2  1  0
  2  3  1  0
  3  4  2  0
  4  5  1  0
  5  6  2  0
  6  7  1  0
  7  8  1  0
  8  9  1  0
  9 10  2  0
 10 11  1  0
 11 12  1  0
 12 13  2  0
 13 14  1  0
 14 15  1  0
 14 16  2  0
 16 17  1  0
 17 18  2  0
 18 19  1  0
 16 20  1  0
 13 21  1  0
 11 22  2  0
 22 23  1  0
 23 24  1  0
 24 25  1  0
 25 26  2  0
 26 27  1  0
 27 28  2  0
 28 29  1  0
 29 30  2  0
 30 31  1  0
 28 32  1  0
 27 33  1  0
 26 34  1  0
 24 35  1  0
 24 36  1  0
  8 37  1  0
  8 38  1  0
  7 39  1  0
  7 40  1  0
  5 41  1  0
  4 42  1  0
  3 43  1  0
  1 44  1  0
  1 45  1  0
  1 46  1  0
  6  2  1  0
 23  9  1  0
 30 25  1  0
 18 12  1  0
M  END
>  <cnnaffinity>  (1) 
-6.61009

>  <filename>  (1) 
Cn1cccc1CCc1nc(-c2cncc(F)c2)nn1Cc1cccnc1

$$$$
