
     RDKit          3D

 46 49  0  0  0  0  0  0  0  0999 V2000
    2.4439    2.9901   26.4714 C   0  0  0  0  0  0  0  0  0  0  0  0
    3.8313    2.8779   26.0873 N   0  0  0  0  0  0  0  0  0  0  0  0
    4.3948    1.9279   25.3055 C   0  0  0  0  0  0  0  0  0  0  0  0
    5.7394    2.2219   25.2187 C   0  0  0  0  0  0  0  0  0  0  0  0
    6.7907    1.4481   24.5026 C   0  0  0  0  0  0  0  0  0  0  0  0
    6.8052    1.6259   22.9679 C   0  0  0  0  0  0  0  0  0  0  0  0
    7.7805    0.6693   22.3752 C   0  0  0  0  0  0  0  0  0  0  0  0
    9.0720    0.7560   22.6414 N   0  0  0  0  0  0  0  0  0  0  0  0
    9.5923   -0.3572   22.0824 C   0  0  0  0  0  0  0  0  0  0  0  0
   11.0474   -0.6546   22.0583 C   0  0  0  0  0  0  0  0  0  0  0  0
   11.9842    0.0721   22.8201 C   0  0  0  0  0  0  0  0  0  0  0  0
   13.3370   -0.1766   22.6071 C   0  0  0  0  0  0  0  0  0  0  0  0
   14.2456    0.5499   23.2688 F   0  0  0  0  0  0  0  0  0  0  0  0
   13.7906   -1.1154   21.6844 C   0  0  0  0  0  0  0  0  0  0  0  0
   12.8442   -1.7978   20.9399 C   0  0  0  0  0  0  0  0  0  0  0  0
   13.2823   -2.5911   19.9572 F   0  0  0  0  0  0  0  0  0  0  0  0
   11.4851   -1.6514   21.1718 C   0  0  0  0  0  0  0  0  0  0  0  0
   10.7436   -2.2654   20.6763 H   0  0  0  0  0  0  0  0  0  0  0  0
   14.8321   -1.3242   21.5210 H   0  0  0  0  0  0  0  0  0  0  0  0
   11.6893    0.8176   23.5543 H   0  0  0  0  0  0  0  0  0  0  0  0
    8.6912   -1.1307   21.4893 N   0  0  0  0  0  0  0  0  0  0  0  0
    7.5291   -0.4720   21.6905 N   0  0  0  0  0  0  0  0  0  0  0  0
    6.3223   -0.9073   20.9940 C   0  0  0  0  0  0  0  0  0  0  0  0
    5.9863   -0.0520   19.7887 C   0  0  0  0  0  0  0  0  0  0  0  0
    4.8228    0.7207   19.7429 C   0  0  0  0  0  0  0  0  0  0  0  0
    4.5794    1.5111   18.6187 C   0  0  0  0  0  0  0  0  0  0  0  0
    5.5165    1.5021   17.5824 C   0  0  0  0  0  0  0  0  0  0  0  0
    6.6401    0.7692   17.6041 N   0  0  0  0  0  0  0  0  0  0  0  0
    6.8662    0.0237   18.6939 C   0  0  0  0  0  0  0  0  0  0  0  0
    7.8090   -0.5250   18.7069 H   0  0  0  0  0  0  0  0  0  0  0  0
    5.3533    2.1052   16.6912 H   0  0  0  0  0  0  0  0  0  0  0  0
    3.6954    2.1341   18.5415 H   0  0  0  0  0  0  0  0  0  0  0  0
    4.1227    0.7093   20.5814 H   0  0  0  0  0  0  0  0  0  0  0  0
    5.4834   -0.8963   21.6929 H   0  0  0  0  0  0  0  0  0  0  0  0
    6.5104   -1.9485   20.7125 H   0  0  0  0  0  0  0  0  0  0  0  0
    5.8107    1.5126   22.5259 H   0  0  0  0  0  0  0  0  0  0  0  0
    7.1473    2.6376   22.7278 H   0  0  0  0  0  0  0  0  0  0  0  0
    6.6810    0.3800   24.7415 H   0  0  0  0  0  0  0  0  0  0  0  0
    7.7889    1.7282   24.8657 H   0  0  0  0  0  0  0  0  0  0  0  0
    5.8765    3.3927   25.9934 C   0  0  0  0  0  0  0  0  0  0  0  0
    4.7173    3.7834   26.5063 N   0  0  0  0  0  0  0  0  0  0  0  0
    6.7779    3.9606   26.1977 H   0  0  0  0  0  0  0  0  0  0  0  0
    3.7988    1.1299   24.8797 H   0  0  0  0  0  0  0  0  0  0  0  0
    1.9182    3.6990   25.8248 H   0  0  0  0  0  0  0  0  0  0  0  0
    1.9743    2.0069   26.3919 H   0  0  0  0  0  0  0  0  0  0  0  0
    2.3988    3.3380   27.5059 H   0  0  0  0  0  0  0  0  0  0  0  0
  1  2  1  0
  2  3  1  0
  3  4  2  0
  4  5  1  0
  5  6  1  0
  6  7  1  0
  7  8  2  0
  8  9  1  0
  9 10  1  0
 10 11  2  0
 11 12  1  0
 12 13  1  0
 12 14  2  0
 14 15  1  0
 15 16  1  0
 15 17  2  0
 17 18  1  0
 14 19  1  0
 11 20  1  0
  9 21  2  0
 21 22  1  0
 22 23  1  0
 23 24  1  0
 24 25  2  0
 25 26  1  0
 26 27  2  0
 27 28  1  0
 28 29  2  0
 29 30  1  0
 27 31  1  0
 26 32  1  0
 25 33  1  0
 23 34  1  0
 23 35  1  0
  6 36  1  0
  6 37  1  0
  5 38  1  0
  5 39  1  0
  4 40  1  0
 40 41  2  0
 40 42  1  0
  3 43  1  0
  1 44  1  0
  1 45  1  0
  1 46  1  0
 41  2  1  0
 22  7  1  0
 29 24  1  0
 17 10  1  0
M  END
>  <cnnaffinity>  (1) 
-6.49095

>  <filename>  (1) 
Cn1cc(CCc2nc(-c3cc(F)cc(F)c3)nn2Cc2cccnc2)cn1

$$$$
