
     RDKit          3D

 31 33  0  0  0  0  0  0  0  0999 V2000
    4.9237    1.8119   16.9595 H   0  0  0  0  0  0  0  0  0  0  0  0
    5.3838    1.3082   17.8114 C   0  0  0  0  0  0  0  0  0  0  0  0
    6.5424    0.6813   17.5586 N   0  0  0  0  0  0  0  0  0  0  0  0
    7.1374    0.0638   18.5904 C   0  0  0  0  0  0  0  0  0  0  0  0
    8.0864   -0.4197   18.3634 H   0  0  0  0  0  0  0  0  0  0  0  0
    6.6219    0.0012   19.8994 C   0  0  0  0  0  0  0  0  0  0  0  0
    7.3509   -0.7195   20.9602 C   0  0  0  0  0  0  0  0  0  0  0  0
    8.6915   -0.7310   21.2903 C   0  0  0  0  0  0  0  0  0  0  0  0
    9.8065    0.0637   20.6622 C   0  0  0  0  0  0  0  0  0  0  0  0
    9.3910    0.8600   20.0381 H   0  0  0  0  0  0  0  0  0  0  0  0
   10.3589   -0.6228   20.0207 H   0  0  0  0  0  0  0  0  0  0  0  0
   10.7477    0.7000   21.6425 C   0  0  0  0  0  0  0  0  0  0  0  0
   11.9064    0.1474   21.9762 N   0  0  0  0  0  0  0  0  0  0  0  0
   12.4007    0.9235   22.9497 N   0  0  0  0  0  0  0  0  0  0  0  0
   13.7008    0.6581   23.5270 C   0  0  0  0  0  0  0  0  0  0  0  0
   14.4772    1.2685   23.0530 H   0  0  0  0  0  0  0  0  0  0  0  0
   13.9274   -0.3978   23.3806 H   0  0  0  0  0  0  0  0  0  0  0  0
   13.6542    0.8895   24.5934 H   0  0  0  0  0  0  0  0  0  0  0  0
   11.5944    1.9670   23.2355 C   0  0  0  0  0  0  0  0  0  0  0  0
   11.8803    2.6784   24.0026 H   0  0  0  0  0  0  0  0  0  0  0  0
   10.5089    1.8650   22.3992 C   0  0  0  0  0  0  0  0  0  0  0  0
    9.6391    2.5041   22.3265 H   0  0  0  0  0  0  0  0  0  0  0  0
    8.7953   -1.6307   22.3729 C   0  0  0  0  0  0  0  0  0  0  0  0
    9.6934   -1.9096   22.9182 H   0  0  0  0  0  0  0  0  0  0  0  0
    7.6139   -2.1246   22.7182 N   0  0  0  0  0  0  0  0  0  0  0  0
    6.7523   -1.5441   21.8626 N   0  0  0  0  0  0  0  0  0  0  0  0
    5.7707   -1.7729   21.9146 H   0  0  0  0  0  0  0  0  0  0  0  0
    5.4039    0.6592   20.1370 C   0  0  0  0  0  0  0  0  0  0  0  0
    4.9811    0.6658   21.1434 H   0  0  0  0  0  0  0  0  0  0  0  0
    4.7848    1.3261   19.0767 C   0  0  0  0  0  0  0  0  0  0  0  0
    3.8560    1.8636   19.2195 H   0  0  0  0  0  0  0  0  0  0  0  0
  1  2  1  0
  2  3  2  0
  3  4  1  0
  4  5  1  0
  4  6  2  0
  6  7  1  0
  7  8  2  0
  8  9  1  0
  9 10  1  0
  9 11  1  0
  9 12  1  0
 12 13  2  0
 13 14  1  0
 14 15  1  0
 15 16  1  0
 15 17  1  0
 15 18  1  0
 14 19  1  0
 19 20  1  0
 19 21  2  0
 21 22  1  0
  8 23  1  0
 23 24  1  0
 23 25  2  0
 25 26  1  0
 26 27  1  0
  6 28  1  0
 28 29  1  0
 28 30  2  0
 30 31  1  0
 30  2  1  0
 26  7  1  0
 21 12  1  0
M  END
>  <cnnaffinity>  (1) 
-5.10562

>  <filename>  (1) 
Cn1ccc(Cc2cn[nH]c2-c2cccnc2)n1

$$$$
