
     RDKit          3D

 46 49  0  0  0  0  0  0  0  0999 V2000
    7.8328    3.3454   26.2377 C   0  0  0  0  0  0  0  0  0  0  0  0
    6.4496    2.9132   26.1370 N   0  0  0  0  0  0  0  0  0  0  0  0
    5.4073    3.3744   26.9107 C   0  0  0  0  0  0  0  0  0  0  0  0
    4.3010    2.6899   26.4994 C   0  0  0  0  0  0  0  0  0  0  0  0
    4.6319    1.8048   25.5066 N   0  0  0  0  0  0  0  0  0  0  0  0
    5.9224    1.9532   25.3115 C   0  0  0  0  0  0  0  0  0  0  0  0
    6.7387    1.1141   24.3850 C   0  0  0  0  0  0  0  0  0  0  0  0
    6.8474    1.5476   22.8978 C   0  0  0  0  0  0  0  0  0  0  0  0
    7.9792    0.8132   22.2506 C   0  0  0  0  0  0  0  0  0  0  0  0
    9.2296    1.0961   22.5295 N   0  0  0  0  0  0  0  0  0  0  0  0
    9.9362    0.0900   21.9428 C   0  0  0  0  0  0  0  0  0  0  0  0
   11.4042    0.0431   22.1288 C   0  0  0  0  0  0  0  0  0  0  0  0
   12.2438   -0.9436   21.5729 C   0  0  0  0  0  0  0  0  0  0  0  0
   13.6128   -0.8239   21.7896 C   0  0  0  0  0  0  0  0  0  0  0  0
   14.4458   -1.7266   21.2500 F   0  0  0  0  0  0  0  0  0  0  0  0
   14.1703    0.2029   22.5379 C   0  0  0  0  0  0  0  0  0  0  0  0
   13.3360    1.1284   23.1553 C   0  0  0  0  0  0  0  0  0  0  0  0
   11.9647    1.0498   22.9487 C   0  0  0  0  0  0  0  0  0  0  0  0
   11.3025    1.7519   23.4361 H   0  0  0  0  0  0  0  0  0  0  0  0
   13.7473    1.9138   23.7889 H   0  0  0  0  0  0  0  0  0  0  0  0
   15.2392    0.2623   22.5886 H   0  0  0  0  0  0  0  0  0  0  0  0
   11.8944   -1.7816   20.9773 H   0  0  0  0  0  0  0  0  0  0  0  0
    9.1854   -0.7795   21.2859 N   0  0  0  0  0  0  0  0  0  0  0  0
    7.9274   -0.3238   21.5212 N   0  0  0  0  0  0  0  0  0  0  0  0
    6.7592   -0.9427   20.9185 C   0  0  0  0  0  0  0  0  0  0  0  0
    6.2119   -0.1213   19.7731 C   0  0  0  0  0  0  0  0  0  0  0  0
    5.0060    0.5875   19.8259 C   0  0  0  0  0  0  0  0  0  0  0  0
    4.6536    1.3860   18.7353 C   0  0  0  0  0  0  0  0  0  0  0  0
    5.5038    1.4316   17.6285 C   0  0  0  0  0  0  0  0  0  0  0  0
    6.6597    0.7526   17.5566 N   0  0  0  0  0  0  0  0  0  0  0  0
    6.9981    0.0155   18.6186 C   0  0  0  0  0  0  0  0  0  0  0  0
    7.9516   -0.5120   18.5616 H   0  0  0  0  0  0  0  0  0  0  0  0
    5.2552    2.0388   16.7603 H   0  0  0  0  0  0  0  0  0  0  0  0
    3.7458    1.9775   18.7339 H   0  0  0  0  0  0  0  0  0  0  0  0
    4.3555    0.5306   20.7015 H   0  0  0  0  0  0  0  0  0  0  0  0
    6.0015   -1.0855   21.6969 H   0  0  0  0  0  0  0  0  0  0  0  0
    7.0763   -1.9349   20.5851 H   0  0  0  0  0  0  0  0  0  0  0  0
    7.0960    2.6140   22.8405 H   0  0  0  0  0  0  0  0  0  0  0  0
    5.9077    1.3997   22.3547 H   0  0  0  0  0  0  0  0  0  0  0  0
    7.7530    1.0447   24.7961 H   0  0  0  0  0  0  0  0  0  0  0  0
    6.3254    0.1026   24.4268 H   0  0  0  0  0  0  0  0  0  0  0  0
    3.2891    2.7544   26.8792 H   0  0  0  0  0  0  0  0  0  0  0  0
    5.5643    4.1076   27.6870 H   0  0  0  0  0  0  0  0  0  0  0  0
    8.2245    3.6400   25.2584 H   0  0  0  0  0  0  0  0  0  0  0  0
    7.8872    4.2108   26.9023 H   0  0  0  0  0  0  0  0  0  0  0  0
    8.4683    2.5554   26.6525 H   0  0  0  0  0  0  0  0  0  0  0  0
  1  2  1  0
  2  3  1  0
  3  4  2  0
  4  5  1  0
  5  6  2  0
  6  7  1  0
  7  8  1  0
  8  9  1  0
  9 10  2  0
 10 11  1  0
 11 12  1  0
 12 13  2  0
 13 14  1  0
 14 15  1  0
 14 16  2  0
 16 17  1  0
 17 18  2  0
 18 19  1  0
 17 20  1  0
 16 21  1  0
 13 22  1  0
 11 23  2  0
 23 24  1  0
 24 25  1  0
 25 26  1  0
 26 27  2  0
 27 28  1  0
 28 29  2  0
 29 30  1  0
 30 31  2  0
 31 32  1  0
 29 33  1  0
 28 34  1  0
 27 35  1  0
 25 36  1  0
 25 37  1  0
  8 38  1  0
  8 39  1  0
  7 40  1  0
  7 41  1  0
  4 42  1  0
  3 43  1  0
  1 44  1  0
  1 45  1  0
  1 46  1  0
  6  2  1  0
 24  9  1  0
 31 26  1  0
 18 12  1  0
M  END
>  <cnnaffinity>  (1) 
-6.42329

>  <filename>  (1) 
Cn1ccnc1CCc1nc(-c2cccc(F)c2)nn1Cc1cccnc1

$$$$
