
     RDKit          3D

 46 49  0  0  0  0  0  0  0  0999 V2000
   15.0198    0.8242   22.3170 C   0  0  0  0  0  0  0  0  0  0  0  0
   14.2213   -0.2198   22.2753 N   0  0  0  0  0  0  0  0  0  0  0  0
   14.1408   -1.3217   21.3936 C   0  0  0  0  0  0  0  0  0  0  0  0
   12.8292   -1.5703   21.1948 C   0  0  0  0  0  0  0  0  0  0  0  0
   12.1273   -0.5977   21.9744 C   0  0  0  0  0  0  0  0  0  0  0  0
   10.7094   -0.2142   21.8366 C   0  0  0  0  0  0  0  0  0  0  0  0
    9.7926   -0.9299   21.2032 N   0  0  0  0  0  0  0  0  0  0  0  0
    8.6738   -0.1887   21.3464 N   0  0  0  0  0  0  0  0  0  0  0  0
    7.3856   -0.7407   20.9573 C   0  0  0  0  0  0  0  0  0  0  0  0
    6.6582    0.0334   19.8835 C   0  0  0  0  0  0  0  0  0  0  0  0
    5.4320    0.6660   20.1116 C   0  0  0  0  0  0  0  0  0  0  0  0
    4.8020    1.3234   19.0520 C   0  0  0  0  0  0  0  0  0  0  0  0
    5.4258    1.3230   17.8014 C   0  0  0  0  0  0  0  0  0  0  0  0
    6.5982    0.7146   17.5612 N   0  0  0  0  0  0  0  0  0  0  0  0
    7.1920    0.0935   18.5864 C   0  0  0  0  0  0  0  0  0  0  0  0
    8.1321   -0.4103   18.3615 H   0  0  0  0  0  0  0  0  0  0  0  0
    4.9608    1.8161   16.9494 H   0  0  0  0  0  0  0  0  0  0  0  0
    3.8533    1.8315   19.1785 H   0  0  0  0  0  0  0  0  0  0  0  0
    4.9694    0.6351   21.1011 H   0  0  0  0  0  0  0  0  0  0  0  0
    7.6064   -1.7600   20.6307 H   0  0  0  0  0  0  0  0  0  0  0  0
    6.7511   -0.8230   21.8487 H   0  0  0  0  0  0  0  0  0  0  0  0
    8.9578    0.9290   22.0528 C   0  0  0  0  0  0  0  0  0  0  0  0
    7.9464    1.7871   22.7274 C   0  0  0  0  0  0  0  0  0  0  0  0
    7.6927    1.2139   24.1452 C   0  0  0  0  0  0  0  0  0  0  0  0
    6.6023    1.9093   24.9067 C   0  0  0  0  0  0  0  0  0  0  0  0
    6.8915    3.0231   25.6988 C   0  0  0  0  0  0  0  0  0  0  0  0
    8.1629    3.4505   25.8197 F   0  0  0  0  0  0  0  0  0  0  0  0
    5.8787    3.7024   26.3820 C   0  0  0  0  0  0  0  0  0  0  0  0
    6.1919    4.7625   27.1425 F   0  0  0  0  0  0  0  0  0  0  0  0
    4.5558    3.2801   26.2834 C   0  0  0  0  0  0  0  0  0  0  0  0
    4.2494    2.1601   25.5006 C   0  0  0  0  0  0  0  0  0  0  0  0
    5.2668    1.4826   24.8251 C   0  0  0  0  0  0  0  0  0  0  0  0
    5.0415    0.5989   24.2312 H   0  0  0  0  0  0  0  0  0  0  0  0
    3.2222    1.8121   25.4276 H   0  0  0  0  0  0  0  0  0  0  0  0
    3.7992    3.8380   26.8247 H   0  0  0  0  0  0  0  0  0  0  0  0
    7.4389    0.1465   24.0625 H   0  0  0  0  0  0  0  0  0  0  0  0
    8.6383    1.2645   24.6998 H   0  0  0  0  0  0  0  0  0  0  0  0
    8.3510    2.7994   22.8001 H   0  0  0  0  0  0  0  0  0  0  0  0
    7.0262    1.8420   22.1384 H   0  0  0  0  0  0  0  0  0  0  0  0
   10.2346    0.9453   22.3663 N   0  0  0  0  0  0  0  0  0  0  0  0
   12.9458    0.1440   22.6954 N   0  0  0  0  0  0  0  0  0  0  0  0
   12.3652   -2.2876   20.5390 H   0  0  0  0  0  0  0  0  0  0  0  0
   15.0256   -1.7620   20.9527 H   0  0  0  0  0  0  0  0  0  0  0  0
   16.2375    0.7411   19.9464 H   0  0  0  0  0  0  0  0  0  0  0  0
   15.8486    0.9406   21.6194 H   0  0  0  0  0  0  0  0  0  0  0  0
   14.6521    1.7179   22.7977 H   0  0  0  0  0  0  0  0  0  0  0  0
  1  2  1  0
  2  3  1  0
  3  4  2  0
  4  5  1  0
  5  6  1  0
  6  7  2  0
  7  8  1  0
  8  9  1  0
  9 10  1  0
 10 11  2  0
 11 12  1  0
 12 13  2  0
 13 14  1  0
 14 15  2  0
 15 16  1  0
 13 17  1  0
 12 18  1  0
 11 19  1  0
  9 20  1  0
  9 21  1  0
  8 22  1  0
 22 23  1  0
 23 24  1  0
 24 25  1  0
 25 26  2  0
 26 27  1  0
 26 28  1  0
 28 29  1  0
 28 30  2  0
 30 31  1  0
 31 32  2  0
 32 33  1  0
 31 34  1  0
 30 35  1  0
 24 36  1  0
 24 37  1  0
 23 38  1  0
 23 39  1  0
 22 40  2  0
  5 41  2  0
  4 42  1  0
  3 43  1  0
  1 44  1  0
  1 45  1  0
  1 46  1  0
 41  2  1  0
 40  6  1  0
 15 10  1  0
 32 25  1  0
M  END
>  <cnnaffinity>  (1) 
-6.4952

>  <filename>  (1) 
Cn1ccc(-c2nc(CCc3cccc(F)c3F)n(Cc3cccnc3)n2)n1

$$$$
