
     RDKit          3D

 49 52  0  0  0  0  0  0  0  0999 V2000
   13.4508    0.8794   22.5489 C   0  0  0  0  0  0  0  0  0  0  0  0
   12.4609    0.3268   23.4568 N   0  0  0  0  0  0  0  0  0  0  0  0
   12.4942    0.4432   24.8235 C   0  0  0  0  0  0  0  0  0  0  0  0
   11.3659   -0.1478   25.3416 C   0  0  0  0  0  0  0  0  0  0  0  0
   10.6408   -0.6744   24.2455 C   0  0  0  0  0  0  0  0  0  0  0  0
   11.3237   -0.3619   23.0890 C   0  0  0  0  0  0  0  0  0  0  0  0
   10.8523   -0.5089   21.6670 C   0  0  0  0  0  0  0  0  0  0  0  0
   10.0747    0.7475   21.1608 C   0  0  0  0  0  0  0  0  0  0  0  0
    8.8834    1.0764   22.0057 C   0  0  0  0  0  0  0  0  0  0  0  0
    8.8289    1.9796   22.9640 N   0  0  0  0  0  0  0  0  0  0  0  0
    7.7026    1.6377   23.6519 C   0  0  0  0  0  0  0  0  0  0  0  0
    7.3288    2.2825   24.9257 C   0  0  0  0  0  0  0  0  0  0  0  0
    6.1282    1.9504   25.5880 C   0  0  0  0  0  0  0  0  0  0  0  0
    5.8130    2.5323   26.8105 C   0  0  0  0  0  0  0  0  0  0  0  0
    6.6995    3.4360   27.4198 C   0  0  0  0  0  0  0  0  0  0  0  0
    6.4452    3.9211   28.6868 N   0  0  0  0  0  0  0  0  0  0  0  0
    6.8993    4.7940   28.8879 H   0  0  0  0  0  0  0  0  0  0  0  0
    5.4707    3.9218   28.9371 H   0  0  0  0  0  0  0  0  0  0  0  0
    7.8876    3.7842   26.7579 C   0  0  0  0  0  0  0  0  0  0  0  0
    8.2026    3.2091   25.5334 C   0  0  0  0  0  0  0  0  0  0  0  0
    9.1417    3.4617   25.0450 H   0  0  0  0  0  0  0  0  0  0  0  0
    8.5570    4.4933   27.2361 H   0  0  0  0  0  0  0  0  0  0  0  0
    4.8918    2.2853   27.3314 H   0  0  0  0  0  0  0  0  0  0  0  0
    5.4560    1.2152   25.1466 H   0  0  0  0  0  0  0  0  0  0  0  0
    7.0324    0.6290   23.1132 N   0  0  0  0  0  0  0  0  0  0  0  0
    7.8016    0.2700   22.0593 N   0  0  0  0  0  0  0  0  0  0  0  0
    7.3054   -0.6864   21.0689 C   0  0  0  0  0  0  0  0  0  0  0  0
    6.6245   -0.0180   19.8874 C   0  0  0  0  0  0  0  0  0  0  0  0
    5.4307    0.6841   20.0941 C   0  0  0  0  0  0  0  0  0  0  0  0
    4.8430    1.3354   19.0090 C   0  0  0  0  0  0  0  0  0  0  0  0
    5.4670    1.2684   17.7609 C   0  0  0  0  0  0  0  0  0  0  0  0
    6.6055    0.5953   17.5397 N   0  0  0  0  0  0  0  0  0  0  0  0
    7.1606   -0.0246   18.5902 C   0  0  0  0  0  0  0  0  0  0  0  0
    8.0895   -0.5578   18.3781 H   0  0  0  0  0  0  0  0  0  0  0  0
    5.0365    1.7782   16.9006 H   0  0  0  0  0  0  0  0  0  0  0  0
    3.9306    1.9075   19.1221 H   0  0  0  0  0  0  0  0  0  0  0  0
    4.9967    0.7344   21.0957 H   0  0  0  0  0  0  0  0  0  0  0  0
    8.1370   -1.3205   20.7395 H   0  0  0  0  0  0  0  0  0  0  0  0
    6.6067   -1.3235   21.6187 H   0  0  0  0  0  0  0  0  0  0  0  0
   10.7409    1.6130   21.1862 H   0  0  0  0  0  0  0  0  0  0  0  0
    9.7372    0.6069   20.1287 H   0  0  0  0  0  0  0  0  0  0  0  0
   11.6911   -0.7421   20.9963 H   0  0  0  0  0  0  0  0  0  0  0  0
   10.1904   -1.3816   21.6287 H   0  0  0  0  0  0  0  0  0  0  0  0
    9.6643   -1.1387   24.2823 H   0  0  0  0  0  0  0  0  0  0  0  0
   11.0669   -0.1546   26.3772 H   0  0  0  0  0  0  0  0  0  0  0  0
   13.3287    0.9208   25.3086 H   0  0  0  0  0  0  0  0  0  0  0  0
   12.9492    1.3762   21.7110 H   0  0  0  0  0  0  0  0  0  0  0  0
   14.0648    1.6198   23.0659 H   0  0  0  0  0  0  0  0  0  0  0  0
   14.1142    0.1040   22.1508 H   0  0  0  0  0  0  0  0  0  0  0  0
  1  2  1  0
  2  3  1  0
  3  4  2  0
  4  5  1  0
  5  6  2  0
  6  7  1  0
  7  8  1  0
  8  9  1  0
  9 10  2  0
 10 11  1  0
 11 12  1  0
 12 13  2  0
 13 14  1  0
 14 15  2  0
 15 16  1  0
 16 17  1  0
 16 18  1  0
 15 19  1  0
 19 20  2  0
 20 21  1  0
 19 22  1  0
 14 23  1  0
 13 24  1  0
 11 25  2  0
 25 26  1  0
 26 27  1  0
 27 28  1  0
 28 29  2  0
 29 30  1  0
 30 31  2  0
 31 32  1  0
 32 33  2  0
 33 34  1  0
 31 35  1  0
 30 36  1  0
 29 37  1  0
 27 38  1  0
 27 39  1  0
  8 40  1  0
  8 41  1  0
  7 42  1  0
  7 43  1  0
  5 44  1  0
  4 45  1  0
  3 46  1  0
  1 47  1  0
  1 48  1  0
  1 49  1  0
  6  2  1  0
 26  9  1  0
 33 28  1  0
 20 12  1  0
M  END
>  <cnnaffinity>  (1) 
-5.34625

>  <filename>  (1) 
Cn1cccc1CCc1nc(-c2ccc(N)cc2)nn1Cc1cccnc1

$$$$
