
     RDKit          3D

 42 45  0  0  0  0  0  0  0  0999 V2000
    9.6790    2.0955   21.0850 C   0  0  0  0  0  0  0  0  0  0  0  0
    9.7883    2.1949   22.5204 N   0  0  0  0  0  0  0  0  0  0  0  0
   10.9421    2.4862   23.1982 C   0  0  0  0  0  0  0  0  0  0  0  0
   10.7350    2.2535   24.5331 C   0  0  0  0  0  0  0  0  0  0  0  0
    9.3807    1.8224   24.6663 C   0  0  0  0  0  0  0  0  0  0  0  0
    8.8213    1.8088   23.4079 C   0  0  0  0  0  0  0  0  0  0  0  0
    7.4607    1.3135   22.9556 C   0  0  0  0  0  0  0  0  0  0  0  0
    7.5293   -0.0679   22.3527 C   0  0  0  0  0  0  0  0  0  0  0  0
    7.9862   -1.0704   23.0695 N   0  0  0  0  0  0  0  0  0  0  0  0
    8.1935   -2.0521   22.1603 C   0  0  0  0  0  0  0  0  0  0  0  0
    8.8251   -3.3225   22.6176 C   0  0  0  0  0  0  0  0  0  0  0  0
    8.1037   -4.0472   23.7790 C   0  0  0  0  0  0  0  0  0  0  0  0
    9.2388   -4.8046   24.4710 C   0  0  0  0  0  0  0  0  0  0  0  0
   10.4349   -4.1041   24.1644 O   0  0  0  0  0  0  0  0  0  0  0  0
   10.2178   -3.0640   23.2293 C   0  0  0  0  0  0  0  0  0  0  0  0
   11.0258   -3.0917   22.4844 H   0  0  0  0  0  0  0  0  0  0  0  0
   10.2499   -2.0818   23.7337 H   0  0  0  0  0  0  0  0  0  0  0  0
    9.1120   -4.8498   25.5604 H   0  0  0  0  0  0  0  0  0  0  0  0
    9.3290   -5.8443   24.1285 H   0  0  0  0  0  0  0  0  0  0  0  0
    7.2896   -4.7016   23.4460 H   0  0  0  0  0  0  0  0  0  0  0  0
    7.7018   -3.2978   24.4720 H   0  0  0  0  0  0  0  0  0  0  0  0
    8.9108   -3.9708   21.7471 H   0  0  0  0  0  0  0  0  0  0  0  0
    7.8488   -1.7525   20.9267 N   0  0  0  0  0  0  0  0  0  0  0  0
    7.3517   -0.4815   21.0546 N   0  0  0  0  0  0  0  0  0  0  0  0
    6.6489    0.1041   19.9600 C   0  0  0  0  0  0  0  0  0  0  0  0
    5.4256    0.7611   20.1508 C   0  0  0  0  0  0  0  0  0  0  0  0
    4.8242    1.3682   19.0422 C   0  0  0  0  0  0  0  0  0  0  0  0
    5.4565    1.2942   17.7978 C   0  0  0  0  0  0  0  0  0  0  0  0
    6.5989    0.6133   17.5979 N   0  0  0  0  0  0  0  0  0  0  0  0
    7.1633    0.0094   18.6503 C   0  0  0  0  0  0  0  0  0  0  0  0
    8.0566   -0.5780   18.4452 H   0  0  0  0  0  0  0  0  0  0  0  0
    5.0206    1.7742   16.9229 H   0  0  0  0  0  0  0  0  0  0  0  0
    3.8807    1.8954   19.1365 H   0  0  0  0  0  0  0  0  0  0  0  0
    4.9491    0.7734   21.1325 H   0  0  0  0  0  0  0  0  0  0  0  0
    6.9707    2.0084   22.2675 H   0  0  0  0  0  0  0  0  0  0  0  0
    6.8527    1.2349   23.8601 H   0  0  0  0  0  0  0  0  0  0  0  0
    8.8669    1.5048   25.5706 H   0  0  0  0  0  0  0  0  0  0  0  0
   11.4953    2.3188   25.3011 H   0  0  0  0  0  0  0  0  0  0  0  0
   11.7892    2.8806   22.6492 H   0  0  0  0  0  0  0  0  0  0  0  0
    9.6214    1.0507   20.7626 H   0  0  0  0  0  0  0  0  0  0  0  0
   10.5490    2.5605   20.6233 H   0  0  0  0  0  0  0  0  0  0  0  0
    8.7841    2.6174   20.7396 H   0  0  0  0  0  0  0  0  0  0  0  0
  1  2  1  0
  2  3  1  0
  3  4  2  0
  4  5  1  0
  5  6  2  0
  6  7  1  0
  7  8  1  0
  8  9  2  0
  9 10  1  0
 10 11  1  0
 11 12  1  0
 12 13  1  0
 13 14  1  0
 14 15  1  0
 15 16  1  0
 15 17  1  0
 13 18  1  0
 13 19  1  0
 12 20  1  0
 12 21  1  0
 11 22  1  0
 10 23  2  0
 23 24  1  0
 24 25  1  0
 25 26  2  0
 26 27  1  0
 27 28  2  0
 28 29  1  0
 29 30  2  0
 30 31  1  0
 28 32  1  0
 27 33  1  0
 26 34  1  0
  7 35  1  0
  7 36  1  0
  5 37  1  0
  4 38  1  0
  3 39  1  0
  1 40  1  0
  1 41  1  0
  1 42  1  0
  6  2  1  0
 24  8  1  0
 30 25  1  0
 15 11  1  0
M  END
>  <cnnaffinity>  (1) 
-5.87408

>  <filename>  (1) 
Cn1cccc1Cc1nc(C2CCOC2)nn1-c1cccnc1

$$$$
