
     RDKit          3D

 46 49  0  0  0  0  0  0  0  0999 V2000
    4.0373   -5.8877   23.1791 C   0  0  0  0  0  0  0  0  0  0  0  0
    3.7267   -4.7581   24.0431 N   0  0  0  0  0  0  0  0  0  0  0  0
    2.8829   -4.9272   25.0618 N   0  0  0  0  0  0  0  0  0  0  0  0
    2.9343   -3.8008   25.7640 C   0  0  0  0  0  0  0  0  0  0  0  0
    3.8385   -2.8863   25.2011 C   0  0  0  0  0  0  0  0  0  0  0  0
    4.3254   -3.5373   24.0736 C   0  0  0  0  0  0  0  0  0  0  0  0
    5.0978   -3.0629   22.9131 C   0  0  0  0  0  0  0  0  0  0  0  0
    6.0996   -2.1921   23.0281 N   0  0  0  0  0  0  0  0  0  0  0  0
    6.4974   -1.9609   21.7671 N   0  0  0  0  0  0  0  0  0  0  0  0
    7.1965   -0.7254   21.4153 C   0  0  0  0  0  0  0  0  0  0  0  0
    6.6379    0.0272   20.2122 C   0  0  0  0  0  0  0  0  0  0  0  0
    5.4318    0.7430   20.2900 C   0  0  0  0  0  0  0  0  0  0  0  0
    4.9301    1.3447   19.1312 C   0  0  0  0  0  0  0  0  0  0  0  0
    5.6466    1.2154   17.9381 C   0  0  0  0  0  0  0  0  0  0  0  0
    6.8186    0.5678   17.8484 N   0  0  0  0  0  0  0  0  0  0  0  0
    7.2917    0.0045   18.9683 C   0  0  0  0  0  0  0  0  0  0  0  0
    8.2539   -0.5014   18.8706 H   0  0  0  0  0  0  0  0  0  0  0  0
    5.2552    1.6315   17.0106 H   0  0  0  0  0  0  0  0  0  0  0  0
    3.9970    1.9017   19.1348 H   0  0  0  0  0  0  0  0  0  0  0  0
    4.8968    0.8252   21.2398 H   0  0  0  0  0  0  0  0  0  0  0  0
    7.1515   -0.1097   22.3197 H   0  0  0  0  0  0  0  0  0  0  0  0
    8.2505   -0.9749   21.2441 H   0  0  0  0  0  0  0  0  0  0  0  0
    5.8087   -2.9048   20.8925 C   0  0  0  0  0  0  0  0  0  0  0  0
    6.5828   -4.1826   20.6158 C   0  0  0  0  0  0  0  0  0  0  0  0
    8.0187   -4.4476   20.8049 C   0  0  0  0  0  0  0  0  0  0  0  0
    7.0802   -5.1579   21.8166 C   0  0  0  0  0  0  0  0  0  0  0  0
    7.6705   -5.0210   23.1815 C   0  0  0  0  0  0  0  0  0  0  0  0
    7.6662   -3.9372   23.9477 F   0  0  0  0  0  0  0  0  0  0  0  0
    8.5999   -5.9995   23.5048 C   0  0  0  0  0  0  0  0  0  0  0  0
    9.5349   -5.7347   24.4289 F   0  0  0  0  0  0  0  0  0  0  0  0
    8.5754   -7.2485   22.8916 C   0  0  0  0  0  0  0  0  0  0  0  0
    7.4465   -7.5798   22.1133 C   0  0  0  0  0  0  0  0  0  0  0  0
    6.6573   -6.5728   21.6117 C   0  0  0  0  0  0  0  0  0  0  0  0
    5.7974   -6.7889   20.9836 H   0  0  0  0  0  0  0  0  0  0  0  0
    7.2042   -8.6122   21.8901 H   0  0  0  0  0  0  0  0  0  0  0  0
    9.3896   -7.9342   23.0862 H   0  0  0  0  0  0  0  0  0  0  0  0
    8.6007   -3.6068   21.1741 H   0  0  0  0  0  0  0  0  0  0  0  0
    8.5687   -5.1213   20.1538 H   0  0  0  0  0  0  0  0  0  0  0  0
    6.0916   -4.7232   19.8014 H   0  0  0  0  0  0  0  0  0  0  0  0
    5.5244   -2.4497   19.8951 H   0  0  0  0  0  0  0  0  0  0  0  0
    4.6867   -3.3416   21.6876 N   0  0  0  0  0  0  0  0  0  0  0  0
    4.0669   -1.8839   25.5327 H   0  0  0  0  0  0  0  0  0  0  0  0
    2.3282   -3.7069   26.6551 H   0  0  0  0  0  0  0  0  0  0  0  0
    3.8320   -5.6249   22.1423 H   0  0  0  0  0  0  0  0  0  0  0  0
    5.0880   -6.1610   23.3023 H   0  0  0  0  0  0  0  0  0  0  0  0
    3.4087   -6.7168   23.4953 H   0  0  0  0  0  0  0  0  0  0  0  0
  1  2  1  0
  2  3  1  0
  3  4  2  0
  4  5  1  0
  5  6  2  0
  6  7  1  0
  7  8  2  0
  8  9  1  0
  9 10  1  0
 10 11  1  0
 11 12  2  0
 12 13  1  0
 13 14  2  0
 14 15  1  0
 15 16  2  0
 16 17  1  0
 14 18  1  0
 13 19  1  0
 12 20  1  0
 10 21  1  0
 10 22  1  0
  9 23  1  0
 23 24  1  0
 24 25  1  0
 25 26  1  0
 26 27  2  0
 27 28  1  0
 27 29  1  0
 29 30  1  0
 29 31  2  0
 31 32  1  0
 32 33  2  0
 33 34  1  0
 32 35  1  0
 31 36  1  0
 25 37  1  0
 25 38  1  0
 24 39  1  0
 24 40  1  0
 23 41  2  0
  5 42  1  0
  4 43  1  0
  1 44  1  0
  1 45  1  0
  1 46  1  0
  6  2  1  0
 41  7  1  0
 16 11  1  0
 33 26  1  0
M  END
>  <cnnaffinity>  (1) 
-6.12602

>  <filename>  (1) 
Cn1nccc1-c1nc(CCc2cccc(F)c2F)n(Cc2cccnc2)n1

$$$$
