
     RDKit          3D

 32 34  0  0  0  0  0  0  0  0999 V2000
    7.0935   -1.6500   24.3056 C   0  0  0  0  0  0  0  0  0  0  0  0
    7.3923   -1.3983   22.9056 N   0  0  0  0  0  0  0  0  0  0  0  0
    6.4571   -0.7863   22.1539 N   0  0  0  0  0  0  0  0  0  0  0  0
    7.0321   -0.6793   20.9727 C   0  0  0  0  0  0  0  0  0  0  0  0
    6.3885   -0.0093   19.8381 C   0  0  0  0  0  0  0  0  0  0  0  0
    5.1860    0.7193   19.9470 C   0  0  0  0  0  0  0  0  0  0  0  0
    4.7365    1.4174   18.8269 C   0  0  0  0  0  0  0  0  0  0  0  0
    5.4728    1.3407   17.6396 C   0  0  0  0  0  0  0  0  0  0  0  0
    6.5922    0.6142   17.5144 N   0  0  0  0  0  0  0  0  0  0  0  0
    7.0375   -0.0330   18.5973 C   0  0  0  0  0  0  0  0  0  0  0  0
    7.9606   -0.5978   18.4730 H   0  0  0  0  0  0  0  0  0  0  0  0
    5.1551    1.8901   16.7516 H   0  0  0  0  0  0  0  0  0  0  0  0
    3.8525    2.0443   18.8637 H   0  0  0  0  0  0  0  0  0  0  0  0
    4.6337    0.7496   20.8884 H   0  0  0  0  0  0  0  0  0  0  0  0
    8.2890   -1.1993   20.9194 N   0  0  0  0  0  0  0  0  0  0  0  0
    8.4816   -1.6489   22.1464 C   0  0  0  0  0  0  0  0  0  0  0  0
    9.7272   -2.3006   22.6857 C   0  0  0  0  0  0  0  0  0  0  0  0
   10.6638   -1.3172   23.3665 C   0  0  0  0  0  0  0  0  0  0  0  0
   10.4985   -0.9738   24.7123 C   0  0  0  0  0  0  0  0  0  0  0  0
   11.2536    0.0827   25.2423 C   0  0  0  0  0  0  0  0  0  0  0  0
   12.1906    0.7197   24.4275 C   0  0  0  0  0  0  0  0  0  0  0  0
   12.4140    0.3611   23.1578 N   0  0  0  0  0  0  0  0  0  0  0  0
   11.6751   -0.6198   22.6669 C   0  0  0  0  0  0  0  0  0  0  0  0
   12.0138   -1.0400   21.0203 Cl  0  0  0  0  0  0  0  0  0  0  0  0
   12.8017    1.5384   24.8069 H   0  0  0  0  0  0  0  0  0  0  0  0
   11.1011    0.4259   26.2538 H   0  0  0  0  0  0  0  0  0  0  0  0
    9.8122   -1.5386   25.3489 H   0  0  0  0  0  0  0  0  0  0  0  0
    9.4608   -3.0952   23.3888 H   0  0  0  0  0  0  0  0  0  0  0  0
   10.2378   -2.7798   21.8517 H   0  0  0  0  0  0  0  0  0  0  0  0
    6.0269   -1.8668   24.3821 H   0  0  0  0  0  0  0  0  0  0  0  0
    7.3145   -0.7672   24.9135 H   0  0  0  0  0  0  0  0  0  0  0  0
    7.6541   -2.5120   24.6824 H   0  0  0  0  0  0  0  0  0  0  0  0
  1  2  1  0
  2  3  1  0
  3  4  2  0
  4  5  1  0
  5  6  2  0
  6  7  1  0
  7  8  2  0
  8  9  1  0
  9 10  2  0
 10 11  1  0
  8 12  1  0
  7 13  1  0
  6 14  1  0
  4 15  1  0
 15 16  2  0
 16 17  1  0
 17 18  1  0
 18 19  2  0
 19 20  1  0
 20 21  2  0
 21 22  1  0
 22 23  2  0
 23 24  1  0
 21 25  1  0
 20 26  1  0
 19 27  1  0
 17 28  1  0
 17 29  1  0
  1 30  1  0
  1 31  1  0
  1 32  1  0
 16  2  1  0
 23 18  1  0
 10  5  1  0
M  END
>  <cnnaffinity>  (1) 
-5.30404

>  <filename>  (1) 
Cn1nc(-c2cccnc2)nc1Cc1cccnc1Cl

$$$$
