
     RDKit          3D

 42 44  0  0  0  0  0  0  0  0999 V2000
   10.2330   -2.3973   22.1849 C   0  0  0  0  0  0  0  0  0  0  0  0
    8.9465   -1.7565   22.0122 N   0  0  0  0  0  0  0  0  0  0  0  0
    8.6057   -1.2405   20.8052 N   0  0  0  0  0  0  0  0  0  0  0  0
    7.3923   -0.7198   20.9848 C   0  0  0  0  0  0  0  0  0  0  0  0
    6.6793   -0.0124   19.9085 C   0  0  0  0  0  0  0  0  0  0  0  0
    5.4590    0.6435   20.1488 C   0  0  0  0  0  0  0  0  0  0  0  0
    4.8276    1.2976   19.0964 C   0  0  0  0  0  0  0  0  0  0  0  0
    5.4293    1.2803   17.8357 C   0  0  0  0  0  0  0  0  0  0  0  0
    6.5921    0.6581   17.5833 N   0  0  0  0  0  0  0  0  0  0  0  0
    7.1996    0.0372   18.6004 C   0  0  0  0  0  0  0  0  0  0  0  0
    8.1483   -0.4432   18.3616 H   0  0  0  0  0  0  0  0  0  0  0  0
    4.9585    1.7845   16.9947 H   0  0  0  0  0  0  0  0  0  0  0  0
    3.8929    1.8249   19.2443 H   0  0  0  0  0  0  0  0  0  0  0  0
    5.0207    0.6470   21.1478 H   0  0  0  0  0  0  0  0  0  0  0  0
    6.9462   -0.9234   22.3093 C   0  0  0  0  0  0  0  0  0  0  0  0
    7.9728   -1.5667   22.9446 C   0  0  0  0  0  0  0  0  0  0  0  0
    8.1411   -1.8523   24.3054 N   0  0  0  0  0  0  0  0  0  0  0  0
    6.8558   -1.9326   25.3708 S   0  0  0  0  0  0  0  0  0  0  0  0
    7.3784   -2.9708   26.2463 O   0  0  0  0  0  0  0  0  0  0  0  0
    5.5672   -2.0854   24.7281 O   0  0  0  0  0  0  0  0  0  0  0  0
    6.9644   -0.3297   26.1653 C   0  0  0  0  0  0  0  0  0  0  0  0
    6.9046    0.8593   25.1798 C   0  0  0  0  0  0  0  0  0  0  0  0
    7.0191    2.1975   25.9226 C   0  0  0  0  0  0  0  0  0  0  0  0
    5.9546    2.3273   27.0215 C   0  0  0  0  0  0  0  0  0  0  0  0
    6.0238    1.1474   28.0029 C   0  0  0  0  0  0  0  0  0  0  0  0
    5.9120   -0.2040   27.2842 C   0  0  0  0  0  0  0  0  0  0  0  0
    6.0222   -1.0257   28.0018 H   0  0  0  0  0  0  0  0  0  0  0  0
    4.9118   -0.2972   26.8395 H   0  0  0  0  0  0  0  0  0  0  0  0
    5.2331    1.2315   28.7577 H   0  0  0  0  0  0  0  0  0  0  0  0
    6.9768    1.1899   28.5493 H   0  0  0  0  0  0  0  0  0  0  0  0
    4.9591    2.3459   26.5537 H   0  0  0  0  0  0  0  0  0  0  0  0
    6.0678    3.2799   27.5549 H   0  0  0  0  0  0  0  0  0  0  0  0
    6.9360    3.0247   25.2065 H   0  0  0  0  0  0  0  0  0  0  0  0
    8.0179    2.2794   26.3744 H   0  0  0  0  0  0  0  0  0  0  0  0
    5.9422    0.8481   24.6465 H   0  0  0  0  0  0  0  0  0  0  0  0
    7.7038    0.7880   24.4270 H   0  0  0  0  0  0  0  0  0  0  0  0
    7.9671   -0.3869   26.5999 H   0  0  0  0  0  0  0  0  0  0  0  0
    8.6087   -2.6971   24.6061 H   0  0  0  0  0  0  0  0  0  0  0  0
    6.0302   -0.6295   22.7759 H   0  0  0  0  0  0  0  0  0  0  0  0
   10.8331   -1.8727   22.9323 H   0  0  0  0  0  0  0  0  0  0  0  0
   10.7423   -2.3676   21.2219 H   0  0  0  0  0  0  0  0  0  0  0  0
   10.1094   -3.4331   22.5105 H   0  0  0  0  0  0  0  0  0  0  0  0
  1  2  1  0
  2  3  1  0
  3  4  2  0
  4  5  1  0
  5  6  2  0
  6  7  1  0
  7  8  2  0
  8  9  1  0
  9 10  2  0
 10 11  1  0
  8 12  1  0
  7 13  1  0
  6 14  1  0
  4 15  1  0
 15 16  2  0
 16 17  1  0
 17 18  1  0
 18 19  2  0
 18 20  2  0
 18 21  1  0
 21 22  1  0
 22 23  1  0
 23 24  1  0
 24 25  1  0
 25 26  1  0
 26 27  1  0
 26 28  1  0
 25 29  1  0
 25 30  1  0
 24 31  1  0
 24 32  1  0
 23 33  1  0
 23 34  1  0
 22 35  1  0
 22 36  1  0
 21 37  1  0
 17 38  1  0
 15 39  1  0
  1 40  1  0
  1 41  1  0
  1 42  1  0
 16  2  1  0
 26 21  1  0
 10  5  1  0
M  END
>  <cnnaffinity>  (1) 
-5.32533

>  <filename>  (1) 
Cn1nc(-c2cccnc2)cc1NS(=O)(=O)C1CCCCC1

$$$$
