
     RDKit          3D

 46 49  0  0  0  0  0  0  0  0999 V2000
    7.6493    2.3331   21.5069 C   0  0  0  0  0  0  0  0  0  0  0  0
    9.0668    2.1366   21.7382 N   0  0  0  0  0  0  0  0  0  0  0  0
    9.6992    2.8650   22.6643 N   0  0  0  0  0  0  0  0  0  0  0  0
   10.9431    2.3901   22.6884 C   0  0  0  0  0  0  0  0  0  0  0  0
   11.9406    2.8033   23.7449 C   0  0  0  0  0  0  0  0  0  0  0  0
   13.2042    2.5501   23.3379 F   0  0  0  0  0  0  0  0  0  0  0  0
   11.7397    2.1001   24.8760 F   0  0  0  0  0  0  0  0  0  0  0  0
   11.8681    4.0966   24.0742 F   0  0  0  0  0  0  0  0  0  0  0  0
   11.1081    1.3432   21.7600 C   0  0  0  0  0  0  0  0  0  0  0  0
    9.8598    1.1573   21.2214 C   0  0  0  0  0  0  0  0  0  0  0  0
    9.3715   -0.0048   20.3977 C   0  0  0  0  0  0  0  0  0  0  0  0
    8.3415   -0.8783   21.0542 C   0  0  0  0  0  0  0  0  0  0  0  0
    8.5913   -1.6658   22.0815 N   0  0  0  0  0  0  0  0  0  0  0  0
    7.3879   -2.2438   22.3355 C   0  0  0  0  0  0  0  0  0  0  0  0
    7.2018   -3.2247   23.4606 C   0  0  0  0  0  0  0  0  0  0  0  0
    6.3003   -2.7435   24.6258 C   0  0  0  0  0  0  0  0  0  0  0  0
    5.8419   -4.0270   25.3526 C   0  0  0  0  0  0  0  0  0  0  0  0
    6.1032   -5.1992   24.3747 C   0  0  0  0  0  0  0  0  0  0  0  0
    6.5501   -4.5617   23.0494 C   0  0  0  0  0  0  0  0  0  0  0  0
    5.6834   -4.3550   22.4081 H   0  0  0  0  0  0  0  0  0  0  0  0
    7.2387   -5.1999   22.4824 H   0  0  0  0  0  0  0  0  0  0  0  0
    5.2197   -5.8330   24.2386 H   0  0  0  0  0  0  0  0  0  0  0  0
    6.8966   -5.8449   24.7702 H   0  0  0  0  0  0  0  0  0  0  0  0
    4.7835   -3.9548   25.6294 H   0  0  0  0  0  0  0  0  0  0  0  0
    6.3986   -4.1797   26.2849 H   0  0  0  0  0  0  0  0  0  0  0  0
    6.8166   -2.0414   25.2919 H   0  0  0  0  0  0  0  0  0  0  0  0
    5.4277   -2.2231   24.2204 H   0  0  0  0  0  0  0  0  0  0  0  0
    8.2105   -3.4105   23.8514 H   0  0  0  0  0  0  0  0  0  0  0  0
    6.4133   -1.8669   21.5228 N   0  0  0  0  0  0  0  0  0  0  0  0
    7.0378   -1.0152   20.6679 N   0  0  0  0  0  0  0  0  0  0  0  0
    6.3056   -0.3171   19.6667 C   0  0  0  0  0  0  0  0  0  0  0  0
    5.2095    0.4857   20.0035 C   0  0  0  0  0  0  0  0  0  0  0  0
    4.7069    1.3481   19.0236 C   0  0  0  0  0  0  0  0  0  0  0  0
    5.2696    1.3311   17.7410 C   0  0  0  0  0  0  0  0  0  0  0  0
    6.2407    0.4760   17.3809 N   0  0  0  0  0  0  0  0  0  0  0  0
    6.7190   -0.3485   18.3209 C   0  0  0  0  0  0  0  0  0  0  0  0
    7.4821   -1.0592   18.0071 H   0  0  0  0  0  0  0  0  0  0  0  0
    4.9250    2.0184   16.9715 H   0  0  0  0  0  0  0  0  0  0  0  0
    3.9036    2.0444   19.2390 H   0  0  0  0  0  0  0  0  0  0  0  0
    4.7856    0.4505   21.0099 H   0  0  0  0  0  0  0  0  0  0  0  0
    9.0319    0.3340   19.4181 H   0  0  0  0  0  0  0  0  0  0  0  0
   10.2282   -0.6576   20.2257 H   0  0  0  0  0  0  0  0  0  0  0  0
   12.0079    0.7777   21.5461 H   0  0  0  0  0  0  0  0  0  0  0  0
    7.0439    1.7735   22.2300 H   0  0  0  0  0  0  0  0  0  0  0  0
    7.4101    3.3917   21.5905 H   0  0  0  0  0  0  0  0  0  0  0  0
    7.4215    1.9920   20.4967 H   0  0  0  0  0  0  0  0  0  0  0  0
  1  2  1  0
  2  3  1  0
  3  4  2  0
  4  5  1  0
  5  6  1  0
  5  7  1  0
  5  8  1  0
  4  9  1  0
  9 10  2  0
 10 11  1  0
 11 12  1  0
 12 13  2  0
 13 14  1  0
 14 15  1  0
 15 16  1  0
 16 17  1  0
 17 18  1  0
 18 19  1  0
 19 20  1  0
 19 21  1  0
 18 22  1  0
 18 23  1  0
 17 24  1  0
 17 25  1  0
 16 26  1  0
 16 27  1  0
 15 28  1  0
 14 29  2  0
 29 30  1  0
 30 31  1  0
 31 32  2  0
 32 33  1  0
 33 34  2  0
 34 35  1  0
 35 36  2  0
 36 37  1  0
 34 38  1  0
 33 39  1  0
 32 40  1  0
 11 41  1  0
 11 42  1  0
  9 43  1  0
  1 44  1  0
  1 45  1  0
  1 46  1  0
 10  2  1  0
 30 12  1  0
 36 31  1  0
 19 15  1  0
M  END
>  <cnnaffinity>  (1) 
-6.65551

>  <filename>  (1) 
Cn1nc(C(F)(F)F)cc1Cc1nc(C2CCCC2)nn1-c1cccnc1

$$$$
