
     RDKit          3D

 40 43  0  0  0  0  0  0  0  0999 V2000
   11.8657    0.3708   22.9687 C   0  0  0  0  0  0  0  0  0  0  0  0
   10.8542    1.3945   22.8781 N   0  0  0  0  0  0  0  0  0  0  0  0
   10.7886    2.3779   23.7880 N   0  0  0  0  0  0  0  0  0  0  0  0
    9.7345    3.1021   23.4300 C   0  0  0  0  0  0  0  0  0  0  0  0
    9.1298    2.5580   22.2867 C   0  0  0  0  0  0  0  0  0  0  0  0
    7.6408    3.0317   21.5823 Cl  0  0  0  0  0  0  0  0  0  0  0  0
    9.8948    1.4703   21.9295 C   0  0  0  0  0  0  0  0  0  0  0  0
    9.6217    0.4192   20.8947 C   0  0  0  0  0  0  0  0  0  0  0  0
    8.6241   -0.5838   21.3737 C   0  0  0  0  0  0  0  0  0  0  0  0
    8.8514   -1.4508   22.3321 N   0  0  0  0  0  0  0  0  0  0  0  0
    7.6470   -2.0622   22.5041 C   0  0  0  0  0  0  0  0  0  0  0  0
    7.4211   -3.1019   23.5357 C   0  0  0  0  0  0  0  0  0  0  0  0
    8.4579   -3.4918   24.4103 C   0  0  0  0  0  0  0  0  0  0  0  0
    8.2252   -4.4751   25.3745 C   0  0  0  0  0  0  0  0  0  0  0  0
    6.9671   -5.0789   25.4820 C   0  0  0  0  0  0  0  0  0  0  0  0
    5.9348   -4.6930   24.6190 C   0  0  0  0  0  0  0  0  0  0  0  0
    6.1538   -3.7111   23.6531 C   0  0  0  0  0  0  0  0  0  0  0  0
    5.3522   -3.3982   22.9841 H   0  0  0  0  0  0  0  0  0  0  0  0
    4.9536   -5.1534   24.6993 H   0  0  0  0  0  0  0  0  0  0  0  0
    6.7903   -5.8441   26.2364 H   0  0  0  0  0  0  0  0  0  0  0  0
    9.0282   -4.7715   26.0457 H   0  0  0  0  0  0  0  0  0  0  0  0
    9.4389   -3.0247   24.3344 H   0  0  0  0  0  0  0  0  0  0  0  0
    6.7051   -1.6328   21.6791 N   0  0  0  0  0  0  0  0  0  0  0  0
    7.3383   -0.6973   20.9311 N   0  0  0  0  0  0  0  0  0  0  0  0
    6.6462   -0.0000   19.8989 C   0  0  0  0  0  0  0  0  0  0  0  0
    5.4308    0.6362   20.1669 C   0  0  0  0  0  0  0  0  0  0  0  0
    4.8104    1.3059   19.1065 C   0  0  0  0  0  0  0  0  0  0  0  0
    5.3981    1.2961   17.8349 C   0  0  0  0  0  0  0  0  0  0  0  0
    6.5529    0.6675   17.5707 N   0  0  0  0  0  0  0  0  0  0  0  0
    7.1590    0.0478   18.5893 C   0  0  0  0  0  0  0  0  0  0  0  0
    8.1058   -0.4342   18.3623 H   0  0  0  0  0  0  0  0  0  0  0  0
    4.9252    1.7917   16.9910 H   0  0  0  0  0  0  0  0  0  0  0  0
    3.8830    1.8397   19.2586 H   0  0  0  0  0  0  0  0  0  0  0  0
    5.0113    0.6021   21.1759 H   0  0  0  0  0  0  0  0  0  0  0  0
   10.5303   -0.1330   20.6309 H   0  0  0  0  0  0  0  0  0  0  0  0
    9.2346    0.9238   20.0116 H   0  0  0  0  0  0  0  0  0  0  0  0
    9.4245    3.9899   23.9622 H   0  0  0  0  0  0  0  0  0  0  0  0
   11.3973   -0.6152   23.0235 H   0  0  0  0  0  0  0  0  0  0  0  0
   12.5182    0.4091   22.0962 H   0  0  0  0  0  0  0  0  0  0  0  0
   12.4459    0.5765   23.8596 H   0  0  0  0  0  0  0  0  0  0  0  0
  1  2  1  0
  2  3  1  0
  3  4  2  0
  4  5  1  0
  5  6  1  0
  5  7  2  0
  7  8  1  0
  8  9  1  0
  9 10  2  0
 10 11  1  0
 11 12  1  0
 12 13  2  0
 13 14  1  0
 14 15  2  0
 15 16  1  0
 16 17  2  0
 17 18  1  0
 16 19  1  0
 15 20  1  0
 14 21  1  0
 13 22  1  0
 11 23  2  0
 23 24  1  0
 24 25  1  0
 25 26  2  0
 26 27  1  0
 27 28  2  0
 28 29  1  0
 29 30  2  0
 30 31  1  0
 28 32  1  0
 27 33  1  0
 26 34  1  0
  8 35  1  0
  8 36  1  0
  4 37  1  0
  1 38  1  0
  1 39  1  0
  1 40  1  0
  7  2  1  0
 24  9  1  0
 30 25  1  0
 17 12  1  0
M  END
>  <cnnaffinity>  (1) 
-6.00815

>  <filename>  (1) 
Cn1ncc(Cl)c1Cc1nc(-c2ccccc2)nn1-c1cccnc1

$$$$
