
     RDKit          3D

 31 33  0  0  0  0  0  0  0  0999 V2000
    4.9253    1.8209   16.9581 H   0  0  0  0  0  0  0  0  0  0  0  0
    5.3831    1.3049   17.8019 C   0  0  0  0  0  0  0  0  0  0  0  0
    6.5460    0.6818   17.5517 N   0  0  0  0  0  0  0  0  0  0  0  0
    7.1442    0.0613   18.5789 C   0  0  0  0  0  0  0  0  0  0  0  0
    8.0958   -0.4192   18.3475 H   0  0  0  0  0  0  0  0  0  0  0  0
    6.6344    0.0181   19.8924 C   0  0  0  0  0  0  0  0  0  0  0  0
    7.3522   -0.6869   21.0020 C   0  0  0  0  0  0  0  0  0  0  0  0
    7.5821   -2.0915   20.8671 C   0  0  0  0  0  0  0  0  0  0  0  0
    7.1446   -2.5474   19.9821 H   0  0  0  0  0  0  0  0  0  0  0  0
    8.2495   -2.8047   21.8198 C   0  0  0  0  0  0  0  0  0  0  0  0
    8.5073   -3.8500   21.7352 H   0  0  0  0  0  0  0  0  0  0  0  0
    8.6358   -2.1663   23.0728 C   0  0  0  0  0  0  0  0  0  0  0  0
    9.2199   -2.6867   24.0053 O   0  0  0  0  0  0  0  0  0  0  0  0
    8.2716   -0.8375   23.1929 N   0  0  0  0  0  0  0  0  0  0  0  0
    8.6785   -0.4591   24.0341 H   0  0  0  0  0  0  0  0  0  0  0  0
    7.7487   -0.0583   22.1774 C   0  0  0  0  0  0  0  0  0  0  0  0
    7.6346    1.3753   22.3965 C   0  0  0  0  0  0  0  0  0  0  0  0
    7.9923    2.4285   21.5697 C   0  0  0  0  0  0  0  0  0  0  0  0
    8.4601    2.3226   20.5994 H   0  0  0  0  0  0  0  0  0  0  0  0
    7.5362    3.5748   22.2356 C   0  0  0  0  0  0  0  0  0  0  0  0
    7.6221    4.6169   21.9528 H   0  0  0  0  0  0  0  0  0  0  0  0
    6.9340    3.2626   23.3793 N   0  0  0  0  0  0  0  0  0  0  0  0
    7.0037    1.9334   23.4715 N   0  0  0  0  0  0  0  0  0  0  0  0
    6.3665    1.2632   24.5877 C   0  0  0  0  0  0  0  0  0  0  0  0
    7.0874    1.0625   25.3868 H   0  0  0  0  0  0  0  0  0  0  0  0
    5.5860    1.9301   24.9611 H   0  0  0  0  0  0  0  0  0  0  0  0
    5.9286    0.3245   24.2331 H   0  0  0  0  0  0  0  0  0  0  0  0
    5.4104    0.6643   20.1196 C   0  0  0  0  0  0  0  0  0  0  0  0
    4.9778    0.6475   21.1211 H   0  0  0  0  0  0  0  0  0  0  0  0
    4.7736    1.3181   19.0622 C   0  0  0  0  0  0  0  0  0  0  0  0
    3.8421    1.8570   19.2040 H   0  0  0  0  0  0  0  0  0  0  0  0
  1  2  1  0
  2  3  2  0
  3  4  1  0
  4  5  1  0
  4  6  2  0
  6  7  1  0
  7  8  1  0
  8  9  1  0
  8 10  2  0
 10 11  1  0
 10 12  1  0
 12 13  2  0
 12 14  1  0
 14 15  1  0
 14 16  1  0
 16 17  1  0
 17 18  2  0
 18 19  1  0
 18 20  1  0
 20 21  1  0
 20 22  2  0
 22 23  1  0
 23 24  1  0
 24 25  1  0
 24 26  1  0
 24 27  1  0
  6 28  1  0
 28 29  1  0
 28 30  2  0
 30 31  1  0
 30  2  1  0
 16  7  2  0
 23 17  1  0
M  END
>  <cnnaffinity>  (1) 
-4.65347

>  <filename>  (1) 
Cn1nccc1-c1[nH]c(=O)ccc1-c1cccnc1

$$$$
