
     RDKit          3D

 40 43  0  0  0  0  0  0  0  0999 V2000
   11.8764    0.3699   22.9727 C   0  0  0  0  0  0  0  0  0  0  0  0
   10.8687    1.4044   22.8685 N   0  0  0  0  0  0  0  0  0  0  0  0
   10.8017    2.3826   23.7825 N   0  0  0  0  0  0  0  0  0  0  0  0
    9.7430    3.1077   23.4382 C   0  0  0  0  0  0  0  0  0  0  0  0
    9.1258    2.5637   22.2969 C   0  0  0  0  0  0  0  0  0  0  0  0
    7.6137    3.0119   21.6091 Cl  0  0  0  0  0  0  0  0  0  0  0  0
    9.8907    1.4740   21.9361 C   0  0  0  0  0  0  0  0  0  0  0  0
    9.6271    0.4158   20.9024 C   0  0  0  0  0  0  0  0  0  0  0  0
    8.6243   -0.5812   21.3722 C   0  0  0  0  0  0  0  0  0  0  0  0
    8.8504   -1.4526   22.3275 N   0  0  0  0  0  0  0  0  0  0  0  0
    7.6455   -2.0628   22.4953 C   0  0  0  0  0  0  0  0  0  0  0  0
    7.4179   -3.1054   23.5318 C   0  0  0  0  0  0  0  0  0  0  0  0
    8.4577   -3.4916   24.4070 C   0  0  0  0  0  0  0  0  0  0  0  0
    8.2042   -4.4697   25.3607 C   0  0  0  0  0  0  0  0  0  0  0  0
    9.1934   -4.8343   26.1888 F   0  0  0  0  0  0  0  0  0  0  0  0
    6.9643   -5.0874   25.4902 C   0  0  0  0  0  0  0  0  0  0  0  0
    5.9554   -4.6851   24.6205 C   0  0  0  0  0  0  0  0  0  0  0  0
    4.7495   -5.2614   24.7224 F   0  0  0  0  0  0  0  0  0  0  0  0
    6.1479   -3.7110   23.6509 C   0  0  0  0  0  0  0  0  0  0  0  0
    5.3194   -3.4271   23.0094 H   0  0  0  0  0  0  0  0  0  0  0  0
    6.7923   -5.8457   26.2390 H   0  0  0  0  0  0  0  0  0  0  0  0
    9.4491   -3.0523   24.3675 H   0  0  0  0  0  0  0  0  0  0  0  0
    6.7026   -1.6293   21.6743 N   0  0  0  0  0  0  0  0  0  0  0  0
    7.3389   -0.6928   20.9318 N   0  0  0  0  0  0  0  0  0  0  0  0
    6.6474   -0.0059   19.8957 C   0  0  0  0  0  0  0  0  0  0  0  0
    5.4315    0.6302   20.1584 C   0  0  0  0  0  0  0  0  0  0  0  0
    4.8044    1.3045   19.1054 C   0  0  0  0  0  0  0  0  0  0  0  0
    5.3940    1.2941   17.8356 C   0  0  0  0  0  0  0  0  0  0  0  0
    6.5475    0.6622   17.5736 N   0  0  0  0  0  0  0  0  0  0  0  0
    7.1569    0.0373   18.5864 C   0  0  0  0  0  0  0  0  0  0  0  0
    8.1027   -0.4468   18.3528 H   0  0  0  0  0  0  0  0  0  0  0  0
    4.9301    1.8037   16.9945 H   0  0  0  0  0  0  0  0  0  0  0  0
    3.8764    1.8446   19.2559 H   0  0  0  0  0  0  0  0  0  0  0  0
    5.0096    0.5939   21.1628 H   0  0  0  0  0  0  0  0  0  0  0  0
    9.2507    0.9009   20.0058 H   0  0  0  0  0  0  0  0  0  0  0  0
   10.5311   -0.1494   20.6477 H   0  0  0  0  0  0  0  0  0  0  0  0
    9.4509    3.9847   23.9999 H   0  0  0  0  0  0  0  0  0  0  0  0
   11.3800   -0.6083   23.0280 H   0  0  0  0  0  0  0  0  0  0  0  0
   12.4439    0.5818   23.8785 H   0  0  0  0  0  0  0  0  0  0  0  0
   12.5309    0.4095   22.0949 H   0  0  0  0  0  0  0  0  0  0  0  0
  1  2  1  0
  2  3  1  0
  3  4  2  0
  4  5  1  0
  5  6  1  0
  5  7  2  0
  7  8  1  0
  8  9  1  0
  9 10  2  0
 10 11  1  0
 11 12  1  0
 12 13  2  0
 13 14  1  0
 14 15  1  0
 14 16  2  0
 16 17  1  0
 17 18  1  0
 17 19  2  0
 19 20  1  0
 16 21  1  0
 13 22  1  0
 11 23  2  0
 23 24  1  0
 24 25  1  0
 25 26  2  0
 26 27  1  0
 27 28  2  0
 28 29  1  0
 29 30  2  0
 30 31  1  0
 28 32  1  0
 27 33  1  0
 26 34  1  0
  8 35  1  0
  8 36  1  0
  4 37  1  0
  1 38  1  0
  1 39  1  0
  1 40  1  0
  7  2  1  0
 24  9  1  0
 30 25  1  0
 19 12  1  0
M  END
>  <cnnaffinity>  (1) 
-6.76099

>  <filename>  (1) 
Cn1ncc(Cl)c1Cc1nc(-c2cc(F)cc(F)c2)nn1-c1cccnc1

$$$$
