
     RDKit          3D

 44 47  0  0  0  0  0  0  0  0999 V2000
   13.6006    0.4012   23.4725 C   0  0  0  0  0  0  0  0  0  0  0  0
   12.3555    0.8151   22.8610 N   0  0  0  0  0  0  0  0  0  0  0  0
   11.8050    0.0785   21.8782 N   0  0  0  0  0  0  0  0  0  0  0  0
   10.6397    0.6434   21.6249 C   0  0  0  0  0  0  0  0  0  0  0  0
    9.6729    0.0720   20.6533 C   0  0  0  0  0  0  0  0  0  0  0  0
    8.5929   -0.6787   21.3447 C   0  0  0  0  0  0  0  0  0  0  0  0
    8.7801   -1.4690   22.3745 N   0  0  0  0  0  0  0  0  0  0  0  0
    7.5501   -2.0065   22.5824 C   0  0  0  0  0  0  0  0  0  0  0  0
    7.3433   -3.0243   23.6569 C   0  0  0  0  0  0  0  0  0  0  0  0
    8.0881   -4.3500   23.3267 C   0  0  0  0  0  0  0  0  0  0  0  0
    8.1192   -5.2832   24.5084 C   0  0  0  0  0  0  0  0  0  0  0  0
    7.8371   -4.9031   25.7547 C   0  0  0  0  0  0  0  0  0  0  0  0
    7.5077   -3.4829   26.1487 C   0  0  0  0  0  0  0  0  0  0  0  0
    7.8252   -2.4852   25.0277 C   0  0  0  0  0  0  0  0  0  0  0  0
    7.3779   -1.5074   25.2413 H   0  0  0  0  0  0  0  0  0  0  0  0
    8.9084   -2.3216   24.9630 H   0  0  0  0  0  0  0  0  0  0  0  0
    6.4382   -3.4196   26.3925 H   0  0  0  0  0  0  0  0  0  0  0  0
    8.0388   -3.2258   27.0761 H   0  0  0  0  0  0  0  0  0  0  0  0
    7.8305   -5.6443   26.5510 H   0  0  0  0  0  0  0  0  0  0  0  0
    8.3776   -6.3213   24.3064 H   0  0  0  0  0  0  0  0  0  0  0  0
    9.1199   -4.1220   23.0243 H   0  0  0  0  0  0  0  0  0  0  0  0
    7.6332   -4.8600   22.4671 H   0  0  0  0  0  0  0  0  0  0  0  0
    6.2670   -3.2237   23.6931 H   0  0  0  0  0  0  0  0  0  0  0  0
    6.6162   -1.5895   21.7532 N   0  0  0  0  0  0  0  0  0  0  0  0
    7.2904   -0.7276   20.9403 N   0  0  0  0  0  0  0  0  0  0  0  0
    6.6244   -0.0411   19.8842 C   0  0  0  0  0  0  0  0  0  0  0  0
    5.4163    0.6205   20.1338 C   0  0  0  0  0  0  0  0  0  0  0  0
    4.7998    1.3102   19.0880 C   0  0  0  0  0  0  0  0  0  0  0  0
    5.4071    1.3013   17.8280 C   0  0  0  0  0  0  0  0  0  0  0  0
    6.5506    0.6476   17.5692 N   0  0  0  0  0  0  0  0  0  0  0  0
    7.1472    0.0007   18.5775 C   0  0  0  0  0  0  0  0  0  0  0  0
    8.0900   -0.4918   18.3287 H   0  0  0  0  0  0  0  0  0  0  0  0
    4.9596    1.8425   16.9988 H   0  0  0  0  0  0  0  0  0  0  0  0
    3.8733    1.8560   19.2406 H   0  0  0  0  0  0  0  0  0  0  0  0
    4.9943    0.5805   21.1368 H   0  0  0  0  0  0  0  0  0  0  0  0
   10.2050   -0.6242   20.0052 H   0  0  0  0  0  0  0  0  0  0  0  0
    9.2315    0.8762   20.0610 H   0  0  0  0  0  0  0  0  0  0  0  0
   10.4043    1.7593   22.4403 C   0  0  0  0  0  0  0  0  0  0  0  0
   11.5234    1.8156   23.2314 C   0  0  0  0  0  0  0  0  0  0  0  0
   11.8437    2.8455   24.5453 Cl  0  0  0  0  0  0  0  0  0  0  0  0
    9.5482    2.4153   22.4357 H   0  0  0  0  0  0  0  0  0  0  0  0
   13.9870   -0.4411   22.8999 H   0  0  0  0  0  0  0  0  0  0  0  0
   13.4161    0.0861   24.5014 H   0  0  0  0  0  0  0  0  0  0  0  0
   14.3156    1.2246   23.4599 H   0  0  0  0  0  0  0  0  0  0  0  0
  1  2  1  0
  2  3  1  0
  3  4  2  0
  4  5  1  0
  5  6  1  0
  6  7  2  0
  7  8  1  0
  8  9  1  0
  9 10  1  0
 10 11  1  0
 11 12  2  0
 12 13  1  0
 13 14  1  0
 14 15  1  0
 14 16  1  0
 13 17  1  0
 13 18  1  0
 12 19  1  0
 11 20  1  0
 10 21  1  0
 10 22  1  0
  9 23  1  0
  8 24  2  0
 24 25  1  0
 25 26  1  0
 26 27  2  0
 27 28  1  0
 28 29  2  0
 29 30  1  0
 30 31  2  0
 31 32  1  0
 29 33  1  0
 28 34  1  0
 27 35  1  0
  5 36  1  0
  5 37  1  0
  4 38  1  0
 38 39  2  0
 39 40  1  0
 38 41  1  0
  1 42  1  0
  1 43  1  0
  1 44  1  0
 39  2  1  0
 25  6  1  0
 31 26  1  0
 14  9  1  0
M  END
>  <cnnaffinity>  (1) 
-6.49895

>  <filename>  (1) 
Cn1nc(Cc2nc(C3CC=CCC3)nn2-c2cccnc2)cc1Cl

$$$$
