
     RDKit          3D

 40 43  0  0  0  0  0  0  0  0999 V2000
    5.8946   -4.8324   23.4775 C   0  0  0  0  0  0  0  0  0  0  0  0
    5.9058   -4.8478   22.0326 N   0  0  0  0  0  0  0  0  0  0  0  0
    6.1015   -5.9801   21.3548 N   0  0  0  0  0  0  0  0  0  0  0  0
    6.0479   -5.6326   20.0762 C   0  0  0  0  0  0  0  0  0  0  0  0
    5.8028   -4.2468   19.9473 C   0  0  0  0  0  0  0  0  0  0  0  0
    5.5704   -3.3037   18.5217 Cl  0  0  0  0  0  0  0  0  0  0  0  0
    5.7382   -3.7611   21.2389 C   0  0  0  0  0  0  0  0  0  0  0  0
    5.7030   -2.3776   21.8170 C   0  0  0  0  0  0  0  0  0  0  0  0
    7.0094   -1.6671   21.7827 C   0  0  0  0  0  0  0  0  0  0  0  0
    7.9855   -1.9623   22.6121 N   0  0  0  0  0  0  0  0  0  0  0  0
    9.0023   -1.1726   22.1908 C   0  0  0  0  0  0  0  0  0  0  0  0
   10.3318   -1.2382   22.8547 C   0  0  0  0  0  0  0  0  0  0  0  0
   11.5313   -1.5215   21.9024 C   0  0  0  0  0  0  0  0  0  0  0  0
   12.1083   -0.1282   22.2262 C   0  0  0  0  0  0  0  0  0  0  0  0
   10.9805    0.1218   23.2489 C   0  0  0  0  0  0  0  0  0  0  0  0
   10.3514    0.9864   23.0185 H   0  0  0  0  0  0  0  0  0  0  0  0
   11.3007    0.1892   24.2923 H   0  0  0  0  0  0  0  0  0  0  0  0
   12.0417    0.5661   21.3867 H   0  0  0  0  0  0  0  0  0  0  0  0
   13.1310   -0.1178   22.6115 H   0  0  0  0  0  0  0  0  0  0  0  0
   12.1544   -2.3705   22.1948 H   0  0  0  0  0  0  0  0  0  0  0  0
   11.2252   -1.6569   20.8646 H   0  0  0  0  0  0  0  0  0  0  0  0
   10.2284   -1.9464   23.6795 H   0  0  0  0  0  0  0  0  0  0  0  0
    8.7179   -0.4077   21.1502 N   0  0  0  0  0  0  0  0  0  0  0  0
    7.4042   -0.6934   20.9207 N   0  0  0  0  0  0  0  0  0  0  0  0
    6.6800   -0.0018   19.9109 C   0  0  0  0  0  0  0  0  0  0  0  0
    5.4547    0.6336   20.1638 C   0  0  0  0  0  0  0  0  0  0  0  0
    4.8323    1.2948   19.0994 C   0  0  0  0  0  0  0  0  0  0  0  0
    5.4440    1.2861   17.8415 C   0  0  0  0  0  0  0  0  0  0  0  0
    6.6209    0.6803   17.5995 N   0  0  0  0  0  0  0  0  0  0  0  0
    7.2294    0.0697   18.6208 C   0  0  0  0  0  0  0  0  0  0  0  0
    8.1958   -0.3919   18.4264 H   0  0  0  0  0  0  0  0  0  0  0  0
    4.9750    1.7788   16.9938 H   0  0  0  0  0  0  0  0  0  0  0  0
    3.8938    1.8196   19.2393 H   0  0  0  0  0  0  0  0  0  0  0  0
    5.0293    0.6616   21.1704 H   0  0  0  0  0  0  0  0  0  0  0  0
    4.9578   -1.7573   21.3407 H   0  0  0  0  0  0  0  0  0  0  0  0
    5.4659   -2.4594   22.8824 H   0  0  0  0  0  0  0  0  0  0  0  0
    6.1976   -6.3861   19.3153 H   0  0  0  0  0  0  0  0  0  0  0  0
    4.9029   -4.5472   23.8388 H   0  0  0  0  0  0  0  0  0  0  0  0
    6.1420   -5.8265   23.8355 H   0  0  0  0  0  0  0  0  0  0  0  0
    6.6321   -4.1042   23.8269 H   0  0  0  0  0  0  0  0  0  0  0  0
  1  2  1  0
  2  3  1  0
  3  4  2  0
  4  5  1  0
  5  6  1  0
  5  7  2  0
  7  8  1  0
  8  9  1  0
  9 10  2  0
 10 11  1  0
 11 12  1  0
 12 13  1  0
 13 14  1  0
 14 15  1  0
 15 16  1  0
 15 17  1  0
 14 18  1  0
 14 19  1  0
 13 20  1  0
 13 21  1  0
 12 22  1  0
 11 23  2  0
 23 24  1  0
 24 25  1  0
 25 26  2  0
 26 27  1  0
 27 28  2  0
 28 29  1  0
 29 30  2  0
 30 31  1  0
 28 32  1  0
 27 33  1  0
 26 34  1  0
  8 35  1  0
  8 36  1  0
  4 37  1  0
  1 38  1  0
  1 39  1  0
  1 40  1  0
  7  2  1  0
 24  9  1  0
 30 25  1  0
 15 12  1  0
M  END
>  <cnnaffinity>  (1) 
-5.4799

>  <filename>  (1) 
Cn1ncc(Cl)c1Cc1nc(C2CCC2)nn1-c1cccnc1

$$$$
