
     RDKit          3D

 30 32  0  0  0  0  0  0  0  0999 V2000
    4.9404    1.8109   16.9448 H   0  0  0  0  0  0  0  0  0  0  0  0
    5.4282    1.3342   17.7938 C   0  0  0  0  0  0  0  0  0  0  0  0
    6.6074    0.7480   17.5370 N   0  0  0  0  0  0  0  0  0  0  0  0
    7.2138    0.1220   18.5526 C   0  0  0  0  0  0  0  0  0  0  0  0
    8.1772   -0.3367   18.3383 H   0  0  0  0  0  0  0  0  0  0  0  0
    6.6665    0.0074   19.8437 C   0  0  0  0  0  0  0  0  0  0  0  0
    7.4193   -0.7890   20.8694 C   0  0  0  0  0  0  0  0  0  0  0  0
    8.7079   -0.5608   20.9117 N   0  0  0  0  0  0  0  0  0  0  0  0
    9.4477   -1.1256   21.9339 N   0  0  0  0  0  0  0  0  0  0  0  0
   10.8402   -0.9076   22.0182 C   0  0  0  0  0  0  0  0  0  0  0  0
   11.8464   -1.7888   22.3765 C   0  0  0  0  0  0  0  0  0  0  0  0
   11.7402   -2.8531   22.5480 H   0  0  0  0  0  0  0  0  0  0  0  0
   13.0052   -0.9924   22.4029 C   0  0  0  0  0  0  0  0  0  0  0  0
   14.0237   -1.2799   22.6405 H   0  0  0  0  0  0  0  0  0  0  0  0
   12.7514    0.2679   22.0888 N   0  0  0  0  0  0  0  0  0  0  0  0
   11.4293    0.3136   21.8442 N   0  0  0  0  0  0  0  0  0  0  0  0
   10.8404    1.5423   21.3369 C   0  0  0  0  0  0  0  0  0  0  0  0
   10.1260    1.2979   20.5511 H   0  0  0  0  0  0  0  0  0  0  0  0
   10.3032    2.0941   22.1124 H   0  0  0  0  0  0  0  0  0  0  0  0
   11.6537    2.1564   20.9452 H   0  0  0  0  0  0  0  0  0  0  0  0
    8.8588   -1.9186   22.9029 C   0  0  0  0  0  0  0  0  0  0  0  0
    9.5249   -2.2517   23.6966 H   0  0  0  0  0  0  0  0  0  0  0  0
    7.5535   -2.2337   22.8817 C   0  0  0  0  0  0  0  0  0  0  0  0
    7.0940   -2.8390   23.6459 H   0  0  0  0  0  0  0  0  0  0  0  0
    6.7246   -1.8145   21.7590 C   0  0  0  0  0  0  0  0  0  0  0  0
    5.6100   -2.2782   21.5721 O   0  0  0  0  0  0  0  0  0  0  0  0
    5.4450    0.6567   20.1022 C   0  0  0  0  0  0  0  0  0  0  0  0
    4.9990    0.6325   21.0987 H   0  0  0  0  0  0  0  0  0  0  0  0
    4.8194    1.3328   19.0525 C   0  0  0  0  0  0  0  0  0  0  0  0
    3.8746    1.8480   19.1877 H   0  0  0  0  0  0  0  0  0  0  0  0
  1  2  1  0
  2  3  2  0
  3  4  1  0
  4  5  1  0
  4  6  2  0
  6  7  1  0
  7  8  2  0
  8  9  1  0
  9 10  1  0
 10 11  2  0
 11 12  1  0
 11 13  1  0
 13 14  1  0
 13 15  2  0
 15 16  1  0
 16 17  1  0
 17 18  1  0
 17 19  1  0
 17 20  1  0
  9 21  1  0
 21 22  1  0
 21 23  2  0
 23 24  1  0
 23 25  1  0
 25 26  2  0
  6 27  1  0
 27 28  1  0
 27 29  2  0
 29 30  1  0
 29  2  1  0
 25  7  1  0
 16 10  1  0
M  END
>  <cnnaffinity>  (1) 
-4.73005

>  <filename>  (1) 
Cn1nccc1-n1ccc(=O)c(-c2cccnc2)n1

$$$$
