
     RDKit          3D

 34 36  0  0  0  0  0  0  0  0999 V2000
   10.1749   -2.4025   22.3220 C   0  0  0  0  0  0  0  0  0  0  0  0
    8.8964   -1.7586   22.0127 N   0  0  0  0  0  0  0  0  0  0  0  0
    8.5817   -1.2150   20.8041 N   0  0  0  0  0  0  0  0  0  0  0  0
    7.4297   -0.6058   20.9613 C   0  0  0  0  0  0  0  0  0  0  0  0
    6.6830    0.0449   19.9064 C   0  0  0  0  0  0  0  0  0  0  0  0
    5.4521    0.6646   20.1406 C   0  0  0  0  0  0  0  0  0  0  0  0
    4.8440    1.2986   19.0625 C   0  0  0  0  0  0  0  0  0  0  0  0
    5.4603    1.2799   17.8051 C   0  0  0  0  0  0  0  0  0  0  0  0
    6.6217    0.6405   17.5774 N   0  0  0  0  0  0  0  0  0  0  0  0
    7.2159    0.0360   18.6166 C   0  0  0  0  0  0  0  0  0  0  0  0
    8.1529   -0.4834   18.4427 H   0  0  0  0  0  0  0  0  0  0  0  0
    4.9786    1.7959   16.9818 H   0  0  0  0  0  0  0  0  0  0  0  0
    3.9029    1.8194   19.1922 H   0  0  0  0  0  0  0  0  0  0  0  0
    4.9896    0.6640   21.1287 H   0  0  0  0  0  0  0  0  0  0  0  0
    6.9770   -0.7425   22.3194 C   0  0  0  0  0  0  0  0  0  0  0  0
    7.9000   -1.5337   22.9451 C   0  0  0  0  0  0  0  0  0  0  0  0
    7.8675   -2.1211   24.2689 C   0  0  0  0  0  0  0  0  0  0  0  0
    8.5757   -3.0829   24.5344 O   0  0  0  0  0  0  0  0  0  0  0  0
    6.9590   -1.6821   25.1814 N   0  0  0  0  0  0  0  0  0  0  0  0
    6.5760   -2.3685   26.2768 C   0  0  0  0  0  0  0  0  0  0  0  0
    6.7643   -3.7391   26.4396 C   0  0  0  0  0  0  0  0  0  0  0  0
    6.1489   -4.3813   27.5103 C   0  0  0  0  0  0  0  0  0  0  0  0
    5.4029   -3.5943   28.3940 C   0  0  0  0  0  0  0  0  0  0  0  0
    4.6203   -4.3444   29.7638 Cl  0  0  0  0  0  0  0  0  0  0  0  0
    5.3225   -2.2033   28.1701 C   0  0  0  0  0  0  0  0  0  0  0  0
    4.4144   -1.0709   29.4128 Br  0  0  0  0  0  0  0  0  0  0  0  0
    5.8758   -1.6143   27.1027 N   0  0  0  0  0  0  0  0  0  0  0  0
    6.2604   -5.4529   27.6588 H   0  0  0  0  0  0  0  0  0  0  0  0
    7.3548   -4.2904   25.7175 H   0  0  0  0  0  0  0  0  0  0  0  0
    6.4912   -0.8038   25.0230 H   0  0  0  0  0  0  0  0  0  0  0  0
    6.0540   -0.3437   22.7229 H   0  0  0  0  0  0  0  0  0  0  0  0
   10.0065   -3.4042   22.7190 H   0  0  0  0  0  0  0  0  0  0  0  0
   10.7185   -1.8231   23.0710 H   0  0  0  0  0  0  0  0  0  0  0  0
   10.7928   -2.4763   21.4268 H   0  0  0  0  0  0  0  0  0  0  0  0
  1  2  1  0
  2  3  1  0
  3  4  2  0
  4  5  1  0
  5  6  2  0
  6  7  1  0
  7  8  2  0
  8  9  1  0
  9 10  2  0
 10 11  1  0
  8 12  1  0
  7 13  1  0
  6 14  1  0
  4 15  1  0
 15 16  2  0
 16 17  1  0
 17 18  2  0
 17 19  1  0
 19 20  1  0
 20 21  2  0
 21 22  1  0
 22 23  2  0
 23 24  1  0
 23 25  1  0
 25 26  1  0
 25 27  2  0
 22 28  1  0
 21 29  1  0
 19 30  1  0
 15 31  1  0
  1 32  1  0
  1 33  1  0
  1 34  1  0
 16  2  1  0
 27 20  1  0
 10  5  1  0
M  END
>  <cnnaffinity>  (1) 
-5.40468

>  <filename>  (1) 
Cn1nc(-c2cccnc2)cc1C(=O)Nc1ccc(Cl)c(Br)n1

$$$$
