
     RDKit          3D

 40 43  0  0  0  0  0  0  0  0999 V2000
   11.8648    0.3681   22.9705 C   0  0  0  0  0  0  0  0  0  0  0  0
   10.8533    1.3923   22.8791 N   0  0  0  0  0  0  0  0  0  0  0  0
   10.7874    2.3764   23.7883 N   0  0  0  0  0  0  0  0  0  0  0  0
    9.7340    3.1010   23.4290 C   0  0  0  0  0  0  0  0  0  0  0  0
    9.1296    2.5565   22.2857 C   0  0  0  0  0  0  0  0  0  0  0  0
    7.6417    3.0313   21.5800 Cl  0  0  0  0  0  0  0  0  0  0  0  0
    9.8944    1.4680   21.9298 C   0  0  0  0  0  0  0  0  0  0  0  0
    9.6218    0.4173   20.8945 C   0  0  0  0  0  0  0  0  0  0  0  0
    8.6242   -0.5863   21.3730 C   0  0  0  0  0  0  0  0  0  0  0  0
    8.8510   -1.4536   22.3316 N   0  0  0  0  0  0  0  0  0  0  0  0
    7.6463   -2.0639   22.5037 C   0  0  0  0  0  0  0  0  0  0  0  0
    7.4211   -3.1031   23.5328 C   0  0  0  0  0  0  0  0  0  0  0  0
    6.1544   -3.7114   23.6521 C   0  0  0  0  0  0  0  0  0  0  0  0
    5.9267   -4.6931   24.6125 C   0  0  0  0  0  0  0  0  0  0  0  0
    6.9698   -5.0668   25.4632 C   0  0  0  0  0  0  0  0  0  0  0  0
    6.6828   -6.2895   26.6619 Cl  0  0  0  0  0  0  0  0  0  0  0  0
    8.2334   -4.4782   25.3711 C   0  0  0  0  0  0  0  0  0  0  0  0
    8.4567   -3.4965   24.4061 C   0  0  0  0  0  0  0  0  0  0  0  0
    9.4384   -3.0345   24.3337 H   0  0  0  0  0  0  0  0  0  0  0  0
    9.0190   -4.7936   26.0515 H   0  0  0  0  0  0  0  0  0  0  0  0
    4.9560   -5.1673   24.7139 H   0  0  0  0  0  0  0  0  0  0  0  0
    5.3504   -3.4012   22.9883 H   0  0  0  0  0  0  0  0  0  0  0  0
    6.7038   -1.6330   21.6804 N   0  0  0  0  0  0  0  0  0  0  0  0
    7.3379   -0.6983   20.9315 N   0  0  0  0  0  0  0  0  0  0  0  0
    6.6465   -0.0006   19.8990 C   0  0  0  0  0  0  0  0  0  0  0  0
    5.4311    0.6357   20.1664 C   0  0  0  0  0  0  0  0  0  0  0  0
    4.8099    1.3059   19.1068 C   0  0  0  0  0  0  0  0  0  0  0  0
    5.3979    1.2961   17.8355 C   0  0  0  0  0  0  0  0  0  0  0  0
    6.5529    0.6678   17.5721 N   0  0  0  0  0  0  0  0  0  0  0  0
    7.1600    0.0478   18.5897 C   0  0  0  0  0  0  0  0  0  0  0  0
    8.1068   -0.4342   18.3619 H   0  0  0  0  0  0  0  0  0  0  0  0
    4.9253    1.7914   16.9912 H   0  0  0  0  0  0  0  0  0  0  0  0
    3.8826    1.8401   19.2587 H   0  0  0  0  0  0  0  0  0  0  0  0
    5.0124    0.6015   21.1758 H   0  0  0  0  0  0  0  0  0  0  0  0
   10.5308   -0.1343   20.6307 H   0  0  0  0  0  0  0  0  0  0  0  0
    9.2355    0.9225   20.0113 H   0  0  0  0  0  0  0  0  0  0  0  0
    9.4237    3.9893   23.9604 H   0  0  0  0  0  0  0  0  0  0  0  0
   11.3957   -0.6177   23.0247 H   0  0  0  0  0  0  0  0  0  0  0  0
   12.5180    0.4066   22.0985 H   0  0  0  0  0  0  0  0  0  0  0  0
   12.4445    0.5732   23.8619 H   0  0  0  0  0  0  0  0  0  0  0  0
  1  2  1  0
  2  3  1  0
  3  4  2  0
  4  5  1  0
  5  6  1  0
  5  7  2  0
  7  8  1  0
  8  9  1  0
  9 10  2  0
 10 11  1  0
 11 12  1  0
 12 13  2  0
 13 14  1  0
 14 15  2  0
 15 16  1  0
 15 17  1  0
 17 18  2  0
 18 19  1  0
 17 20  1  0
 14 21  1  0
 13 22  1  0
 11 23  2  0
 23 24  1  0
 24 25  1  0
 25 26  2  0
 26 27  1  0
 27 28  2  0
 28 29  1  0
 29 30  2  0
 30 31  1  0
 28 32  1  0
 27 33  1  0
 26 34  1  0
  8 35  1  0
  8 36  1  0
  4 37  1  0
  1 38  1  0
  1 39  1  0
  1 40  1  0
  7  2  1  0
 24  9  1  0
 30 25  1  0
 18 12  1  0
M  END
>  <cnnaffinity>  (1) 
-6.18582

>  <filename>  (1) 
Cn1ncc(Cl)c1Cc1nc(-c2ccc(Cl)cc2)nn1-c1cccnc1

$$$$
