
     RDKit          3D

 43 46  0  0  0  0  0  0  0  0999 V2000
    5.8959   -4.8113   23.4857 C   0  0  0  0  0  0  0  0  0  0  0  0
    5.9183   -4.8296   22.0398 N   0  0  0  0  0  0  0  0  0  0  0  0
    6.1114   -5.9675   21.3701 N   0  0  0  0  0  0  0  0  0  0  0  0
    6.0657   -5.6287   20.0876 C   0  0  0  0  0  0  0  0  0  0  0  0
    5.8249   -4.2434   19.9491 C   0  0  0  0  0  0  0  0  0  0  0  0
    5.5964   -3.2950   18.5274 Cl  0  0  0  0  0  0  0  0  0  0  0  0
    5.7528   -3.7521   21.2342 C   0  0  0  0  0  0  0  0  0  0  0  0
    5.7092   -2.3608   21.7877 C   0  0  0  0  0  0  0  0  0  0  0  0
    7.0184   -1.6613   21.7472 C   0  0  0  0  0  0  0  0  0  0  0  0
    7.9906   -1.9703   22.5724 N   0  0  0  0  0  0  0  0  0  0  0  0
    9.0083   -1.1671   22.1611 C   0  0  0  0  0  0  0  0  0  0  0  0
   10.3065   -1.1998   22.8563 C   0  0  0  0  0  0  0  0  0  0  0  0
   10.3007   -1.2601   24.3588 C   0  0  0  0  0  0  0  0  0  0  0  0
   10.8157   -0.0286   23.6638 C   0  0  0  0  0  0  0  0  0  0  0  0
    9.9363    1.2061   23.7230 C   0  0  0  0  0  0  0  0  0  0  0  0
   10.2108    1.8599   24.5578 H   0  0  0  0  0  0  0  0  0  0  0  0
   10.0305    1.7741   22.7904 H   0  0  0  0  0  0  0  0  0  0  0  0
    8.8785    0.9434   23.8286 H   0  0  0  0  0  0  0  0  0  0  0  0
   12.2971    0.2763   23.5781 C   0  0  0  0  0  0  0  0  0  0  0  0
   12.4739    0.9762   22.7554 H   0  0  0  0  0  0  0  0  0  0  0  0
   12.6708    0.7394   24.4987 H   0  0  0  0  0  0  0  0  0  0  0  0
   12.9062   -0.6077   23.3731 H   0  0  0  0  0  0  0  0  0  0  0  0
   10.9351   -2.0001   24.8221 H   0  0  0  0  0  0  0  0  0  0  0  0
    9.3312   -1.1569   24.8432 H   0  0  0  0  0  0  0  0  0  0  0  0
   11.0526   -1.8169   22.3590 H   0  0  0  0  0  0  0  0  0  0  0  0
    8.7273   -0.3900   21.1320 N   0  0  0  0  0  0  0  0  0  0  0  0
    7.4146   -0.6828   20.8933 N   0  0  0  0  0  0  0  0  0  0  0  0
    6.6822    0.0119   19.8954 C   0  0  0  0  0  0  0  0  0  0  0  0
    5.4583    0.6491   20.1557 C   0  0  0  0  0  0  0  0  0  0  0  0
    4.8234    1.3061   19.0951 C   0  0  0  0  0  0  0  0  0  0  0  0
    5.4248    1.2925   17.8334 C   0  0  0  0  0  0  0  0  0  0  0  0
    6.6001    0.6883   17.5838 N   0  0  0  0  0  0  0  0  0  0  0  0
    7.2183    0.0808   18.6002 C   0  0  0  0  0  0  0  0  0  0  0  0
    8.1813   -0.3857   18.3992 H   0  0  0  0  0  0  0  0  0  0  0  0
    4.9516    1.7846   16.9873 H   0  0  0  0  0  0  0  0  0  0  0  0
    3.8829    1.8259   19.2399 H   0  0  0  0  0  0  0  0  0  0  0  0
    5.0338    0.6629   21.1621 H   0  0  0  0  0  0  0  0  0  0  0  0
    4.9711   -1.7441   21.2947 H   0  0  0  0  0  0  0  0  0  0  0  0
    5.4719   -2.4256   22.8519 H   0  0  0  0  0  0  0  0  0  0  0  0
    6.2111   -6.3916   19.3374 H   0  0  0  0  0  0  0  0  0  0  0  0
    6.1371   -5.8088   23.8426 H   0  0  0  0  0  0  0  0  0  0  0  0
    6.6329   -4.0857   23.8434 H   0  0  0  0  0  0  0  0  0  0  0  0
    4.9028   -4.5198   23.8418 H   0  0  0  0  0  0  0  0  0  0  0  0
  1  2  1  0
  2  3  1  0
  3  4  2  0
  4  5  1  0
  5  6  1  0
  5  7  2  0
  7  8  1  0
  8  9  1  0
  9 10  2  0
 10 11  1  0
 11 12  1  0
 12 13  1  0
 13 14  1  0
 14 15  1  0
 15 16  1  0
 15 17  1  0
 15 18  1  0
 14 19  1  0
 19 20  1  0
 19 21  1  0
 19 22  1  0
 13 23  1  0
 13 24  1  0
 12 25  1  0
 11 26  2  0
 26 27  1  0
 27 28  1  0
 28 29  2  0
 29 30  1  0
 30 31  2  0
 31 32  1  0
 32 33  2  0
 33 34  1  0
 31 35  1  0
 30 36  1  0
 29 37  1  0
  8 38  1  0
  8 39  1  0
  4 40  1  0
  1 41  1  0
  1 42  1  0
  1 43  1  0
  7  2  1  0
 27  9  1  0
 33 28  1  0
 14 12  1  0
M  END
>  <cnnaffinity>  (1) 
-6.31854

>  <filename>  (1) 
Cn1ncc(Cl)c1Cc1nc(C2CC2(C)C)nn1-c1cccnc1

$$$$
