
     RDKit          3D

 44 47  0  0  0  0  0  0  0  0999 V2000
   12.2652   -1.2392   21.4358 C   0  0  0  0  0  0  0  0  0  0  0  0
   11.8414    0.0604   21.9037 N   0  0  0  0  0  0  0  0  0  0  0  0
   12.5192    0.6504   22.8976 N   0  0  0  0  0  0  0  0  0  0  0  0
   11.7989    1.7155   23.2140 C   0  0  0  0  0  0  0  0  0  0  0  0
   10.6433    1.8185   22.4146 C   0  0  0  0  0  0  0  0  0  0  0  0
   10.7018    0.7240   21.5770 C   0  0  0  0  0  0  0  0  0  0  0  0
    9.6556    0.1796   20.6457 C   0  0  0  0  0  0  0  0  0  0  0  0
    8.6146   -0.6483   21.3296 C   0  0  0  0  0  0  0  0  0  0  0  0
    8.8244   -1.4898   22.3203 N   0  0  0  0  0  0  0  0  0  0  0  0
    7.5928   -2.0075   22.5531 C   0  0  0  0  0  0  0  0  0  0  0  0
    7.3443   -2.9669   23.6700 C   0  0  0  0  0  0  0  0  0  0  0  0
    6.5515   -2.2925   24.8224 C   0  0  0  0  0  0  0  0  0  0  0  0
    6.0400   -3.2890   25.8267 C   0  0  0  0  0  0  0  0  0  0  0  0
    5.9964   -4.6029   25.6099 C   0  0  0  0  0  0  0  0  0  0  0  0
    6.4676   -5.2590   24.3340 C   0  0  0  0  0  0  0  0  0  0  0  0
    6.6397   -4.2551   23.1858 C   0  0  0  0  0  0  0  0  0  0  0  0
    5.6603   -3.9730   22.7786 H   0  0  0  0  0  0  0  0  0  0  0  0
    7.2066   -4.7158   22.3673 H   0  0  0  0  0  0  0  0  0  0  0  0
    7.4246   -5.7629   24.5331 H   0  0  0  0  0  0  0  0  0  0  0  0
    5.7681   -6.0548   24.0458 H   0  0  0  0  0  0  0  0  0  0  0  0
    5.6119   -5.2600   26.3882 H   0  0  0  0  0  0  0  0  0  0  0  0
    5.6882   -2.8850   26.7743 H   0  0  0  0  0  0  0  0  0  0  0  0
    5.6994   -1.7350   24.4129 H   0  0  0  0  0  0  0  0  0  0  0  0
    7.1768   -1.5438   25.3271 H   0  0  0  0  0  0  0  0  0  0  0  0
    8.3398   -3.2265   24.0506 H   0  0  0  0  0  0  0  0  0  0  0  0
    6.6435   -1.5624   21.7462 N   0  0  0  0  0  0  0  0  0  0  0  0
    7.3092   -0.7032   20.9382 N   0  0  0  0  0  0  0  0  0  0  0  0
    6.6334   -0.0192   19.8906 C   0  0  0  0  0  0  0  0  0  0  0  0
    5.4229    0.6300   20.1500 C   0  0  0  0  0  0  0  0  0  0  0  0
    4.8007    1.3074   19.1008 C   0  0  0  0  0  0  0  0  0  0  0  0
    5.3986    1.2950   17.8362 C   0  0  0  0  0  0  0  0  0  0  0  0
    6.5462    0.6510   17.5702 N   0  0  0  0  0  0  0  0  0  0  0  0
    7.1508    0.0167   18.5816 C   0  0  0  0  0  0  0  0  0  0  0  0
    8.0955   -0.4789   18.3431 H   0  0  0  0  0  0  0  0  0  0  0  0
    4.9406    1.8224   17.0065 H   0  0  0  0  0  0  0  0  0  0  0  0
    3.8742    1.8483   19.2578 H   0  0  0  0  0  0  0  0  0  0  0  0
    5.0029    0.5932   21.1538 H   0  0  0  0  0  0  0  0  0  0  0  0
    9.1609    1.0125   20.1491 H   0  0  0  0  0  0  0  0  0  0  0  0
   10.0934   -0.4657   19.8757 H   0  0  0  0  0  0  0  0  0  0  0  0
    9.8619    2.5646   22.4645 H   0  0  0  0  0  0  0  0  0  0  0  0
   12.1228    2.3329   24.0384 H   0  0  0  0  0  0  0  0  0  0  0  0
   12.4952   -1.2116   20.3690 H   0  0  0  0  0  0  0  0  0  0  0  0
   11.4806   -1.9715   21.6412 H   0  0  0  0  0  0  0  0  0  0  0  0
   13.1687   -1.5029   21.9805 H   0  0  0  0  0  0  0  0  0  0  0  0
  1  2  1  0
  2  3  1  0
  3  4  2  0
  4  5  1  0
  5  6  2  0
  6  7  1  0
  7  8  1  0
  8  9  2  0
  9 10  1  0
 10 11  1  0
 11 12  1  0
 12 13  1  0
 13 14  2  0
 14 15  1  0
 15 16  1  0
 16 17  1  0
 16 18  1  0
 15 19  1  0
 15 20  1  0
 14 21  1  0
 13 22  1  0
 12 23  1  0
 12 24  1  0
 11 25  1  0
 10 26  2  0
 26 27  1  0
 27 28  1  0
 28 29  2  0
 29 30  1  0
 30 31  2  0
 31 32  1  0
 32 33  2  0
 33 34  1  0
 31 35  1  0
 30 36  1  0
 29 37  1  0
  7 38  1  0
  7 39  1  0
  5 40  1  0
  4 41  1  0
  1 42  1  0
  1 43  1  0
  1 44  1  0
  6  2  1  0
 27  8  1  0
 33 28  1  0
 16 11  1  0
M  END
>  <cnnaffinity>  (1) 
-6.46993

>  <filename>  (1) 
Cn1nccc1Cc1nc(C2CC=CCC2)nn1-c1cccnc1

$$$$
