
     RDKit          3D

 44 47  0  0  0  0  0  0  0  0999 V2000
    7.9813    2.7366   21.9999 C   0  0  0  0  0  0  0  0  0  0  0  0
    9.3005    2.3502   22.4453 N   0  0  0  0  0  0  0  0  0  0  0  0
    9.8106    2.9542   23.5268 N   0  0  0  0  0  0  0  0  0  0  0  0
   10.9728    2.3572   23.7487 C   0  0  0  0  0  0  0  0  0  0  0  0
   11.1913    1.3445   22.7924 C   0  0  0  0  0  0  0  0  0  0  0  0
   12.5310    0.2672   22.6781 Cl  0  0  0  0  0  0  0  0  0  0  0  0
   10.0846    1.3459   21.9684 C   0  0  0  0  0  0  0  0  0  0  0  0
    9.6472    0.3690   20.9068 C   0  0  0  0  0  0  0  0  0  0  0  0
    8.5930   -0.5872   21.3771 C   0  0  0  0  0  0  0  0  0  0  0  0
    8.7995   -1.4605   22.3433 N   0  0  0  0  0  0  0  0  0  0  0  0
    7.5913   -2.0554   22.4906 C   0  0  0  0  0  0  0  0  0  0  0  0
    7.3604   -3.0607   23.5743 C   0  0  0  0  0  0  0  0  0  0  0  0
    6.5459   -2.4477   24.7455 C   0  0  0  0  0  0  0  0  0  0  0  0
    6.0533   -3.4888   25.7117 C   0  0  0  0  0  0  0  0  0  0  0  0
    6.0513   -4.7962   25.4565 C   0  0  0  0  0  0  0  0  0  0  0  0
    6.5558   -5.3975   24.1681 C   0  0  0  0  0  0  0  0  0  0  0  0
    6.7073   -4.3569   23.0487 C   0  0  0  0  0  0  0  0  0  0  0  0
    5.7234   -4.0984   22.6409 H   0  0  0  0  0  0  0  0  0  0  0  0
    7.2998   -4.7763   22.2265 H   0  0  0  0  0  0  0  0  0  0  0  0
    5.8800   -6.1989   23.8476 H   0  0  0  0  0  0  0  0  0  0  0  0
    7.5225   -5.8836   24.3623 H   0  0  0  0  0  0  0  0  0  0  0  0
    5.6852   -5.4865   26.2143 H   0  0  0  0  0  0  0  0  0  0  0  0
    5.6677   -3.1244   26.6610 H   0  0  0  0  0  0  0  0  0  0  0  0
    5.6844   -1.8949   24.3529 H   0  0  0  0  0  0  0  0  0  0  0  0
    7.1539   -1.7057   25.2781 H   0  0  0  0  0  0  0  0  0  0  0  0
    8.3610   -3.2944   23.9524 H   0  0  0  0  0  0  0  0  0  0  0  0
    6.6546   -1.6287   21.6617 N   0  0  0  0  0  0  0  0  0  0  0  0
    7.3150   -0.7003   20.9109 N   0  0  0  0  0  0  0  0  0  0  0  0
    6.6256   -0.0205   19.8708 C   0  0  0  0  0  0  0  0  0  0  0  0
    5.4164    0.6311   20.1360 C   0  0  0  0  0  0  0  0  0  0  0  0
    4.7951    1.3156   19.0903 C   0  0  0  0  0  0  0  0  0  0  0  0
    5.3877    1.3065   17.8233 C   0  0  0  0  0  0  0  0  0  0  0  0
    6.5281    0.6532   17.5514 N   0  0  0  0  0  0  0  0  0  0  0  0
    7.1321    0.0071   18.5564 C   0  0  0  0  0  0  0  0  0  0  0  0
    8.0646   -0.5128   18.3194 H   0  0  0  0  0  0  0  0  0  0  0  0
    4.9315    1.8443   16.9977 H   0  0  0  0  0  0  0  0  0  0  0  0
    3.8736    1.8572   19.2513 H   0  0  0  0  0  0  0  0  0  0  0  0
    4.9980    0.5880   21.1431 H   0  0  0  0  0  0  0  0  0  0  0  0
   10.5118   -0.2384   20.6274 H   0  0  0  0  0  0  0  0  0  0  0  0
    9.3022    0.8897   20.0121 H   0  0  0  0  0  0  0  0  0  0  0  0
   11.5767    2.6558   24.5929 H   0  0  0  0  0  0  0  0  0  0  0  0
    7.7709    3.7384   22.3653 H   0  0  0  0  0  0  0  0  0  0  0  0
    7.9503    2.7450   20.9164 H   0  0  0  0  0  0  0  0  0  0  0  0
    7.2238    2.0450   22.3707 H   0  0  0  0  0  0  0  0  0  0  0  0
  1  2  1  0
  2  3  1  0
  3  4  2  0
  4  5  1  0
  5  6  1  0
  5  7  2  0
  7  8  1  0
  8  9  1  0
  9 10  2  0
 10 11  1  0
 11 12  1  0
 12 13  1  0
 13 14  1  0
 14 15  2  0
 15 16  1  0
 16 17  1  0
 17 18  1  0
 17 19  1  0
 16 20  1  0
 16 21  1  0
 15 22  1  0
 14 23  1  0
 13 24  1  0
 13 25  1  0
 12 26  1  0
 11 27  2  0
 27 28  1  0
 28 29  1  0
 29 30  2  0
 30 31  1  0
 31 32  2  0
 32 33  1  0
 33 34  2  0
 34 35  1  0
 32 36  1  0
 31 37  1  0
 30 38  1  0
  8 39  1  0
  8 40  1  0
  4 41  1  0
  1 42  1  0
  1 43  1  0
  1 44  1  0
  7  2  1  0
 28  9  1  0
 34 29  1  0
 17 12  1  0
M  END
>  <cnnaffinity>  (1) 
-6.83884

>  <filename>  (1) 
Cn1ncc(Cl)c1Cc1nc(C2CC=CCC2)nn1-c1cccnc1

$$$$
