
     RDKit          3D

 36 38  0  0  0  0  0  0  0  0999 V2000
    7.3938   -1.4852   24.4010 C   0  0  0  0  0  0  0  0  0  0  0  0
    7.6069   -1.1495   23.0045 N   0  0  0  0  0  0  0  0  0  0  0  0
    6.7305   -0.3832   22.3250 N   0  0  0  0  0  0  0  0  0  0  0  0
    7.1827   -0.4408   21.0865 C   0  0  0  0  0  0  0  0  0  0  0  0
    6.5264    0.1909   19.9477 C   0  0  0  0  0  0  0  0  0  0  0  0
    5.2968    0.8620   20.0470 C   0  0  0  0  0  0  0  0  0  0  0  0
    4.7666    1.4137   18.8847 C   0  0  0  0  0  0  0  0  0  0  0  0
    5.4783    1.2856   17.6849 C   0  0  0  0  0  0  0  0  0  0  0  0
    6.6505    0.6407   17.5809 N   0  0  0  0  0  0  0  0  0  0  0  0
    7.1554    0.1048   18.6984 C   0  0  0  0  0  0  0  0  0  0  0  0
    8.1036   -0.4206   18.6084 H   0  0  0  0  0  0  0  0  0  0  0  0
    5.0843    1.7148   16.7670 H   0  0  0  0  0  0  0  0  0  0  0  0
    3.8252    1.9510   18.8983 H   0  0  0  0  0  0  0  0  0  0  0  0
    4.7880    0.9467   21.0105 H   0  0  0  0  0  0  0  0  0  0  0  0
    8.3029   -1.1983   20.9297 N   0  0  0  0  0  0  0  0  0  0  0  0
    8.5435   -1.6254   22.1542 C   0  0  0  0  0  0  0  0  0  0  0  0
    9.5612   -2.6383   22.5760 C   0  0  0  0  0  0  0  0  0  0  0  0
    8.9205   -4.0101   22.8071 C   0  0  0  0  0  0  0  0  0  0  0  0
    7.9932   -4.4721   21.8575 C   0  0  0  0  0  0  0  0  0  0  0  0
    7.5021   -5.7743   21.9027 C   0  0  0  0  0  0  0  0  0  0  0  0
    7.9535   -6.6467   22.8886 C   0  0  0  0  0  0  0  0  0  0  0  0
    8.8379   -6.1969   23.8716 C   0  0  0  0  0  0  0  0  0  0  0  0
    9.2746   -4.8622   23.8693 C   0  0  0  0  0  0  0  0  0  0  0  0
   10.1570   -4.3677   25.0018 C   0  0  0  0  0  0  0  0  0  0  0  0
   10.3850   -5.3012   25.9414 F   0  0  0  0  0  0  0  0  0  0  0  0
   11.3612   -3.9700   24.5436 F   0  0  0  0  0  0  0  0  0  0  0  0
    9.6205   -3.3107   25.6558 F   0  0  0  0  0  0  0  0  0  0  0  0
    9.2018   -6.8490   24.6628 H   0  0  0  0  0  0  0  0  0  0  0  0
    7.6111   -7.6721   22.8348 H   0  0  0  0  0  0  0  0  0  0  0  0
    6.7568   -6.1167   21.1888 H   0  0  0  0  0  0  0  0  0  0  0  0
    7.6867   -3.7904   21.0679 H   0  0  0  0  0  0  0  0  0  0  0  0
   10.2927   -2.7225   21.7644 H   0  0  0  0  0  0  0  0  0  0  0  0
   10.0933   -2.2802   23.4602 H   0  0  0  0  0  0  0  0  0  0  0  0
    8.2230   -1.1400   25.0233 H   0  0  0  0  0  0  0  0  0  0  0  0
    7.2889   -2.5690   24.5117 H   0  0  0  0  0  0  0  0  0  0  0  0
    6.4735   -1.0045   24.7323 H   0  0  0  0  0  0  0  0  0  0  0  0
  1  2  1  0
  2  3  1  0
  3  4  2  0
  4  5  1  0
  5  6  2  0
  6  7  1  0
  7  8  2  0
  8  9  1  0
  9 10  2  0
 10 11  1  0
  8 12  1  0
  7 13  1  0
  6 14  1  0
  4 15  1  0
 15 16  2  0
 16 17  1  0
 17 18  1  0
 18 19  2  0
 19 20  1  0
 20 21  2  0
 21 22  1  0
 22 23  2  0
 23 24  1  0
 24 25  1  0
 24 26  1  0
 24 27  1  0
 22 28  1  0
 21 29  1  0
 20 30  1  0
 19 31  1  0
 17 32  1  0
 17 33  1  0
  1 34  1  0
  1 35  1  0
  1 36  1  0
 16  2  1  0
 23 18  1  0
 10  5  1  0
M  END
>  <cnnaffinity>  (1) 
-6.04446

>  <filename>  (1) 
Cn1nc(-c2cccnc2)nc1Cc1ccccc1C(F)(F)F

$$$$
