
     RDKit          3D

 40 43  0  0  0  0  0  0  0  0999 V2000
    8.0616    2.7686   21.9668 C   0  0  0  0  0  0  0  0  0  0  0  0
    9.3401    2.3157   22.4656 N   0  0  0  0  0  0  0  0  0  0  0  0
    9.8449    2.8963   23.5620 N   0  0  0  0  0  0  0  0  0  0  0  0
   10.9787    2.2589   23.8078 C   0  0  0  0  0  0  0  0  0  0  0  0
   11.1880    1.2433   22.8538 C   0  0  0  0  0  0  0  0  0  0  0  0
   12.5065    0.1396   22.7388 Cl  0  0  0  0  0  0  0  0  0  0  0  0
   10.1005    1.2881   22.0041 C   0  0  0  0  0  0  0  0  0  0  0  0
    9.6546    0.3414   20.9193 C   0  0  0  0  0  0  0  0  0  0  0  0
    8.5887   -0.6112   21.3715 C   0  0  0  0  0  0  0  0  0  0  0  0
    8.7965   -1.4784   22.3288 N   0  0  0  0  0  0  0  0  0  0  0  0
    7.5950   -2.0726   22.5066 C   0  0  0  0  0  0  0  0  0  0  0  0
    7.3653   -3.1089   23.5316 C   0  0  0  0  0  0  0  0  0  0  0  0
    6.2134   -3.9190   23.4368 C   0  0  0  0  0  0  0  0  0  0  0  0
    5.9617   -4.9229   24.3648 C   0  0  0  0  0  0  0  0  0  0  0  0
    6.8512   -5.1302   25.4204 C   0  0  0  0  0  0  0  0  0  0  0  0
    7.9865   -4.3332   25.5496 C   0  0  0  0  0  0  0  0  0  0  0  0
    8.2454   -3.3257   24.6156 C   0  0  0  0  0  0  0  0  0  0  0  0
    9.6685   -2.3703   24.9174 Cl  0  0  0  0  0  0  0  0  0  0  0  0
    8.6774   -4.4712   26.3745 H   0  0  0  0  0  0  0  0  0  0  0  0
    6.6589   -5.9088   26.1490 H   0  0  0  0  0  0  0  0  0  0  0  0
    5.0743   -5.5375   24.2630 H   0  0  0  0  0  0  0  0  0  0  0  0
    5.5148   -3.7314   22.6248 H   0  0  0  0  0  0  0  0  0  0  0  0
    6.6553   -1.6463   21.6720 N   0  0  0  0  0  0  0  0  0  0  0  0
    7.3039   -0.7196   20.9208 N   0  0  0  0  0  0  0  0  0  0  0  0
    6.6156   -0.0409   19.8745 C   0  0  0  0  0  0  0  0  0  0  0  0
    5.4086    0.6145   20.1402 C   0  0  0  0  0  0  0  0  0  0  0  0
    4.7935    1.3090   19.0952 C   0  0  0  0  0  0  0  0  0  0  0  0
    5.3919    1.3032   17.8313 C   0  0  0  0  0  0  0  0  0  0  0  0
    6.5278    0.6417   17.5589 N   0  0  0  0  0  0  0  0  0  0  0  0
    7.1234   -0.0138   18.5630 C   0  0  0  0  0  0  0  0  0  0  0  0
    8.0538   -0.5353   18.3248 H   0  0  0  0  0  0  0  0  0  0  0  0
    4.9414    1.8511   17.0066 H   0  0  0  0  0  0  0  0  0  0  0  0
    3.8754    1.8630   19.2553 H   0  0  0  0  0  0  0  0  0  0  0  0
    4.9892    0.5761   21.1461 H   0  0  0  0  0  0  0  0  0  0  0  0
    9.3176    0.8841   20.0353 H   0  0  0  0  0  0  0  0  0  0  0  0
   10.5137   -0.2696   20.6292 H   0  0  0  0  0  0  0  0  0  0  0  0
   11.5778    2.5481   24.6607 H   0  0  0  0  0  0  0  0  0  0  0  0
    7.8841    3.7821   22.3202 H   0  0  0  0  0  0  0  0  0  0  0  0
    7.2579    2.1125   22.3044 H   0  0  0  0  0  0  0  0  0  0  0  0
    8.0746    2.7776   20.8832 H   0  0  0  0  0  0  0  0  0  0  0  0
  1  2  1  0
  2  3  1  0
  3  4  2  0
  4  5  1  0
  5  6  1  0
  5  7  2  0
  7  8  1  0
  8  9  1  0
  9 10  2  0
 10 11  1  0
 11 12  1  0
 12 13  2  0
 13 14  1  0
 14 15  2  0
 15 16  1  0
 16 17  2  0
 17 18  1  0
 16 19  1  0
 15 20  1  0
 14 21  1  0
 13 22  1  0
 11 23  2  0
 23 24  1  0
 24 25  1  0
 25 26  2  0
 26 27  1  0
 27 28  2  0
 28 29  1  0
 29 30  2  0
 30 31  1  0
 28 32  1  0
 27 33  1  0
 26 34  1  0
  8 35  1  0
  8 36  1  0
  4 37  1  0
  1 38  1  0
  1 39  1  0
  1 40  1  0
  7  2  1  0
 24  9  1  0
 30 25  1  0
 17 12  1  0
M  END
>  <cnnaffinity>  (1) 
-6.79304

>  <filename>  (1) 
Cn1ncc(Cl)c1Cc1nc(-c2ccccc2Cl)nn1-c1cccnc1

$$$$
