
     RDKit          3D

 46 49  0  0  0  0  0  0  0  0999 V2000
   11.8924    0.3706   22.9371 C   0  0  0  0  0  0  0  0  0  0  0  0
   10.8713    1.3888   22.8654 N   0  0  0  0  0  0  0  0  0  0  0  0
   10.8087    2.3684   23.7796 N   0  0  0  0  0  0  0  0  0  0  0  0
    9.7474    3.0895   23.4352 C   0  0  0  0  0  0  0  0  0  0  0  0
    9.1353    2.5488   22.2943 C   0  0  0  0  0  0  0  0  0  0  0  0
    7.6510    3.0319   21.5853 Cl  0  0  0  0  0  0  0  0  0  0  0  0
    9.9015    1.4658   21.9274 C   0  0  0  0  0  0  0  0  0  0  0  0
    9.6248    0.4230   20.8885 C   0  0  0  0  0  0  0  0  0  0  0  0
    8.6280   -0.5765   21.3677 C   0  0  0  0  0  0  0  0  0  0  0  0
    8.8636   -1.4454   22.3317 N   0  0  0  0  0  0  0  0  0  0  0  0
    7.6614   -2.0484   22.4985 C   0  0  0  0  0  0  0  0  0  0  0  0
    7.4033   -3.0715   23.5597 C   0  0  0  0  0  0  0  0  0  0  0  0
    6.4517   -2.5221   24.6562 C   0  0  0  0  0  0  0  0  0  0  0  0
    6.1573   -3.5782   25.7309 C   0  0  0  0  0  0  0  0  0  0  0  0
    5.6545   -4.8769   25.1180 C   0  0  0  0  0  0  0  0  0  0  0  0
    5.4751   -5.8152   26.0993 F   0  0  0  0  0  0  0  0  0  0  0  0
    4.4105   -4.6594   24.5711 F   0  0  0  0  0  0  0  0  0  0  0  0
    6.5712   -5.4317   24.0379 C   0  0  0  0  0  0  0  0  0  0  0  0
    6.8639   -4.3886   22.9504 C   0  0  0  0  0  0  0  0  0  0  0  0
    5.9476   -4.1629   22.3895 H   0  0  0  0  0  0  0  0  0  0  0  0
    7.5817   -4.7955   22.2282 H   0  0  0  0  0  0  0  0  0  0  0  0
    7.4977   -5.7404   24.5370 H   0  0  0  0  0  0  0  0  0  0  0  0
    6.1056   -6.3285   23.6203 H   0  0  0  0  0  0  0  0  0  0  0  0
    5.4122   -3.2249   26.4499 H   0  0  0  0  0  0  0  0  0  0  0  0
    7.0672   -3.8210   26.2918 H   0  0  0  0  0  0  0  0  0  0  0  0
    5.5138   -2.2152   24.1830 H   0  0  0  0  0  0  0  0  0  0  0  0
    6.8766   -1.6238   25.1206 H   0  0  0  0  0  0  0  0  0  0  0  0
    8.3771   -3.2651   24.0193 H   0  0  0  0  0  0  0  0  0  0  0  0
    6.7138   -1.6293   21.6784 N   0  0  0  0  0  0  0  0  0  0  0  0
    7.3452   -0.6916   20.9260 N   0  0  0  0  0  0  0  0  0  0  0  0
    6.6451   -0.0024   19.8975 C   0  0  0  0  0  0  0  0  0  0  0  0
    5.4301    0.6345   20.1672 C   0  0  0  0  0  0  0  0  0  0  0  0
    4.8101    1.3053   19.1072 C   0  0  0  0  0  0  0  0  0  0  0  0
    5.3972    1.2962   17.8358 C   0  0  0  0  0  0  0  0  0  0  0  0
    6.5533    0.6684   17.5712 N   0  0  0  0  0  0  0  0  0  0  0  0
    7.1585    0.0473   18.5890 C   0  0  0  0  0  0  0  0  0  0  0  0
    8.1070   -0.4331   18.3626 H   0  0  0  0  0  0  0  0  0  0  0  0
    4.9241    1.7912   16.9922 H   0  0  0  0  0  0  0  0  0  0  0  0
    3.8829    1.8401   19.2586 H   0  0  0  0  0  0  0  0  0  0  0  0
    5.0108    0.6043   21.1768 H   0  0  0  0  0  0  0  0  0  0  0  0
    9.2340    0.9308   20.0087 H   0  0  0  0  0  0  0  0  0  0  0  0
   10.5279   -0.1360   20.6231 H   0  0  0  0  0  0  0  0  0  0  0  0
    9.4406    3.9727   23.9766 H   0  0  0  0  0  0  0  0  0  0  0  0
   12.5410    0.4269   22.0619 H   0  0  0  0  0  0  0  0  0  0  0  0
   11.4312   -0.6200   22.9791 H   0  0  0  0  0  0  0  0  0  0  0  0
   12.4767    0.5656   23.8283 H   0  0  0  0  0  0  0  0  0  0  0  0
  1  2  1  0
  2  3  1  0
  3  4  2  0
  4  5  1  0
  5  6  1  0
  5  7  2  0
  7  8  1  0
  8  9  1  0
  9 10  2  0
 10 11  1  0
 11 12  1  0
 12 13  1  0
 13 14  1  0
 14 15  1  0
 15 16  1  0
 15 17  1  0
 15 18  1  0
 18 19  1  0
 19 20  1  0
 19 21  1  0
 18 22  1  0
 18 23  1  0
 14 24  1  0
 14 25  1  0
 13 26  1  0
 13 27  1  0
 12 28  1  0
 11 29  2  0
 29 30  1  0
 30 31  1  0
 31 32  2  0
 32 33  1  0
 33 34  2  0
 34 35  1  0
 35 36  2  0
 36 37  1  0
 34 38  1  0
 33 39  1  0
 32 40  1  0
  8 41  1  0
  8 42  1  0
  4 43  1  0
  1 44  1  0
  1 45  1  0
  1 46  1  0
  7  2  1  0
 30  9  1  0
 36 31  1  0
 19 12  1  0
M  END
>  <cnnaffinity>  (1) 
-6.58702

>  <filename>  (1) 
Cn1ncc(Cl)c1Cc1nc(C2CCC(F)(F)CC2)nn1-c1cccnc1

$$$$
