
     RDKit          3D

 43 46  0  0  0  0  0  0  0  0999 V2000
   11.2499   -1.2394   21.6671 C   0  0  0  0  0  0  0  0  0  0  0  0
   11.8025    0.0891   21.8202 N   0  0  0  0  0  0  0  0  0  0  0  0
   13.0057    0.2088   22.3999 N   0  0  0  0  0  0  0  0  0  0  0  0
   13.2231    1.5111   22.5000 C   0  0  0  0  0  0  0  0  0  0  0  0
   12.1291    2.2292   21.9845 C   0  0  0  0  0  0  0  0  0  0  0  0
   11.9361    3.9380   21.9699 Cl  0  0  0  0  0  0  0  0  0  0  0  0
   11.2140    1.2881   21.5469 C   0  0  0  0  0  0  0  0  0  0  0  0
    9.7944    1.4509   21.0560 C   0  0  0  0  0  0  0  0  0  0  0  0
    8.7692    1.1538   22.1070 C   0  0  0  0  0  0  0  0  0  0  0  0
    8.7044    1.8533   23.2169 N   0  0  0  0  0  0  0  0  0  0  0  0
    7.6594    1.3052   23.8820 C   0  0  0  0  0  0  0  0  0  0  0  0
    7.2264    1.8364   25.1825 C   0  0  0  0  0  0  0  0  0  0  0  0
    7.9552    2.8812   25.7833 C   0  0  0  0  0  0  0  0  0  0  0  0
    7.5840    3.3784   27.0280 C   0  0  0  0  0  0  0  0  0  0  0  0
    6.4764    2.8176   27.6603 C   0  0  0  0  0  0  0  0  0  0  0  0
    6.1187    3.2884   28.8629 F   0  0  0  0  0  0  0  0  0  0  0  0
    5.7268    1.7901   27.0893 C   0  0  0  0  0  0  0  0  0  0  0  0
    6.1051    1.3032   25.8409 C   0  0  0  0  0  0  0  0  0  0  0  0
    5.5534    0.4957   25.3632 H   0  0  0  0  0  0  0  0  0  0  0  0
    4.8754    1.3865   27.6256 H   0  0  0  0  0  0  0  0  0  0  0  0
    8.1304    4.1788   27.5149 H   0  0  0  0  0  0  0  0  0  0  0  0
    8.8212    3.2834   25.2611 H   0  0  0  0  0  0  0  0  0  0  0  0
    7.0787    0.3047   23.2391 N   0  0  0  0  0  0  0  0  0  0  0  0
    7.8029    0.2012   22.0983 N   0  0  0  0  0  0  0  0  0  0  0  0
    7.3689   -0.7088   21.0308 C   0  0  0  0  0  0  0  0  0  0  0  0
    6.6525   -0.0079   19.8830 C   0  0  0  0  0  0  0  0  0  0  0  0
    5.4402    0.6558   20.1274 C   0  0  0  0  0  0  0  0  0  0  0  0
    4.8073    1.3136   19.0740 C   0  0  0  0  0  0  0  0  0  0  0  0
    5.4089    1.2970   17.8137 C   0  0  0  0  0  0  0  0  0  0  0  0
    6.5575    0.6569   17.5513 N   0  0  0  0  0  0  0  0  0  0  0  0
    7.1543    0.0249   18.5700 C   0  0  0  0  0  0  0  0  0  0  0  0
    8.0916   -0.4762   18.3141 H   0  0  0  0  0  0  0  0  0  0  0  0
    4.9498    1.8208   16.9792 H   0  0  0  0  0  0  0  0  0  0  0  0
    3.8729    1.8452   19.2124 H   0  0  0  0  0  0  0  0  0  0  0  0
    5.0162    0.6750   21.1348 H   0  0  0  0  0  0  0  0  0  0  0  0
    8.2410   -1.2808   20.6879 H   0  0  0  0  0  0  0  0  0  0  0  0
    6.7028   -1.4287   21.5201 H   0  0  0  0  0  0  0  0  0  0  0  0
    9.5861    0.8372   20.1736 H   0  0  0  0  0  0  0  0  0  0  0  0
    9.6452    2.5012   20.7806 H   0  0  0  0  0  0  0  0  0  0  0  0
   14.1572    1.8763   22.9038 H   0  0  0  0  0  0  0  0  0  0  0  0
   12.0671   -1.9565   21.6805 H   0  0  0  0  0  0  0  0  0  0  0  0
   10.7380   -1.3286   20.7136 H   0  0  0  0  0  0  0  0  0  0  0  0
   10.5537   -1.4697   22.4771 H   0  0  0  0  0  0  0  0  0  0  0  0
  1  2  1  0
  2  3  1  0
  3  4  2  0
  4  5  1  0
  5  6  1  0
  5  7  2  0
  7  8  1  0
  8  9  1  0
  9 10  2  0
 10 11  1  0
 11 12  1  0
 12 13  2  0
 13 14  1  0
 14 15  2  0
 15 16  1  0
 15 17  1  0
 17 18  2  0
 18 19  1  0
 17 20  1  0
 14 21  1  0
 13 22  1  0
 11 23  2  0
 23 24  1  0
 24 25  1  0
 25 26  1  0
 26 27  2  0
 27 28  1  0
 28 29  2  0
 29 30  1  0
 30 31  2  0
 31 32  1  0
 29 33  1  0
 28 34  1  0
 27 35  1  0
 25 36  1  0
 25 37  1  0
  8 38  1  0
  8 39  1  0
  4 40  1  0
  1 41  1  0
  1 42  1  0
  1 43  1  0
  7  2  1  0
 24  9  1  0
 31 26  1  0
 18 12  1  0
M  END
>  <cnnaffinity>  (1) 
-6.29236

>  <filename>  (1) 
Cn1ncc(Cl)c1Cc1nc(-c2ccc(F)cc2)nn1Cc1cccnc1

$$$$
