
     RDKit          3D

 43 46  0  0  0  0  0  0  0  0999 V2000
    7.9273    2.7863   21.9488 C   0  0  0  0  0  0  0  0  0  0  0  0
    9.2439    2.4132   22.4617 N   0  0  0  0  0  0  0  0  0  0  0  0
    9.8403    3.0065   23.5341 N   0  0  0  0  0  0  0  0  0  0  0  0
   10.9440    2.3217   23.7174 C   0  0  0  0  0  0  0  0  0  0  0  0
   11.0899    1.2612   22.7461 C   0  0  0  0  0  0  0  0  0  0  0  0
   12.5023   -0.0320   22.6635 Br  0  0  0  0  0  0  0  0  0  0  0  0
    9.9887    1.3492   21.9592 C   0  0  0  0  0  0  0  0  0  0  0  0
    9.6179    0.4005   20.8470 C   0  0  0  0  0  0  0  0  0  0  0  0
    8.6143   -0.5758   21.3568 C   0  0  0  0  0  0  0  0  0  0  0  0
    8.8698   -1.4139   22.3164 N   0  0  0  0  0  0  0  0  0  0  0  0
    7.6470   -2.0308   22.5088 C   0  0  0  0  0  0  0  0  0  0  0  0
    7.4336   -3.0618   23.5846 C   0  0  0  0  0  0  0  0  0  0  0  0
    6.4224   -2.6100   24.6369 C   0  0  0  0  0  0  0  0  0  0  0  0
    5.8098   -3.8825   25.2061 C   0  0  0  0  0  0  0  0  0  0  0  0
    6.1019   -5.0000   24.2068 C   0  0  0  0  0  0  0  0  0  0  0  0
    6.8551   -4.3676   23.0427 C   0  0  0  0  0  0  0  0  0  0  0  0
    6.1575   -4.1627   22.2249 H   0  0  0  0  0  0  0  0  0  0  0  0
    7.6371   -5.0332   22.6660 H   0  0  0  0  0  0  0  0  0  0  0  0
    6.7185   -5.7673   24.6840 H   0  0  0  0  0  0  0  0  0  0  0  0
    5.1785   -5.4736   23.8599 H   0  0  0  0  0  0  0  0  0  0  0  0
    4.7330   -3.7580   25.3571 H   0  0  0  0  0  0  0  0  0  0  0  0
    6.2626   -4.1189   26.1733 H   0  0  0  0  0  0  0  0  0  0  0  0
    6.8863   -2.0023   25.4192 H   0  0  0  0  0  0  0  0  0  0  0  0
    5.6386   -2.0123   24.1724 H   0  0  0  0  0  0  0  0  0  0  0  0
    8.3871   -3.2655   24.0753 H   0  0  0  0  0  0  0  0  0  0  0  0
    6.6934   -1.6360   21.6996 N   0  0  0  0  0  0  0  0  0  0  0  0
    7.2987   -0.7041   20.9339 N   0  0  0  0  0  0  0  0  0  0  0  0
    6.6593    0.0028   19.9118 C   0  0  0  0  0  0  0  0  0  0  0  0
    5.4444    0.6413   20.1614 C   0  0  0  0  0  0  0  0  0  0  0  0
    4.8257    1.3011   19.1008 C   0  0  0  0  0  0  0  0  0  0  0  0
    5.4048    1.2972   17.8260 C   0  0  0  0  0  0  0  0  0  0  0  0
    6.5779    0.6804   17.5832 N   0  0  0  0  0  0  0  0  0  0  0  0
    7.1897    0.0597   18.6088 C   0  0  0  0  0  0  0  0  0  0  0  0
    8.1318   -0.4414   18.4073 H   0  0  0  0  0  0  0  0  0  0  0  0
    4.8900    1.8049   17.0147 H   0  0  0  0  0  0  0  0  0  0  0  0
    3.8908    1.8244   19.2526 H   0  0  0  0  0  0  0  0  0  0  0  0
    5.0061    0.6231   21.1613 H   0  0  0  0  0  0  0  0  0  0  0  0
    9.2004    0.9465   19.9961 H   0  0  0  0  0  0  0  0  0  0  0  0
   10.4967   -0.1747   20.5425 H   0  0  0  0  0  0  0  0  0  0  0  0
   11.6507    2.5138   24.5114 H   0  0  0  0  0  0  0  0  0  0  0  0
    7.1661    2.0623   22.2434 H   0  0  0  0  0  0  0  0  0  0  0  0
    7.6443    3.7770   22.3158 H   0  0  0  0  0  0  0  0  0  0  0  0
    7.9723    2.7919   20.8659 H   0  0  0  0  0  0  0  0  0  0  0  0
  1  2  1  0
  2  3  1  0
  3  4  2  0
  4  5  1  0
  5  6  1  0
  5  7  2  0
  7  8  1  0
  8  9  1  0
  9 10  2  0
 10 11  1  0
 11 12  1  0
 12 13  1  0
 13 14  1  0
 14 15  1  0
 15 16  1  0
 16 17  1  0
 16 18  1  0
 15 19  1  0
 15 20  1  0
 14 21  1  0
 14 22  1  0
 13 23  1  0
 13 24  1  0
 12 25  1  0
 11 26  2  0
 26 27  1  0
 27 28  1  0
 28 29  2  0
 29 30  1  0
 30 31  2  0
 31 32  1  0
 32 33  2  0
 33 34  1  0
 31 35  1  0
 30 36  1  0
 29 37  1  0
  8 38  1  0
  8 39  1  0
  4 40  1  0
  1 41  1  0
  1 42  1  0
  1 43  1  0
  7  2  1  0
 27  9  1  0
 33 28  1  0
 16 12  1  0
M  END
>  <cnnaffinity>  (1) 
-6.6605

>  <filename>  (1) 
Cn1ncc(Br)c1Cc1nc(C2CCCC2)nn1-c1cccnc1

$$$$
