
     RDKit          3D

 43 46  0  0  0  0  0  0  0  0999 V2000
    8.1011    2.8080   21.8808 C   0  0  0  0  0  0  0  0  0  0  0  0
    9.3449    2.3344   22.4517 N   0  0  0  0  0  0  0  0  0  0  0  0
    9.8074    2.9171   23.5663 N   0  0  0  0  0  0  0  0  0  0  0  0
   10.9090    2.2546   23.8817 C   0  0  0  0  0  0  0  0  0  0  0  0
   11.1411    1.2166   22.9577 C   0  0  0  0  0  0  0  0  0  0  0  0
   12.4235    0.0607   22.9427 Cl  0  0  0  0  0  0  0  0  0  0  0  0
   10.1059    1.2852   22.0433 C   0  0  0  0  0  0  0  0  0  0  0  0
    9.6877    0.3367   20.9499 C   0  0  0  0  0  0  0  0  0  0  0  0
    8.6089   -0.6113   21.3915 C   0  0  0  0  0  0  0  0  0  0  0  0
    8.8115   -1.4746   22.3651 N   0  0  0  0  0  0  0  0  0  0  0  0
    7.6027   -2.0661   22.5303 C   0  0  0  0  0  0  0  0  0  0  0  0
    7.3550   -3.0513   23.6392 C   0  0  0  0  0  0  0  0  0  0  0  0
    7.3351   -2.3733   25.0319 C   0  0  0  0  0  0  0  0  0  0  0  0
    8.8019   -2.3375   25.4951 C   0  0  0  0  0  0  0  0  0  0  0  0
    9.5119   -3.4990   24.7714 C   0  0  0  0  0  0  0  0  0  0  0  0
    8.4795   -4.1022   23.7924 C   0  0  0  0  0  0  0  0  0  0  0  0
    8.9334   -4.3688   22.8323 H   0  0  0  0  0  0  0  0  0  0  0  0
    8.0500   -5.0199   24.2137 H   0  0  0  0  0  0  0  0  0  0  0  0
    9.8856   -4.2624   25.4646 H   0  0  0  0  0  0  0  0  0  0  0  0
   10.3753   -3.1113   24.2236 H   0  0  0  0  0  0  0  0  0  0  0  0
    9.2629   -1.3910   25.1930 H   0  0  0  0  0  0  0  0  0  0  0  0
    8.8810   -2.4065   26.5862 H   0  0  0  0  0  0  0  0  0  0  0  0
    6.8818   -1.3759   25.0015 H   0  0  0  0  0  0  0  0  0  0  0  0
    6.7307   -2.9869   25.7117 H   0  0  0  0  0  0  0  0  0  0  0  0
    6.3933   -3.5100   23.4057 H   0  0  0  0  0  0  0  0  0  0  0  0
    6.6733   -1.6515   21.6926 N   0  0  0  0  0  0  0  0  0  0  0  0
    7.3242   -0.7247   20.9241 N   0  0  0  0  0  0  0  0  0  0  0  0
    6.6240   -0.0484   19.8744 C   0  0  0  0  0  0  0  0  0  0  0  0
    5.4140    0.6133   20.1322 C   0  0  0  0  0  0  0  0  0  0  0  0
    4.7981    1.3124   19.0862 C   0  0  0  0  0  0  0  0  0  0  0  0
    5.3960    1.3091   17.8217 C   0  0  0  0  0  0  0  0  0  0  0  0
    6.5262    0.6408   17.5520 N   0  0  0  0  0  0  0  0  0  0  0  0
    7.1203   -0.0212   18.5557 C   0  0  0  0  0  0  0  0  0  0  0  0
    8.0395   -0.5520   18.3070 H   0  0  0  0  0  0  0  0  0  0  0  0
    4.9495    1.8665   16.9978 H   0  0  0  0  0  0  0  0  0  0  0  0
    3.8820    1.8711   19.2426 H   0  0  0  0  0  0  0  0  0  0  0  0
    4.9855    0.5827   21.1345 H   0  0  0  0  0  0  0  0  0  0  0  0
    9.3718    0.8894   20.0632 H   0  0  0  0  0  0  0  0  0  0  0  0
   10.5532   -0.2770   20.6806 H   0  0  0  0  0  0  0  0  0  0  0  0
   11.4825    2.5695   24.7437 H   0  0  0  0  0  0  0  0  0  0  0  0
    8.1470    2.7171   20.8003 H   0  0  0  0  0  0  0  0  0  0  0  0
    7.2535    2.2159   22.2389 H   0  0  0  0  0  0  0  0  0  0  0  0
    7.9753    3.8570   22.1465 H   0  0  0  0  0  0  0  0  0  0  0  0
  1  2  1  0
  2  3  1  0
  3  4  2  0
  4  5  1  0
  5  6  1  0
  5  7  2  0
  7  8  1  0
  8  9  1  0
  9 10  2  0
 10 11  1  0
 11 12  1  0
 12 13  1  0
 13 14  1  0
 14 15  1  0
 15 16  1  0
 16 17  1  0
 16 18  1  0
 15 19  1  0
 15 20  1  0
 14 21  1  0
 14 22  1  0
 13 23  1  0
 13 24  1  0
 12 25  1  0
 11 26  2  0
 26 27  1  0
 27 28  1  0
 28 29  2  0
 29 30  1  0
 30 31  2  0
 31 32  1  0
 32 33  2  0
 33 34  1  0
 31 35  1  0
 30 36  1  0
 29 37  1  0
  8 38  1  0
  8 39  1  0
  4 40  1  0
  1 41  1  0
  1 42  1  0
  1 43  1  0
  7  2  1  0
 27  9  1  0
 33 28  1  0
 16 12  1  0
M  END
>  <cnnaffinity>  (1) 
-6.70881

>  <filename>  (1) 
Cn1ncc(Cl)c1Cc1nc(C2CCCC2)nn1-c1cccnc1

$$$$
