
     RDKit          3D

 46 49  0  0  0  0  0  0  0  0999 V2000
    6.0594   -5.1494   23.3957 C   0  0  0  0  0  0  0  0  0  0  0  0
    5.9205   -5.0275   21.9580 N   0  0  0  0  0  0  0  0  0  0  0  0
    6.0328   -6.1100   21.1752 N   0  0  0  0  0  0  0  0  0  0  0  0
    5.9059   -5.6650   19.9317 C   0  0  0  0  0  0  0  0  0  0  0  0
    5.7030   -4.2710   19.9310 C   0  0  0  0  0  0  0  0  0  0  0  0
    5.4336   -3.1752   18.6293 Cl  0  0  0  0  0  0  0  0  0  0  0  0
    5.7241   -3.8864   21.2523 C   0  0  0  0  0  0  0  0  0  0  0  0
    5.7566   -2.4934   21.8040 C   0  0  0  0  0  0  0  0  0  0  0  0
    7.0871   -1.8487   21.6225 C   0  0  0  0  0  0  0  0  0  0  0  0
    8.1439   -2.2036   22.3229 N   0  0  0  0  0  0  0  0  0  0  0  0
    9.1246   -1.4045   21.8288 C   0  0  0  0  0  0  0  0  0  0  0  0
   10.4337   -1.2462   22.5403 C   0  0  0  0  0  0  0  0  0  0  0  0
   10.2729   -0.2258   23.6986 C   0  0  0  0  0  0  0  0  0  0  0  0
    9.7153    1.1282   23.2343 C   0  0  0  0  0  0  0  0  0  0  0  0
   10.0846    2.1440   24.3182 C   0  0  0  0  0  0  0  0  0  0  0  0
   11.2599    1.5225   25.1010 C   0  0  0  0  0  0  0  0  0  0  0  0
   11.5480    0.1500   24.4597 C   0  0  0  0  0  0  0  0  0  0  0  0
   11.8033   -0.6023   25.2124 H   0  0  0  0  0  0  0  0  0  0  0  0
   12.4014    0.2205   23.7722 H   0  0  0  0  0  0  0  0  0  0  0  0
   10.9659    1.3971   26.1470 H   0  0  0  0  0  0  0  0  0  0  0  0
   12.1508    2.1543   25.0730 H   0  0  0  0  0  0  0  0  0  0  0  0
   10.3339    3.1215   23.8918 H   0  0  0  0  0  0  0  0  0  0  0  0
    9.2315    2.2963   24.9846 H   0  0  0  0  0  0  0  0  0  0  0  0
    8.6391    1.0712   23.0517 H   0  0  0  0  0  0  0  0  0  0  0  0
   10.1622    1.4061   22.2760 H   0  0  0  0  0  0  0  0  0  0  0  0
    9.5462   -0.6489   24.4134 H   0  0  0  0  0  0  0  0  0  0  0  0
   11.1752   -0.8961   21.8160 H   0  0  0  0  0  0  0  0  0  0  0  0
   10.7442   -2.2249   22.9163 H   0  0  0  0  0  0  0  0  0  0  0  0
    8.7488   -0.6218   20.8352 N   0  0  0  0  0  0  0  0  0  0  0  0
    7.4118   -0.8711   20.7295 N   0  0  0  0  0  0  0  0  0  0  0  0
    6.6675   -0.1317   19.7629 C   0  0  0  0  0  0  0  0  0  0  0  0
    5.4443    0.5051   20.0202 C   0  0  0  0  0  0  0  0  0  0  0  0
    4.8566    1.2445   18.9829 C   0  0  0  0  0  0  0  0  0  0  0  0
    5.4905    1.3024   17.7395 C   0  0  0  0  0  0  0  0  0  0  0  0
    6.6643    0.6939   17.4909 N   0  0  0  0  0  0  0  0  0  0  0  0
    7.2401    0.0168   18.4881 C   0  0  0  0  0  0  0  0  0  0  0  0
    8.2052   -0.4467   18.2909 H   0  0  0  0  0  0  0  0  0  0  0  0
    5.0552    1.8635   16.9143 H   0  0  0  0  0  0  0  0  0  0  0  0
    3.9374    1.7982   19.1393 H   0  0  0  0  0  0  0  0  0  0  0  0
    4.9798    0.4709   21.0059 H   0  0  0  0  0  0  0  0  0  0  0  0
    5.5194   -2.4965   22.8716 H   0  0  0  0  0  0  0  0  0  0  0  0
    5.0318   -1.8717   21.2939 H   0  0  0  0  0  0  0  0  0  0  0  0
    5.9768   -6.3497   19.0955 H   0  0  0  0  0  0  0  0  0  0  0  0
    6.3481   -6.1744   23.6152 H   0  0  0  0  0  0  0  0  0  0  0  0
    5.1161   -4.9245   23.9017 H   0  0  0  0  0  0  0  0  0  0  0  0
    6.8361   -4.4654   23.7475 H   0  0  0  0  0  0  0  0  0  0  0  0
  1  2  1  0
  2  3  1  0
  3  4  2  0
  4  5  1  0
  5  6  1  0
  5  7  2  0
  7  8  1  0
  8  9  1  0
  9 10  2  0
 10 11  1  0
 11 12  1  0
 12 13  1  0
 13 14  1  0
 14 15  1  0
 15 16  1  0
 16 17  1  0
 17 18  1  0
 17 19  1  0
 16 20  1  0
 16 21  1  0
 15 22  1  0
 15 23  1  0
 14 24  1  0
 14 25  1  0
 13 26  1  0
 12 27  1  0
 12 28  1  0
 11 29  2  0
 29 30  1  0
 30 31  1  0
 31 32  2  0
 32 33  1  0
 33 34  2  0
 34 35  1  0
 35 36  2  0
 36 37  1  0
 34 38  1  0
 33 39  1  0
 32 40  1  0
  8 41  1  0
  8 42  1  0
  4 43  1  0
  1 44  1  0
  1 45  1  0
  1 46  1  0
  7  2  1  0
 30  9  1  0
 36 31  1  0
 17 13  1  0
M  END
>  <cnnaffinity>  (1) 
-5.86162

>  <filename>  (1) 
Cn1ncc(Cl)c1Cc1nc(CC2CCCC2)nn1-c1cccnc1

$$$$
