
     RDKit          3D

 43 46  0  0  0  0  0  0  0  0999 V2000
    9.7424    2.1675   21.2424 C   0  0  0  0  0  0  0  0  0  0  0  0
    9.7950    2.1772   22.6831 N   0  0  0  0  0  0  0  0  0  0  0  0
   10.9274    2.5042   23.3232 N   0  0  0  0  0  0  0  0  0  0  0  0
   10.6755    2.2726   24.6029 C   0  0  0  0  0  0  0  0  0  0  0  0
    9.3664    1.7889   24.7937 C   0  0  0  0  0  0  0  0  0  0  0  0
    8.8277    1.7412   23.5242 C   0  0  0  0  0  0  0  0  0  0  0  0
    7.5000    1.2293   23.0233 C   0  0  0  0  0  0  0  0  0  0  0  0
    7.5938   -0.1195   22.3630 C   0  0  0  0  0  0  0  0  0  0  0  0
    8.0719   -1.1563   23.0234 N   0  0  0  0  0  0  0  0  0  0  0  0
    8.0885   -2.1548   22.1070 C   0  0  0  0  0  0  0  0  0  0  0  0
    8.6161   -3.5312   22.4333 C   0  0  0  0  0  0  0  0  0  0  0  0
    8.6205   -3.8890   23.9426 C   0  0  0  0  0  0  0  0  0  0  0  0
    8.5392   -5.4280   24.0337 C   0  0  0  0  0  0  0  0  0  0  0  0
    8.2501   -5.9372   22.6027 C   0  0  0  0  0  0  0  0  0  0  0  0
    7.8628   -4.7062   21.7675 C   0  0  0  0  0  0  0  0  0  0  0  0
    6.7839   -4.5274   21.8532 H   0  0  0  0  0  0  0  0  0  0  0  0
    8.0973   -4.8256   20.7003 H   0  0  0  0  0  0  0  0  0  0  0  0
    9.1416   -6.4068   22.1808 H   0  0  0  0  0  0  0  0  0  0  0  0
    7.4772   -6.7126   22.5982 H   0  0  0  0  0  0  0  0  0  0  0  0
    7.7528   -5.7294   24.7375 H   0  0  0  0  0  0  0  0  0  0  0  0
    9.4706   -5.8542   24.4238 H   0  0  0  0  0  0  0  0  0  0  0  0
    9.5088   -3.4861   24.4432 H   0  0  0  0  0  0  0  0  0  0  0  0
    7.7519   -3.4362   24.4306 H   0  0  0  0  0  0  0  0  0  0  0  0
    9.6569   -3.5012   22.0945 H   0  0  0  0  0  0  0  0  0  0  0  0
    7.6567   -1.7999   20.9083 N   0  0  0  0  0  0  0  0  0  0  0  0
    7.2994   -0.4941   21.0749 N   0  0  0  0  0  0  0  0  0  0  0  0
    6.6221    0.1400   19.9875 C   0  0  0  0  0  0  0  0  0  0  0  0
    5.3991    0.8071   20.1558 C   0  0  0  0  0  0  0  0  0  0  0  0
    4.8109    1.4007   19.0315 C   0  0  0  0  0  0  0  0  0  0  0  0
    5.4606    1.3135   17.7984 C   0  0  0  0  0  0  0  0  0  0  0  0
    6.6056    0.6302   17.6210 N   0  0  0  0  0  0  0  0  0  0  0  0
    7.1500    0.0284   18.6842 C   0  0  0  0  0  0  0  0  0  0  0  0
    8.0366   -0.5780   18.4983 H   0  0  0  0  0  0  0  0  0  0  0  0
    5.0406    1.7839   16.9106 H   0  0  0  0  0  0  0  0  0  0  0  0
    3.8625    1.9249   19.1013 H   0  0  0  0  0  0  0  0  0  0  0  0
    4.9042    0.8327   21.1270 H   0  0  0  0  0  0  0  0  0  0  0  0
    7.0109    1.9606   22.3727 H   0  0  0  0  0  0  0  0  0  0  0  0
    6.8884    1.1001   23.9173 H   0  0  0  0  0  0  0  0  0  0  0  0
    8.8871    1.4805   25.7140 H   0  0  0  0  0  0  0  0  0  0  0  0
   11.4652    2.4217   25.3225 H   0  0  0  0  0  0  0  0  0  0  0  0
    9.6206    1.1432   20.8755 H   0  0  0  0  0  0  0  0  0  0  0  0
   10.6756    2.5805   20.8642 H   0  0  0  0  0  0  0  0  0  0  0  0
    8.9043    2.7751   20.8895 H   0  0  0  0  0  0  0  0  0  0  0  0
  1  2  1  0
  2  3  1  0
  3  4  2  0
  4  5  1  0
  5  6  2  0
  6  7  1  0
  7  8  1  0
  8  9  2  0
  9 10  1  0
 10 11  1  0
 11 12  1  0
 12 13  1  0
 13 14  1  0
 14 15  1  0
 15 16  1  0
 15 17  1  0
 14 18  1  0
 14 19  1  0
 13 20  1  0
 13 21  1  0
 12 22  1  0
 12 23  1  0
 11 24  1  0
 10 25  2  0
 25 26  1  0
 26 27  1  0
 27 28  2  0
 28 29  1  0
 29 30  2  0
 30 31  1  0
 31 32  2  0
 32 33  1  0
 30 34  1  0
 29 35  1  0
 28 36  1  0
  7 37  1  0
  7 38  1  0
  5 39  1  0
  4 40  1  0
  1 41  1  0
  1 42  1  0
  1 43  1  0
  6  2  1  0
 26  8  1  0
 32 27  1  0
 15 11  1  0
M  END
>  <cnnaffinity>  (1) 
-6.14262

>  <filename>  (1) 
Cn1nccc1Cc1nc(C2CCCC2)nn1-c1cccnc1

$$$$
