
     RDKit          3D

 43 46  0  0  0  0  0  0  0  0999 V2000
   11.2509   -1.2397   21.6680 C   0  0  0  0  0  0  0  0  0  0  0  0
   11.8041    0.0882   21.8188 N   0  0  0  0  0  0  0  0  0  0  0  0
   13.0066    0.2078   22.3997 N   0  0  0  0  0  0  0  0  0  0  0  0
   13.2236    1.5104   22.4999 C   0  0  0  0  0  0  0  0  0  0  0  0
   12.1304    2.2281   21.9822 C   0  0  0  0  0  0  0  0  0  0  0  0
   11.9378    3.9366   21.9697 Cl  0  0  0  0  0  0  0  0  0  0  0  0
   11.2159    1.2869   21.5440 C   0  0  0  0  0  0  0  0  0  0  0  0
    9.7954    1.4523   21.0557 C   0  0  0  0  0  0  0  0  0  0  0  0
    8.7696    1.1533   22.1055 C   0  0  0  0  0  0  0  0  0  0  0  0
    8.7028    1.8553   23.2135 N   0  0  0  0  0  0  0  0  0  0  0  0
    7.6594    1.3054   23.8812 C   0  0  0  0  0  0  0  0  0  0  0  0
    7.2249    1.8380   25.1851 C   0  0  0  0  0  0  0  0  0  0  0  0
    6.1019    1.3013   25.8406 C   0  0  0  0  0  0  0  0  0  0  0  0
    5.7314    1.7960   27.0906 C   0  0  0  0  0  0  0  0  0  0  0  0
    6.4656    2.8285   27.6889 C   0  0  0  0  0  0  0  0  0  0  0  0
    7.5752    3.3743   27.0311 C   0  0  0  0  0  0  0  0  0  0  0  0
    7.9559    2.8839   25.7839 C   0  0  0  0  0  0  0  0  0  0  0  0
    8.8253    3.2896   25.2640 H   0  0  0  0  0  0  0  0  0  0  0  0
    8.1461    4.1767   27.4894 H   0  0  0  0  0  0  0  0  0  0  0  0
    6.1754    3.2069   28.6648 H   0  0  0  0  0  0  0  0  0  0  0  0
    4.8731    1.3680   27.6000 H   0  0  0  0  0  0  0  0  0  0  0  0
    5.5470    0.4912   25.3652 H   0  0  0  0  0  0  0  0  0  0  0  0
    7.0810    0.3025   23.2393 N   0  0  0  0  0  0  0  0  0  0  0  0
    7.8048    0.1987   22.0985 N   0  0  0  0  0  0  0  0  0  0  0  0
    7.3680   -0.7101   21.0304 C   0  0  0  0  0  0  0  0  0  0  0  0
    6.6529   -0.0093   19.8811 C   0  0  0  0  0  0  0  0  0  0  0  0
    5.4405    0.6537   20.1257 C   0  0  0  0  0  0  0  0  0  0  0  0
    4.8077    1.3125   19.0730 C   0  0  0  0  0  0  0  0  0  0  0  0
    5.4085    1.2973   17.8124 C   0  0  0  0  0  0  0  0  0  0  0  0
    6.5568    0.6569   17.5488 N   0  0  0  0  0  0  0  0  0  0  0  0
    7.1537    0.0241   18.5671 C   0  0  0  0  0  0  0  0  0  0  0  0
    8.0909   -0.4764   18.3100 H   0  0  0  0  0  0  0  0  0  0  0  0
    4.9491    1.8217   16.9786 H   0  0  0  0  0  0  0  0  0  0  0  0
    3.8740    1.8445   19.2126 H   0  0  0  0  0  0  0  0  0  0  0  0
    5.0172    0.6732   21.1336 H   0  0  0  0  0  0  0  0  0  0  0  0
    6.7009   -1.4276   21.5216 H   0  0  0  0  0  0  0  0  0  0  0  0
    8.2375   -1.2863   20.6884 H   0  0  0  0  0  0  0  0  0  0  0  0
    9.6484    2.5044   20.7860 H   0  0  0  0  0  0  0  0  0  0  0  0
    9.5864    0.8433   20.1706 H   0  0  0  0  0  0  0  0  0  0  0  0
   14.1571    1.8751   22.9046 H   0  0  0  0  0  0  0  0  0  0  0  0
   10.7387   -1.3292   20.7150 H   0  0  0  0  0  0  0  0  0  0  0  0
   10.5540   -1.4685   22.4781 H   0  0  0  0  0  0  0  0  0  0  0  0
   12.0681   -1.9565   21.6825 H   0  0  0  0  0  0  0  0  0  0  0  0
  1  2  1  0
  2  3  1  0
  3  4  2  0
  4  5  1  0
  5  6  1  0
  5  7  2  0
  7  8  1  0
  8  9  1  0
  9 10  2  0
 10 11  1  0
 11 12  1  0
 12 13  2  0
 13 14  1  0
 14 15  2  0
 15 16  1  0
 16 17  2  0
 17 18  1  0
 16 19  1  0
 15 20  1  0
 14 21  1  0
 13 22  1  0
 11 23  2  0
 23 24  1  0
 24 25  1  0
 25 26  1  0
 26 27  2  0
 27 28  1  0
 28 29  2  0
 29 30  1  0
 30 31  2  0
 31 32  1  0
 29 33  1  0
 28 34  1  0
 27 35  1  0
 25 36  1  0
 25 37  1  0
  8 38  1  0
  8 39  1  0
  4 40  1  0
  1 41  1  0
  1 42  1  0
  1 43  1  0
  7  2  1  0
 24  9  1  0
 31 26  1  0
 17 12  1  0
M  END
>  <cnnaffinity>  (1) 
-6.17868

>  <filename>  (1) 
Cn1ncc(Cl)c1Cc1nc(-c2ccccc2)nn1Cc1cccnc1

$$$$
