
     RDKit          3D

 35 37  0  0  0  0  0  0  0  0999 V2000
    7.3934   -1.5004   24.3880 C   0  0  0  0  0  0  0  0  0  0  0  0
    7.5956   -1.1773   22.9882 N   0  0  0  0  0  0  0  0  0  0  0  0
    6.7054   -0.4276   22.3099 N   0  0  0  0  0  0  0  0  0  0  0  0
    7.1586   -0.4806   21.0709 C   0  0  0  0  0  0  0  0  0  0  0  0
    6.5118    0.1686   19.9386 C   0  0  0  0  0  0  0  0  0  0  0  0
    5.2940    0.8601   20.0418 C   0  0  0  0  0  0  0  0  0  0  0  0
    4.7682    1.4218   18.8822 C   0  0  0  0  0  0  0  0  0  0  0  0
    5.4771    1.2907   17.6819 C   0  0  0  0  0  0  0  0  0  0  0  0
    6.6466    0.6402   17.5790 N   0  0  0  0  0  0  0  0  0  0  0  0
    7.1473    0.0962   18.6931 C   0  0  0  0  0  0  0  0  0  0  0  0
    8.1028   -0.4182   18.6006 H   0  0  0  0  0  0  0  0  0  0  0  0
    5.0868    1.7275   16.7643 H   0  0  0  0  0  0  0  0  0  0  0  0
    3.8345    1.9722   18.9001 H   0  0  0  0  0  0  0  0  0  0  0  0
    4.7968    0.9574   21.0095 H   0  0  0  0  0  0  0  0  0  0  0  0
    8.2840   -1.2298   20.9130 N   0  0  0  0  0  0  0  0  0  0  0  0
    8.5326   -1.6486   22.1407 C   0  0  0  0  0  0  0  0  0  0  0  0
    9.5447   -2.6705   22.5594 C   0  0  0  0  0  0  0  0  0  0  0  0
    8.9097   -4.0373   22.8360 C   0  0  0  0  0  0  0  0  0  0  0  0
    7.9805   -4.5512   21.9054 C   0  0  0  0  0  0  0  0  0  0  0  0
    7.4674   -5.7818   21.9309 N   0  0  0  0  0  0  0  0  0  0  0  0
    7.8865   -6.5822   22.9172 C   0  0  0  0  0  0  0  0  0  0  0  0
    8.7804   -6.1789   23.9153 C   0  0  0  0  0  0  0  0  0  0  0  0
    9.2816   -4.8677   23.9071 C   0  0  0  0  0  0  0  0  0  0  0  0
   10.1969   -4.3739   25.0308 C   0  0  0  0  0  0  0  0  0  0  0  0
   10.4547   -5.3232   25.9457 F   0  0  0  0  0  0  0  0  0  0  0  0
   11.3839   -3.9690   24.5427 F   0  0  0  0  0  0  0  0  0  0  0  0
    9.6689   -3.3217   25.6975 F   0  0  0  0  0  0  0  0  0  0  0  0
    9.1305   -6.8535   24.6890 H   0  0  0  0  0  0  0  0  0  0  0  0
    7.4674   -7.5795   22.8980 H   0  0  0  0  0  0  0  0  0  0  0  0
    7.6682   -3.9132   21.0823 H   0  0  0  0  0  0  0  0  0  0  0  0
   10.2485   -2.7685   21.7266 H   0  0  0  0  0  0  0  0  0  0  0  0
   10.1187   -2.2986   23.4141 H   0  0  0  0  0  0  0  0  0  0  0  0
    6.4736   -1.0176   24.7169 H   0  0  0  0  0  0  0  0  0  0  0  0
    8.2290   -1.1453   24.9952 H   0  0  0  0  0  0  0  0  0  0  0  0
    7.2941   -2.5836   24.5116 H   0  0  0  0  0  0  0  0  0  0  0  0
  1  2  1  0
  2  3  1  0
  3  4  2  0
  4  5  1  0
  5  6  2  0
  6  7  1  0
  7  8  2  0
  8  9  1  0
  9 10  2  0
 10 11  1  0
  8 12  1  0
  7 13  1  0
  6 14  1  0
  4 15  1  0
 15 16  2  0
 16 17  1  0
 17 18  1  0
 18 19  2  0
 19 20  1  0
 20 21  2  0
 21 22  1  0
 22 23  2  0
 23 24  1  0
 24 25  1  0
 24 26  1  0
 24 27  1  0
 22 28  1  0
 21 29  1  0
 19 30  1  0
 17 31  1  0
 17 32  1  0
  1 33  1  0
  1 34  1  0
  1 35  1  0
 16  2  1  0
 23 18  1  0
 10  5  1  0
M  END
>  <cnnaffinity>  (1) 
-6.10689

>  <filename>  (1) 
Cn1nc(-c2cccnc2)nc1Cc1cnccc1C(F)(F)F

$$$$
