
     RDKit          3D

 33 35  0  0  0  0  0  0  0  0999 V2000
    7.2045   -1.6584   24.3030 C   0  0  0  0  0  0  0  0  0  0  0  0
    7.4819   -1.3997   22.9028 N   0  0  0  0  0  0  0  0  0  0  0  0
    6.5431   -0.7635   22.1742 N   0  0  0  0  0  0  0  0  0  0  0  0
    7.0979   -0.6677   20.9809 C   0  0  0  0  0  0  0  0  0  0  0  0
    6.4437    0.0035   19.8586 C   0  0  0  0  0  0  0  0  0  0  0  0
    5.2337    0.7109   19.9898 C   0  0  0  0  0  0  0  0  0  0  0  0
    4.7504    1.3900   18.8753 C   0  0  0  0  0  0  0  0  0  0  0  0
    5.4678    1.3222   17.6749 C   0  0  0  0  0  0  0  0  0  0  0  0
    6.6035    0.6211   17.5325 N   0  0  0  0  0  0  0  0  0  0  0  0
    7.0782   -0.0144   18.6102 C   0  0  0  0  0  0  0  0  0  0  0  0
    8.0066   -0.5702   18.4798 H   0  0  0  0  0  0  0  0  0  0  0  0
    5.1200    1.8600   16.7947 H   0  0  0  0  0  0  0  0  0  0  0  0
    3.8535    1.9963   18.9291 H   0  0  0  0  0  0  0  0  0  0  0  0
    4.7025    0.7332   20.9443 H   0  0  0  0  0  0  0  0  0  0  0  0
    8.3401   -1.2194   20.8989 N   0  0  0  0  0  0  0  0  0  0  0  0
    8.5511   -1.6745   22.1220 C   0  0  0  0  0  0  0  0  0  0  0  0
    9.7980   -2.3301   22.6410 C   0  0  0  0  0  0  0  0  0  0  0  0
   10.7224   -1.3321   23.3200 C   0  0  0  0  0  0  0  0  0  0  0  0
   10.5937   -1.0293   24.6836 C   0  0  0  0  0  0  0  0  0  0  0  0
   11.3531   -0.0122   25.2789 C   0  0  0  0  0  0  0  0  0  0  0  0
   12.2992    0.6880   24.5186 C   0  0  0  0  0  0  0  0  0  0  0  0
   12.5006    0.3454   23.1778 C   0  0  0  0  0  0  0  0  0  0  0  0
   11.6899   -0.6279   22.5892 C   0  0  0  0  0  0  0  0  0  0  0  0
   11.9255   -0.9765   20.9020 Cl  0  0  0  0  0  0  0  0  0  0  0  0
   13.2814    0.8012   22.5747 H   0  0  0  0  0  0  0  0  0  0  0  0
   12.8961    1.4894   24.9534 H   0  0  0  0  0  0  0  0  0  0  0  0
   11.2164    0.2109   26.3328 H   0  0  0  0  0  0  0  0  0  0  0  0
    9.9077   -1.6227   25.2913 H   0  0  0  0  0  0  0  0  0  0  0  0
    9.5381   -3.1376   23.3395 H   0  0  0  0  0  0  0  0  0  0  0  0
   10.3111   -2.7658   21.7809 H   0  0  0  0  0  0  0  0  0  0  0  0
    7.4948   -0.8009   24.9148 H   0  0  0  0  0  0  0  0  0  0  0  0
    7.7213   -2.5539   24.6590 H   0  0  0  0  0  0  0  0  0  0  0  0
    6.1269   -1.8056   24.4084 H   0  0  0  0  0  0  0  0  0  0  0  0
  1  2  1  0
  2  3  1  0
  3  4  2  0
  4  5  1  0
  5  6  2  0
  6  7  1  0
  7  8  2  0
  8  9  1  0
  9 10  2  0
 10 11  1  0
  8 12  1  0
  7 13  1  0
  6 14  1  0
  4 15  1  0
 15 16  2  0
 16 17  1  0
 17 18  1  0
 18 19  2  0
 19 20  1  0
 20 21  2  0
 21 22  1  0
 22 23  2  0
 23 24  1  0
 22 25  1  0
 21 26  1  0
 20 27  1  0
 19 28  1  0
 17 29  1  0
 17 30  1  0
  1 31  1  0
  1 32  1  0
  1 33  1  0
 16  2  1  0
 23 18  1  0
 10  5  1  0
M  END
>  <cnnaffinity>  (1) 
-5.31111

>  <filename>  (1) 
Cn1nc(-c2cccnc2)nc1Cc1ccccc1Cl

$$$$
