
     RDKit          3D

 29 30  0  0  0  0  0  0  0  0999 V2000
    4.9400    1.8173   16.9970 H   0  0  0  0  0  0  0  0  0  0  0  0
    5.4193    1.3065   17.8325 C   0  0  0  0  0  0  0  0  0  0  0  0
    6.5834    0.6915   17.5646 N   0  0  0  0  0  0  0  0  0  0  0  0
    7.1904    0.0423   18.5639 C   0  0  0  0  0  0  0  0  0  0  0  0
    8.1356   -0.4534   18.3410 H   0  0  0  0  0  0  0  0  0  0  0  0
    6.6743   -0.0439   19.8674 C   0  0  0  0  0  0  0  0  0  0  0  0
    7.3985   -0.7543   20.8738 N   0  0  0  0  0  0  0  0  0  0  0  0
    8.7262   -0.4912   21.2214 C   0  0  0  0  0  0  0  0  0  0  0  0
    9.3131    0.2408   20.6852 H   0  0  0  0  0  0  0  0  0  0  0  0
    9.0492   -1.2989   22.2571 C   0  0  0  0  0  0  0  0  0  0  0  0
   10.3154   -1.4413   23.0286 C   0  0  0  0  0  0  0  0  0  0  0  0
   11.1809   -1.3144   22.3744 H   0  0  0  0  0  0  0  0  0  0  0  0
   10.3556   -2.4326   23.4928 H   0  0  0  0  0  0  0  0  0  0  0  0
   10.4543   -0.3678   24.1013 C   0  0  0  0  0  0  0  0  0  0  0  0
   11.0367    0.6851   23.9219 O   0  0  0  0  0  0  0  0  0  0  0  0
    9.8656   -0.6963   25.2787 N   0  0  0  0  0  0  0  0  0  0  0  0
    9.3668   -1.5669   25.3388 H   0  0  0  0  0  0  0  0  0  0  0  0
    9.8406    0.2268   26.3955 C   0  0  0  0  0  0  0  0  0  0  0  0
    9.3104   -0.2152   27.2423 H   0  0  0  0  0  0  0  0  0  0  0  0
   10.8607    0.4715   26.7072 H   0  0  0  0  0  0  0  0  0  0  0  0
    9.3396    1.1585   26.1120 H   0  0  0  0  0  0  0  0  0  0  0  0
    7.9064   -2.0292   22.5379 N   0  0  0  0  0  0  0  0  0  0  0  0
    7.7393   -2.7456   23.2228 H   0  0  0  0  0  0  0  0  0  0  0  0
    6.9019   -1.7806   21.6508 C   0  0  0  0  0  0  0  0  0  0  0  0
    5.4948   -2.6656   21.5338 S   0  0  0  0  0  0  0  0  0  0  0  0
    5.4587    0.5967   20.1431 C   0  0  0  0  0  0  0  0  0  0  0  0
    5.0329    0.5681   21.1459 H   0  0  0  0  0  0  0  0  0  0  0  0
    4.8300    1.2891   19.1009 C   0  0  0  0  0  0  0  0  0  0  0  0
    3.8971    1.8172   19.2535 H   0  0  0  0  0  0  0  0  0  0  0  0
  1  2  1  0
  2  3  2  0
  3  4  1  0
  4  5  1  0
  4  6  2  0
  6  7  1  0
  7  8  1  0
  8  9  1  0
  8 10  2  0
 10 11  1  0
 11 12  1  0
 11 13  1  0
 11 14  1  0
 14 15  2  0
 14 16  1  0
 16 17  1  0
 16 18  1  0
 18 19  1  0
 18 20  1  0
 18 21  1  0
 10 22  1  0
 22 23  1  0
 22 24  1  0
 24 25  2  0
  6 26  1  0
 26 27  1  0
 26 28  2  0
 28 29  1  0
 28  2  1  0
 24  7  1  0
M  END
>  <cnnaffinity>  (1) 
-4.58601

>  <filename>  (1) 
CNC(=O)Cc1cn(-c2cccnc2)c(=S)[nH]1

$$$$
