
     RDKit          3D

 25 26  0  0  0  0  0  0  0  0999 V2000
    4.9685    1.7795   17.0431 H   0  0  0  0  0  0  0  0  0  0  0  0
    5.4510    1.2755   17.8776 C   0  0  0  0  0  0  0  0  0  0  0  0
    6.6155    0.6634   17.6111 N   0  0  0  0  0  0  0  0  0  0  0  0
    7.2309    0.0223   18.6149 C   0  0  0  0  0  0  0  0  0  0  0  0
    8.1807   -0.4571   18.3766 H   0  0  0  0  0  0  0  0  0  0  0  0
    6.6997   -0.0539   19.9185 C   0  0  0  0  0  0  0  0  0  0  0  0
    7.3573   -0.7879   20.9714 N   0  0  0  0  0  0  0  0  0  0  0  0
    8.6146   -0.5264   21.5186 C   0  0  0  0  0  0  0  0  0  0  0  0
    9.4320    0.7323   21.2090 C   0  0  0  0  0  0  0  0  0  0  0  0
    8.9232    1.7505   20.7679 O   0  0  0  0  0  0  0  0  0  0  0  0
   10.7730    0.6294   21.4372 N   0  0  0  0  0  0  0  0  0  0  0  0
   11.0740   -0.1490   22.0052 H   0  0  0  0  0  0  0  0  0  0  0  0
   11.6838    1.7488   21.2448 C   0  0  0  0  0  0  0  0  0  0  0  0
   11.8156    1.9748   20.1842 H   0  0  0  0  0  0  0  0  0  0  0  0
   11.3128    2.6583   21.7285 H   0  0  0  0  0  0  0  0  0  0  0  0
   12.6615    1.4987   21.6668 H   0  0  0  0  0  0  0  0  0  0  0  0
    8.9424   -1.4476   22.3899 N   0  0  0  0  0  0  0  0  0  0  0  0
    7.8698   -2.2718   22.4071 N   0  0  0  0  0  0  0  0  0  0  0  0
    7.7483   -3.0366   23.0499 H   0  0  0  0  0  0  0  0  0  0  0  0
    6.8618   -1.9336   21.5840 C   0  0  0  0  0  0  0  0  0  0  0  0
    5.4395   -2.7753   21.4003 S   0  0  0  0  0  0  0  0  0  0  0  0
    5.4920    0.5945   20.1854 C   0  0  0  0  0  0  0  0  0  0  0  0
    5.0676    0.5521   21.1911 H   0  0  0  0  0  0  0  0  0  0  0  0
    4.8537    1.2788   19.1432 C   0  0  0  0  0  0  0  0  0  0  0  0
    3.9123    1.8010   19.2962 H   0  0  0  0  0  0  0  0  0  0  0  0
  1  2  1  0
  2  3  2  0
  3  4  1  0
  4  5  1  0
  4  6  2  0
  6  7  1  0
  7  8  1  0
  8  9  1  0
  9 10  2  0
  9 11  1  0
 11 12  1  0
 11 13  1  0
 13 14  1  0
 13 15  1  0
 13 16  1  0
  8 17  2  0
 17 18  1  0
 18 19  1  0
 18 20  1  0
 20 21  2  0
  6 22  1  0
 22 23  1  0
 22 24  2  0
 24 25  1  0
 24  2  1  0
 20  7  1  0
M  END
>  <cnnaffinity>  (1) 
-4.47274

>  <filename>  (1) 
CNC(=O)c1n[nH]c(=S)n1-c1cccnc1

$$$$
