
     RDKit          3D

 26 27  0  0  0  0  0  0  0  0999 V2000
    4.9638    1.8874   16.9650 H   0  0  0  0  0  0  0  0  0  0  0  0
    5.4293    1.3355   17.7782 C   0  0  0  0  0  0  0  0  0  0  0  0
    6.5842    0.7148   17.4822 N   0  0  0  0  0  0  0  0  0  0  0  0
    7.1935    0.0407   18.4630 C   0  0  0  0  0  0  0  0  0  0  0  0
    8.1371   -0.4404   18.2037 H   0  0  0  0  0  0  0  0  0  0  0  0
    6.6726   -0.0768   19.7707 C   0  0  0  0  0  0  0  0  0  0  0  0
    7.3725   -0.7933   20.7868 N   0  0  0  0  0  0  0  0  0  0  0  0
    8.7123   -0.6049   21.0731 C   0  0  0  0  0  0  0  0  0  0  0  0
    9.2310    0.1386   20.4747 H   0  0  0  0  0  0  0  0  0  0  0  0
    9.0724   -1.3997   22.1213 C   0  0  0  0  0  0  0  0  0  0  0  0
   10.4641   -1.7110   22.6533 C   0  0  0  0  0  0  0  0  0  0  0  0
   10.6994   -2.5163   23.5416 O   0  0  0  0  0  0  0  0  0  0  0  0
   11.4236   -1.0221   21.9761 N   0  0  0  0  0  0  0  0  0  0  0  0
   11.1036   -0.2596   21.4113 H   0  0  0  0  0  0  0  0  0  0  0  0
   12.8485   -1.2001   22.1140 C   0  0  0  0  0  0  0  0  0  0  0  0
   13.3193   -1.1093   21.1355 H   0  0  0  0  0  0  0  0  0  0  0  0
   13.0539   -2.2088   22.4612 H   0  0  0  0  0  0  0  0  0  0  0  0
   13.2905   -0.4731   22.8099 H   0  0  0  0  0  0  0  0  0  0  0  0
    7.8723   -2.0373   22.5048 N   0  0  0  0  0  0  0  0  0  0  0  0
    7.6753   -2.6674   23.2658 H   0  0  0  0  0  0  0  0  0  0  0  0
    6.8276   -1.7507   21.6622 C   0  0  0  0  0  0  0  0  0  0  0  0
    5.7293   -2.2652   21.6706 O   0  0  0  0  0  0  0  0  0  0  0  0
    5.4681    0.5695   20.0666 C   0  0  0  0  0  0  0  0  0  0  0  0
    5.0573    0.5080   21.0750 H   0  0  0  0  0  0  0  0  0  0  0  0
    4.8423    1.2946   19.0479 C   0  0  0  0  0  0  0  0  0  0  0  0
    3.9191    1.8334   19.2299 H   0  0  0  0  0  0  0  0  0  0  0  0
  1  2  1  0
  2  3  2  0
  3  4  1  0
  4  5  1  0
  4  6  2  0
  6  7  1  0
  7  8  1  0
  8  9  1  0
  8 10  2  0
 10 11  1  0
 11 12  2  0
 11 13  1  0
 13 14  1  0
 13 15  1  0
 15 16  1  0
 15 17  1  0
 15 18  1  0
 10 19  1  0
 19 20  1  0
 19 21  1  0
 21 22  2  0
  6 23  1  0
 23 24  1  0
 23 25  2  0
 25 26  1  0
 25  2  1  0
 21  7  1  0
M  END
>  <cnnaffinity>  (1) 
-4.536

>  <filename>  (1) 
CNC(=O)c1cn(-c2cccnc2)c(=O)[nH]1

$$$$
