
     RDKit          3D

 38 40  0  0  0  0  0  0  0  0999 V2000
    4.9680    1.8047   17.0054 H   0  0  0  0  0  0  0  0  0  0  0  0
    5.4329    1.2962   17.8459 C   0  0  0  0  0  0  0  0  0  0  0  0
    6.5874    0.6615   17.5899 N   0  0  0  0  0  0  0  0  0  0  0  0
    7.1853    0.0199   18.6052 C   0  0  0  0  0  0  0  0  0  0  0  0
    8.1265   -0.4693   18.3622 H   0  0  0  0  0  0  0  0  0  0  0  0
    6.6805   -0.0338   19.9407 C   0  0  0  0  0  0  0  0  0  0  0  0
    7.2870   -0.7581   20.9779 N   0  0  0  0  0  0  0  0  0  0  0  0
    7.2913   -0.3471   22.3928 C   0  0  1  0  0  0  0  0  0  0  0  0
    6.2999   -0.0327   22.7295 H   0  0  0  0  0  0  0  0  0  0  0  0
    7.7180   -1.6590   23.0893 C   0  0  0  0  0  0  0  0  0  0  0  0
    6.8397   -2.2371   23.3868 H   0  0  0  0  0  0  0  0  0  0  0  0
    8.2773   -1.4629   24.0060 H   0  0  0  0  0  0  0  0  0  0  0  0
    8.5416   -2.4106   22.0149 C   0  0  0  0  0  0  0  0  0  0  0  0
    9.5409   -2.6915   22.3526 H   0  0  0  0  0  0  0  0  0  0  0  0
    8.0364   -3.3319   21.7091 H   0  0  0  0  0  0  0  0  0  0  0  0
    8.5789   -1.4268   20.8355 C   0  0  2  0  0  0  0  0  0  0  0  0
    8.6286   -1.9293   19.8790 H   0  0  0  0  0  0  0  0  0  0  0  0
    9.7345   -0.4087   20.8684 C   0  0  0  0  0  0  0  0  0  0  0  0
    9.6404    0.1864   19.9527 H   0  0  0  0  0  0  0  0  0  0  0  0
   10.6804   -0.9657   20.8066 H   0  0  0  0  0  0  0  0  0  0  0  0
    9.7274    0.5492   22.0906 C   0  0  2  0  0  0  0  0  0  0  0  0
   10.1474    1.5068   21.7535 H   0  0  0  0  0  0  0  0  0  0  0  0
   10.6859    0.1015   23.2141 C   0  0  0  0  0  0  0  0  0  0  0  0
   10.5328   -0.9652   23.4671 H   0  0  0  0  0  0  0  0  0  0  0  0
   10.4385    0.6757   24.1225 H   0  0  0  0  0  0  0  0  0  0  0  0
   12.0705    0.4096   22.8648 N   0  0  0  0  0  0  0  0  0  0  0  0
   12.4444   -0.2509   22.1877 H   0  0  0  0  0  0  0  0  0  0  0  0
   12.9818    0.5755   23.9865 C   0  0  0  0  0  0  0  0  0  0  0  0
   12.9145   -0.1923   24.7772 H   0  0  0  0  0  0  0  0  0  0  0  0
   12.7970    1.5461   24.4617 H   0  0  0  0  0  0  0  0  0  0  0  0
   14.0145    0.5658   23.6196 H   0  0  0  0  0  0  0  0  0  0  0  0
    8.2833    0.8229   22.5983 C   0  0  0  0  0  0  0  0  0  0  0  0
    8.3044    1.0931   23.6640 H   0  0  0  0  0  0  0  0  0  0  0  0
    7.8732    1.6844   22.0579 H   0  0  0  0  0  0  0  0  0  0  0  0
    5.4600    0.6375   20.1638 C   0  0  0  0  0  0  0  0  0  0  0  0
    5.0214    0.6289   21.1603 H   0  0  0  0  0  0  0  0  0  0  0  0
    4.8339    1.3036   19.1090 C   0  0  0  0  0  0  0  0  0  0  0  0
    3.8990    1.8383   19.2615 H   0  0  0  0  0  0  0  0  0  0  0  0
  1  2  1  0
  2  3  2  0
  3  4  1  0
  4  5  1  0
  4  6  2  0
  6  7  1  0
  7  8  1  0
  8  9  1  1
  8 10  1  0
 10 11  1  0
 10 12  1  0
 10 13  1  0
 13 14  1  0
 13 15  1  0
 13 16  1  0
 16 17  1  6
 16 18  1  0
 18 19  1  0
 18 20  1  0
 18 21  1  0
 21 22  1  6
 21 23  1  0
 23 24  1  0
 23 25  1  0
 23 26  1  0
 26 27  1  0
 26 28  1  0
 28 29  1  0
 28 30  1  0
 28 31  1  0
 21 32  1  0
 32 33  1  0
 32 34  1  0
  6 35  1  0
 35 36  1  0
 35 37  2  0
 37 38  1  0
 37  2  1  0
 16  7  1  0
 32  8  1  0
M  END
>  <cnnaffinity>  (1) 
-4.79001

>  <filename>  (1) 
CNC[C@H]1C[C@H]2CC[C@@H](C1)N2c1cccnc1

$$$$
