
     RDKit          3D

 31 32  0  0  0  0  0  0  0  0999 V2000
    5.0967    1.8463   17.0427 H   0  0  0  0  0  0  0  0  0  0  0  0
    5.5818    1.3006   17.8532 C   0  0  0  0  0  0  0  0  0  0  0  0
    6.7652    0.7313   17.5750 N   0  0  0  0  0  0  0  0  0  0  0  0
    7.3850    0.0593   18.5574 C   0  0  0  0  0  0  0  0  0  0  0  0
    8.3378   -0.3902   18.2895 H   0  0  0  0  0  0  0  0  0  0  0  0
    6.8549   -0.1160   19.8579 C   0  0  0  0  0  0  0  0  0  0  0  0
    7.4778   -0.8757   20.8872 N   0  0  0  0  0  0  0  0  0  0  0  0
    6.7683   -1.7889   21.6578 C   0  0  0  0  0  0  0  0  0  0  0  0
    5.6330   -2.1728   21.5332 O   0  0  0  0  0  0  0  0  0  0  0  0
    7.6328   -2.2893   22.5987 N   0  0  0  0  0  0  0  0  0  0  0  0
    7.3742   -3.1016   23.1237 H   0  0  0  0  0  0  0  0  0  0  0  0
    8.9200   -1.9197   22.3829 C   0  0  0  0  0  0  0  0  0  0  0  0
    9.8710   -2.4033   22.9463 O   0  0  0  0  0  0  0  0  0  0  0  0
    8.8949   -0.8563   21.2743 C   0  0  2  0  0  0  0  0  0  0  0  0
    9.5176   -1.2598   20.4688 H   0  0  0  0  0  0  0  0  0  0  0  0
    9.4363    0.5341   21.6345 C   0  0  0  0  0  0  0  0  0  0  0  0
    8.7590    1.0403   22.3251 H   0  0  0  0  0  0  0  0  0  0  0  0
    9.4257    1.1224   20.7129 H   0  0  0  0  0  0  0  0  0  0  0  0
   10.8716    0.4796   22.1923 C   0  0  0  0  0  0  0  0  0  0  0  0
   10.8450    0.0167   23.1819 H   0  0  0  0  0  0  0  0  0  0  0  0
   11.4669   -0.1993   21.5650 H   0  0  0  0  0  0  0  0  0  0  0  0
   11.6019    1.7312   22.3164 N   0  0  0  0  0  0  0  0  0  0  0  0
   11.2852    2.2563   23.1253 H   0  0  0  0  0  0  0  0  0  0  0  0
   11.5844    2.5872   21.1435 C   0  0  0  0  0  0  0  0  0  0  0  0
   10.5669    2.8235   20.7894 H   0  0  0  0  0  0  0  0  0  0  0  0
   12.1175    3.5181   21.3702 H   0  0  0  0  0  0  0  0  0  0  0  0
   12.1040    2.1047   20.3096 H   0  0  0  0  0  0  0  0  0  0  0  0
    5.6090    0.4776   20.1213 C   0  0  0  0  0  0  0  0  0  0  0  0
    5.1546    0.3482   21.1019 H   0  0  0  0  0  0  0  0  0  0  0  0
    4.9730    1.2021   19.1100 C   0  0  0  0  0  0  0  0  0  0  0  0
    4.0141    1.6816   19.2851 H   0  0  0  0  0  0  0  0  0  0  0  0
  1  2  1  0
  2  3  2  0
  3  4  1  0
  4  5  1  0
  4  6  2  0
  6  7  1  0
  7  8  1  0
  8  9  2  0
  8 10  1  0
 10 11  1  0
 10 12  1  0
 12 13  2  0
 12 14  1  0
 14 15  1  6
 14 16  1  0
 16 17  1  0
 16 18  1  0
 16 19  1  0
 19 20  1  0
 19 21  1  0
 19 22  1  0
 22 23  1  0
 22 24  1  0
 24 25  1  0
 24 26  1  0
 24 27  1  0
  6 28  1  0
 28 29  1  0
 28 30  2  0
 30 31  1  0
 30  2  1  0
 14  7  1  0
M  END
>  <cnnaffinity>  (1) 
-4.47185

>  <filename>  (1) 
CNCC[C@H]1C(=O)NC(=O)N1c1cccnc1

$$$$
