
     RDKit          3D

 42 44  0  0  0  0  0  0  0  0999 V2000
    7.4341    0.4437   26.6269 C   0  0  0  0  0  0  0  0  0  0  0  0
    8.5917    1.2420   26.3308 O   0  0  0  0  0  0  0  0  0  0  0  0
    9.4622    0.6354   25.3470 C   0  0  0  0  0  0  0  0  0  0  0  0
   10.5785    1.6127   24.9778 C   0  0  0  0  0  0  0  0  0  0  0  0
   10.1613    2.5492   24.6031 H   0  0  0  0  0  0  0  0  0  0  0  0
   11.1921    1.8269   25.8516 H   0  0  0  0  0  0  0  0  0  0  0  0
   11.2186    1.1801   24.2005 H   0  0  0  0  0  0  0  0  0  0  0  0
    8.7724    0.1728   24.0698 C   0  0  0  0  0  0  0  0  0  0  0  0
    8.1867    0.9535   23.1802 N   0  0  0  0  0  0  0  0  0  0  0  0
    7.8107    0.0885   22.2108 N   0  0  0  0  0  0  0  0  0  0  0  0
    7.2417    0.4195   20.9740 C   0  0  0  0  0  0  0  0  0  0  0  0
    6.1050    1.2258   20.8745 C   0  0  0  0  0  0  0  0  0  0  0  0
    5.5548    1.4282   19.6083 C   0  0  0  0  0  0  0  0  0  0  0  0
    6.1585    0.8629   18.4833 C   0  0  0  0  0  0  0  0  0  0  0  0
    7.2730    0.1200   18.5675 N   0  0  0  0  0  0  0  0  0  0  0  0
    7.7915   -0.0989   19.7882 C   0  0  0  0  0  0  0  0  0  0  0  0
    8.6777   -0.7204   19.8650 H   0  0  0  0  0  0  0  0  0  0  0  0
    5.7104    1.0114   17.5081 H   0  0  0  0  0  0  0  0  0  0  0  0
    4.6561    2.0179   19.4789 H   0  0  0  0  0  0  0  0  0  0  0  0
    5.6498    1.6602   21.7611 H   0  0  0  0  0  0  0  0  0  0  0  0
    8.1602   -1.1929   22.6070 C   0  0  0  0  0  0  0  0  0  0  0  0
    7.8329   -2.4581   21.8930 C   0  0  0  0  0  0  0  0  0  0  0  0
    6.4683   -2.9678   22.3595 C   0  0  0  0  0  0  0  0  0  0  0  0
    6.1316   -4.1870   21.5536 C   0  0  0  0  0  0  0  0  0  0  0  0
    6.0826   -5.4508   22.1467 C   0  0  0  0  0  0  0  0  0  0  0  0
    5.7794   -6.5406   21.3337 C   0  0  0  0  0  0  0  0  0  0  0  0
    5.5471   -6.3326   19.9687 C   0  0  0  0  0  0  0  0  0  0  0  0
    5.6074   -5.1230   19.4002 N   0  0  0  0  0  0  0  0  0  0  0  0
    5.8908   -4.0631   20.1739 C   0  0  0  0  0  0  0  0  0  0  0  0
    5.8665   -2.3271   19.3700 Br  0  0  0  0  0  0  0  0  0  0  0  0
    5.3018   -7.1715   19.3257 H   0  0  0  0  0  0  0  0  0  0  0  0
    5.7312   -7.5422   21.7457 H   0  0  0  0  0  0  0  0  0  0  0  0
    6.2700   -5.5847   23.2093 H   0  0  0  0  0  0  0  0  0  0  0  0
    5.7083   -2.2046   22.1723 H   0  0  0  0  0  0  0  0  0  0  0  0
    6.4848   -3.1873   23.4362 H   0  0  0  0  0  0  0  0  0  0  0  0
    8.6018   -3.2036   22.0908 H   0  0  0  0  0  0  0  0  0  0  0  0
    7.8185   -2.2696   20.8200 H   0  0  0  0  0  0  0  0  0  0  0  0
    8.7704   -1.1783   23.7488 N   0  0  0  0  0  0  0  0  0  0  0  0
    9.9241   -0.2426   25.8042 H   0  0  0  0  0  0  0  0  0  0  0  0
    6.8139    0.9319   27.3851 H   0  0  0  0  0  0  0  0  0  0  0  0
    7.7230   -0.5428   27.0028 H   0  0  0  0  0  0  0  0  0  0  0  0
    6.8350    0.3122   25.7201 H   0  0  0  0  0  0  0  0  0  0  0  0
  1  2  1  0
  2  3  1  0
  3  4  1  0
  4  5  1  0
  4  6  1  0
  4  7  1  0
  3  8  1  0
  8  9  2  0
  9 10  1  0
 10 11  1  0
 11 12  2  0
 12 13  1  0
 13 14  2  0
 14 15  1  0
 15 16  2  0
 16 17  1  0
 14 18  1  0
 13 19  1  0
 12 20  1  0
 10 21  1  0
 21 22  1  0
 22 23  1  0
 23 24  1  0
 24 25  2  0
 25 26  1  0
 26 27  2  0
 27 28  1  0
 28 29  2  0
 29 30  1  0
 27 31  1  0
 26 32  1  0
 25 33  1  0
 23 34  1  0
 23 35  1  0
 22 36  1  0
 22 37  1  0
 21 38  2  0
  3 39  1  0
  1 40  1  0
  1 41  1  0
  1 42  1  0
 38  8  1  0
 16 11  1  0
 29 24  1  0
M  END
>  <cnnaffinity>  (1) 
-5.84942

>  <filename>  (1) 
COC(C)c1nc(CCc2cccnc2Br)n(-c2cccnc2)n1

$$$$
