
     RDKit          3D

 42 44  0  0  0  0  0  0  0  0999 V2000
    7.1222   -4.9838   22.7479 C   0  0  0  0  0  0  0  0  0  0  0  0
    6.4867   -3.9047   23.4429 O   0  0  0  0  0  0  0  0  0  0  0  0
    7.4111   -2.8417   23.7545 C   0  0  0  0  0  0  0  0  0  0  0  0
    6.8372   -2.0605   24.9373 C   0  0  0  0  0  0  0  0  0  0  0  0
    5.8970   -1.5795   24.6513 H   0  0  0  0  0  0  0  0  0  0  0  0
    6.6464   -2.7361   25.7765 H   0  0  0  0  0  0  0  0  0  0  0  0
    7.5430   -1.2901   25.2645 H   0  0  0  0  0  0  0  0  0  0  0  0
    7.6582   -1.8965   22.5885 C   0  0  0  0  0  0  0  0  0  0  0  0
    6.7310   -1.5873   21.7121 N   0  0  0  0  0  0  0  0  0  0  0  0
    7.3237   -0.6696   20.9265 N   0  0  0  0  0  0  0  0  0  0  0  0
    6.6624    0.0111   19.9045 C   0  0  0  0  0  0  0  0  0  0  0  0
    5.4444    0.6421   20.1582 C   0  0  0  0  0  0  0  0  0  0  0  0
    4.8238    1.2999   19.0996 C   0  0  0  0  0  0  0  0  0  0  0  0
    5.4024    1.2966   17.8256 C   0  0  0  0  0  0  0  0  0  0  0  0
    6.5749    0.6799   17.5786 N   0  0  0  0  0  0  0  0  0  0  0  0
    7.1896    0.0605   18.6025 C   0  0  0  0  0  0  0  0  0  0  0  0
    8.1339   -0.4392   18.4057 H   0  0  0  0  0  0  0  0  0  0  0  0
    4.8905    1.8049   17.0148 H   0  0  0  0  0  0  0  0  0  0  0  0
    3.8905    1.8240   19.2521 H   0  0  0  0  0  0  0  0  0  0  0  0
    5.0093    0.6238   21.1592 H   0  0  0  0  0  0  0  0  0  0  0  0
    8.6063   -0.4411   21.4054 C   0  0  0  0  0  0  0  0  0  0  0  0
    9.5442    0.6253   20.9347 C   0  0  0  0  0  0  0  0  0  0  0  0
    9.0607    2.0039   21.4201 C   0  0  0  0  0  0  0  0  0  0  0  0
    8.9305    2.0374   22.9199 C   0  0  0  0  0  0  0  0  0  0  0  0
    7.7033    1.8034   23.5369 C   0  0  0  0  0  0  0  0  0  0  0  0
    7.5951    1.8074   24.9270 C   0  0  0  0  0  0  0  0  0  0  0  0
    8.6498    2.0014   25.7223 N   0  0  0  0  0  0  0  0  0  0  0  0
    9.8384    2.1822   25.1288 C   0  0  0  0  0  0  0  0  0  0  0  0
   10.0275    2.2477   23.7473 C   0  0  0  0  0  0  0  0  0  0  0  0
   11.7824    2.5654   23.0458 Br  0  0  0  0  0  0  0  0  0  0  0  0
   10.7161    2.2205   25.7480 H   0  0  0  0  0  0  0  0  0  0  0  0
    6.6333    1.6183   25.3900 H   0  0  0  0  0  0  0  0  0  0  0  0
    6.8225    1.6154   22.9439 H   0  0  0  0  0  0  0  0  0  0  0  0
    8.0861    2.2333   20.9771 H   0  0  0  0  0  0  0  0  0  0  0  0
    9.7695    2.7750   21.1057 H   0  0  0  0  0  0  0  0  0  0  0  0
   10.5510    0.4274   21.3208 H   0  0  0  0  0  0  0  0  0  0  0  0
    9.5660    0.6057   19.8448 H   0  0  0  0  0  0  0  0  0  0  0  0
    8.8618   -1.2189   22.4147 N   0  0  0  0  0  0  0  0  0  0  0  0
    8.3734   -3.2672   24.0521 H   0  0  0  0  0  0  0  0  0  0  0  0
    7.7175   -4.6173   21.9038 H   0  0  0  0  0  0  0  0  0  0  0  0
    7.7903   -5.5059   23.4380 H   0  0  0  0  0  0  0  0  0  0  0  0
    6.3737   -5.6865   22.3689 H   0  0  0  0  0  0  0  0  0  0  0  0
  1  2  1  0
  2  3  1  0
  3  4  1  0
  4  5  1  0
  4  6  1  0
  4  7  1  0
  3  8  1  0
  8  9  2  0
  9 10  1  0
 10 11  1  0
 11 12  2  0
 12 13  1  0
 13 14  2  0
 14 15  1  0
 15 16  2  0
 16 17  1  0
 14 18  1  0
 13 19  1  0
 12 20  1  0
 10 21  1  0
 21 22  1  0
 22 23  1  0
 23 24  1  0
 24 25  2  0
 25 26  1  0
 26 27  2  0
 27 28  1  0
 28 29  2  0
 29 30  1  0
 28 31  1  0
 26 32  1  0
 25 33  1  0
 23 34  1  0
 23 35  1  0
 22 36  1  0
 22 37  1  0
 21 38  2  0
  3 39  1  0
  1 40  1  0
  1 41  1  0
  1 42  1  0
 38  8  1  0
 16 11  1  0
 29 24  1  0
M  END
>  <cnnaffinity>  (1) 
-6.03286

>  <filename>  (1) 
COC(C)c1nc(CCc2ccncc2Br)n(-c2cccnc2)n1

$$$$
