
     RDKit          3D

 44 46  0  0  0  0  0  0  0  0999 V2000
    6.9981   -5.0542   22.7478 C   0  0  0  0  0  0  0  0  0  0  0  0
    6.4647   -4.0248   23.5636 O   0  0  0  0  0  0  0  0  0  0  0  0
    7.3286   -2.9236   23.7852 C   0  0  0  0  0  0  0  0  0  0  0  0
    6.7787   -2.1347   24.9770 C   0  0  0  0  0  0  0  0  0  0  0  0
    6.6202   -2.8037   25.8280 H   0  0  0  0  0  0  0  0  0  0  0  0
    7.4977   -1.3599   25.2673 H   0  0  0  0  0  0  0  0  0  0  0  0
    5.8278   -1.6585   24.7150 H   0  0  0  0  0  0  0  0  0  0  0  0
    7.5366   -2.0166   22.5759 C   0  0  0  0  0  0  0  0  0  0  0  0
    6.6021   -1.6188   21.7305 N   0  0  0  0  0  0  0  0  0  0  0  0
    7.2738   -0.7770   20.9005 N   0  0  0  0  0  0  0  0  0  0  0  0
    6.5956   -0.0766   19.8586 C   0  0  0  0  0  0  0  0  0  0  0  0
    5.4011    0.6044   20.1210 C   0  0  0  0  0  0  0  0  0  0  0  0
    4.8026    1.3146   19.0766 C   0  0  0  0  0  0  0  0  0  0  0  0
    5.4015    1.3144   17.8116 C   0  0  0  0  0  0  0  0  0  0  0  0
    6.5356    0.6494   17.5472 N   0  0  0  0  0  0  0  0  0  0  0  0
    7.1095   -0.0261   18.5490 C   0  0  0  0  0  0  0  0  0  0  0  0
    8.0294   -0.5510   18.3022 H   0  0  0  0  0  0  0  0  0  0  0  0
    4.9490    1.8518   16.9795 H   0  0  0  0  0  0  0  0  0  0  0  0
    3.8818    1.8646   19.2315 H   0  0  0  0  0  0  0  0  0  0  0  0
    4.9683    0.5729   21.1207 H   0  0  0  0  0  0  0  0  0  0  0  0
    8.5615   -0.6644   21.3427 C   0  0  0  0  0  0  0  0  0  0  0  0
    9.6106    0.1732   20.6771 C   0  0  0  0  0  0  0  0  0  0  0  0
   10.5839    0.7321   21.5403 O   0  0  0  0  0  0  0  0  0  0  0  0
   10.2474    1.6654   22.4942 C   0  0  0  0  0  0  0  0  0  0  0  0
    8.9616    2.1989   22.6462 C   0  0  0  0  0  0  0  0  0  0  0  0
    8.7022    3.1234   23.6705 C   0  0  0  0  0  0  0  0  0  0  0  0
    9.7301    3.5723   24.4939 C   0  0  0  0  0  0  0  0  0  0  0  0
   11.0206    3.0565   24.3085 C   0  0  0  0  0  0  0  0  0  0  0  0
   11.2844    2.0463   23.3777 C   0  0  0  0  0  0  0  0  0  0  0  0
   12.6064    1.3127   23.3778 C   0  0  0  0  0  0  0  0  0  0  0  0
   12.4375    0.2369   23.5174 H   0  0  0  0  0  0  0  0  0  0  0  0
   13.2573    1.6553   24.1862 H   0  0  0  0  0  0  0  0  0  0  0  0
   13.1388    1.4408   22.4305 H   0  0  0  0  0  0  0  0  0  0  0  0
   11.8531    3.4465   24.8835 H   0  0  0  0  0  0  0  0  0  0  0  0
    9.5126    4.2825   25.2896 H   0  0  0  0  0  0  0  0  0  0  0  0
    7.6895    3.4817   23.8130 H   0  0  0  0  0  0  0  0  0  0  0  0
    8.1663    1.9163   21.9672 H   0  0  0  0  0  0  0  0  0  0  0  0
    9.1670    0.9423   20.0382 H   0  0  0  0  0  0  0  0  0  0  0  0
   10.1643   -0.5138   20.0382 H   0  0  0  0  0  0  0  0  0  0  0  0
    8.7574   -1.4586   22.3744 N   0  0  0  0  0  0  0  0  0  0  0  0
    8.3402   -3.2791   24.0477 H   0  0  0  0  0  0  0  0  0  0  0  0
    6.1615   -5.7058   22.4804 H   0  0  0  0  0  0  0  0  0  0  0  0
    7.4474   -4.6545   21.8261 H   0  0  0  0  0  0  0  0  0  0  0  0
    7.7560   -5.6563   23.2764 H   0  0  0  0  0  0  0  0  0  0  0  0
  1  2  1  0
  2  3  1  0
  3  4  1  0
  4  5  1  0
  4  6  1  0
  4  7  1  0
  3  8  1  0
  8  9  2  0
  9 10  1  0
 10 11  1  0
 11 12  2  0
 12 13  1  0
 13 14  2  0
 14 15  1  0
 15 16  2  0
 16 17  1  0
 14 18  1  0
 13 19  1  0
 12 20  1  0
 10 21  1  0
 21 22  1  0
 22 23  1  0
 23 24  1  0
 24 25  2  0
 25 26  1  0
 26 27  2  0
 27 28  1  0
 28 29  2  0
 29 30  1  0
 30 31  1  0
 30 32  1  0
 30 33  1  0
 28 34  1  0
 27 35  1  0
 26 36  1  0
 25 37  1  0
 22 38  1  0
 22 39  1  0
 21 40  2  0
  3 41  1  0
  1 42  1  0
  1 43  1  0
  1 44  1  0
 40  8  1  0
 16 11  1  0
 29 24  1  0
M  END
>  <cnnaffinity>  (1) 
-5.80371

>  <filename>  (1) 
COC(C)c1nc(COc2ccccc2C)n(-c2cccnc2)n1

$$$$
