
     RDKit          3D

 40 42  0  0  0  0  0  0  0  0999 V2000
    8.1975   -5.0697   22.8527 C   0  0  0  0  0  0  0  0  0  0  0  0
    8.1769   -4.0744   23.8542 O   0  0  0  0  0  0  0  0  0  0  0  0
    7.2528   -3.0102   23.6746 C   0  0  0  0  0  0  0  0  0  0  0  0
    7.2212   -2.2817   25.0218 C   0  0  0  0  0  0  0  0  0  0  0  0
    7.0781   -3.0133   25.8213 H   0  0  0  0  0  0  0  0  0  0  0  0
    6.4161   -1.5415   25.0604 H   0  0  0  0  0  0  0  0  0  0  0  0
    8.1774   -1.7715   25.1833 H   0  0  0  0  0  0  0  0  0  0  0  0
    7.5722   -2.0420   22.5321 C   0  0  0  0  0  0  0  0  0  0  0  0
    6.6479   -1.6574   21.6719 N   0  0  0  0  0  0  0  0  0  0  0  0
    7.2880   -0.7305   20.9042 N   0  0  0  0  0  0  0  0  0  0  0  0
    6.5892   -0.0480   19.8610 C   0  0  0  0  0  0  0  0  0  0  0  0
    5.3781    0.6086   20.1168 C   0  0  0  0  0  0  0  0  0  0  0  0
    4.7767    1.3156   19.0697 C   0  0  0  0  0  0  0  0  0  0  0  0
    5.3792    1.3132   17.8060 C   0  0  0  0  0  0  0  0  0  0  0  0
    6.5096    0.6436   17.5378 N   0  0  0  0  0  0  0  0  0  0  0  0
    7.0954   -0.0130   18.5461 C   0  0  0  0  0  0  0  0  0  0  0  0
    8.0247   -0.5282   18.3075 H   0  0  0  0  0  0  0  0  0  0  0  0
    4.9442    1.8709   16.9790 H   0  0  0  0  0  0  0  0  0  0  0  0
    3.8651    1.8810   19.2205 H   0  0  0  0  0  0  0  0  0  0  0  0
    4.9439    0.5727   21.1178 H   0  0  0  0  0  0  0  0  0  0  0  0
    8.5636   -0.5843   21.3822 C   0  0  0  0  0  0  0  0  0  0  0  0
    9.6514    0.2683   20.8085 C   0  0  0  0  0  0  0  0  0  0  0  0
   10.3569    1.1026   21.8629 C   0  0  0  0  0  0  0  0  0  0  0  0
   11.6291    0.7306   22.3199 C   0  0  0  0  0  0  0  0  0  0  0  0
   12.2510    1.3861   23.3857 C   0  0  0  0  0  0  0  0  0  0  0  0
   11.5920    2.4500   24.0045 C   0  0  0  0  0  0  0  0  0  0  0  0
   10.3395    2.8688   23.5571 C   0  0  0  0  0  0  0  0  0  0  0  0
    9.7356    2.1956   22.4913 C   0  0  0  0  0  0  0  0  0  0  0  0
    8.1558    2.7288   21.9857 Cl  0  0  0  0  0  0  0  0  0  0  0  0
    9.8223    3.6966   24.0347 H   0  0  0  0  0  0  0  0  0  0  0  0
   12.0291    2.9404   24.8618 H   0  0  0  0  0  0  0  0  0  0  0  0
   13.2291    1.0645   23.7343 H   0  0  0  0  0  0  0  0  0  0  0  0
   12.1322   -0.1053   21.8406 H   0  0  0  0  0  0  0  0  0  0  0  0
    9.2541    0.9028   20.0157 H   0  0  0  0  0  0  0  0  0  0  0  0
   10.3675   -0.4292   20.3635 H   0  0  0  0  0  0  0  0  0  0  0  0
    8.7625   -1.4031   22.3966 N   0  0  0  0  0  0  0  0  0  0  0  0
    6.2559   -3.4100   23.4295 H   0  0  0  0  0  0  0  0  0  0  0  0
    8.3071   -4.6517   21.8418 H   0  0  0  0  0  0  0  0  0  0  0  0
    7.3021   -5.7070   22.8852 H   0  0  0  0  0  0  0  0  0  0  0  0
    9.0600   -5.6974   23.0719 H   0  0  0  0  0  0  0  0  0  0  0  0
  1  2  1  0
  2  3  1  0
  3  4  1  0
  4  5  1  0
  4  6  1  0
  4  7  1  0
  3  8  1  0
  8  9  2  0
  9 10  1  0
 10 11  1  0
 11 12  2  0
 12 13  1  0
 13 14  2  0
 14 15  1  0
 15 16  2  0
 16 17  1  0
 14 18  1  0
 13 19  1  0
 12 20  1  0
 10 21  1  0
 21 22  1  0
 22 23  1  0
 23 24  2  0
 24 25  1  0
 25 26  2  0
 26 27  1  0
 27 28  2  0
 28 29  1  0
 27 30  1  0
 26 31  1  0
 25 32  1  0
 24 33  1  0
 22 34  1  0
 22 35  1  0
 21 36  2  0
  3 37  1  0
  1 38  1  0
  1 39  1  0
  1 40  1  0
 36  8  1  0
 16 11  1  0
 28 23  1  0
M  END
>  <cnnaffinity>  (1) 
-5.93395

>  <filename>  (1) 
COC(C)c1nc(Cc2ccccc2Cl)n(-c2cccnc2)n1

$$$$
