
     RDKit          3D

 42 44  0  0  0  0  0  0  0  0999 V2000
    8.1625   -5.0205   23.5273 C   0  0  0  0  0  0  0  0  0  0  0  0
    8.9276   -3.8425   23.6656 O   0  0  0  0  0  0  0  0  0  0  0  0
    9.1166   -3.1052   22.4734 C   0  0  0  0  0  0  0  0  0  0  0  0
   10.4561   -2.3703   22.6443 C   0  0  0  0  0  0  0  0  0  0  0  0
   11.2210   -3.0456   23.0304 H   0  0  0  0  0  0  0  0  0  0  0  0
   10.7858   -1.9175   21.7023 H   0  0  0  0  0  0  0  0  0  0  0  0
   10.3108   -1.5729   23.3861 H   0  0  0  0  0  0  0  0  0  0  0  0
    8.0571   -2.0635   22.1760 C   0  0  0  0  0  0  0  0  0  0  0  0
    7.7085   -1.7925   20.9323 N   0  0  0  0  0  0  0  0  0  0  0  0
    7.0992   -0.5821   21.0509 N   0  0  0  0  0  0  0  0  0  0  0  0
    6.5017    0.0456   19.9303 C   0  0  0  0  0  0  0  0  0  0  0  0
    5.3039    0.7568   20.0590 C   0  0  0  0  0  0  0  0  0  0  0  0
    4.7831    1.3745   18.9200 C   0  0  0  0  0  0  0  0  0  0  0  0
    5.4750    1.2638   17.7102 C   0  0  0  0  0  0  0  0  0  0  0  0
    6.6157    0.5611   17.5806 N   0  0  0  0  0  0  0  0  0  0  0  0
    7.1072   -0.0417   18.6657 C   0  0  0  0  0  0  0  0  0  0  0  0
    8.0271   -0.6112   18.5367 H   0  0  0  0  0  0  0  0  0  0  0  0
    5.1091    1.7522   16.8110 H   0  0  0  0  0  0  0  0  0  0  0  0
    3.8686    1.9542   18.9661 H   0  0  0  0  0  0  0  0  0  0  0  0
    4.7901    0.8191   21.0206 H   0  0  0  0  0  0  0  0  0  0  0  0
    7.2040   -0.1565   22.3469 C   0  0  0  0  0  0  0  0  0  0  0  0
    7.0479    1.2501   22.8418 C   0  0  0  0  0  0  0  0  0  0  0  0
    8.2128    1.7018   23.7728 C   0  0  0  0  0  0  0  0  0  0  0  0
    7.9837    3.0708   24.3523 C   0  0  0  0  0  0  0  0  0  0  0  0
    8.4313    4.2242   23.6896 C   0  0  0  0  0  0  0  0  0  0  0  0
    8.0544    5.4771   24.1749 C   0  0  0  0  0  0  0  0  0  0  0  0
    7.2764    5.5256   25.3348 C   0  0  0  0  0  0  0  0  0  0  0  0
    6.9343    4.3237   25.9598 C   0  0  0  0  0  0  0  0  0  0  0  0
    7.2705    3.1196   25.4875 N   0  0  0  0  0  0  0  0  0  0  0  0
    6.3491    4.3190   26.8769 H   0  0  0  0  0  0  0  0  0  0  0  0
    6.9261    6.4610   25.7533 H   0  0  0  0  0  0  0  0  0  0  0  0
    8.3505    6.3881   23.6538 H   0  0  0  0  0  0  0  0  0  0  0  0
    9.0542    4.1216   22.8054 H   0  0  0  0  0  0  0  0  0  0  0  0
    9.1587    1.6933   23.2174 H   0  0  0  0  0  0  0  0  0  0  0  0
    8.3171    0.9945   24.6018 H   0  0  0  0  0  0  0  0  0  0  0  0
    6.9773    1.9330   21.9874 H   0  0  0  0  0  0  0  0  0  0  0  0
    6.1031    1.3239   23.3961 H   0  0  0  0  0  0  0  0  0  0  0  0
    7.7116   -1.1221   23.0884 N   0  0  0  0  0  0  0  0  0  0  0  0
    9.0821   -3.7742   21.6005 H   0  0  0  0  0  0  0  0  0  0  0  0
    8.6167   -5.7026   22.7832 H   0  0  0  0  0  0  0  0  0  0  0  0
    7.1216   -4.8093   23.2380 H   0  0  0  0  0  0  0  0  0  0  0  0
    8.1623   -5.5079   24.5050 H   0  0  0  0  0  0  0  0  0  0  0  0
  1  2  1  0
  2  3  1  0
  3  4  1  0
  4  5  1  0
  4  6  1  0
  4  7  1  0
  3  8  1  0
  8  9  2  0
  9 10  1  0
 10 11  1  0
 11 12  2  0
 12 13  1  0
 13 14  2  0
 14 15  1  0
 15 16  2  0
 16 17  1  0
 14 18  1  0
 13 19  1  0
 12 20  1  0
 10 21  1  0
 21 22  1  0
 22 23  1  0
 23 24  1  0
 24 25  2  0
 25 26  1  0
 26 27  2  0
 27 28  1  0
 28 29  2  0
 28 30  1  0
 27 31  1  0
 26 32  1  0
 25 33  1  0
 23 34  1  0
 23 35  1  0
 22 36  1  0
 22 37  1  0
 21 38  2  0
  3 39  1  0
  1 40  1  0
  1 41  1  0
  1 42  1  0
 38  8  1  0
 16 11  1  0
 29 24  1  0
M  END
>  <cnnaffinity>  (1) 
-5.77021

>  <filename>  (1) 
COC(C)c1nc(CCc2ccccn2)n(-c2cccnc2)n1

$$$$
