
     RDKit          3D

 46 49  0  0  0  0  0  0  0  0999 V2000
    8.4800   -4.9052   23.2331 C   0  0  0  0  0  0  0  0  0  0  0  0
    8.2082   -3.8992   24.1809 O   0  0  0  0  0  0  0  0  0  0  0  0
    7.2060   -2.9594   23.8362 C   0  0  0  0  0  0  0  0  0  0  0  0
    7.6031   -2.0526   22.6718 C   0  0  0  0  0  0  0  0  0  0  0  0
    6.7255   -1.6262   21.7808 N   0  0  0  0  0  0  0  0  0  0  0  0
    7.4273   -0.6969   21.0636 N   0  0  0  0  0  0  0  0  0  0  0  0
    6.7814   -0.0165   19.9788 C   0  0  0  0  0  0  0  0  0  0  0  0
    5.5552    0.6207   20.2040 C   0  0  0  0  0  0  0  0  0  0  0  0
    4.9308    1.2827   19.1436 C   0  0  0  0  0  0  0  0  0  0  0  0
    5.5398    1.2733   17.8832 C   0  0  0  0  0  0  0  0  0  0  0  0
    6.6987    0.6384   17.6453 N   0  0  0  0  0  0  0  0  0  0  0  0
    7.2986    0.0101   18.6683 C   0  0  0  0  0  0  0  0  0  0  0  0
    8.2166   -0.5200   18.4165 H   0  0  0  0  0  0  0  0  0  0  0  0
    5.0676    1.7709   17.0349 H   0  0  0  0  0  0  0  0  0  0  0  0
    3.9841    1.7972   19.2820 H   0  0  0  0  0  0  0  0  0  0  0  0
    5.1084    0.5746   21.1970 H   0  0  0  0  0  0  0  0  0  0  0  0
    8.6763   -0.5862   21.6107 C   0  0  0  0  0  0  0  0  0  0  0  0
    9.6139    0.5769   21.4176 C   0  0  0  0  0  0  0  0  0  0  0  0
    9.1135    1.8587   22.0742 C   0  0  0  0  0  0  0  0  0  0  0  0
    9.3116    2.1001   23.4423 C   0  0  0  0  0  0  0  0  0  0  0  0
    8.7866    3.2584   24.0362 C   0  0  0  0  0  0  0  0  0  0  0  0
    8.9039    3.5808   25.5104 C   0  0  0  0  0  0  0  0  0  0  0  0
    8.0751    4.2156   25.8419 H   0  0  0  0  0  0  0  0  0  0  0  0
    8.8973    2.6839   26.1407 H   0  0  0  0  0  0  0  0  0  0  0  0
    9.8097    4.1530   25.7227 H   0  0  0  0  0  0  0  0  0  0  0  0
    8.1143    4.1486   23.1798 C   0  0  0  0  0  0  0  0  0  0  0  0
    7.9078    3.9415   21.8753 N   0  0  0  0  0  0  0  0  0  0  0  0
    8.3936    2.8074   21.3521 C   0  0  0  0  0  0  0  0  0  0  0  0
    8.2235    2.5937   20.2951 H   0  0  0  0  0  0  0  0  0  0  0  0
    7.7287    5.0808   23.5926 H   0  0  0  0  0  0  0  0  0  0  0  0
    9.8716    1.3690   24.0259 H   0  0  0  0  0  0  0  0  0  0  0  0
    9.7706    0.7373   20.3479 H   0  0  0  0  0  0  0  0  0  0  0  0
   10.5696    0.2853   21.8650 H   0  0  0  0  0  0  0  0  0  0  0  0
    8.8260   -1.4726   22.5722 N   0  0  0  0  0  0  0  0  0  0  0  0
    6.8794   -2.1043   25.0779 C   0  0  0  0  0  0  0  0  0  0  0  0
    7.1378   -2.6233   26.4663 C   0  0  0  0  0  0  0  0  0  0  0  0
    7.9816   -1.5063   25.9222 C   0  0  0  0  0  0  0  0  0  0  0  0
    9.0039   -1.7419   25.6281 H   0  0  0  0  0  0  0  0  0  0  0  0
    7.8405   -0.5014   26.3203 H   0  0  0  0  0  0  0  0  0  0  0  0
    6.4140   -2.4065   27.2475 H   0  0  0  0  0  0  0  0  0  0  0  0
    7.5940   -3.6088   26.5307 H   0  0  0  0  0  0  0  0  0  0  0  0
    5.9922   -1.4844   24.9263 H   0  0  0  0  0  0  0  0  0  0  0  0
    6.2865   -3.4783   23.5220 H   0  0  0  0  0  0  0  0  0  0  0  0
    7.6239   -5.5832   23.0999 H   0  0  0  0  0  0  0  0  0  0  0  0
    8.7726   -4.4799   22.2626 H   0  0  0  0  0  0  0  0  0  0  0  0
    9.3120   -5.4712   23.6518 H   0  0  0  0  0  0  0  0  0  0  0  0
  1  2  1  0
  2  3  1  0
  3  4  1  0
  4  5  2  0
  5  6  1  0
  6  7  1  0
  7  8  2  0
  8  9  1  0
  9 10  2  0
 10 11  1  0
 11 12  2  0
 12 13  1  0
 10 14  1  0
  9 15  1  0
  8 16  1  0
  6 17  1  0
 17 18  1  0
 18 19  1  0
 19 20  2  0
 20 21  1  0
 21 22  1  0
 22 23  1  0
 22 24  1  0
 22 25  1  0
 21 26  2  0
 26 27  1  0
 27 28  2  0
 28 29  1  0
 26 30  1  0
 20 31  1  0
 18 32  1  0
 18 33  1  0
 17 34  2  0
  3 35  1  0
 35 36  1  0
 36 37  1  0
 37 38  1  0
 37 39  1  0
 36 40  1  0
 36 41  1  0
 35 42  1  0
  3 43  1  0
  1 44  1  0
  1 45  1  0
  1 46  1  0
 34  4  1  0
 37 35  1  0
 12  7  1  0
 28 19  1  0
M  END
>  <cnnaffinity>  (1) 
-6.07582

>  <filename>  (1) 
COC(c1nc(Cc2cncc(C)c2)n(-c2cccnc2)n1)C1CC1

$$$$
