
     RDKit          3D

 46 48  0  0  0  0  0  0  0  0999 V2000
    8.4991   -5.8692   24.8584 C   0  0  0  0  0  0  0  0  0  0  0  0
    8.6585   -5.4332   23.5310 O   0  0  0  0  0  0  0  0  0  0  0  0
    7.8748   -4.3247   23.1288 C   0  0  0  0  0  0  0  0  0  0  0  0
    6.6353   -4.7995   22.3721 C   0  0  0  0  0  0  0  0  0  0  0  0
    6.0337   -3.9518   22.0304 H   0  0  0  0  0  0  0  0  0  0  0  0
    5.9985   -5.4503   22.9808 H   0  0  0  0  0  0  0  0  0  0  0  0
    6.9544   -5.3723   21.4920 H   0  0  0  0  0  0  0  0  0  0  0  0
    8.7862   -3.5328   22.1966 C   0  0  0  0  0  0  0  0  0  0  0  0
    8.2501   -2.1891   21.9281 C   0  0  0  0  0  0  0  0  0  0  0  0
    7.7614   -1.8771   20.7507 N   0  0  0  0  0  0  0  0  0  0  0  0
    7.3048   -0.6171   20.9378 N   0  0  0  0  0  0  0  0  0  0  0  0
    6.6164    0.0408   19.8984 C   0  0  0  0  0  0  0  0  0  0  0  0
    5.3948    0.6803   20.1286 C   0  0  0  0  0  0  0  0  0  0  0  0
    4.7864    1.3176   19.0449 C   0  0  0  0  0  0  0  0  0  0  0  0
    5.4187    1.2889   17.7976 C   0  0  0  0  0  0  0  0  0  0  0  0
    6.5695    0.6315   17.5649 N   0  0  0  0  0  0  0  0  0  0  0  0
    7.1464    0.0101   18.5961 C   0  0  0  0  0  0  0  0  0  0  0  0
    8.0721   -0.5366   18.4093 H   0  0  0  0  0  0  0  0  0  0  0  0
    4.9940    1.8234   16.9507 H   0  0  0  0  0  0  0  0  0  0  0  0
    3.8565    1.8561   19.1735 H   0  0  0  0  0  0  0  0  0  0  0  0
    4.9370    0.6545   21.1186 H   0  0  0  0  0  0  0  0  0  0  0  0
    7.5882   -0.2191   22.2121 C   0  0  0  0  0  0  0  0  0  0  0  0
    7.3364    1.1429   22.7819 C   0  0  0  0  0  0  0  0  0  0  0  0
    8.5773    1.6913   23.4604 C   0  0  0  0  0  0  0  0  0  0  0  0
    9.6769    2.1598   22.7231 C   0  0  0  0  0  0  0  0  0  0  0  0
    9.5662    2.1326   21.0024 Cl  0  0  0  0  0  0  0  0  0  0  0  0
   10.8952    2.5669   23.3039 C   0  0  0  0  0  0  0  0  0  0  0  0
   12.0467    3.1500   22.5148 C   0  0  0  0  0  0  0  0  0  0  0  0
   11.7317    4.0148   21.9204 H   0  0  0  0  0  0  0  0  0  0  0  0
   12.8494    3.4813   23.1822 H   0  0  0  0  0  0  0  0  0  0  0  0
   12.4687    2.4154   21.8214 H   0  0  0  0  0  0  0  0  0  0  0  0
   11.0032    2.3794   24.6841 C   0  0  0  0  0  0  0  0  0  0  0  0
    9.9286    1.9333   25.4481 C   0  0  0  0  0  0  0  0  0  0  0  0
    8.7209    1.6051   24.8437 C   0  0  0  0  0  0  0  0  0  0  0  0
    7.8977    1.2412   25.4493 H   0  0  0  0  0  0  0  0  0  0  0  0
   10.0316    1.8327   26.5142 H   0  0  0  0  0  0  0  0  0  0  0  0
   11.9536    2.5601   25.1717 H   0  0  0  0  0  0  0  0  0  0  0  0
    6.5096    1.0675   23.4953 H   0  0  0  0  0  0  0  0  0  0  0  0
    7.0135    1.8267   21.9947 H   0  0  0  0  0  0  0  0  0  0  0  0
    8.1610   -1.2147   22.8674 N   0  0  0  0  0  0  0  0  0  0  0  0
    8.8122   -4.0555   21.2425 H   0  0  0  0  0  0  0  0  0  0  0  0
    9.7909   -3.4632   22.6214 H   0  0  0  0  0  0  0  0  0  0  0  0
    7.5882   -3.7017   23.9978 H   0  0  0  0  0  0  0  0  0  0  0  0
    9.1836   -6.7071   24.9947 H   0  0  0  0  0  0  0  0  0  0  0  0
    7.4747   -6.2053   25.0828 H   0  0  0  0  0  0  0  0  0  0  0  0
    8.7733   -5.0911   25.5868 H   0  0  0  0  0  0  0  0  0  0  0  0
  1  2  1  0
  2  3  1  0
  3  4  1  0
  4  5  1  0
  4  6  1  0
  4  7  1  0
  3  8  1  0
  8  9  1  0
  9 10  2  0
 10 11  1  0
 11 12  1  0
 12 13  2  0
 13 14  1  0
 14 15  2  0
 15 16  1  0
 16 17  2  0
 17 18  1  0
 15 19  1  0
 14 20  1  0
 13 21  1  0
 11 22  1  0
 22 23  1  0
 23 24  1  0
 24 25  2  0
 25 26  1  0
 25 27  1  0
 27 28  1  0
 28 29  1  0
 28 30  1  0
 28 31  1  0
 27 32  2  0
 32 33  1  0
 33 34  2  0
 34 35  1  0
 33 36  1  0
 32 37  1  0
 23 38  1  0
 23 39  1  0
 22 40  2  0
  8 41  1  0
  8 42  1  0
  3 43  1  0
  1 44  1  0
  1 45  1  0
  1 46  1  0
 40  9  1  0
 17 12  1  0
 34 24  1  0
M  END
>  <cnnaffinity>  (1) 
-6.44

>  <filename>  (1) 
COC(C)Cc1nc(Cc2cccc(C)c2Cl)n(-c2cccnc2)n1

$$$$
