
     RDKit          3D

 43 45  0  0  0  0  0  0  0  0999 V2000
    6.8540   -5.2878   23.7225 C   0  0  0  0  0  0  0  0  0  0  0  0
    6.5330   -4.0148   23.2158 O   0  0  0  0  0  0  0  0  0  0  0  0
    7.3973   -2.9720   23.6367 C   0  0  0  0  0  0  0  0  0  0  0  0
    6.7978   -2.2532   24.8587 C   0  0  0  0  0  0  0  0  0  0  0  0
    5.8316   -1.8196   24.5837 H   0  0  0  0  0  0  0  0  0  0  0  0
    6.6392   -2.9598   25.6802 H   0  0  0  0  0  0  0  0  0  0  0  0
    7.4676   -1.4563   25.2004 H   0  0  0  0  0  0  0  0  0  0  0  0
    7.6457   -2.0170   22.4982 C   0  0  0  0  0  0  0  0  0  0  0  0
    6.6918   -1.5856   21.6950 N   0  0  0  0  0  0  0  0  0  0  0  0
    7.3353   -0.6768   20.9278 N   0  0  0  0  0  0  0  0  0  0  0  0
    6.6458    0.0041   19.8918 C   0  0  0  0  0  0  0  0  0  0  0  0
    5.4348    0.6436   20.1635 C   0  0  0  0  0  0  0  0  0  0  0  0
    4.8110    1.3131   19.1082 C   0  0  0  0  0  0  0  0  0  0  0  0
    5.3984    1.2983   17.8357 C   0  0  0  0  0  0  0  0  0  0  0  0
    6.5534    0.6707   17.5689 N   0  0  0  0  0  0  0  0  0  0  0  0
    7.1606    0.0465   18.5836 C   0  0  0  0  0  0  0  0  0  0  0  0
    8.1108   -0.4331   18.3604 H   0  0  0  0  0  0  0  0  0  0  0  0
    4.9213    1.7892   16.9923 H   0  0  0  0  0  0  0  0  0  0  0  0
    3.8798    1.8410   19.2597 H   0  0  0  0  0  0  0  0  0  0  0  0
    5.0176    0.6048   21.1750 H   0  0  0  0  0  0  0  0  0  0  0  0
    8.6190   -0.5495   21.3725 C   0  0  0  0  0  0  0  0  0  0  0  0
    9.6267    0.3881   20.8185 C   0  0  0  0  0  0  0  0  0  0  0  0
   10.3067    1.2026   21.8979 C   0  0  0  0  0  0  0  0  0  0  0  0
   11.5472    0.7789   22.3846 C   0  0  0  0  0  0  0  0  0  0  0  0
   12.1659    1.4403   23.4494 C   0  0  0  0  0  0  0  0  0  0  0  0
   11.5248    2.5324   24.0320 C   0  0  0  0  0  0  0  0  0  0  0  0
   10.2724    2.9466   23.5670 C   0  0  0  0  0  0  0  0  0  0  0  0
    9.6385    2.2840   22.5100 C   0  0  0  0  0  0  0  0  0  0  0  0
    8.2709    2.7394   22.0579 C   0  0  0  0  0  0  0  0  0  0  0  0
    7.9141    3.5924   22.6391 H   0  0  0  0  0  0  0  0  0  0  0  0
    8.3019    3.0427   21.0126 H   0  0  0  0  0  0  0  0  0  0  0  0
    7.5159    1.9471   22.1239 H   0  0  0  0  0  0  0  0  0  0  0  0
    9.7657    3.7973   24.0193 H   0  0  0  0  0  0  0  0  0  0  0  0
   11.9853    3.0717   24.8475 H   0  0  0  0  0  0  0  0  0  0  0  0
   13.1350    1.1039   23.8100 H   0  0  0  0  0  0  0  0  0  0  0  0
   12.0089   -0.0966   21.9304 H   0  0  0  0  0  0  0  0  0  0  0  0
    9.1591    1.0359   20.0764 H   0  0  0  0  0  0  0  0  0  0  0  0
   10.3363   -0.2781   20.3300 H   0  0  0  0  0  0  0  0  0  0  0  0
    8.8558   -1.4248   22.3285 N   0  0  0  0  0  0  0  0  0  0  0  0
    8.3949   -3.3618   23.8973 H   0  0  0  0  0  0  0  0  0  0  0  0
    6.8842   -5.2996   24.8238 H   0  0  0  0  0  0  0  0  0  0  0  0
    7.8300   -5.6342   23.3443 H   0  0  0  0  0  0  0  0  0  0  0  0
    6.0694   -5.9607   23.3729 H   0  0  0  0  0  0  0  0  0  0  0  0
  1  2  1  0
  2  3  1  0
  3  4  1  0
  4  5  1  0
  4  6  1  0
  4  7  1  0
  3  8  1  0
  8  9  2  0
  9 10  1  0
 10 11  1  0
 11 12  2  0
 12 13  1  0
 13 14  2  0
 14 15  1  0
 15 16  2  0
 16 17  1  0
 14 18  1  0
 13 19  1  0
 12 20  1  0
 10 21  1  0
 21 22  1  0
 22 23  1  0
 23 24  2  0
 24 25  1  0
 25 26  2  0
 26 27  1  0
 27 28  2  0
 28 29  1  0
 29 30  1  0
 29 31  1  0
 29 32  1  0
 27 33  1  0
 26 34  1  0
 25 35  1  0
 24 36  1  0
 22 37  1  0
 22 38  1  0
 21 39  2  0
  3 40  1  0
  1 41  1  0
  1 42  1  0
  1 43  1  0
 39  8  1  0
 16 11  1  0
 28 23  1  0
M  END
>  <cnnaffinity>  (1) 
-5.84579

>  <filename>  (1) 
COC(C)c1nc(Cc2ccccc2C)n(-c2cccnc2)n1

$$$$
