
     RDKit          3D

 44 47  0  0  0  0  0  0  0  0999 V2000
    7.3265   -5.3526   22.4737 C   0  0  0  0  0  0  0  0  0  0  0  0
    6.6491   -4.5068   23.3822 O   0  0  0  0  0  0  0  0  0  0  0  0
    7.3771   -3.3639   23.7798 C   0  0  0  0  0  0  0  0  0  0  0  0
    7.6632   -2.3559   22.6795 C   0  0  0  0  0  0  0  0  0  0  0  0
    6.8665   -2.0941   21.6636 N   0  0  0  0  0  0  0  0  0  0  0  0
    7.4751   -1.0404   21.0563 N   0  0  0  0  0  0  0  0  0  0  0  0
    6.7929   -0.4245   19.9616 C   0  0  0  0  0  0  0  0  0  0  0  0
    5.6013    0.2688   20.2005 C   0  0  0  0  0  0  0  0  0  0  0  0
    5.0063    0.9331   19.1279 C   0  0  0  0  0  0  0  0  0  0  0  0
    5.5765    0.8174   17.8540 C   0  0  0  0  0  0  0  0  0  0  0  0
    6.6719    0.0826   17.6090 N   0  0  0  0  0  0  0  0  0  0  0  0
    7.2588   -0.5360   18.6414 C   0  0  0  0  0  0  0  0  0  0  0  0
    8.1359   -1.1405   18.4124 H   0  0  0  0  0  0  0  0  0  0  0  0
    5.1293    1.3215   16.9998 H   0  0  0  0  0  0  0  0  0  0  0  0
    4.1162    1.5380   19.2621 H   0  0  0  0  0  0  0  0  0  0  0  0
    5.1823    0.3001   21.2083 H   0  0  0  0  0  0  0  0  0  0  0  0
    8.6102   -0.7191   21.7526 C   0  0  0  0  0  0  0  0  0  0  0  0
    9.4936    0.4741   21.5333 C   0  0  0  0  0  0  0  0  0  0  0  0
    8.8848    1.7585   22.1475 C   0  0  0  0  0  0  0  0  0  0  0  0
    9.1171    2.0764   23.5190 C   0  0  0  0  0  0  0  0  0  0  0  0
    9.9085    1.2718   24.2457 F   0  0  0  0  0  0  0  0  0  0  0  0
    8.4379    3.1990   24.0691 C   0  0  0  0  0  0  0  0  0  0  0  0
    7.8145    4.2268   23.0438 C   0  0  0  0  0  0  0  0  0  0  0  0
    7.9543    4.2589   23.1662 C   0  0  0  0  0  0  0  0  0  0  0  0
    7.9541    2.4745   21.4230 C   0  0  0  0  0  0  0  0  0  0  0  0
    7.8742    2.0776   20.1136 F   0  0  0  0  0  0  0  0  0  0  0  0
    7.1186    3.1837   21.7575 H   0  0  0  0  0  0  0  0  0  0  0  0
    8.3109    5.2842   22.5629 H   0  0  0  0  0  0  0  0  0  0  0  0
    8.8924    3.7437   24.8659 H   0  0  0  0  0  0  0  0  0  0  0  0
   10.4569    0.2268   21.9946 H   0  0  0  0  0  0  0  0  0  0  0  0
    9.6636    0.5777   20.4547 H   0  0  0  0  0  0  0  0  0  0  0  0
    8.7553   -1.5527   22.7642 N   0  0  0  0  0  0  0  0  0  0  0  0
    6.6094   -2.6880   24.9098 C   0  0  0  0  0  0  0  0  0  0  0  0
    6.9375   -2.9875   26.3436 C   0  0  0  0  0  0  0  0  0  0  0  0
    7.3049   -1.6557   25.7537 C   0  0  0  0  0  0  0  0  0  0  0  0
    6.7511   -0.7709   26.0557 H   0  0  0  0  0  0  0  0  0  0  0  0
    8.3557   -1.4634   25.5312 H   0  0  0  0  0  0  0  0  0  0  0  0
    6.1134   -3.0239   27.0515 H   0  0  0  0  0  0  0  0  0  0  0  0
    7.7275   -3.7028   26.5599 H   0  0  0  0  0  0  0  0  0  0  0  0
    5.5616   -2.5166   24.6648 H   0  0  0  0  0  0  0  0  0  0  0  0
    8.3779   -3.6455   24.1535 H   0  0  0  0  0  0  0  0  0  0  0  0
    8.2658   -5.7397   22.8989 H   0  0  0  0  0  0  0  0  0  0  0  0
    6.6580   -6.1948   22.2821 H   0  0  0  0  0  0  0  0  0  0  0  0
    7.5413   -4.8361   21.5277 H   0  0  0  0  0  0  0  0  0  0  0  0
  1  2  1  0
  2  3  1  0
  3  4  1  0
  4  5  2  0
  5  6  1  0
  6  7  1  0
  7  8  2  0
  8  9  1  0
  9 10  2  0
 10 11  1  0
 11 12  2  0
 12 13  1  0
 10 14  1  0
  9 15  1  0
  8 16  1  0
  6 17  1  0
 17 18  1  0
 18 19  1  0
 19 20  2  0
 20 21  1  0
 20 22  1  0
 22 23  2  0
 23 24  1  0
 24 25  2  0
 25 26  1  0
 24 27  1  0
 23 28  1  0
 22 29  1  0
 18 30  1  0
 18 31  1  0
 17 32  2  0
  3 33  1  0
 33 34  1  0
 34 35  1  0
 35 36  1  0
 35 37  1  0
 34 38  1  0
 34 39  1  0
 33 40  1  0
  3 41  1  0
  1 42  1  0
  1 43  1  0
  1 44  1  0
 32  4  1  0
 35 33  1  0
 12  7  1  0
 25 19  1  0
M  END
>  <cnnaffinity>  (1) 
-6.16592

>  <filename>  (1) 
COC(c1nc(Cc2c(F)cccc2F)n(-c2cccnc2)n1)C1CC1

$$$$
