
     RDKit          3D

 46 48  0  0  0  0  0  0  0  0999 V2000
    7.3842   -6.8617   22.2848 C   0  0  0  0  0  0  0  0  0  0  0  0
    8.1924   -5.7327   22.4987 O   0  0  0  0  0  0  0  0  0  0  0  0
    7.5245   -4.4866   22.5619 C   0  0  0  0  0  0  0  0  0  0  0  0
    6.9752   -4.2271   23.9622 C   0  0  0  0  0  0  0  0  0  0  0  0
    7.7753   -4.3048   24.7120 H   0  0  0  0  0  0  0  0  0  0  0  0
    6.2052   -4.9670   24.2117 H   0  0  0  0  0  0  0  0  0  0  0  0
    6.5332   -3.2257   24.0150 H   0  0  0  0  0  0  0  0  0  0  0  0
    8.6055   -3.4917   22.1341 C   0  0  0  0  0  0  0  0  0  0  0  0
    8.1143   -2.1092   21.9438 C   0  0  0  0  0  0  0  0  0  0  0  0
    7.6937   -1.7352   20.7541 N   0  0  0  0  0  0  0  0  0  0  0  0
    7.2037   -0.4911   20.9715 N   0  0  0  0  0  0  0  0  0  0  0  0
    6.5200    0.1495   19.9085 C   0  0  0  0  0  0  0  0  0  0  0  0
    5.3040    0.8252   20.0708 C   0  0  0  0  0  0  0  0  0  0  0  0
    4.7448    1.4348   18.9388 C   0  0  0  0  0  0  0  0  0  0  0  0
    5.4202    1.3486   17.7173 C   0  0  0  0  0  0  0  0  0  0  0  0
    6.5611    0.6566   17.5518 N   0  0  0  0  0  0  0  0  0  0  0  0
    7.0776    0.0476   18.6216 C   0  0  0  0  0  0  0  0  0  0  0  0
    7.9607   -0.5710   18.4674 H   0  0  0  0  0  0  0  0  0  0  0  0
    5.0132    1.8129   16.8224 H   0  0  0  0  0  0  0  0  0  0  0  0
    3.8047    1.9736   18.9954 H   0  0  0  0  0  0  0  0  0  0  0  0
    4.8106    0.8549   21.0446 H   0  0  0  0  0  0  0  0  0  0  0  0
    7.4674   -0.1313   22.2649 C   0  0  0  0  0  0  0  0  0  0  0  0
    7.3331    1.2516   22.8413 C   0  0  0  0  0  0  0  0  0  0  0  0
    8.6503    1.7411   23.4365 C   0  0  0  0  0  0  0  0  0  0  0  0
    8.8891    1.5929   24.8072 C   0  0  0  0  0  0  0  0  0  0  0  0
   10.1255    1.9252   25.3658 C   0  0  0  0  0  0  0  0  0  0  0  0
   11.1193    2.4669   24.5552 C   0  0  0  0  0  0  0  0  0  0  0  0
   10.8934    2.6224   23.1893 C   0  0  0  0  0  0  0  0  0  0  0  0
    9.6881    2.2083   22.6045 C   0  0  0  0  0  0  0  0  0  0  0  0
    9.5649    2.2314   21.1069 C   0  0  0  0  0  0  0  0  0  0  0  0
   10.5216    2.4948   20.6522 H   0  0  0  0  0  0  0  0  0  0  0  0
    8.8209    2.9536   20.7602 H   0  0  0  0  0  0  0  0  0  0  0  0
    9.2644    1.2564   20.7056 H   0  0  0  0  0  0  0  0  0  0  0  0
   11.6589    3.0685   22.5574 H   0  0  0  0  0  0  0  0  0  0  0  0
   12.0725    2.7539   24.9768 H   0  0  0  0  0  0  0  0  0  0  0  0
   10.3095    1.7586   26.4192 H   0  0  0  0  0  0  0  0  0  0  0  0
    8.1023    1.1999   25.4452 H   0  0  0  0  0  0  0  0  0  0  0  0
    6.5697    1.2297   23.6246 H   0  0  0  0  0  0  0  0  0  0  0  0
    6.9829    1.9370   22.0644 H   0  0  0  0  0  0  0  0  0  0  0  0
    7.9967   -1.1639   22.9093 N   0  0  0  0  0  0  0  0  0  0  0  0
    8.9494   -3.8164   21.1550 H   0  0  0  0  0  0  0  0  0  0  0  0
    9.4333   -3.5311   22.8460 H   0  0  0  0  0  0  0  0  0  0  0  0
    6.7002   -4.4686   21.8202 H   0  0  0  0  0  0  0  0  0  0  0  0
    6.5686   -6.9534   23.0188 H   0  0  0  0  0  0  0  0  0  0  0  0
    8.0468   -7.7228   22.3815 H   0  0  0  0  0  0  0  0  0  0  0  0
    6.9582   -6.8531   21.2708 H   0  0  0  0  0  0  0  0  0  0  0  0
  1  2  1  0
  2  3  1  0
  3  4  1  0
  4  5  1  0
  4  6  1  0
  4  7  1  0
  3  8  1  0
  8  9  1  0
  9 10  2  0
 10 11  1  0
 11 12  1  0
 12 13  2  0
 13 14  1  0
 14 15  2  0
 15 16  1  0
 16 17  2  0
 17 18  1  0
 15 19  1  0
 14 20  1  0
 13 21  1  0
 11 22  1  0
 22 23  1  0
 23 24  1  0
 24 25  2  0
 25 26  1  0
 26 27  2  0
 27 28  1  0
 28 29  2  0
 29 30  1  0
 30 31  1  0
 30 32  1  0
 30 33  1  0
 28 34  1  0
 27 35  1  0
 26 36  1  0
 25 37  1  0
 23 38  1  0
 23 39  1  0
 22 40  2  0
  8 41  1  0
  8 42  1  0
  3 43  1  0
  1 44  1  0
  1 45  1  0
  1 46  1  0
 40  9  1  0
 17 12  1  0
 29 24  1  0
M  END
>  <cnnaffinity>  (1) 
-5.775

>  <filename>  (1) 
COC(C)Cc1nc(Cc2ccccc2C)n(-c2cccnc2)n1

$$$$
