
     RDKit          3D

 46 49  0  0  0  0  0  0  0  0999 V2000
    6.8422   -5.2823   24.2363 C   0  0  0  0  0  0  0  0  0  0  0  0
    6.5976   -4.1801   23.3795 O   0  0  0  0  0  0  0  0  0  0  0  0
    7.3108   -3.0140   23.7465 C   0  0  0  0  0  0  0  0  0  0  0  0
    7.5986   -2.0749   22.5843 C   0  0  0  0  0  0  0  0  0  0  0  0
    6.7769   -1.6815   21.6347 N   0  0  0  0  0  0  0  0  0  0  0  0
    7.4620   -0.6658   21.0287 N   0  0  0  0  0  0  0  0  0  0  0  0
    6.8216    0.0264   19.9406 C   0  0  0  0  0  0  0  0  0  0  0  0
    5.6004    0.6724   20.1701 C   0  0  0  0  0  0  0  0  0  0  0  0
    4.9736    1.3189   19.1026 C   0  0  0  0  0  0  0  0  0  0  0  0
    5.5686    1.2814   17.8386 C   0  0  0  0  0  0  0  0  0  0  0  0
    6.7197    0.6333   17.5996 N   0  0  0  0  0  0  0  0  0  0  0  0
    7.3251    0.0223   18.6284 C   0  0  0  0  0  0  0  0  0  0  0  0
    8.2434   -0.5120   18.3879 H   0  0  0  0  0  0  0  0  0  0  0  0
    5.1054    1.7842   16.9904 H   0  0  0  0  0  0  0  0  0  0  0  0
    4.0311    1.8388   19.2354 H   0  0  0  0  0  0  0  0  0  0  0  0
    5.1637    0.6417   21.1685 H   0  0  0  0  0  0  0  0  0  0  0  0
    8.6410   -0.4669   21.7018 C   0  0  0  0  0  0  0  0  0  0  0  0
    9.5857    0.6924   21.6250 C   0  0  0  0  0  0  0  0  0  0  0  0
    8.9804    1.9463   22.2195 C   0  0  0  0  0  0  0  0  0  0  0  0
    8.2192    2.7647   21.4016 C   0  0  0  0  0  0  0  0  0  0  0  0
    7.5860    3.8848   21.9516 C   0  0  0  0  0  0  0  0  0  0  0  0
    7.5993    4.1438   23.2588 N   0  0  0  0  0  0  0  0  0  0  0  0
    8.2645    3.3105   24.0762 C   0  0  0  0  0  0  0  0  0  0  0  0
    8.1215    3.5286   25.6027 C   0  0  0  0  0  0  0  0  0  0  0  0
    7.2112    4.4486   25.9336 F   0  0  0  0  0  0  0  0  0  0  0  0
    7.7667    2.3771   26.2226 F   0  0  0  0  0  0  0  0  0  0  0  0
    9.2759    3.9119   26.1755 F   0  0  0  0  0  0  0  0  0  0  0  0
    9.0423    2.2417   23.5832 C   0  0  0  0  0  0  0  0  0  0  0  0
    9.6955    1.6760   24.2370 H   0  0  0  0  0  0  0  0  0  0  0  0
    7.0445    4.5944   21.3322 H   0  0  0  0  0  0  0  0  0  0  0  0
    8.1077    2.4725   20.3677 H   0  0  0  0  0  0  0  0  0  0  0  0
   10.4724    0.3889   22.1844 H   0  0  0  0  0  0  0  0  0  0  0  0
    9.8877    0.8533   20.5901 H   0  0  0  0  0  0  0  0  0  0  0  0
    8.7740   -1.3850   22.6324 N   0  0  0  0  0  0  0  0  0  0  0  0
    6.6065   -2.2479   24.8881 C   0  0  0  0  0  0  0  0  0  0  0  0
    7.3642   -1.1671   25.6023 C   0  0  0  0  0  0  0  0  0  0  0  0
    7.0134   -2.4330   26.3280 C   0  0  0  0  0  0  0  0  0  0  0  0
    6.2383   -2.3967   27.0897 H   0  0  0  0  0  0  0  0  0  0  0  0
    7.8176   -3.1354   26.5479 H   0  0  0  0  0  0  0  0  0  0  0  0
    8.4055   -1.0386   25.3077 H   0  0  0  0  0  0  0  0  0  0  0  0
    6.8724   -0.2295   25.8463 H   0  0  0  0  0  0  0  0  0  0  0  0
    5.5480   -2.0733   24.6939 H   0  0  0  0  0  0  0  0  0  0  0  0
    8.3269   -3.2867   24.0777 H   0  0  0  0  0  0  0  0  0  0  0  0
    7.9108   -5.5538   24.2375 H   0  0  0  0  0  0  0  0  0  0  0  0
    6.2680   -6.1233   23.8393 H   0  0  0  0  0  0  0  0  0  0  0  0
    6.5266   -5.0914   25.2736 H   0  0  0  0  0  0  0  0  0  0  0  0
  1  2  1  0
  2  3  1  0
  3  4  1  0
  4  5  2  0
  5  6  1  0
  6  7  1  0
  7  8  2  0
  8  9  1  0
  9 10  2  0
 10 11  1  0
 11 12  2  0
 12 13  1  0
 10 14  1  0
  9 15  1  0
  8 16  1  0
  6 17  1  0
 17 18  1  0
 18 19  1  0
 19 20  2  0
 20 21  1  0
 21 22  2  0
 22 23  1  0
 23 24  1  0
 24 25  1  0
 24 26  1  0
 24 27  1  0
 23 28  2  0
 28 29  1  0
 21 30  1  0
 20 31  1  0
 18 32  1  0
 18 33  1  0
 17 34  2  0
  3 35  1  0
 35 36  1  0
 36 37  1  0
 37 38  1  0
 37 39  1  0
 36 40  1  0
 36 41  1  0
 35 42  1  0
  3 43  1  0
  1 44  1  0
  1 45  1  0
  1 46  1  0
 34  4  1  0
 37 35  1  0
 12  7  1  0
 28 19  1  0
M  END
>  <cnnaffinity>  (1) 
-6.34454

>  <filename>  (1) 
COC(c1nc(Cc2ccnc(C(F)(F)F)c2)n(-c2cccnc2)n1)C1CC1

$$$$
