
     RDKit          3D

 46 48  0  0  0  0  0  0  0  0999 V2000
    7.2123   -5.0603   22.6037 C   0  0  0  0  0  0  0  0  0  0  0  0
    6.5515   -4.0488   23.3402 O   0  0  0  0  0  0  0  0  0  0  0  0
    7.3896   -2.9584   23.6814 C   0  0  0  0  0  0  0  0  0  0  0  0
    6.7707   -2.2372   24.8798 C   0  0  0  0  0  0  0  0  0  0  0  0
    5.8145   -1.7841   24.5993 H   0  0  0  0  0  0  0  0  0  0  0  0
    6.6021   -2.9500   25.6908 H   0  0  0  0  0  0  0  0  0  0  0  0
    7.4444   -1.4482   25.2341 H   0  0  0  0  0  0  0  0  0  0  0  0
    7.6240   -2.0078   22.5266 C   0  0  0  0  0  0  0  0  0  0  0  0
    6.6751   -1.5840   21.7158 N   0  0  0  0  0  0  0  0  0  0  0  0
    7.3270   -0.6837   20.9374 N   0  0  0  0  0  0  0  0  0  0  0  0
    6.6440   -0.0021   19.8914 C   0  0  0  0  0  0  0  0  0  0  0  0
    5.4320    0.6393   20.1546 C   0  0  0  0  0  0  0  0  0  0  0  0
    4.8043    1.3121   19.1028 C   0  0  0  0  0  0  0  0  0  0  0  0
    5.3957    1.2971   17.8329 C   0  0  0  0  0  0  0  0  0  0  0  0
    6.5482    0.6653   17.5679 N   0  0  0  0  0  0  0  0  0  0  0  0
    7.1569    0.0383   18.5811 C   0  0  0  0  0  0  0  0  0  0  0  0
    8.1042   -0.4464   18.3486 H   0  0  0  0  0  0  0  0  0  0  0  0
    4.9232    1.8038   16.9945 H   0  0  0  0  0  0  0  0  0  0  0  0
    3.8741    1.8459   19.2569 H   0  0  0  0  0  0  0  0  0  0  0  0
    5.0111    0.5976   21.1599 H   0  0  0  0  0  0  0  0  0  0  0  0
    8.6160   -0.5783   21.3629 C   0  0  0  0  0  0  0  0  0  0  0  0
    9.6375    0.3082   20.7347 C   0  0  0  0  0  0  0  0  0  0  0  0
   10.5113    0.9889   21.7655 C   0  0  0  0  0  0  0  0  0  0  0  0
   10.0079    2.1219   22.4448 C   0  0  0  0  0  0  0  0  0  0  0  0
    8.6522    2.7227   22.1380 C   0  0  0  0  0  0  0  0  0  0  0  0
    8.3948    3.4956   22.8662 H   0  0  0  0  0  0  0  0  0  0  0  0
    7.8562    1.9713   22.1609 H   0  0  0  0  0  0  0  0  0  0  0  0
    8.6387    3.1859   21.1473 H   0  0  0  0  0  0  0  0  0  0  0  0
   10.7828    2.6855   23.4599 C   0  0  0  0  0  0  0  0  0  0  0  0
   12.0186    2.1439   23.7982 C   0  0  0  0  0  0  0  0  0  0  0  0
   12.5020    1.0155   23.1454 C   0  0  0  0  0  0  0  0  0  0  0  0
   11.7328    0.3897   22.1625 C   0  0  0  0  0  0  0  0  0  0  0  0
   12.1884   -0.9549   21.6356 C   0  0  0  0  0  0  0  0  0  0  0  0
   12.2057   -0.9854   20.5407 H   0  0  0  0  0  0  0  0  0  0  0  0
   13.1846   -1.2264   22.0063 H   0  0  0  0  0  0  0  0  0  0  0  0
   11.4902   -1.7409   21.9491 H   0  0  0  0  0  0  0  0  0  0  0  0
   13.4613    0.5808   23.4197 H   0  0  0  0  0  0  0  0  0  0  0  0
   12.5773    2.5502   24.6138 H   0  0  0  0  0  0  0  0  0  0  0  0
   10.4015    3.5455   24.0034 H   0  0  0  0  0  0  0  0  0  0  0  0
   10.2028   -0.3618   20.0837 H   0  0  0  0  0  0  0  0  0  0  0  0
    9.1387    1.0581   20.1193 H   0  0  0  0  0  0  0  0  0  0  0  0
    8.8377   -1.4291   22.3452 N   0  0  0  0  0  0  0  0  0  0  0  0
    8.3910   -3.3208   23.9665 H   0  0  0  0  0  0  0  0  0  0  0  0
    7.7790   -4.6567   21.7499 H   0  0  0  0  0  0  0  0  0  0  0  0
    7.9051   -5.6202   23.2500 H   0  0  0  0  0  0  0  0  0  0  0  0
    6.4417   -5.7367   22.2279 H   0  0  0  0  0  0  0  0  0  0  0  0
  1  2  1  0
  2  3  1  0
  3  4  1  0
  4  5  1  0
  4  6  1  0
  4  7  1  0
  3  8  1  0
  8  9  2  0
  9 10  1  0
 10 11  1  0
 11 12  2  0
 12 13  1  0
 13 14  2  0
 14 15  1  0
 15 16  2  0
 16 17  1  0
 14 18  1  0
 13 19  1  0
 12 20  1  0
 10 21  1  0
 21 22  1  0
 22 23  1  0
 23 24  2  0
 24 25  1  0
 25 26  1  0
 25 27  1  0
 25 28  1  0
 24 29  1  0
 29 30  2  0
 30 31  1  0
 31 32  2  0
 32 33  1  0
 33 34  1  0
 33 35  1  0
 33 36  1  0
 31 37  1  0
 30 38  1  0
 29 39  1  0
 22 40  1  0
 22 41  1  0
 21 42  2  0
  3 43  1  0
  1 44  1  0
  1 45  1  0
  1 46  1  0
 42  8  1  0
 16 11  1  0
 32 23  1  0
M  END
>  <cnnaffinity>  (1) 
-6.22348

>  <filename>  (1) 
COC(C)c1nc(Cc2c(C)cccc2C)n(-c2cccnc2)n1

$$$$
