
     RDKit          3D

 43 45  0  0  0  0  0  0  0  0999 V2000
    6.6665   -1.8957   25.4670 C   0  0  0  0  0  0  0  0  0  0  0  0
    6.4244   -2.8821   24.4795 O   0  0  0  0  0  0  0  0  0  0  0  0
    7.4805   -3.1086   23.5491 C   0  0  0  0  0  0  0  0  0  0  0  0
    7.1848   -4.4764   22.9300 C   0  0  0  0  0  0  0  0  0  0  0  0
    8.0152   -4.8293   22.3098 H   0  0  0  0  0  0  0  0  0  0  0  0
    6.2791   -4.4249   22.3198 H   0  0  0  0  0  0  0  0  0  0  0  0
    7.0139   -5.1990   23.7334 H   0  0  0  0  0  0  0  0  0  0  0  0
    7.6687   -2.0010   22.5058 C   0  0  0  0  0  0  0  0  0  0  0  0
    6.7322   -1.6248   21.6538 N   0  0  0  0  0  0  0  0  0  0  0  0
    7.3569   -0.6803   20.9025 N   0  0  0  0  0  0  0  0  0  0  0  0
    6.6652   -0.0144   19.8512 C   0  0  0  0  0  0  0  0  0  0  0  0
    5.4574    0.6275   20.1342 C   0  0  0  0  0  0  0  0  0  0  0  0
    4.8217    1.3080   19.0953 C   0  0  0  0  0  0  0  0  0  0  0  0
    5.4005    1.3045   17.8209 C   0  0  0  0  0  0  0  0  0  0  0  0
    6.5404    0.6556   17.5306 N   0  0  0  0  0  0  0  0  0  0  0  0
    7.1552    0.0107   18.5298 C   0  0  0  0  0  0  0  0  0  0  0  0
    8.0797   -0.5146   18.2790 H   0  0  0  0  0  0  0  0  0  0  0  0
    4.9255    1.8388   17.0033 H   0  0  0  0  0  0  0  0  0  0  0  0
    3.8906    1.8347   19.2691 H   0  0  0  0  0  0  0  0  0  0  0  0
    5.0526    0.5773   21.1464 H   0  0  0  0  0  0  0  0  0  0  0  0
    8.6281   -0.5059   21.3690 C   0  0  0  0  0  0  0  0  0  0  0  0
    9.5263    0.5784   20.8667 C   0  0  0  0  0  0  0  0  0  0  0  0
    9.1611    1.9938   21.3847 C   0  0  0  0  0  0  0  0  0  0  0  0
    9.3275    2.0436   22.8896 C   0  0  0  0  0  0  0  0  0  0  0  0
    8.2901    1.8705   23.8261 C   0  0  0  0  0  0  0  0  0  0  0  0
    6.6358    1.7922   23.2845 Cl  0  0  0  0  0  0  0  0  0  0  0  0
    8.5339    1.6736   25.1897 C   0  0  0  0  0  0  0  0  0  0  0  0
    9.8525    1.6115   25.6343 C   0  0  0  0  0  0  0  0  0  0  0  0
   10.9201    1.8482   24.7661 C   0  0  0  0  0  0  0  0  0  0  0  0
   10.6269    2.0394   23.4262 C   0  0  0  0  0  0  0  0  0  0  0  0
   11.6669    2.1615   22.5736 F   0  0  0  0  0  0  0  0  0  0  0  0
   11.9621    1.8554   25.0748 H   0  0  0  0  0  0  0  0  0  0  0  0
   10.0538    1.2890   26.6393 H   0  0  0  0  0  0  0  0  0  0  0  0
    7.6918    1.5410   25.8677 H   0  0  0  0  0  0  0  0  0  0  0  0
    8.1512    2.2862   21.0746 H   0  0  0  0  0  0  0  0  0  0  0  0
    9.8517    2.7143   20.9411 H   0  0  0  0  0  0  0  0  0  0  0  0
   10.5456    0.3474   21.1796 H   0  0  0  0  0  0  0  0  0  0  0  0
    9.5307    0.5733   19.7763 H   0  0  0  0  0  0  0  0  0  0  0  0
    8.8654   -1.3609   22.3493 N   0  0  0  0  0  0  0  0  0  0  0  0
    8.4485   -3.1522   24.0722 H   0  0  0  0  0  0  0  0  0  0  0  0
    5.6954   -1.6388   25.8952 H   0  0  0  0  0  0  0  0  0  0  0  0
    7.2933   -2.2821   26.2842 H   0  0  0  0  0  0  0  0  0  0  0  0
    7.1284   -0.9810   25.0621 H   0  0  0  0  0  0  0  0  0  0  0  0
  1  2  1  0
  2  3  1  0
  3  4  1  0
  4  5  1  0
  4  6  1  0
  4  7  1  0
  3  8  1  0
  8  9  2  0
  9 10  1  0
 10 11  1  0
 11 12  2  0
 12 13  1  0
 13 14  2  0
 14 15  1  0
 15 16  2  0
 16 17  1  0
 14 18  1  0
 13 19  1  0
 12 20  1  0
 10 21  1  0
 21 22  1  0
 22 23  1  0
 23 24  1  0
 24 25  2  0
 25 26  1  0
 25 27  1  0
 27 28  2  0
 28 29  1  0
 29 30  2  0
 30 31  1  0
 29 32  1  0
 28 33  1  0
 27 34  1  0
 23 35  1  0
 23 36  1  0
 22 37  1  0
 22 38  1  0
 21 39  2  0
  3 40  1  0
  1 41  1  0
  1 42  1  0
  1 43  1  0
 39  8  1  0
 16 11  1  0
 30 24  1  0
M  END
>  <cnnaffinity>  (1) 
-5.9669

>  <filename>  (1) 
COC(C)c1nc(CCc2c(F)cccc2Cl)n(-c2cccnc2)n1

$$$$
