
     RDKit          3D

 43 45  0  0  0  0  0  0  0  0999 V2000
    8.5097   -5.7804   24.9248 C   0  0  0  0  0  0  0  0  0  0  0  0
    8.5926   -5.4126   23.5669 O   0  0  0  0  0  0  0  0  0  0  0  0
    7.8060   -4.3105   23.1470 C   0  0  0  0  0  0  0  0  0  0  0  0
    6.5392   -4.7901   22.4463 C   0  0  0  0  0  0  0  0  0  0  0  0
    6.8073   -5.4230   21.5920 H   0  0  0  0  0  0  0  0  0  0  0  0
    5.9547   -3.9441   22.0671 H   0  0  0  0  0  0  0  0  0  0  0  0
    5.9119   -5.3774   23.1254 H   0  0  0  0  0  0  0  0  0  0  0  0
    8.6905   -3.5132   22.1911 C   0  0  0  0  0  0  0  0  0  0  0  0
    8.1053   -2.1817   21.9052 C   0  0  0  0  0  0  0  0  0  0  0  0
    7.7331   -1.8131   20.7009 N   0  0  0  0  0  0  0  0  0  0  0  0
    7.1354   -0.6145   20.9171 N   0  0  0  0  0  0  0  0  0  0  0  0
    6.4978    0.0468   19.8426 C   0  0  0  0  0  0  0  0  0  0  0  0
    5.2875    0.7264   20.0148 C   0  0  0  0  0  0  0  0  0  0  0  0
    4.7502    1.3944   18.9122 C   0  0  0  0  0  0  0  0  0  0  0  0
    5.4320    1.3470   17.6934 C   0  0  0  0  0  0  0  0  0  0  0  0
    6.5691    0.6480   17.5118 N   0  0  0  0  0  0  0  0  0  0  0  0
    7.0733   -0.0066   18.5603 C   0  0  0  0  0  0  0  0  0  0  0  0
    7.9689   -0.6070   18.3899 H   0  0  0  0  0  0  0  0  0  0  0  0
    5.0285    1.8492   16.8185 H   0  0  0  0  0  0  0  0  0  0  0  0
    3.8230    1.9504   19.0012 H   0  0  0  0  0  0  0  0  0  0  0  0
    4.7871    0.7202   20.9837 H   0  0  0  0  0  0  0  0  0  0  0  0
    7.2537   -0.2871   22.2412 C   0  0  0  0  0  0  0  0  0  0  0  0
    6.9311    1.0380   22.8873 C   0  0  0  0  0  0  0  0  0  0  0  0
    8.2053    1.6465   23.4690 C   0  0  0  0  0  0  0  0  0  0  0  0
    8.5198    1.5474   24.8330 C   0  0  0  0  0  0  0  0  0  0  0  0
    9.8188    1.7408   25.3173 C   0  0  0  0  0  0  0  0  0  0  0  0
   10.7954    2.1196   24.4047 C   0  0  0  0  0  0  0  0  0  0  0  0
   12.0654    2.2333   24.8054 F   0  0  0  0  0  0  0  0  0  0  0  0
   10.5112    2.3657   23.0670 C   0  0  0  0  0  0  0  0  0  0  0  0
    9.2135    2.1322   22.6179 C   0  0  0  0  0  0  0  0  0  0  0  0
    8.8769    2.4134   20.9457 Cl  0  0  0  0  0  0  0  0  0  0  0  0
   11.2886    2.7276   22.4094 H   0  0  0  0  0  0  0  0  0  0  0  0
   10.0709    1.5882   26.3618 H   0  0  0  0  0  0  0  0  0  0  0  0
    7.7313    1.3045   25.5385 H   0  0  0  0  0  0  0  0  0  0  0  0
    6.4968    1.7264   22.1573 H   0  0  0  0  0  0  0  0  0  0  0  0
    6.1929    0.8686   23.6791 H   0  0  0  0  0  0  0  0  0  0  0  0
    7.8383   -1.2809   22.8860 N   0  0  0  0  0  0  0  0  0  0  0  0
    9.6875   -3.4163   22.6279 H   0  0  0  0  0  0  0  0  0  0  0  0
    8.7751   -4.0527   21.2495 H   0  0  0  0  0  0  0  0  0  0  0  0
    7.5420   -3.6669   24.0030 H   0  0  0  0  0  0  0  0  0  0  0  0
    9.2894   -6.5247   25.0937 H   0  0  0  0  0  0  0  0  0  0  0  0
    8.6881   -4.9351   25.6090 H   0  0  0  0  0  0  0  0  0  0  0  0
    7.5434   -6.2321   25.1901 H   0  0  0  0  0  0  0  0  0  0  0  0
  1  2  1  0
  2  3  1  0
  3  4  1  0
  4  5  1  0
  4  6  1  0
  4  7  1  0
  3  8  1  0
  8  9  1  0
  9 10  2  0
 10 11  1  0
 11 12  1  0
 12 13  2  0
 13 14  1  0
 14 15  2  0
 15 16  1  0
 16 17  2  0
 17 18  1  0
 15 19  1  0
 14 20  1  0
 13 21  1  0
 11 22  1  0
 22 23  1  0
 23 24  1  0
 24 25  2  0
 25 26  1  0
 26 27  2  0
 27 28  1  0
 27 29  1  0
 29 30  2  0
 30 31  1  0
 29 32  1  0
 26 33  1  0
 25 34  1  0
 23 35  1  0
 23 36  1  0
 22 37  2  0
  8 38  1  0
  8 39  1  0
  3 40  1  0
  1 41  1  0
  1 42  1  0
  1 43  1  0
 37  9  1  0
 17 12  1  0
 30 24  1  0
M  END
>  <cnnaffinity>  (1) 
-6.12132

>  <filename>  (1) 
COC(C)Cc1nc(Cc2ccc(F)cc2Cl)n(-c2cccnc2)n1

$$$$
