
     RDKit          3D

 42 44  0  0  0  0  0  0  0  0999 V2000
    7.1023   -4.9547   22.7586 C   0  0  0  0  0  0  0  0  0  0  0  0
    6.4871   -3.8807   23.4444 O   0  0  0  0  0  0  0  0  0  0  0  0
    7.3947   -2.8396   23.7552 C   0  0  0  0  0  0  0  0  0  0  0  0
    6.8417   -2.0573   24.9459 C   0  0  0  0  0  0  0  0  0  0  0  0
    5.9103   -1.5548   24.6649 H   0  0  0  0  0  0  0  0  0  0  0  0
    6.6535   -2.7332   25.7841 H   0  0  0  0  0  0  0  0  0  0  0  0
    7.5697   -1.2999   25.2610 H   0  0  0  0  0  0  0  0  0  0  0  0
    7.6699   -1.9254   22.5749 C   0  0  0  0  0  0  0  0  0  0  0  0
    6.7363   -1.5692   21.7163 N   0  0  0  0  0  0  0  0  0  0  0  0
    7.3716   -0.6602   20.9340 N   0  0  0  0  0  0  0  0  0  0  0  0
    6.6632    0.0105   19.8989 C   0  0  0  0  0  0  0  0  0  0  0  0
    5.4442    0.6444   20.1645 C   0  0  0  0  0  0  0  0  0  0  0  0
    4.8126    1.3107   19.1105 C   0  0  0  0  0  0  0  0  0  0  0  0
    5.3997    1.2962   17.8386 C   0  0  0  0  0  0  0  0  0  0  0  0
    6.5595    0.6749   17.5762 N   0  0  0  0  0  0  0  0  0  0  0  0
    7.1712    0.0550   18.5906 C   0  0  0  0  0  0  0  0  0  0  0  0
    8.1158   -0.4345   18.3678 H   0  0  0  0  0  0  0  0  0  0  0  0
    4.9173    1.7845   16.9950 H   0  0  0  0  0  0  0  0  0  0  0  0
    3.8798    1.8392   19.2630 H   0  0  0  0  0  0  0  0  0  0  0  0
    5.0163    0.6063   21.1703 H   0  0  0  0  0  0  0  0  0  0  0  0
    8.6454   -0.4892   21.3992 C   0  0  0  0  0  0  0  0  0  0  0  0
    9.5331    0.6186   20.9417 C   0  0  0  0  0  0  0  0  0  0  0  0
    9.0560    2.0128   21.4326 C   0  0  0  0  0  0  0  0  0  0  0  0
    8.9106    2.0680   22.9367 C   0  0  0  0  0  0  0  0  0  0  0  0
    7.6667    1.8242   23.5352 C   0  0  0  0  0  0  0  0  0  0  0  0
    7.5572    1.7952   24.9258 C   0  0  0  0  0  0  0  0  0  0  0  0
    8.7094    1.9960   25.6843 C   0  0  0  0  0  0  0  0  0  0  0  0
    9.9155    2.2095   25.1511 N   0  0  0  0  0  0  0  0  0  0  0  0
    9.9909    2.2293   23.8299 C   0  0  0  0  0  0  0  0  0  0  0  0
   11.5885    2.4993   23.2016 Cl  0  0  0  0  0  0  0  0  0  0  0  0
    8.6692    1.9906   26.7701 H   0  0  0  0  0  0  0  0  0  0  0  0
    6.6088    1.6018   25.4096 H   0  0  0  0  0  0  0  0  0  0  0  0
    6.7987    1.6331   22.9029 H   0  0  0  0  0  0  0  0  0  0  0  0
    8.0885    2.2435   20.9674 H   0  0  0  0  0  0  0  0  0  0  0  0
    9.7646    2.7702   21.0843 H   0  0  0  0  0  0  0  0  0  0  0  0
   10.5327    0.4036   21.3232 H   0  0  0  0  0  0  0  0  0  0  0  0
    9.5882    0.6153   19.8506 H   0  0  0  0  0  0  0  0  0  0  0  0
    8.8679   -1.2992   22.4193 N   0  0  0  0  0  0  0  0  0  0  0  0
    8.3699   -3.2611   24.0440 H   0  0  0  0  0  0  0  0  0  0  0  0
    7.6927   -4.6223   21.8882 H   0  0  0  0  0  0  0  0  0  0  0  0
    7.7698   -5.5011   23.4422 H   0  0  0  0  0  0  0  0  0  0  0  0
    6.3092   -5.6210   22.4136 H   0  0  0  0  0  0  0  0  0  0  0  0
  1  2  1  0
  2  3  1  0
  3  4  1  0
  4  5  1  0
  4  6  1  0
  4  7  1  0
  3  8  1  0
  8  9  2  0
  9 10  1  0
 10 11  1  0
 11 12  2  0
 12 13  1  0
 13 14  2  0
 14 15  1  0
 15 16  2  0
 16 17  1  0
 14 18  1  0
 13 19  1  0
 12 20  1  0
 10 21  1  0
 21 22  1  0
 22 23  1  0
 23 24  1  0
 24 25  2  0
 25 26  1  0
 26 27  2  0
 27 28  1  0
 28 29  2  0
 29 30  1  0
 27 31  1  0
 26 32  1  0
 25 33  1  0
 23 34  1  0
 23 35  1  0
 22 36  1  0
 22 37  1  0
 21 38  2  0
  3 39  1  0
  1 40  1  0
  1 41  1  0
  1 42  1  0
 38  8  1  0
 16 11  1  0
 29 24  1  0
M  END
>  <cnnaffinity>  (1) 
-5.81401

>  <filename>  (1) 
COC(C)c1nc(CCc2cccnc2Cl)n(-c2cccnc2)n1

$$$$
