
     RDKit          3D

 41 43  0  0  0  0  0  0  0  0999 V2000
    6.7307   -1.6275   25.5103 C   0  0  0  0  0  0  0  0  0  0  0  0
    7.7516   -2.4551   24.9859 O   0  0  0  0  0  0  0  0  0  0  0  0
    7.4490   -2.9464   23.6840 C   0  0  0  0  0  0  0  0  0  0  0  0
    8.2920   -4.1981   23.4557 C   0  0  0  0  0  0  0  0  0  0  0  0
    8.0368   -4.6527   22.4924 H   0  0  0  0  0  0  0  0  0  0  0  0
    9.3581   -3.9450   23.4576 H   0  0  0  0  0  0  0  0  0  0  0  0
    8.0923   -4.9200   24.2512 H   0  0  0  0  0  0  0  0  0  0  0  0
    7.6697   -1.9183   22.5832 C   0  0  0  0  0  0  0  0  0  0  0  0
    6.7268   -1.5765   21.7238 N   0  0  0  0  0  0  0  0  0  0  0  0
    7.3569   -0.6646   20.9281 N   0  0  0  0  0  0  0  0  0  0  0  0
    6.6545    0.0095   19.8939 C   0  0  0  0  0  0  0  0  0  0  0  0
    5.4378    0.6460   20.1600 C   0  0  0  0  0  0  0  0  0  0  0  0
    4.8100    1.3131   19.1040 C   0  0  0  0  0  0  0  0  0  0  0  0
    5.3964    1.2989   17.8343 C   0  0  0  0  0  0  0  0  0  0  0  0
    6.5547    0.6737   17.5704 N   0  0  0  0  0  0  0  0  0  0  0  0
    7.1649    0.0530   18.5868 C   0  0  0  0  0  0  0  0  0  0  0  0
    8.1111   -0.4371   18.3591 H   0  0  0  0  0  0  0  0  0  0  0  0
    4.9247    1.7936   16.9888 H   0  0  0  0  0  0  0  0  0  0  0  0
    3.8794    1.8395   19.2568 H   0  0  0  0  0  0  0  0  0  0  0  0
    5.0181    0.6044   21.1682 H   0  0  0  0  0  0  0  0  0  0  0  0
    8.6310   -0.4940   21.3858 C   0  0  0  0  0  0  0  0  0  0  0  0
    9.5230    0.6179   20.9494 C   0  0  0  0  0  0  0  0  0  0  0  0
    9.0428    2.0018   21.4554 C   0  0  0  0  0  0  0  0  0  0  0  0
    8.8864    2.0724   22.9045 N   0  0  0  0  0  0  0  0  0  0  0  0
    7.7149    1.8738   23.5955 C   0  0  0  0  0  0  0  0  0  0  0  0
    7.9913    1.8487   24.9386 C   0  0  0  0  0  0  0  0  0  0  0  0
    9.4019    2.0170   25.0798 C   0  0  0  0  0  0  0  0  0  0  0  0
    9.9186    2.1397   23.8117 C   0  0  0  0  0  0  0  0  0  0  0  0
   10.9351    2.2478   23.4584 H   0  0  0  0  0  0  0  0  0  0  0  0
    9.9689    2.0431   26.0023 H   0  0  0  0  0  0  0  0  0  0  0  0
    7.2679    1.7046   25.7339 H   0  0  0  0  0  0  0  0  0  0  0  0
    6.7993    1.7136   23.0405 H   0  0  0  0  0  0  0  0  0  0  0  0
    8.0836    2.2593   20.9924 H   0  0  0  0  0  0  0  0  0  0  0  0
    9.7602    2.7732   21.1583 H   0  0  0  0  0  0  0  0  0  0  0  0
   10.5238    0.4071   21.3326 H   0  0  0  0  0  0  0  0  0  0  0  0
    9.5778    0.6285   19.8599 H   0  0  0  0  0  0  0  0  0  0  0  0
    8.8681   -1.3128   22.3857 N   0  0  0  0  0  0  0  0  0  0  0  0
    6.3794   -3.2051   23.6285 H   0  0  0  0  0  0  0  0  0  0  0  0
    7.1361   -1.1426   26.4007 H   0  0  0  0  0  0  0  0  0  0  0  0
    5.8491   -2.2248   25.7879 H   0  0  0  0  0  0  0  0  0  0  0  0
    6.3863   -0.8638   24.7933 H   0  0  0  0  0  0  0  0  0  0  0  0
  1  2  1  0
  2  3  1  0
  3  4  1  0
  4  5  1  0
  4  6  1  0
  4  7  1  0
  3  8  1  0
  8  9  2  0
  9 10  1  0
 10 11  1  0
 11 12  2  0
 12 13  1  0
 13 14  2  0
 14 15  1  0
 15 16  2  0
 16 17  1  0
 14 18  1  0
 13 19  1  0
 12 20  1  0
 10 21  1  0
 21 22  1  0
 22 23  1  0
 23 24  1  0
 24 25  1  0
 25 26  2  0
 26 27  1  0
 27 28  2  0
 28 29  1  0
 27 30  1  0
 26 31  1  0
 25 32  1  0
 23 33  1  0
 23 34  1  0
 22 35  1  0
 22 36  1  0
 21 37  2  0
  3 38  1  0
  1 39  1  0
  1 40  1  0
  1 41  1  0
 37  8  1  0
 16 11  1  0
 28 24  1  0
M  END
>  <cnnaffinity>  (1) 
-5.5363

>  <filename>  (1) 
COC(C)c1nc(CCn2cccc2)n(-c2cccnc2)n1

$$$$
