
     RDKit          3D

 43 45  0  0  0  0  0  0  0  0999 V2000
    7.0982   -4.9744   22.7513 C   0  0  0  0  0  0  0  0  0  0  0  0
    6.5018   -3.9103   23.4674 O   0  0  0  0  0  0  0  0  0  0  0  0
    7.3973   -2.8510   23.7531 C   0  0  0  0  0  0  0  0  0  0  0  0
    6.8378   -2.0672   24.9485 C   0  0  0  0  0  0  0  0  0  0  0  0
    5.8999   -1.5632   24.6860 H   0  0  0  0  0  0  0  0  0  0  0  0
    7.5648   -1.3116   25.2701 H   0  0  0  0  0  0  0  0  0  0  0  0
    6.6514   -2.7521   25.7813 H   0  0  0  0  0  0  0  0  0  0  0  0
    7.6584   -1.9448   22.5600 C   0  0  0  0  0  0  0  0  0  0  0  0
    6.7224   -1.5614   21.7142 N   0  0  0  0  0  0  0  0  0  0  0  0
    7.3646   -0.6443   20.9483 N   0  0  0  0  0  0  0  0  0  0  0  0
    6.6688    0.0189   19.9002 C   0  0  0  0  0  0  0  0  0  0  0  0
    5.4455    0.6450   20.1592 C   0  0  0  0  0  0  0  0  0  0  0  0
    4.8128    1.3116   19.1066 C   0  0  0  0  0  0  0  0  0  0  0  0
    5.3988    1.2972   17.8369 C   0  0  0  0  0  0  0  0  0  0  0  0
    6.5537    0.6670   17.5746 N   0  0  0  0  0  0  0  0  0  0  0  0
    7.1700    0.0496   18.5884 C   0  0  0  0  0  0  0  0  0  0  0  0
    8.1105   -0.4469   18.3514 H   0  0  0  0  0  0  0  0  0  0  0  0
    4.9289    1.8008   16.9950 H   0  0  0  0  0  0  0  0  0  0  0  0
    3.8787    1.8386   19.2582 H   0  0  0  0  0  0  0  0  0  0  0  0
    5.0105    0.5857   21.1565 H   0  0  0  0  0  0  0  0  0  0  0  0
    8.6449   -0.4981   21.3995 C   0  0  0  0  0  0  0  0  0  0  0  0
    9.5325    0.6119   20.9383 C   0  0  0  0  0  0  0  0  0  0  0  0
    9.0393    2.0164   21.4032 C   0  0  0  0  0  0  0  0  0  0  0  0
    8.9409    2.1094   22.8956 C   0  0  0  0  0  0  0  0  0  0  0  0
   10.0340    2.2555   23.7100 C   0  0  0  0  0  0  0  0  0  0  0  0
    9.8956    2.1386   25.1197 C   0  0  0  0  0  0  0  0  0  0  0  0
    8.6602    1.9729   25.6940 C   0  0  0  0  0  0  0  0  0  0  0  0
    7.4891    1.7810   24.8523 C   0  0  0  0  0  0  0  0  0  0  0  0
    6.3546    1.5163   25.2181 O   0  0  0  0  0  0  0  0  0  0  0  0
    7.7178    1.8824   23.4865 N   0  0  0  0  0  0  0  0  0  0  0  0
    6.8793    1.6076   22.9941 H   0  0  0  0  0  0  0  0  0  0  0  0
    8.4844    1.9330   26.7613 H   0  0  0  0  0  0  0  0  0  0  0  0
   10.7999    2.1305   25.7256 H   0  0  0  0  0  0  0  0  0  0  0  0
   11.0079    2.4162   23.2566 H   0  0  0  0  0  0  0  0  0  0  0  0
    8.0779    2.2556   20.9324 H   0  0  0  0  0  0  0  0  0  0  0  0
    9.7589    2.7647   21.0606 H   0  0  0  0  0  0  0  0  0  0  0  0
    9.5785    0.5848   19.8500 H   0  0  0  0  0  0  0  0  0  0  0  0
   10.5385    0.4046   21.3169 H   0  0  0  0  0  0  0  0  0  0  0  0
    8.8667   -1.3348   22.3962 N   0  0  0  0  0  0  0  0  0  0  0  0
    8.3926   -3.2462   24.0226 H   0  0  0  0  0  0  0  0  0  0  0  0
    7.7852   -5.5486   23.3927 H   0  0  0  0  0  0  0  0  0  0  0  0
    6.2850   -5.6203   22.4135 H   0  0  0  0  0  0  0  0  0  0  0  0
    7.6583   -4.6175   21.8742 H   0  0  0  0  0  0  0  0  0  0  0  0
  1  2  1  0
  2  3  1  0
  3  4  1  0
  4  5  1  0
  4  6  1  0
  4  7  1  0
  3  8  1  0
  8  9  2  0
  9 10  1  0
 10 11  1  0
 11 12  2  0
 12 13  1  0
 13 14  2  0
 14 15  1  0
 15 16  2  0
 16 17  1  0
 14 18  1  0
 13 19  1  0
 12 20  1  0
 10 21  1  0
 21 22  1  0
 22 23  1  0
 23 24  1  0
 24 25  2  0
 25 26  1  0
 26 27  2  0
 27 28  1  0
 28 29  2  0
 28 30  1  0
 30 31  1  0
 27 32  1  0
 26 33  1  0
 25 34  1  0
 23 35  1  0
 23 36  1  0
 22 37  1  0
 22 38  1  0
 21 39  2  0
  3 40  1  0
  1 41  1  0
  1 42  1  0
  1 43  1  0
 39  8  1  0
 16 11  1  0
 30 24  1  0
M  END
>  <cnnaffinity>  (1) 
-5.65158

>  <filename>  (1) 
COC(C)c1nc(CCc2cccc(=O)[nH]2)n(-c2cccnc2)n1

$$$$
