
     RDKit          3D

 40 42  0  0  0  0  0  0  0  0999 V2000
    7.2246   -5.1118   22.5278 C   0  0  0  0  0  0  0  0  0  0  0  0
    6.5728   -4.1262   23.3065 O   0  0  0  0  0  0  0  0  0  0  0  0
    7.3807   -3.0132   23.6394 C   0  0  0  0  0  0  0  0  0  0  0  0
    6.7524   -2.3177   24.8516 C   0  0  0  0  0  0  0  0  0  0  0  0
    6.5870   -3.0502   25.6453 H   0  0  0  0  0  0  0  0  0  0  0  0
    7.4207   -1.5325   25.2251 H   0  0  0  0  0  0  0  0  0  0  0  0
    5.7907   -1.8628   24.5893 H   0  0  0  0  0  0  0  0  0  0  0  0
    7.5806   -2.0456   22.4955 C   0  0  0  0  0  0  0  0  0  0  0  0
    6.6431   -1.6199   21.6732 N   0  0  0  0  0  0  0  0  0  0  0  0
    7.3001   -0.6946   20.9263 N   0  0  0  0  0  0  0  0  0  0  0  0
    6.6370   -0.0102   19.8767 C   0  0  0  0  0  0  0  0  0  0  0  0
    5.4245    0.6339   20.1394 C   0  0  0  0  0  0  0  0  0  0  0  0
    4.7944    1.3168   19.0959 C   0  0  0  0  0  0  0  0  0  0  0  0
    5.3877    1.3010   17.8267 C   0  0  0  0  0  0  0  0  0  0  0  0
    6.5348    0.6584   17.5598 N   0  0  0  0  0  0  0  0  0  0  0  0
    7.1460    0.0288   18.5656 C   0  0  0  0  0  0  0  0  0  0  0  0
    8.0929   -0.4568   18.3265 H   0  0  0  0  0  0  0  0  0  0  0  0
    4.9294    1.8244   16.9906 H   0  0  0  0  0  0  0  0  0  0  0  0
    3.8652    1.8590   19.2494 H   0  0  0  0  0  0  0  0  0  0  0  0
    5.0121    0.5789   21.1464 H   0  0  0  0  0  0  0  0  0  0  0  0
    8.5842   -0.5885   21.3724 C   0  0  0  0  0  0  0  0  0  0  0  0
    9.6450    0.2997   20.8145 C   0  0  0  0  0  0  0  0  0  0  0  0
   10.3332    1.1368   21.8741 C   0  0  0  0  0  0  0  0  0  0  0  0
    9.7134    2.2448   22.4771 C   0  0  0  0  0  0  0  0  0  0  0  0
    8.1328    2.7510   21.9306 Cl  0  0  0  0  0  0  0  0  0  0  0  0
   10.2965    2.9374   23.5457 C   0  0  0  0  0  0  0  0  0  0  0  0
   11.5370    2.5195   24.0398 C   0  0  0  0  0  0  0  0  0  0  0  0
   12.1903    1.4260   23.4599 C   0  0  0  0  0  0  0  0  0  0  0  0
   11.5804    0.7677   22.3966 C   0  0  0  0  0  0  0  0  0  0  0  0
   12.2205   -0.2907   21.8608 F   0  0  0  0  0  0  0  0  0  0  0  0
   13.1434    1.0419   23.8069 H   0  0  0  0  0  0  0  0  0  0  0  0
   11.9841    3.0484   24.8771 H   0  0  0  0  0  0  0  0  0  0  0  0
    9.7585    3.7694   23.9908 H   0  0  0  0  0  0  0  0  0  0  0  0
    9.2096    0.9438   20.0514 H   0  0  0  0  0  0  0  0  0  0  0  0
   10.3651   -0.3696   20.3402 H   0  0  0  0  0  0  0  0  0  0  0  0
    8.7883   -1.4435   22.3530 N   0  0  0  0  0  0  0  0  0  0  0  0
    8.4043   -3.3356   23.8982 H   0  0  0  0  0  0  0  0  0  0  0  0
    7.7655   -4.6711   21.6776 H   0  0  0  0  0  0  0  0  0  0  0  0
    6.4405   -5.7697   22.1458 H   0  0  0  0  0  0  0  0  0  0  0  0
    7.9342   -5.7004   23.1309 H   0  0  0  0  0  0  0  0  0  0  0  0
  1  2  1  0
  2  3  1  0
  3  4  1  0
  4  5  1  0
  4  6  1  0
  4  7  1  0
  3  8  1  0
  8  9  2  0
  9 10  1  0
 10 11  1  0
 11 12  2  0
 12 13  1  0
 13 14  2  0
 14 15  1  0
 15 16  2  0
 16 17  1  0
 14 18  1  0
 13 19  1  0
 12 20  1  0
 10 21  1  0
 21 22  1  0
 22 23  1  0
 23 24  2  0
 24 25  1  0
 24 26  1  0
 26 27  2  0
 27 28  1  0
 28 29  2  0
 29 30  1  0
 28 31  1  0
 27 32  1  0
 26 33  1  0
 22 34  1  0
 22 35  1  0
 21 36  2  0
  3 37  1  0
  1 38  1  0
  1 39  1  0
  1 40  1  0
 36  8  1  0
 16 11  1  0
 29 23  1  0
M  END
>  <cnnaffinity>  (1) 
-6.18576

>  <filename>  (1) 
COC(C)c1nc(Cc2c(F)cccc2Cl)n(-c2cccnc2)n1

$$$$
