
     RDKit          3D

 42 44  0  0  0  0  0  0  0  0999 V2000
    7.1069   -5.0834   22.6241 C   0  0  0  0  0  0  0  0  0  0  0  0
    6.5139   -4.0768   23.4248 O   0  0  0  0  0  0  0  0  0  0  0  0
    7.3508   -2.9686   23.7050 C   0  0  0  0  0  0  0  0  0  0  0  0
    6.7637   -2.2343   24.9127 C   0  0  0  0  0  0  0  0  0  0  0  0
    6.5951   -2.9448   25.7260 H   0  0  0  0  0  0  0  0  0  0  0  0
    7.4574   -1.4569   25.2546 H   0  0  0  0  0  0  0  0  0  0  0  0
    5.8105   -1.7649   24.6486 H   0  0  0  0  0  0  0  0  0  0  0  0
    7.5607   -2.0236   22.5346 C   0  0  0  0  0  0  0  0  0  0  0  0
    6.6214   -1.5951   21.7117 N   0  0  0  0  0  0  0  0  0  0  0  0
    7.2926   -0.7239   20.9142 N   0  0  0  0  0  0  0  0  0  0  0  0
    6.6248   -0.0278   19.8704 C   0  0  0  0  0  0  0  0  0  0  0  0
    5.4177    0.6292   20.1340 C   0  0  0  0  0  0  0  0  0  0  0  0
    4.7995    1.3170   19.0875 C   0  0  0  0  0  0  0  0  0  0  0  0
    5.3956    1.3077   17.8205 C   0  0  0  0  0  0  0  0  0  0  0  0
    6.5421    0.6631   17.5550 N   0  0  0  0  0  0  0  0  0  0  0  0
    7.1400    0.0185   18.5622 C   0  0  0  0  0  0  0  0  0  0  0  0
    8.0810   -0.4790   18.3262 H   0  0  0  0  0  0  0  0  0  0  0  0
    4.9343    1.8332   16.9873 H   0  0  0  0  0  0  0  0  0  0  0  0
    3.8721    1.8575   19.2433 H   0  0  0  0  0  0  0  0  0  0  0  0
    4.9969    0.5904   21.1382 H   0  0  0  0  0  0  0  0  0  0  0  0
    8.5894   -0.6371   21.3405 C   0  0  0  0  0  0  0  0  0  0  0  0
    9.6473    0.1764   20.6799 C   0  0  0  0  0  0  0  0  0  0  0  0
   10.6571    0.7301   21.6520 C   0  0  0  0  0  0  0  0  0  0  0  0
   11.8782    0.1047   21.9028 C   0  0  0  0  0  0  0  0  0  0  0  0
   12.7151    0.6193   22.9042 C   0  0  0  0  0  0  0  0  0  0  0  0
   12.4278    1.7261   23.5997 N   0  0  0  0  0  0  0  0  0  0  0  0
   11.2700    2.3570   23.3206 C   0  0  0  0  0  0  0  0  0  0  0  0
   10.8519    3.6389   24.0672 C   0  0  0  0  0  0  0  0  0  0  0  0
    9.9407    3.3552   25.0243 F   0  0  0  0  0  0  0  0  0  0  0  0
   11.8730    4.2877   24.6258 F   0  0  0  0  0  0  0  0  0  0  0  0
   10.2405    4.5126   23.2345 F   0  0  0  0  0  0  0  0  0  0  0  0
   10.3436    1.8624   22.3933 C   0  0  0  0  0  0  0  0  0  0  0  0
    9.3968    2.3688   22.2567 H   0  0  0  0  0  0  0  0  0  0  0  0
   13.6458    0.1055   23.1486 H   0  0  0  0  0  0  0  0  0  0  0  0
   12.1717   -0.7760   21.3452 H   0  0  0  0  0  0  0  0  0  0  0  0
   10.1257   -0.4913   19.9577 H   0  0  0  0  0  0  0  0  0  0  0  0
    9.1735    0.9922   20.1262 H   0  0  0  0  0  0  0  0  0  0  0  0
    8.7831   -1.4604   22.3516 N   0  0  0  0  0  0  0  0  0  0  0  0
    8.3685   -3.3073   23.9616 H   0  0  0  0  0  0  0  0  0  0  0  0
    7.6165   -4.6676   21.7419 H   0  0  0  0  0  0  0  0  0  0  0  0
    6.2967   -5.7341   22.2873 H   0  0  0  0  0  0  0  0  0  0  0  0
    7.8262   -5.6876   23.1985 H   0  0  0  0  0  0  0  0  0  0  0  0
  1  2  1  0
  2  3  1  0
  3  4  1  0
  4  5  1  0
  4  6  1  0
  4  7  1  0
  3  8  1  0
  8  9  2  0
  9 10  1  0
 10 11  1  0
 11 12  2  0
 12 13  1  0
 13 14  2  0
 14 15  1  0
 15 16  2  0
 16 17  1  0
 14 18  1  0
 13 19  1  0
 12 20  1  0
 10 21  1  0
 21 22  1  0
 22 23  1  0
 23 24  2  0
 24 25  1  0
 25 26  2  0
 26 27  1  0
 27 28  1  0
 28 29  1  0
 28 30  1  0
 28 31  1  0
 27 32  2  0
 32 33  1  0
 25 34  1  0
 24 35  1  0
 22 36  1  0
 22 37  1  0
 21 38  2  0
  3 39  1  0
  1 40  1  0
  1 41  1  0
  1 42  1  0
 38  8  1  0
 16 11  1  0
 32 23  1  0
M  END
>  <cnnaffinity>  (1) 
-6.23443

>  <filename>  (1) 
COC(C)c1nc(Cc2ccnc(C(F)(F)F)c2)n(-c2cccnc2)n1

$$$$
