
     RDKit          3D

 45 47  0  0  0  0  0  0  0  0999 V2000
    7.9252   -5.1213   24.4228 C   0  0  0  0  0  0  0  0  0  0  0  0
    8.2481   -3.8288   23.9664 O   0  0  0  0  0  0  0  0  0  0  0  0
    7.2028   -2.8684   23.8461 C   0  0  0  0  0  0  0  0  0  0  0  0
    7.1284   -2.0291   25.1364 C   0  0  0  0  0  0  0  0  0  0  0  0
    6.3249   -1.2866   25.0734 H   0  0  0  0  0  0  0  0  0  0  0  0
    8.0822   -1.5089   25.2861 H   0  0  0  0  0  0  0  0  0  0  0  0
    6.9447   -2.6666   26.0078 H   0  0  0  0  0  0  0  0  0  0  0  0
    7.4823   -1.9762   22.6459 C   0  0  0  0  0  0  0  0  0  0  0  0
    6.5677   -1.6389   21.7551 N   0  0  0  0  0  0  0  0  0  0  0  0
    7.2453   -0.8116   20.9074 N   0  0  0  0  0  0  0  0  0  0  0  0
    6.5737   -0.1224   19.8564 C   0  0  0  0  0  0  0  0  0  0  0  0
    5.3858    0.5747   20.1156 C   0  0  0  0  0  0  0  0  0  0  0  0
    4.8056    1.3071   19.0775 C   0  0  0  0  0  0  0  0  0  0  0  0
    5.4162    1.3028   17.8175 C   0  0  0  0  0  0  0  0  0  0  0  0
    6.5381    0.6142   17.5505 N   0  0  0  0  0  0  0  0  0  0  0  0
    7.0956   -0.0797   18.5496 C   0  0  0  0  0  0  0  0  0  0  0  0
    8.0161   -0.6131   18.3093 H   0  0  0  0  0  0  0  0  0  0  0  0
    4.9844    1.8608   16.9895 H   0  0  0  0  0  0  0  0  0  0  0  0
    3.8970    1.8808   19.2356 H   0  0  0  0  0  0  0  0  0  0  0  0
    4.9514    0.5340   21.1147 H   0  0  0  0  0  0  0  0  0  0  0  0
    8.5355   -0.6789   21.3597 C   0  0  0  0  0  0  0  0  0  0  0  0
    9.6334    0.0289   20.6267 C   0  0  0  0  0  0  0  0  0  0  0  0
   10.7638    0.4377   21.5470 C   0  0  0  0  0  0  0  0  0  0  0  0
   11.9083   -0.3730   21.6490 C   0  0  0  0  0  0  0  0  0  0  0  0
   12.9358   -0.0831   22.5571 C   0  0  0  0  0  0  0  0  0  0  0  0
   12.8321    1.0339   23.3858 C   0  0  0  0  0  0  0  0  0  0  0  0
   11.7015    1.8495   23.3087 C   0  0  0  0  0  0  0  0  0  0  0  0
   10.6742    1.5541   22.4021 C   0  0  0  0  0  0  0  0  0  0  0  0
    9.3135    2.7545   22.3698 S   0  0  0  0  0  0  0  0  0  0  0  0
    8.7705    2.8086   20.9728 O   0  0  0  0  0  0  0  0  0  0  0  0
    8.0865    1.8399   23.3440 C   0  0  0  0  0  0  0  0  0  0  0  0
    7.5225    2.5585   23.9473 H   0  0  0  0  0  0  0  0  0  0  0  0
    7.4210    1.3526   22.6257 H   0  0  0  0  0  0  0  0  0  0  0  0
    8.5716    1.0972   23.9848 H   0  0  0  0  0  0  0  0  0  0  0  0
   11.6013    2.7246   23.9441 H   0  0  0  0  0  0  0  0  0  0  0  0
   13.6249    1.2756   24.0925 H   0  0  0  0  0  0  0  0  0  0  0  0
   13.8163   -0.7229   22.5973 H   0  0  0  0  0  0  0  0  0  0  0  0
   11.9826   -1.2524   21.0089 H   0  0  0  0  0  0  0  0  0  0  0  0
    9.2412    0.9047   20.1137 H   0  0  0  0  0  0  0  0  0  0  0  0
    9.9971   -0.6718   19.8710 H   0  0  0  0  0  0  0  0  0  0  0  0
    8.6911   -1.3825   22.4613 N   0  0  0  0  0  0  0  0  0  0  0  0
    6.2342   -3.3540   23.6443 H   0  0  0  0  0  0  0  0  0  0  0  0
    7.4188   -5.1246   25.4010 H   0  0  0  0  0  0  0  0  0  0  0  0
    8.8827   -5.6371   24.5272 H   0  0  0  0  0  0  0  0  0  0  0  0
    7.3081   -5.6728   23.6967 H   0  0  0  0  0  0  0  0  0  0  0  0
  1  2  1  0
  2  3  1  0
  3  4  1  0
  4  5  1  0
  4  6  1  0
  4  7  1  0
  3  8  1  0
  8  9  2  0
  9 10  1  0
 10 11  1  0
 11 12  2  0
 12 13  1  0
 13 14  2  0
 14 15  1  0
 15 16  2  0
 16 17  1  0
 14 18  1  0
 13 19  1  0
 12 20  1  0
 10 21  1  0
 21 22  1  0
 22 23  1  0
 23 24  2  0
 24 25  1  0
 25 26  2  0
 26 27  1  0
 27 28  2  0
 28 29  1  0
 29 30  2  0
 29 31  1  0
 31 32  1  0
 31 33  1  0
 31 34  1  0
 27 35  1  0
 26 36  1  0
 25 37  1  0
 24 38  1  0
 22 39  1  0
 22 40  1  0
 21 41  2  0
  3 42  1  0
  1 43  1  0
  1 44  1  0
  1 45  1  0
 41  8  1  0
 16 11  1  0
 28 23  1  0
M  END
>  <cnnaffinity>  (1) 
-6.35894

>  <filename>  (1) 
COC(C)c1nc(Cc2ccccc2S(C)=O)n(-c2cccnc2)n1

$$$$
