
     RDKit          3D

 44 46  0  0  0  0  0  0  0  0999 V2000
    7.0394   -5.0579   22.6631 C   0  0  0  0  0  0  0  0  0  0  0  0
    6.5169   -3.9989   23.4393 O   0  0  0  0  0  0  0  0  0  0  0  0
    7.4011   -2.9275   23.7085 C   0  0  0  0  0  0  0  0  0  0  0  0
    6.7950   -2.1674   24.8930 C   0  0  0  0  0  0  0  0  0  0  0  0
    5.8363   -1.7305   24.5954 H   0  0  0  0  0  0  0  0  0  0  0  0
    7.4589   -1.3675   25.2377 H   0  0  0  0  0  0  0  0  0  0  0  0
    6.6236   -2.8589   25.7227 H   0  0  0  0  0  0  0  0  0  0  0  0
    7.6392   -2.0062   22.5203 C   0  0  0  0  0  0  0  0  0  0  0  0
    6.7012   -1.6173   21.6785 N   0  0  0  0  0  0  0  0  0  0  0  0
    7.3411   -0.7056   20.9006 N   0  0  0  0  0  0  0  0  0  0  0  0
    6.6381   -0.0363   19.8535 C   0  0  0  0  0  0  0  0  0  0  0  0
    5.4350    0.6230   20.1199 C   0  0  0  0  0  0  0  0  0  0  0  0
    4.8163    1.3160   19.0769 C   0  0  0  0  0  0  0  0  0  0  0  0
    5.4056    1.3096   17.8077 C   0  0  0  0  0  0  0  0  0  0  0  0
    6.5410    0.6480   17.5361 N   0  0  0  0  0  0  0  0  0  0  0  0
    7.1327   -0.0102   18.5386 C   0  0  0  0  0  0  0  0  0  0  0  0
    8.0454   -0.5474   18.2871 H   0  0  0  0  0  0  0  0  0  0  0  0
    4.9427    1.8343   16.9746 H   0  0  0  0  0  0  0  0  0  0  0  0
    3.8932    1.8632   19.2373 H   0  0  0  0  0  0  0  0  0  0  0  0
    5.0201    0.5985   21.1257 H   0  0  0  0  0  0  0  0  0  0  0  0
    8.6205   -0.5537   21.3517 C   0  0  0  0  0  0  0  0  0  0  0  0
    9.5831    0.5087   20.8786 C   0  0  0  0  0  0  0  0  0  0  0  0
    9.3678    1.8297   21.4135 O   0  0  0  0  0  0  0  0  0  0  0  0
    9.5351    1.8971   22.7861 C   0  0  0  0  0  0  0  0  0  0  0  0
    8.4183    1.8407   23.6414 C   0  0  0  0  0  0  0  0  0  0  0  0
    6.8040    1.9292   23.0014 Cl  0  0  0  0  0  0  0  0  0  0  0  0
    8.5882    1.6352   25.0158 C   0  0  0  0  0  0  0  0  0  0  0  0
    9.8758    1.5291   25.5406 C   0  0  0  0  0  0  0  0  0  0  0  0
   10.9885    1.7010   24.7181 C   0  0  0  0  0  0  0  0  0  0  0  0
   10.8344    1.9028   23.3409 C   0  0  0  0  0  0  0  0  0  0  0  0
   12.0569    1.9567   22.4568 C   0  0  0  0  0  0  0  0  0  0  0  0
   12.8913    2.4884   22.9172 H   0  0  0  0  0  0  0  0  0  0  0  0
   12.4272    0.9439   22.2586 H   0  0  0  0  0  0  0  0  0  0  0  0
   11.8416    2.4254   21.4954 H   0  0  0  0  0  0  0  0  0  0  0  0
   11.9894    1.6414   25.1353 H   0  0  0  0  0  0  0  0  0  0  0  0
   10.0095    1.2592   26.5794 H   0  0  0  0  0  0  0  0  0  0  0  0
    7.7230    1.5302   25.6610 H   0  0  0  0  0  0  0  0  0  0  0  0
    9.5146    0.6425   19.7989 H   0  0  0  0  0  0  0  0  0  0  0  0
   10.5897    0.1596   21.1454 H   0  0  0  0  0  0  0  0  0  0  0  0
    8.8457   -1.4029   22.3449 N   0  0  0  0  0  0  0  0  0  0  0  0
    8.3993   -3.3009   23.9907 H   0  0  0  0  0  0  0  0  0  0  0  0
    6.1871   -5.6963   22.4142 H   0  0  0  0  0  0  0  0  0  0  0  0
    7.7819   -5.6486   23.2238 H   0  0  0  0  0  0  0  0  0  0  0  0
    7.5011   -4.7018   21.7307 H   0  0  0  0  0  0  0  0  0  0  0  0
  1  2  1  0
  2  3  1  0
  3  4  1  0
  4  5  1  0
  4  6  1  0
  4  7  1  0
  3  8  1  0
  8  9  2  0
  9 10  1  0
 10 11  1  0
 11 12  2  0
 12 13  1  0
 13 14  2  0
 14 15  1  0
 15 16  2  0
 16 17  1  0
 14 18  1  0
 13 19  1  0
 12 20  1  0
 10 21  1  0
 21 22  1  0
 22 23  1  0
 23 24  1  0
 24 25  2  0
 25 26  1  0
 25 27  1  0
 27 28  2  0
 28 29  1  0
 29 30  2  0
 30 31  1  0
 31 32  1  0
 31 33  1  0
 31 34  1  0
 29 35  1  0
 28 36  1  0
 27 37  1  0
 22 38  1  0
 22 39  1  0
 21 40  2  0
  3 41  1  0
  1 42  1  0
  1 43  1  0
  1 44  1  0
 40  8  1  0
 16 11  1  0
 30 24  1  0
M  END
>  <cnnaffinity>  (1) 
-5.90889

>  <filename>  (1) 
COC(C)c1nc(COc2c(C)cccc2Cl)n(-c2cccnc2)n1

$$$$
