
     RDKit          3D

 41 43  0  0  0  0  0  0  0  0999 V2000
    8.4136   -5.1309   23.5654 C   0  0  0  0  0  0  0  0  0  0  0  0
    8.9719   -3.8342   23.6224 O   0  0  0  0  0  0  0  0  0  0  0  0
    9.2281   -3.1782   22.3909 C   0  0  0  0  0  0  0  0  0  0  0  0
   10.6836   -2.6818   22.4486 C   0  0  0  0  0  0  0  0  0  0  0  0
   10.7385   -1.8244   23.1302 H   0  0  0  0  0  0  0  0  0  0  0  0
   11.0414   -2.3699   21.4606 H   0  0  0  0  0  0  0  0  0  0  0  0
   11.3430   -3.4447   22.8605 H   0  0  0  0  0  0  0  0  0  0  0  0
    8.3333   -1.9929   22.1025 C   0  0  0  0  0  0  0  0  0  0  0  0
    7.8204   -1.7892   20.9018 N   0  0  0  0  0  0  0  0  0  0  0  0
    7.2447   -0.5683   21.0211 N   0  0  0  0  0  0  0  0  0  0  0  0
    6.5690    0.0266   19.9305 C   0  0  0  0  0  0  0  0  0  0  0  0
    5.3742    0.7199   20.1375 C   0  0  0  0  0  0  0  0  0  0  0  0
    4.8037    1.3572   19.0320 C   0  0  0  0  0  0  0  0  0  0  0  0
    5.4370    1.2670   17.7902 C   0  0  0  0  0  0  0  0  0  0  0  0
    6.5649    0.5618   17.5869 N   0  0  0  0  0  0  0  0  0  0  0  0
    7.1103   -0.0570   18.6375 C   0  0  0  0  0  0  0  0  0  0  0  0
    8.0251   -0.6222   18.4628 H   0  0  0  0  0  0  0  0  0  0  0  0
    5.0233    1.7758   16.9219 H   0  0  0  0  0  0  0  0  0  0  0  0
    3.8928    1.9339   19.1340 H   0  0  0  0  0  0  0  0  0  0  0  0
    4.9192    0.7559   21.1271 H   0  0  0  0  0  0  0  0  0  0  0  0
    7.4998   -0.0791   22.2638 C   0  0  0  0  0  0  0  0  0  0  0  0
    7.1420    1.2818   22.7520 C   0  0  0  0  0  0  0  0  0  0  0  0
    5.8526    1.2011   23.3623 O   0  0  0  0  0  0  0  0  0  0  0  0
    5.3964    2.2529   24.0885 C   0  0  0  0  0  0  0  0  0  0  0  0
    5.9854    3.5262   24.0747 C   0  0  0  0  0  0  0  0  0  0  0  0
    5.3844    4.6047   24.7271 C   0  0  0  0  0  0  0  0  0  0  0  0
    4.1945    4.3975   25.4146 C   0  0  0  0  0  0  0  0  0  0  0  0
    3.5922    5.4330   26.0190 F   0  0  0  0  0  0  0  0  0  0  0  0
    3.6167    3.1335   25.5076 C   0  0  0  0  0  0  0  0  0  0  0  0
    4.2362    2.0556   24.8757 C   0  0  0  0  0  0  0  0  0  0  0  0
    3.5957    0.4616   25.1257 Cl  0  0  0  0  0  0  0  0  0  0  0  0
    2.6987    2.9951   26.0716 H   0  0  0  0  0  0  0  0  0  0  0  0
    5.8307    5.5923   24.6997 H   0  0  0  0  0  0  0  0  0  0  0  0
    6.9271    3.6644   23.5524 H   0  0  0  0  0  0  0  0  0  0  0  0
    7.8998    1.5782   23.4884 H   0  0  0  0  0  0  0  0  0  0  0  0
    7.1395    2.0079   21.9277 H   0  0  0  0  0  0  0  0  0  0  0  0
    8.1815   -0.9551   22.9660 N   0  0  0  0  0  0  0  0  0  0  0  0
    9.0221   -3.8560   21.5494 H   0  0  0  0  0  0  0  0  0  0  0  0
    8.3888   -5.4846   24.5978 H   0  0  0  0  0  0  0  0  0  0  0  0
    7.3904   -5.1202   23.1638 H   0  0  0  0  0  0  0  0  0  0  0  0
    9.0229   -5.8235   22.9648 H   0  0  0  0  0  0  0  0  0  0  0  0
  1  2  1  0
  2  3  1  0
  3  4  1  0
  4  5  1  0
  4  6  1  0
  4  7  1  0
  3  8  1  0
  8  9  2  0
  9 10  1  0
 10 11  1  0
 11 12  2  0
 12 13  1  0
 13 14  2  0
 14 15  1  0
 15 16  2  0
 16 17  1  0
 14 18  1  0
 13 19  1  0
 12 20  1  0
 10 21  1  0
 21 22  1  0
 22 23  1  0
 23 24  1  0
 24 25  2  0
 25 26  1  0
 26 27  2  0
 27 28  1  0
 27 29  1  0
 29 30  2  0
 30 31  1  0
 29 32  1  0
 26 33  1  0
 25 34  1  0
 22 35  1  0
 22 36  1  0
 21 37  2  0
  3 38  1  0
  1 39  1  0
  1 40  1  0
  1 41  1  0
 37  8  1  0
 16 11  1  0
 30 24  1  0
M  END
>  <cnnaffinity>  (1) 
-5.69098

>  <filename>  (1) 
COC(C)c1nc(COc2ccc(F)cc2Cl)n(-c2cccnc2)n1

$$$$
