
     RDKit          3D

 44 46  0  0  0  0  0  0  0  0999 V2000
    7.0568   -5.1104   22.7841 C   0  0  0  0  0  0  0  0  0  0  0  0
    6.4717   -4.1089   23.5967 O   0  0  0  0  0  0  0  0  0  0  0  0
    7.3134   -2.9962   23.8118 C   0  0  0  0  0  0  0  0  0  0  0  0
    6.7351   -2.1611   24.9582 C   0  0  0  0  0  0  0  0  0  0  0  0
    5.8154   -1.6597   24.6382 H   0  0  0  0  0  0  0  0  0  0  0  0
    7.4612   -1.4056   25.2726 H   0  0  0  0  0  0  0  0  0  0  0  0
    6.5078   -2.8015   25.8148 H   0  0  0  0  0  0  0  0  0  0  0  0
    7.5446   -2.1432   22.5740 C   0  0  0  0  0  0  0  0  0  0  0  0
    6.6194   -1.7433   21.7215 N   0  0  0  0  0  0  0  0  0  0  0  0
    7.2920   -0.8406   20.9505 N   0  0  0  0  0  0  0  0  0  0  0  0
    6.6223   -0.1335   19.9055 C   0  0  0  0  0  0  0  0  0  0  0  0
    5.4254    0.5456   20.1578 C   0  0  0  0  0  0  0  0  0  0  0  0
    4.8500    1.2866   19.1173 C   0  0  0  0  0  0  0  0  0  0  0  0
    5.4711    1.2947   17.8629 C   0  0  0  0  0  0  0  0  0  0  0  0
    6.5928    0.6102   17.6004 N   0  0  0  0  0  0  0  0  0  0  0  0
    7.1506   -0.0828   18.6014 C   0  0  0  0  0  0  0  0  0  0  0  0
    8.0622   -0.6257   18.3608 H   0  0  0  0  0  0  0  0  0  0  0  0
    5.0488    1.8673   17.0366 H   0  0  0  0  0  0  0  0  0  0  0  0
    3.9473    1.8664   19.2691 H   0  0  0  0  0  0  0  0  0  0  0  0
    4.9732    0.4953   21.1487 H   0  0  0  0  0  0  0  0  0  0  0  0
    8.5684   -0.7231   21.4270 C   0  0  0  0  0  0  0  0  0  0  0  0
    9.5227    0.3690   21.1144 C   0  0  0  0  0  0  0  0  0  0  0  0
    9.2181    1.7129   21.8379 C   0  0  0  0  0  0  0  0  0  0  0  0
   10.4217    2.6434   21.7132 C   0  0  0  0  0  0  0  0  0  0  0  0
   10.1863    3.6296   22.1273 H   0  0  0  0  0  0  0  0  0  0  0  0
   11.3057    2.2402   22.2245 H   0  0  0  0  0  0  0  0  0  0  0  0
   10.7010    2.7520   20.6644 H   0  0  0  0  0  0  0  0  0  0  0  0
    8.7949    1.5877   23.2436 N   0  0  0  0  0  0  0  0  0  0  0  0
    7.5085    1.7934   23.6927 C   0  0  0  0  0  0  0  0  0  0  0  0
    7.5063    1.8343   25.0660 C   0  0  0  0  0  0  0  0  0  0  0  0
    8.8465    1.5910   25.4850 C   0  0  0  0  0  0  0  0  0  0  0  0
    9.5985    1.4073   24.3468 C   0  0  0  0  0  0  0  0  0  0  0  0
   10.6241    1.0868   24.2263 H   0  0  0  0  0  0  0  0  0  0  0  0
    9.2187    1.5541   26.5059 H   0  0  0  0  0  0  0  0  0  0  0  0
    6.6453    2.0330   25.7031 H   0  0  0  0  0  0  0  0  0  0  0  0
    6.7057    1.8204   22.9668 H   0  0  0  0  0  0  0  0  0  0  0  0
    8.3441    2.1632   21.3460 H   0  0  0  0  0  0  0  0  0  0  0  0
    9.5476    0.5615   20.0413 H   0  0  0  0  0  0  0  0  0  0  0  0
   10.5081    0.0078   21.4096 H   0  0  0  0  0  0  0  0  0  0  0  0
    8.7670   -1.5804   22.4069 N   0  0  0  0  0  0  0  0  0  0  0  0
    8.3220   -3.3317   24.1012 H   0  0  0  0  0  0  0  0  0  0  0  0
    6.2681   -5.8301   22.5563 H   0  0  0  0  0  0  0  0  0  0  0  0
    7.4512   -4.6974   21.8420 H   0  0  0  0  0  0  0  0  0  0  0  0
    7.8744   -5.6244   23.3135 H   0  0  0  0  0  0  0  0  0  0  0  0
  1  2  1  0
  2  3  1  0
  3  4  1  0
  4  5  1  0
  4  6  1  0
  4  7  1  0
  3  8  1  0
  8  9  2  0
  9 10  1  0
 10 11  1  0
 11 12  2  0
 12 13  1  0
 13 14  2  0
 14 15  1  0
 15 16  2  0
 16 17  1  0
 14 18  1  0
 13 19  1  0
 12 20  1  0
 10 21  1  0
 21 22  1  0
 22 23  1  0
 23 24  1  0
 24 25  1  0
 24 26  1  0
 24 27  1  0
 23 28  1  0
 28 29  1  0
 29 30  2  0
 30 31  1  0
 31 32  2  0
 32 33  1  0
 31 34  1  0
 30 35  1  0
 29 36  1  0
 23 37  1  0
 22 38  1  0
 22 39  1  0
 21 40  2  0
  3 41  1  0
  1 42  1  0
  1 43  1  0
  1 44  1  0
 40  8  1  0
 16 11  1  0
 32 28  1  0
M  END
>  <cnnaffinity>  (1) 
-5.58375

>  <filename>  (1) 
COC(C)c1nc(CC(C)n2cccc2)n(-c2cccnc2)n1

$$$$
