
     RDKit          3D

 40 42  0  0  0  0  0  0  0  0999 V2000
    7.5593   -4.6921   23.5718 C   0  0  0  0  0  0  0  0  0  0  0  0
    8.7247   -3.8646   23.6823 O   0  0  0  0  0  0  0  0  0  0  0  0
    9.0542   -3.1034   22.4979 C   0  0  0  0  0  0  0  0  0  0  0  0
   10.4810   -2.5722   22.7125 C   0  0  0  0  0  0  0  0  0  0  0  0
   11.2301   -3.3638   22.6169 H   0  0  0  0  0  0  0  0  0  0  0  0
   10.5788   -2.1464   23.7208 H   0  0  0  0  0  0  0  0  0  0  0  0
   10.7031   -1.8036   21.9632 H   0  0  0  0  0  0  0  0  0  0  0  0
    8.1411   -1.9239   22.1644 C   0  0  0  0  0  0  0  0  0  0  0  0
    7.7733   -1.6449   20.9303 N   0  0  0  0  0  0  0  0  0  0  0  0
    7.1356   -0.4552   21.0497 N   0  0  0  0  0  0  0  0  0  0  0  0
    6.5246    0.1857   19.9627 C   0  0  0  0  0  0  0  0  0  0  0  0
    5.3892    0.9912   20.1065 C   0  0  0  0  0  0  0  0  0  0  0  0
    4.8367    1.5559   18.9518 C   0  0  0  0  0  0  0  0  0  0  0  0
    5.4225    1.3166   17.7040 C   0  0  0  0  0  0  0  0  0  0  0  0
    6.5027    0.5302   17.5580 N   0  0  0  0  0  0  0  0  0  0  0  0
    7.0318   -0.0254   18.6674 C   0  0  0  0  0  0  0  0  0  0  0  0
    7.9047   -0.6607   18.5590 H   0  0  0  0  0  0  0  0  0  0  0  0
    4.9918    1.7799   16.8210 H   0  0  0  0  0  0  0  0  0  0  0  0
    3.9557    2.1865   18.9974 H   0  0  0  0  0  0  0  0  0  0  0  0
    4.9266    1.1529   21.0793 H   0  0  0  0  0  0  0  0  0  0  0  0
    7.2261   -0.0239   22.3704 C   0  0  0  0  0  0  0  0  0  0  0  0
    6.9816    1.3383   22.9583 C   0  0  0  0  0  0  0  0  0  0  0  0
    8.2788    1.7162   23.6510 C   0  0  0  0  0  0  0  0  0  0  0  0
    9.3578    2.1451   22.8756 C   0  0  0  0  0  0  0  0  0  0  0  0
    9.0653    2.4860   21.0448 Br  0  0  0  0  0  0  0  0  0  0  0  0
   10.6401    2.2623   23.4125 C   0  0  0  0  0  0  0  0  0  0  0  0
   10.8509    1.9600   24.7590 C   0  0  0  0  0  0  0  0  0  0  0  0
    9.7712    1.5542   25.5457 C   0  0  0  0  0  0  0  0  0  0  0  0
    8.4904    1.4359   25.0063 C   0  0  0  0  0  0  0  0  0  0  0  0
    7.4821    0.9958   25.7908 F   0  0  0  0  0  0  0  0  0  0  0  0
    9.9167    1.2819   26.5795 H   0  0  0  0  0  0  0  0  0  0  0  0
   11.8417    2.0193   25.1968 H   0  0  0  0  0  0  0  0  0  0  0  0
   11.4588    2.5544   22.7607 H   0  0  0  0  0  0  0  0  0  0  0  0
    6.7421    2.0549   22.1679 H   0  0  0  0  0  0  0  0  0  0  0  0
    6.1490    1.2987   23.6619 H   0  0  0  0  0  0  0  0  0  0  0  0
    7.7754   -0.9607   23.0881 N   0  0  0  0  0  0  0  0  0  0  0  0
    9.0315   -3.7596   21.6285 H   0  0  0  0  0  0  0  0  0  0  0  0
    7.2870   -5.0807   24.5591 H   0  0  0  0  0  0  0  0  0  0  0  0
    7.7540   -5.5417   22.9099 H   0  0  0  0  0  0  0  0  0  0  0  0
    6.7124   -4.1216   23.1789 H   0  0  0  0  0  0  0  0  0  0  0  0
  1  2  1  0
  2  3  1  0
  3  4  1  0
  4  5  1  0
  4  6  1  0
  4  7  1  0
  3  8  1  0
  8  9  2  0
  9 10  1  0
 10 11  1  0
 11 12  2  0
 12 13  1  0
 13 14  2  0
 14 15  1  0
 15 16  2  0
 16 17  1  0
 14 18  1  0
 13 19  1  0
 12 20  1  0
 10 21  1  0
 21 22  1  0
 22 23  1  0
 23 24  2  0
 24 25  1  0
 24 26  1  0
 26 27  2  0
 27 28  1  0
 28 29  2  0
 29 30  1  0
 28 31  1  0
 27 32  1  0
 26 33  1  0
 22 34  1  0
 22 35  1  0
 21 36  2  0
  3 37  1  0
  1 38  1  0
  1 39  1  0
  1 40  1  0
 36  8  1  0
 16 11  1  0
 29 23  1  0
M  END
>  <cnnaffinity>  (1) 
-6.04603

>  <filename>  (1) 
COC(C)c1nc(Cc2c(F)cccc2Br)n(-c2cccnc2)n1

$$$$
