
     RDKit          3D

 43 46  0  0  0  0  0  0  0  0999 V2000
    7.1085   -5.0827   22.5919 C   0  0  0  0  0  0  0  0  0  0  0  0
    6.4966   -4.0545   23.3452 O   0  0  0  0  0  0  0  0  0  0  0  0
    7.3621   -2.9804   23.6606 C   0  0  0  0  0  0  0  0  0  0  0  0
    7.5736   -2.0164   22.5159 C   0  0  0  0  0  0  0  0  0  0  0  0
    6.6406   -1.6031   21.6801 N   0  0  0  0  0  0  0  0  0  0  0  0
    7.3022   -0.6906   20.9206 N   0  0  0  0  0  0  0  0  0  0  0  0
    6.6385   -0.0036   19.8734 C   0  0  0  0  0  0  0  0  0  0  0  0
    5.4271    0.6392   20.1386 C   0  0  0  0  0  0  0  0  0  0  0  0
    4.7964    1.3194   19.0943 C   0  0  0  0  0  0  0  0  0  0  0  0
    5.3890    1.3030   17.8231 C   0  0  0  0  0  0  0  0  0  0  0  0
    6.5366    0.6625   17.5550 N   0  0  0  0  0  0  0  0  0  0  0  0
    7.1486    0.0354   18.5624 C   0  0  0  0  0  0  0  0  0  0  0  0
    8.0935   -0.4518   18.3254 H   0  0  0  0  0  0  0  0  0  0  0  0
    4.9258    1.8218   16.9872 H   0  0  0  0  0  0  0  0  0  0  0  0
    3.8654    1.8579   19.2493 H   0  0  0  0  0  0  0  0  0  0  0  0
    5.0133    0.5815   21.1464 H   0  0  0  0  0  0  0  0  0  0  0  0
    8.5864   -0.5808   21.3689 C   0  0  0  0  0  0  0  0  0  0  0  0
    9.6459    0.3093   20.8126 C   0  0  0  0  0  0  0  0  0  0  0  0
   10.3136    1.1533   21.8777 C   0  0  0  0  0  0  0  0  0  0  0  0
    9.6794    2.2569   22.4792 C   0  0  0  0  0  0  0  0  0  0  0  0
    8.1084    2.7680   21.9375 Cl  0  0  0  0  0  0  0  0  0  0  0  0
   10.2784    2.9230   23.5602 C   0  0  0  0  0  0  0  0  0  0  0  0
   11.4605    2.5403   24.0683 N   0  0  0  0  0  0  0  0  0  0  0  0
   12.0915    1.4973   23.5077 C   0  0  0  0  0  0  0  0  0  0  0  0
   11.5507    0.7992   22.4259 C   0  0  0  0  0  0  0  0  0  0  0  0
   12.2321   -0.2451   21.9214 F   0  0  0  0  0  0  0  0  0  0  0  0
   13.0466    1.1788   23.9228 H   0  0  0  0  0  0  0  0  0  0  0  0
    9.7774    3.7660   24.0372 H   0  0  0  0  0  0  0  0  0  0  0  0
    9.2105    0.9460   20.0440 H   0  0  0  0  0  0  0  0  0  0  0  0
   10.3712   -0.3590   20.3424 H   0  0  0  0  0  0  0  0  0  0  0  0
    8.7836   -1.4242   22.3608 N   0  0  0  0  0  0  0  0  0  0  0  0
    6.8146   -2.2473   24.8781 C   0  0  0  0  0  0  0  0  0  0  0  0
    7.0716   -2.8119   26.2447 C   0  0  0  0  0  0  0  0  0  0  0  0
    7.7915   -1.5691   25.8002 C   0  0  0  0  0  0  0  0  0  0  0  0
    7.5358   -0.6055   26.2339 H   0  0  0  0  0  0  0  0  0  0  0  0
    8.8481   -1.6363   25.5395 H   0  0  0  0  0  0  0  0  0  0  0  0
    7.6154   -3.7501   26.3138 H   0  0  0  0  0  0  0  0  0  0  0  0
    6.2802   -2.7384   26.9861 H   0  0  0  0  0  0  0  0  0  0  0  0
    5.8495   -1.7696   24.6915 H   0  0  0  0  0  0  0  0  0  0  0  0
    8.3761   -3.3479   23.9057 H   0  0  0  0  0  0  0  0  0  0  0  0
    7.7917   -5.6773   23.2175 H   0  0  0  0  0  0  0  0  0  0  0  0
    6.3059   -5.7263   22.2233 H   0  0  0  0  0  0  0  0  0  0  0  0
    7.6709   -4.6896   21.7316 H   0  0  0  0  0  0  0  0  0  0  0  0
  1  2  1  0
  2  3  1  0
  3  4  1  0
  4  5  2  0
  5  6  1  0
  6  7  1  0
  7  8  2  0
  8  9  1  0
  9 10  2  0
 10 11  1  0
 11 12  2  0
 12 13  1  0
 10 14  1  0
  9 15  1  0
  8 16  1  0
  6 17  1  0
 17 18  1  0
 18 19  1  0
 19 20  2  0
 20 21  1  0
 20 22  1  0
 22 23  2  0
 23 24  1  0
 24 25  2  0
 25 26  1  0
 24 27  1  0
 22 28  1  0
 18 29  1  0
 18 30  1  0
 17 31  2  0
  3 32  1  0
 32 33  1  0
 33 34  1  0
 34 35  1  0
 34 36  1  0
 33 37  1  0
 33 38  1  0
 32 39  1  0
  3 40  1  0
  1 41  1  0
  1 42  1  0
  1 43  1  0
 31  4  1  0
 34 32  1  0
 12  7  1  0
 25 19  1  0
M  END
>  <cnnaffinity>  (1) 
-6.65225

>  <filename>  (1) 
COC(c1nc(Cc2c(F)cncc2Cl)n(-c2cccnc2)n1)C1CC1

$$$$
