
     RDKit          3D

 45 47  0  0  0  0  0  0  0  0999 V2000
    5.3595   -4.5659   22.6122 C   0  0  0  0  0  0  0  0  0  0  0  0
    6.6489   -4.6463   22.0577 O   0  0  0  0  0  0  0  0  0  0  0  0
    7.7593   -4.4156   22.9091 C   0  0  0  0  0  0  0  0  0  0  0  0
    8.4246   -5.7410   23.2481 C   0  0  0  0  0  0  0  0  0  0  0  0
    8.8397   -6.1921   22.3392 H   0  0  0  0  0  0  0  0  0  0  0  0
    7.6961   -6.4333   23.6773 H   0  0  0  0  0  0  0  0  0  0  0  0
    9.2294   -5.5952   23.9758 H   0  0  0  0  0  0  0  0  0  0  0  0
    8.6857   -3.5193   22.0936 C   0  0  0  0  0  0  0  0  0  0  0  0
    8.0653   -2.1984   21.8530 C   0  0  0  0  0  0  0  0  0  0  0  0
    7.6783   -1.8264   20.6564 N   0  0  0  0  0  0  0  0  0  0  0  0
    7.1300   -0.6078   20.8757 N   0  0  0  0  0  0  0  0  0  0  0  0
    6.4878    0.0749   19.8136 C   0  0  0  0  0  0  0  0  0  0  0  0
    5.2768    0.7588   19.9805 C   0  0  0  0  0  0  0  0  0  0  0  0
    4.7344    1.4086   18.8672 C   0  0  0  0  0  0  0  0  0  0  0  0
    5.4133    1.3468   17.6464 C   0  0  0  0  0  0  0  0  0  0  0  0
    6.5535    0.6536   17.4751 N   0  0  0  0  0  0  0  0  0  0  0  0
    7.0657    0.0242   18.5336 C   0  0  0  0  0  0  0  0  0  0  0  0
    7.9728   -0.5540   18.3733 H   0  0  0  0  0  0  0  0  0  0  0  0
    5.0463    1.8789   16.7726 H   0  0  0  0  0  0  0  0  0  0  0  0
    3.8232    1.9922   18.9453 H   0  0  0  0  0  0  0  0  0  0  0  0
    4.7629    0.7718   20.9435 H   0  0  0  0  0  0  0  0  0  0  0  0
    7.2863   -0.2829   22.1940 C   0  0  0  0  0  0  0  0  0  0  0  0
    6.9633    1.0483   22.8012 C   0  0  0  0  0  0  0  0  0  0  0  0
    8.1098    1.5796   23.6309 C   0  0  0  0  0  0  0  0  0  0  0  0
    8.1635    1.3091   24.9973 C   0  0  0  0  0  0  0  0  0  0  0  0
    9.3320    1.6035   25.6959 C   0  0  0  0  0  0  0  0  0  0  0  0
   10.3788    2.1945   25.1313 N   0  0  0  0  0  0  0  0  0  0  0  0
   10.2948    2.5662   23.8435 C   0  0  0  0  0  0  0  0  0  0  0  0
   11.5373    3.2943   23.3125 C   0  0  0  0  0  0  0  0  0  0  0  0
   12.0402    4.1817   24.1855 F   0  0  0  0  0  0  0  0  0  0  0  0
   11.2707    3.9747   22.1852 F   0  0  0  0  0  0  0  0  0  0  0  0
   12.5211    2.4218   23.0245 F   0  0  0  0  0  0  0  0  0  0  0  0
    9.1862    2.2467   23.0329 C   0  0  0  0  0  0  0  0  0  0  0  0
    9.1415    2.4805   21.9693 H   0  0  0  0  0  0  0  0  0  0  0  0
    9.4244    1.3663   26.7473 H   0  0  0  0  0  0  0  0  0  0  0  0
    7.3222    0.8709   25.5199 H   0  0  0  0  0  0  0  0  0  0  0  0
    6.0641    0.9283   23.4182 H   0  0  0  0  0  0  0  0  0  0  0  0
    6.7204    1.7542   22.0061 H   0  0  0  0  0  0  0  0  0  0  0  0
    7.8343   -1.2979   22.8391 N   0  0  0  0  0  0  0  0  0  0  0  0
    8.7915   -3.9661   21.1043 H   0  0  0  0  0  0  0  0  0  0  0  0
    9.6574   -3.3872   22.5815 H   0  0  0  0  0  0  0  0  0  0  0  0
    7.4438   -3.8983   23.8329 H   0  0  0  0  0  0  0  0  0  0  0  0
    5.1391   -3.5622   23.0070 H   0  0  0  0  0  0  0  0  0  0  0  0
    4.6665   -4.7717   21.7919 H   0  0  0  0  0  0  0  0  0  0  0  0
    5.1913   -5.3013   23.4149 H   0  0  0  0  0  0  0  0  0  0  0  0
  1  2  1  0
  2  3  1  0
  3  4  1  0
  4  5  1  0
  4  6  1  0
  4  7  1  0
  3  8  1  0
  8  9  1  0
  9 10  2  0
 10 11  1  0
 11 12  1  0
 12 13  2  0
 13 14  1  0
 14 15  2  0
 15 16  1  0
 16 17  2  0
 17 18  1  0
 15 19  1  0
 14 20  1  0
 13 21  1  0
 11 22  1  0
 22 23  1  0
 23 24  1  0
 24 25  2  0
 25 26  1  0
 26 27  2  0
 27 28  1  0
 28 29  1  0
 29 30  1  0
 29 31  1  0
 29 32  1  0
 28 33  2  0
 33 34  1  0
 26 35  1  0
 25 36  1  0
 23 37  1  0
 23 38  1  0
 22 39  2  0
  8 40  1  0
  8 41  1  0
  3 42  1  0
  1 43  1  0
  1 44  1  0
  1 45  1  0
 39  9  1  0
 17 12  1  0
 33 24  1  0
M  END
>  <cnnaffinity>  (1) 
-6.21743

>  <filename>  (1) 
COC(C)Cc1nc(Cc2ccnc(C(F)(F)F)c2)n(-c2cccnc2)n1

$$$$
