
     RDKit          3D

 40 42  0  0  0  0  0  0  0  0999 V2000
    6.4842   -2.8251   25.8359 C   0  0  0  0  0  0  0  0  0  0  0  0
    6.3112   -2.6330   24.4493 O   0  0  0  0  0  0  0  0  0  0  0  0
    7.4332   -2.9723   23.6343 C   0  0  0  0  0  0  0  0  0  0  0  0
    7.2071   -4.3727   23.0449 C   0  0  0  0  0  0  0  0  0  0  0  0
    8.0639   -4.6778   22.4353 H   0  0  0  0  0  0  0  0  0  0  0  0
    7.0694   -5.0991   23.8525 H   0  0  0  0  0  0  0  0  0  0  0  0
    6.3046   -4.3633   22.4228 H   0  0  0  0  0  0  0  0  0  0  0  0
    7.6604   -1.9419   22.5454 C   0  0  0  0  0  0  0  0  0  0  0  0
    6.7259   -1.5684   21.6924 N   0  0  0  0  0  0  0  0  0  0  0  0
    7.3691   -0.6628   20.9168 N   0  0  0  0  0  0  0  0  0  0  0  0
    6.6650    0.0093   19.8838 C   0  0  0  0  0  0  0  0  0  0  0  0
    5.4476    0.6403   20.1556 C   0  0  0  0  0  0  0  0  0  0  0  0
    4.8108    1.3086   19.1066 C   0  0  0  0  0  0  0  0  0  0  0  0
    5.3957    1.2970   17.8347 C   0  0  0  0  0  0  0  0  0  0  0  0
    6.5515    0.6715   17.5668 N   0  0  0  0  0  0  0  0  0  0  0  0
    7.1683    0.0483   18.5750 C   0  0  0  0  0  0  0  0  0  0  0  0
    8.1112   -0.4441   18.3435 H   0  0  0  0  0  0  0  0  0  0  0  0
    4.9247    1.8017   16.9953 H   0  0  0  0  0  0  0  0  0  0  0  0
    3.8788    1.8404   19.2581 H   0  0  0  0  0  0  0  0  0  0  0  0
    5.0322    0.5977   21.1639 H   0  0  0  0  0  0  0  0  0  0  0  0
    8.6510   -0.5117   21.3685 C   0  0  0  0  0  0  0  0  0  0  0  0
    9.5415    0.6143   20.9401 C   0  0  0  0  0  0  0  0  0  0  0  0
    9.0681    2.0134   21.4495 C   0  0  0  0  0  0  0  0  0  0  0  0
    8.9463    2.1139   22.9469 C   0  0  0  0  0  0  0  0  0  0  0  0
    7.8453    1.9526   23.6440 N   0  0  0  0  0  0  0  0  0  0  0  0
    8.2285    1.9121   24.9615 C   0  0  0  0  0  0  0  0  0  0  0  0
    9.5842    2.0775   25.0669 C   0  0  0  0  0  0  0  0  0  0  0  0
   10.0320    2.2186   23.7654 N   0  0  0  0  0  0  0  0  0  0  0  0
   10.9781    2.3147   23.4316 H   0  0  0  0  0  0  0  0  0  0  0  0
   10.2338    2.1217   25.9244 H   0  0  0  0  0  0  0  0  0  0  0  0
    7.4935    1.7493   25.7442 H   0  0  0  0  0  0  0  0  0  0  0  0
    8.0846    2.2464   21.0300 H   0  0  0  0  0  0  0  0  0  0  0  0
    9.7590    2.7790   21.0862 H   0  0  0  0  0  0  0  0  0  0  0  0
   10.5489    0.3821   21.3004 H   0  0  0  0  0  0  0  0  0  0  0  0
    9.5795    0.6168   19.8497 H   0  0  0  0  0  0  0  0  0  0  0  0
    8.8775   -1.3544   22.3557 N   0  0  0  0  0  0  0  0  0  0  0  0
    8.3628   -2.9396   24.2280 H   0  0  0  0  0  0  0  0  0  0  0  0
    5.5351   -2.5527   26.3003 H   0  0  0  0  0  0  0  0  0  0  0  0
    6.7244   -3.8692   26.0919 H   0  0  0  0  0  0  0  0  0  0  0  0
    7.2770   -2.1777   26.2424 H   0  0  0  0  0  0  0  0  0  0  0  0
  1  2  1  0
  2  3  1  0
  3  4  1  0
  4  5  1  0
  4  6  1  0
  4  7  1  0
  3  8  1  0
  8  9  2  0
  9 10  1  0
 10 11  1  0
 11 12  2  0
 12 13  1  0
 13 14  2  0
 14 15  1  0
 15 16  2  0
 16 17  1  0
 14 18  1  0
 13 19  1  0
 12 20  1  0
 10 21  1  0
 21 22  1  0
 22 23  1  0
 23 24  1  0
 24 25  2  0
 25 26  1  0
 26 27  2  0
 27 28  1  0
 28 29  1  0
 27 30  1  0
 26 31  1  0
 23 32  1  0
 23 33  1  0
 22 34  1  0
 22 35  1  0
 21 36  2  0
  3 37  1  0
  1 38  1  0
  1 39  1  0
  1 40  1  0
 36  8  1  0
 16 11  1  0
 28 24  1  0
M  END
>  <cnnaffinity>  (1) 
-5.69364

>  <filename>  (1) 
COC(C)c1nc(CCc2ncc[nH]2)n(-c2cccnc2)n1

$$$$
