
     RDKit          3D

 46 48  0  0  0  0  0  0  0  0999 V2000
    5.3592   -4.3914   22.8367 C   0  0  0  0  0  0  0  0  0  0  0  0
    6.6173   -4.5817   22.2385 O   0  0  0  0  0  0  0  0  0  0  0  0
    7.7725   -4.3647   23.0309 C   0  0  0  0  0  0  0  0  0  0  0  0
    8.4090   -5.7033   23.3739 C   0  0  0  0  0  0  0  0  0  0  0  0
    9.2813   -5.5726   24.0230 H   0  0  0  0  0  0  0  0  0  0  0  0
    7.6899   -6.3458   23.8862 H   0  0  0  0  0  0  0  0  0  0  0  0
    8.7320   -6.1994   22.4521 H   0  0  0  0  0  0  0  0  0  0  0  0
    8.6985   -3.5346   22.1524 C   0  0  0  0  0  0  0  0  0  0  0  0
    8.1354   -2.1886   21.8953 C   0  0  0  0  0  0  0  0  0  0  0  0
    7.7166   -1.8262   20.7070 N   0  0  0  0  0  0  0  0  0  0  0  0
    7.2117   -0.5862   20.9213 N   0  0  0  0  0  0  0  0  0  0  0  0
    6.5443    0.0715   19.8589 C   0  0  0  0  0  0  0  0  0  0  0  0
    5.3408    0.7606   20.0483 C   0  0  0  0  0  0  0  0  0  0  0  0
    4.7735    1.3987   18.9403 C   0  0  0  0  0  0  0  0  0  0  0  0
    5.4340    1.3336   17.7092 C   0  0  0  0  0  0  0  0  0  0  0  0
    6.5744    0.6473   17.5175 N   0  0  0  0  0  0  0  0  0  0  0  0
    7.1010    0.0095   18.5667 C   0  0  0  0  0  0  0  0  0  0  0  0
    7.9995   -0.5802   18.3846 H   0  0  0  0  0  0  0  0  0  0  0  0
    5.0241    1.8301   16.8334 H   0  0  0  0  0  0  0  0  0  0  0  0
    3.8472    1.9566   19.0284 H   0  0  0  0  0  0  0  0  0  0  0  0
    4.8701    0.7908   21.0331 H   0  0  0  0  0  0  0  0  0  0  0  0
    7.4597   -0.2263   22.2194 C   0  0  0  0  0  0  0  0  0  0  0  0
    7.2981    1.1500   22.8061 C   0  0  0  0  0  0  0  0  0  0  0  0
    8.5931    1.6233   23.4615 C   0  0  0  0  0  0  0  0  0  0  0  0
    8.8487    1.4246   24.8282 C   0  0  0  0  0  0  0  0  0  0  0  0
    7.5969    0.8276   25.8875 Cl  0  0  0  0  0  0  0  0  0  0  0  0
   10.1011    1.6815   25.3929 C   0  0  0  0  0  0  0  0  0  0  0  0
   11.0967    2.2472   24.5992 C   0  0  0  0  0  0  0  0  0  0  0  0
   10.8646    2.4716   23.2429 C   0  0  0  0  0  0  0  0  0  0  0  0
    9.6396    2.1280   22.6575 C   0  0  0  0  0  0  0  0  0  0  0  0
    9.4676    2.2872   21.1710 C   0  0  0  0  0  0  0  0  0  0  0  0
   10.4118    2.5648   20.7040 H   0  0  0  0  0  0  0  0  0  0  0  0
    9.1152    1.3686   20.6871 H   0  0  0  0  0  0  0  0  0  0  0  0
    8.7375    3.0649   20.9332 H   0  0  0  0  0  0  0  0  0  0  0  0
   11.6494    2.9130   22.6306 H   0  0  0  0  0  0  0  0  0  0  0  0
   12.0596    2.5184   25.0124 H   0  0  0  0  0  0  0  0  0  0  0  0
   10.2661    1.4027   26.4264 H   0  0  0  0  0  0  0  0  0  0  0  0
    7.0007    1.8428   22.0145 H   0  0  0  0  0  0  0  0  0  0  0  0
    6.4964    1.1156   23.5463 H   0  0  0  0  0  0  0  0  0  0  0  0
    7.9932   -1.2505   22.8626 N   0  0  0  0  0  0  0  0  0  0  0  0
    8.7683   -4.0190   21.1808 H   0  0  0  0  0  0  0  0  0  0  0  0
    9.6871   -3.4449   22.6101 H   0  0  0  0  0  0  0  0  0  0  0  0
    7.5302   -3.8014   23.9511 H   0  0  0  0  0  0  0  0  0  0  0  0
    5.2056   -3.3559   23.1794 H   0  0  0  0  0  0  0  0  0  0  0  0
    5.1744   -5.0717   23.6833 H   0  0  0  0  0  0  0  0  0  0  0  0
    4.6310   -4.6055   22.0528 H   0  0  0  0  0  0  0  0  0  0  0  0
  1  2  1  0
  2  3  1  0
  3  4  1  0
  4  5  1  0
  4  6  1  0
  4  7  1  0
  3  8  1  0
  8  9  1  0
  9 10  2  0
 10 11  1  0
 11 12  1  0
 12 13  2  0
 13 14  1  0
 14 15  2  0
 15 16  1  0
 16 17  2  0
 17 18  1  0
 15 19  1  0
 14 20  1  0
 13 21  1  0
 11 22  1  0
 22 23  1  0
 23 24  1  0
 24 25  2  0
 25 26  1  0
 25 27  1  0
 27 28  2  0
 28 29  1  0
 29 30  2  0
 30 31  1  0
 31 32  1  0
 31 33  1  0
 31 34  1  0
 29 35  1  0
 28 36  1  0
 27 37  1  0
 23 38  1  0
 23 39  1  0
 22 40  2  0
  8 41  1  0
  8 42  1  0
  3 43  1  0
  1 44  1  0
  1 45  1  0
  1 46  1  0
 40  9  1  0
 17 12  1  0
 30 24  1  0
M  END
>  <cnnaffinity>  (1) 
-6.15621

>  <filename>  (1) 
COC(C)Cc1nc(Cc2c(C)cccc2Cl)n(-c2cccnc2)n1

$$$$
