
     RDKit          3D

 47 49  0  0  0  0  0  0  0  0999 V2000
    8.2189   -5.0696   23.0083 C   0  0  0  0  0  0  0  0  0  0  0  0
    7.9683   -4.1137   24.0185 O   0  0  0  0  0  0  0  0  0  0  0  0
    7.0721   -3.0657   23.7061 C   0  0  0  0  0  0  0  0  0  0  0  0
    6.9632   -2.2182   24.9842 C   0  0  0  0  0  0  0  0  0  0  0  0
    7.9170   -1.6998   25.1573 H   0  0  0  0  0  0  0  0  0  0  0  0
    6.1697   -1.4680   24.8869 H   0  0  0  0  0  0  0  0  0  0  0  0
    6.7628   -2.8682   25.8409 H   0  0  0  0  0  0  0  0  0  0  0  0
    7.4858   -2.1776   22.5414 C   0  0  0  0  0  0  0  0  0  0  0  0
    6.5956   -1.6740   21.7108 N   0  0  0  0  0  0  0  0  0  0  0  0
    7.3162   -0.7815   20.9794 N   0  0  0  0  0  0  0  0  0  0  0  0
    6.6806   -0.0715   19.9205 C   0  0  0  0  0  0  0  0  0  0  0  0
    5.4866    0.6135   20.1732 C   0  0  0  0  0  0  0  0  0  0  0  0
    4.8981    1.3276   19.1306 C   0  0  0  0  0  0  0  0  0  0  0  0
    5.4936    1.2973   17.8634 C   0  0  0  0  0  0  0  0  0  0  0  0
    6.6185    0.6109   17.6042 N   0  0  0  0  0  0  0  0  0  0  0  0
    7.1935   -0.0545   18.6130 C   0  0  0  0  0  0  0  0  0  0  0  0
    8.1002   -0.6088   18.3709 H   0  0  0  0  0  0  0  0  0  0  0  0
    5.0478    1.8292   17.0260 H   0  0  0  0  0  0  0  0  0  0  0  0
    3.9954    1.9091   19.2884 H   0  0  0  0  0  0  0  0  0  0  0  0
    5.0568    0.5836   21.1753 H   0  0  0  0  0  0  0  0  0  0  0  0
    8.5945   -0.7635   21.4563 C   0  0  0  0  0  0  0  0  0  0  0  0
    9.6018    0.3168   21.1731 C   0  0  0  0  0  0  0  0  0  0  0  0
    9.3261    1.5758   21.8998 N   0  0  0  0  0  0  0  0  0  0  0  0
    8.5440    2.5974   21.1934 C   0  0  0  0  0  0  0  0  0  0  0  0
    7.9689    3.7117   22.0732 C   0  0  0  0  0  0  0  0  0  0  0  0
    6.5771    3.3801   22.5996 C   0  0  0  0  0  0  0  0  0  0  0  0
    5.6767    3.3057   21.5942 F   0  0  0  0  0  0  0  0  0  0  0  0
    6.5054    2.2136   23.2743 F   0  0  0  0  0  0  0  0  0  0  0  0
    6.1303    4.3399   23.4312 F   0  0  0  0  0  0  0  0  0  0  0  0
    8.9766    4.1066   23.1605 C   0  0  0  0  0  0  0  0  0  0  0  0
    9.3818    2.8899   23.9868 C   0  0  0  0  0  0  0  0  0  0  0  0
    9.8628    1.7192   23.1647 C   0  0  0  0  0  0  0  0  0  0  0  0
   10.6554    0.9182   23.6387 O   0  0  0  0  0  0  0  0  0  0  0  0
    8.5357    2.4933   24.5560 H   0  0  0  0  0  0  0  0  0  0  0  0
   10.1868    3.0949   24.6912 H   0  0  0  0  0  0  0  0  0  0  0  0
    8.5647    4.8894   23.8047 H   0  0  0  0  0  0  0  0  0  0  0  0
    9.8607    4.5375   22.6706 H   0  0  0  0  0  0  0  0  0  0  0  0
    7.7653    4.5840   21.4382 H   0  0  0  0  0  0  0  0  0  0  0  0
    9.1921    3.0630   20.4548 H   0  0  0  0  0  0  0  0  0  0  0  0
    7.7448    2.1130   20.6243 H   0  0  0  0  0  0  0  0  0  0  0  0
    9.6424    0.4979   20.0974 H   0  0  0  0  0  0  0  0  0  0  0  0
   10.5769   -0.0610   21.5026 H   0  0  0  0  0  0  0  0  0  0  0  0
    8.7383   -1.6768   22.3976 N   0  0  0  0  0  0  0  0  0  0  0  0
    6.0842   -3.4669   23.4213 H   0  0  0  0  0  0  0  0  0  0  0  0
    7.3219   -5.6641   22.7731 H   0  0  0  0  0  0  0  0  0  0  0  0
    8.5980   -4.5931   22.0928 H   0  0  0  0  0  0  0  0  0  0  0  0
    8.9844   -5.7334   23.4182 H   0  0  0  0  0  0  0  0  0  0  0  0
  1  2  1  0
  2  3  1  0
  3  4  1  0
  4  5  1  0
  4  6  1  0
  4  7  1  0
  3  8  1  0
  8  9  2  0
  9 10  1  0
 10 11  1  0
 11 12  2  0
 12 13  1  0
 13 14  2  0
 14 15  1  0
 15 16  2  0
 16 17  1  0
 14 18  1  0
 13 19  1  0
 12 20  1  0
 10 21  1  0
 21 22  1  0
 22 23  1  0
 23 24  1  0
 24 25  1  0
 25 26  1  0
 26 27  1  0
 26 28  1  0
 26 29  1  0
 25 30  1  0
 30 31  1  0
 31 32  1  0
 32 33  2  0
 31 34  1  0
 31 35  1  0
 30 36  1  0
 30 37  1  0
 25 38  1  0
 24 39  1  0
 24 40  1  0
 22 41  1  0
 22 42  1  0
 21 43  2  0
  3 44  1  0
  1 45  1  0
  1 46  1  0
  1 47  1  0
 43  8  1  0
 16 11  1  0
 32 23  1  0
M  END
>  <cnnaffinity>  (1) 
-5.70135

>  <filename>  (1) 
COC(C)c1nc(CN2CC(C(F)(F)F)CCC2=O)n(-c2cccnc2)n1

$$$$
