
     RDKit          3D

 51 53  0  0  0  0  0  0  0  0999 V2000
   11.6123    5.4212   22.8261 C   0  0  0  0  0  0  0  0  0  0  0  0
   10.6773    4.3424   22.9030 O   0  0  0  0  0  0  0  0  0  0  0  0
    9.3875    4.6899   23.1496 C   0  0  0  0  0  0  0  0  0  0  0  0
    9.0240    5.8314   23.3664 O   0  0  0  0  0  0  0  0  0  0  0  0
    8.5503    3.6073   23.1580 N   0  0  0  0  0  0  0  0  0  0  0  0
    7.1299    3.8534   23.3911 C   0  0  0  0  0  0  0  0  0  0  0  0
    6.5929    2.9043   23.2857 H   0  0  0  0  0  0  0  0  0  0  0  0
    6.9532    4.2460   24.4002 H   0  0  0  0  0  0  0  0  0  0  0  0
    6.7183    4.5702   22.6695 H   0  0  0  0  0  0  0  0  0  0  0  0
    8.9915    2.2599   22.8174 C   0  0  0  0  0  0  0  0  0  0  0  0
    9.0548    2.0377   21.3069 C   0  0  0  0  0  0  0  0  0  0  0  0
    9.5352    0.6186   20.9404 C   0  0  0  0  0  0  0  0  0  0  0  0
    8.6346   -0.4651   21.4314 C   0  0  0  0  0  0  0  0  0  0  0  0
    8.8611   -1.2854   22.4393 N   0  0  0  0  0  0  0  0  0  0  0  0
    7.6814   -1.9441   22.5681 C   0  0  0  0  0  0  0  0  0  0  0  0
    7.4342   -2.9270   23.6729 C   0  0  0  0  0  0  0  0  0  0  0  0
    6.5497   -2.3012   24.7915 C   0  0  0  0  0  0  0  0  0  0  0  0
    6.0716   -3.3247   25.7940 C   0  0  0  0  0  0  0  0  0  0  0  0
    6.0795   -4.6396   25.5626 C   0  0  0  0  0  0  0  0  0  0  0  0
    6.6426   -5.2587   24.3012 C   0  0  0  0  0  0  0  0  0  0  0  0
    6.8001   -4.2407   23.1582 C   0  0  0  0  0  0  0  0  0  0  0  0
    5.8239   -3.9980   22.7123 H   0  0  0  0  0  0  0  0  0  0  0  0
    7.4136   -4.6711   22.3570 H   0  0  0  0  0  0  0  0  0  0  0  0
    7.6197   -5.7110   24.5368 H   0  0  0  0  0  0  0  0  0  0  0  0
    6.0096   -6.0950   23.9786 H   0  0  0  0  0  0  0  0  0  0  0  0
    5.6870   -5.3253   26.3159 H   0  0  0  0  0  0  0  0  0  0  0  0
    5.6772   -2.9363   26.7345 H   0  0  0  0  0  0  0  0  0  0  0  0
    5.6757   -1.8132   24.3362 H   0  0  0  0  0  0  0  0  0  0  0  0
    7.0954   -1.4973   25.3042 H   0  0  0  0  0  0  0  0  0  0  0  0
    8.4269   -3.1412   24.0902 H   0  0  0  0  0  0  0  0  0  0  0  0
    6.7502   -1.5932   21.6984 N   0  0  0  0  0  0  0  0  0  0  0  0
    7.3738   -0.6550   20.9462 N   0  0  0  0  0  0  0  0  0  0  0  0
    6.6667    0.0101   19.9051 C   0  0  0  0  0  0  0  0  0  0  0  0
    5.4439    0.6390   20.1648 C   0  0  0  0  0  0  0  0  0  0  0  0
    4.8132    1.3061   19.1101 C   0  0  0  0  0  0  0  0  0  0  0  0
    5.4002    1.2946   17.8386 C   0  0  0  0  0  0  0  0  0  0  0  0
    6.5569    0.6689   17.5779 N   0  0  0  0  0  0  0  0  0  0  0  0
    7.1696    0.0499   18.5920 C   0  0  0  0  0  0  0  0  0  0  0  0
    8.1115   -0.4427   18.3601 H   0  0  0  0  0  0  0  0  0  0  0  0
    4.9279    1.7953   16.9959 H   0  0  0  0  0  0  0  0  0  0  0  0
    3.8806    1.8372   19.2581 H   0  0  0  0  0  0  0  0  0  0  0  0
    5.0173    0.5990   21.1676 H   0  0  0  0  0  0  0  0  0  0  0  0
   10.5318    0.4246   21.3513 H   0  0  0  0  0  0  0  0  0  0  0  0
    9.6040    0.5274   19.8552 H   0  0  0  0  0  0  0  0  0  0  0  0
    9.7444    2.7683   20.8771 H   0  0  0  0  0  0  0  0  0  0  0  0
    8.0644    2.2221   20.8641 H   0  0  0  0  0  0  0  0  0  0  0  0
    9.9628    2.0540   23.2846 H   0  0  0  0  0  0  0  0  0  0  0  0
    8.2743    1.5597   23.2674 H   0  0  0  0  0  0  0  0  0  0  0  0
   12.5697    4.9616   22.5806 H   0  0  0  0  0  0  0  0  0  0  0  0
   11.3039    6.1183   22.0429 H   0  0  0  0  0  0  0  0  0  0  0  0
   11.6791    5.9540   23.7813 H   0  0  0  0  0  0  0  0  0  0  0  0
  1  2  1  0
  2  3  1  0
  3  4  2  0
  3  5  1  0
  5  6  1  0
  6  7  1  0
  6  8  1  0
  6  9  1  0
  5 10  1  0
 10 11  1  0
 11 12  1  0
 12 13  1  0
 13 14  2  0
 14 15  1  0
 15 16  1  0
 16 17  1  0
 17 18  1  0
 18 19  2  0
 19 20  1  0
 20 21  1  0
 21 22  1  0
 21 23  1  0
 20 24  1  0
 20 25  1  0
 19 26  1  0
 18 27  1  0
 17 28  1  0
 17 29  1  0
 16 30  1  0
 15 31  2  0
 31 32  1  0
 32 33  1  0
 33 34  2  0
 34 35  1  0
 35 36  2  0
 36 37  1  0
 37 38  2  0
 38 39  1  0
 36 40  1  0
 35 41  1  0
 34 42  1  0
 12 43  1  0
 12 44  1  0
 11 45  1  0
 11 46  1  0
 10 47  1  0
 10 48  1  0
  1 49  1  0
  1 50  1  0
  1 51  1  0
 32 13  1  0
 38 33  1  0
 21 16  1  0
M  END
>  <cnnaffinity>  (1) 
-6.02722

>  <filename>  (1) 
COC(=O)N(C)CCCc1nc(C2CC=CCC2)nn1-c1cccnc1

$$$$
