
     RDKit          3D

 42 44  0  0  0  0  0  0  0  0999 V2000
    7.2479   -6.8505   22.3664 C   0  0  0  0  0  0  0  0  0  0  0  0
    8.0800   -5.7189   22.4664 O   0  0  0  0  0  0  0  0  0  0  0  0
    7.4304   -4.4614   22.5447 C   0  0  0  0  0  0  0  0  0  0  0  0
    6.9215   -4.1866   23.9558 C   0  0  0  0  0  0  0  0  0  0  0  0
    6.5310   -3.1683   24.0414 H   0  0  0  0  0  0  0  0  0  0  0  0
    7.7505   -4.2972   24.6630 H   0  0  0  0  0  0  0  0  0  0  0  0
    6.1304   -4.8823   24.2509 H   0  0  0  0  0  0  0  0  0  0  0  0
    8.5135   -3.4652   22.1156 C   0  0  0  0  0  0  0  0  0  0  0  0
    7.9992   -2.0884   21.9267 C   0  0  0  0  0  0  0  0  0  0  0  0
    7.5539   -1.6973   20.7549 N   0  0  0  0  0  0  0  0  0  0  0  0
    7.1122   -0.4348   20.9887 N   0  0  0  0  0  0  0  0  0  0  0  0
    6.4718    0.2500   19.9193 C   0  0  0  0  0  0  0  0  0  0  0  0
    5.2592    0.9438   20.0314 C   0  0  0  0  0  0  0  0  0  0  0  0
    4.7179    1.4991   18.8622 C   0  0  0  0  0  0  0  0  0  0  0  0
    5.4050    1.3622   17.6544 C   0  0  0  0  0  0  0  0  0  0  0  0
    6.5578    0.6804   17.5408 N   0  0  0  0  0  0  0  0  0  0  0  0
    7.0577    0.1272   18.6461 C   0  0  0  0  0  0  0  0  0  0  0  0
    7.9749   -0.4491   18.5440 H   0  0  0  0  0  0  0  0  0  0  0  0
    5.0192    1.8065   16.7377 H   0  0  0  0  0  0  0  0  0  0  0  0
    3.7850    2.0519   18.8828 H   0  0  0  0  0  0  0  0  0  0  0  0
    4.7405    1.0339   20.9869 H   0  0  0  0  0  0  0  0  0  0  0  0
    7.3842   -0.1097   22.2860 C   0  0  0  0  0  0  0  0  0  0  0  0
    7.2399    1.2508   22.8997 C   0  0  0  0  0  0  0  0  0  0  0  0
    8.5406    1.7274   23.5387 C   0  0  0  0  0  0  0  0  0  0  0  0
    8.7460    1.6174   24.9169 C   0  0  0  0  0  0  0  0  0  0  0  0
   10.0098    1.8867   25.4494 C   0  0  0  0  0  0  0  0  0  0  0  0
   11.0246    2.3045   24.5908 C   0  0  0  0  0  0  0  0  0  0  0  0
   10.8579    2.4288   23.2688 N   0  0  0  0  0  0  0  0  0  0  0  0
    9.6637    2.1348   22.7825 C   0  0  0  0  0  0  0  0  0  0  0  0
    9.5174    2.2340   21.0619 Cl  0  0  0  0  0  0  0  0  0  0  0  0
   12.0125    2.5539   24.9701 H   0  0  0  0  0  0  0  0  0  0  0  0
   10.2100    1.7432   26.4968 H   0  0  0  0  0  0  0  0  0  0  0  0
    7.9175    1.3111   25.5593 H   0  0  0  0  0  0  0  0  0  0  0  0
    6.4625    1.1709   23.6666 H   0  0  0  0  0  0  0  0  0  0  0  0
    6.9049    1.9670   22.1409 H   0  0  0  0  0  0  0  0  0  0  0  0
    7.9147   -1.1574   22.9070 N   0  0  0  0  0  0  0  0  0  0  0  0
    9.3287   -3.4821   22.8462 H   0  0  0  0  0  0  0  0  0  0  0  0
    8.8924   -3.7785   21.1455 H   0  0  0  0  0  0  0  0  0  0  0  0
    6.5877   -4.4350   21.8277 H   0  0  0  0  0  0  0  0  0  0  0  0
    7.9051   -7.7251   22.4090 H   0  0  0  0  0  0  0  0  0  0  0  0
    6.6912   -6.8697   21.4177 H   0  0  0  0  0  0  0  0  0  0  0  0
    6.5146   -6.9129   23.1825 H   0  0  0  0  0  0  0  0  0  0  0  0
  1  2  1  0
  2  3  1  0
  3  4  1  0
  4  5  1  0
  4  6  1  0
  4  7  1  0
  3  8  1  0
  8  9  1  0
  9 10  2  0
 10 11  1  0
 11 12  1  0
 12 13  2  0
 13 14  1  0
 14 15  2  0
 15 16  1  0
 16 17  2  0
 17 18  1  0
 15 19  1  0
 14 20  1  0
 13 21  1  0
 11 22  1  0
 22 23  1  0
 23 24  1  0
 24 25  2  0
 25 26  1  0
 26 27  2  0
 27 28  1  0
 28 29  2  0
 29 30  1  0
 27 31  1  0
 26 32  1  0
 25 33  1  0
 23 34  1  0
 23 35  1  0
 22 36  2  0
  8 37  1  0
  8 38  1  0
  3 39  1  0
  1 40  1  0
  1 41  1  0
  1 42  1  0
 36  9  1  0
 17 12  1  0
 29 24  1  0
M  END
>  <cnnaffinity>  (1) 
-5.81618

>  <filename>  (1) 
COC(C)Cc1nc(Cc2cccnc2Cl)n(-c2cccnc2)n1

$$$$
