
     RDKit          3D

 42 44  0  0  0  0  0  0  0  0999 V2000
    7.9761    0.1020   25.3051 C   0  0  0  0  0  0  0  0  0  0  0  0
    8.1504   -1.2956   25.2928 O   0  0  0  0  0  0  0  0  0  0  0  0
    7.0241   -2.0887   24.9745 C   0  0  0  0  0  0  0  0  0  0  0  0
    6.7108   -2.9850   26.1628 C   0  0  0  0  0  0  0  0  0  0  0  0
    6.5046   -2.3749   27.0475 H   0  0  0  0  0  0  0  0  0  0  0  0
    5.8324   -3.6044   25.9539 H   0  0  0  0  0  0  0  0  0  0  0  0
    7.5582   -3.6404   26.3905 H   0  0  0  0  0  0  0  0  0  0  0  0
    7.3507   -2.9015   23.7130 C   0  0  0  0  0  0  0  0  0  0  0  0
    7.5854   -1.9957   22.5710 C   0  0  0  0  0  0  0  0  0  0  0  0
    6.6339   -1.5893   21.7540 N   0  0  0  0  0  0  0  0  0  0  0  0
    7.2865   -0.7092   20.9457 N   0  0  0  0  0  0  0  0  0  0  0  0
    6.6178   -0.0369   19.8923 C   0  0  0  0  0  0  0  0  0  0  0  0
    5.4123    0.6251   20.1492 C   0  0  0  0  0  0  0  0  0  0  0  0
    4.7965    1.3129   19.1017 C   0  0  0  0  0  0  0  0  0  0  0  0
    5.3947    1.2957   17.8351 C   0  0  0  0  0  0  0  0  0  0  0  0
    6.5400    0.6468   17.5759 N   0  0  0  0  0  0  0  0  0  0  0  0
    7.1377    0.0089   18.5839 C   0  0  0  0  0  0  0  0  0  0  0  0
    8.0895   -0.4663   18.3460 H   0  0  0  0  0  0  0  0  0  0  0  0
    4.9435    1.8182   16.9946 H   0  0  0  0  0  0  0  0  0  0  0  0
    3.8698    1.8604   19.2496 H   0  0  0  0  0  0  0  0  0  0  0  0
    4.9980    0.5865   21.1571 H   0  0  0  0  0  0  0  0  0  0  0  0
    8.5798   -0.6037   21.3669 C   0  0  0  0  0  0  0  0  0  0  0  0
    9.6373    0.2982   20.8290 C   0  0  0  0  0  0  0  0  0  0  0  0
   10.2540    1.1613   21.9150 C   0  0  0  0  0  0  0  0  0  0  0  0
    9.5828    2.2574   22.4921 C   0  0  0  0  0  0  0  0  0  0  0  0
    8.0282    2.7570   21.8847 Cl  0  0  0  0  0  0  0  0  0  0  0  0
   10.1280    2.9340   23.5964 C   0  0  0  0  0  0  0  0  0  0  0  0
   11.2973    2.5711   24.1507 N   0  0  0  0  0  0  0  0  0  0  0  0
   11.9664    1.5390   23.6121 C   0  0  0  0  0  0  0  0  0  0  0  0
   11.4799    0.8336   22.5079 C   0  0  0  0  0  0  0  0  0  0  0  0
   12.2037   -0.1932   22.0257 F   0  0  0  0  0  0  0  0  0  0  0  0
   12.9084    1.2320   24.0648 H   0  0  0  0  0  0  0  0  0  0  0  0
    9.5927    3.7683   24.0537 H   0  0  0  0  0  0  0  0  0  0  0  0
    9.2121    0.9137   20.0374 H   0  0  0  0  0  0  0  0  0  0  0  0
   10.3847   -0.3704   20.3947 H   0  0  0  0  0  0  0  0  0  0  0  0
    8.7960   -1.4348   22.3619 N   0  0  0  0  0  0  0  0  0  0  0  0
    6.5237   -3.5654   23.4535 H   0  0  0  0  0  0  0  0  0  0  0  0
    8.2705   -3.4684   23.8781 H   0  0  0  0  0  0  0  0  0  0  0  0
    6.1500   -1.4462   24.7679 H   0  0  0  0  0  0  0  0  0  0  0  0
    7.2201    0.4183   26.0416 H   0  0  0  0  0  0  0  0  0  0  0  0
    7.6890    0.4901   24.3148 H   0  0  0  0  0  0  0  0  0  0  0  0
    8.9405    0.5303   25.5910 H   0  0  0  0  0  0  0  0  0  0  0  0
  1  2  1  0
  2  3  1  0
  3  4  1  0
  4  5  1  0
  4  6  1  0
  4  7  1  0
  3  8  1  0
  8  9  1  0
  9 10  2  0
 10 11  1  0
 11 12  1  0
 12 13  2  0
 13 14  1  0
 14 15  2  0
 15 16  1  0
 16 17  2  0
 17 18  1  0
 15 19  1  0
 14 20  1  0
 13 21  1  0
 11 22  1  0
 22 23  1  0
 23 24  1  0
 24 25  2  0
 25 26  1  0
 25 27  1  0
 27 28  2  0
 28 29  1  0
 29 30  2  0
 30 31  1  0
 29 32  1  0
 27 33  1  0
 23 34  1  0
 23 35  1  0
 22 36  2  0
  8 37  1  0
  8 38  1  0
  3 39  1  0
  1 40  1  0
  1 41  1  0
  1 42  1  0
 36  9  1  0
 17 12  1  0
 30 24  1  0
M  END
>  <cnnaffinity>  (1) 
-6.7111

>  <filename>  (1) 
COC(C)Cc1nc(Cc2c(F)cncc2Cl)n(-c2cccnc2)n1

$$$$
