
     RDKit          3D

 43 45  0  0  0  0  0  0  0  0999 V2000
    6.7218   -5.0970   23.9600 C   0  0  0  0  0  0  0  0  0  0  0  0
    6.4520   -3.8282   23.4126 O   0  0  0  0  0  0  0  0  0  0  0  0
    7.3884   -2.8196   23.7499 C   0  0  0  0  0  0  0  0  0  0  0  0
    6.8841   -2.0178   24.9636 C   0  0  0  0  0  0  0  0  0  0  0  0
    6.7011   -2.6792   25.8165 H   0  0  0  0  0  0  0  0  0  0  0  0
    5.9466   -1.5163   24.7027 H   0  0  0  0  0  0  0  0  0  0  0  0
    7.6227   -1.2637   25.2583 H   0  0  0  0  0  0  0  0  0  0  0  0
    7.6528   -1.9247   22.5642 C   0  0  0  0  0  0  0  0  0  0  0  0
    6.7232   -1.5493   21.7094 N   0  0  0  0  0  0  0  0  0  0  0  0
    7.3724   -0.6507   20.9321 N   0  0  0  0  0  0  0  0  0  0  0  0
    6.6658    0.0178   19.8959 C   0  0  0  0  0  0  0  0  0  0  0  0
    5.4447    0.6446   20.1643 C   0  0  0  0  0  0  0  0  0  0  0  0
    4.8143    1.3104   19.1086 C   0  0  0  0  0  0  0  0  0  0  0  0
    5.3993    1.2983   17.8346 C   0  0  0  0  0  0  0  0  0  0  0  0
    6.5554    0.6722   17.5682 N   0  0  0  0  0  0  0  0  0  0  0  0
    7.1675    0.0551   18.5851 C   0  0  0  0  0  0  0  0  0  0  0  0
    8.1106   -0.4342   18.3603 H   0  0  0  0  0  0  0  0  0  0  0  0
    4.9232    1.7907   16.9903 H   0  0  0  0  0  0  0  0  0  0  0  0
    3.8812    1.8375   19.2602 H   0  0  0  0  0  0  0  0  0  0  0  0
    5.0201    0.5995   21.1732 H   0  0  0  0  0  0  0  0  0  0  0  0
    8.6515   -0.4969   21.3953 C   0  0  0  0  0  0  0  0  0  0  0  0
    9.5364    0.6134   20.9384 C   0  0  0  0  0  0  0  0  0  0  0  0
    9.0574    2.0138   21.4178 C   0  0  0  0  0  0  0  0  0  0  0  0
    8.9041    2.0838   22.9219 C   0  0  0  0  0  0  0  0  0  0  0  0
    7.6557    1.8470   23.5274 C   0  0  0  0  0  0  0  0  0  0  0  0
    7.4951    1.8083   24.9146 C   0  0  0  0  0  0  0  0  0  0  0  0
    8.6100    1.9747   25.7417 C   0  0  0  0  0  0  0  0  0  0  0  0
    9.8697    2.1419   25.1689 C   0  0  0  0  0  0  0  0  0  0  0  0
   10.0028    2.2234   23.7826 C   0  0  0  0  0  0  0  0  0  0  0  0
   11.6101    2.4726   23.1502 Cl  0  0  0  0  0  0  0  0  0  0  0  0
   10.7699    2.1302   25.7653 H   0  0  0  0  0  0  0  0  0  0  0  0
    8.5157    1.9519   26.8254 H   0  0  0  0  0  0  0  0  0  0  0  0
    6.5183    1.6055   25.3488 H   0  0  0  0  0  0  0  0  0  0  0  0
    6.8070    1.6587   22.8786 H   0  0  0  0  0  0  0  0  0  0  0  0
    8.0936    2.2498   20.9494 H   0  0  0  0  0  0  0  0  0  0  0  0
    9.7763    2.7680   21.0804 H   0  0  0  0  0  0  0  0  0  0  0  0
   10.5383    0.3982   21.3147 H   0  0  0  0  0  0  0  0  0  0  0  0
    9.5852    0.6035   19.8475 H   0  0  0  0  0  0  0  0  0  0  0  0
    8.8645   -1.3221   22.4033 N   0  0  0  0  0  0  0  0  0  0  0  0
    8.3735   -3.2526   23.9835 H   0  0  0  0  0  0  0  0  0  0  0  0
    6.8014   -5.0700   25.0587 H   0  0  0  0  0  0  0  0  0  0  0  0
    5.8828   -5.7317   23.6702 H   0  0  0  0  0  0  0  0  0  0  0  0
    7.6584   -5.5181   23.5586 H   0  0  0  0  0  0  0  0  0  0  0  0
  1  2  1  0
  2  3  1  0
  3  4  1  0
  4  5  1  0
  4  6  1  0
  4  7  1  0
  3  8  1  0
  8  9  2  0
  9 10  1  0
 10 11  1  0
 11 12  2  0
 12 13  1  0
 13 14  2  0
 14 15  1  0
 15 16  2  0
 16 17  1  0
 14 18  1  0
 13 19  1  0
 12 20  1  0
 10 21  1  0
 21 22  1  0
 22 23  1  0
 23 24  1  0
 24 25  2  0
 25 26  1  0
 26 27  2  0
 27 28  1  0
 28 29  2  0
 29 30  1  0
 28 31  1  0
 27 32  1  0
 26 33  1  0
 25 34  1  0
 23 35  1  0
 23 36  1  0
 22 37  1  0
 22 38  1  0
 21 39  2  0
  3 40  1  0
  1 41  1  0
  1 42  1  0
  1 43  1  0
 39  8  1  0
 16 11  1  0
 29 24  1  0
M  END
>  <cnnaffinity>  (1) 
-5.83556

>  <filename>  (1) 
COC(C)c1nc(CCc2ccccc2Cl)n(-c2cccnc2)n1

$$$$
