
     RDKit          3D

 42 44  0  0  0  0  0  0  0  0999 V2000
    7.3822   -6.8532   22.2503 C   0  0  0  0  0  0  0  0  0  0  0  0
    8.2098   -5.7338   22.4568 O   0  0  0  0  0  0  0  0  0  0  0  0
    7.5462   -4.4839   22.5292 C   0  0  0  0  0  0  0  0  0  0  0  0
    6.9624   -4.2492   23.9205 C   0  0  0  0  0  0  0  0  0  0  0  0
    6.1980   -5.0013   24.1464 H   0  0  0  0  0  0  0  0  0  0  0  0
    6.4981   -3.2591   23.9764 H   0  0  0  0  0  0  0  0  0  0  0  0
    7.7417   -4.3183   24.6914 H   0  0  0  0  0  0  0  0  0  0  0  0
    8.6335   -3.4841   22.1389 C   0  0  0  0  0  0  0  0  0  0  0  0
    8.1416   -2.0982   21.9697 C   0  0  0  0  0  0  0  0  0  0  0  0
    7.7199   -1.7082   20.7885 N   0  0  0  0  0  0  0  0  0  0  0  0
    7.2330   -0.4655   21.0223 N   0  0  0  0  0  0  0  0  0  0  0  0
    6.5578    0.1728   19.9523 C   0  0  0  0  0  0  0  0  0  0  0  0
    5.3302    0.8231   20.1096 C   0  0  0  0  0  0  0  0  0  0  0  0
    4.7622    1.4140   18.9767 C   0  0  0  0  0  0  0  0  0  0  0  0
    5.4297    1.3308   17.7513 C   0  0  0  0  0  0  0  0  0  0  0  0
    6.5800    0.6486   17.5880 N   0  0  0  0  0  0  0  0  0  0  0  0
    7.1070    0.0607   18.6613 C   0  0  0  0  0  0  0  0  0  0  0  0
    8.0042   -0.5410   18.5115 H   0  0  0  0  0  0  0  0  0  0  0  0
    5.0093    1.7826   16.8573 H   0  0  0  0  0  0  0  0  0  0  0  0
    3.8085    1.9269   19.0333 H   0  0  0  0  0  0  0  0  0  0  0  0
    4.8328    0.8279   21.0802 H   0  0  0  0  0  0  0  0  0  0  0  0
    7.4787   -0.1336   22.3255 C   0  0  0  0  0  0  0  0  0  0  0  0
    7.3059    1.2250   22.9601 C   0  0  0  0  0  0  0  0  0  0  0  0
    8.6091    1.7339   23.5724 C   0  0  0  0  0  0  0  0  0  0  0  0
    8.8884    1.6815   24.9446 C   0  0  0  0  0  0  0  0  0  0  0  0
   10.0730    1.9739   25.4919 N   0  0  0  0  0  0  0  0  0  0  0  0
   11.0511    2.3708   24.6729 C   0  0  0  0  0  0  0  0  0  0  0  0
   10.8997    2.5204   23.3022 C   0  0  0  0  0  0  0  0  0  0  0  0
    9.6654    2.1680   22.7646 C   0  0  0  0  0  0  0  0  0  0  0  0
    9.4574    2.2457   21.0563 Cl  0  0  0  0  0  0  0  0  0  0  0  0
   11.6914    2.9171   22.6789 H   0  0  0  0  0  0  0  0  0  0  0  0
   12.0087    2.5931   25.1350 H   0  0  0  0  0  0  0  0  0  0  0  0
    8.1037    1.3822   25.6388 H   0  0  0  0  0  0  0  0  0  0  0  0
    6.5416    1.1588   23.7414 H   0  0  0  0  0  0  0  0  0  0  0  0
    6.9579    1.9413   22.2079 H   0  0  0  0  0  0  0  0  0  0  0  0
    8.0238   -1.1711   22.9496 N   0  0  0  0  0  0  0  0  0  0  0  0
    8.9687   -3.7778   21.1480 H   0  0  0  0  0  0  0  0  0  0  0  0
    9.4591   -3.5385   22.8502 H   0  0  0  0  0  0  0  0  0  0  0  0
    6.7317   -4.4460   21.7750 H   0  0  0  0  0  0  0  0  0  0  0  0
    6.9462   -6.8394   21.2383 H   0  0  0  0  0  0  0  0  0  0  0  0
    6.5583   -6.9200   22.9798 H   0  0  0  0  0  0  0  0  0  0  0  0
    8.0261   -7.7302   22.3653 H   0  0  0  0  0  0  0  0  0  0  0  0
  1  2  1  0
  2  3  1  0
  3  4  1  0
  4  5  1  0
  4  6  1  0
  4  7  1  0
  3  8  1  0
  8  9  1  0
  9 10  2  0
 10 11  1  0
 11 12  1  0
 12 13  2  0
 13 14  1  0
 14 15  2  0
 15 16  1  0
 16 17  2  0
 17 18  1  0
 15 19  1  0
 14 20  1  0
 13 21  1  0
 11 22  1  0
 22 23  1  0
 23 24  1  0
 24 25  2  0
 25 26  1  0
 26 27  2  0
 27 28  1  0
 28 29  2  0
 29 30  1  0
 28 31  1  0
 27 32  1  0
 25 33  1  0
 23 34  1  0
 23 35  1  0
 22 36  2  0
  8 37  1  0
  8 38  1  0
  3 39  1  0
  1 40  1  0
  1 41  1  0
  1 42  1  0
 36  9  1  0
 17 12  1  0
 29 24  1  0
M  END
>  <cnnaffinity>  (1) 
-6.06726

>  <filename>  (1) 
COC(C)Cc1nc(Cc2cnccc2Cl)n(-c2cccnc2)n1

$$$$
