
     RDKit          3D

 39 41  0  0  0  0  0  0  0  0999 V2000
    7.2318   -5.1122   22.5228 C   0  0  0  0  0  0  0  0  0  0  0  0
    6.5756   -4.1282   23.2999 O   0  0  0  0  0  0  0  0  0  0  0  0
    7.3811   -3.0146   23.6361 C   0  0  0  0  0  0  0  0  0  0  0  0
    6.7501   -2.3221   24.8482 C   0  0  0  0  0  0  0  0  0  0  0  0
    7.4161   -1.5364   25.2242 H   0  0  0  0  0  0  0  0  0  0  0  0
    6.5846   -3.0565   25.6403 H   0  0  0  0  0  0  0  0  0  0  0  0
    5.7879   -1.8684   24.5845 H   0  0  0  0  0  0  0  0  0  0  0  0
    7.5845   -2.0444   22.4934 C   0  0  0  0  0  0  0  0  0  0  0  0
    6.6455   -1.6199   21.6722 N   0  0  0  0  0  0  0  0  0  0  0  0
    7.3000   -0.6934   20.9259 N   0  0  0  0  0  0  0  0  0  0  0  0
    6.6343   -0.0094   19.8778 C   0  0  0  0  0  0  0  0  0  0  0  0
    5.4239    0.6348   20.1425 C   0  0  0  0  0  0  0  0  0  0  0  0
    4.7962    1.3177   19.0965 C   0  0  0  0  0  0  0  0  0  0  0  0
    5.3882    1.3015   17.8262 C   0  0  0  0  0  0  0  0  0  0  0  0
    6.5343    0.6582   17.5594 N   0  0  0  0  0  0  0  0  0  0  0  0
    7.1443    0.0292   18.5672 C   0  0  0  0  0  0  0  0  0  0  0  0
    8.0913   -0.4535   18.3274 H   0  0  0  0  0  0  0  0  0  0  0  0
    4.9315    1.8231   16.9885 H   0  0  0  0  0  0  0  0  0  0  0  0
    3.8667    1.8574   19.2486 H   0  0  0  0  0  0  0  0  0  0  0  0
    5.0127    0.5787   21.1511 H   0  0  0  0  0  0  0  0  0  0  0  0
    8.5833   -0.5818   21.3736 C   0  0  0  0  0  0  0  0  0  0  0  0
    9.6450    0.3029   20.8115 C   0  0  0  0  0  0  0  0  0  0  0  0
   10.3279    1.1457   21.8696 C   0  0  0  0  0  0  0  0  0  0  0  0
    9.7071    2.2543   22.4754 C   0  0  0  0  0  0  0  0  0  0  0  0
    8.1308    2.7666   21.9485 Cl  0  0  0  0  0  0  0  0  0  0  0  0
   10.3179    2.9187   23.5517 C   0  0  0  0  0  0  0  0  0  0  0  0
   11.5028    2.5306   24.0505 N   0  0  0  0  0  0  0  0  0  0  0  0
   12.1243    1.4856   23.4830 C   0  0  0  0  0  0  0  0  0  0  0  0
   11.5707    0.7893   22.4051 C   0  0  0  0  0  0  0  0  0  0  0  0
   12.2421   -0.2605   21.8990 F   0  0  0  0  0  0  0  0  0  0  0  0
   13.0815    1.1620   23.8903 H   0  0  0  0  0  0  0  0  0  0  0  0
    9.8238    3.7644   24.0328 H   0  0  0  0  0  0  0  0  0  0  0  0
   10.3574   -0.3797   20.3419 H   0  0  0  0  0  0  0  0  0  0  0  0
    9.2053    0.9379   20.0428 H   0  0  0  0  0  0  0  0  0  0  0  0
    8.7901   -1.4398   22.3505 N   0  0  0  0  0  0  0  0  0  0  0  0
    8.4042   -3.3382   23.8952 H   0  0  0  0  0  0  0  0  0  0  0  0
    7.9420   -5.6984   23.1274 H   0  0  0  0  0  0  0  0  0  0  0  0
    7.7780   -4.6739   21.6745 H   0  0  0  0  0  0  0  0  0  0  0  0
    6.4487   -5.7694   22.1381 H   0  0  0  0  0  0  0  0  0  0  0  0
  1  2  1  0
  2  3  1  0
  3  4  1  0
  4  5  1  0
  4  6  1  0
  4  7  1  0
  3  8  1  0
  8  9  2  0
  9 10  1  0
 10 11  1  0
 11 12  2  0
 12 13  1  0
 13 14  2  0
 14 15  1  0
 15 16  2  0
 16 17  1  0
 14 18  1  0
 13 19  1  0
 12 20  1  0
 10 21  1  0
 21 22  1  0
 22 23  1  0
 23 24  2  0
 24 25  1  0
 24 26  1  0
 26 27  2  0
 27 28  1  0
 28 29  2  0
 29 30  1  0
 28 31  1  0
 26 32  1  0
 22 33  1  0
 22 34  1  0
 21 35  2  0
  3 36  1  0
  1 37  1  0
  1 38  1  0
  1 39  1  0
 35  8  1  0
 16 11  1  0
 29 23  1  0
M  END
>  <cnnaffinity>  (1) 
-6.27459

>  <filename>  (1) 
COC(C)c1nc(Cc2c(F)cncc2Cl)n(-c2cccnc2)n1

$$$$
