
     RDKit          3D

 44 46  0  0  0  0  0  0  0  0999 V2000
    7.2641   -5.1222   22.5327 C   0  0  0  0  0  0  0  0  0  0  0  0
    6.6179   -4.1517   23.3374 O   0  0  0  0  0  0  0  0  0  0  0  0
    7.3977   -3.0107   23.6521 C   0  0  0  0  0  0  0  0  0  0  0  0
    6.7291   -2.3271   24.8470 C   0  0  0  0  0  0  0  0  0  0  0  0
    7.3624   -1.5237   25.2379 H   0  0  0  0  0  0  0  0  0  0  0  0
    5.7670   -1.8999   24.5520 H   0  0  0  0  0  0  0  0  0  0  0  0
    6.5578   -3.0621   25.6369 H   0  0  0  0  0  0  0  0  0  0  0  0
    7.6219   -2.0374   22.5080 C   0  0  0  0  0  0  0  0  0  0  0  0
    6.6988   -1.6274   21.6568 N   0  0  0  0  0  0  0  0  0  0  0  0
    7.3509   -0.6822   20.9276 N   0  0  0  0  0  0  0  0  0  0  0  0
    6.6600    0.0021   19.8775 C   0  0  0  0  0  0  0  0  0  0  0  0
    5.4419    0.6373   20.1415 C   0  0  0  0  0  0  0  0  0  0  0  0
    4.8108    1.3114   19.0902 C   0  0  0  0  0  0  0  0  0  0  0  0
    5.4023    1.3035   17.8224 C   0  0  0  0  0  0  0  0  0  0  0  0
    6.5469    0.6571   17.5480 N   0  0  0  0  0  0  0  0  0  0  0  0
    7.1588    0.0257   18.5617 C   0  0  0  0  0  0  0  0  0  0  0  0
    8.0807   -0.5026   18.3158 H   0  0  0  0  0  0  0  0  0  0  0  0
    4.9361    1.8345   16.9949 H   0  0  0  0  0  0  0  0  0  0  0  0
    3.8779    1.8428   19.2504 H   0  0  0  0  0  0  0  0  0  0  0  0
    5.0078    0.5751   21.1423 H   0  0  0  0  0  0  0  0  0  0  0  0
    8.6139   -0.5338   21.4278 C   0  0  0  0  0  0  0  0  0  0  0  0
    9.6547    0.4398   20.9931 C   0  0  0  0  0  0  0  0  0  0  0  0
   10.0640    1.3365   22.0572 N   0  0  0  0  0  0  0  0  0  0  0  0
    9.2944    2.3716   22.5587 C   0  0  0  0  0  0  0  0  0  0  0  0
    7.9444    2.7131   22.0115 C   0  0  0  0  0  0  0  0  0  0  0  0
    7.9317    2.7188   20.9204 H   0  0  0  0  0  0  0  0  0  0  0  0
    7.6136    3.6966   22.3553 H   0  0  0  0  0  0  0  0  0  0  0  0
    7.1933    1.9799   22.3275 H   0  0  0  0  0  0  0  0  0  0  0  0
    9.9819    2.9200   23.6120 C   0  0  0  0  0  0  0  0  0  0  0  0
   11.1816    2.1766   23.7871 C   0  0  0  0  0  0  0  0  0  0  0  0
   11.1975    1.1884   22.8398 C   0  0  0  0  0  0  0  0  0  0  0  0
   12.1690    0.0722   22.6277 C   0  0  0  0  0  0  0  0  0  0  0  0
   12.7235    0.1706   21.6935 H   0  0  0  0  0  0  0  0  0  0  0  0
   12.9196    0.0511   23.4203 H   0  0  0  0  0  0  0  0  0  0  0  0
   11.6518   -0.8949   22.6067 H   0  0  0  0  0  0  0  0  0  0  0  0
   11.9450    2.3138   24.5409 H   0  0  0  0  0  0  0  0  0  0  0  0
    9.6443    3.7602   24.2044 H   0  0  0  0  0  0  0  0  0  0  0  0
    9.3194    1.0107   20.1314 H   0  0  0  0  0  0  0  0  0  0  0  0
   10.5344   -0.1297   20.6919 H   0  0  0  0  0  0  0  0  0  0  0  0
    8.8193   -1.4000   22.3994 N   0  0  0  0  0  0  0  0  0  0  0  0
    8.4142   -3.3106   23.9447 H   0  0  0  0  0  0  0  0  0  0  0  0
    6.4848   -5.7977   22.1725 H   0  0  0  0  0  0  0  0  0  0  0  0
    7.9890   -5.7111   23.1137 H   0  0  0  0  0  0  0  0  0  0  0  0
    7.7797   -4.6792   21.6666 H   0  0  0  0  0  0  0  0  0  0  0  0
  1  2  1  0
  2  3  1  0
  3  4  1  0
  4  5  1  0
  4  6  1  0
  4  7  1  0
  3  8  1  0
  8  9  2  0
  9 10  1  0
 10 11  1  0
 11 12  2  0
 12 13  1  0
 13 14  2  0
 14 15  1  0
 15 16  2  0
 16 17  1  0
 14 18  1  0
 13 19  1  0
 12 20  1  0
 10 21  1  0
 21 22  1  0
 22 23  1  0
 23 24  1  0
 24 25  1  0
 25 26  1  0
 25 27  1  0
 25 28  1  0
 24 29  2  0
 29 30  1  0
 30 31  2  0
 31 32  1  0
 32 33  1  0
 32 34  1  0
 32 35  1  0
 30 36  1  0
 29 37  1  0
 22 38  1  0
 22 39  1  0
 21 40  2  0
  3 41  1  0
  1 42  1  0
  1 43  1  0
  1 44  1  0
 40  8  1  0
 16 11  1  0
 31 23  1  0
M  END
>  <cnnaffinity>  (1) 
-5.80863

>  <filename>  (1) 
COC(C)c1nc(Cn2c(C)ccc2C)n(-c2cccnc2)n1

$$$$
