
     RDKit          3D

 47 50  0  0  0  0  0  0  0  0999 V2000
    6.3080   -1.9534   25.3232 C   0  0  0  0  0  0  0  0  0  0  0  0
    6.2146   -2.9440   24.3204 O   0  0  0  0  0  0  0  0  0  0  0  0
    7.3968   -3.0936   23.5558 C   0  0  0  0  0  0  0  0  0  0  0  0
    7.5883   -2.0164   22.5137 C   0  0  0  0  0  0  0  0  0  0  0  0
    6.6555   -1.6031   21.6746 N   0  0  0  0  0  0  0  0  0  0  0  0
    7.3137   -0.6745   20.9336 N   0  0  0  0  0  0  0  0  0  0  0  0
    6.6455   -0.0000   19.8781 C   0  0  0  0  0  0  0  0  0  0  0  0
    5.4327    0.6408   20.1424 C   0  0  0  0  0  0  0  0  0  0  0  0
    4.8000    1.3175   19.0956 C   0  0  0  0  0  0  0  0  0  0  0  0
    5.3913    1.3015   17.8256 C   0  0  0  0  0  0  0  0  0  0  0  0
    6.5380    0.6601   17.5567 N   0  0  0  0  0  0  0  0  0  0  0  0
    7.1504    0.0327   18.5666 C   0  0  0  0  0  0  0  0  0  0  0  0
    8.0959   -0.4561   18.3294 H   0  0  0  0  0  0  0  0  0  0  0  0
    4.9276    1.8223   16.9902 H   0  0  0  0  0  0  0  0  0  0  0  0
    3.8692    1.8541   19.2522 H   0  0  0  0  0  0  0  0  0  0  0  0
    5.0158    0.5891   21.1475 H   0  0  0  0  0  0  0  0  0  0  0  0
    8.5953   -0.5634   21.3880 C   0  0  0  0  0  0  0  0  0  0  0  0
    9.6408    0.3452   20.8323 C   0  0  0  0  0  0  0  0  0  0  0  0
   10.3321    1.1593   21.9055 C   0  0  0  0  0  0  0  0  0  0  0  0
   11.5862    0.7415   22.3649 C   0  0  0  0  0  0  0  0  0  0  0  0
   12.2245    1.3931   23.4251 C   0  0  0  0  0  0  0  0  0  0  0  0
   11.5903    2.4795   24.0307 C   0  0  0  0  0  0  0  0  0  0  0  0
   10.3381    2.9056   23.5705 C   0  0  0  0  0  0  0  0  0  0  0  0
    9.6835    2.2553   22.5160 C   0  0  0  0  0  0  0  0  0  0  0  0
    8.3183    2.7321   22.0747 C   0  0  0  0  0  0  0  0  0  0  0  0
    8.3427    3.0590   21.0328 H   0  0  0  0  0  0  0  0  0  0  0  0
    7.9727    3.5714   22.6848 H   0  0  0  0  0  0  0  0  0  0  0  0
    7.5645    1.9388   22.1427 H   0  0  0  0  0  0  0  0  0  0  0  0
    9.8444    3.7513   24.0438 H   0  0  0  0  0  0  0  0  0  0  0  0
   12.0444    2.9982   24.8650 H   0  0  0  0  0  0  0  0  0  0  0  0
   13.1898    1.0390   23.7832 H   0  0  0  0  0  0  0  0  0  0  0  0
   12.0450   -0.1272   21.8917 H   0  0  0  0  0  0  0  0  0  0  0  0
   10.3586   -0.3151   20.3381 H   0  0  0  0  0  0  0  0  0  0  0  0
    9.1860    0.9924   20.0833 H   0  0  0  0  0  0  0  0  0  0  0  0
    8.8002   -1.4275   22.3603 N   0  0  0  0  0  0  0  0  0  0  0  0
    7.3695   -4.4662   22.9163 C   0  0  0  0  0  0  0  0  0  0  0  0
    7.7537   -5.6482   23.7552 C   0  0  0  0  0  0  0  0  0  0  0  0
    8.6876   -5.1406   22.7010 C   0  0  0  0  0  0  0  0  0  0  0  0
    9.5559   -4.5652   23.0249 H   0  0  0  0  0  0  0  0  0  0  0  0
    8.8390   -5.7433   21.8100 H   0  0  0  0  0  0  0  0  0  0  0  0
    7.9947   -5.5047   24.8072 H   0  0  0  0  0  0  0  0  0  0  0  0
    7.2175   -6.5622   23.5410 H   0  0  0  0  0  0  0  0  0  0  0  0
    6.5726   -4.5823   22.1766 H   0  0  0  0  0  0  0  0  0  0  0  0
    8.2949   -3.0139   24.1997 H   0  0  0  0  0  0  0  0  0  0  0  0
    6.9380   -2.2917   26.1613 H   0  0  0  0  0  0  0  0  0  0  0  0
    6.7202   -1.0119   24.9311 H   0  0  0  0  0  0  0  0  0  0  0  0
    5.2919   -1.7750   25.6835 H   0  0  0  0  0  0  0  0  0  0  0  0
  1  2  1  0
  2  3  1  0
  3  4  1  0
  4  5  2  0
  5  6  1  0
  6  7  1  0
  7  8  2  0
  8  9  1  0
  9 10  2  0
 10 11  1  0
 11 12  2  0
 12 13  1  0
 10 14  1  0
  9 15  1  0
  8 16  1  0
  6 17  1  0
 17 18  1  0
 18 19  1  0
 19 20  2  0
 20 21  1  0
 21 22  2  0
 22 23  1  0
 23 24  2  0
 24 25  1  0
 25 26  1  0
 25 27  1  0
 25 28  1  0
 23 29  1  0
 22 30  1  0
 21 31  1  0
 20 32  1  0
 18 33  1  0
 18 34  1  0
 17 35  2  0
  3 36  1  0
 36 37  1  0
 37 38  1  0
 38 39  1  0
 38 40  1  0
 37 41  1  0
 37 42  1  0
 36 43  1  0
  3 44  1  0
  1 45  1  0
  1 46  1  0
  1 47  1  0
 35  4  1  0
 38 36  1  0
 12  7  1  0
 24 19  1  0
M  END
>  <cnnaffinity>  (1) 
-6.07472

>  <filename>  (1) 
COC(c1nc(Cc2ccccc2C)n(-c2cccnc2)n1)C1CC1

$$$$
