
     RDKit          3D

 36 38  0  0  0  0  0  0  0  0999 V2000
    9.0169   -3.0794   22.2100 H   0  0  0  0  0  0  0  0  0  0  0  0
    8.4540   -2.2021   21.9259 C   0  0  0  0  0  0  0  0  0  0  0  0
    8.0713   -1.8673   20.7437 N   0  0  0  0  0  0  0  0  0  0  0  0
    7.3609   -0.6914   20.9429 C   0  0  0  0  0  0  0  0  0  0  0  0
    6.6446   -0.0007   19.8836 C   0  0  0  0  0  0  0  0  0  0  0  0
    7.1664    0.0414   18.5787 C   0  0  0  0  0  0  0  0  0  0  0  0
    8.1177   -0.4347   18.3620 H   0  0  0  0  0  0  0  0  0  0  0  0
    6.5675    0.6745   17.5660 N   0  0  0  0  0  0  0  0  0  0  0  0
    5.4068    1.2936   17.8339 C   0  0  0  0  0  0  0  0  0  0  0  0
    4.9274    1.7867   16.9929 H   0  0  0  0  0  0  0  0  0  0  0  0
    4.8033    1.3123   19.0990 C   0  0  0  0  0  0  0  0  0  0  0  0
    3.8721    1.8431   19.2490 H   0  0  0  0  0  0  0  0  0  0  0  0
    5.4320    0.6563   20.1527 C   0  0  0  0  0  0  0  0  0  0  0  0
    5.0102    0.6368   21.1623 H   0  0  0  0  0  0  0  0  0  0  0  0
    7.4058   -0.3647   22.2782 C   0  0  0  0  0  0  0  0  0  0  0  0
    7.0064    0.7277   22.9867 N   0  0  0  0  0  0  0  0  0  0  0  0
    7.2546    2.0737   22.4861 C   0  0  0  0  0  0  0  0  0  0  0  0
    7.6263    2.0083   21.4589 H   0  0  0  0  0  0  0  0  0  0  0  0
    6.3322    2.6737   22.4574 H   0  0  0  0  0  0  0  0  0  0  0  0
    8.2787    2.7502   23.3942 C   0  0  0  0  0  0  0  0  0  0  0  0
    8.4377    3.7895   23.0980 H   0  0  0  0  0  0  0  0  0  0  0  0
    9.2359    2.2309   23.2934 H   0  0  0  0  0  0  0  0  0  0  0  0
    7.8529    2.6979   24.8568 C   0  0  0  0  0  0  0  0  0  0  0  0
    8.6859    3.0734   25.4724 H   0  0  0  0  0  0  0  0  0  0  0  0
    6.7272    3.5525   25.0203 O   0  0  0  0  0  0  0  0  0  0  0  0
    6.7075    4.2489   26.2472 C   0  0  0  0  0  0  0  0  0  0  0  0
    5.7557    4.7803   26.3123 H   0  0  0  0  0  0  0  0  0  0  0  0
    6.8017    3.5799   27.1180 H   0  0  0  0  0  0  0  0  0  0  0  0
    7.5330    4.9754   26.3056 H   0  0  0  0  0  0  0  0  0  0  0  0
    7.5029    1.2692   25.2912 C   0  0  0  0  0  0  0  0  0  0  0  0
    7.1187    1.2781   26.3151 H   0  0  0  0  0  0  0  0  0  0  0  0
    8.4124    0.6629   25.2771 H   0  0  0  0  0  0  0  0  0  0  0  0
    6.4896    0.6392   24.3418 C   0  0  0  0  0  0  0  0  0  0  0  0
    6.2996   -0.4097   24.5797 H   0  0  0  0  0  0  0  0  0  0  0  0
    5.5308    1.1723   24.4120 H   0  0  0  0  0  0  0  0  0  0  0  0
    8.0976   -1.3514   22.9180 O   0  0  0  0  0  0  0  0  0  0  0  0
  1  2  1  0
  2  3  2  0
  3  4  1  0
  4  5  1  0
  5  6  2  0
  6  7  1  0
  6  8  1  0
  8  9  2  0
  9 10  1  0
  9 11  1  0
 11 12  1  0
 11 13  2  0
 13 14  1  0
  4 15  2  0
 15 16  1  0
 16 17  1  0
 17 18  1  0
 17 19  1  0
 17 20  1  0
 20 21  1  0
 20 22  1  0
 20 23  1  0
 23 24  1  0
 23 25  1  0
 25 26  1  0
 26 27  1  0
 26 28  1  0
 26 29  1  0
 23 30  1  0
 30 31  1  0
 30 32  1  0
 30 33  1  0
 33 34  1  0
 33 35  1  0
 15 36  1  0
 36  2  1  0
 13  5  1  0
 33 16  1  0
M  END
>  <cnnaffinity>  (1) 
-4.87587

>  <filename>  (1) 
COC1CCN(c2ocnc2-c2cccnc2)CC1

$$$$
