
     RDKit          3D

 31 33  0  0  0  0  0  0  0  0999 V2000
    4.9702    1.8111   16.9518 H   0  0  0  0  0  0  0  0  0  0  0  0
    5.4235    1.3011   17.7973 C   0  0  0  0  0  0  0  0  0  0  0  0
    6.5814    0.6680   17.5516 N   0  0  0  0  0  0  0  0  0  0  0  0
    7.1639    0.0473   18.5845 C   0  0  0  0  0  0  0  0  0  0  0  0
    8.0912   -0.4738   18.3535 H   0  0  0  0  0  0  0  0  0  0  0  0
    6.6496    0.0076   19.8960 C   0  0  0  0  0  0  0  0  0  0  0  0
    7.3877   -0.7169   20.9532 C   0  0  0  0  0  0  0  0  0  0  0  0
    6.6061   -1.2564   22.4093 S   0  0  0  0  0  0  0  0  0  0  0  0
    8.0614   -1.9403   23.0146 C   0  0  0  0  0  0  0  0  0  0  0  0
    8.0892   -2.3866   24.0027 H   0  0  0  0  0  0  0  0  0  0  0  0
    9.0999   -1.7727   22.1548 C   0  0  0  0  0  0  0  0  0  0  0  0
   10.5379   -2.1463   22.4501 C   0  0  0  0  0  0  0  0  0  0  0  0
   10.5794   -2.9650   23.1787 H   0  0  0  0  0  0  0  0  0  0  0  0
   11.0382   -2.4809   21.5390 H   0  0  0  0  0  0  0  0  0  0  0  0
   11.3045   -1.0123   22.9489 N   0  0  0  0  0  0  0  0  0  0  0  0
   12.0607   -0.2152   22.0855 N   0  0  0  0  0  0  0  0  0  0  0  0
   12.2166    0.8569   22.7657 C   0  0  0  0  0  0  0  0  0  0  0  0
   12.9092    1.9097   22.3732 O   0  0  0  0  0  0  0  0  0  0  0  0
   13.3180    2.8594   23.3631 C   0  0  0  0  0  0  0  0  0  0  0  0
   12.4539    3.3995   23.7574 H   0  0  0  0  0  0  0  0  0  0  0  0
   13.9934    3.5613   22.8724 H   0  0  0  0  0  0  0  0  0  0  0  0
   13.8325    2.3448   24.1759 H   0  0  0  0  0  0  0  0  0  0  0  0
   11.6102    0.8872   23.9709 O   0  0  0  0  0  0  0  0  0  0  0  0
   10.9995   -0.3400   24.0992 C   0  0  0  0  0  0  0  0  0  0  0  0
   10.3864   -0.6759   25.0724 O   0  0  0  0  0  0  0  0  0  0  0  0
    8.7151   -1.0564   20.9762 C   0  0  0  0  0  0  0  0  0  0  0  0
    9.4312   -0.7634   20.2109 H   0  0  0  0  0  0  0  0  0  0  0  0
    5.4251    0.6719   20.1248 C   0  0  0  0  0  0  0  0  0  0  0  0
    4.9709    0.6801   21.1160 H   0  0  0  0  0  0  0  0  0  0  0  0
    4.8089    1.3222   19.0548 C   0  0  0  0  0  0  0  0  0  0  0  0
    3.8716    1.8537   19.1854 H   0  0  0  0  0  0  0  0  0  0  0  0
  1  2  1  0
  2  3  2  0
  3  4  1  0
  4  5  1  0
  4  6  2  0
  6  7  1  0
  7  8  1  0
  8  9  1  0
  9 10  1  0
  9 11  2  0
 11 12  1  0
 12 13  1  0
 12 14  1  0
 12 15  1  0
 15 16  1  0
 16 17  2  0
 17 18  1  0
 18 19  1  0
 19 20  1  0
 19 21  1  0
 19 22  1  0
 17 23  1  0
 23 24  1  0
 24 25  2  0
 11 26  1  0
 26 27  1  0
  6 28  1  0
 28 29  1  0
 28 30  2  0
 30 31  1  0
 30  2  1  0
 26  7  2  0
 24 15  1  0
M  END
>  <cnnaffinity>  (1) 
-4.5597

>  <filename>  (1) 
COc1nn(Cc2csc(-c3cccnc3)c2)c(=O)o1

$$$$
