
     RDKit          3D

 37 39  0  0  0  0  0  0  0  0999 V2000
    4.9359    1.8035   17.0048 H   0  0  0  0  0  0  0  0  0  0  0  0
    5.4221    1.3217   17.8512 C   0  0  0  0  0  0  0  0  0  0  0  0
    6.5959    0.7142   17.6080 N   0  0  0  0  0  0  0  0  0  0  0  0
    7.1931    0.0694   18.6200 C   0  0  0  0  0  0  0  0  0  0  0  0
    8.1490   -0.4066   18.3989 H   0  0  0  0  0  0  0  0  0  0  0  0
    6.6465    0.0035   19.9245 C   0  0  0  0  0  0  0  0  0  0  0  0
    7.2863   -0.6890   21.0102 N   0  0  0  0  0  0  0  0  0  0  0  0
    7.7114   -0.1757   22.2616 C   0  0  0  0  0  0  0  0  0  0  0  0
    7.5128    1.1059   22.6873 N   0  0  0  0  0  0  0  0  0  0  0  0
    7.1288    1.2991   24.0991 C   0  0  0  0  0  0  0  0  0  0  0  0
    6.3921    0.5285   24.3675 H   0  0  0  0  0  0  0  0  0  0  0  0
    7.9922    1.1641   24.7754 H   0  0  0  0  0  0  0  0  0  0  0  0
    6.5280    2.6886   24.3011 C   0  0  0  0  0  0  0  0  0  0  0  0
    6.2348    2.8317   25.3472 H   0  0  0  0  0  0  0  0  0  0  0  0
    5.6089    2.7665   23.7084 H   0  0  0  0  0  0  0  0  0  0  0  0
    7.4896    3.8108   23.8535 C   0  0  0  0  0  0  0  0  0  0  0  0
    8.1153    4.1324   24.7070 H   0  0  0  0  0  0  0  0  0  0  0  0
    6.7365    4.9082   23.3580 O   0  0  0  0  0  0  0  0  0  0  0  0
    6.2803    5.8121   24.3352 C   0  0  0  0  0  0  0  0  0  0  0  0
    5.6808    5.3265   25.1223 H   0  0  0  0  0  0  0  0  0  0  0  0
    7.1183    6.3465   24.8104 H   0  0  0  0  0  0  0  0  0  0  0  0
    5.6485    6.5419   23.8239 H   0  0  0  0  0  0  0  0  0  0  0  0
    8.4396    3.3558   22.7371 C   0  0  0  0  0  0  0  0  0  0  0  0
    9.3540    2.9409   23.1775 H   0  0  0  0  0  0  0  0  0  0  0  0
    8.7249    4.2268   22.1434 H   0  0  0  0  0  0  0  0  0  0  0  0
    7.8298    2.2678   21.8529 C   0  0  0  0  0  0  0  0  0  0  0  0
    6.9295    2.6485   21.3472 H   0  0  0  0  0  0  0  0  0  0  0  0
    8.5399    1.9680   21.0750 H   0  0  0  0  0  0  0  0  0  0  0  0
    8.1900   -1.2136   22.9679 C   0  0  0  0  0  0  0  0  0  0  0  0
    8.6713   -1.2516   23.9371 H   0  0  0  0  0  0  0  0  0  0  0  0
    7.9462   -2.3868   22.2769 O   0  0  0  0  0  0  0  0  0  0  0  0
    7.2478   -2.0782   21.1421 C   0  0  0  0  0  0  0  0  0  0  0  0
    6.6938   -2.8793   20.4372 O   0  0  0  0  0  0  0  0  0  0  0  0
    5.4335    0.6488   20.1615 C   0  0  0  0  0  0  0  0  0  0  0  0
    5.0268    0.6464   21.1737 H   0  0  0  0  0  0  0  0  0  0  0  0
    4.8089    1.3176   19.1073 C   0  0  0  0  0  0  0  0  0  0  0  0
    3.8584    1.8181   19.2476 H   0  0  0  0  0  0  0  0  0  0  0  0
  1  2  1  0
  2  3  2  0
  3  4  1  0
  4  5  1  0
  4  6  2  0
  6  7  1  0
  7  8  1  0
  8  9  1  0
  9 10  1  0
 10 11  1  0
 10 12  1  0
 10 13  1  0
 13 14  1  0
 13 15  1  0
 13 16  1  0
 16 17  1  0
 16 18  1  0
 18 19  1  0
 19 20  1  0
 19 21  1  0
 19 22  1  0
 16 23  1  0
 23 24  1  0
 23 25  1  0
 23 26  1  0
 26 27  1  0
 26 28  1  0
  8 29  2  0
 29 30  1  0
 29 31  1  0
 31 32  1  0
 32 33  2  0
  6 34  1  0
 34 35  1  0
 34 36  2  0
 36 37  1  0
 36  2  1  0
 32  7  1  0
 26  9  1  0
M  END
>  <cnnaffinity>  (1) 
-4.88668

>  <filename>  (1) 
COC1CCN(c2coc(=O)n2-c2cccnc2)CC1

$$$$
