
     RDKit          3D

 48 52  0  0  0  0  0  0  0  0999 V2000
   13.1855   -1.8594   21.4473 C   0  0  0  0  0  0  0  0  0  0  0  0
   12.0941   -1.0134   21.1736 O   0  0  0  0  0  0  0  0  0  0  0  0
   11.8463    0.0690   21.9612 C   0  0  0  0  0  0  0  0  0  0  0  0
   12.6753    0.4902   23.0127 C   0  0  0  0  0  0  0  0  0  0  0  0
   12.3805    1.6793   23.6885 C   0  0  0  0  0  0  0  0  0  0  0  0
   11.2594    2.4493   23.3646 C   0  0  0  0  0  0  0  0  0  0  0  0
   10.9265    3.7395   24.0739 C   0  0  0  0  0  0  0  0  0  0  0  0
   11.8131    4.2420   24.4733 H   0  0  0  0  0  0  0  0  0  0  0  0
   10.4296    4.4427   23.3985 H   0  0  0  0  0  0  0  0  0  0  0  0
   10.2374    3.5683   24.9083 H   0  0  0  0  0  0  0  0  0  0  0  0
   10.4144    1.9714   22.3464 C   0  0  0  0  0  0  0  0  0  0  0  0
   10.6710    0.7885   21.6572 C   0  0  0  0  0  0  0  0  0  0  0  0
    9.6503    0.2244   20.6915 C   0  0  0  0  0  0  0  0  0  0  0  0
    8.6083   -0.6199   21.3482 C   0  0  0  0  0  0  0  0  0  0  0  0
    8.8195   -1.4662   22.3374 N   0  0  0  0  0  0  0  0  0  0  0  0
    7.5990   -2.0162   22.5372 C   0  0  0  0  0  0  0  0  0  0  0  0
    7.2504   -3.0544   23.5462 C   0  0  0  0  0  0  0  0  0  0  0  0
    6.3374   -2.6159   24.6435 C   0  0  0  0  0  0  0  0  0  0  0  0
    7.7518   -3.1495   25.0143 C   0  0  0  0  0  0  0  0  0  0  0  0
    8.9633   -4.0134   25.3323 C   0  0  0  0  0  0  0  0  0  0  0  0
    8.0749   -3.5609   26.4501 C   0  0  0  0  0  0  0  0  0  0  0  0
    8.4826   -2.7971   27.1107 H   0  0  0  0  0  0  0  0  0  0  0  0
    7.3999   -4.2762   26.9249 H   0  0  0  0  0  0  0  0  0  0  0  0
    9.9484   -3.5467   25.2899 H   0  0  0  0  0  0  0  0  0  0  0  0
    8.9462   -5.0604   25.0141 H   0  0  0  0  0  0  0  0  0  0  0  0
    6.1810   -1.5401   24.7174 H   0  0  0  0  0  0  0  0  0  0  0  0
    5.4609   -3.2044   24.9349 H   0  0  0  0  0  0  0  0  0  0  0  0
    7.0845   -4.0243   23.0751 H   0  0  0  0  0  0  0  0  0  0  0  0
    6.6510   -1.5775   21.7206 N   0  0  0  0  0  0  0  0  0  0  0  0
    7.3095   -0.6958   20.9293 N   0  0  0  0  0  0  0  0  0  0  0  0
    6.6367   -0.0089   19.8775 C   0  0  0  0  0  0  0  0  0  0  0  0
    5.4244    0.6399   20.1351 C   0  0  0  0  0  0  0  0  0  0  0  0
    4.8009    1.3181   19.0861 C   0  0  0  0  0  0  0  0  0  0  0  0
    5.3925    1.3067   17.8171 C   0  0  0  0  0  0  0  0  0  0  0  0
    6.5403    0.6627   17.5547 N   0  0  0  0  0  0  0  0  0  0  0  0
    7.1452    0.0286   18.5654 C   0  0  0  0  0  0  0  0  0  0  0  0
    8.0840   -0.4682   18.3225 H   0  0  0  0  0  0  0  0  0  0  0  0
    4.9300    1.8302   16.9834 H   0  0  0  0  0  0  0  0  0  0  0  0
    3.8718    1.8553   19.2402 H   0  0  0  0  0  0  0  0  0  0  0  0
    5.0025    0.5969   21.1390 H   0  0  0  0  0  0  0  0  0  0  0  0
    9.1716    1.0338   20.1376 H   0  0  0  0  0  0  0  0  0  0  0  0
   10.1479   -0.4485   19.9869 H   0  0  0  0  0  0  0  0  0  0  0  0
    9.5290    2.5496   22.0883 H   0  0  0  0  0  0  0  0  0  0  0  0
   13.0556    2.0060   24.4728 H   0  0  0  0  0  0  0  0  0  0  0  0
   13.5244   -0.1106   23.3130 H   0  0  0  0  0  0  0  0  0  0  0  0
   13.3552   -2.4360   20.5418 H   0  0  0  0  0  0  0  0  0  0  0  0
   12.9327   -2.5276   22.2751 H   0  0  0  0  0  0  0  0  0  0  0  0
   14.0941   -1.2900   21.6704 H   0  0  0  0  0  0  0  0  0  0  0  0
  1  2  1  0
  2  3  1  0
  3  4  2  0
  4  5  1  0
  5  6  2  0
  6  7  1  0
  7  8  1  0
  7  9  1  0
  7 10  1  0
  6 11  1  0
 11 12  2  0
 12 13  1  0
 13 14  1  0
 14 15  2  0
 15 16  1  0
 16 17  1  0
 17 18  1  0
 18 19  1  0
 19 20  1  0
 20 21  1  0
 21 22  1  0
 21 23  1  0
 20 24  1  0
 20 25  1  0
 18 26  1  0
 18 27  1  0
 17 28  1  0
 16 29  2  0
 29 30  1  0
 30 31  1  0
 31 32  2  0
 32 33  1  0
 33 34  2  0
 34 35  1  0
 35 36  2  0
 36 37  1  0
 34 38  1  0
 33 39  1  0
 32 40  1  0
 13 41  1  0
 13 42  1  0
 11 43  1  0
  5 44  1  0
  4 45  1  0
  1 46  1  0
  1 47  1  0
  1 48  1  0
 12  3  1  0
 30 14  1  0
 36 31  1  0
 19 17  1  0
 21 19  1  0
M  END
>  <cnnaffinity>  (1) 
-6.80859

>  <filename>  (1) 
COc1ccc(C)cc1Cc1nc(C2CC23CC3)nn1-c1cccnc1

$$$$
