
     RDKit          3D

 33 35  0  0  0  0  0  0  0  0999 V2000
    4.9272    1.8211   16.9462 H   0  0  0  0  0  0  0  0  0  0  0  0
    5.3798    1.3268   17.8015 C   0  0  0  0  0  0  0  0  0  0  0  0
    6.5459    0.7044   17.5682 N   0  0  0  0  0  0  0  0  0  0  0  0
    7.1388    0.1035   18.6025 C   0  0  0  0  0  0  0  0  0  0  0  0
    8.0700   -0.4332   18.4129 H   0  0  0  0  0  0  0  0  0  0  0  0
    6.6205    0.1216   19.9016 C   0  0  0  0  0  0  0  0  0  0  0  0
    7.3727   -0.5857   20.9528 C   0  0  0  0  0  0  0  0  0  0  0  0
    8.0358   -1.6361   20.5533 N   0  0  0  0  0  0  0  0  0  0  0  0
    8.5391   -2.4468   21.5190 C   0  0  0  0  0  0  0  0  0  0  0  0
    8.8104   -3.6152   21.3864 O   0  0  0  0  0  0  0  0  0  0  0  0
    8.7545   -1.8924   22.7978 N   0  0  0  0  0  0  0  0  0  0  0  0
    9.0784   -2.6696   23.3501 H   0  0  0  0  0  0  0  0  0  0  0  0
    8.0220   -0.8268   23.2773 C   0  0  0  0  0  0  0  0  0  0  0  0
    8.0322   -0.4357   24.7494 C   0  0  0  0  0  0  0  0  0  0  0  0
    6.9499    0.2442   25.1877 N   0  0  0  0  0  0  0  0  0  0  0  0
    6.9249    0.6317   26.4537 C   0  0  0  0  0  0  0  0  0  0  0  0
    5.8669    1.3173   26.9310 O   0  0  0  0  0  0  0  0  0  0  0  0
    4.7943    1.5891   26.0363 C   0  0  0  0  0  0  0  0  0  0  0  0
    4.0535    2.1524   26.6029 H   0  0  0  0  0  0  0  0  0  0  0  0
    5.1437    2.1742   25.1796 H   0  0  0  0  0  0  0  0  0  0  0  0
    4.3610    0.6579   25.6568 H   0  0  0  0  0  0  0  0  0  0  0  0
    7.9604    0.3915   27.3673 C   0  0  0  0  0  0  0  0  0  0  0  0
    7.8447    0.7780   28.3707 H   0  0  0  0  0  0  0  0  0  0  0  0
    9.0728   -0.3050   26.9206 C   0  0  0  0  0  0  0  0  0  0  0  0
    9.9078   -0.5014   27.5915 H   0  0  0  0  0  0  0  0  0  0  0  0
    9.1132   -0.7392   25.5848 C   0  0  0  0  0  0  0  0  0  0  0  0
    9.9706   -1.2737   25.1884 H   0  0  0  0  0  0  0  0  0  0  0  0
    7.3267   -0.1431   22.3064 C   0  0  0  0  0  0  0  0  0  0  0  0
    6.7414    0.7264   22.5575 H   0  0  0  0  0  0  0  0  0  0  0  0
    5.3860    0.7384   20.1263 C   0  0  0  0  0  0  0  0  0  0  0  0
    4.9265    0.6982   21.1153 H   0  0  0  0  0  0  0  0  0  0  0  0
    4.7545    1.3578   19.0526 C   0  0  0  0  0  0  0  0  0  0  0  0
    3.8082    1.8728   19.1760 H   0  0  0  0  0  0  0  0  0  0  0  0
  1  2  1  0
  2  3  2  0
  3  4  1  0
  4  5  1  0
  4  6  2  0
  6  7  1  0
  7  8  2  0
  8  9  1  0
  9 10  2  0
  9 11  1  0
 11 12  1  0
 11 13  1  0
 13 14  1  0
 14 15  2  0
 15 16  1  0
 16 17  1  0
 17 18  1  0
 18 19  1  0
 18 20  1  0
 18 21  1  0
 16 22  2  0
 22 23  1  0
 22 24  1  0
 24 25  1  0
 24 26  2  0
 26 27  1  0
 13 28  2  0
 28 29  1  0
  6 30  1  0
 30 31  1  0
 30 32  2  0
 32 33  1  0
 32  2  1  0
 28  7  1  0
 26 14  1  0
M  END
>  <cnnaffinity>  (1) 
-5.16873

>  <filename>  (1) 
COc1cccc(-c2cc(-c3cccnc3)nc(=O)[nH]2)n1

$$$$
