
     RDKit          3D

 38 41  0  0  0  0  0  0  0  0999 V2000
    4.9636    1.8385   16.9615 H   0  0  0  0  0  0  0  0  0  0  0  0
    5.3983    1.3075   17.8051 C   0  0  0  0  0  0  0  0  0  0  0  0
    6.5419    0.6477   17.5626 N   0  0  0  0  0  0  0  0  0  0  0  0
    7.1088    0.0089   18.5887 C   0  0  0  0  0  0  0  0  0  0  0  0
    8.0272   -0.5325   18.3673 H   0  0  0  0  0  0  0  0  0  0  0  0
    6.5895    0.0139   19.8942 C   0  0  0  0  0  0  0  0  0  0  0  0
    7.3446   -0.6301   20.9644 C   0  0  0  0  0  0  0  0  0  0  0  0
    7.8766   -1.8384   20.8076 N   0  0  0  0  0  0  0  0  0  0  0  0
    8.4924   -2.0532   21.9713 N   0  0  0  0  0  0  0  0  0  0  0  0
    8.4551   -1.0299   22.8361 C   0  0  0  0  0  0  0  0  0  0  0  0
    7.6949   -0.0523   22.2178 C   0  0  0  0  0  0  0  0  0  0  0  0
    7.4537    1.3422   22.7428 C   0  0  0  0  0  0  0  0  0  0  0  0
    8.3992    1.8792   22.9074 H   0  0  0  0  0  0  0  0  0  0  0  0
    6.8702    1.9281   22.0257 H   0  0  0  0  0  0  0  0  0  0  0  0
    6.7725    1.3589   24.0192 N   0  0  0  0  0  0  0  0  0  0  0  0
    7.4897    1.1856   25.2004 N   0  0  0  0  0  0  0  0  0  0  0  0
    6.5536    0.9970   26.0625 C   0  0  0  0  0  0  0  0  0  0  0  0
    6.6472    0.8820   27.3735 O   0  0  0  0  0  0  0  0  0  0  0  0
    7.9117    1.2371   27.9607 C   0  0  0  0  0  0  0  0  0  0  0  0
    8.2405    2.2197   27.6091 H   0  0  0  0  0  0  0  0  0  0  0  0
    7.7292    1.2612   29.0338 H   0  0  0  0  0  0  0  0  0  0  0  0
    8.6691    0.4862   27.7176 H   0  0  0  0  0  0  0  0  0  0  0  0
    5.3040    0.9620   25.5764 O   0  0  0  0  0  0  0  0  0  0  0  0
    5.4372    1.1970   24.2163 C   0  0  0  0  0  0  0  0  0  0  0  0
    4.5337    1.2890   23.4340 O   0  0  0  0  0  0  0  0  0  0  0  0
    9.3786   -1.3061   23.9923 C   0  0  0  0  0  0  0  0  0  0  0  0
    8.8124   -1.3902   24.9212 H   0  0  0  0  0  0  0  0  0  0  0  0
   10.1039   -0.4973   24.1214 H   0  0  0  0  0  0  0  0  0  0  0  0
   10.0641   -2.6456   23.6001 C   0  0  0  0  0  0  0  0  0  0  0  0
    9.8836   -3.4233   24.3419 H   0  0  0  0  0  0  0  0  0  0  0  0
   11.1401   -2.5263   23.5061 H   0  0  0  0  0  0  0  0  0  0  0  0
    9.4919   -3.0517   22.2233 C   0  0  0  0  0  0  0  0  0  0  0  0
   10.2407   -2.9514   21.4360 H   0  0  0  0  0  0  0  0  0  0  0  0
    9.0478   -4.0477   22.2062 H   0  0  0  0  0  0  0  0  0  0  0  0
    5.3710    0.6693   20.1238 C   0  0  0  0  0  0  0  0  0  0  0  0
    4.9091    0.6576   21.1151 H   0  0  0  0  0  0  0  0  0  0  0  0
    4.7666    1.3259   19.0531 C   0  0  0  0  0  0  0  0  0  0  0  0
    3.8339    1.8601   19.1846 H   0  0  0  0  0  0  0  0  0  0  0  0
  1  2  1  0
  2  3  2  0
  3  4  1  0
  4  5  1  0
  4  6  2  0
  6  7  1  0
  7  8  2  0
  8  9  1  0
  9 10  1  0
 10 11  2  0
 11 12  1  0
 12 13  1  0
 12 14  1  0
 12 15  1  0
 15 16  1  0
 16 17  2  0
 17 18  1  0
 18 19  1  0
 19 20  1  0
 19 21  1  0
 19 22  1  0
 17 23  1  0
 23 24  1  0
 24 25  2  0
 10 26  1  0
 26 27  1  0
 26 28  1  0
 26 29  1  0
 29 30  1  0
 29 31  1  0
 29 32  1  0
 32 33  1  0
 32 34  1  0
  6 35  1  0
 35 36  1  0
 35 37  2  0
 37 38  1  0
 37  2  1  0
 11  7  1  0
 24 15  1  0
 32  9  1  0
M  END
>  <cnnaffinity>  (1) 
-5.21017

>  <filename>  (1) 
COc1nn(Cc2c(-c3cccnc3)nn3c2CCC3)c(=O)o1

$$$$
