
     RDKit          3D

 38 40  0  0  0  0  0  0  0  0999 V2000
    5.0241    1.9825   16.9193 H   0  0  0  0  0  0  0  0  0  0  0  0
    5.4520    1.3836   17.7199 C   0  0  0  0  0  0  0  0  0  0  0  0
    6.6048    0.7546   17.4388 N   0  0  0  0  0  0  0  0  0  0  0  0
    7.1759    0.0442   18.4156 C   0  0  0  0  0  0  0  0  0  0  0  0
    8.1104   -0.4607   18.1683 H   0  0  0  0  0  0  0  0  0  0  0  0
    6.6293   -0.0930   19.7086 C   0  0  0  0  0  0  0  0  0  0  0  0
    7.3611   -0.7871   20.7414 N   0  0  0  0  0  0  0  0  0  0  0  0
    8.6912   -0.4321   20.9624 C   0  0  0  0  0  0  0  0  0  0  0  0
    9.0648    0.3814   20.3449 H   0  0  0  0  0  0  0  0  0  0  0  0
    9.4481   -1.0217   21.9122 C   0  0  0  0  0  0  0  0  0  0  0  0
   10.7623   -0.4726   22.4066 C   0  0  0  0  0  0  0  0  0  0  0  0
   11.2611    0.1397   21.6405 H   0  0  0  0  0  0  0  0  0  0  0  0
   11.4374   -1.2982   22.6574 H   0  0  0  0  0  0  0  0  0  0  0  0
   10.4758    0.3476   23.6602 C   0  0  0  0  0  0  0  0  0  0  0  0
   10.6136   -0.2160   24.9327 C   0  0  0  0  0  0  0  0  0  0  0  0
   11.0528   -1.2029   25.0200 H   0  0  0  0  0  0  0  0  0  0  0  0
   10.0928    0.4055   26.0704 C   0  0  0  0  0  0  0  0  0  0  0  0
   10.1455   -0.0872   27.0401 H   0  0  0  0  0  0  0  0  0  0  0  0
    9.4492    1.6364   25.9352 C   0  0  0  0  0  0  0  0  0  0  0  0
    9.0195    2.1001   26.8181 H   0  0  0  0  0  0  0  0  0  0  0  0
    9.3389    2.2588   24.6861 C   0  0  0  0  0  0  0  0  0  0  0  0
    8.8407    3.2228   24.6021 H   0  0  0  0  0  0  0  0  0  0  0  0
    9.8543    1.6133   23.5509 C   0  0  0  0  0  0  0  0  0  0  0  0
    9.7523    2.1008   22.2792 O   0  0  0  0  0  0  0  0  0  0  0  0
    8.9662    3.2372   22.0080 C   0  0  0  0  0  0  0  0  0  0  0  0
    7.9451    3.1383   22.3979 H   0  0  0  0  0  0  0  0  0  0  0  0
    8.9190    3.2944   20.9194 H   0  0  0  0  0  0  0  0  0  0  0  0
    9.4253    4.1524   22.4038 H   0  0  0  0  0  0  0  0  0  0  0  0
    8.8515   -2.1123   22.6981 C   0  0  0  0  0  0  0  0  0  0  0  0
    9.4189   -2.8905   23.4338 O   0  0  0  0  0  0  0  0  0  0  0  0
    7.4903   -2.2362   22.5666 N   0  0  0  0  0  0  0  0  0  0  0  0
    7.0957   -3.0316   23.0255 H   0  0  0  0  0  0  0  0  0  0  0  0
    6.7429   -1.7896   21.5253 C   0  0  0  0  0  0  0  0  0  0  0  0
    5.6489   -2.2659   21.3244 O   0  0  0  0  0  0  0  0  0  0  0  0
    5.3931    0.5114   19.9691 C   0  0  0  0  0  0  0  0  0  0  0  0
    4.9100    0.3842   20.9373 H   0  0  0  0  0  0  0  0  0  0  0  0
    4.8107    1.2845   18.9584 C   0  0  0  0  0  0  0  0  0  0  0  0
    3.8832    1.8228   19.1224 H   0  0  0  0  0  0  0  0  0  0  0  0
  1  2  1  0
  2  3  2  0
  3  4  1  0
  4  5  1  0
  4  6  2  0
  6  7  1  0
  7  8  1  0
  8  9  1  0
  8 10  2  0
 10 11  1  0
 11 12  1  0
 11 13  1  0
 11 14  1  0
 14 15  2  0
 15 16  1  0
 15 17  1  0
 17 18  1  0
 17 19  2  0
 19 20  1  0
 19 21  1  0
 21 22  1  0
 21 23  2  0
 23 24  1  0
 24 25  1  0
 25 26  1  0
 25 27  1  0
 25 28  1  0
 10 29  1  0
 29 30  2  0
 29 31  1  0
 31 32  1  0
 31 33  1  0
 33 34  2  0
  6 35  1  0
 35 36  1  0
 35 37  2  0
 37 38  1  0
 37  2  1  0
 33  7  1  0
 23 14  1  0
M  END
>  <cnnaffinity>  (1) 
-4.90797

>  <filename>  (1) 
COc1ccccc1Cc1cn(-c2cccnc2)c(=O)[nH]c1=O

$$$$
