
     RDKit          3D

 39 41  0  0  0  0  0  0  0  0999 V2000
    5.0119    1.7709   16.9719 H   0  0  0  0  0  0  0  0  0  0  0  0
    5.4537    1.2655   17.8281 C   0  0  0  0  0  0  0  0  0  0  0  0
    6.6085    0.6212   17.6043 N   0  0  0  0  0  0  0  0  0  0  0  0
    7.1733   -0.0004   18.6421 C   0  0  0  0  0  0  0  0  0  0  0  0
    8.0955   -0.5447   18.4490 H   0  0  0  0  0  0  0  0  0  0  0  0
    6.6495    0.0201   19.9397 C   0  0  0  0  0  0  0  0  0  0  0  0
    7.4333   -0.7028   20.9585 C   0  0  0  0  0  0  0  0  0  0  0  0
    8.2472   -1.6517   20.6667 N   0  0  0  0  0  0  0  0  0  0  0  0
    8.7736   -2.1743   21.9279 C   0  0  0  0  0  0  0  0  0  0  0  0
    9.8662   -2.2670   21.8824 H   0  0  0  0  0  0  0  0  0  0  0  0
    8.3822   -3.1873   22.1026 H   0  0  0  0  0  0  0  0  0  0  0  0
    8.3197   -1.2010   23.0364 C   0  0  0  0  0  0  0  0  0  0  0  0
    7.8575   -1.7065   23.8941 H   0  0  0  0  0  0  0  0  0  0  0  0
    9.1496   -0.5854   23.4209 H   0  0  0  0  0  0  0  0  0  0  0  0
    7.3457   -0.3787   22.3200 N   0  0  0  0  0  0  0  0  0  0  0  0
    6.9363    0.8712   22.8159 N   0  0  0  0  0  0  0  0  0  0  0  0
    6.5806    0.7799   23.7668 H   0  0  0  0  0  0  0  0  0  0  0  0
    7.9513    1.9282   22.6988 C   0  0  0  0  0  0  0  0  0  0  0  0
    8.7761    1.7946   23.4164 H   0  0  0  0  0  0  0  0  0  0  0  0
    8.3701    1.8228   21.6904 H   0  0  0  0  0  0  0  0  0  0  0  0
    7.3708    3.3192   22.7958 C   0  0  0  0  0  0  0  0  0  0  0  0
    6.7590    3.8456   21.6445 C   0  0  0  0  0  0  0  0  0  0  0  0
    6.6445    3.1748   20.7904 H   0  0  0  0  0  0  0  0  0  0  0  0
    6.3336    5.1677   21.6027 C   0  0  0  0  0  0  0  0  0  0  0  0
    5.9941    5.6914   20.7151 H   0  0  0  0  0  0  0  0  0  0  0  0
    6.4249    5.9671   22.7490 C   0  0  0  0  0  0  0  0  0  0  0  0
    5.9720    7.2376   22.5555 O   0  0  0  0  0  0  0  0  0  0  0  0
    5.7259    8.0882   23.6524 C   0  0  0  0  0  0  0  0  0  0  0  0
    6.6682    8.3880   24.1314 H   0  0  0  0  0  0  0  0  0  0  0  0
    5.2229    8.9721   23.2422 H   0  0  0  0  0  0  0  0  0  0  0  0
    5.0737    7.6002   24.3910 H   0  0  0  0  0  0  0  0  0  0  0  0
    6.9793    5.4486   23.9272 C   0  0  0  0  0  0  0  0  0  0  0  0
    7.0083    6.0504   24.8288 H   0  0  0  0  0  0  0  0  0  0  0  0
    7.4691    4.1309   23.9316 C   0  0  0  0  0  0  0  0  0  0  0  0
    7.9608    3.7520   24.8266 H   0  0  0  0  0  0  0  0  0  0  0  0
    5.4426    0.7046   20.1708 C   0  0  0  0  0  0  0  0  0  0  0  0
    5.0164    0.7845   21.1730 H   0  0  0  0  0  0  0  0  0  0  0  0
    4.8218    1.3046   19.0783 C   0  0  0  0  0  0  0  0  0  0  0  0
    3.8661    1.8082   19.1778 H   0  0  0  0  0  0  0  0  0  0  0  0
  1  2  1  0
  2  3  2  0
  3  4  1  0
  4  5  1  0
  4  6  2  0
  6  7  1  0
  7  8  2  0
  8  9  1  0
  9 10  1  0
  9 11  1  0
  9 12  1  0
 12 13  1  0
 12 14  1  0
 12 15  1  0
 15 16  1  0
 16 17  1  0
 16 18  1  0
 18 19  1  0
 18 20  1  0
 18 21  1  0
 21 22  2  0
 22 23  1  0
 22 24  1  0
 24 25  1  0
 24 26  2  0
 26 27  1  0
 27 28  1  0
 28 29  1  0
 28 30  1  0
 28 31  1  0
 26 32  1  0
 32 33  1  0
 32 34  2  0
 34 35  1  0
  6 36  1  0
 36 37  1  0
 36 38  2  0
 38 39  1  0
 38  2  1  0
 15  7  1  0
 34 21  1  0
M  END
>  <cnnaffinity>  (1) 
-4.72977

>  <filename>  (1) 
COc1ccc(CNN2CCN=C2c2cccnc2)cc1

$$$$
