
     RDKit          3D

 30 32  0  0  0  0  0  0  0  0999 V2000
    5.0028    1.7878   16.9403 H   0  0  0  0  0  0  0  0  0  0  0  0
    5.4578    1.2816   17.7922 C   0  0  0  0  0  0  0  0  0  0  0  0
    6.6208    0.6555   17.5585 N   0  0  0  0  0  0  0  0  0  0  0  0
    7.2103    0.0379   18.5868 C   0  0  0  0  0  0  0  0  0  0  0  0
    8.1558   -0.4526   18.3771 H   0  0  0  0  0  0  0  0  0  0  0  0
    6.6797   -0.0163   19.8854 C   0  0  0  0  0  0  0  0  0  0  0  0
    7.4182   -0.7464   20.9274 C   0  0  0  0  0  0  0  0  0  0  0  0
    8.7542   -1.0480   20.7402 N   0  0  0  0  0  0  0  0  0  0  0  0
    9.2386   -1.6150   21.8019 C   0  0  0  0  0  0  0  0  0  0  0  0
   10.6905   -1.9256   22.0368 C   0  0  0  0  0  0  0  0  0  0  0  0
   11.1671   -2.0769   21.0664 H   0  0  0  0  0  0  0  0  0  0  0  0
   10.7978   -2.8378   22.6355 H   0  0  0  0  0  0  0  0  0  0  0  0
   11.3812   -0.8068   22.6673 N   0  0  0  0  0  0  0  0  0  0  0  0
   12.0091    0.1233   21.8447 N   0  0  0  0  0  0  0  0  0  0  0  0
   12.2152    1.0990   22.6363 C   0  0  0  0  0  0  0  0  0  0  0  0
   12.8562    2.2068   22.3165 O   0  0  0  0  0  0  0  0  0  0  0  0
   13.2988    3.0632   23.3691 C   0  0  0  0  0  0  0  0  0  0  0  0
   13.9501    3.7916   22.8892 H   0  0  0  0  0  0  0  0  0  0  0  0
   12.4520    3.5717   23.8425 H   0  0  0  0  0  0  0  0  0  0  0  0
   13.8428    2.4733   24.1096 H   0  0  0  0  0  0  0  0  0  0  0  0
   11.7290    0.9649   23.8920 O   0  0  0  0  0  0  0  0  0  0  0  0
   11.1474   -0.2849   23.9181 C   0  0  0  0  0  0  0  0  0  0  0  0
   10.5939   -0.7532   24.8713 O   0  0  0  0  0  0  0  0  0  0  0  0
    8.0972   -1.9109   23.0772 S   0  0  0  0  0  0  0  0  0  0  0  0
    6.8998   -1.1723   22.1084 C   0  0  0  0  0  0  0  0  0  0  0  0
    5.8711   -1.1237   22.3994 H   0  0  0  0  0  0  0  0  0  0  0  0
    5.4629    0.6536   20.1157 C   0  0  0  0  0  0  0  0  0  0  0  0
    5.0073    0.6860   21.1069 H   0  0  0  0  0  0  0  0  0  0  0  0
    4.8446    1.3033   19.0491 C   0  0  0  0  0  0  0  0  0  0  0  0
    3.9110    1.8405   19.1747 H   0  0  0  0  0  0  0  0  0  0  0  0
  1  2  1  0
  2  3  2  0
  3  4  1  0
  4  5  1  0
  4  6  2  0
  6  7  1  0
  7  8  1  0
  8  9  2  0
  9 10  1  0
 10 11  1  0
 10 12  1  0
 10 13  1  0
 13 14  1  0
 14 15  2  0
 15 16  1  0
 16 17  1  0
 17 18  1  0
 17 19  1  0
 17 20  1  0
 15 21  1  0
 21 22  1  0
 22 23  2  0
  9 24  1  0
 24 25  1  0
 25 26  1  0
  6 27  1  0
 27 28  1  0
 27 29  2  0
 29 30  1  0
 29  2  1  0
 25  7  2  0
 22 13  1  0
M  END
>  <cnnaffinity>  (1) 
-5.15262

>  <filename>  (1) 
COc1nn(Cc2nc(-c3cccnc3)cs2)c(=O)o1

$$$$
