
     RDKit          3D

 48 51  0  0  0  0  0  0  0  0999 V2000
   13.2444   -1.8323   21.3517 C   0  0  0  0  0  0  0  0  0  0  0  0
   12.1126   -1.0252   21.1189 O   0  0  0  0  0  0  0  0  0  0  0  0
   11.8667    0.0592   21.9073 C   0  0  0  0  0  0  0  0  0  0  0  0
   12.7080    0.4915   22.9412 C   0  0  0  0  0  0  0  0  0  0  0  0
   12.4305    1.6926   23.6026 C   0  0  0  0  0  0  0  0  0  0  0  0
   11.3199    2.4718   23.2679 C   0  0  0  0  0  0  0  0  0  0  0  0
   11.0728    3.8224   23.8950 C   0  0  0  0  0  0  0  0  0  0  0  0
   11.7048    4.0161   24.7643 H   0  0  0  0  0  0  0  0  0  0  0  0
   11.2781    4.6334   23.1849 H   0  0  0  0  0  0  0  0  0  0  0  0
   10.0290    3.9131   24.2129 H   0  0  0  0  0  0  0  0  0  0  0  0
   10.4330    1.9579   22.3035 C   0  0  0  0  0  0  0  0  0  0  0  0
   10.6767    0.7667   21.6237 C   0  0  0  0  0  0  0  0  0  0  0  0
    9.6384    0.2001   20.6781 C   0  0  0  0  0  0  0  0  0  0  0  0
    8.5967   -0.6323   21.3479 C   0  0  0  0  0  0  0  0  0  0  0  0
    8.8010   -1.4565   22.3538 N   0  0  0  0  0  0  0  0  0  0  0  0
    7.5877   -2.0142   22.5467 C   0  0  0  0  0  0  0  0  0  0  0  0
    7.3634   -3.0022   23.6357 C   0  0  0  0  0  0  0  0  0  0  0  0
    6.3726   -2.5464   24.7273 C   0  0  0  0  0  0  0  0  0  0  0  0
    5.7592   -3.8586   25.2219 C   0  0  0  0  0  0  0  0  0  0  0  0
    6.0290   -4.8456   24.2382 O   0  0  0  0  0  0  0  0  0  0  0  0
    6.7459   -4.3172   23.1435 C   0  0  0  0  0  0  0  0  0  0  0  0
    6.0702   -4.1387   22.2926 H   0  0  0  0  0  0  0  0  0  0  0  0
    7.5044   -5.0534   22.8439 H   0  0  0  0  0  0  0  0  0  0  0  0
    6.2033   -4.1872   26.1707 H   0  0  0  0  0  0  0  0  0  0  0  0
    4.6720   -3.7718   25.3596 H   0  0  0  0  0  0  0  0  0  0  0  0
    5.6003   -1.9123   24.2865 H   0  0  0  0  0  0  0  0  0  0  0  0
    6.8563   -1.9699   25.5222 H   0  0  0  0  0  0  0  0  0  0  0  0
    8.3468   -3.1940   24.0730 H   0  0  0  0  0  0  0  0  0  0  0  0
    6.6430   -1.6057   21.7175 N   0  0  0  0  0  0  0  0  0  0  0  0
    7.3034   -0.7252   20.9232 N   0  0  0  0  0  0  0  0  0  0  0  0
    6.6269   -0.0341   19.8810 C   0  0  0  0  0  0  0  0  0  0  0  0
    5.4212    0.6200   20.1478 C   0  0  0  0  0  0  0  0  0  0  0  0
    4.8037    1.3061   19.0999 C   0  0  0  0  0  0  0  0  0  0  0  0
    5.3988    1.2969   17.8321 C   0  0  0  0  0  0  0  0  0  0  0  0
    6.5437    0.6501   17.5631 N   0  0  0  0  0  0  0  0  0  0  0  0
    7.1428    0.0082   18.5727 C   0  0  0  0  0  0  0  0  0  0  0  0
    8.0837   -0.4900   18.3372 H   0  0  0  0  0  0  0  0  0  0  0  0
    4.9386    1.8287   17.0032 H   0  0  0  0  0  0  0  0  0  0  0  0
    3.8782    1.8487   19.2586 H   0  0  0  0  0  0  0  0  0  0  0  0
    5.0012    0.5849   21.1536 H   0  0  0  0  0  0  0  0  0  0  0  0
   10.1263   -0.4712   19.9658 H   0  0  0  0  0  0  0  0  0  0  0  0
    9.1503    1.0074   20.1289 H   0  0  0  0  0  0  0  0  0  0  0  0
    9.5151    2.5026   22.0843 H   0  0  0  0  0  0  0  0  0  0  0  0
   13.0954    2.0124   24.3983 H   0  0  0  0  0  0  0  0  0  0  0  0
   13.5587   -0.1081   23.2443 H   0  0  0  0  0  0  0  0  0  0  0  0
   13.0530   -2.4892   22.2042 H   0  0  0  0  0  0  0  0  0  0  0  0
   14.1445   -1.2322   21.5233 H   0  0  0  0  0  0  0  0  0  0  0  0
   13.4051   -2.4261   20.4506 H   0  0  0  0  0  0  0  0  0  0  0  0
  1  2  1  0
  2  3  1  0
  3  4  2  0
  4  5  1  0
  5  6  2  0
  6  7  1  0
  7  8  1  0
  7  9  1  0
  7 10  1  0
  6 11  1  0
 11 12  2  0
 12 13  1  0
 13 14  1  0
 14 15  2  0
 15 16  1  0
 16 17  1  0
 17 18  1  0
 18 19  1  0
 19 20  1  0
 20 21  1  0
 21 22  1  0
 21 23  1  0
 19 24  1  0
 19 25  1  0
 18 26  1  0
 18 27  1  0
 17 28  1  0
 16 29  2  0
 29 30  1  0
 30 31  1  0
 31 32  2  0
 32 33  1  0
 33 34  2  0
 34 35  1  0
 35 36  2  0
 36 37  1  0
 34 38  1  0
 33 39  1  0
 32 40  1  0
 13 41  1  0
 13 42  1  0
 11 43  1  0
  5 44  1  0
  4 45  1  0
  1 46  1  0
  1 47  1  0
  1 48  1  0
 12  3  1  0
 30 14  1  0
 36 31  1  0
 21 17  1  0
M  END
>  <cnnaffinity>  (1) 
-6.51108

>  <filename>  (1) 
COc1ccc(C)cc1Cc1nc(C2CCOC2)nn1-c1cccnc1

$$$$
