
     RDKit          3D

 32 34  0  0  0  0  0  0  0  0999 V2000
    8.6086   -3.7052   21.4288 H   0  0  0  0  0  0  0  0  0  0  0  0
    8.3325   -2.6769   21.6520 C   0  0  0  0  0  0  0  0  0  0  0  0
    8.6068   -2.2426   22.8783 N   0  0  0  0  0  0  0  0  0  0  0  0
    8.2603   -0.9851   23.1313 C   0  0  0  0  0  0  0  0  0  0  0  0
    8.5113   -0.6138   24.1256 H   0  0  0  0  0  0  0  0  0  0  0  0
    7.6498   -0.1326   22.2096 C   0  0  0  0  0  0  0  0  0  0  0  0
    7.3724    1.3021   22.5596 C   0  0  0  0  0  0  0  0  0  0  0  0
    7.8233    2.3673   21.7433 C   0  0  0  0  0  0  0  0  0  0  0  0
    8.3841    2.1321   20.8400 H   0  0  0  0  0  0  0  0  0  0  0  0
    7.5975    3.6522   22.0144 N   0  0  0  0  0  0  0  0  0  0  0  0
    6.8897    3.9466   23.1158 C   0  0  0  0  0  0  0  0  0  0  0  0
    6.7240    5.0061   23.2923 H   0  0  0  0  0  0  0  0  0  0  0  0
    6.3896    2.9754   24.0079 C   0  0  0  0  0  0  0  0  0  0  0  0
    5.6811    3.2216   25.1433 O   0  0  0  0  0  0  0  0  0  0  0  0
    5.3715    4.5527   25.5326 C   0  0  0  0  0  0  0  0  0  0  0  0
    4.8077    4.4573   26.4600 H   0  0  0  0  0  0  0  0  0  0  0  0
    6.2689    5.1536   25.7257 H   0  0  0  0  0  0  0  0  0  0  0  0
    4.7497    5.0714   24.7925 H   0  0  0  0  0  0  0  0  0  0  0  0
    6.6524    1.6254   23.7116 C   0  0  0  0  0  0  0  0  0  0  0  0
    6.2737    0.8495   24.3781 H   0  0  0  0  0  0  0  0  0  0  0  0
    7.3826   -0.7340   20.9581 C   0  0  0  0  0  0  0  0  0  0  0  0
    6.6451   -0.0177   19.9066 C   0  0  0  0  0  0  0  0  0  0  0  0
    7.1704    0.0329   18.6111 C   0  0  0  0  0  0  0  0  0  0  0  0
    8.1209   -0.4415   18.3734 H   0  0  0  0  0  0  0  0  0  0  0  0
    6.5777    0.6696   17.5985 N   0  0  0  0  0  0  0  0  0  0  0  0
    5.4117    1.2861   17.8504 C   0  0  0  0  0  0  0  0  0  0  0  0
    4.9339    1.7777   17.0048 H   0  0  0  0  0  0  0  0  0  0  0  0
    4.8097    1.2992   19.1123 C   0  0  0  0  0  0  0  0  0  0  0  0
    3.8826    1.8374   19.2554 H   0  0  0  0  0  0  0  0  0  0  0  0
    5.4343    0.6413   20.1676 C   0  0  0  0  0  0  0  0  0  0  0  0
    5.0078    0.6433   21.1749 H   0  0  0  0  0  0  0  0  0  0  0  0
    7.7616   -1.9827   20.6747 N   0  0  0  0  0  0  0  0  0  0  0  0
  1  2  1  0
  2  3  2  0
  3  4  1  0
  4  5  1  0
  4  6  2  0
  6  7  1  0
  7  8  2  0
  8  9  1  0
  8 10  1  0
 10 11  2  0
 11 12  1  0
 11 13  1  0
 13 14  1  0
 14 15  1  0
 15 16  1  0
 15 17  1  0
 15 18  1  0
 13 19  2  0
 19 20  1  0
  6 21  1  0
 21 22  1  0
 22 23  2  0
 23 24  1  0
 23 25  1  0
 25 26  2  0
 26 27  1  0
 26 28  1  0
 28 29  1  0
 28 30  2  0
 30 31  1  0
 21 32  2  0
 32  2  1  0
 19  7  1  0
 30 22  1  0
M  END
>  <cnnaffinity>  (1) 
-5.06249

>  <filename>  (1) 
COc1cncc(-c2cncnc2-c2cccnc2)c1

$$$$
