
     RDKit          3D

 37 39  0  0  0  0  0  0  0  0999 V2000
    4.9106    1.8106   16.9747 H   0  0  0  0  0  0  0  0  0  0  0  0
    5.3889    1.3000   17.8071 C   0  0  0  0  0  0  0  0  0  0  0  0
    6.5436    0.6710   17.5343 N   0  0  0  0  0  0  0  0  0  0  0  0
    7.1782    0.0569   18.5409 C   0  0  0  0  0  0  0  0  0  0  0  0
    8.1261   -0.4236   18.3078 H   0  0  0  0  0  0  0  0  0  0  0  0
    6.6900    0.0213   19.8637 C   0  0  0  0  0  0  0  0  0  0  0  0
    7.3845   -0.6476   20.9135 N   0  0  0  0  0  0  0  0  0  0  0  0
    6.7768   -1.4482   21.8693 C   0  0  0  0  0  0  0  0  0  0  0  0
    5.7219   -1.6542   21.8441 H   0  0  0  0  0  0  0  0  0  0  0  0
    7.7219   -1.9014   22.7294 C   0  0  0  0  0  0  0  0  0  0  0  0
    7.6011   -2.7436   23.9162 C   0  0  0  0  0  0  0  0  0  0  0  0
    8.4557   -2.6101   25.0307 C   0  0  0  0  0  0  0  0  0  0  0  0
    9.2216   -1.8366   25.0260 H   0  0  0  0  0  0  0  0  0  0  0  0
    8.3362   -3.4334   26.1508 C   0  0  0  0  0  0  0  0  0  0  0  0
    8.9829   -3.2932   27.0090 H   0  0  0  0  0  0  0  0  0  0  0  0
    7.3453   -4.4283   26.1649 C   0  0  0  0  0  0  0  0  0  0  0  0
    7.1465   -5.3264   27.1614 O   0  0  0  0  0  0  0  0  0  0  0  0
    7.9893   -5.2611   28.2877 C   0  0  0  0  0  0  0  0  0  0  0  0
    8.0087   -4.2422   28.6678 H   0  0  0  0  0  0  0  0  0  0  0  0
    9.0163   -5.5846   28.0615 H   0  0  0  0  0  0  0  0  0  0  0  0
    7.5522   -5.9045   29.0508 H   0  0  0  0  0  0  0  0  0  0  0  0
    6.4473   -4.5504   25.1065 C   0  0  0  0  0  0  0  0  0  0  0  0
    5.6514   -5.2806   25.2057 H   0  0  0  0  0  0  0  0  0  0  0  0
    6.5808   -3.7362   23.9840 C   0  0  0  0  0  0  0  0  0  0  0  0
    5.7627   -3.8815   22.9063 O   0  0  0  0  0  0  0  0  0  0  0  0
    4.7543   -4.8740   22.9513 C   0  0  0  0  0  0  0  0  0  0  0  0
    5.1796   -5.8745   23.1153 H   0  0  0  0  0  0  0  0  0  0  0  0
    4.2538   -4.8474   21.9848 H   0  0  0  0  0  0  0  0  0  0  0  0
    4.0308   -4.6580   23.7489 H   0  0  0  0  0  0  0  0  0  0  0  0
    8.9286   -1.3556   22.3012 N   0  0  0  0  0  0  0  0  0  0  0  0
    9.8611   -1.6493   22.5232 H   0  0  0  0  0  0  0  0  0  0  0  0
    8.7708   -0.6239   21.1532 C   0  0  0  0  0  0  0  0  0  0  0  0
    9.6588   -0.1069   20.5108 O   0  0  0  0  0  0  0  0  0  0  0  0
    5.4744    0.6595   20.1284 C   0  0  0  0  0  0  0  0  0  0  0  0
    5.0694    0.6645   21.1410 H   0  0  0  0  0  0  0  0  0  0  0  0
    4.8175    1.3129   19.0830 C   0  0  0  0  0  0  0  0  0  0  0  0
    3.8827    1.8345   19.2440 H   0  0  0  0  0  0  0  0  0  0  0  0
  1  2  1  0
  2  3  2  0
  3  4  1  0
  4  5  1  0
  4  6  2  0
  6  7  1  0
  7  8  1  0
  8  9  1  0
  8 10  2  0
 10 11  1  0
 11 12  2  0
 12 13  1  0
 12 14  1  0
 14 15  1  0
 14 16  2  0
 16 17  1  0
 17 18  1  0
 18 19  1  0
 18 20  1  0
 18 21  1  0
 16 22  1  0
 22 23  1  0
 22 24  2  0
 24 25  1  0
 25 26  1  0
 26 27  1  0
 26 28  1  0
 26 29  1  0
 10 30  1  0
 30 31  1  0
 30 32  1  0
 32 33  2  0
  6 34  1  0
 34 35  1  0
 34 36  2  0
 36 37  1  0
 36  2  1  0
 32  7  1  0
 24 11  1  0
M  END
>  <cnnaffinity>  (1) 
-5.34077

>  <filename>  (1) 
COc1ccc(-c2cn(-c3cccnc3)c(=O)[nH]2)c(OC)c1

$$$$
