
     RDKit          3D

 38 40  0  0  0  0  0  0  0  0999 V2000
    4.9364    1.8005   16.9901 H   0  0  0  0  0  0  0  0  0  0  0  0
    5.3912    1.2943   17.8402 C   0  0  0  0  0  0  0  0  0  0  0  0
    6.5444    0.6620   17.5852 N   0  0  0  0  0  0  0  0  0  0  0  0
    7.1367    0.0313   18.6021 C   0  0  0  0  0  0  0  0  0  0  0  0
    8.1082   -0.4150   18.3978 H   0  0  0  0  0  0  0  0  0  0  0  0
    6.6017   -0.0368   19.9035 C   0  0  0  0  0  0  0  0  0  0  0  0
    7.3268   -0.7567   20.9941 C   0  0  0  0  0  0  0  0  0  0  0  0
    6.5934   -1.5306   21.7528 N   0  0  0  0  0  0  0  0  0  0  0  0
    7.1819   -2.1906   22.8013 N   0  0  0  0  0  0  0  0  0  0  0  0
    6.3041   -2.9968   23.6174 C   0  0  0  0  0  0  0  0  0  0  0  0
    5.4179   -3.8745   22.9977 C   0  0  0  0  0  0  0  0  0  0  0  0
    5.4179   -3.8781   21.9120 H   0  0  0  0  0  0  0  0  0  0  0  0
    4.5801   -4.7239   23.7398 C   0  0  0  0  0  0  0  0  0  0  0  0
    3.9098   -5.4199   23.2483 H   0  0  0  0  0  0  0  0  0  0  0  0
    4.6070   -4.6668   25.1378 C   0  0  0  0  0  0  0  0  0  0  0  0
    3.8397   -5.4288   25.9623 O   0  0  0  0  0  0  0  0  0  0  0  0
    2.9217   -6.3714   25.4382 C   0  0  0  0  0  0  0  0  0  0  0  0
    2.4554   -6.8244   26.3158 H   0  0  0  0  0  0  0  0  0  0  0  0
    3.4246   -7.1499   24.8460 H   0  0  0  0  0  0  0  0  0  0  0  0
    2.1496   -5.8934   24.8173 H   0  0  0  0  0  0  0  0  0  0  0  0
    5.4675   -3.7682   25.7922 C   0  0  0  0  0  0  0  0  0  0  0  0
    5.4598   -3.7496   26.8781 H   0  0  0  0  0  0  0  0  0  0  0  0
    6.3078   -2.9322   25.0479 C   0  0  0  0  0  0  0  0  0  0  0  0
    7.1472   -2.0216   25.5991 O   0  0  0  0  0  0  0  0  0  0  0  0
    7.2512   -1.8496   27.0002 C   0  0  0  0  0  0  0  0  0  0  0  0
    7.9911   -1.0555   27.1152 H   0  0  0  0  0  0  0  0  0  0  0  0
    7.6094   -2.7616   27.4983 H   0  0  0  0  0  0  0  0  0  0  0  0
    6.3002   -1.5318   27.4518 H   0  0  0  0  0  0  0  0  0  0  0  0
    8.5367   -2.1118   23.0287 C   0  0  0  0  0  0  0  0  0  0  0  0
    8.8821   -2.7168   23.8654 H   0  0  0  0  0  0  0  0  0  0  0  0
    9.3574   -1.3620   22.2741 C   0  0  0  0  0  0  0  0  0  0  0  0
   10.4203   -1.2853   22.4395 H   0  0  0  0  0  0  0  0  0  0  0  0
    8.8149   -0.5695   21.1840 C   0  0  0  0  0  0  0  0  0  0  0  0
    9.5118    0.1717   20.4984 O   0  0  0  0  0  0  0  0  0  0  0  0
    5.3946    0.6263   20.1534 C   0  0  0  0  0  0  0  0  0  0  0  0
    4.9795    0.6145   21.1620 H   0  0  0  0  0  0  0  0  0  0  0  0
    4.7845    1.3153   19.1017 C   0  0  0  0  0  0  0  0  0  0  0  0
    3.8622    1.8689   19.2354 H   0  0  0  0  0  0  0  0  0  0  0  0
  1  2  1  0
  2  3  2  0
  3  4  1  0
  4  5  1  0
  4  6  2  0
  6  7  1  0
  7  8  2  0
  8  9  1  0
  9 10  1  0
 10 11  2  0
 11 12  1  0
 11 13  1  0
 13 14  1  0
 13 15  2  0
 15 16  1  0
 16 17  1  0
 17 18  1  0
 17 19  1  0
 17 20  1  0
 15 21  1  0
 21 22  1  0
 21 23  2  0
 23 24  1  0
 24 25  1  0
 25 26  1  0
 25 27  1  0
 25 28  1  0
  9 29  1  0
 29 30  1  0
 29 31  2  0
 31 32  1  0
 31 33  1  0
 33 34  2  0
  6 35  1  0
 35 36  1  0
 35 37  2  0
 37 38  1  0
 37  2  1  0
 33  7  1  0
 23 10  1  0
M  END
>  <cnnaffinity>  (1) 
-5.44813

>  <filename>  (1) 
COc1ccc(-n2ccc(=O)c(-c3cccnc3)n2)c(OC)c1

$$$$
