
     RDKit          3D

 40 42  0  0  0  0  0  0  0  0999 V2000
    4.9645    1.7909   16.9714 H   0  0  0  0  0  0  0  0  0  0  0  0
    5.4299    1.2649   17.8029 C   0  0  0  0  0  0  0  0  0  0  0  0
    6.5658    0.6041   17.5233 N   0  0  0  0  0  0  0  0  0  0  0  0
    7.1753   -0.0255   18.5353 C   0  0  0  0  0  0  0  0  0  0  0  0
    8.1199   -0.5093   18.3051 H   0  0  0  0  0  0  0  0  0  0  0  0
    6.6791   -0.0613   19.8548 C   0  0  0  0  0  0  0  0  0  0  0  0
    7.3820   -0.7319   20.9191 N   0  0  0  0  0  0  0  0  0  0  0  0
    6.7488   -1.7651   21.5950 C   0  0  0  0  0  0  0  0  0  0  0  0
    5.7156   -1.9627   21.3323 H   0  0  0  0  0  0  0  0  0  0  0  0
    7.3789   -2.5197   22.5458 C   0  0  0  0  0  0  0  0  0  0  0  0
    6.7517   -3.6695   23.0865 N   0  0  0  0  0  0  0  0  0  0  0  0
    7.4991   -4.9150   23.2226 C   0  0  0  0  0  0  0  0  0  0  0  0
    7.9335   -5.0317   24.2387 H   0  0  0  0  0  0  0  0  0  0  0  0
    8.3373   -4.9053   22.5221 H   0  0  0  0  0  0  0  0  0  0  0  0
    6.5628   -6.0978   22.9649 C   0  0  0  0  0  0  0  0  0  0  0  0
    7.1232   -7.0393   23.0153 H   0  0  0  0  0  0  0  0  0  0  0  0
    6.1176   -6.0320   21.9641 H   0  0  0  0  0  0  0  0  0  0  0  0
    5.4216   -6.0533   23.9801 C   0  0  0  0  0  0  0  0  0  0  0  0
    5.8390   -6.1470   25.0006 H   0  0  0  0  0  0  0  0  0  0  0  0
    4.5695   -7.1519   23.7311 O   0  0  0  0  0  0  0  0  0  0  0  0
    3.6501   -7.4149   24.7678 C   0  0  0  0  0  0  0  0  0  0  0  0
    4.1666   -7.6711   25.7077 H   0  0  0  0  0  0  0  0  0  0  0  0
    2.9816   -6.5613   24.9648 H   0  0  0  0  0  0  0  0  0  0  0  0
    3.0418   -8.2678   24.4547 H   0  0  0  0  0  0  0  0  0  0  0  0
    4.6885   -4.6944   23.8884 C   0  0  0  0  0  0  0  0  0  0  0  0
    4.1978   -4.6192   22.9091 H   0  0  0  0  0  0  0  0  0  0  0  0
    3.9054   -4.6215   24.6533 H   0  0  0  0  0  0  0  0  0  0  0  0
    5.6847   -3.5462   24.0782 C   0  0  0  0  0  0  0  0  0  0  0  0
    5.1950   -2.5714   23.9851 H   0  0  0  0  0  0  0  0  0  0  0  0
    6.0836   -3.5908   25.1131 H   0  0  0  0  0  0  0  0  0  0  0  0
    8.7029   -2.1207   22.9331 C   0  0  0  0  0  0  0  0  0  0  0  0
    9.1815   -2.6852   23.7309 H   0  0  0  0  0  0  0  0  0  0  0  0
    9.3240   -1.0666   22.3372 C   0  0  0  0  0  0  0  0  0  0  0  0
   10.3113   -0.7108   22.5903 H   0  0  0  0  0  0  0  0  0  0  0  0
    8.7224   -0.3178   21.2477 C   0  0  0  0  0  0  0  0  0  0  0  0
    9.2916    0.5792   20.6469 O   0  0  0  0  0  0  0  0  0  0  0  0
    5.4878    0.6180   20.1270 C   0  0  0  0  0  0  0  0  0  0  0  0
    5.1134    0.6320   21.1524 H   0  0  0  0  0  0  0  0  0  0  0  0
    4.8541    1.2959   19.0784 C   0  0  0  0  0  0  0  0  0  0  0  0
    3.9409    1.8579   19.2399 H   0  0  0  0  0  0  0  0  0  0  0  0
  1  2  1  0
  2  3  2  0
  3  4  1  0
  4  5  1  0
  4  6  2  0
  6  7  1  0
  7  8  1  0
  8  9  1  0
  8 10  2  0
 10 11  1  0
 11 12  1  0
 12 13  1  0
 12 14  1  0
 12 15  1  0
 15 16  1  0
 15 17  1  0
 15 18  1  0
 18 19  1  0
 18 20  1  0
 20 21  1  0
 21 22  1  0
 21 23  1  0
 21 24  1  0
 18 25  1  0
 25 26  1  0
 25 27  1  0
 25 28  1  0
 28 29  1  0
 28 30  1  0
 10 31  1  0
 31 32  1  0
 31 33  2  0
 33 34  1  0
 33 35  1  0
 35 36  2  0
  6 37  1  0
 37 38  1  0
 37 39  2  0
 39 40  1  0
 39  2  1  0
 35  7  1  0
 28 11  1  0
M  END
>  <cnnaffinity>  (1) 
-5.60988

>  <filename>  (1) 
COC1CCN(c2ccc(=O)n(-c3cccnc3)c2)CC1

$$$$
