
     RDKit          3D

 48 52  0  0  0  0  0  0  0  0999 V2000
    8.4260    2.9996   26.1398 C   0  0  0  0  0  0  0  0  0  0  0  0
    7.2767    2.5491   25.4555 O   0  0  0  0  0  0  0  0  0  0  0  0
    6.2988    3.4191   25.0619 C   0  0  0  0  0  0  0  0  0  0  0  0
    6.1315    4.6963   25.6233 C   0  0  0  0  0  0  0  0  0  0  0  0
    5.0701    5.5115   25.2047 C   0  0  0  0  0  0  0  0  0  0  0  0
    4.1931    5.0644   24.2176 C   0  0  0  0  0  0  0  0  0  0  0  0
    4.3786    3.7941   23.6551 C   0  0  0  0  0  0  0  0  0  0  0  0
    5.4079    2.9389   24.0708 C   0  0  0  0  0  0  0  0  0  0  0  0
    5.5281    1.5297   23.5077 C   0  0  0  0  0  0  0  0  0  0  0  0
    6.8177    1.2798   22.6891 C   0  0  0  0  0  0  0  0  0  0  0  0
    7.0325   -0.1377   22.2523 C   0  0  0  0  0  0  0  0  0  0  0  0
    7.6632   -1.0226   22.9990 N   0  0  0  0  0  0  0  0  0  0  0  0
    7.7115   -2.1335   22.2194 C   0  0  0  0  0  0  0  0  0  0  0  0
    8.5577   -3.3055   22.5706 C   0  0  0  0  0  0  0  0  0  0  0  0
    8.0894   -4.7501   22.4042 C   0  0  0  0  0  0  0  0  0  0  0  0
    8.3889   -4.1874   23.7693 C   0  0  0  0  0  0  0  0  0  0  0  0
    7.7886   -4.1574   25.1312 C   0  0  0  0  0  0  0  0  0  0  0  0
    9.2642   -4.5160   24.9322 C   0  0  0  0  0  0  0  0  0  0  0  0
   10.0094   -3.7823   25.2434 H   0  0  0  0  0  0  0  0  0  0  0  0
    9.5580   -5.5562   25.0731 H   0  0  0  0  0  0  0  0  0  0  0  0
    7.1181   -4.9737   25.3958 H   0  0  0  0  0  0  0  0  0  0  0  0
    7.5495   -3.1786   25.5424 H   0  0  0  0  0  0  0  0  0  0  0  0
    7.0527   -4.9416   22.1315 H   0  0  0  0  0  0  0  0  0  0  0  0
    8.7829   -5.4980   22.0180 H   0  0  0  0  0  0  0  0  0  0  0  0
    9.6005   -3.0845   22.3305 H   0  0  0  0  0  0  0  0  0  0  0  0
    7.1735   -1.9866   21.0236 N   0  0  0  0  0  0  0  0  0  0  0  0
    6.7106   -0.7044   21.0444 N   0  0  0  0  0  0  0  0  0  0  0  0
    6.2462   -0.1159   19.8363 C   0  0  0  0  0  0  0  0  0  0  0  0
    5.3157    0.9315   19.8181 C   0  0  0  0  0  0  0  0  0  0  0  0
    5.0085    1.5150   18.5836 C   0  0  0  0  0  0  0  0  0  0  0  0
    5.6307    1.0398   17.4297 C   0  0  0  0  0  0  0  0  0  0  0  0
    6.4891    0.0039   17.4360 N   0  0  0  0  0  0  0  0  0  0  0  0
    6.7664   -0.5681   18.6087 C   0  0  0  0  0  0  0  0  0  0  0  0
    7.4545   -1.4104   18.5915 H   0  0  0  0  0  0  0  0  0  0  0  0
    5.4470    1.5040   16.4644 H   0  0  0  0  0  0  0  0  0  0  0  0
    4.3124    2.3454   18.5135 H   0  0  0  0  0  0  0  0  0  0  0  0
    4.8658    1.2917   20.7399 H   0  0  0  0  0  0  0  0  0  0  0  0
    6.8625    1.9666   21.8358 H   0  0  0  0  0  0  0  0  0  0  0  0
    7.6706    1.5175   23.3288 H   0  0  0  0  0  0  0  0  0  0  0  0
    4.6512    1.3278   22.8777 H   0  0  0  0  0  0  0  0  0  0  0  0
    5.4834    0.8032   24.3302 H   0  0  0  0  0  0  0  0  0  0  0  0
    3.7131    3.4582   22.8636 H   0  0  0  0  0  0  0  0  0  0  0  0
    3.3744    5.6959   23.8785 H   0  0  0  0  0  0  0  0  0  0  0  0
    4.9388    6.4961   25.6517 H   0  0  0  0  0  0  0  0  0  0  0  0
    6.8390    5.0455   26.3688 H   0  0  0  0  0  0  0  0  0  0  0  0
    9.1156    2.1539   26.1177 H   0  0  0  0  0  0  0  0  0  0  0  0
    8.8934    3.8631   25.6458 H   0  0  0  0  0  0  0  0  0  0  0  0
    8.2067    3.2557   27.1845 H   0  0  0  0  0  0  0  0  0  0  0  0
  1  2  1  0
  2  3  1  0
  3  4  2  0
  4  5  1  0
  5  6  2  0
  6  7  1  0
  7  8  2  0
  8  9  1  0
  9 10  1  0
 10 11  1  0
 11 12  2  0
 12 13  1  0
 13 14  1  0
 14 15  1  0
 15 16  1  0
 16 17  1  0
 17 18  1  0
 18 19  1  0
 18 20  1  0
 17 21  1  0
 17 22  1  0
 15 23  1  0
 15 24  1  0
 14 25  1  0
 13 26  2  0
 26 27  1  0
 27 28  1  0
 28 29  2  0
 29 30  1  0
 30 31  2  0
 31 32  1  0
 32 33  2  0
 33 34  1  0
 31 35  1  0
 30 36  1  0
 29 37  1  0
 10 38  1  0
 10 39  1  0
  9 40  1  0
  9 41  1  0
  7 42  1  0
  6 43  1  0
  5 44  1  0
  4 45  1  0
  1 46  1  0
  1 47  1  0
  1 48  1  0
  8  3  1  0
 27 11  1  0
 33 28  1  0
 16 14  1  0
 18 16  1  0
M  END
>  <cnnaffinity>  (1) 
-5.40856

>  <filename>  (1) 
COc1ccccc1CCc1nc(C2CC23CC3)nn1-c1cccnc1

$$$$
