
     RDKit          3D

 49 52  0  0  0  0  0  0  0  0999 V2000
    8.8925    2.4640   21.5496 C   0  0  0  0  0  0  0  0  0  0  0  0
    9.7353    1.4222   21.9860 O   0  0  0  0  0  0  0  0  0  0  0  0
    9.9965    1.2575   23.3111 C   0  0  0  0  0  0  0  0  0  0  0  0
    9.5309    2.1276   24.3129 C   0  0  0  0  0  0  0  0  0  0  0  0
    9.7467    1.8334   25.6651 C   0  0  0  0  0  0  0  0  0  0  0  0
   10.5236    0.7190   26.0086 C   0  0  0  0  0  0  0  0  0  0  0  0
   11.0676   -0.0757   25.0000 C   0  0  0  0  0  0  0  0  0  0  0  0
   10.8046    0.1402   23.6432 C   0  0  0  0  0  0  0  0  0  0  0  0
   11.2774   -0.8319   22.5743 C   0  0  0  0  0  0  0  0  0  0  0  0
   10.2825   -1.9979   22.3086 C   0  0  0  0  0  0  0  0  0  0  0  0
    8.8998   -1.5387   21.9511 C   0  0  0  0  0  0  0  0  0  0  0  0
    8.5350   -1.1532   20.7494 N   0  0  0  0  0  0  0  0  0  0  0  0
    7.3084   -0.6036   20.9557 C   0  0  0  0  0  0  0  0  0  0  0  0
    6.5656    0.0499   19.8821 C   0  0  0  0  0  0  0  0  0  0  0  0
    5.3373    0.7083   20.0689 C   0  0  0  0  0  0  0  0  0  0  0  0
    4.7773    1.3525   18.9691 C   0  0  0  0  0  0  0  0  0  0  0  0
    5.4476    1.3065   17.7387 C   0  0  0  0  0  0  0  0  0  0  0  0
    6.6055    0.6557   17.5527 N   0  0  0  0  0  0  0  0  0  0  0  0
    7.1492    0.0498   18.6105 C   0  0  0  0  0  0  0  0  0  0  0  0
    8.0918   -0.4668   18.4380 H   0  0  0  0  0  0  0  0  0  0  0  0
    5.0379    1.8083   16.8651 H   0  0  0  0  0  0  0  0  0  0  0  0
    3.8467    1.9046   19.0459 H   0  0  0  0  0  0  0  0  0  0  0  0
    4.8453    0.7162   21.0465 H   0  0  0  0  0  0  0  0  0  0  0  0
    6.8794   -0.6653   22.1980 N   0  0  0  0  0  0  0  0  0  0  0  0
    7.8810   -1.3200   22.8377 N   0  0  0  0  0  0  0  0  0  0  0  0
    7.7657   -1.5774   24.2334 C   0  0  0  0  0  0  0  0  0  0  0  0
    7.4472   -0.5309   25.1001 C   0  0  0  0  0  0  0  0  0  0  0  0
    7.4636   -0.7538   26.4823 C   0  0  0  0  0  0  0  0  0  0  0  0
    7.2014    0.3653   27.4690 C   0  0  0  0  0  0  0  0  0  0  0  0
    6.7690    1.2427   26.9763 H   0  0  0  0  0  0  0  0  0  0  0  0
    8.1257    0.6911   27.9619 H   0  0  0  0  0  0  0  0  0  0  0  0
    6.5110    0.0594   28.2617 H   0  0  0  0  0  0  0  0  0  0  0  0
    7.7581   -2.0652   26.9085 C   0  0  0  0  0  0  0  0  0  0  0  0
    7.9614   -3.0985   26.0832 N   0  0  0  0  0  0  0  0  0  0  0  0
    7.9502   -2.8608   24.7669 C   0  0  0  0  0  0  0  0  0  0  0  0
    8.0949   -3.7257   24.1181 H   0  0  0  0  0  0  0  0  0  0  0  0
    7.8276   -2.2982   27.9644 H   0  0  0  0  0  0  0  0  0  0  0  0
    7.2233    0.4563   24.6922 H   0  0  0  0  0  0  0  0  0  0  0  0
   10.2527   -2.6769   23.1659 H   0  0  0  0  0  0  0  0  0  0  0  0
   10.6432   -2.5829   21.4627 H   0  0  0  0  0  0  0  0  0  0  0  0
   12.2474   -1.2582   22.8454 H   0  0  0  0  0  0  0  0  0  0  0  0
   11.4315   -0.2977   21.6302 H   0  0  0  0  0  0  0  0  0  0  0  0
   11.7175   -0.8883   25.2944 H   0  0  0  0  0  0  0  0  0  0  0  0
   10.7288    0.4168   27.0335 H   0  0  0  0  0  0  0  0  0  0  0  0
    9.2996    2.4728   26.4272 H   0  0  0  0  0  0  0  0  0  0  0  0
    9.0104    3.0349   24.0246 H   0  0  0  0  0  0  0  0  0  0  0  0
    7.8946    2.4086   22.0089 H   0  0  0  0  0  0  0  0  0  0  0  0
    8.8014    2.3076   20.4755 H   0  0  0  0  0  0  0  0  0  0  0  0
    9.3371    3.4482   21.7503 H   0  0  0  0  0  0  0  0  0  0  0  0
  1  2  1  0
  2  3  1  0
  3  4  2  0
  4  5  1  0
  5  6  2  0
  6  7  1  0
  7  8  2  0
  8  9  1  0
  9 10  1  0
 10 11  1  0
 11 12  2  0
 12 13  1  0
 13 14  1  0
 14 15  2  0
 15 16  1  0
 16 17  2  0
 17 18  1  0
 18 19  2  0
 19 20  1  0
 17 21  1  0
 16 22  1  0
 15 23  1  0
 13 24  2  0
 24 25  1  0
 25 26  1  0
 26 27  2  0
 27 28  1  0
 28 29  1  0
 29 30  1  0
 29 31  1  0
 29 32  1  0
 28 33  2  0
 33 34  1  0
 34 35  2  0
 35 36  1  0
 33 37  1  0
 27 38  1  0
 10 39  1  0
 10 40  1  0
  9 41  1  0
  9 42  1  0
  7 43  1  0
  6 44  1  0
  5 45  1  0
  4 46  1  0
  1 47  1  0
  1 48  1  0
  1 49  1  0
  8  3  1  0
 25 11  1  0
 35 26  1  0
 19 14  1  0
M  END
>  <cnnaffinity>  (1) 
-6.12832

>  <filename>  (1) 
COc1ccccc1CCc1nc(-c2cccnc2)nn1-c1cncc(C)c1

$$$$
