
     RDKit          3D

 48 51  0  0  0  0  0  0  0  0999 V2000
    5.8160    1.2185   23.8892 C   0  0  0  0  0  0  0  0  0  0  0  0
    6.8687    1.6645   23.0509 O   0  0  0  0  0  0  0  0  0  0  0  0
    8.1131    1.8071   23.6107 C   0  0  0  0  0  0  0  0  0  0  0  0
    8.3498    1.5947   24.9815 C   0  0  0  0  0  0  0  0  0  0  0  0
    9.6529    1.6550   25.4885 C   0  0  0  0  0  0  0  0  0  0  0  0
   10.7221    2.0045   24.6648 C   0  0  0  0  0  0  0  0  0  0  0  0
   10.4753    2.2554   23.3130 C   0  0  0  0  0  0  0  0  0  0  0  0
    9.1938    2.1125   22.7483 C   0  0  0  0  0  0  0  0  0  0  0  0
    9.0769    1.9841   21.2418 C   0  0  0  0  0  0  0  0  0  0  0  0
    9.4938    0.5500   20.8170 C   0  0  0  0  0  0  0  0  0  0  0  0
    8.6061   -0.5233   21.3679 C   0  0  0  0  0  0  0  0  0  0  0  0
    8.8712   -1.3764   22.3421 N   0  0  0  0  0  0  0  0  0  0  0  0
    7.7036   -2.0510   22.4897 C   0  0  0  0  0  0  0  0  0  0  0  0
    7.4924   -3.1005   23.5337 C   0  0  0  0  0  0  0  0  0  0  0  0
    6.9949   -4.4781   23.0296 C   0  0  0  0  0  0  0  0  0  0  0  0
    6.2610   -5.0485   24.2548 C   0  0  0  0  0  0  0  0  0  0  0  0
    6.0143   -3.9611   25.1361 O   0  0  0  0  0  0  0  0  0  0  0  0
    6.3900   -2.7355   24.5425 C   0  0  0  0  0  0  0  0  0  0  0  0
    6.7283   -2.0576   25.3389 H   0  0  0  0  0  0  0  0  0  0  0  0
    5.5228   -2.2807   24.0363 H   0  0  0  0  0  0  0  0  0  0  0  0
    6.8718   -5.7851   24.7930 H   0  0  0  0  0  0  0  0  0  0  0  0
    5.3091   -5.5322   23.9857 H   0  0  0  0  0  0  0  0  0  0  0  0
    7.8041   -5.1308   22.6861 H   0  0  0  0  0  0  0  0  0  0  0  0
    6.2986   -4.3472   22.1932 H   0  0  0  0  0  0  0  0  0  0  0  0
    8.4368   -3.2192   24.0732 H   0  0  0  0  0  0  0  0  0  0  0  0
    6.7410   -1.6825   21.6595 N   0  0  0  0  0  0  0  0  0  0  0  0
    7.3297   -0.7013   20.9270 N   0  0  0  0  0  0  0  0  0  0  0  0
    6.6237   -0.0449   19.8844 C   0  0  0  0  0  0  0  0  0  0  0  0
    5.4467    0.6548   20.1648 C   0  0  0  0  0  0  0  0  0  0  0  0
    4.8165    1.3389   19.1195 C   0  0  0  0  0  0  0  0  0  0  0  0
    5.3879    1.2905   17.8415 C   0  0  0  0  0  0  0  0  0  0  0  0
    6.5040    0.5993   17.5587 N   0  0  0  0  0  0  0  0  0  0  0  0
    7.0980   -0.0618   18.5588 C   0  0  0  0  0  0  0  0  0  0  0  0
    7.9896   -0.6374   18.3043 H   0  0  0  0  0  0  0  0  0  0  0  0
    4.9311    1.8165   17.0087 H   0  0  0  0  0  0  0  0  0  0  0  0
    3.9037    1.9047   19.2812 H   0  0  0  0  0  0  0  0  0  0  0  0
    5.0641    0.6764   21.1857 H   0  0  0  0  0  0  0  0  0  0  0  0
    9.5212    0.4713   19.7292 H   0  0  0  0  0  0  0  0  0  0  0  0
   10.5062    0.3468   21.1780 H   0  0  0  0  0  0  0  0  0  0  0  0
    8.0667    2.2138   20.8808 H   0  0  0  0  0  0  0  0  0  0  0  0
    9.7487    2.7024   20.7634 H   0  0  0  0  0  0  0  0  0  0  0  0
   11.3070    2.5099   22.6545 H   0  0  0  0  0  0  0  0  0  0  0  0
   11.7376    2.0433   25.0572 H   0  0  0  0  0  0  0  0  0  0  0  0
    9.8292    1.3941   26.5233 H   0  0  0  0  0  0  0  0  0  0  0  0
    7.5209    1.3771   25.6453 H   0  0  0  0  0  0  0  0  0  0  0  0
    6.0501    0.2491   24.3535 H   0  0  0  0  0  0  0  0  0  0  0  0
    4.9385    1.0959   23.2572 H   0  0  0  0  0  0  0  0  0  0  0  0
    5.5873    1.9490   24.6795 H   0  0  0  0  0  0  0  0  0  0  0  0
  1  2  1  0
  2  3  1  0
  3  4  2  0
  4  5  1  0
  5  6  2  0
  6  7  1  0
  7  8  2  0
  8  9  1  0
  9 10  1  0
 10 11  1  0
 11 12  2  0
 12 13  1  0
 13 14  1  0
 14 15  1  0
 15 16  1  0
 16 17  1  0
 17 18  1  0
 18 19  1  0
 18 20  1  0
 16 21  1  0
 16 22  1  0
 15 23  1  0
 15 24  1  0
 14 25  1  0
 13 26  2  0
 26 27  1  0
 27 28  1  0
 28 29  2  0
 29 30  1  0
 30 31  2  0
 31 32  1  0
 32 33  2  0
 33 34  1  0
 31 35  1  0
 30 36  1  0
 29 37  1  0
 10 38  1  0
 10 39  1  0
  9 40  1  0
  9 41  1  0
  7 42  1  0
  6 43  1  0
  5 44  1  0
  4 45  1  0
  1 46  1  0
  1 47  1  0
  1 48  1  0
  8  3  1  0
 27 11  1  0
 33 28  1  0
 18 14  1  0
M  END
>  <cnnaffinity>  (1) 
-5.83222

>  <filename>  (1) 
COc1ccccc1CCc1nc(C2CCOC2)nn1-c1cccnc1

$$$$
