
     RDKit          3D

 39 41  0  0  0  0  0  0  0  0999 V2000
    4.9370    1.7959   16.9870 H   0  0  0  0  0  0  0  0  0  0  0  0
    5.4007    1.2859   17.8306 C   0  0  0  0  0  0  0  0  0  0  0  0
    6.5634    0.6594   17.5771 N   0  0  0  0  0  0  0  0  0  0  0  0
    7.1572    0.0292   18.5948 C   0  0  0  0  0  0  0  0  0  0  0  0
    8.1171   -0.4378   18.3624 H   0  0  0  0  0  0  0  0  0  0  0  0
    6.6402   -0.0082   19.9004 C   0  0  0  0  0  0  0  0  0  0  0  0
    7.3774   -0.6527   20.9884 C   0  0  0  0  0  0  0  0  0  0  0  0
    7.7096   -0.0507   22.1888 C   0  0  0  0  0  0  0  0  0  0  0  0
    7.4759    1.4041   22.4374 C   0  0  0  0  0  0  0  0  0  0  0  0
    7.9886    2.3758   21.5712 C   0  0  0  0  0  0  0  0  0  0  0  0
    8.5294    2.0577   20.6856 H   0  0  0  0  0  0  0  0  0  0  0  0
    7.8026    3.7365   21.8435 C   0  0  0  0  0  0  0  0  0  0  0  0
    8.2497    4.5078   21.2241 H   0  0  0  0  0  0  0  0  0  0  0  0
    7.0348    4.1589   22.9251 C   0  0  0  0  0  0  0  0  0  0  0  0
    6.7718    5.4668   23.1911 O   0  0  0  0  0  0  0  0  0  0  0  0
    7.2315    6.4873   22.3249 C   0  0  0  0  0  0  0  0  0  0  0  0
    6.8114    6.3928   21.3131 H   0  0  0  0  0  0  0  0  0  0  0  0
    6.8809    7.4122   22.7841 H   0  0  0  0  0  0  0  0  0  0  0  0
    8.3283    6.5041   22.2531 H   0  0  0  0  0  0  0  0  0  0  0  0
    6.5056    3.1731   23.8234 C   0  0  0  0  0  0  0  0  0  0  0  0
    5.8107    3.6385   24.8953 O   0  0  0  0  0  0  0  0  0  0  0  0
    5.2740    2.7497   25.8505 C   0  0  0  0  0  0  0  0  0  0  0  0
    6.0581    2.1609   26.3466 H   0  0  0  0  0  0  0  0  0  0  0  0
    4.7833    3.3991   26.5784 H   0  0  0  0  0  0  0  0  0  0  0  0
    4.5376    2.0697   25.4012 H   0  0  0  0  0  0  0  0  0  0  0  0
    6.7481    1.8216   23.5657 C   0  0  0  0  0  0  0  0  0  0  0  0
    6.3767    1.0705   24.2585 H   0  0  0  0  0  0  0  0  0  0  0  0
    8.3410   -0.8594   23.1963 C   0  0  0  0  0  0  0  0  0  0  0  0
    8.5953   -0.3740   24.1376 H   0  0  0  0  0  0  0  0  0  0  0  0
    8.6361   -2.1744   22.9814 C   0  0  0  0  0  0  0  0  0  0  0  0
    9.1143   -2.8159   23.7104 H   0  0  0  0  0  0  0  0  0  0  0  0
    8.2945   -2.8073   21.7143 C   0  0  0  0  0  0  0  0  0  0  0  0
    8.4432   -3.9787   21.4110 O   0  0  0  0  0  0  0  0  0  0  0  0
    7.7414   -1.9592   20.7760 N   0  0  0  0  0  0  0  0  0  0  0  0
    7.4752   -2.4775   19.9547 H   0  0  0  0  0  0  0  0  0  0  0  0
    5.4249    0.6484   20.1486 C   0  0  0  0  0  0  0  0  0  0  0  0
    5.0136    0.6541   21.1582 H   0  0  0  0  0  0  0  0  0  0  0  0
    4.7960    1.3012   19.0921 C   0  0  0  0  0  0  0  0  0  0  0  0
    3.8694    1.8452   19.2341 H   0  0  0  0  0  0  0  0  0  0  0  0
  1  2  1  0
  2  3  2  0
  3  4  1  0
  4  5  1  0
  4  6  2  0
  6  7  1  0
  7  8  2  0
  8  9  1  0
  9 10  2  0
 10 11  1  0
 10 12  1  0
 12 13  1  0
 12 14  2  0
 14 15  1  0
 15 16  1  0
 16 17  1  0
 16 18  1  0
 16 19  1  0
 14 20  1  0
 20 21  1  0
 21 22  1  0
 22 23  1  0
 22 24  1  0
 22 25  1  0
 20 26  2  0
 26 27  1  0
  8 28  1  0
 28 29  1  0
 28 30  2  0
 30 31  1  0
 30 32  1  0
 32 33  2  0
 32 34  1  0
 34 35  1  0
  6 36  1  0
 36 37  1  0
 36 38  2  0
 38 39  1  0
 38  2  1  0
 34  7  1  0
 26  9  1  0
M  END
>  <cnnaffinity>  (1) 
-5.36906

>  <filename>  (1) 
COc1ccc(-c2ccc(=O)[nH]c2-c2cccnc2)cc1OC

$$$$
