
     RDKit          3D

 46 49  0  0  0  0  0  0  0  0999 V2000
   11.0716   -2.1989   21.7239 C   0  0  0  0  0  0  0  0  0  0  0  0
   10.6662   -0.8522   21.6961 O   0  0  0  0  0  0  0  0  0  0  0  0
   11.6030    0.1292   21.8841 C   0  0  0  0  0  0  0  0  0  0  0  0
   12.9053   -0.1266   22.3343 C   0  0  0  0  0  0  0  0  0  0  0  0
   13.7344    0.9462   22.6768 C   0  0  0  0  0  0  0  0  0  0  0  0
   13.2774    2.2588   22.5402 C   0  0  0  0  0  0  0  0  0  0  0  0
   12.0136    2.5079   21.9770 C   0  0  0  0  0  0  0  0  0  0  0  0
   11.1665    1.4481   21.6262 C   0  0  0  0  0  0  0  0  0  0  0  0
    9.7534    1.6354   21.0829 C   0  0  0  0  0  0  0  0  0  0  0  0
    8.7218    1.2599   22.1001 C   0  0  0  0  0  0  0  0  0  0  0  0
    8.6265    1.9074   23.2359 N   0  0  0  0  0  0  0  0  0  0  0  0
    7.6127    1.2747   23.8954 C   0  0  0  0  0  0  0  0  0  0  0  0
    7.1595    1.7688   25.2429 C   0  0  0  0  0  0  0  0  0  0  0  0
    7.8870    2.8204   25.8469 C   0  0  0  0  0  0  0  0  0  0  0  0
    7.4910    3.3037   27.0897 C   0  0  0  0  0  0  0  0  0  0  0  0
    6.3761    2.7256   27.6971 C   0  0  0  0  0  0  0  0  0  0  0  0
    5.7046    1.6995   27.0253 C   0  0  0  0  0  0  0  0  0  0  0  0
    6.0714    1.2267   25.8318 N   0  0  0  0  0  0  0  0  0  0  0  0
    4.8290    1.2269   27.4652 H   0  0  0  0  0  0  0  0  0  0  0  0
    6.0338    3.0480   28.6724 H   0  0  0  0  0  0  0  0  0  0  0  0
    8.0421    4.1116   27.5698 H   0  0  0  0  0  0  0  0  0  0  0  0
    8.7403    3.2377   25.3237 H   0  0  0  0  0  0  0  0  0  0  0  0
    7.0952    0.2653   23.2102 N   0  0  0  0  0  0  0  0  0  0  0  0
    7.8093    0.2563   22.0671 N   0  0  0  0  0  0  0  0  0  0  0  0
    7.4267   -0.6721   21.0046 C   0  0  0  0  0  0  0  0  0  0  0  0
    6.6877   -0.0007   19.8688 C   0  0  0  0  0  0  0  0  0  0  0  0
    5.4713    0.6454   20.1286 C   0  0  0  0  0  0  0  0  0  0  0  0
    4.8316    1.2994   19.0759 C   0  0  0  0  0  0  0  0  0  0  0  0
    5.4252    1.2893   17.8100 C   0  0  0  0  0  0  0  0  0  0  0  0
    6.5745    0.6536   17.5380 N   0  0  0  0  0  0  0  0  0  0  0  0
    7.1775    0.0252   18.5558 C   0  0  0  0  0  0  0  0  0  0  0  0
    8.1041   -0.4963   18.3061 H   0  0  0  0  0  0  0  0  0  0  0  0
    4.9541    1.8104   16.9784 H   0  0  0  0  0  0  0  0  0  0  0  0
    3.8968    1.8250   19.2284 H   0  0  0  0  0  0  0  0  0  0  0  0
    5.0507    0.6464   21.1391 H   0  0  0  0  0  0  0  0  0  0  0  0
    6.7712   -1.4008   21.4925 H   0  0  0  0  0  0  0  0  0  0  0  0
    8.3230   -1.2019   20.6680 H   0  0  0  0  0  0  0  0  0  0  0  0
    9.5773    2.6860   20.8315 H   0  0  0  0  0  0  0  0  0  0  0  0
    9.6024    1.0186   20.1928 H   0  0  0  0  0  0  0  0  0  0  0  0
   11.7007    3.5394   21.7928 H   0  0  0  0  0  0  0  0  0  0  0  0
   13.9368    3.0826   22.8005 H   0  0  0  0  0  0  0  0  0  0  0  0
   14.7479    0.7389   23.0161 H   0  0  0  0  0  0  0  0  0  0  0  0
   13.2581   -1.1500   22.4073 H   0  0  0  0  0  0  0  0  0  0  0  0
   10.2044   -2.7693   21.3844 H   0  0  0  0  0  0  0  0  0  0  0  0
   11.3570   -2.5372   22.7311 H   0  0  0  0  0  0  0  0  0  0  0  0
   11.9237   -2.3401   21.0481 H   0  0  0  0  0  0  0  0  0  0  0  0
  1  2  1  0
  2  3  1  0
  3  4  2  0
  4  5  1  0
  5  6  2  0
  6  7  1  0
  7  8  2  0
  8  9  1  0
  9 10  1  0
 10 11  2  0
 11 12  1  0
 12 13  1  0
 13 14  2  0
 14 15  1  0
 15 16  2  0
 16 17  1  0
 17 18  2  0
 17 19  1  0
 16 20  1  0
 15 21  1  0
 14 22  1  0
 12 23  2  0
 23 24  1  0
 24 25  1  0
 25 26  1  0
 26 27  2  0
 27 28  1  0
 28 29  2  0
 29 30  1  0
 30 31  2  0
 31 32  1  0
 29 33  1  0
 28 34  1  0
 27 35  1  0
 25 36  1  0
 25 37  1  0
  9 38  1  0
  9 39  1  0
  7 40  1  0
  6 41  1  0
  5 42  1  0
  4 43  1  0
  1 44  1  0
  1 45  1  0
  1 46  1  0
  8  3  1  0
 24 10  1  0
 31 26  1  0
 18 13  1  0
M  END
>  <cnnaffinity>  (1) 
-6.14753

>  <filename>  (1) 
COc1ccccc1Cc1nc(-c2ccccn2)nn1Cc1cccnc1

$$$$
