
     RDKit          3D

 31 33  0  0  0  0  0  0  0  0999 V2000
    4.9320    1.7925   16.9936 H   0  0  0  0  0  0  0  0  0  0  0  0
    5.4194    1.3136   17.8433 C   0  0  0  0  0  0  0  0  0  0  0  0
    6.6010    0.7154   17.6072 N   0  0  0  0  0  0  0  0  0  0  0  0
    7.1969    0.0782   18.6263 C   0  0  0  0  0  0  0  0  0  0  0  0
    8.1559   -0.3925   18.4096 H   0  0  0  0  0  0  0  0  0  0  0  0
    6.6505    0.0072   19.9287 C   0  0  0  0  0  0  0  0  0  0  0  0
    7.3038   -0.6776   21.0123 N   0  0  0  0  0  0  0  0  0  0  0  0
    7.7290   -0.1559   22.2677 C   0  0  0  0  0  0  0  0  0  0  0  0
    7.4721    1.2035   22.7738 C   0  0  0  0  0  0  0  0  0  0  0  0
    6.9841    1.4004   24.0896 C   0  0  0  0  0  0  0  0  0  0  0  0
    6.7600    0.5561   24.7370 H   0  0  0  0  0  0  0  0  0  0  0  0
    6.7247    2.6009   24.6116 N   0  0  0  0  0  0  0  0  0  0  0  0
    6.9471    3.6861   23.8516 C   0  0  0  0  0  0  0  0  0  0  0  0
    6.7396    4.6477   24.3182 H   0  0  0  0  0  0  0  0  0  0  0  0
    7.4216    3.6043   22.5277 C   0  0  0  0  0  0  0  0  0  0  0  0
    7.6677    4.6403   21.6915 O   0  0  0  0  0  0  0  0  0  0  0  0
    7.4442    5.9623   22.1354 C   0  0  0  0  0  0  0  0  0  0  0  0
    7.7008    6.5982   21.2885 H   0  0  0  0  0  0  0  0  0  0  0  0
    8.0844    6.2000   22.9940 H   0  0  0  0  0  0  0  0  0  0  0  0
    6.3938    6.1128   22.4151 H   0  0  0  0  0  0  0  0  0  0  0  0
    7.6710    2.3414   21.9880 C   0  0  0  0  0  0  0  0  0  0  0  0
    7.9676    2.2732   20.9460 H   0  0  0  0  0  0  0  0  0  0  0  0
    8.2333   -1.1949   22.9440 C   0  0  0  0  0  0  0  0  0  0  0  0
    8.7189   -1.2497   23.9131 H   0  0  0  0  0  0  0  0  0  0  0  0
    8.0424   -2.3605   22.2474 O   0  0  0  0  0  0  0  0  0  0  0  0
    7.3070   -2.0724   21.1207 C   0  0  0  0  0  0  0  0  0  0  0  0
    6.7601   -2.8864   20.4291 O   0  0  0  0  0  0  0  0  0  0  0  0
    5.4272    0.6433   20.1555 C   0  0  0  0  0  0  0  0  0  0  0  0
    5.0203    0.6333   21.1664 H   0  0  0  0  0  0  0  0  0  0  0  0
    4.7990    1.3098   19.0984 C   0  0  0  0  0  0  0  0  0  0  0  0
    3.8424    1.8075   19.2394 H   0  0  0  0  0  0  0  0  0  0  0  0
  1  2  1  0
  2  3  2  0
  3  4  1  0
  4  5  1  0
  4  6  2  0
  6  7  1  0
  7  8  1  0
  8  9  1  0
  9 10  2  0
 10 11  1  0
 10 12  1  0
 12 13  2  0
 13 14  1  0
 13 15  1  0
 15 16  1  0
 16 17  1  0
 17 18  1  0
 17 19  1  0
 17 20  1  0
 15 21  2  0
 21 22  1  0
  8 23  2  0
 23 24  1  0
 23 25  1  0
 25 26  1  0
 26 27  2  0
  6 28  1  0
 28 29  1  0
 28 30  2  0
 30 31  1  0
 30  2  1  0
 26  7  1  0
 21  9  1  0
M  END
>  <cnnaffinity>  (1) 
-5.08953

>  <filename>  (1) 
COc1cncc(-c2coc(=O)n2-c2cccnc2)c1

$$$$
