
     RDKit          3D

 34 36  0  0  0  0  0  0  0  0999 V2000
    4.9175    1.7824   16.9934 H   0  0  0  0  0  0  0  0  0  0  0  0
    5.4016    1.2953   17.8374 C   0  0  0  0  0  0  0  0  0  0  0  0
    6.5647    0.6755   17.5773 N   0  0  0  0  0  0  0  0  0  0  0  0
    7.1747    0.0624   18.5990 C   0  0  0  0  0  0  0  0  0  0  0  0
    8.1139   -0.4373   18.3732 H   0  0  0  0  0  0  0  0  0  0  0  0
    6.6603    0.0057   19.9064 C   0  0  0  0  0  0  0  0  0  0  0  0
    7.3449   -0.6951   20.9521 N   0  0  0  0  0  0  0  0  0  0  0  0
    6.5549   -1.4305   21.7999 N   0  0  0  0  0  0  0  0  0  0  0  0
    7.1179   -2.0866   22.7858 C   0  0  0  0  0  0  0  0  0  0  0  0
    6.2170   -2.8655   23.7042 C   0  0  0  0  0  0  0  0  0  0  0  0
    6.4476   -2.8862   25.0988 C   0  0  0  0  0  0  0  0  0  0  0  0
    7.2948   -2.3464   25.5225 H   0  0  0  0  0  0  0  0  0  0  0  0
    5.6049   -3.6260   25.9204 C   0  0  0  0  0  0  0  0  0  0  0  0
    5.7763   -3.6363   26.9949 H   0  0  0  0  0  0  0  0  0  0  0  0
    4.5307   -4.3580   25.3905 C   0  0  0  0  0  0  0  0  0  0  0  0
    3.8761   -4.9191   26.0505 H   0  0  0  0  0  0  0  0  0  0  0  0
    4.3054   -4.3528   24.0061 C   0  0  0  0  0  0  0  0  0  0  0  0
    3.2884   -5.0042   23.3727 O   0  0  0  0  0  0  0  0  0  0  0  0
    2.3605   -5.7728   24.1146 C   0  0  0  0  0  0  0  0  0  0  0  0
    1.6674   -6.1832   23.3835 H   0  0  0  0  0  0  0  0  0  0  0  0
    1.7873   -5.1719   24.8317 H   0  0  0  0  0  0  0  0  0  0  0  0
    2.8314   -6.6077   24.6483 H   0  0  0  0  0  0  0  0  0  0  0  0
    5.1582   -3.6104   23.1688 C   0  0  0  0  0  0  0  0  0  0  0  0
    4.9904   -3.5934   22.0984 H   0  0  0  0  0  0  0  0  0  0  0  0
    8.6140   -2.0948   23.0254 C   0  0  0  0  0  0  0  0  0  0  0  0
    9.1837   -2.7248   23.9077 O   0  0  0  0  0  0  0  0  0  0  0  0
    9.3657   -1.2614   22.0879 C   0  0  0  0  0  0  0  0  0  0  0  0
   10.4419   -1.2200   22.2164 H   0  0  0  0  0  0  0  0  0  0  0  0
    8.7145   -0.6122   21.1094 C   0  0  0  0  0  0  0  0  0  0  0  0
    9.2281    0.0342   20.3935 H   0  0  0  0  0  0  0  0  0  0  0  0
    5.4405    0.6454   20.1667 C   0  0  0  0  0  0  0  0  0  0  0  0
    5.0289    0.6005   21.1763 H   0  0  0  0  0  0  0  0  0  0  0  0
    4.8127    1.3120   19.1089 C   0  0  0  0  0  0  0  0  0  0  0  0
    3.8778    1.8417   19.2614 H   0  0  0  0  0  0  0  0  0  0  0  0
  1  2  1  0
  2  3  2  0
  3  4  1  0
  4  5  1  0
  4  6  2  0
  6  7  1  0
  7  8  1  0
  8  9  2  0
  9 10  1  0
 10 11  2  0
 11 12  1  0
 11 13  1  0
 13 14  1  0
 13 15  2  0
 15 16  1  0
 15 17  1  0
 17 18  1  0
 18 19  1  0
 19 20  1  0
 19 21  1  0
 19 22  1  0
 17 23  2  0
 23 24  1  0
  9 25  1  0
 25 26  2  0
 25 27  1  0
 27 28  1  0
 27 29  2  0
 29 30  1  0
  6 31  1  0
 31 32  1  0
 31 33  2  0
 33 34  1  0
 33  2  1  0
 29  7  1  0
 23 10  1  0
M  END
>  <cnnaffinity>  (1) 
-5.07604

>  <filename>  (1) 
COc1cccc(-c2nn(-c3cccnc3)ccc2=O)c1

$$$$
