
     RDKit          3D

 46 49  0  0  0  0  0  0  0  0999 V2000
    4.4065   -1.5131   27.4425 C   0  0  0  0  0  0  0  0  0  0  0  0
    4.4737   -0.7426   26.2574 O   0  0  0  0  0  0  0  0  0  0  0  0
    5.6002   -0.0205   26.0006 C   0  0  0  0  0  0  0  0  0  0  0  0
    6.6940    0.0858   26.8665 C   0  0  0  0  0  0  0  0  0  0  0  0
    7.7763    0.9031   26.5165 C   0  0  0  0  0  0  0  0  0  0  0  0
    7.7813    1.5800   25.3003 C   0  0  0  0  0  0  0  0  0  0  0  0
    6.7304    1.4040   24.3826 C   0  0  0  0  0  0  0  0  0  0  0  0
    6.9221    1.8471   22.9311 C   0  0  0  0  0  0  0  0  0  0  0  0
    7.9454    0.9527   22.2811 C   0  0  0  0  0  0  0  0  0  0  0  0
    9.2421    1.1412   22.4119 N   0  0  0  0  0  0  0  0  0  0  0  0
    9.7714   -0.0688   22.0853 C   0  0  0  0  0  0  0  0  0  0  0  0
   11.2157   -0.2745   22.2136 C   0  0  0  0  0  0  0  0  0  0  0  0
   11.9661   -1.2531   21.5326 C   0  0  0  0  0  0  0  0  0  0  0  0
   13.3396   -1.2434   21.7485 C   0  0  0  0  0  0  0  0  0  0  0  0
   14.1294   -2.1371   21.1356 F   0  0  0  0  0  0  0  0  0  0  0  0
   13.9135   -0.2942   22.6061 C   0  0  0  0  0  0  0  0  0  0  0  0
   13.1910    0.6120   23.2742 N   0  0  0  0  0  0  0  0  0  0  0  0
   11.8697    0.6186   23.0750 C   0  0  0  0  0  0  0  0  0  0  0  0
   11.2889    1.3500   23.6278 H   0  0  0  0  0  0  0  0  0  0  0  0
   14.9892   -0.2928   22.7534 H   0  0  0  0  0  0  0  0  0  0  0  0
   11.5188   -1.9738   20.8511 H   0  0  0  0  0  0  0  0  0  0  0  0
    8.8896   -0.9572   21.6785 N   0  0  0  0  0  0  0  0  0  0  0  0
    7.7090   -0.2863   21.7967 N   0  0  0  0  0  0  0  0  0  0  0  0
    6.4938   -0.7939   21.1602 C   0  0  0  0  0  0  0  0  0  0  0  0
    6.0913   -0.0035   19.9272 C   0  0  0  0  0  0  0  0  0  0  0  0
    4.9127    0.7471   19.8488 C   0  0  0  0  0  0  0  0  0  0  0  0
    4.6675    1.5059   18.6995 C   0  0  0  0  0  0  0  0  0  0  0  0
    5.5974    1.4604   17.6565 C   0  0  0  0  0  0  0  0  0  0  0  0
    6.7263    0.7388   17.7060 N   0  0  0  0  0  0  0  0  0  0  0  0
    6.9597    0.0382   18.8224 C   0  0  0  0  0  0  0  0  0  0  0  0
    7.8940   -0.5215   18.8452 H   0  0  0  0  0  0  0  0  0  0  0  0
    5.4346    2.0328   16.7438 H   0  0  0  0  0  0  0  0  0  0  0  0
    3.7931    2.1413   18.6060 H   0  0  0  0  0  0  0  0  0  0  0  0
    4.1895    0.7443   20.6688 H   0  0  0  0  0  0  0  0  0  0  0  0
    6.6880   -1.8435   20.9254 H   0  0  0  0  0  0  0  0  0  0  0  0
    5.6907   -0.7780   21.8976 H   0  0  0  0  0  0  0  0  0  0  0  0
    5.9850    1.8351   22.3698 H   0  0  0  0  0  0  0  0  0  0  0  0
    7.3229    2.8629   22.8794 H   0  0  0  0  0  0  0  0  0  0  0  0
    5.6223    0.6502   24.7644 C   0  0  0  0  0  0  0  0  0  0  0  0
    4.7435    0.5660   24.1370 H   0  0  0  0  0  0  0  0  0  0  0  0
    8.6214    2.2180   25.0354 H   0  0  0  0  0  0  0  0  0  0  0  0
    8.6239    0.9802   27.1957 H   0  0  0  0  0  0  0  0  0  0  0  0
    6.7003   -0.4637   27.8008 H   0  0  0  0  0  0  0  0  0  0  0  0
    4.5393   -0.8914   28.3393 H   0  0  0  0  0  0  0  0  0  0  0  0
    5.1611   -2.3130   27.4459 H   0  0  0  0  0  0  0  0  0  0  0  0
    3.4084   -1.9530   27.4546 H   0  0  0  0  0  0  0  0  0  0  0  0
  1  2  1  0
  2  3  1  0
  3  4  2  0
  4  5  1  0
  5  6  2  0
  6  7  1  0
  7  8  1  0
  8  9  1  0
  9 10  2  0
 10 11  1  0
 11 12  1  0
 12 13  2  0
 13 14  1  0
 14 15  1  0
 14 16  2  0
 16 17  1  0
 17 18  2  0
 18 19  1  0
 16 20  1  0
 13 21  1  0
 11 22  2  0
 22 23  1  0
 23 24  1  0
 24 25  1  0
 25 26  2  0
 26 27  1  0
 27 28  2  0
 28 29  1  0
 29 30  2  0
 30 31  1  0
 28 32  1  0
 27 33  1  0
 26 34  1  0
 24 35  1  0
 24 36  1  0
  8 37  1  0
  8 38  1  0
  7 39  2  0
 39 40  1  0
  6 41  1  0
  5 42  1  0
  4 43  1  0
  1 44  1  0
  1 45  1  0
  1 46  1  0
 39  3  1  0
 23  9  1  0
 30 25  1  0
 18 12  1  0
M  END
>  <cnnaffinity>  (1) 
-6.23558

>  <filename>  (1) 
COc1cccc(Cc2nc(-c3cncc(F)c3)nn2Cc2cccnc2)c1

$$$$
