
     RDKit          3D

 45 48  0  0  0  0  0  0  0  0999 V2000
   13.1998   -1.8265   21.4106 C   0  0  0  0  0  0  0  0  0  0  0  0
   12.0902   -0.9943   21.1638 O   0  0  0  0  0  0  0  0  0  0  0  0
   11.8519    0.0861   21.9549 C   0  0  0  0  0  0  0  0  0  0  0  0
   12.7024    0.5146   22.9860 C   0  0  0  0  0  0  0  0  0  0  0  0
   12.4207    1.6943   23.6800 C   0  0  0  0  0  0  0  0  0  0  0  0
   11.2828    2.4178   23.3553 C   0  0  0  0  0  0  0  0  0  0  0  0
   11.0200    3.5591   24.0130 F   0  0  0  0  0  0  0  0  0  0  0  0
   10.4024    1.9779   22.3673 C   0  0  0  0  0  0  0  0  0  0  0  0
   10.6649    0.7961   21.6706 C   0  0  0  0  0  0  0  0  0  0  0  0
    9.6464    0.2307   20.7023 C   0  0  0  0  0  0  0  0  0  0  0  0
    8.6036   -0.6202   21.3454 C   0  0  0  0  0  0  0  0  0  0  0  0
    8.7993   -1.4690   22.3306 N   0  0  0  0  0  0  0  0  0  0  0  0
    7.5773   -2.0332   22.5101 C   0  0  0  0  0  0  0  0  0  0  0  0
    7.3736   -2.9610   23.6796 C   0  0  0  0  0  0  0  0  0  0  0  0
    6.9000   -2.2115   24.9561 C   0  0  0  0  0  0  0  0  0  0  0  0
    5.9965   -3.2373   25.6422 C   0  0  0  0  0  0  0  0  0  0  0  0
    5.4524   -4.0509   24.4688 C   0  0  0  0  0  0  0  0  0  0  0  0
    6.4360   -3.9980   23.4440 O   0  0  0  0  0  0  0  0  0  0  0  0
    4.5092   -3.6357   24.0839 H   0  0  0  0  0  0  0  0  0  0  0  0
    5.2963   -5.1080   24.7128 H   0  0  0  0  0  0  0  0  0  0  0  0
    6.5721   -3.8767   26.3203 H   0  0  0  0  0  0  0  0  0  0  0  0
    5.1914   -2.7735   26.2202 H   0  0  0  0  0  0  0  0  0  0  0  0
    7.7470   -1.8884   25.5720 H   0  0  0  0  0  0  0  0  0  0  0  0
    6.3290   -1.3154   24.6778 H   0  0  0  0  0  0  0  0  0  0  0  0
    8.3609   -3.4161   23.8365 H   0  0  0  0  0  0  0  0  0  0  0  0
    6.6325   -1.5786   21.7071 N   0  0  0  0  0  0  0  0  0  0  0  0
    7.3019   -0.6969   20.9267 N   0  0  0  0  0  0  0  0  0  0  0  0
    6.6366   -0.0042   19.8802 C   0  0  0  0  0  0  0  0  0  0  0  0
    5.4254    0.6428   20.1397 C   0  0  0  0  0  0  0  0  0  0  0  0
    4.8003    1.3178   19.0911 C   0  0  0  0  0  0  0  0  0  0  0  0
    5.3974    1.3030   17.8235 C   0  0  0  0  0  0  0  0  0  0  0  0
    6.5461    0.6630   17.5597 N   0  0  0  0  0  0  0  0  0  0  0  0
    7.1527    0.0313   18.5702 C   0  0  0  0  0  0  0  0  0  0  0  0
    8.0920   -0.4677   18.3333 H   0  0  0  0  0  0  0  0  0  0  0  0
    4.9312    1.8229   16.9913 H   0  0  0  0  0  0  0  0  0  0  0  0
    3.8689    1.8531   19.2470 H   0  0  0  0  0  0  0  0  0  0  0  0
    5.0029    0.5974   21.1427 H   0  0  0  0  0  0  0  0  0  0  0  0
   10.1464   -0.4314   19.9895 H   0  0  0  0  0  0  0  0  0  0  0  0
    9.1628    1.0394   20.1567 H   0  0  0  0  0  0  0  0  0  0  0  0
    9.5207    2.5693   22.1531 H   0  0  0  0  0  0  0  0  0  0  0  0
   13.0766    2.0475   24.4625 H   0  0  0  0  0  0  0  0  0  0  0  0
   13.5651   -0.0789   23.2659 H   0  0  0  0  0  0  0  0  0  0  0  0
   14.1169   -1.2392   21.5517 H   0  0  0  0  0  0  0  0  0  0  0  0
   13.0161   -2.4609   22.2869 H   0  0  0  0  0  0  0  0  0  0  0  0
   13.3350   -2.4429   20.5211 H   0  0  0  0  0  0  0  0  0  0  0  0
  1  2  1  0
  2  3  1  0
  3  4  2  0
  4  5  1  0
  5  6  2  0
  6  7  1  0
  6  8  1  0
  8  9  2  0
  9 10  1  0
 10 11  1  0
 11 12  2  0
 12 13  1  0
 13 14  1  0
 14 15  1  0
 15 16  1  0
 16 17  1  0
 17 18  1  0
 17 19  1  0
 17 20  1  0
 16 21  1  0
 16 22  1  0
 15 23  1  0
 15 24  1  0
 14 25  1  0
 13 26  2  0
 26 27  1  0
 27 28  1  0
 28 29  2  0
 29 30  1  0
 30 31  2  0
 31 32  1  0
 32 33  2  0
 33 34  1  0
 31 35  1  0
 30 36  1  0
 29 37  1  0
 10 38  1  0
 10 39  1  0
  8 40  1  0
  5 41  1  0
  4 42  1  0
  1 43  1  0
  1 44  1  0
  1 45  1  0
  9  3  1  0
 27 11  1  0
 33 28  1  0
 18 14  1  0
M  END
>  <cnnaffinity>  (1) 
-6.4715

>  <filename>  (1) 
COc1ccc(F)cc1Cc1nc(C2CCCO2)nn1-c1cccnc1

$$$$
