
     RDKit          3D

 47 50  0  0  0  0  0  0  0  0999 V2000
    4.5983   -1.3025   27.1650 C   0  0  0  0  0  0  0  0  0  0  0  0
    4.8505   -0.6325   25.9462 O   0  0  0  0  0  0  0  0  0  0  0  0
    6.0590   -0.0366   25.7499 C   0  0  0  0  0  0  0  0  0  0  0  0
    7.1349   -0.0960   26.6433 C   0  0  0  0  0  0  0  0  0  0  0  0
    8.3322    0.5575   26.3258 C   0  0  0  0  0  0  0  0  0  0  0  0
    8.4561    1.2548   25.1288 C   0  0  0  0  0  0  0  0  0  0  0  0
    7.3877    1.3006   24.2136 C   0  0  0  0  0  0  0  0  0  0  0  0
    7.6260    1.9094   22.8310 C   0  0  0  0  0  0  0  0  0  0  0  0
    8.6001    1.0357   22.1056 C   0  0  0  0  0  0  0  0  0  0  0  0
    9.9163    1.1266   22.2472 N   0  0  0  0  0  0  0  0  0  0  0  0
   10.3526   -0.0986   21.8722 C   0  0  0  0  0  0  0  0  0  0  0  0
   11.7665   -0.5237   21.8258 C   0  0  0  0  0  0  0  0  0  0  0  0
   12.0079   -1.7439   21.1815 C   0  0  0  0  0  0  0  0  0  0  0  0
   13.2782   -2.0446   20.7170 C   0  0  0  0  0  0  0  0  0  0  0  0
   14.3449   -1.2072   21.0127 C   0  0  0  0  0  0  0  0  0  0  0  0
   14.1542   -0.1026   21.8591 C   0  0  0  0  0  0  0  0  0  0  0  0
   12.8591    0.2600   22.2484 C   0  0  0  0  0  0  0  0  0  0  0  0
   12.6946    1.1688   22.8251 H   0  0  0  0  0  0  0  0  0  0  0  0
   14.9933    0.5242   22.1563 H   0  0  0  0  0  0  0  0  0  0  0  0
   15.2650   -1.4267   20.4921 H   0  0  0  0  0  0  0  0  0  0  0  0
   13.4535   -2.8850   20.0614 H   0  0  0  0  0  0  0  0  0  0  0  0
   11.1566   -2.3965   21.0222 H   0  0  0  0  0  0  0  0  0  0  0  0
    9.3829   -0.9108   21.4687 N   0  0  0  0  0  0  0  0  0  0  0  0
    8.2703   -0.1633   21.5765 N   0  0  0  0  0  0  0  0  0  0  0  0
    7.0025   -0.7031   21.0772 C   0  0  0  0  0  0  0  0  0  0  0  0
    6.3851    0.0626   19.9237 C   0  0  0  0  0  0  0  0  0  0  0  0
    5.1670    0.7445   20.0258 C   0  0  0  0  0  0  0  0  0  0  0  0
    4.6698    1.4213   18.9089 C   0  0  0  0  0  0  0  0  0  0  0  0
    5.4081    1.3863   17.7230 C   0  0  0  0  0  0  0  0  0  0  0  0
    6.5672    0.7211   17.5966 N   0  0  0  0  0  0  0  0  0  0  0  0
    7.0346    0.0864   18.6776 C   0  0  0  0  0  0  0  0  0  0  0  0
    7.9758   -0.4463   18.5454 H   0  0  0  0  0  0  0  0  0  0  0  0
    5.0559    1.9080   16.8342 H   0  0  0  0  0  0  0  0  0  0  0  0
    3.7435    1.9842   18.9458 H   0  0  0  0  0  0  0  0  0  0  0  0
    4.6144    0.7520   20.9680 H   0  0  0  0  0  0  0  0  0  0  0  0
    6.3024   -0.7743   21.9157 H   0  0  0  0  0  0  0  0  0  0  0  0
    7.2385   -1.7260   20.7656 H   0  0  0  0  0  0  0  0  0  0  0  0
    8.0808    2.8992   22.9188 H   0  0  0  0  0  0  0  0  0  0  0  0
    6.6985    2.0145   22.2604 H   0  0  0  0  0  0  0  0  0  0  0  0
    6.1943    0.6645   24.5378 C   0  0  0  0  0  0  0  0  0  0  0  0
    5.3410    0.6691   23.8672 H   0  0  0  0  0  0  0  0  0  0  0  0
    9.4035    1.7139   24.8573 H   0  0  0  0  0  0  0  0  0  0  0  0
    9.1788    0.4922   27.0070 H   0  0  0  0  0  0  0  0  0  0  0  0
    7.0424   -0.6443   27.5739 H   0  0  0  0  0  0  0  0  0  0  0  0
    3.5699   -1.6599   27.0995 H   0  0  0  0  0  0  0  0  0  0  0  0
    5.2717   -2.1593   27.3065 H   0  0  0  0  0  0  0  0  0  0  0  0
    4.6954   -0.6252   28.0248 H   0  0  0  0  0  0  0  0  0  0  0  0
  1  2  1  0
  2  3  1  0
  3  4  2  0
  4  5  1  0
  5  6  2  0
  6  7  1  0
  7  8  1  0
  8  9  1  0
  9 10  2  0
 10 11  1  0
 11 12  1  0
 12 13  2  0
 13 14  1  0
 14 15  2  0
 15 16  1  0
 16 17  2  0
 17 18  1  0
 16 19  1  0
 15 20  1  0
 14 21  1  0
 13 22  1  0
 11 23  2  0
 23 24  1  0
 24 25  1  0
 25 26  1  0
 26 27  2  0
 27 28  1  0
 28 29  2  0
 29 30  1  0
 30 31  2  0
 31 32  1  0
 29 33  1  0
 28 34  1  0
 27 35  1  0
 25 36  1  0
 25 37  1  0
  8 38  1  0
  8 39  1  0
  7 40  2  0
 40 41  1  0
  6 42  1  0
  5 43  1  0
  4 44  1  0
  1 45  1  0
  1 46  1  0
  1 47  1  0
 40  3  1  0
 24  9  1  0
 31 26  1  0
 17 12  1  0
M  END
>  <cnnaffinity>  (1) 
-6.48244

>  <filename>  (1) 
COc1cccc(Cc2nc(-c3ccccc3)nn2Cc2cccnc2)c1

$$$$
