
     RDKit          3D

 48 51  0  0  0  0  0  0  0  0999 V2000
   13.3154   -1.8256   21.3747 C   0  0  0  0  0  0  0  0  0  0  0  0
   12.1497   -1.0622   21.1285 O   0  0  0  0  0  0  0  0  0  0  0  0
   11.8759    0.0122   21.9238 C   0  0  0  0  0  0  0  0  0  0  0  0
   12.7134    0.4515   22.9673 C   0  0  0  0  0  0  0  0  0  0  0  0
   12.4575    1.6721   23.6043 C   0  0  0  0  0  0  0  0  0  0  0  0
   11.3863    2.4732   23.2136 C   0  0  0  0  0  0  0  0  0  0  0  0
   11.1882    3.8401   23.8072 C   0  0  0  0  0  0  0  0  0  0  0  0
   11.3877    4.6254   23.0682 H   0  0  0  0  0  0  0  0  0  0  0  0
   10.1591    3.9613   24.1610 H   0  0  0  0  0  0  0  0  0  0  0  0
   11.8670    4.0048   24.6488 H   0  0  0  0  0  0  0  0  0  0  0  0
   10.4933    1.9681   22.2517 C   0  0  0  0  0  0  0  0  0  0  0  0
   10.6920    0.7371   21.6248 C   0  0  0  0  0  0  0  0  0  0  0  0
    9.6127    0.1848   20.7055 C   0  0  0  0  0  0  0  0  0  0  0  0
    8.5495   -0.6312   21.3892 C   0  0  0  0  0  0  0  0  0  0  0  0
    8.7477   -1.4434   22.4024 N   0  0  0  0  0  0  0  0  0  0  0  0
    7.5285   -2.0026   22.6113 C   0  0  0  0  0  0  0  0  0  0  0  0
    7.2655   -3.1285   23.5935 C   0  0  0  0  0  0  0  0  0  0  0  0
    7.7840   -4.5097   23.0827 C   0  0  0  0  0  0  0  0  0  0  0  0
    8.2469   -5.1953   24.3712 C   0  0  0  0  0  0  0  0  0  0  0  0
    8.7565   -4.0058   25.1766 C   0  0  0  0  0  0  0  0  0  0  0  0
    7.8690   -2.9357   24.8703 O   0  0  0  0  0  0  0  0  0  0  0  0
    9.7835   -3.7353   24.8852 H   0  0  0  0  0  0  0  0  0  0  0  0
    8.7321   -4.1602   26.2600 H   0  0  0  0  0  0  0  0  0  0  0  0
    7.4090   -5.6747   24.8922 H   0  0  0  0  0  0  0  0  0  0  0  0
    9.0218   -5.9511   24.2070 H   0  0  0  0  0  0  0  0  0  0  0  0
    8.6414   -4.3557   22.4118 H   0  0  0  0  0  0  0  0  0  0  0  0
    7.0184   -5.0664   22.5315 H   0  0  0  0  0  0  0  0  0  0  0  0
    6.1766   -3.1364   23.7333 H   0  0  0  0  0  0  0  0  0  0  0  0
    6.5930   -1.6056   21.7670 N   0  0  0  0  0  0  0  0  0  0  0  0
    7.2495   -0.7349   20.9595 N   0  0  0  0  0  0  0  0  0  0  0  0
    6.5686   -0.0801   19.8924 C   0  0  0  0  0  0  0  0  0  0  0  0
    5.3665    0.5926   20.1318 C   0  0  0  0  0  0  0  0  0  0  0  0
    4.7865    1.3004   19.0765 C   0  0  0  0  0  0  0  0  0  0  0  0
    5.4051    1.2844   17.8196 C   0  0  0  0  0  0  0  0  0  0  0  0
    6.5269    0.5941   17.5682 N   0  0  0  0  0  0  0  0  0  0  0  0
    7.0868   -0.0734   18.5836 C   0  0  0  0  0  0  0  0  0  0  0  0
    7.9980   -0.6219   18.3524 H   0  0  0  0  0  0  0  0  0  0  0  0
    4.9839    1.8391   16.9849 H   0  0  0  0  0  0  0  0  0  0  0  0
    3.8759    1.8730   19.2152 H   0  0  0  0  0  0  0  0  0  0  0  0
    4.9163    0.5578   21.1249 H   0  0  0  0  0  0  0  0  0  0  0  0
   10.0622   -0.4882   19.9684 H   0  0  0  0  0  0  0  0  0  0  0  0
    9.1213    1.0022   20.1734 H   0  0  0  0  0  0  0  0  0  0  0  0
    9.6275    2.5711   21.9822 H   0  0  0  0  0  0  0  0  0  0  0  0
   13.1229    2.0289   24.3902 H   0  0  0  0  0  0  0  0  0  0  0  0
   13.5611   -0.1490   23.2861 H   0  0  0  0  0  0  0  0  0  0  0  0
   13.1782   -2.4170   22.2826 H   0  0  0  0  0  0  0  0  0  0  0  0
   14.2323   -1.2197   21.4311 H   0  0  0  0  0  0  0  0  0  0  0  0
   13.4262   -2.4995   20.5284 H   0  0  0  0  0  0  0  0  0  0  0  0
  1  2  1  0
  2  3  1  0
  3  4  2  0
  4  5  1  0
  5  6  2  0
  6  7  1  0
  7  8  1  0
  7  9  1  0
  7 10  1  0
  6 11  1  0
 11 12  2  0
 12 13  1  0
 13 14  1  0
 14 15  2  0
 15 16  1  0
 16 17  1  0
 17 18  1  0
 18 19  1  0
 19 20  1  0
 20 21  1  0
 20 22  1  0
 20 23  1  0
 19 24  1  0
 19 25  1  0
 18 26  1  0
 18 27  1  0
 17 28  1  0
 16 29  2  0
 29 30  1  0
 30 31  1  0
 31 32  2  0
 32 33  1  0
 33 34  2  0
 34 35  1  0
 35 36  2  0
 36 37  1  0
 34 38  1  0
 33 39  1  0
 32 40  1  0
 13 41  1  0
 13 42  1  0
 11 43  1  0
  5 44  1  0
  4 45  1  0
  1 46  1  0
  1 47  1  0
  1 48  1  0
 12  3  1  0
 30 14  1  0
 36 31  1  0
 21 17  1  0
M  END
>  <cnnaffinity>  (1) 
-6.50548

>  <filename>  (1) 
COc1ccc(C)cc1Cc1nc(C2CCCO2)nn1-c1cccnc1

$$$$
