
     RDKit          3D

 46 49  0  0  0  0  0  0  0  0999 V2000
    4.6986   -1.3716   27.3768 C   0  0  0  0  0  0  0  0  0  0  0  0
    4.7833   -0.6418   26.1544 O   0  0  0  0  0  0  0  0  0  0  0  0
    5.9260    0.0083   25.8644 C   0  0  0  0  0  0  0  0  0  0  0  0
    5.9458    0.6959   24.6335 C   0  0  0  0  0  0  0  0  0  0  0  0
    7.1078    1.3555   24.2721 C   0  0  0  0  0  0  0  0  0  0  0  0
    7.3620    1.8957   22.8732 C   0  0  0  0  0  0  0  0  0  0  0  0
    8.3572    1.0026   22.2031 C   0  0  0  0  0  0  0  0  0  0  0  0
    9.6676    1.1092   22.3406 N   0  0  0  0  0  0  0  0  0  0  0  0
   10.1230   -0.0926   21.9130 C   0  0  0  0  0  0  0  0  0  0  0  0
   11.5437   -0.4924   21.8239 C   0  0  0  0  0  0  0  0  0  0  0  0
   11.8110   -1.6658   21.1007 C   0  0  0  0  0  0  0  0  0  0  0  0
   13.1141   -1.9249   20.7274 C   0  0  0  0  0  0  0  0  0  0  0  0
   13.4034   -2.8475   19.8068 F   0  0  0  0  0  0  0  0  0  0  0  0
   14.1761   -1.2037   21.2276 C   0  0  0  0  0  0  0  0  0  0  0  0
   13.9284   -0.1088   22.0545 C   0  0  0  0  0  0  0  0  0  0  0  0
   12.6102    0.2730   22.3378 C   0  0  0  0  0  0  0  0  0  0  0  0
   12.4220    1.1557   22.9400 H   0  0  0  0  0  0  0  0  0  0  0  0
   14.7608    0.4872   22.4123 H   0  0  0  0  0  0  0  0  0  0  0  0
   15.1283   -1.5234   20.8509 H   0  0  0  0  0  0  0  0  0  0  0  0
   10.9906   -2.2991   20.7881 H   0  0  0  0  0  0  0  0  0  0  0  0
    9.1669   -0.8966   21.4641 N   0  0  0  0  0  0  0  0  0  0  0  0
    8.0416   -0.1921   21.6619 N   0  0  0  0  0  0  0  0  0  0  0  0
    6.7719   -0.7013   21.1580 C   0  0  0  0  0  0  0  0  0  0  0  0
    6.2533    0.0673   19.9630 C   0  0  0  0  0  0  0  0  0  0  0  0
    5.0510    0.7770   19.9850 C   0  0  0  0  0  0  0  0  0  0  0  0
    4.6526    1.4635   18.8347 C   0  0  0  0  0  0  0  0  0  0  0  0
    5.4816    1.4214   17.7098 C   0  0  0  0  0  0  0  0  0  0  0  0
    6.6402    0.7459   17.6677 N   0  0  0  0  0  0  0  0  0  0  0  0
    7.0097    0.0960   18.7776 C   0  0  0  0  0  0  0  0  0  0  0  0
    7.9588   -0.4381   18.7266 H   0  0  0  0  0  0  0  0  0  0  0  0
    5.2042    1.9502   16.7997 H   0  0  0  0  0  0  0  0  0  0  0  0
    3.7338    2.0377   18.8043 H   0  0  0  0  0  0  0  0  0  0  0  0
    4.4378    0.7976   20.8894 H   0  0  0  0  0  0  0  0  0  0  0  0
    6.0553   -0.6916   21.9836 H   0  0  0  0  0  0  0  0  0  0  0  0
    6.9591   -1.7494   20.9031 H   0  0  0  0  0  0  0  0  0  0  0  0
    6.4497    1.9626   22.2782 H   0  0  0  0  0  0  0  0  0  0  0  0
    7.8142    2.8871   22.9205 H   0  0  0  0  0  0  0  0  0  0  0  0
    8.1708    1.3606   25.1907 C   0  0  0  0  0  0  0  0  0  0  0  0
    8.0507    0.6489   26.3680 C   0  0  0  0  0  0  0  0  0  0  0  0
    6.9426   -0.0294   26.7087 N   0  0  0  0  0  0  0  0  0  0  0  0
    8.8831    0.5929   27.0655 H   0  0  0  0  0  0  0  0  0  0  0  0
    9.1003    1.8576   24.9408 H   0  0  0  0  0  0  0  0  0  0  0  0
    5.0544    0.6717   24.0245 H   0  0  0  0  0  0  0  0  0  0  0  0
    3.6983   -1.8025   27.3923 H   0  0  0  0  0  0  0  0  0  0  0  0
    4.8390   -0.7128   28.2400 H   0  0  0  0  0  0  0  0  0  0  0  0
    5.4529   -2.1650   27.4225 H   0  0  0  0  0  0  0  0  0  0  0  0
  1  2  1  0
  2  3  1  0
  3  4  2  0
  4  5  1  0
  5  6  1  0
  6  7  1  0
  7  8  2  0
  8  9  1  0
  9 10  1  0
 10 11  2  0
 11 12  1  0
 12 13  1  0
 12 14  2  0
 14 15  1  0
 15 16  2  0
 16 17  1  0
 15 18  1  0
 14 19  1  0
 11 20  1  0
  9 21  2  0
 21 22  1  0
 22 23  1  0
 23 24  1  0
 24 25  2  0
 25 26  1  0
 26 27  2  0
 27 28  1  0
 28 29  2  0
 29 30  1  0
 27 31  1  0
 26 32  1  0
 25 33  1  0
 23 34  1  0
 23 35  1  0
  6 36  1  0
  6 37  1  0
  5 38  2  0
 38 39  1  0
 39 40  2  0
 39 41  1  0
 38 42  1  0
  4 43  1  0
  1 44  1  0
  1 45  1  0
  1 46  1  0
 40  3  1  0
 22  7  1  0
 29 24  1  0
 16 10  1  0
M  END
>  <cnnaffinity>  (1) 
-6.4784

>  <filename>  (1) 
COc1cc(Cc2nc(-c3cccc(F)c3)nn2Cc2cccnc2)ccn1

$$$$
