
     RDKit          3D

 32 34  0  0  0  0  0  0  0  0999 V2000
    4.9090    1.7788   16.9995 H   0  0  0  0  0  0  0  0  0  0  0  0
    5.3973    1.2939   17.8419 C   0  0  0  0  0  0  0  0  0  0  0  0
    6.5614    0.6762   17.5780 N   0  0  0  0  0  0  0  0  0  0  0  0
    7.1781    0.0579   18.5919 C   0  0  0  0  0  0  0  0  0  0  0  0
    8.1280   -0.4280   18.3815 H   0  0  0  0  0  0  0  0  0  0  0  0
    6.6674    0.0020   19.9076 C   0  0  0  0  0  0  0  0  0  0  0  0
    7.3594   -0.6852   20.9487 N   0  0  0  0  0  0  0  0  0  0  0  0
    6.7667   -1.4494   21.9484 C   0  0  0  0  0  0  0  0  0  0  0  0
    5.7002   -1.5989   21.9784 H   0  0  0  0  0  0  0  0  0  0  0  0
    7.7304   -1.9416   22.7565 C   0  0  0  0  0  0  0  0  0  0  0  0
    7.5930   -2.7878   23.9427 C   0  0  0  0  0  0  0  0  0  0  0  0
    8.6657   -3.5348   24.4662 C   0  0  0  0  0  0  0  0  0  0  0  0
    9.6481   -3.5061   23.9930 H   0  0  0  0  0  0  0  0  0  0  0  0
    8.5383   -4.3232   25.5362 N   0  0  0  0  0  0  0  0  0  0  0  0
    7.3365   -4.4024   26.1402 C   0  0  0  0  0  0  0  0  0  0  0  0
    7.2719   -5.0502   27.0084 H   0  0  0  0  0  0  0  0  0  0  0  0
    6.1914   -3.7034   25.7046 C   0  0  0  0  0  0  0  0  0  0  0  0
    4.9496   -3.7453   26.2708 O   0  0  0  0  0  0  0  0  0  0  0  0
    4.6887   -4.5436   27.4212 C   0  0  0  0  0  0  0  0  0  0  0  0
    3.6344   -4.3978   27.6690 H   0  0  0  0  0  0  0  0  0  0  0  0
    5.2899   -4.2348   28.2849 H   0  0  0  0  0  0  0  0  0  0  0  0
    4.8515   -5.6110   27.2292 H   0  0  0  0  0  0  0  0  0  0  0  0
    6.3435   -2.8861   24.5796 C   0  0  0  0  0  0  0  0  0  0  0  0
    5.4897   -2.3175   24.2174 H   0  0  0  0  0  0  0  0  0  0  0  0
    8.9387   -1.4849   22.2376 N   0  0  0  0  0  0  0  0  0  0  0  0
    9.8686   -1.6010   22.5892 H   0  0  0  0  0  0  0  0  0  0  0  0
    8.7519   -0.6827   21.1383 C   0  0  0  0  0  0  0  0  0  0  0  0
    9.6021   -0.1138   20.4836 O   0  0  0  0  0  0  0  0  0  0  0  0
    5.4477    0.6438   20.1627 C   0  0  0  0  0  0  0  0  0  0  0  0
    5.0155    0.6313   21.1641 H   0  0  0  0  0  0  0  0  0  0  0  0
    4.8094    1.3100   19.1112 C   0  0  0  0  0  0  0  0  0  0  0  0
    3.8754    1.8421   19.2668 H   0  0  0  0  0  0  0  0  0  0  0  0
  1  2  1  0
  2  3  2  0
  3  4  1  0
  4  5  1  0
  4  6  2  0
  6  7  1  0
  7  8  1  0
  8  9  1  0
  8 10  2  0
 10 11  1  0
 11 12  2  0
 12 13  1  0
 12 14  1  0
 14 15  2  0
 15 16  1  0
 15 17  1  0
 17 18  1  0
 18 19  1  0
 19 20  1  0
 19 21  1  0
 19 22  1  0
 17 23  2  0
 23 24  1  0
 10 25  1  0
 25 26  1  0
 25 27  1  0
 27 28  2  0
  6 29  1  0
 29 30  1  0
 29 31  2  0
 31 32  1  0
 31  2  1  0
 27  7  1  0
 23 11  1  0
M  END
>  <cnnaffinity>  (1) 
-5.25218

>  <filename>  (1) 
COc1cncc(-c2cn(-c3cccnc3)c(=O)[nH]2)c1

$$$$
