
     RDKit          3D

 44 47  0  0  0  0  0  0  0  0999 V2000
    4.9390    1.8216   16.9768 H   0  0  0  0  0  0  0  0  0  0  0  0
    5.4006    1.3010   17.8143 C   0  0  0  0  0  0  0  0  0  0  0  0
    6.5563    0.6718   17.5528 N   0  0  0  0  0  0  0  0  0  0  0  0
    7.1530    0.0259   18.5597 C   0  0  0  0  0  0  0  0  0  0  0  0
    8.1036   -0.4491   18.3224 H   0  0  0  0  0  0  0  0  0  0  0  0
    6.6306   -0.0252   19.8648 C   0  0  0  0  0  0  0  0  0  0  0  0
    7.3642   -0.6908   20.9438 C   0  0  0  0  0  0  0  0  0  0  0  0
    8.0911   -1.7904   20.7355 N   0  0  0  0  0  0  0  0  0  0  0  0
    8.6016   -2.0458   21.9396 N   0  0  0  0  0  0  0  0  0  0  0  0
    8.3011   -1.1756   22.9046 C   0  0  0  0  0  0  0  0  0  0  0  0
    7.4785   -0.2395   22.3141 C   0  0  0  0  0  0  0  0  0  0  0  0
    6.9792    0.9103   22.8978 N   0  0  0  0  0  0  0  0  0  0  0  0
    6.8424    1.7095   22.2927 H   0  0  0  0  0  0  0  0  0  0  0  0
    7.0222    1.1011   24.3274 C   0  0  0  0  0  0  0  0  0  0  0  0
    6.5665    0.2174   24.7999 H   0  0  0  0  0  0  0  0  0  0  0  0
    8.0530    1.1512   24.7199 H   0  0  0  0  0  0  0  0  0  0  0  0
    6.2596    2.3543   24.6726 C   0  0  0  0  0  0  0  0  0  0  0  0
    6.9205    3.5700   24.8813 C   0  0  0  0  0  0  0  0  0  0  0  0
    8.0089    3.6199   24.8421 H   0  0  0  0  0  0  0  0  0  0  0  0
    6.2029    4.7442   25.1517 C   0  0  0  0  0  0  0  0  0  0  0  0
    6.7147    5.6847   25.3241 H   0  0  0  0  0  0  0  0  0  0  0  0
    4.8053    4.6976   25.2070 C   0  0  0  0  0  0  0  0  0  0  0  0
    3.9924    5.7554   25.4704 O   0  0  0  0  0  0  0  0  0  0  0  0
    4.5577    7.0253   25.7015 C   0  0  0  0  0  0  0  0  0  0  0  0
    5.1340    7.3738   24.8328 H   0  0  0  0  0  0  0  0  0  0  0  0
    3.7022    7.6788   25.8739 H   0  0  0  0  0  0  0  0  0  0  0  0
    5.2145    7.0169   26.5827 H   0  0  0  0  0  0  0  0  0  0  0  0
    4.1311    3.4884   24.9840 C   0  0  0  0  0  0  0  0  0  0  0  0
    3.0467    3.5124   25.0391 H   0  0  0  0  0  0  0  0  0  0  0  0
    4.8528    2.3298   24.7146 C   0  0  0  0  0  0  0  0  0  0  0  0
    4.3299    1.3892   24.5410 H   0  0  0  0  0  0  0  0  0  0  0  0
    9.1547   -1.4130   24.1219 C   0  0  0  0  0  0  0  0  0  0  0  0
    9.7794   -0.5276   24.3016 H   0  0  0  0  0  0  0  0  0  0  0  0
    8.5650   -1.5730   25.0325 H   0  0  0  0  0  0  0  0  0  0  0  0
    9.9923   -2.6625   23.7169 C   0  0  0  0  0  0  0  0  0  0  0  0
   11.0554   -2.4554   23.7611 H   0  0  0  0  0  0  0  0  0  0  0  0
    9.7906   -3.5188   24.3595 H   0  0  0  0  0  0  0  0  0  0  0  0
    9.6116   -3.0105   22.2559 C   0  0  0  0  0  0  0  0  0  0  0  0
   10.4448   -2.8637   21.5649 H   0  0  0  0  0  0  0  0  0  0  0  0
    9.1910   -4.0136   22.1566 H   0  0  0  0  0  0  0  0  0  0  0  0
    5.4223    0.6388   20.1204 C   0  0  0  0  0  0  0  0  0  0  0  0
    5.0058    0.6356   21.1297 H   0  0  0  0  0  0  0  0  0  0  0  0
    4.7907    1.3070   19.0745 C   0  0  0  0  0  0  0  0  0  0  0  0
    3.8636    1.8496   19.2294 H   0  0  0  0  0  0  0  0  0  0  0  0
  1  2  1  0
  2  3  2  0
  3  4  1  0
  4  5  1  0
  4  6  2  0
  6  7  1  0
  7  8  2  0
  8  9  1  0
  9 10  1  0
 10 11  2  0
 11 12  1  0
 12 13  1  0
 12 14  1  0
 14 15  1  0
 14 16  1  0
 14 17  1  0
 17 18  2  0
 18 19  1  0
 18 20  1  0
 20 21  1  0
 20 22  2  0
 22 23  1  0
 23 24  1  0
 24 25  1  0
 24 26  1  0
 24 27  1  0
 22 28  1  0
 28 29  1  0
 28 30  2  0
 30 31  1  0
 10 32  1  0
 32 33  1  0
 32 34  1  0
 32 35  1  0
 35 36  1  0
 35 37  1  0
 35 38  1  0
 38 39  1  0
 38 40  1  0
  6 41  1  0
 41 42  1  0
 41 43  2  0
 43 44  1  0
 43  2  1  0
 11  7  1  0
 30 17  1  0
 38  9  1  0
M  END
>  <cnnaffinity>  (1) 
-5.43426

>  <filename>  (1) 
COc1ccc(CNc2c(-c3cccnc3)nn3c2CCC3)cc1

$$$$
