
     RDKit          3D

 30 32  0  0  0  0  0  0  0  0999 V2000
    8.8539   -3.1827   22.2236 H   0  0  0  0  0  0  0  0  0  0  0  0
    8.3530   -2.2666   21.9284 C   0  0  0  0  0  0  0  0  0  0  0  0
    7.9511   -1.9269   20.7521 N   0  0  0  0  0  0  0  0  0  0  0  0
    7.3617   -0.6890   20.9431 C   0  0  0  0  0  0  0  0  0  0  0  0
    6.6370   -0.0052   19.8853 C   0  0  0  0  0  0  0  0  0  0  0  0
    7.1631    0.0341   18.5837 C   0  0  0  0  0  0  0  0  0  0  0  0
    8.1158   -0.4398   18.3636 H   0  0  0  0  0  0  0  0  0  0  0  0
    6.5657    0.6712   17.5734 N   0  0  0  0  0  0  0  0  0  0  0  0
    5.4054    1.2924   17.8317 C   0  0  0  0  0  0  0  0  0  0  0  0
    4.9329    1.7904   16.9893 H   0  0  0  0  0  0  0  0  0  0  0  0
    4.7985    1.3068   19.0922 C   0  0  0  0  0  0  0  0  0  0  0  0
    3.8737    1.8429   19.2442 H   0  0  0  0  0  0  0  0  0  0  0  0
    5.4181    0.6401   20.1429 C   0  0  0  0  0  0  0  0  0  0  0  0
    4.9991    0.6383   21.1529 H   0  0  0  0  0  0  0  0  0  0  0  0
    7.5110   -0.3137   22.2580 C   0  0  0  0  0  0  0  0  0  0  0  0
    7.2095    0.9248   22.9707 C   0  0  0  0  0  0  0  0  0  0  0  0
    6.7663    0.9157   24.3115 C   0  0  0  0  0  0  0  0  0  0  0  0
    6.6771   -0.0176   24.8573 H   0  0  0  0  0  0  0  0  0  0  0  0
    6.4112    2.0212   24.9642 N   0  0  0  0  0  0  0  0  0  0  0  0
    6.4942    3.1981   24.3247 C   0  0  0  0  0  0  0  0  0  0  0  0
    6.2082    4.0657   24.9126 H   0  0  0  0  0  0  0  0  0  0  0  0
    6.9266    3.3298   22.9899 C   0  0  0  0  0  0  0  0  0  0  0  0
    7.0226    4.4888   22.2913 O   0  0  0  0  0  0  0  0  0  0  0  0
    6.6903    5.7333   22.8903 C   0  0  0  0  0  0  0  0  0  0  0  0
    6.8659    6.4736   22.1105 H   0  0  0  0  0  0  0  0  0  0  0  0
    7.3261    5.9625   23.7552 H   0  0  0  0  0  0  0  0  0  0  0  0
    5.6391    5.7818   23.2027 H   0  0  0  0  0  0  0  0  0  0  0  0
    7.2881    2.1610   22.3109 C   0  0  0  0  0  0  0  0  0  0  0  0
    7.5945    2.2465   21.2675 H   0  0  0  0  0  0  0  0  0  0  0  0
    8.1166   -1.3592   22.9002 O   0  0  0  0  0  0  0  0  0  0  0  0
  1  2  1  0
  2  3  2  0
  3  4  1  0
  4  5  1  0
  5  6  2  0
  6  7  1  0
  6  8  1  0
  8  9  2  0
  9 10  1  0
  9 11  1  0
 11 12  1  0
 11 13  2  0
 13 14  1  0
  4 15  2  0
 15 16  1  0
 16 17  2  0
 17 18  1  0
 17 19  1  0
 19 20  2  0
 20 21  1  0
 20 22  1  0
 22 23  1  0
 23 24  1  0
 24 25  1  0
 24 26  1  0
 24 27  1  0
 22 28  2  0
 28 29  1  0
 15 30  1  0
 30  2  1  0
 13  5  1  0
 28 16  1  0
M  END
>  <cnnaffinity>  (1) 
-4.89995

>  <filename>  (1) 
COc1cncc(-c2ocnc2-c2cccnc2)c1

$$$$
