
     RDKit          3D

 46 49  0  0  0  0  0  0  0  0999 V2000
    4.7623   -1.2918   27.2659 C   0  0  0  0  0  0  0  0  0  0  0  0
    4.9469   -0.6265   26.0193 O   0  0  0  0  0  0  0  0  0  0  0  0
    6.1203   -0.0203   25.7614 C   0  0  0  0  0  0  0  0  0  0  0  0
    6.1921    0.6697   24.5350 C   0  0  0  0  0  0  0  0  0  0  0  0
    7.3726    1.3037   24.2021 C   0  0  0  0  0  0  0  0  0  0  0  0
    7.6237    1.9082   22.8266 C   0  0  0  0  0  0  0  0  0  0  0  0
    8.6026    1.0281   22.1194 C   0  0  0  0  0  0  0  0  0  0  0  0
    9.9160    1.1192   22.2744 N   0  0  0  0  0  0  0  0  0  0  0  0
   10.3602   -0.0963   21.8786 C   0  0  0  0  0  0  0  0  0  0  0  0
   11.7760   -0.5186   21.8165 C   0  0  0  0  0  0  0  0  0  0  0  0
   12.8765    0.2548   22.2403 C   0  0  0  0  0  0  0  0  0  0  0  0
   14.1672   -0.1082   21.8295 C   0  0  0  0  0  0  0  0  0  0  0  0
   14.3485   -1.2076   20.9742 C   0  0  0  0  0  0  0  0  0  0  0  0
   13.2805   -2.0424   20.6871 C   0  0  0  0  0  0  0  0  0  0  0  0
   12.0146   -1.7331   21.1585 C   0  0  0  0  0  0  0  0  0  0  0  0
   11.1628   -2.3805   20.9926 H   0  0  0  0  0  0  0  0  0  0  0  0
   13.4448   -2.8937   20.0392 H   0  0  0  0  0  0  0  0  0  0  0  0
   15.2707   -1.4225   20.4527 H   0  0  0  0  0  0  0  0  0  0  0  0
   15.0103    0.5190   22.1001 H   0  0  0  0  0  0  0  0  0  0  0  0
   12.7307    1.1460   22.8459 H   0  0  0  0  0  0  0  0  0  0  0  0
    9.3933   -0.9057   21.4601 N   0  0  0  0  0  0  0  0  0  0  0  0
    8.2770   -0.1651   21.5770 N   0  0  0  0  0  0  0  0  0  0  0  0
    7.0092   -0.7035   21.0763 C   0  0  0  0  0  0  0  0  0  0  0  0
    6.3903    0.0632   19.9234 C   0  0  0  0  0  0  0  0  0  0  0  0
    5.1705    0.7401   20.0276 C   0  0  0  0  0  0  0  0  0  0  0  0
    4.6704    1.4187   18.9125 C   0  0  0  0  0  0  0  0  0  0  0  0
    5.4070    1.3872   17.7256 C   0  0  0  0  0  0  0  0  0  0  0  0
    6.5675    0.7256   17.5960 N   0  0  0  0  0  0  0  0  0  0  0  0
    7.0385    0.0903   18.6761 C   0  0  0  0  0  0  0  0  0  0  0  0
    7.9803   -0.4405   18.5408 H   0  0  0  0  0  0  0  0  0  0  0  0
    5.0514    1.9102   16.8388 H   0  0  0  0  0  0  0  0  0  0  0  0
    3.7426    1.9778   18.9530 H   0  0  0  0  0  0  0  0  0  0  0  0
    4.6168    0.7426   20.9686 H   0  0  0  0  0  0  0  0  0  0  0  0
    7.2474   -1.7249   20.7627 H   0  0  0  0  0  0  0  0  0  0  0  0
    6.3090   -0.7791   21.9144 H   0  0  0  0  0  0  0  0  0  0  0  0
    6.7016    2.0134   22.2496 H   0  0  0  0  0  0  0  0  0  0  0  0
    8.0834    2.8933   22.9201 H   0  0  0  0  0  0  0  0  0  0  0  0
    8.4283    1.2424   25.1314 C   0  0  0  0  0  0  0  0  0  0  0  0
    8.2582    0.5291   26.3032 C   0  0  0  0  0  0  0  0  0  0  0  0
    7.1165   -0.1003   26.6281 N   0  0  0  0  0  0  0  0  0  0  0  0
    9.0798    0.4304   27.0104 H   0  0  0  0  0  0  0  0  0  0  0  0
    9.3875    1.6851   24.8979 H   0  0  0  0  0  0  0  0  0  0  0  0
    5.3205    0.6570   23.8959 H   0  0  0  0  0  0  0  0  0  0  0  0
    5.4712   -2.1188   27.3860 H   0  0  0  0  0  0  0  0  0  0  0  0
    4.8889   -0.5996   28.1062 H   0  0  0  0  0  0  0  0  0  0  0  0
    3.7403   -1.6714   27.2400 H   0  0  0  0  0  0  0  0  0  0  0  0
  1  2  1  0
  2  3  1  0
  3  4  2  0
  4  5  1  0
  5  6  1  0
  6  7  1  0
  7  8  2  0
  8  9  1  0
  9 10  1  0
 10 11  2  0
 11 12  1  0
 12 13  2  0
 13 14  1  0
 14 15  2  0
 15 16  1  0
 14 17  1  0
 13 18  1  0
 12 19  1  0
 11 20  1  0
  9 21  2  0
 21 22  1  0
 22 23  1  0
 23 24  1  0
 24 25  2  0
 25 26  1  0
 26 27  2  0
 27 28  1  0
 28 29  2  0
 29 30  1  0
 27 31  1  0
 26 32  1  0
 25 33  1  0
 23 34  1  0
 23 35  1  0
  6 36  1  0
  6 37  1  0
  5 38  2  0
 38 39  1  0
 39 40  2  0
 39 41  1  0
 38 42  1  0
  4 43  1  0
  1 44  1  0
  1 45  1  0
  1 46  1  0
 40  3  1  0
 22  7  1  0
 29 24  1  0
 15 10  1  0
M  END
>  <cnnaffinity>  (1) 
-6.47169

>  <filename>  (1) 
COc1cc(Cc2nc(-c3ccccc3)nn2Cc2cccnc2)ccn1

$$$$
