
     RDKit          3D

 45 48  0  0  0  0  0  0  0  0999 V2000
   13.1810   -1.9016   21.4283 C   0  0  0  0  0  0  0  0  0  0  0  0
   12.0620   -1.0782   21.2117 O   0  0  0  0  0  0  0  0  0  0  0  0
   11.8573    0.0315   21.9699 C   0  0  0  0  0  0  0  0  0  0  0  0
   12.7226    0.4665   22.9860 C   0  0  0  0  0  0  0  0  0  0  0  0
   12.4521    1.6603   23.6637 C   0  0  0  0  0  0  0  0  0  0  0  0
   11.3160    2.4103   23.3504 C   0  0  0  0  0  0  0  0  0  0  0  0
   10.4409    1.9506   22.3562 C   0  0  0  0  0  0  0  0  0  0  0  0
   10.6863    0.7629   21.6649 C   0  0  0  0  0  0  0  0  0  0  0  0
    9.6545    0.2165   20.6980 C   0  0  0  0  0  0  0  0  0  0  0  0
    8.6099   -0.6224   21.3541 C   0  0  0  0  0  0  0  0  0  0  0  0
    8.8101   -1.4488   22.3585 N   0  0  0  0  0  0  0  0  0  0  0  0
    7.5911   -1.9879   22.5736 C   0  0  0  0  0  0  0  0  0  0  0  0
    7.4041   -2.9903   23.6676 C   0  0  0  0  0  0  0  0  0  0  0  0
    6.5063   -2.4717   24.8394 C   0  0  0  0  0  0  0  0  0  0  0  0
    5.2362   -3.3280   24.7067 C   0  0  0  0  0  0  0  0  0  0  0  0
    5.2674   -3.8250   23.3856 O   0  0  0  0  0  0  0  0  0  0  0  0
    6.6040   -4.2056   23.1613 C   0  0  0  0  0  0  0  0  0  0  0  0
    6.8527   -5.1150   23.7418 H   0  0  0  0  0  0  0  0  0  0  0  0
    6.7148   -4.4087   22.0890 H   0  0  0  0  0  0  0  0  0  0  0  0
    4.3068   -2.7617   24.8278 H   0  0  0  0  0  0  0  0  0  0  0  0
    5.2289   -4.1571   25.4353 H   0  0  0  0  0  0  0  0  0  0  0  0
    6.2378   -1.4140   24.7360 H   0  0  0  0  0  0  0  0  0  0  0  0
    6.9977   -2.5914   25.8070 H   0  0  0  0  0  0  0  0  0  0  0  0
    8.4144   -3.2628   23.9803 H   0  0  0  0  0  0  0  0  0  0  0  0
    6.6424   -1.5646   21.7550 N   0  0  0  0  0  0  0  0  0  0  0  0
    7.3111   -0.7060   20.9406 N   0  0  0  0  0  0  0  0  0  0  0  0
    6.6387   -0.0201   19.8899 C   0  0  0  0  0  0  0  0  0  0  0  0
    5.4291    0.6290   20.1513 C   0  0  0  0  0  0  0  0  0  0  0  0
    4.8060    1.3087   19.1024 C   0  0  0  0  0  0  0  0  0  0  0  0
    5.3987    1.2973   17.8339 C   0  0  0  0  0  0  0  0  0  0  0  0
    6.5505    0.6616   17.5712 N   0  0  0  0  0  0  0  0  0  0  0  0
    7.1550    0.0275   18.5819 C   0  0  0  0  0  0  0  0  0  0  0  0
    8.1000   -0.4596   18.3415 H   0  0  0  0  0  0  0  0  0  0  0  0
    4.9315    1.8124   16.9976 H   0  0  0  0  0  0  0  0  0  0  0  0
    3.8770    1.8455   19.2569 H   0  0  0  0  0  0  0  0  0  0  0  0
    5.0085    0.5894   21.1563 H   0  0  0  0  0  0  0  0  0  0  0  0
    9.1656    1.0389   20.1719 H   0  0  0  0  0  0  0  0  0  0  0  0
   10.1273   -0.4458   19.9668 H   0  0  0  0  0  0  0  0  0  0  0  0
    9.5425    2.5239   22.1216 H   0  0  0  0  0  0  0  0  0  0  0  0
   11.1068    3.3383   23.8751 H   0  0  0  0  0  0  0  0  0  0  0  0
   13.1425    1.9949   24.4323 H   0  0  0  0  0  0  0  0  0  0  0  0
   13.5878   -0.1289   23.2499 H   0  0  0  0  0  0  0  0  0  0  0  0
   13.0169   -2.5314   22.3060 H   0  0  0  0  0  0  0  0  0  0  0  0
   13.2659   -2.5143   20.5324 H   0  0  0  0  0  0  0  0  0  0  0  0
   14.1083   -1.3310   21.5466 H   0  0  0  0  0  0  0  0  0  0  0  0
  1  2  1  0
  2  3  1  0
  3  4  2  0
  4  5  1  0
  5  6  2  0
  6  7  1  0
  7  8  2  0
  8  9  1  0
  9 10  1  0
 10 11  2  0
 11 12  1  0
 12 13  1  0
 13 14  1  0
 14 15  1  0
 15 16  1  0
 16 17  1  0
 17 18  1  0
 17 19  1  0
 15 20  1  0
 15 21  1  0
 14 22  1  0
 14 23  1  0
 13 24  1  0
 12 25  2  0
 25 26  1  0
 26 27  1  0
 27 28  2  0
 28 29  1  0
 29 30  2  0
 30 31  1  0
 31 32  2  0
 32 33  1  0
 30 34  1  0
 29 35  1  0
 28 36  1  0
  9 37  1  0
  9 38  1  0
  7 39  1  0
  6 40  1  0
  5 41  1  0
  4 42  1  0
  1 43  1  0
  1 44  1  0
  1 45  1  0
  8  3  1  0
 26 10  1  0
 32 27  1  0
 17 13  1  0
M  END
>  <cnnaffinity>  (1) 
-6.39775

>  <filename>  (1) 
COc1ccccc1Cc1nc(C2CCOC2)nn1-c1cccnc1

$$$$
