
     RDKit          3D

 45 49  0  0  0  0  0  0  0  0999 V2000
    8.3130    2.5833   23.5958 C   0  0  0  0  0  0  0  0  0  0  0  0
    8.9849    1.9990   22.5028 O   0  0  0  0  0  0  0  0  0  0  0  0
   10.2443    1.4877   22.6581 C   0  0  0  0  0  0  0  0  0  0  0  0
   11.1593    1.9299   23.6262 C   0  0  0  0  0  0  0  0  0  0  0  0
   12.4466    1.3771   23.6848 C   0  0  0  0  0  0  0  0  0  0  0  0
   12.7845    0.3644   22.7940 C   0  0  0  0  0  0  0  0  0  0  0  0
   14.0112   -0.1827   22.8573 F   0  0  0  0  0  0  0  0  0  0  0  0
   11.8735   -0.1033   21.8431 C   0  0  0  0  0  0  0  0  0  0  0  0
   10.6082    0.4752   21.7404 C   0  0  0  0  0  0  0  0  0  0  0  0
    9.5922   -0.0429   20.7373 C   0  0  0  0  0  0  0  0  0  0  0  0
    8.5087   -0.8714   21.3640 C   0  0  0  0  0  0  0  0  0  0  0  0
    8.6160   -1.6075   22.4499 N   0  0  0  0  0  0  0  0  0  0  0  0
    7.3292   -1.9791   22.7010 C   0  0  0  0  0  0  0  0  0  0  0  0
    6.8888   -2.6002   23.9575 C   0  0  0  0  0  0  0  0  0  0  0  0
    7.8092   -3.4684   24.7952 C   0  0  0  0  0  0  0  0  0  0  0  0
    7.4689   -2.0677   25.2379 C   0  0  0  0  0  0  0  0  0  0  0  0
    8.1532   -0.8008   25.5733 C   0  0  0  0  0  0  0  0  0  0  0  0
    6.8981   -1.2594   26.3310 C   0  0  0  0  0  0  0  0  0  0  0  0
    5.9422   -0.7640   26.1429 H   0  0  0  0  0  0  0  0  0  0  0  0
    7.0336   -1.6124   27.3500 H   0  0  0  0  0  0  0  0  0  0  0  0
    9.1037   -0.8545   26.1035 H   0  0  0  0  0  0  0  0  0  0  0  0
    8.0760   -0.0320   24.7984 H   0  0  0  0  0  0  0  0  0  0  0  0
    7.3595   -4.2916   25.3462 H   0  0  0  0  0  0  0  0  0  0  0  0
    8.8239   -3.6352   24.4302 H   0  0  0  0  0  0  0  0  0  0  0  0
    5.8155   -2.7774   23.9837 H   0  0  0  0  0  0  0  0  0  0  0  0
    6.4633   -1.6132   21.7819 N   0  0  0  0  0  0  0  0  0  0  0  0
    7.2245   -0.9310   20.8927 N   0  0  0  0  0  0  0  0  0  0  0  0
    6.6016   -0.2616   19.8100 C   0  0  0  0  0  0  0  0  0  0  0  0
    5.4319    0.4746   20.0335 C   0  0  0  0  0  0  0  0  0  0  0  0
    4.9158    1.2215   18.9767 C   0  0  0  0  0  0  0  0  0  0  0  0
    5.5480    1.1662   17.7282 C   0  0  0  0  0  0  0  0  0  0  0  0
    6.6234    0.3985   17.4893 N   0  0  0  0  0  0  0  0  0  0  0  0
    7.1289   -0.3017   18.5104 C   0  0  0  0  0  0  0  0  0  0  0  0
    8.0038   -0.9146   18.2959 H   0  0  0  0  0  0  0  0  0  0  0  0
    5.1741    1.7543   16.8927 H   0  0  0  0  0  0  0  0  0  0  0  0
    4.0478    1.8560   19.1183 H   0  0  0  0  0  0  0  0  0  0  0  0
    4.9609    0.4388   21.0161 H   0  0  0  0  0  0  0  0  0  0  0  0
   10.0798   -0.6667   19.9859 H   0  0  0  0  0  0  0  0  0  0  0  0
    9.1392    0.8105   20.2233 H   0  0  0  0  0  0  0  0  0  0  0  0
   12.1709   -0.9108   21.1799 H   0  0  0  0  0  0  0  0  0  0  0  0
   13.1725    1.6990   24.4257 H   0  0  0  0  0  0  0  0  0  0  0  0
   10.8621    2.7069   24.3262 H   0  0  0  0  0  0  0  0  0  0  0  0
    8.3722    1.9676   24.5026 H   0  0  0  0  0  0  0  0  0  0  0  0
    7.2662    2.6528   23.2955 H   0  0  0  0  0  0  0  0  0  0  0  0
    8.6816    3.5901   23.8287 H   0  0  0  0  0  0  0  0  0  0  0  0
  1  2  1  0
  2  3  1  0
  3  4  2  0
  4  5  1  0
  5  6  2  0
  6  7  1  0
  6  8  1  0
  8  9  2  0
  9 10  1  0
 10 11  1  0
 11 12  2  0
 12 13  1  0
 13 14  1  0
 14 15  1  0
 15 16  1  0
 16 17  1  0
 17 18  1  0
 18 19  1  0
 18 20  1  0
 17 21  1  0
 17 22  1  0
 15 23  1  0
 15 24  1  0
 14 25  1  0
 13 26  2  0
 26 27  1  0
 27 28  1  0
 28 29  2  0
 29 30  1  0
 30 31  2  0
 31 32  1  0
 32 33  2  0
 33 34  1  0
 31 35  1  0
 30 36  1  0
 29 37  1  0
 10 38  1  0
 10 39  1  0
  8 40  1  0
  5 41  1  0
  4 42  1  0
  1 43  1  0
  1 44  1  0
  1 45  1  0
  9  3  1  0
 27 11  1  0
 33 28  1  0
 16 14  1  0
 18 16  1  0
M  END
>  <cnnaffinity>  (1) 
-6.65734

>  <filename>  (1) 
COc1ccc(F)cc1Cc1nc(C2CC23CC3)nn1-c1cccnc1

$$$$
