
     RDKit          3D

 33 35  0  0  0  0  0  0  0  0999 V2000
    5.0443    1.8832   17.0202 H   0  0  0  0  0  0  0  0  0  0  0  0
    5.4699    1.2939   17.8294 C   0  0  0  0  0  0  0  0  0  0  0  0
    6.5933    0.6166   17.5427 N   0  0  0  0  0  0  0  0  0  0  0  0
    7.1591   -0.1021   18.5278 C   0  0  0  0  0  0  0  0  0  0  0  0
    8.0488   -0.6627   18.2441 H   0  0  0  0  0  0  0  0  0  0  0  0
    6.6546   -0.1700   19.8570 C   0  0  0  0  0  0  0  0  0  0  0  0
    7.2657   -0.8499   20.9260 N   0  0  0  0  0  0  0  0  0  0  0  0
    6.6484   -1.1131   21.6958 H   0  0  0  0  0  0  0  0  0  0  0  0
    8.6283   -0.7944   21.2531 C   0  0  0  0  0  0  0  0  0  0  0  0
    9.5983    0.1632   20.8381 C   0  0  0  0  0  0  0  0  0  0  0  0
    9.4423    1.0302   20.2100 H   0  0  0  0  0  0  0  0  0  0  0  0
   10.8098   -0.1236   21.3050 N   0  0  0  0  0  0  0  0  0  0  0  0
   10.6275   -1.2447   22.0142 N   0  0  0  0  0  0  0  0  0  0  0  0
   11.4279   -1.6535   22.4796 H   0  0  0  0  0  0  0  0  0  0  0  0
    9.3402   -1.6885   22.0425 C   0  0  0  0  0  0  0  0  0  0  0  0
    8.9723   -2.8865   22.8785 C   0  0  0  0  0  0  0  0  0  0  0  0
    9.8646   -3.4660   23.1480 H   0  0  0  0  0  0  0  0  0  0  0  0
    8.2877   -3.5419   22.3309 H   0  0  0  0  0  0  0  0  0  0  0  0
    8.3020   -2.5232   24.1208 N   0  0  0  0  0  0  0  0  0  0  0  0
    8.9968   -2.0796   25.2571 N   0  0  0  0  0  0  0  0  0  0  0  0
    8.0657   -1.4725   25.9097 C   0  0  0  0  0  0  0  0  0  0  0  0
    8.1047   -0.8696   27.0801 O   0  0  0  0  0  0  0  0  0  0  0  0
    9.4046   -0.5345   27.5961 C   0  0  0  0  0  0  0  0  0  0  0  0
    9.8767    0.2396   26.9797 H   0  0  0  0  0  0  0  0  0  0  0  0
   10.0454   -1.4181   27.6193 H   0  0  0  0  0  0  0  0  0  0  0  0
    9.2321   -0.1636   28.6095 H   0  0  0  0  0  0  0  0  0  0  0  0
    6.8658   -1.3857   25.3017 O   0  0  0  0  0  0  0  0  0  0  0  0
    7.0423   -2.0181   24.1024 C   0  0  0  0  0  0  0  0  0  0  0  0
    6.2241   -2.1096   23.2199 O   0  0  0  0  0  0  0  0  0  0  0  0
    5.4426    0.4892   20.1041 C   0  0  0  0  0  0  0  0  0  0  0  0
    4.9924    0.4106   21.0956 H   0  0  0  0  0  0  0  0  0  0  0  0
    4.8526    1.2465   19.0854 C   0  0  0  0  0  0  0  0  0  0  0  0
    3.9353    1.8022   19.2538 H   0  0  0  0  0  0  0  0  0  0  0  0
  1  2  1  0
  2  3  2  0
  3  4  1  0
  4  5  1  0
  4  6  2  0
  6  7  1  0
  7  8  1  0
  7  9  1  0
  9 10  1  0
 10 11  1  0
 10 12  2  0
 12 13  1  0
 13 14  1  0
 13 15  1  0
 15 16  1  0
 16 17  1  0
 16 18  1  0
 16 19  1  0
 19 20  1  0
 20 21  2  0
 21 22  1  0
 22 23  1  0
 23 24  1  0
 23 25  1  0
 23 26  1  0
 21 27  1  0
 27 28  1  0
 28 29  2  0
  6 30  1  0
 30 31  1  0
 30 32  2  0
 32 33  1  0
 32  2  1  0
 15  9  2  0
 28 19  1  0
M  END
>  <cnnaffinity>  (1) 
-5.02744

>  <filename>  (1) 
COc1nn(Cc2[nH]ncc2Nc2cccnc2)c(=O)o1

$$$$
