
     RDKit          3D

 46 49  0  0  0  0  0  0  0  0999 V2000
    4.7752   -1.2570   27.2114 C   0  0  0  0  0  0  0  0  0  0  0  0
    4.9879   -0.5903   25.9699 O   0  0  0  0  0  0  0  0  0  0  0  0
    6.1823   -0.0173   25.7271 C   0  0  0  0  0  0  0  0  0  0  0  0
    6.3024    0.6356   24.4842 C   0  0  0  0  0  0  0  0  0  0  0  0
    7.5034    1.2512   24.1779 C   0  0  0  0  0  0  0  0  0  0  0  0
    7.7947    1.8596   22.8122 C   0  0  0  0  0  0  0  0  0  0  0  0
    8.7846    0.9916   22.1094 C   0  0  0  0  0  0  0  0  0  0  0  0
   10.0943    1.0597   22.3001 N   0  0  0  0  0  0  0  0  0  0  0  0
   10.5304   -0.1431   21.8647 C   0  0  0  0  0  0  0  0  0  0  0  0
   11.9255   -0.5858   21.8228 C   0  0  0  0  0  0  0  0  0  0  0  0
   12.1533   -1.7912   21.1447 C   0  0  0  0  0  0  0  0  0  0  0  0
   13.3803   -2.0679   20.5747 C   0  0  0  0  0  0  0  0  0  0  0  0
   14.3908   -1.1463   20.7691 C   0  0  0  0  0  0  0  0  0  0  0  0
   15.4099   -1.1864   19.9077 F   0  0  0  0  0  0  0  0  0  0  0  0
   14.2852   -0.1175   21.7137 C   0  0  0  0  0  0  0  0  0  0  0  0
   13.0291    0.1857   22.2279 C   0  0  0  0  0  0  0  0  0  0  0  0
   12.9286    1.0704   22.8500 H   0  0  0  0  0  0  0  0  0  0  0  0
   15.1277    0.5246   21.9451 H   0  0  0  0  0  0  0  0  0  0  0  0
   13.5565   -2.9179   19.9274 H   0  0  0  0  0  0  0  0  0  0  0  0
   11.2913   -2.4269   21.0127 H   0  0  0  0  0  0  0  0  0  0  0  0
    9.5704   -0.9170   21.3760 N   0  0  0  0  0  0  0  0  0  0  0  0
    8.4626   -0.1763   21.5096 N   0  0  0  0  0  0  0  0  0  0  0  0
    7.1942   -0.7267   21.0407 C   0  0  0  0  0  0  0  0  0  0  0  0
    6.5359    0.0415   19.9172 C   0  0  0  0  0  0  0  0  0  0  0  0
    5.3143    0.7025   20.0771 C   0  0  0  0  0  0  0  0  0  0  0  0
    4.7512    1.3662   18.9847 C   0  0  0  0  0  0  0  0  0  0  0  0
    5.4357    1.3477   17.7670 C   0  0  0  0  0  0  0  0  0  0  0  0
    6.6071    0.7159   17.5920 N   0  0  0  0  0  0  0  0  0  0  0  0
    7.1380    0.0896   18.6491 C   0  0  0  0  0  0  0  0  0  0  0  0
    8.0912   -0.4103   18.4757 H   0  0  0  0  0  0  0  0  0  0  0  0
    5.0310    1.8605   16.8947 H   0  0  0  0  0  0  0  0  0  0  0  0
    3.8168    1.9084   19.0664 H   0  0  0  0  0  0  0  0  0  0  0  0
    4.8106    0.7012   21.0465 H   0  0  0  0  0  0  0  0  0  0  0  0
    6.5241   -0.8049   21.9005 H   0  0  0  0  0  0  0  0  0  0  0  0
    7.4299   -1.7477   20.7194 H   0  0  0  0  0  0  0  0  0  0  0  0
    6.8889    1.9673   22.2110 H   0  0  0  0  0  0  0  0  0  0  0  0
    8.2574    2.8420   22.9237 H   0  0  0  0  0  0  0  0  0  0  0  0
    8.5359    1.1800   25.1326 C   0  0  0  0  0  0  0  0  0  0  0  0
    8.3146    0.5050   26.3180 C   0  0  0  0  0  0  0  0  0  0  0  0
    7.1475   -0.0849   26.6279 N   0  0  0  0  0  0  0  0  0  0  0  0
    9.1058    0.4205   27.0609 H   0  0  0  0  0  0  0  0  0  0  0  0
    9.5120    1.5967   24.9175 H   0  0  0  0  0  0  0  0  0  0  0  0
    5.4496    0.6222   23.8197 H   0  0  0  0  0  0  0  0  0  0  0  0
    4.8996   -0.5659   28.0527 H   0  0  0  0  0  0  0  0  0  0  0  0
    5.4759   -2.0905   27.3378 H   0  0  0  0  0  0  0  0  0  0  0  0
    3.7490   -1.6250   27.1683 H   0  0  0  0  0  0  0  0  0  0  0  0
  1  2  1  0
  2  3  1  0
  3  4  2  0
  4  5  1  0
  5  6  1  0
  6  7  1  0
  7  8  2  0
  8  9  1  0
  9 10  1  0
 10 11  2  0
 11 12  1  0
 12 13  2  0
 13 14  1  0
 13 15  1  0
 15 16  2  0
 16 17  1  0
 15 18  1  0
 12 19  1  0
 11 20  1  0
  9 21  2  0
 21 22  1  0
 22 23  1  0
 23 24  1  0
 24 25  2  0
 25 26  1  0
 26 27  2  0
 27 28  1  0
 28 29  2  0
 29 30  1  0
 27 31  1  0
 26 32  1  0
 25 33  1  0
 23 34  1  0
 23 35  1  0
  6 36  1  0
  6 37  1  0
  5 38  2  0
 38 39  1  0
 39 40  2  0
 39 41  1  0
 38 42  1  0
  4 43  1  0
  1 44  1  0
  1 45  1  0
  1 46  1  0
 40  3  1  0
 22  7  1  0
 29 24  1  0
 16 10  1  0
M  END
>  <cnnaffinity>  (1) 
-6.65213

>  <filename>  (1) 
COc1cc(Cc2nc(-c3ccc(F)cc3)nn2Cc2cccnc2)ccn1

$$$$
