
     RDKit          3D

 45 48  0  0  0  0  0  0  0  0999 V2000
   13.2899   -1.7851   21.3707 C   0  0  0  0  0  0  0  0  0  0  0  0
   12.1273   -1.0122   21.1534 O   0  0  0  0  0  0  0  0  0  0  0  0
   11.8558    0.0545   21.9604 C   0  0  0  0  0  0  0  0  0  0  0  0
   12.6853    0.4873   23.0144 C   0  0  0  0  0  0  0  0  0  0  0  0
   12.4196    1.6903   23.6818 C   0  0  0  0  0  0  0  0  0  0  0  0
   11.3104    2.4455   23.3072 C   0  0  0  0  0  0  0  0  0  0  0  0
   11.0084    3.9878   24.0520 Cl  0  0  0  0  0  0  0  0  0  0  0  0
   10.4377    1.9787   22.3196 C   0  0  0  0  0  0  0  0  0  0  0  0
   10.6646    0.7637   21.6631 C   0  0  0  0  0  0  0  0  0  0  0  0
    9.6025    0.2050   20.7172 C   0  0  0  0  0  0  0  0  0  0  0  0
    8.5420   -0.6266   21.3812 C   0  0  0  0  0  0  0  0  0  0  0  0
    8.7410   -1.4501   22.3842 N   0  0  0  0  0  0  0  0  0  0  0  0
    7.5221   -2.0254   22.5660 C   0  0  0  0  0  0  0  0  0  0  0  0
    7.3241   -3.0347   23.6405 C   0  0  0  0  0  0  0  0  0  0  0  0
    8.2331   -4.2845   23.5450 C   0  0  0  0  0  0  0  0  0  0  0  0
    8.3478   -4.7438   25.0060 C   0  0  0  0  0  0  0  0  0  0  0  0
    7.9592   -3.6423   25.8131 O   0  0  0  0  0  0  0  0  0  0  0  0
    7.7221   -2.4970   25.0217 C   0  0  0  0  0  0  0  0  0  0  0  0
    6.9300   -1.9160   25.5064 H   0  0  0  0  0  0  0  0  0  0  0  0
    8.6295   -1.8746   24.9476 H   0  0  0  0  0  0  0  0  0  0  0  0
    9.3729   -5.0461   25.2668 H   0  0  0  0  0  0  0  0  0  0  0  0
    7.6787   -5.5837   25.2350 H   0  0  0  0  0  0  0  0  0  0  0  0
    9.2219   -3.9926   23.1694 H   0  0  0  0  0  0  0  0  0  0  0  0
    7.8369   -5.0597   22.8826 H   0  0  0  0  0  0  0  0  0  0  0  0
    6.2661   -3.3126   23.6388 H   0  0  0  0  0  0  0  0  0  0  0  0
    6.5885   -1.6210   21.7382 N   0  0  0  0  0  0  0  0  0  0  0  0
    7.2474   -0.7352   20.9410 N   0  0  0  0  0  0  0  0  0  0  0  0
    6.5722   -0.0700   19.8744 C   0  0  0  0  0  0  0  0  0  0  0  0
    5.3696    0.6043   20.1140 C   0  0  0  0  0  0  0  0  0  0  0  0
    4.7873    1.3139   19.0606 C   0  0  0  0  0  0  0  0  0  0  0  0
    5.4029    1.3003   17.8029 C   0  0  0  0  0  0  0  0  0  0  0  0
    6.5273    0.6144   17.5499 N   0  0  0  0  0  0  0  0  0  0  0  0
    7.0906   -0.0524   18.5643 C   0  0  0  0  0  0  0  0  0  0  0  0
    8.0071   -0.5918   18.3290 H   0  0  0  0  0  0  0  0  0  0  0  0
    4.9789    1.8589   16.9706 H   0  0  0  0  0  0  0  0  0  0  0  0
    3.8772    1.8854   19.2050 H   0  0  0  0  0  0  0  0  0  0  0  0
    4.9240    0.5649   21.1084 H   0  0  0  0  0  0  0  0  0  0  0  0
   10.0566   -0.4622   19.9739 H   0  0  0  0  0  0  0  0  0  0  0  0
    9.1029    1.0172   20.1819 H   0  0  0  0  0  0  0  0  0  0  0  0
    9.5644    2.5757   22.0718 H   0  0  0  0  0  0  0  0  0  0  0  0
   13.0675    2.0366   24.4783 H   0  0  0  0  0  0  0  0  0  0  0  0
   13.5363   -0.1087   23.3238 H   0  0  0  0  0  0  0  0  0  0  0  0
   13.3789   -2.4744   20.5254 H   0  0  0  0  0  0  0  0  0  0  0  0
   14.2004   -1.1783   21.4316 H   0  0  0  0  0  0  0  0  0  0  0  0
   13.1790   -2.3592   22.2928 H   0  0  0  0  0  0  0  0  0  0  0  0
  1  2  1  0
  2  3  1  0
  3  4  2  0
  4  5  1  0
  5  6  2  0
  6  7  1  0
  6  8  1  0
  8  9  2  0
  9 10  1  0
 10 11  1  0
 11 12  2  0
 12 13  1  0
 13 14  1  0
 14 15  1  0
 15 16  1  0
 16 17  1  0
 17 18  1  0
 18 19  1  0
 18 20  1  0
 16 21  1  0
 16 22  1  0
 15 23  1  0
 15 24  1  0
 14 25  1  0
 13 26  2  0
 26 27  1  0
 27 28  1  0
 28 29  2  0
 29 30  1  0
 30 31  2  0
 31 32  1  0
 32 33  2  0
 33 34  1  0
 31 35  1  0
 30 36  1  0
 29 37  1  0
 10 38  1  0
 10 39  1  0
  8 40  1  0
  5 41  1  0
  4 42  1  0
  1 43  1  0
  1 44  1  0
  1 45  1  0
  9  3  1  0
 27 11  1  0
 33 28  1  0
 18 14  1  0
M  END
>  <cnnaffinity>  (1) 
-6.518

>  <filename>  (1) 
COc1ccc(Cl)cc1Cc1nc(C2CCOC2)nn1-c1cccnc1

$$$$
