
     RDKit          3D

 47 50  0  0  0  0  0  0  0  0999 V2000
   14.3423    0.3143   23.8192 C   0  0  0  0  0  0  0  0  0  0  0  0
   13.3340   -0.2255   22.9806 O   0  0  0  0  0  0  0  0  0  0  0  0
   12.2364    0.5143   22.7507 C   0  0  0  0  0  0  0  0  0  0  0  0
   11.3968    0.0268   21.7443 C   0  0  0  0  0  0  0  0  0  0  0  0
   10.2660    0.7524   21.4244 C   0  0  0  0  0  0  0  0  0  0  0  0
    9.2212    0.1789   20.5136 C   0  0  0  0  0  0  0  0  0  0  0  0
    8.2551   -0.7072   21.2463 C   0  0  0  0  0  0  0  0  0  0  0  0
    8.5055   -1.4493   22.3031 N   0  0  0  0  0  0  0  0  0  0  0  0
    7.3279   -2.0847   22.5407 C   0  0  0  0  0  0  0  0  0  0  0  0
    7.2048   -3.0771   23.6680 C   0  0  0  0  0  0  0  0  0  0  0  0
    8.0122   -4.3694   23.3348 C   0  0  0  0  0  0  0  0  0  0  0  0
    8.1360   -5.3061   24.5115 C   0  0  0  0  0  0  0  0  0  0  0  0
    7.8281   -4.9598   25.7632 C   0  0  0  0  0  0  0  0  0  0  0  0
    7.4768   -3.5473   26.1680 C   0  0  0  0  0  0  0  0  0  0  0  0
    7.7062   -2.5253   25.0335 C   0  0  0  0  0  0  0  0  0  0  0  0
    7.2175   -1.5756   25.2826 H   0  0  0  0  0  0  0  0  0  0  0  0
    8.7830   -2.3134   24.9474 H   0  0  0  0  0  0  0  0  0  0  0  0
    8.0658   -3.2699   27.0532 H   0  0  0  0  0  0  0  0  0  0  0  0
    6.4294   -3.5271   26.5035 H   0  0  0  0  0  0  0  0  0  0  0  0
    7.7954   -5.7210   26.5440 H   0  0  0  0  0  0  0  0  0  0  0  0
    8.5488   -6.2928   24.3084 H   0  0  0  0  0  0  0  0  0  0  0  0
    7.5585   -4.8967   22.4857 H   0  0  0  0  0  0  0  0  0  0  0  0
    9.0253   -4.0850   23.0085 H   0  0  0  0  0  0  0  0  0  0  0  0
    6.1348   -3.3157   23.7443 H   0  0  0  0  0  0  0  0  0  0  0  0
    6.3679   -1.7947   21.6798 N   0  0  0  0  0  0  0  0  0  0  0  0
    6.9693   -0.9158   20.8334 N   0  0  0  0  0  0  0  0  0  0  0  0
    6.2920   -0.2424   19.7777 C   0  0  0  0  0  0  0  0  0  0  0  0
    5.1496    0.5296   20.0129 C   0  0  0  0  0  0  0  0  0  0  0  0
    4.6856    1.3445   18.9736 C   0  0  0  0  0  0  0  0  0  0  0  0
    5.3535    1.3402   17.7431 C   0  0  0  0  0  0  0  0  0  0  0  0
    6.4127    0.5567   17.4940 N   0  0  0  0  0  0  0  0  0  0  0  0
    6.8541   -0.2187   18.4877 C   0  0  0  0  0  0  0  0  0  0  0  0
    7.7310   -0.8235   18.2679 H   0  0  0  0  0  0  0  0  0  0  0  0
    5.0264    1.9802   16.9262 H   0  0  0  0  0  0  0  0  0  0  0  0
    3.8383    2.0054   19.1094 H   0  0  0  0  0  0  0  0  0  0  0  0
    4.6752    0.5075   20.9943 H   0  0  0  0  0  0  0  0  0  0  0  0
    8.6783    1.0022   20.0469 H   0  0  0  0  0  0  0  0  0  0  0  0
    9.6795   -0.4190   19.7164 H   0  0  0  0  0  0  0  0  0  0  0  0
   10.0501    1.9709   22.0874 C   0  0  0  0  0  0  0  0  0  0  0  0
   10.9078    2.3202   23.1174 C   0  0  0  0  0  0  0  0  0  0  0  0
   11.9948    1.6072   23.4590 N   0  0  0  0  0  0  0  0  0  0  0  0
   10.7075    3.2061   23.7139 H   0  0  0  0  0  0  0  0  0  0  0  0
    9.2495    2.6391   21.7881 H   0  0  0  0  0  0  0  0  0  0  0  0
   11.6688   -0.9143   21.2881 H   0  0  0  0  0  0  0  0  0  0  0  0
   15.0697   -0.4854   23.9303 H   0  0  0  0  0  0  0  0  0  0  0  0
   13.9347    0.6047   24.7933 H   0  0  0  0  0  0  0  0  0  0  0  0
   14.8126    1.1819   23.3435 H   0  0  0  0  0  0  0  0  0  0  0  0
  1  2  1  0
  2  3  1  0
  3  4  2  0
  4  5  1  0
  5  6  1  0
  6  7  1  0
  7  8  2  0
  8  9  1  0
  9 10  1  0
 10 11  1  0
 11 12  1  0
 12 13  2  0
 13 14  1  0
 14 15  1  0
 15 16  1  0
 15 17  1  0
 14 18  1  0
 14 19  1  0
 13 20  1  0
 12 21  1  0
 11 22  1  0
 11 23  1  0
 10 24  1  0
  9 25  2  0
 25 26  1  0
 26 27  1  0
 27 28  2  0
 28 29  1  0
 29 30  2  0
 30 31  1  0
 31 32  2  0
 32 33  1  0
 30 34  1  0
 29 35  1  0
 28 36  1  0
  6 37  1  0
  6 38  1  0
  5 39  2  0
 39 40  1  0
 40 41  2  0
 40 42  1  0
 39 43  1  0
  4 44  1  0
  1 45  1  0
  1 46  1  0
  1 47  1  0
 41  3  1  0
 26  7  1  0
 32 27  1  0
 15 10  1  0
M  END
>  <cnnaffinity>  (1) 
-6.67189

>  <filename>  (1) 
COc1cc(Cc2nc(C3CC=CCC3)nn2-c2cccnc2)ccn1

$$$$
