
     RDKit          3D

 40 42  0  0  0  0  0  0  0  0999 V2000
    5.0141    1.7667   16.9063 H   0  0  0  0  0  0  0  0  0  0  0  0
    5.4612    1.2753   17.7673 C   0  0  0  0  0  0  0  0  0  0  0  0
    6.6005    0.6023   17.5460 N   0  0  0  0  0  0  0  0  0  0  0  0
    7.1594   -0.0215   18.5887 C   0  0  0  0  0  0  0  0  0  0  0  0
    8.0723   -0.5753   18.3690 H   0  0  0  0  0  0  0  0  0  0  0  0
    6.6504    0.0327   19.9067 C   0  0  0  0  0  0  0  0  0  0  0  0
    7.3483   -0.6399   21.0220 C   0  0  0  0  0  0  0  0  0  0  0  0
    7.6118   -0.0713   22.2625 C   0  0  0  0  0  0  0  0  0  0  0  0
    7.2746    1.2815   22.5564 N   0  0  0  0  0  0  0  0  0  0  0  0
    8.1829    2.3025   22.0336 C   0  0  0  0  0  0  0  0  0  0  0  0
    9.0473    2.4685   22.7049 H   0  0  0  0  0  0  0  0  0  0  0  0
    8.5760    1.9494   21.0739 H   0  0  0  0  0  0  0  0  0  0  0  0
    7.4104    3.6060   21.8276 C   0  0  0  0  0  0  0  0  0  0  0  0
    8.0986    4.3898   21.4898 H   0  0  0  0  0  0  0  0  0  0  0  0
    6.6499    3.4270   21.0529 H   0  0  0  0  0  0  0  0  0  0  0  0
    6.6338    4.0717   23.0644 C   0  0  0  0  0  0  0  0  0  0  0  0
    5.9259    4.8546   22.7370 H   0  0  0  0  0  0  0  0  0  0  0  0
    7.5104    4.5824   24.0639 O   0  0  0  0  0  0  0  0  0  0  0  0
    7.2856    5.9156   24.4749 C   0  0  0  0  0  0  0  0  0  0  0  0
    8.1286    6.1964   25.1067 H   0  0  0  0  0  0  0  0  0  0  0  0
    7.2496    6.6198   23.6294 H   0  0  0  0  0  0  0  0  0  0  0  0
    6.3589    6.0404   25.0572 H   0  0  0  0  0  0  0  0  0  0  0  0
    5.8330    2.8872   23.6204 C   0  0  0  0  0  0  0  0  0  0  0  0
    5.2997    3.1869   24.5266 H   0  0  0  0  0  0  0  0  0  0  0  0
    5.0898    2.5951   22.8661 H   0  0  0  0  0  0  0  0  0  0  0  0
    6.7170    1.6578   23.8559 C   0  0  0  0  0  0  0  0  0  0  0  0
    7.5041    1.9017   24.5928 H   0  0  0  0  0  0  0  0  0  0  0  0
    6.1131    0.8320   24.2513 H   0  0  0  0  0  0  0  0  0  0  0  0
    8.2962   -0.8711   23.2418 C   0  0  0  0  0  0  0  0  0  0  0  0
    8.5501   -0.3977   24.1918 H   0  0  0  0  0  0  0  0  0  0  0  0
    8.6242   -2.1777   22.9925 C   0  0  0  0  0  0  0  0  0  0  0  0
    9.1104   -2.8161   23.7137 H   0  0  0  0  0  0  0  0  0  0  0  0
    8.2886   -2.8038   21.7218 C   0  0  0  0  0  0  0  0  0  0  0  0
    8.4222   -3.9823   21.4287 O   0  0  0  0  0  0  0  0  0  0  0  0
    7.7662   -1.9295   20.7805 N   0  0  0  0  0  0  0  0  0  0  0  0
    7.5260   -2.4056   19.9257 H   0  0  0  0  0  0  0  0  0  0  0  0
    5.4509    0.7321   20.1095 C   0  0  0  0  0  0  0  0  0  0  0  0
    4.9939    0.7597   21.1008 H   0  0  0  0  0  0  0  0  0  0  0  0
    4.8401    1.3486   19.0189 C   0  0  0  0  0  0  0  0  0  0  0  0
    3.9022    1.8796   19.1269 H   0  0  0  0  0  0  0  0  0  0  0  0
  1  2  1  0
  2  3  2  0
  3  4  1  0
  4  5  1  0
  4  6  2  0
  6  7  1  0
  7  8  2  0
  8  9  1  0
  9 10  1  0
 10 11  1  0
 10 12  1  0
 10 13  1  0
 13 14  1  0
 13 15  1  0
 13 16  1  0
 16 17  1  0
 16 18  1  0
 18 19  1  0
 19 20  1  0
 19 21  1  0
 19 22  1  0
 16 23  1  0
 23 24  1  0
 23 25  1  0
 23 26  1  0
 26 27  1  0
 26 28  1  0
  8 29  1  0
 29 30  1  0
 29 31  2  0
 31 32  1  0
 31 33  1  0
 33 34  2  0
 33 35  1  0
 35 36  1  0
  6 37  1  0
 37 38  1  0
 37 39  2  0
 39 40  1  0
 39  2  1  0
 35  7  1  0
 26  9  1  0
M  END
>  <cnnaffinity>  (1) 
-5.27773

>  <filename>  (1) 
COC1CCN(c2ccc(=O)[nH]c2-c2cccnc2)CC1

$$$$
