
     RDKit          3D

 33 35  0  0  0  0  0  0  0  0999 V2000
    4.9737    1.7946   16.9557 H   0  0  0  0  0  0  0  0  0  0  0  0
    5.4710    1.3226   17.8035 C   0  0  0  0  0  0  0  0  0  0  0  0
    6.6621    0.7587   17.5523 N   0  0  0  0  0  0  0  0  0  0  0  0
    7.2763    0.1374   18.5648 C   0  0  0  0  0  0  0  0  0  0  0  0
    8.2480   -0.2978   18.3441 H   0  0  0  0  0  0  0  0  0  0  0  0
    6.7265   -0.0073   19.8532 C   0  0  0  0  0  0  0  0  0  0  0  0
    7.4703   -0.8400   20.8586 C   0  0  0  0  0  0  0  0  0  0  0  0
    8.7634   -0.6231   20.9105 N   0  0  0  0  0  0  0  0  0  0  0  0
    9.4846   -1.1977   21.9191 N   0  0  0  0  0  0  0  0  0  0  0  0
   10.8907   -0.9221   21.9645 C   0  0  0  0  0  0  0  0  0  0  0  0
   11.3964    0.4116   21.9342 C   0  0  0  0  0  0  0  0  0  0  0  0
   10.5090    1.4059   21.8471 O   0  0  0  0  0  0  0  0  0  0  0  0
   10.9524    2.7415   21.6536 C   0  0  0  0  0  0  0  0  0  0  0  0
   10.0532    3.3361   21.8087 H   0  0  0  0  0  0  0  0  0  0  0  0
   11.3428    2.8677   20.6349 H   0  0  0  0  0  0  0  0  0  0  0  0
   11.7280    3.0288   22.3717 H   0  0  0  0  0  0  0  0  0  0  0  0
   12.6908    0.7071   22.0628 N   0  0  0  0  0  0  0  0  0  0  0  0
   13.5751   -0.3009   22.1163 C   0  0  0  0  0  0  0  0  0  0  0  0
   14.6281   -0.0174   22.1931 H   0  0  0  0  0  0  0  0  0  0  0  0
   13.1916   -1.6360   22.0670 C   0  0  0  0  0  0  0  0  0  0  0  0
   13.9403   -2.4203   22.0270 H   0  0  0  0  0  0  0  0  0  0  0  0
   11.8201   -1.9533   22.0675 C   0  0  0  0  0  0  0  0  0  0  0  0
   11.4733   -2.9867   22.1551 H   0  0  0  0  0  0  0  0  0  0  0  0
    8.8890   -1.9303   22.9202 C   0  0  0  0  0  0  0  0  0  0  0  0
    9.5427   -2.2327   23.7420 H   0  0  0  0  0  0  0  0  0  0  0  0
    7.5830   -2.2487   22.8879 C   0  0  0  0  0  0  0  0  0  0  0  0
    7.1135   -2.8232   23.6679 H   0  0  0  0  0  0  0  0  0  0  0  0
    6.7776   -1.8773   21.7349 C   0  0  0  0  0  0  0  0  0  0  0  0
    5.6779   -2.3681   21.5204 O   0  0  0  0  0  0  0  0  0  0  0  0
    5.4996    0.6364   20.1124 C   0  0  0  0  0  0  0  0  0  0  0  0
    5.0510    0.6143   21.1076 H   0  0  0  0  0  0  0  0  0  0  0  0
    4.8665    1.3086   19.0645 C   0  0  0  0  0  0  0  0  0  0  0  0
    3.9170    1.8162   19.2010 H   0  0  0  0  0  0  0  0  0  0  0  0
  1  2  1  0
  2  3  2  0
  3  4  1  0
  4  5  1  0
  4  6  2  0
  6  7  1  0
  7  8  2  0
  8  9  1  0
  9 10  1  0
 10 11  2  0
 11 12  1  0
 12 13  1  0
 13 14  1  0
 13 15  1  0
 13 16  1  0
 11 17  1  0
 17 18  2  0
 18 19  1  0
 18 20  1  0
 20 21  1  0
 20 22  2  0
 22 23  1  0
  9 24  1  0
 24 25  1  0
 24 26  2  0
 26 27  1  0
 26 28  1  0
 28 29  2  0
  6 30  1  0
 30 31  1  0
 30 32  2  0
 32 33  1  0
 32  2  1  0
 28  7  1  0
 22 10  1  0
M  END
>  <cnnaffinity>  (1) 
-5.64439

>  <filename>  (1) 
COc1ncccc1-n1ccc(=O)c(-c2cccnc2)n1

$$$$
