
     RDKit          3D

 47 50  0  0  0  0  0  0  0  0999 V2000
   13.1782   -1.8825   21.4088 C   0  0  0  0  0  0  0  0  0  0  0  0
   12.0710   -1.0364   21.1868 O   0  0  0  0  0  0  0  0  0  0  0  0
   11.8614    0.0491   21.9582 C   0  0  0  0  0  0  0  0  0  0  0  0
   12.7190    0.4724   22.9816 C   0  0  0  0  0  0  0  0  0  0  0  0
   12.4086    1.6642   23.6233 C   0  0  0  0  0  0  0  0  0  0  0  0
   11.3378    2.4114   23.3439 N   0  0  0  0  0  0  0  0  0  0  0  0
   10.5119    1.9581   22.3893 C   0  0  0  0  0  0  0  0  0  0  0  0
   10.6955    0.7823   21.6662 C   0  0  0  0  0  0  0  0  0  0  0  0
    9.6508    0.2332   20.7044 C   0  0  0  0  0  0  0  0  0  0  0  0
    8.6055   -0.6237   21.3502 C   0  0  0  0  0  0  0  0  0  0  0  0
    8.8089   -1.4525   22.3489 N   0  0  0  0  0  0  0  0  0  0  0  0
    7.5939   -2.0086   22.5439 C   0  0  0  0  0  0  0  0  0  0  0  0
    7.3669   -3.0261   23.6143 C   0  0  0  0  0  0  0  0  0  0  0  0
    7.0386   -4.4104   23.0001 C   0  0  0  0  0  0  0  0  0  0  0  0
    6.5182   -5.3827   24.0228 C   0  0  0  0  0  0  0  0  0  0  0  0
    6.1001   -5.0280   25.2406 C   0  0  0  0  0  0  0  0  0  0  0  0
    6.1004   -3.6033   25.7438 C   0  0  0  0  0  0  0  0  0  0  0  0
    6.2660   -2.5859   24.6065 C   0  0  0  0  0  0  0  0  0  0  0  0
    5.3249   -2.5038   24.0517 H   0  0  0  0  0  0  0  0  0  0  0  0
    6.4880   -1.5918   25.0139 H   0  0  0  0  0  0  0  0  0  0  0  0
    5.1710   -3.4026   26.2934 H   0  0  0  0  0  0  0  0  0  0  0  0
    6.9080   -3.4845   26.4812 H   0  0  0  0  0  0  0  0  0  0  0  0
    5.7358   -5.7911   25.9256 H   0  0  0  0  0  0  0  0  0  0  0  0
    6.4777   -6.4226   23.7105 H   0  0  0  0  0  0  0  0  0  0  0  0
    6.2846   -4.2905   22.2089 H   0  0  0  0  0  0  0  0  0  0  0  0
    7.9272   -4.8295   22.5078 H   0  0  0  0  0  0  0  0  0  0  0  0
    8.3218   -3.0941   24.1487 H   0  0  0  0  0  0  0  0  0  0  0  0
    6.6503   -1.5936   21.7162 N   0  0  0  0  0  0  0  0  0  0  0  0
    7.3109   -0.7058   20.9295 N   0  0  0  0  0  0  0  0  0  0  0  0
    6.6381   -0.0204   19.8855 C   0  0  0  0  0  0  0  0  0  0  0  0
    5.4278    0.6298   20.1485 C   0  0  0  0  0  0  0  0  0  0  0  0
    4.8026    1.3085   19.1007 C   0  0  0  0  0  0  0  0  0  0  0  0
    5.3984    1.2961   17.8336 C   0  0  0  0  0  0  0  0  0  0  0  0
    6.5482    0.6567   17.5669 N   0  0  0  0  0  0  0  0  0  0  0  0
    7.1541    0.0227   18.5773 C   0  0  0  0  0  0  0  0  0  0  0  0
    8.0989   -0.4672   18.3408 H   0  0  0  0  0  0  0  0  0  0  0  0
    4.9333    1.8173   17.0011 H   0  0  0  0  0  0  0  0  0  0  0  0
    3.8744    1.8499   19.2580 H   0  0  0  0  0  0  0  0  0  0  0  0
    5.0098    0.5950   21.1535 H   0  0  0  0  0  0  0  0  0  0  0  0
    9.1517    1.0459   20.1738 H   0  0  0  0  0  0  0  0  0  0  0  0
   10.1252   -0.4304   19.9726 H   0  0  0  0  0  0  0  0  0  0  0  0
    9.6374    2.5808   22.1893 H   0  0  0  0  0  0  0  0  0  0  0  0
   13.0641    2.0347   24.4084 H   0  0  0  0  0  0  0  0  0  0  0  0
   13.5810   -0.1134   23.2764 H   0  0  0  0  0  0  0  0  0  0  0  0
   13.3148   -2.4612   20.4920 H   0  0  0  0  0  0  0  0  0  0  0  0
   14.0868   -1.3025   21.6002 H   0  0  0  0  0  0  0  0  0  0  0  0
   12.9936   -2.5533   22.2554 H   0  0  0  0  0  0  0  0  0  0  0  0
  1  2  1  0
  2  3  1  0
  3  4  2  0
  4  5  1  0
  5  6  2  0
  6  7  1  0
  7  8  2  0
  8  9  1  0
  9 10  1  0
 10 11  2  0
 11 12  1  0
 12 13  1  0
 13 14  1  0
 14 15  1  0
 15 16  2  0
 16 17  1  0
 17 18  1  0
 18 19  1  0
 18 20  1  0
 17 21  1  0
 17 22  1  0
 16 23  1  0
 15 24  1  0
 14 25  1  0
 14 26  1  0
 13 27  1  0
 12 28  2  0
 28 29  1  0
 29 30  1  0
 30 31  2  0
 31 32  1  0
 32 33  2  0
 33 34  1  0
 34 35  2  0
 35 36  1  0
 33 37  1  0
 32 38  1  0
 31 39  1  0
  9 40  1  0
  9 41  1  0
  7 42  1  0
  5 43  1  0
  4 44  1  0
  1 45  1  0
  1 46  1  0
  1 47  1  0
  8  3  1  0
 29 10  1  0
 35 30  1  0
 18 13  1  0
M  END
>  <cnnaffinity>  (1) 
-6.83754

>  <filename>  (1) 
COc1ccncc1Cc1nc(C2CC=CCC2)nn1-c1cccnc1

$$$$
