
     RDKit          3D

 46 49  0  0  0  0  0  0  0  0999 V2000
   11.0582   -2.2163   21.7594 C   0  0  0  0  0  0  0  0  0  0  0  0
   10.6739   -0.8614   21.7254 O   0  0  0  0  0  0  0  0  0  0  0  0
   11.6150    0.0959   21.8934 C   0  0  0  0  0  0  0  0  0  0  0  0
   12.9147   -0.1584   22.3348 C   0  0  0  0  0  0  0  0  0  0  0  0
   13.7063    0.9345   22.6561 C   0  0  0  0  0  0  0  0  0  0  0  0
   13.3103    2.2026   22.5220 N   0  0  0  0  0  0  0  0  0  0  0  0
   12.1012    2.4213   21.9799 C   0  0  0  0  0  0  0  0  0  0  0  0
   11.2057    1.4131   21.6173 C   0  0  0  0  0  0  0  0  0  0  0  0
    9.7925    1.6227   21.0725 C   0  0  0  0  0  0  0  0  0  0  0  0
    8.7429    1.2571   22.0795 C   0  0  0  0  0  0  0  0  0  0  0  0
    8.6655    1.9203   23.2090 N   0  0  0  0  0  0  0  0  0  0  0  0
    7.6676    1.3008   23.8825 C   0  0  0  0  0  0  0  0  0  0  0  0
    7.2092    1.8111   25.1955 C   0  0  0  0  0  0  0  0  0  0  0  0
    6.0829    1.2680   25.8428 C   0  0  0  0  0  0  0  0  0  0  0  0
    5.7040    1.7987   27.0711 C   0  0  0  0  0  0  0  0  0  0  0  0
    4.6567    1.2629   27.7093 F   0  0  0  0  0  0  0  0  0  0  0  0
    6.3633    2.8649   27.6743 C   0  0  0  0  0  0  0  0  0  0  0  0
    7.4384    3.4107   26.9822 C   0  0  0  0  0  0  0  0  0  0  0  0
    8.0504    4.4836   27.4961 F   0  0  0  0  0  0  0  0  0  0  0  0
    7.8945    2.8971   25.7762 C   0  0  0  0  0  0  0  0  0  0  0  0
    8.7611    3.3351   25.2892 H   0  0  0  0  0  0  0  0  0  0  0  0
    6.0634    3.2419   28.6437 H   0  0  0  0  0  0  0  0  0  0  0  0
    5.5106    0.4575   25.4022 H   0  0  0  0  0  0  0  0  0  0  0  0
    7.1314    0.2834   23.2272 N   0  0  0  0  0  0  0  0  0  0  0  0
    7.8276    0.2554   22.0673 N   0  0  0  0  0  0  0  0  0  0  0  0
    7.4155   -0.6703   21.0145 C   0  0  0  0  0  0  0  0  0  0  0  0
    6.6771    0.0005   19.8753 C   0  0  0  0  0  0  0  0  0  0  0  0
    5.4591    0.6465   20.1249 C   0  0  0  0  0  0  0  0  0  0  0  0
    4.8262    1.3022   19.0686 C   0  0  0  0  0  0  0  0  0  0  0  0
    5.4274    1.2911   17.8062 C   0  0  0  0  0  0  0  0  0  0  0  0
    6.5763    0.6530   17.5411 N   0  0  0  0  0  0  0  0  0  0  0  0
    7.1735    0.0250   18.5630 C   0  0  0  0  0  0  0  0  0  0  0  0
    8.1007   -0.4962   18.3182 H   0  0  0  0  0  0  0  0  0  0  0  0
    4.9606    1.8132   16.9724 H   0  0  0  0  0  0  0  0  0  0  0  0
    3.8936    1.8323   19.2154 H   0  0  0  0  0  0  0  0  0  0  0  0
    5.0264    0.6505   21.1300 H   0  0  0  0  0  0  0  0  0  0  0  0
    8.2917   -1.2259   20.6661 H   0  0  0  0  0  0  0  0  0  0  0  0
    6.7569   -1.3893   21.5102 H   0  0  0  0  0  0  0  0  0  0  0  0
    9.6249    2.6763   20.8220 H   0  0  0  0  0  0  0  0  0  0  0  0
    9.6376    1.0073   20.1824 H   0  0  0  0  0  0  0  0  0  0  0  0
   11.8376    3.4738   21.8395 H   0  0  0  0  0  0  0  0  0  0  0  0
   14.7154    0.7686   23.0339 H   0  0  0  0  0  0  0  0  0  0  0  0
   13.2920   -1.1689   22.4155 H   0  0  0  0  0  0  0  0  0  0  0  0
   11.3210   -2.5524   22.7725 H   0  0  0  0  0  0  0  0  0  0  0  0
   10.1856   -2.7679   21.4070 H   0  0  0  0  0  0  0  0  0  0  0  0
   11.9213   -2.3844   21.1027 H   0  0  0  0  0  0  0  0  0  0  0  0
  1  2  1  0
  2  3  1  0
  3  4  2  0
  4  5  1  0
  5  6  2  0
  6  7  1  0
  7  8  2  0
  8  9  1  0
  9 10  1  0
 10 11  2  0
 11 12  1  0
 12 13  1  0
 13 14  2  0
 14 15  1  0
 15 16  1  0
 15 17  2  0
 17 18  1  0
 18 19  1  0
 18 20  2  0
 20 21  1  0
 17 22  1  0
 14 23  1  0
 12 24  2  0
 24 25  1  0
 25 26  1  0
 26 27  1  0
 27 28  2  0
 28 29  1  0
 29 30  2  0
 30 31  1  0
 31 32  2  0
 32 33  1  0
 30 34  1  0
 29 35  1  0
 28 36  1  0
 26 37  1  0
 26 38  1  0
  9 39  1  0
  9 40  1  0
  7 41  1  0
  5 42  1  0
  4 43  1  0
  1 44  1  0
  1 45  1  0
  1 46  1  0
  8  3  1  0
 25 10  1  0
 32 27  1  0
 20 13  1  0
M  END
>  <cnnaffinity>  (1) 
-6.50028

>  <filename>  (1) 
COc1ccncc1Cc1nc(-c2cc(F)cc(F)c2)nn1Cc1cccnc1

$$$$
