
     RDKit          3D

 37 39  0  0  0  0  0  0  0  0999 V2000
    4.9339    1.7983   16.9967 H   0  0  0  0  0  0  0  0  0  0  0  0
    5.4014    1.2903   17.8381 C   0  0  0  0  0  0  0  0  0  0  0  0
    6.5601    0.6633   17.5798 N   0  0  0  0  0  0  0  0  0  0  0  0
    7.1792    0.0439   18.5898 C   0  0  0  0  0  0  0  0  0  0  0  0
    8.1120   -0.4502   18.3226 H   0  0  0  0  0  0  0  0  0  0  0  0
    6.6881    0.0014   19.9092 C   0  0  0  0  0  0  0  0  0  0  0  0
    7.3809   -0.6912   20.9471 N   0  0  0  0  0  0  0  0  0  0  0  0
    8.7284   -0.8899   21.1203 C   0  0  0  0  0  0  0  0  0  0  0  0
    9.4574   -0.4741   20.4345 H   0  0  0  0  0  0  0  0  0  0  0  0
    9.0125   -1.5892   22.1839 N   0  0  0  0  0  0  0  0  0  0  0  0
    7.8070   -1.8587   22.7746 C   0  0  0  0  0  0  0  0  0  0  0  0
    7.7383   -2.5243   23.9788 N   0  0  0  0  0  0  0  0  0  0  0  0
    6.4380   -2.6882   24.6169 C   0  0  0  0  0  0  0  0  0  0  0  0
    5.8252   -1.8118   24.3762 H   0  0  0  0  0  0  0  0  0  0  0  0
    5.9179   -3.5853   24.2385 H   0  0  0  0  0  0  0  0  0  0  0  0
    6.5993   -2.7661   26.1365 C   0  0  0  0  0  0  0  0  0  0  0  0
    6.9494   -1.7935   26.5101 H   0  0  0  0  0  0  0  0  0  0  0  0
    5.6306   -2.9979   26.5957 H   0  0  0  0  0  0  0  0  0  0  0  0
    7.6152   -3.8281   26.5485 C   0  0  0  0  0  0  0  0  0  0  0  0
    7.7750   -3.7617   27.6388 H   0  0  0  0  0  0  0  0  0  0  0  0
    7.0688   -5.0931   26.2163 O   0  0  0  0  0  0  0  0  0  0  0  0
    7.3745   -6.1454   27.1008 C   0  0  0  0  0  0  0  0  0  0  0  0
    8.4586   -6.2867   27.2439 H   0  0  0  0  0  0  0  0  0  0  0  0
    6.9394   -7.0268   26.6335 H   0  0  0  0  0  0  0  0  0  0  0  0
    6.9264   -5.9934   28.0964 H   0  0  0  0  0  0  0  0  0  0  0  0
    8.9476   -3.6041   25.8182 C   0  0  0  0  0  0  0  0  0  0  0  0
    9.3726   -2.6580   26.1770 H   0  0  0  0  0  0  0  0  0  0  0  0
    9.6446   -4.4176   26.0630 H   0  0  0  0  0  0  0  0  0  0  0  0
    8.7519   -3.5258   24.3006 C   0  0  0  0  0  0  0  0  0  0  0  0
    8.4562   -4.5105   23.9013 H   0  0  0  0  0  0  0  0  0  0  0  0
    9.6821   -3.2332   23.8001 H   0  0  0  0  0  0  0  0  0  0  0  0
    6.7927   -1.3372   22.0206 C   0  0  0  0  0  0  0  0  0  0  0  0
    5.7332   -1.4354   22.1180 H   0  0  0  0  0  0  0  0  0  0  0  0
    5.4672    0.6509   20.1620 C   0  0  0  0  0  0  0  0  0  0  0  0
    5.0368    0.6554   21.1626 H   0  0  0  0  0  0  0  0  0  0  0  0
    4.8192    1.3039   19.1080 C   0  0  0  0  0  0  0  0  0  0  0  0
    3.8815    1.8309   19.2597 H   0  0  0  0  0  0  0  0  0  0  0  0
  1  2  1  0
  2  3  2  0
  3  4  1  0
  4  5  1  0
  4  6  2  0
  6  7  1  0
  7  8  1  0
  8  9  1  0
  8 10  2  0
 10 11  1  0
 11 12  1  0
 12 13  1  0
 13 14  1  0
 13 15  1  0
 13 16  1  0
 16 17  1  0
 16 18  1  0
 16 19  1  0
 19 20  1  0
 19 21  1  0
 21 22  1  0
 22 23  1  0
 22 24  1  0
 22 25  1  0
 19 26  1  0
 26 27  1  0
 26 28  1  0
 26 29  1  0
 29 30  1  0
 29 31  1  0
 11 32  2  0
 32 33  1  0
  6 34  1  0
 34 35  1  0
 34 36  2  0
 36 37  1  0
 36  2  1  0
 32  7  1  0
 29 12  1  0
M  END
>  <cnnaffinity>  (1) 
-4.91954

>  <filename>  (1) 
COC1CCN(c2cn(-c3cccnc3)cn2)CC1

$$$$
