
     RDKit          3D

 49 52  0  0  0  0  0  0  0  0999 V2000
   11.0577   -2.2227   21.7400 C   0  0  0  0  0  0  0  0  0  0  0  0
   10.6621   -0.8721   21.7086 O   0  0  0  0  0  0  0  0  0  0  0  0
   11.6052    0.1050   21.8918 C   0  0  0  0  0  0  0  0  0  0  0  0
   12.9040   -0.1532   22.3452 C   0  0  0  0  0  0  0  0  0  0  0  0
   13.7380    0.9171   22.6813 C   0  0  0  0  0  0  0  0  0  0  0  0
   13.2891    2.2323   22.5405 C   0  0  0  0  0  0  0  0  0  0  0  0
   12.0252    2.4811   21.9760 C   0  0  0  0  0  0  0  0  0  0  0  0
   11.1757    1.4231   21.6257 C   0  0  0  0  0  0  0  0  0  0  0  0
    9.7675    1.6224   21.0765 C   0  0  0  0  0  0  0  0  0  0  0  0
    8.7338    1.2713   22.0976 C   0  0  0  0  0  0  0  0  0  0  0  0
    8.6598    1.9334   23.2279 N   0  0  0  0  0  0  0  0  0  0  0  0
    7.6551    1.3190   23.8971 C   0  0  0  0  0  0  0  0  0  0  0  0
    7.2196    1.8047   25.2091 C   0  0  0  0  0  0  0  0  0  0  0  0
    6.0851    1.2755   25.8521 C   0  0  0  0  0  0  0  0  0  0  0  0
    5.6895    1.7753   27.0855 C   0  0  0  0  0  0  0  0  0  0  0  0
    6.4081    2.8187   27.6988 C   0  0  0  0  0  0  0  0  0  0  0  0
    5.9879    3.3229   28.8972 N   0  0  0  0  0  0  0  0  0  0  0  0
    6.5524    3.9938   29.3821 H   0  0  0  0  0  0  0  0  0  0  0  0
    5.2589    2.8500   29.3983 H   0  0  0  0  0  0  0  0  0  0  0  0
    7.5373    3.3550   27.0537 C   0  0  0  0  0  0  0  0  0  0  0  0
    7.9344    2.8529   25.8234 C   0  0  0  0  0  0  0  0  0  0  0  0
    8.7972    3.2728   25.3074 H   0  0  0  0  0  0  0  0  0  0  0  0
    8.0893    4.1618   27.5226 H   0  0  0  0  0  0  0  0  0  0  0  0
    4.8223    1.3664   27.5915 H   0  0  0  0  0  0  0  0  0  0  0  0
    5.5178    0.4807   25.3690 H   0  0  0  0  0  0  0  0  0  0  0  0
    7.1123    0.3101   23.2346 N   0  0  0  0  0  0  0  0  0  0  0  0
    7.8135    0.2792   22.0806 N   0  0  0  0  0  0  0  0  0  0  0  0
    7.4183   -0.6541   21.0284 C   0  0  0  0  0  0  0  0  0  0  0  0
    6.6798    0.0097   19.8881 C   0  0  0  0  0  0  0  0  0  0  0  0
    5.4606    0.6558   20.1321 C   0  0  0  0  0  0  0  0  0  0  0  0
    4.8284    1.3047   19.0721 C   0  0  0  0  0  0  0  0  0  0  0  0
    5.4326    1.2860   17.8109 C   0  0  0  0  0  0  0  0  0  0  0  0
    6.5845    0.6487   17.5538 N   0  0  0  0  0  0  0  0  0  0  0  0
    7.1798    0.0267   18.5795 C   0  0  0  0  0  0  0  0  0  0  0  0
    8.1072   -0.4992   18.3429 H   0  0  0  0  0  0  0  0  0  0  0  0
    4.9669    1.7991   16.9715 H   0  0  0  0  0  0  0  0  0  0  0  0
    3.8926    1.8322   19.2142 H   0  0  0  0  0  0  0  0  0  0  0  0
    5.0267    0.6575   21.1356 H   0  0  0  0  0  0  0  0  0  0  0  0
    6.7635   -1.3803   21.5200 H   0  0  0  0  0  0  0  0  0  0  0  0
    8.3127   -1.1840   20.6855 H   0  0  0  0  0  0  0  0  0  0  0  0
    9.6047    2.6718   20.8170 H   0  0  0  0  0  0  0  0  0  0  0  0
    9.6098    1.0020   20.1898 H   0  0  0  0  0  0  0  0  0  0  0  0
   11.7161    3.5112   21.7933 H   0  0  0  0  0  0  0  0  0  0  0  0
   13.9501    3.0528   22.7985 H   0  0  0  0  0  0  0  0  0  0  0  0
   14.7475    0.7074   23.0245 H   0  0  0  0  0  0  0  0  0  0  0  0
   13.2502   -1.1792   22.4266 H   0  0  0  0  0  0  0  0  0  0  0  0
   10.1838   -2.7799   21.3913 H   0  0  0  0  0  0  0  0  0  0  0  0
   11.9134   -2.3657   21.0677 H   0  0  0  0  0  0  0  0  0  0  0  0
   11.3324   -2.5594   22.7511 H   0  0  0  0  0  0  0  0  0  0  0  0
  1  2  1  0
  2  3  1  0
  3  4  2  0
  4  5  1  0
  5  6  2  0
  6  7  1  0
  7  8  2  0
  8  9  1  0
  9 10  1  0
 10 11  2  0
 11 12  1  0
 12 13  1  0
 13 14  2  0
 14 15  1  0
 15 16  2  0
 16 17  1  0
 17 18  1  0
 17 19  1  0
 16 20  1  0
 20 21  2  0
 21 22  1  0
 20 23  1  0
 15 24  1  0
 14 25  1  0
 12 26  2  0
 26 27  1  0
 27 28  1  0
 28 29  1  0
 29 30  2  0
 30 31  1  0
 31 32  2  0
 32 33  1  0
 33 34  2  0
 34 35  1  0
 32 36  1  0
 31 37  1  0
 30 38  1  0
 28 39  1  0
 28 40  1  0
  9 41  1  0
  9 42  1  0
  7 43  1  0
  6 44  1  0
  5 45  1  0
  4 46  1  0
  1 47  1  0
  1 48  1  0
  1 49  1  0
  8  3  1  0
 27 10  1  0
 34 29  1  0
 21 13  1  0
M  END
>  <cnnaffinity>  (1) 
-6.05676

>  <filename>  (1) 
COc1ccccc1Cc1nc(-c2ccc(N)cc2)nn1Cc1cccnc1

$$$$
