
     RDKit          3D

 46 49  0  0  0  0  0  0  0  0999 V2000
   11.0575   -2.2171   21.7620 C   0  0  0  0  0  0  0  0  0  0  0  0
   10.6720   -0.8625   21.7269 O   0  0  0  0  0  0  0  0  0  0  0  0
   11.6126    0.0957   21.8965 C   0  0  0  0  0  0  0  0  0  0  0  0
   12.9127   -0.1596   22.3361 C   0  0  0  0  0  0  0  0  0  0  0  0
   13.7054    0.9340   22.6553 C   0  0  0  0  0  0  0  0  0  0  0  0
   13.3105    2.2017   22.5212 N   0  0  0  0  0  0  0  0  0  0  0  0
   12.1001    2.4207   21.9810 C   0  0  0  0  0  0  0  0  0  0  0  0
   11.2033    1.4120   21.6205 C   0  0  0  0  0  0  0  0  0  0  0  0
    9.7899    1.6230   21.0760 C   0  0  0  0  0  0  0  0  0  0  0  0
    8.7393    1.2622   22.0845 C   0  0  0  0  0  0  0  0  0  0  0  0
    8.6609    1.9281   23.2112 N   0  0  0  0  0  0  0  0  0  0  0  0
    7.6603    1.3131   23.8860 C   0  0  0  0  0  0  0  0  0  0  0  0
    7.2181    1.8090   25.2019 C   0  0  0  0  0  0  0  0  0  0  0  0
    6.0804    1.2824   25.8432 C   0  0  0  0  0  0  0  0  0  0  0  0
    5.6928    1.7850   27.0857 C   0  0  0  0  0  0  0  0  0  0  0  0
    6.4217    2.8139   27.6941 C   0  0  0  0  0  0  0  0  0  0  0  0
    7.5414    3.3527   27.0517 C   0  0  0  0  0  0  0  0  0  0  0  0
    7.9387    2.8561   25.8130 C   0  0  0  0  0  0  0  0  0  0  0  0
    8.8037    3.2714   25.2972 H   0  0  0  0  0  0  0  0  0  0  0  0
    8.1098    4.1560   27.5124 H   0  0  0  0  0  0  0  0  0  0  0  0
    6.1233    3.1904   28.6684 H   0  0  0  0  0  0  0  0  0  0  0  0
    4.8240    1.3662   27.5853 H   0  0  0  0  0  0  0  0  0  0  0  0
    5.5102    0.4872   25.3634 H   0  0  0  0  0  0  0  0  0  0  0  0
    7.1217    0.2974   23.2284 N   0  0  0  0  0  0  0  0  0  0  0  0
    7.8225    0.2642   22.0718 N   0  0  0  0  0  0  0  0  0  0  0  0
    7.4153   -0.6656   21.0204 C   0  0  0  0  0  0  0  0  0  0  0  0
    6.6765    0.0027   19.8797 C   0  0  0  0  0  0  0  0  0  0  0  0
    5.4581    0.6486   20.1284 C   0  0  0  0  0  0  0  0  0  0  0  0
    4.8260    1.3030   19.0699 C   0  0  0  0  0  0  0  0  0  0  0  0
    5.4288    1.2897   17.8085 C   0  0  0  0  0  0  0  0  0  0  0  0
    6.5778    0.6521   17.5445 N   0  0  0  0  0  0  0  0  0  0  0  0
    7.1745    0.0257   18.5686 C   0  0  0  0  0  0  0  0  0  0  0  0
    8.1019   -0.4963   18.3263 H   0  0  0  0  0  0  0  0  0  0  0  0
    4.9626    1.8097   16.9730 H   0  0  0  0  0  0  0  0  0  0  0  0
    3.8924    1.8319   19.2149 H   0  0  0  0  0  0  0  0  0  0  0  0
    5.0230    0.6532   21.1323 H   0  0  0  0  0  0  0  0  0  0  0  0
    6.7564   -1.3831   21.5173 H   0  0  0  0  0  0  0  0  0  0  0  0
    8.2956   -1.2185   20.6764 H   0  0  0  0  0  0  0  0  0  0  0  0
    9.6328    1.0047   20.1879 H   0  0  0  0  0  0  0  0  0  0  0  0
    9.6226    2.6766   20.8259 H   0  0  0  0  0  0  0  0  0  0  0  0
   11.8371    3.4723   21.8387 H   0  0  0  0  0  0  0  0  0  0  0  0
   14.7143    0.7678   23.0318 H   0  0  0  0  0  0  0  0  0  0  0  0
   13.2912   -1.1692   22.4158 H   0  0  0  0  0  0  0  0  0  0  0  0
   10.1867   -2.7704   21.4090 H   0  0  0  0  0  0  0  0  0  0  0  0
   11.3191   -2.5530   22.7746 H   0  0  0  0  0  0  0  0  0  0  0  0
   11.9204   -2.3883   21.1060 H   0  0  0  0  0  0  0  0  0  0  0  0
  1  2  1  0
  2  3  1  0
  3  4  2  0
  4  5  1  0
  5  6  2  0
  6  7  1  0
  7  8  2  0
  8  9  1  0
  9 10  1  0
 10 11  2  0
 11 12  1  0
 12 13  1  0
 13 14  2  0
 14 15  1  0
 15 16  2  0
 16 17  1  0
 17 18  2  0
 18 19  1  0
 17 20  1  0
 16 21  1  0
 15 22  1  0
 14 23  1  0
 12 24  2  0
 24 25  1  0
 25 26  1  0
 26 27  1  0
 27 28  2  0
 28 29  1  0
 29 30  2  0
 30 31  1  0
 31 32  2  0
 32 33  1  0
 30 34  1  0
 29 35  1  0
 28 36  1  0
 26 37  1  0
 26 38  1  0
  9 39  1  0
  9 40  1  0
  7 41  1  0
  5 42  1  0
  4 43  1  0
  1 44  1  0
  1 45  1  0
  1 46  1  0
  8  3  1  0
 25 10  1  0
 32 27  1  0
 18 13  1  0
M  END
>  <cnnaffinity>  (1) 
-6.24971

>  <filename>  (1) 
COc1ccncc1Cc1nc(-c2ccccc2)nn1Cc1cccnc1

$$$$
