
     RDKit          3D

 49 52  0  0  0  0  0  0  0  0999 V2000
    4.4717   -1.3297   27.1634 C   0  0  0  0  0  0  0  0  0  0  0  0
    4.7449   -0.5830   25.9971 O   0  0  0  0  0  0  0  0  0  0  0  0
    5.9522    0.0318   25.8683 C   0  0  0  0  0  0  0  0  0  0  0  0
    6.9812    0.0035   26.8171 C   0  0  0  0  0  0  0  0  0  0  0  0
    8.1882    0.6632   26.5448 C   0  0  0  0  0  0  0  0  0  0  0  0
    8.3626    1.3449   25.3433 C   0  0  0  0  0  0  0  0  0  0  0  0
    7.3349    1.3719   24.3854 C   0  0  0  0  0  0  0  0  0  0  0  0
    7.6244    1.9412   22.9976 C   0  0  0  0  0  0  0  0  0  0  0  0
    8.5450    0.9906   22.2997 C   0  0  0  0  0  0  0  0  0  0  0  0
    9.8623    1.0673   22.3877 N   0  0  0  0  0  0  0  0  0  0  0  0
   10.2682   -0.1768   22.0473 C   0  0  0  0  0  0  0  0  0  0  0  0
   11.6688   -0.5994   21.9335 C   0  0  0  0  0  0  0  0  0  0  0  0
   11.8825   -1.7696   21.1935 C   0  0  0  0  0  0  0  0  0  0  0  0
   13.1078   -2.0274   20.6256 C   0  0  0  0  0  0  0  0  0  0  0  0
   14.1832   -1.1686   20.8595 C   0  0  0  0  0  0  0  0  0  0  0  0
   15.1888   -1.2650   19.9247 N   0  0  0  0  0  0  0  0  0  0  0  0
   16.0770   -0.8187   20.0803 H   0  0  0  0  0  0  0  0  0  0  0  0
   15.2585   -2.1750   19.5000 H   0  0  0  0  0  0  0  0  0  0  0  0
   14.0582   -0.1513   21.8380 C   0  0  0  0  0  0  0  0  0  0  0  0
   12.7833    0.1594   22.3390 C   0  0  0  0  0  0  0  0  0  0  0  0
   12.6587    1.0214   22.9957 H   0  0  0  0  0  0  0  0  0  0  0  0
   14.8999    0.5085   22.0339 H   0  0  0  0  0  0  0  0  0  0  0  0
   13.2298   -2.8149   19.8868 H   0  0  0  0  0  0  0  0  0  0  0  0
   11.0190   -2.3846   20.9660 H   0  0  0  0  0  0  0  0  0  0  0  0
    9.2760   -0.9894   21.7014 N   0  0  0  0  0  0  0  0  0  0  0  0
    8.1714   -0.2276   21.8397 N   0  0  0  0  0  0  0  0  0  0  0  0
    6.9077   -0.7112   21.2677 C   0  0  0  0  0  0  0  0  0  0  0  0
    6.4252    0.0703   20.0572 C   0  0  0  0  0  0  0  0  0  0  0  0
    5.2076    0.7597   20.0300 C   0  0  0  0  0  0  0  0  0  0  0  0
    4.8344    1.4340   18.8640 C   0  0  0  0  0  0  0  0  0  0  0  0
    5.6906    1.3861   17.7617 C   0  0  0  0  0  0  0  0  0  0  0  0
    6.8603    0.7296   17.7604 N   0  0  0  0  0  0  0  0  0  0  0  0
    7.2107    0.1020   18.8898 C   0  0  0  0  0  0  0  0  0  0  0  0
    8.1673   -0.4177   18.8641 H   0  0  0  0  0  0  0  0  0  0  0  0
    5.4310    1.9007   16.8389 H   0  0  0  0  0  0  0  0  0  0  0  0
    3.9062    1.9917   18.7994 H   0  0  0  0  0  0  0  0  0  0  0  0
    4.5551    0.7719   20.9047 H   0  0  0  0  0  0  0  0  0  0  0  0
    6.1490   -0.7206   22.0583 H   0  0  0  0  0  0  0  0  0  0  0  0
    7.1141   -1.7532   20.9941 H   0  0  0  0  0  0  0  0  0  0  0  0
    6.7116    2.0782   22.4124 H   0  0  0  0  0  0  0  0  0  0  0  0
    8.1451    2.9027   23.0580 H   0  0  0  0  0  0  0  0  0  0  0  0
    6.1375    0.7212   24.6586 C   0  0  0  0  0  0  0  0  0  0  0  0
    5.3247    0.6878   23.9391 H   0  0  0  0  0  0  0  0  0  0  0  0
    9.3166    1.8150   25.1101 H   0  0  0  0  0  0  0  0  0  0  0  0
    9.0052    0.5977   27.2579 H   0  0  0  0  0  0  0  0  0  0  0  0
    6.8586   -0.5442   27.7446 H   0  0  0  0  0  0  0  0  0  0  0  0
    5.1497   -2.1876   27.2715 H   0  0  0  0  0  0  0  0  0  0  0  0
    3.4497   -1.6908   27.0497 H   0  0  0  0  0  0  0  0  0  0  0  0
    4.5400   -0.7070   28.0651 H   0  0  0  0  0  0  0  0  0  0  0  0
  1  2  1  0
  2  3  1  0
  3  4  2  0
  4  5  1  0
  5  6  2  0
  6  7  1  0
  7  8  1  0
  8  9  1  0
  9 10  2  0
 10 11  1  0
 11 12  1  0
 12 13  2  0
 13 14  1  0
 14 15  2  0
 15 16  1  0
 16 17  1  0
 16 18  1  0
 15 19  1  0
 19 20  2  0
 20 21  1  0
 19 22  1  0
 14 23  1  0
 13 24  1  0
 11 25  2  0
 25 26  1  0
 26 27  1  0
 27 28  1  0
 28 29  2  0
 29 30  1  0
 30 31  2  0
 31 32  1  0
 32 33  2  0
 33 34  1  0
 31 35  1  0
 30 36  1  0
 29 37  1  0
 27 38  1  0
 27 39  1  0
  8 40  1  0
  8 41  1  0
  7 42  2  0
 42 43  1  0
  6 44  1  0
  5 45  1  0
  4 46  1  0
  1 47  1  0
  1 48  1  0
  1 49  1  0
 42  3  1  0
 26  9  1  0
 33 28  1  0
 20 12  1  0
M  END
>  <cnnaffinity>  (1) 
-6.64527

>  <filename>  (1) 
COc1cccc(Cc2nc(-c3ccc(N)cc3)nn2Cc2cccnc2)c1

$$$$
