
     RDKit          3D

 35 37  0  0  0  0  0  0  0  0999 V2000
    4.9358    1.7953   16.9868 H   0  0  0  0  0  0  0  0  0  0  0  0
    5.4000    1.2867   17.8307 C   0  0  0  0  0  0  0  0  0  0  0  0
    6.5626    0.6623   17.5776 N   0  0  0  0  0  0  0  0  0  0  0  0
    7.1564    0.0290   18.5939 C   0  0  0  0  0  0  0  0  0  0  0  0
    8.1179   -0.4349   18.3611 H   0  0  0  0  0  0  0  0  0  0  0  0
    6.6384   -0.0121   19.8990 C   0  0  0  0  0  0  0  0  0  0  0  0
    7.3768   -0.6593   20.9861 C   0  0  0  0  0  0  0  0  0  0  0  0
    7.7116   -0.0636   22.1869 C   0  0  0  0  0  0  0  0  0  0  0  0
    7.4768    1.3872   22.4414 C   0  0  0  0  0  0  0  0  0  0  0  0
    7.9931    2.3597   21.5697 C   0  0  0  0  0  0  0  0  0  0  0  0
    8.5309    2.0348   20.6840 H   0  0  0  0  0  0  0  0  0  0  0  0
    7.8000    3.7173   21.8502 C   0  0  0  0  0  0  0  0  0  0  0  0
    8.2332    4.5012   21.2334 H   0  0  0  0  0  0  0  0  0  0  0  0
    7.0417    4.1070   22.9462 C   0  0  0  0  0  0  0  0  0  0  0  0
    6.8356    5.1529   23.1509 H   0  0  0  0  0  0  0  0  0  0  0  0
    6.5216    3.1406   23.8211 C   0  0  0  0  0  0  0  0  0  0  0  0
    5.8355    3.6435   24.8816 O   0  0  0  0  0  0  0  0  0  0  0  0
    5.2886    2.7740   25.8508 C   0  0  0  0  0  0  0  0  0  0  0  0
    4.8062    3.4375   26.5721 H   0  0  0  0  0  0  0  0  0  0  0  0
    4.5435    2.0955   25.4114 H   0  0  0  0  0  0  0  0  0  0  0  0
    6.0658    2.1801   26.3537 H   0  0  0  0  0  0  0  0  0  0  0  0
    6.7507    1.7835   23.5751 C   0  0  0  0  0  0  0  0  0  0  0  0
    6.3791    1.0304   24.2635 H   0  0  0  0  0  0  0  0  0  0  0  0
    8.3421   -0.8691   23.1964 C   0  0  0  0  0  0  0  0  0  0  0  0
    8.5930   -0.3749   24.1361 H   0  0  0  0  0  0  0  0  0  0  0  0
    8.6347   -2.1813   22.9808 C   0  0  0  0  0  0  0  0  0  0  0  0
    9.1115   -2.8237   23.7100 H   0  0  0  0  0  0  0  0  0  0  0  0
    8.2939   -2.8139   21.7134 C   0  0  0  0  0  0  0  0  0  0  0  0
    8.4418   -3.9845   21.4051 O   0  0  0  0  0  0  0  0  0  0  0  0
    7.7383   -1.9655   20.7754 N   0  0  0  0  0  0  0  0  0  0  0  0
    7.4738   -2.4804   19.9543 H   0  0  0  0  0  0  0  0  0  0  0  0
    5.4240    0.6454   20.1485 C   0  0  0  0  0  0  0  0  0  0  0  0
    5.0134    0.6510   21.1599 H   0  0  0  0  0  0  0  0  0  0  0  0
    4.7969    1.3013   19.0923 C   0  0  0  0  0  0  0  0  0  0  0  0
    3.8719    1.8441   19.2352 H   0  0  0  0  0  0  0  0  0  0  0  0
  1  2  1  0
  2  3  2  0
  3  4  1  0
  4  5  1  0
  4  6  2  0
  6  7  1  0
  7  8  2  0
  8  9  1  0
  9 10  2  0
 10 11  1  0
 10 12  1  0
 12 13  1  0
 12 14  2  0
 14 15  1  0
 14 16  1  0
 16 17  1  0
 17 18  1  0
 18 19  1  0
 18 20  1  0
 18 21  1  0
 16 22  2  0
 22 23  1  0
  8 24  1  0
 24 25  1  0
 24 26  2  0
 26 27  1  0
 26 28  1  0
 28 29  2  0
 28 30  1  0
 30 31  1  0
  6 32  1  0
 32 33  1  0
 32 34  2  0
 34 35  1  0
 34  2  1  0
 30  7  1  0
 22  9  1  0
M  END
>  <cnnaffinity>  (1) 
-5.18477

>  <filename>  (1) 
COc1cccc(-c2ccc(=O)[nH]c2-c2cccnc2)c1

$$$$
