
     RDKit          3D

 46 49  0  0  0  0  0  0  0  0999 V2000
   11.0568   -2.2243   21.7329 C   0  0  0  0  0  0  0  0  0  0  0  0
   10.6582   -0.8787   21.7067 O   0  0  0  0  0  0  0  0  0  0  0  0
   11.6072    0.0951   21.8879 C   0  0  0  0  0  0  0  0  0  0  0  0
   12.9095   -0.1701   22.3319 C   0  0  0  0  0  0  0  0  0  0  0  0
   13.7471    0.8955   22.6724 C   0  0  0  0  0  0  0  0  0  0  0  0
   13.2973    2.2113   22.5353 C   0  0  0  0  0  0  0  0  0  0  0  0
   12.0358    2.4682   21.9716 C   0  0  0  0  0  0  0  0  0  0  0  0
   11.1828    1.4143   21.6243 C   0  0  0  0  0  0  0  0  0  0  0  0
    9.7733    1.6196   21.0809 C   0  0  0  0  0  0  0  0  0  0  0  0
    8.7420    1.2679   22.1053 C   0  0  0  0  0  0  0  0  0  0  0  0
    8.6633    1.9227   23.2437 N   0  0  0  0  0  0  0  0  0  0  0  0
    7.6494    1.3060   23.8909 C   0  0  0  0  0  0  0  0  0  0  0  0
    7.1864    1.7715   25.1886 C   0  0  0  0  0  0  0  0  0  0  0  0
    6.0507    1.2502   25.8317 C   0  0  0  0  0  0  0  0  0  0  0  0
    5.7354    1.8040   27.0623 C   0  0  0  0  0  0  0  0  0  0  0  0
    4.6758    1.3483   27.7405 F   0  0  0  0  0  0  0  0  0  0  0  0
    6.5189    2.8320   27.6080 C   0  0  0  0  0  0  0  0  0  0  0  0
    7.5861    3.3344   26.9736 N   0  0  0  0  0  0  0  0  0  0  0  0
    7.9102    2.8114   25.7858 C   0  0  0  0  0  0  0  0  0  0  0  0
    8.7715    3.2221   25.2676 H   0  0  0  0  0  0  0  0  0  0  0  0
    6.2666    3.2467   28.5808 H   0  0  0  0  0  0  0  0  0  0  0  0
    5.4467    0.4532   25.3934 H   0  0  0  0  0  0  0  0  0  0  0  0
    7.1047    0.3078   23.2243 N   0  0  0  0  0  0  0  0  0  0  0  0
    7.8191    0.2754   22.0771 N   0  0  0  0  0  0  0  0  0  0  0  0
    7.4240   -0.6576   21.0242 C   0  0  0  0  0  0  0  0  0  0  0  0
    6.6817    0.0080   19.8857 C   0  0  0  0  0  0  0  0  0  0  0  0
    5.4628    0.6545   20.1358 C   0  0  0  0  0  0  0  0  0  0  0  0
    4.8277    1.3039   19.0779 C   0  0  0  0  0  0  0  0  0  0  0  0
    5.4277    1.2888   17.8149 C   0  0  0  0  0  0  0  0  0  0  0  0
    6.5791    0.6535   17.5521 N   0  0  0  0  0  0  0  0  0  0  0  0
    7.1779    0.0303   18.5748 C   0  0  0  0  0  0  0  0  0  0  0  0
    8.1084   -0.4885   18.3354 H   0  0  0  0  0  0  0  0  0  0  0  0
    4.9579    1.8027   16.9784 H   0  0  0  0  0  0  0  0  0  0  0  0
    3.8909    1.8298   19.2213 H   0  0  0  0  0  0  0  0  0  0  0  0
    5.0307    0.6630   21.1412 H   0  0  0  0  0  0  0  0  0  0  0  0
    8.3092   -1.2045   20.6830 H   0  0  0  0  0  0  0  0  0  0  0  0
    6.7689   -1.3806   21.5178 H   0  0  0  0  0  0  0  0  0  0  0  0
    9.6117    0.9944   20.1977 H   0  0  0  0  0  0  0  0  0  0  0  0
    9.6122    2.6696   20.8182 H   0  0  0  0  0  0  0  0  0  0  0  0
   11.7339    3.5016   21.7889 H   0  0  0  0  0  0  0  0  0  0  0  0
   13.9613    3.0263   22.7980 H   0  0  0  0  0  0  0  0  0  0  0  0
   14.7579    0.6823   23.0113 H   0  0  0  0  0  0  0  0  0  0  0  0
   13.2614   -1.1939   22.4067 H   0  0  0  0  0  0  0  0  0  0  0  0
   11.3292   -2.5757   22.7397 H   0  0  0  0  0  0  0  0  0  0  0  0
   10.1905   -2.7922   21.3843 H   0  0  0  0  0  0  0  0  0  0  0  0
   11.9188   -2.3668   21.0687 H   0  0  0  0  0  0  0  0  0  0  0  0
  1  2  1  0
  2  3  1  0
  3  4  2  0
  4  5  1  0
  5  6  2  0
  6  7  1  0
  7  8  2  0
  8  9  1  0
  9 10  1  0
 10 11  2  0
 11 12  1  0
 12 13  1  0
 13 14  2  0
 14 15  1  0
 15 16  1  0
 15 17  2  0
 17 18  1  0
 18 19  2  0
 19 20  1  0
 17 21  1  0
 14 22  1  0
 12 23  2  0
 23 24  1  0
 24 25  1  0
 25 26  1  0
 26 27  2  0
 27 28  1  0
 28 29  2  0
 29 30  1  0
 30 31  2  0
 31 32  1  0
 29 33  1  0
 28 34  1  0
 27 35  1  0
 25 36  1  0
 25 37  1  0
  9 38  1  0
  9 39  1  0
  7 40  1  0
  6 41  1  0
  5 42  1  0
  4 43  1  0
  1 44  1  0
  1 45  1  0
  1 46  1  0
  8  3  1  0
 24 10  1  0
 31 26  1  0
 19 13  1  0
M  END
>  <cnnaffinity>  (1) 
-6.33307

>  <filename>  (1) 
COc1ccccc1Cc1nc(-c2cncc(F)c2)nn1Cc1cccnc1

$$$$
