
     RDKit          3D

 45 48  0  0  0  0  0  0  0  0999 V2000
    8.5841    2.8829   26.3770 C   0  0  0  0  0  0  0  0  0  0  0  0
    7.5254    2.4426   25.5534 O   0  0  0  0  0  0  0  0  0  0  0  0
    6.5140    3.2761   25.1694 C   0  0  0  0  0  0  0  0  0  0  0  0
    6.3336    4.5783   25.6602 C   0  0  0  0  0  0  0  0  0  0  0  0
    5.2819    5.3681   25.1756 C   0  0  0  0  0  0  0  0  0  0  0  0
    4.3960    4.8587   24.2266 C   0  0  0  0  0  0  0  0  0  0  0  0
    4.5633    3.5473   23.7631 C   0  0  0  0  0  0  0  0  0  0  0  0
    5.6122    2.7419   24.2147 C   0  0  0  0  0  0  0  0  0  0  0  0
    5.8445    1.3708   23.6289 C   0  0  0  0  0  0  0  0  0  0  0  0
    7.0500    1.3839   22.6599 C   0  0  0  0  0  0  0  0  0  0  0  0
    7.4594    0.0328   22.1954 C   0  0  0  0  0  0  0  0  0  0  0  0
    8.1285   -0.8130   22.9580 N   0  0  0  0  0  0  0  0  0  0  0  0
    8.3022   -1.8844   22.1494 C   0  0  0  0  0  0  0  0  0  0  0  0
    9.0010   -3.1140   22.6085 C   0  0  0  0  0  0  0  0  0  0  0  0
   10.3618   -2.8929   23.3163 C   0  0  0  0  0  0  0  0  0  0  0  0
   10.0003   -4.2415   24.4976 S   0  0  0  0  0  0  0  0  0  0  0  0
    8.3614   -3.9457   23.7551 C   0  0  0  0  0  0  0  0  0  0  0  0
    7.7012   -3.3729   24.4140 H   0  0  0  0  0  0  0  0  0  0  0  0
    7.8543   -4.8659   23.4575 H   0  0  0  0  0  0  0  0  0  0  0  0
   11.2617   -3.0105   22.7016 H   0  0  0  0  0  0  0  0  0  0  0  0
   10.4300   -1.9335   23.8408 H   0  0  0  0  0  0  0  0  0  0  0  0
    9.0952   -3.7495   21.7311 H   0  0  0  0  0  0  0  0  0  0  0  0
    7.8032   -1.7633   20.9398 N   0  0  0  0  0  0  0  0  0  0  0  0
    7.2287   -0.5263   20.9703 N   0  0  0  0  0  0  0  0  0  0  0  0
    6.5613    0.0296   19.8447 C   0  0  0  0  0  0  0  0  0  0  0  0
    5.4001    0.8050   19.9846 C   0  0  0  0  0  0  0  0  0  0  0  0
    4.8606    1.4030   18.8413 C   0  0  0  0  0  0  0  0  0  0  0  0
    5.4895    1.2024   17.6112 C   0  0  0  0  0  0  0  0  0  0  0  0
    6.5824    0.4328   17.4639 N   0  0  0  0  0  0  0  0  0  0  0  0
    7.0952   -0.1468   18.5538 C   0  0  0  0  0  0  0  0  0  0  0  0
    7.9812   -0.7624   18.4220 H   0  0  0  0  0  0  0  0  0  0  0  0
    5.1025    1.6682   16.7067 H   0  0  0  0  0  0  0  0  0  0  0  0
    3.9843    2.0404   18.9015 H   0  0  0  0  0  0  0  0  0  0  0  0
    4.9396    0.9544   20.9596 H   0  0  0  0  0  0  0  0  0  0  0  0
    7.9145    1.7999   23.1848 H   0  0  0  0  0  0  0  0  0  0  0  0
    6.8473    2.0599   21.8219 H   0  0  0  0  0  0  0  0  0  0  0  0
    6.0143    0.6453   24.4332 H   0  0  0  0  0  0  0  0  0  0  0  0
    4.9379    1.0384   23.1021 H   0  0  0  0  0  0  0  0  0  0  0  0
    3.8671    3.1392   23.0305 H   0  0  0  0  0  0  0  0  0  0  0  0
    3.5861    5.4740   23.8421 H   0  0  0  0  0  0  0  0  0  0  0  0
    5.1689    6.3886   25.5442 H   0  0  0  0  0  0  0  0  0  0  0  0
    7.0159    4.9613   26.4117 H   0  0  0  0  0  0  0  0  0  0  0  0
    8.2911    2.8804   27.4350 H   0  0  0  0  0  0  0  0  0  0  0  0
    8.9508    3.8810   26.0992 H   0  0  0  0  0  0  0  0  0  0  0  0
    9.3826    2.1548   26.2198 H   0  0  0  0  0  0  0  0  0  0  0  0
  1  2  1  0
  2  3  1  0
  3  4  2  0
  4  5  1  0
  5  6  2  0
  6  7  1  0
  7  8  2  0
  8  9  1  0
  9 10  1  0
 10 11  1  0
 11 12  2  0
 12 13  1  0
 13 14  1  0
 14 15  1  0
 15 16  1  0
 16 17  1  0
 17 18  1  0
 17 19  1  0
 15 20  1  0
 15 21  1  0
 14 22  1  0
 13 23  2  0
 23 24  1  0
 24 25  1  0
 25 26  2  0
 26 27  1  0
 27 28  2  0
 28 29  1  0
 29 30  2  0
 30 31  1  0
 28 32  1  0
 27 33  1  0
 26 34  1  0
 10 35  1  0
 10 36  1  0
  9 37  1  0
  9 38  1  0
  7 39  1  0
  6 40  1  0
  5 41  1  0
  4 42  1  0
  1 43  1  0
  1 44  1  0
  1 45  1  0
  8  3  1  0
 24 11  1  0
 30 25  1  0
 17 14  1  0
M  END
>  <cnnaffinity>  (1) 
-5.87477

>  <filename>  (1) 
COc1ccccc1CCc1nc(C2CSC2)nn1-c1cccnc1

$$$$
