
     RDKit          3D

 49 53  0  0  0  0  0  0  0  0999 V2000
    3.1304    2.0277   26.7238 C   0  0  0  0  0  0  0  0  0  0  0  0
    3.8034    1.9829   25.4845 O   0  0  0  0  0  0  0  0  0  0  0  0
    5.1461    1.7516   25.4622 C   0  0  0  0  0  0  0  0  0  0  0  0
    5.9486    1.4513   26.5668 C   0  0  0  0  0  0  0  0  0  0  0  0
    7.3264    1.2278   26.3973 C   0  0  0  0  0  0  0  0  0  0  0  0
    7.8917    1.2767   25.1183 C   0  0  0  0  0  0  0  0  0  0  0  0
    9.2082    1.0649   24.8364 O   0  0  0  0  0  0  0  0  0  0  0  0
   10.0499    0.4074   25.7517 C   0  0  0  0  0  0  0  0  0  0  0  0
    9.5482   -0.4305   26.2543 H   0  0  0  0  0  0  0  0  0  0  0  0
   10.4404    1.1039   26.4988 H   0  0  0  0  0  0  0  0  0  0  0  0
   10.8816    0.0207   25.1604 H   0  0  0  0  0  0  0  0  0  0  0  0
    7.0772    1.5443   23.9918 C   0  0  0  0  0  0  0  0  0  0  0  0
    7.6282    1.3844   22.5838 C   0  0  0  0  0  0  0  0  0  0  0  0
    7.6267   -0.0547   22.1589 C   0  0  0  0  0  0  0  0  0  0  0  0
    8.2722   -0.9961   22.8159 N   0  0  0  0  0  0  0  0  0  0  0  0
    8.0694   -2.1017   22.0627 C   0  0  0  0  0  0  0  0  0  0  0  0
    8.8402   -3.3546   22.2773 C   0  0  0  0  0  0  0  0  0  0  0  0
    8.2461   -4.7185   22.1088 C   0  0  0  0  0  0  0  0  0  0  0  0
    8.8841   -4.3416   23.4657 C   0  0  0  0  0  0  0  0  0  0  0  0
    9.8653   -4.1176   24.6010 C   0  0  0  0  0  0  0  0  0  0  0  0
    8.8779   -5.2528   24.6856 C   0  0  0  0  0  0  0  0  0  0  0  0
    8.0369   -5.1915   25.3727 H   0  0  0  0  0  0  0  0  0  0  0  0
    9.2821   -6.2587   24.5313 H   0  0  0  0  0  0  0  0  0  0  0  0
   10.9260   -4.3412   24.4544 H   0  0  0  0  0  0  0  0  0  0  0  0
    9.6570   -3.2342   25.2136 H   0  0  0  0  0  0  0  0  0  0  0  0
    7.1586   -4.8004   22.1275 H   0  0  0  0  0  0  0  0  0  0  0  0
    8.6967   -5.5105   21.5063 H   0  0  0  0  0  0  0  0  0  0  0  0
    9.8528   -3.1622   21.9165 H   0  0  0  0  0  0  0  0  0  0  0  0
    7.3684   -1.9090   20.9625 N   0  0  0  0  0  0  0  0  0  0  0  0
    7.0525   -0.5878   21.0349 N   0  0  0  0  0  0  0  0  0  0  0  0
    6.4405    0.0540   19.9173 C   0  0  0  0  0  0  0  0  0  0  0  0
    5.2816    0.8283   20.0425 C   0  0  0  0  0  0  0  0  0  0  0  0
    4.7798    1.4533   18.8962 C   0  0  0  0  0  0  0  0  0  0  0  0
    5.4506    1.2890   17.6844 C   0  0  0  0  0  0  0  0  0  0  0  0
    6.5550    0.5303   17.5546 N   0  0  0  0  0  0  0  0  0  0  0  0
    7.0241   -0.0780   18.6456 C   0  0  0  0  0  0  0  0  0  0  0  0
    7.9161   -0.6891   18.5157 H   0  0  0  0  0  0  0  0  0  0  0  0
    5.0936    1.7782   16.7815 H   0  0  0  0  0  0  0  0  0  0  0  0
    3.8927    2.0763   18.9390 H   0  0  0  0  0  0  0  0  0  0  0  0
    4.7735    0.9229   21.0016 H   0  0  0  0  0  0  0  0  0  0  0  0
    7.0606    1.9806   21.8708 H   0  0  0  0  0  0  0  0  0  0  0  0
    8.6656    1.7332   22.5539 H   0  0  0  0  0  0  0  0  0  0  0  0
    5.7285    1.8052   24.1873 C   0  0  0  0  0  0  0  0  0  0  0  0
    5.0741    2.0435   23.3561 H   0  0  0  0  0  0  0  0  0  0  0  0
    7.9541    1.0042   27.2572 H   0  0  0  0  0  0  0  0  0  0  0  0
    5.5070    1.3677   27.5545 H   0  0  0  0  0  0  0  0  0  0  0  0
    2.0930    2.2655   26.4873 H   0  0  0  0  0  0  0  0  0  0  0  0
    3.1692    1.0616   27.2447 H   0  0  0  0  0  0  0  0  0  0  0  0
    3.5432    2.8075   27.3774 H   0  0  0  0  0  0  0  0  0  0  0  0
  1  2  1  0
  2  3  1  0
  3  4  2  0
  4  5  1  0
  5  6  2  0
  6  7  1  0
  7  8  1  0
  8  9  1  0
  8 10  1  0
  8 11  1  0
  6 12  1  0
 12 13  1  0
 13 14  1  0
 14 15  2  0
 15 16  1  0
 16 17  1  0
 17 18  1  0
 18 19  1  0
 19 20  1  0
 20 21  1  0
 21 22  1  0
 21 23  1  0
 20 24  1  0
 20 25  1  0
 18 26  1  0
 18 27  1  0
 17 28  1  0
 16 29  2  0
 29 30  1  0
 30 31  1  0
 31 32  2  0
 32 33  1  0
 33 34  2  0
 34 35  1  0
 35 36  2  0
 36 37  1  0
 34 38  1  0
 33 39  1  0
 32 40  1  0
 13 41  1  0
 13 42  1  0
 12 43  2  0
 43 44  1  0
  5 45  1  0
  4 46  1  0
  1 47  1  0
  1 48  1  0
  1 49  1  0
 43  3  1  0
 30 14  1  0
 36 31  1  0
 19 17  1  0
 21 19  1  0
M  END
>  <cnnaffinity>  (1) 
-6.20011

>  <filename>  (1) 
COc1ccc(OC)c(Cc2nc(C3CC34CC4)nn2-c2cccnc2)c1

$$$$
