
     RDKit          3D

 52 55  0  0  0  0  0  0  0  0999 V2000
   10.0796    1.3200   25.3782 C   0  0  0  0  0  0  0  0  0  0  0  0
   10.0277    1.1727   23.9743 O   0  0  0  0  0  0  0  0  0  0  0  0
    9.3570    2.1092   23.2596 C   0  0  0  0  0  0  0  0  0  0  0  0
    8.8588    3.2904   23.8236 C   0  0  0  0  0  0  0  0  0  0  0  0
    8.1035    4.1395   23.0266 C   0  0  0  0  0  0  0  0  0  0  0  0
    7.7956    3.8729   21.7635 N   0  0  0  0  0  0  0  0  0  0  0  0
    8.2920    2.7422   21.2473 C   0  0  0  0  0  0  0  0  0  0  0  0
    9.1349    1.8521   21.8924 C   0  0  0  0  0  0  0  0  0  0  0  0
    9.5919    0.5962   21.1633 C   0  0  0  0  0  0  0  0  0  0  0  0
    8.6742   -0.5606   21.4376 C   0  0  0  0  0  0  0  0  0  0  0  0
    8.8744   -1.4602   22.3696 N   0  0  0  0  0  0  0  0  0  0  0  0
    7.6522   -2.0350   22.5287 C   0  0  0  0  0  0  0  0  0  0  0  0
    7.3644   -2.9641   23.6783 C   0  0  0  0  0  0  0  0  0  0  0  0
    8.6134   -3.8217   24.0493 C   0  0  0  0  0  0  0  0  0  0  0  0
    9.4380   -3.1771   25.1839 C   0  0  0  0  0  0  0  0  0  0  0  0
    8.6358   -2.9460   26.5011 C   0  0  0  0  0  0  0  0  0  0  0  0
    9.1428   -1.6797   27.2202 C   0  0  0  0  0  0  0  0  0  0  0  0
    8.4543   -1.3605   28.0037 H   0  0  0  0  0  0  0  0  0  0  0  0
   10.1284   -1.8216   27.6713 H   0  0  0  0  0  0  0  0  0  0  0  0
    9.2033   -0.8366   26.5260 H   0  0  0  0  0  0  0  0  0  0  0  0
    7.1093   -2.8368   26.2248 C   0  0  0  0  0  0  0  0  0  0  0  0
    6.8464   -2.1198   24.8945 C   0  0  0  0  0  0  0  0  0  0  0  0
    7.3753   -1.1498   24.9117 H   0  0  0  0  0  0  0  0  0  0  0  0
    5.7834   -1.8883   24.7656 H   0  0  0  0  0  0  0  0  0  0  0  0
    6.6182   -2.3032   27.0485 H   0  0  0  0  0  0  0  0  0  0  0  0
    6.6511   -3.8367   26.2020 H   0  0  0  0  0  0  0  0  0  0  0  0
    8.7889   -3.8182   27.1542 H   0  0  0  0  0  0  0  0  0  0  0  0
   10.3364   -3.7734   25.3801 H   0  0  0  0  0  0  0  0  0  0  0  0
    9.7944   -2.2099   24.8012 H   0  0  0  0  0  0  0  0  0  0  0  0
    8.2939   -4.8284   24.3518 H   0  0  0  0  0  0  0  0  0  0  0  0
    9.2492   -3.9470   23.1639 H   0  0  0  0  0  0  0  0  0  0  0  0
    6.5559   -3.6258   23.3478 H   0  0  0  0  0  0  0  0  0  0  0  0
    6.7260   -1.5936   21.7065 N   0  0  0  0  0  0  0  0  0  0  0  0
    7.3942   -0.6591   20.9666 N   0  0  0  0  0  0  0  0  0  0  0  0
    6.7140    0.0096   19.9097 C   0  0  0  0  0  0  0  0  0  0  0  0
    5.4858    0.6307   20.1639 C   0  0  0  0  0  0  0  0  0  0  0  0
    4.8517    1.2954   19.1122 C   0  0  0  0  0  0  0  0  0  0  0  0
    5.4421    1.2927   17.8421 C   0  0  0  0  0  0  0  0  0  0  0  0
    6.5938    0.6561   17.5782 N   0  0  0  0  0  0  0  0  0  0  0  0
    7.2089    0.0342   18.5927 C   0  0  0  0  0  0  0  0  0  0  0  0
    8.1249   -0.4931   18.3359 H   0  0  0  0  0  0  0  0  0  0  0  0
    4.9660    1.8077   17.0087 H   0  0  0  0  0  0  0  0  0  0  0  0
    3.9110    1.8114   19.2662 H   0  0  0  0  0  0  0  0  0  0  0  0
    5.0500    0.5657   21.1622 H   0  0  0  0  0  0  0  0  0  0  0  0
   10.5934    0.3095   21.4889 H   0  0  0  0  0  0  0  0  0  0  0  0
    9.6255    0.7561   20.0787 H   0  0  0  0  0  0  0  0  0  0  0  0
    7.9925    2.4541   20.2400 H   0  0  0  0  0  0  0  0  0  0  0  0
    7.7014    5.0656   23.4418 H   0  0  0  0  0  0  0  0  0  0  0  0
    9.0196    3.5259   24.8603 H   0  0  0  0  0  0  0  0  0  0  0  0
   10.6040    0.4523   25.7750 H   0  0  0  0  0  0  0  0  0  0  0  0
    9.0654    1.3825   25.8048 H   0  0  0  0  0  0  0  0  0  0  0  0
   10.6355    2.2209   25.6409 H   0  0  0  0  0  0  0  0  0  0  0  0
  1  2  1  0
  2  3  1  0
  3  4  2  0
  4  5  1  0
  5  6  2  0
  6  7  1  0
  7  8  2  0
  8  9  1  0
  9 10  1  0
 10 11  2  0
 11 12  1  0
 12 13  1  0
 13 14  1  0
 14 15  1  0
 15 16  1  0
 16 17  1  0
 17 18  1  0
 17 19  1  0
 17 20  1  0
 16 21  1  0
 21 22  1  0
 22 23  1  0
 22 24  1  0
 21 25  1  0
 21 26  1  0
 16 27  1  0
 15 28  1  0
 15 29  1  0
 14 30  1  0
 14 31  1  0
 13 32  1  0
 12 33  2  0
 33 34  1  0
 34 35  1  0
 35 36  2  0
 36 37  1  0
 37 38  2  0
 38 39  1  0
 39 40  2  0
 40 41  1  0
 38 42  1  0
 37 43  1  0
 36 44  1  0
  9 45  1  0
  9 46  1  0
  7 47  1  0
  5 48  1  0
  4 49  1  0
  1 50  1  0
  1 51  1  0
  1 52  1  0
  8  3  1  0
 34 10  1  0
 40 35  1  0
 22 13  1  0
M  END
>  <cnnaffinity>  (1) 
-6.42864

>  <filename>  (1) 
COc1ccncc1Cc1nc(C2CCC(C)CC2)nn1-c1cccnc1

$$$$
