
     RDKit          3D

 35 37  0  0  0  0  0  0  0  0999 V2000
    6.6848   -1.4121   21.5822 H   0  0  0  0  0  0  0  0  0  0  0  0
    7.3145   -0.7208   21.0117 C   0  0  0  0  0  0  0  0  0  0  0  0
    8.5758   -0.4598   21.3960 C   0  0  0  0  0  0  0  0  0  0  0  0
    9.3079   -1.0464   22.5190 C   0  0  0  0  0  0  0  0  0  0  0  0
    8.7107   -2.1264   23.3850 C   0  0  0  0  0  0  0  0  0  0  0  0
    9.5242   -2.5858   23.9540 H   0  0  0  0  0  0  0  0  0  0  0  0
    8.2271   -2.8922   22.7761 H   0  0  0  0  0  0  0  0  0  0  0  0
    7.7231   -1.5802   24.2896 N   0  0  0  0  0  0  0  0  0  0  0  0
    8.0653   -0.5499   25.1540 N   0  0  0  0  0  0  0  0  0  0  0  0
    6.9588   -0.3637   25.7799 C   0  0  0  0  0  0  0  0  0  0  0  0
    6.6691    0.4992   26.7331 O   0  0  0  0  0  0  0  0  0  0  0  0
    7.7205    1.3812   27.1636 C   0  0  0  0  0  0  0  0  0  0  0  0
    8.5643    0.8134   27.5692 H   0  0  0  0  0  0  0  0  0  0  0  0
    8.0658    2.0129   26.3379 H   0  0  0  0  0  0  0  0  0  0  0  0
    7.2708    1.9976   27.9453 H   0  0  0  0  0  0  0  0  0  0  0  0
    5.9258   -1.1425   25.4357 O   0  0  0  0  0  0  0  0  0  0  0  0
    6.4184   -1.9607   24.4413 C   0  0  0  0  0  0  0  0  0  0  0  0
    5.8007   -2.8170   23.8717 O   0  0  0  0  0  0  0  0  0  0  0  0
   10.4813   -0.5771   22.7145 N   0  0  0  0  0  0  0  0  0  0  0  0
   10.7311    0.4995   21.7402 C   0  0  0  0  0  0  0  0  0  0  0  0
   10.8879    1.4308   22.2954 H   0  0  0  0  0  0  0  0  0  0  0  0
   11.6588    0.2694   21.2116 H   0  0  0  0  0  0  0  0  0  0  0  0
    9.4919    0.5856   20.8055 C   0  0  0  0  0  0  0  0  0  0  0  0
    9.0193    1.5711   20.8017 H   0  0  0  0  0  0  0  0  0  0  0  0
    9.6851    0.3410   19.7610 H   0  0  0  0  0  0  0  0  0  0  0  0
    6.6361   -0.0206   19.9010 C   0  0  0  0  0  0  0  0  0  0  0  0
    7.1574    0.0579   18.5943 C   0  0  0  0  0  0  0  0  0  0  0  0
    8.1031   -0.4314   18.3662 H   0  0  0  0  0  0  0  0  0  0  0  0
    6.5584    0.6854   17.5729 N   0  0  0  0  0  0  0  0  0  0  0  0
    5.3952    1.3024   17.8305 C   0  0  0  0  0  0  0  0  0  0  0  0
    4.9213    1.7993   16.9846 H   0  0  0  0  0  0  0  0  0  0  0  0
    4.7949    1.3103   19.0950 C   0  0  0  0  0  0  0  0  0  0  0  0
    3.8684    1.8494   19.2444 H   0  0  0  0  0  0  0  0  0  0  0  0
    5.4168    0.6295   20.1405 C   0  0  0  0  0  0  0  0  0  0  0  0
    4.9993    0.6204   21.1485 H   0  0  0  0  0  0  0  0  0  0  0  0
  1  2  1  0
  2  3  2  3
  3  4  1  0
  4  5  1  0
  5  6  1  0
  5  7  1  0
  5  8  1  0
  8  9  1  0
  9 10  2  0
 10 11  1  0
 11 12  1  0
 12 13  1  0
 12 14  1  0
 12 15  1  0
 10 16  1  0
 16 17  1  0
 17 18  2  0
  4 19  2  0
 19 20  1  0
 20 21  1  0
 20 22  1  0
 20 23  1  0
 23 24  1  0
 23 25  1  0
  2 26  1  0
 26 27  2  0
 27 28  1  0
 27 29  1  0
 29 30  2  0
 30 31  1  0
 30 32  1  0
 32 33  1  0
 32 34  2  0
 34 35  1  0
 23  3  1  0
 34 26  1  0
 17  8  1  0
M  END
>  <cnnaffinity>  (1) 
-5.08479

>  <filename>  (1) 
COc1nn(CC2=NCCC2=Cc2cccnc2)c(=O)o1

$$$$
