
     RDKit          3D

 34 37  0  0  0  0  0  0  0  0999 V2000
    5.0197    1.8012   16.9386 H   0  0  0  0  0  0  0  0  0  0  0  0
    5.4425    1.2939   17.8038 C   0  0  0  0  0  0  0  0  0  0  0  0
    6.5769    0.6138   17.5819 N   0  0  0  0  0  0  0  0  0  0  0  0
    7.1393   -0.0070   18.6223 C   0  0  0  0  0  0  0  0  0  0  0  0
    8.0393   -0.5805   18.4111 H   0  0  0  0  0  0  0  0  0  0  0  0
    6.6327    0.0472   19.9307 C   0  0  0  0  0  0  0  0  0  0  0  0
    7.3678   -0.6057   21.0053 C   0  0  0  0  0  0  0  0  0  0  0  0
    7.9512   -1.8381   20.8290 N   0  0  0  0  0  0  0  0  0  0  0  0
    8.3881   -2.1423   22.0200 C   0  0  0  0  0  0  0  0  0  0  0  0
    9.2178   -3.4904   22.7446 S   0  0  0  0  0  0  0  0  0  0  0  0
    9.3217   -2.6112   24.2625 C   0  0  0  0  0  0  0  0  0  0  0  0
    9.8549   -3.0543   25.0932 H   0  0  0  0  0  0  0  0  0  0  0  0
    8.7116   -1.4154   24.2105 C   0  0  0  0  0  0  0  0  0  0  0  0
    8.5722   -0.6874   25.0051 H   0  0  0  0  0  0  0  0  0  0  0  0
    8.1738   -1.1640   22.9526 N   0  0  0  0  0  0  0  0  0  0  0  0
    7.5236   -0.1367   22.3021 C   0  0  0  0  0  0  0  0  0  0  0  0
    7.2341    1.1370   23.0284 C   0  0  0  0  0  0  0  0  0  0  0  0
    8.1310    1.4786   23.5734 H   0  0  0  0  0  0  0  0  0  0  0  0
    6.9889    1.9259   22.3103 H   0  0  0  0  0  0  0  0  0  0  0  0
    6.1157    1.0184   23.9714 N   0  0  0  0  0  0  0  0  0  0  0  0
    5.9847   -0.0102   24.9140 N   0  0  0  0  0  0  0  0  0  0  0  0
    4.7498    0.1036   25.2613 C   0  0  0  0  0  0  0  0  0  0  0  0
    4.0967   -0.6724   26.1072 O   0  0  0  0  0  0  0  0  0  0  0  0
    2.7765   -0.2819   26.5233 C   0  0  0  0  0  0  0  0  0  0  0  0
    2.4433   -1.0724   27.1928 H   0  0  0  0  0  0  0  0  0  0  0  0
    2.8163    0.6703   27.0651 H   0  0  0  0  0  0  0  0  0  0  0  0
    2.0982   -0.2095   25.6654 H   0  0  0  0  0  0  0  0  0  0  0  0
    4.0586    1.0926   24.6641 O   0  0  0  0  0  0  0  0  0  0  0  0
    4.9326    1.6648   23.7789 C   0  0  0  0  0  0  0  0  0  0  0  0
    4.6229    2.5457   23.0253 O   0  0  0  0  0  0  0  0  0  0  0  0
    5.4171    0.7215   20.1404 C   0  0  0  0  0  0  0  0  0  0  0  0
    4.9364    0.7408   21.1206 H   0  0  0  0  0  0  0  0  0  0  0  0
    4.8143    1.3489   19.0522 C   0  0  0  0  0  0  0  0  0  0  0  0
    3.8785    1.8826   19.1588 H   0  0  0  0  0  0  0  0  0  0  0  0
  1  2  1  0
  2  3  2  0
  3  4  1  0
  4  5  1  0
  4  6  2  0
  6  7  1  0
  7  8  1  0
  8  9  2  0
  9 10  1  0
 10 11  1  0
 11 12  1  0
 11 13  2  0
 13 14  1  0
 13 15  1  0
 15 16  1  0
 16 17  1  0
 17 18  1  0
 17 19  1  0
 17 20  1  0
 20 21  1  0
 21 22  2  0
 22 23  1  0
 23 24  1  0
 24 25  1  0
 24 26  1  0
 24 27  1  0
 22 28  1  0
 28 29  1  0
 29 30  2  0
  6 31  1  0
 31 32  1  0
 31 33  2  0
 33 34  1  0
 33  2  1  0
 16  7  2  0
 29 20  1  0
 15  9  1  0
M  END
>  <cnnaffinity>  (1) 
-5.26459

>  <filename>  (1) 
COc1nn(Cc2c(-c3cccnc3)nc3sccn23)c(=O)o1

$$$$
