
     RDKit          3D

 34 36  0  0  0  0  0  0  0  0999 V2000
    4.9298    1.8158   16.9686 H   0  0  0  0  0  0  0  0  0  0  0  0
    5.3907    1.3057   17.8115 C   0  0  0  0  0  0  0  0  0  0  0  0
    6.5503    0.6742   17.5651 N   0  0  0  0  0  0  0  0  0  0  0  0
    7.1434    0.0575   18.5977 C   0  0  0  0  0  0  0  0  0  0  0  0
    8.0902   -0.4345   18.3690 H   0  0  0  0  0  0  0  0  0  0  0  0
    6.6204    0.0057   19.9063 C   0  0  0  0  0  0  0  0  0  0  0  0
    7.3397   -0.7122   20.9833 C   0  0  0  0  0  0  0  0  0  0  0  0
    8.6783   -0.7153   21.3173 C   0  0  0  0  0  0  0  0  0  0  0  0
    9.8050    0.0886   20.7045 C   0  0  0  0  0  0  0  0  0  0  0  0
    9.3980    0.8365   20.0159 H   0  0  0  0  0  0  0  0  0  0  0  0
   10.4499   -0.5976   20.1490 H   0  0  0  0  0  0  0  0  0  0  0  0
   10.6727    0.8023   21.7118 C   0  0  0  0  0  0  0  0  0  0  0  0
   11.8435    0.2095   22.0017 N   0  0  0  0  0  0  0  0  0  0  0  0
   12.5932    0.7677   22.9401 C   0  0  0  0  0  0  0  0  0  0  0  0
   13.7662    0.2129   23.2959 O   0  0  0  0  0  0  0  0  0  0  0  0
   14.1912   -0.9494   22.5936 C   0  0  0  0  0  0  0  0  0  0  0  0
   14.5183   -0.6782   21.5868 H   0  0  0  0  0  0  0  0  0  0  0  0
   13.3750   -1.6806   22.5094 H   0  0  0  0  0  0  0  0  0  0  0  0
   15.0151   -1.3613   23.1742 H   0  0  0  0  0  0  0  0  0  0  0  0
   12.2432    1.9235   23.6531 C   0  0  0  0  0  0  0  0  0  0  0  0
   12.9390    2.2357   24.4179 H   0  0  0  0  0  0  0  0  0  0  0  0
   11.0425    2.5436   23.3361 C   0  0  0  0  0  0  0  0  0  0  0  0
   10.7201    3.4504   23.8464 H   0  0  0  0  0  0  0  0  0  0  0  0
   10.2383    1.9688   22.3354 C   0  0  0  0  0  0  0  0  0  0  0  0
    9.2891    2.4016   22.0249 H   0  0  0  0  0  0  0  0  0  0  0  0
    8.7760   -1.6301   22.3906 C   0  0  0  0  0  0  0  0  0  0  0  0
    9.6714   -1.9127   22.9230 H   0  0  0  0  0  0  0  0  0  0  0  0
    7.6015   -2.1526   22.7179 N   0  0  0  0  0  0  0  0  0  0  0  0
    6.7457   -1.5697   21.8591 N   0  0  0  0  0  0  0  0  0  0  0  0
    5.7614   -1.7924   21.9044 H   0  0  0  0  0  0  0  0  0  0  0  0
    5.3987    0.6676   20.1276 C   0  0  0  0  0  0  0  0  0  0  0  0
    4.9629    0.6778   21.1268 H   0  0  0  0  0  0  0  0  0  0  0  0
    4.7779    1.3284   19.0683 C   0  0  0  0  0  0  0  0  0  0  0  0
    3.8471    1.8716   19.2072 H   0  0  0  0  0  0  0  0  0  0  0  0
  1  2  1  0
  2  3  2  0
  3  4  1  0
  4  5  1  0
  4  6  2  0
  6  7  1  0
  7  8  2  0
  8  9  1  0
  9 10  1  0
  9 11  1  0
  9 12  1  0
 12 13  2  0
 13 14  1  0
 14 15  1  0
 15 16  1  0
 16 17  1  0
 16 18  1  0
 16 19  1  0
 14 20  2  0
 20 21  1  0
 20 22  1  0
 22 23  1  0
 22 24  2  0
 24 25  1  0
  8 26  1  0
 26 27  1  0
 26 28  2  0
 28 29  1  0
 29 30  1  0
  6 31  1  0
 31 32  1  0
 31 33  2  0
 33 34  1  0
 33  2  1  0
 29  7  1  0
 24 12  1  0
M  END
>  <cnnaffinity>  (1) 
-5.47782

>  <filename>  (1) 
COc1cccc(Cc2cn[nH]c2-c2cccnc2)n1

$$$$
