
     RDKit          3D

 45 49  0  0  0  0  0  0  0  0999 V2000
   13.3107   -1.7819   21.3674 C   0  0  0  0  0  0  0  0  0  0  0  0
   12.1461   -1.0067   21.1713 O   0  0  0  0  0  0  0  0  0  0  0  0
   11.8760    0.0640   21.9667 C   0  0  0  0  0  0  0  0  0  0  0  0
   12.7067    0.4941   23.0176 C   0  0  0  0  0  0  0  0  0  0  0  0
   12.4295    1.6958   23.6791 C   0  0  0  0  0  0  0  0  0  0  0  0
   11.3291    2.4644   23.3079 C   0  0  0  0  0  0  0  0  0  0  0  0
   10.4609    1.9817   22.3217 C   0  0  0  0  0  0  0  0  0  0  0  0
   10.6792    0.7617   21.6775 C   0  0  0  0  0  0  0  0  0  0  0  0
    9.6159    0.1932   20.7497 C   0  0  0  0  0  0  0  0  0  0  0  0
    8.5501   -0.6311   21.4165 C   0  0  0  0  0  0  0  0  0  0  0  0
    8.7038   -1.4077   22.4716 N   0  0  0  0  0  0  0  0  0  0  0  0
    7.4966   -2.0179   22.5892 C   0  0  0  0  0  0  0  0  0  0  0  0
    7.1012   -2.9998   23.6364 C   0  0  0  0  0  0  0  0  0  0  0  0
    6.7208   -4.3766   23.1934 C   0  0  0  0  0  0  0  0  0  0  0  0
    7.9637   -4.1966   24.1016 C   0  0  0  0  0  0  0  0  0  0  0  0
    8.6065   -5.3888   24.8036 C   0  0  0  0  0  0  0  0  0  0  0  0
    8.9660   -3.9981   25.2255 C   0  0  0  0  0  0  0  0  0  0  0  0
    8.5661   -3.6157   26.1673 H   0  0  0  0  0  0  0  0  0  0  0  0
    9.9515   -3.6118   24.9617 H   0  0  0  0  0  0  0  0  0  0  0  0
    9.3401   -5.9637   24.2426 H   0  0  0  0  0  0  0  0  0  0  0  0
    7.9478   -5.9788   25.4432 H   0  0  0  0  0  0  0  0  0  0  0  0
    5.8540   -4.8739   23.6382 H   0  0  0  0  0  0  0  0  0  0  0  0
    6.8985   -4.6564   22.1519 H   0  0  0  0  0  0  0  0  0  0  0  0
    6.5223   -2.5314   24.4372 H   0  0  0  0  0  0  0  0  0  0  0  0
    6.6045   -1.6609   21.6817 N   0  0  0  0  0  0  0  0  0  0  0  0
    7.2832   -0.7786   20.9092 N   0  0  0  0  0  0  0  0  0  0  0  0
    6.6087   -0.0853   19.8624 C   0  0  0  0  0  0  0  0  0  0  0  0
    5.4057    0.5860   20.1191 C   0  0  0  0  0  0  0  0  0  0  0  0
    4.8164    1.3014   19.0728 C   0  0  0  0  0  0  0  0  0  0  0  0
    5.4231    1.2928   17.8107 C   0  0  0  0  0  0  0  0  0  0  0  0
    6.5482    0.6121   17.5460 N   0  0  0  0  0  0  0  0  0  0  0  0
    7.1186   -0.0591   18.5539 C   0  0  0  0  0  0  0  0  0  0  0  0
    8.0322   -0.6009   18.3174 H   0  0  0  0  0  0  0  0  0  0  0  0
    4.9890    1.8442   16.9790 H   0  0  0  0  0  0  0  0  0  0  0  0
    3.9023    1.8658   19.2221 H   0  0  0  0  0  0  0  0  0  0  0  0
    4.9580    0.5360   21.1118 H   0  0  0  0  0  0  0  0  0  0  0  0
    9.1308    1.0115   20.2099 H   0  0  0  0  0  0  0  0  0  0  0  0
   10.0714   -0.4811   20.0169 H   0  0  0  0  0  0  0  0  0  0  0  0
    9.5897    2.5699   22.0452 H   0  0  0  0  0  0  0  0  0  0  0  0
   11.1349    3.4263   23.7777 H   0  0  0  0  0  0  0  0  0  0  0  0
   13.0935    2.0296   24.4693 H   0  0  0  0  0  0  0  0  0  0  0  0
   13.5630   -0.1025   23.3078 H   0  0  0  0  0  0  0  0  0  0  0  0
   13.2199   -2.3740   22.2803 H   0  0  0  0  0  0  0  0  0  0  0  0
   13.3785   -2.4458   20.4980 H   0  0  0  0  0  0  0  0  0  0  0  0
   14.2167   -1.1653   21.4263 H   0  0  0  0  0  0  0  0  0  0  0  0
  1  2  1  0
  2  3  1  0
  3  4  2  0
  4  5  1  0
  5  6  2  0
  6  7  1  0
  7  8  2  0
  8  9  1  0
  9 10  1  0
 10 11  2  0
 11 12  1  0
 12 13  1  0
 13 14  1  0
 14 15  1  0
 15 16  1  0
 16 17  1  0
 17 18  1  0
 17 19  1  0
 16 20  1  0
 16 21  1  0
 14 22  1  0
 14 23  1  0
 13 24  1  0
 12 25  2  0
 25 26  1  0
 26 27  1  0
 27 28  2  0
 28 29  1  0
 29 30  2  0
 30 31  1  0
 31 32  2  0
 32 33  1  0
 30 34  1  0
 29 35  1  0
 28 36  1  0
  9 37  1  0
  9 38  1  0
  7 39  1  0
  6 40  1  0
  5 41  1  0
  4 42  1  0
  1 43  1  0
  1 44  1  0
  1 45  1  0
  8  3  1  0
 26 10  1  0
 32 27  1  0
 15 13  1  0
 17 15  1  0
M  END
>  <cnnaffinity>  (1) 
-6.77986

>  <filename>  (1) 
COc1ccccc1Cc1nc(C2CC23CC3)nn1-c1cccnc1

$$$$
