
     RDKit          3D

 35 37  0  0  0  0  0  0  0  0999 V2000
    6.0118   -2.4675   21.1612 H   0  0  0  0  0  0  0  0  0  0  0  0
    6.5790   -1.7328   21.7243 C   0  0  0  0  0  0  0  0  0  0  0  0
    6.6136   -1.6046   23.0576 C   0  0  0  0  0  0  0  0  0  0  0  0
    5.8625   -2.4223   24.0376 C   0  0  0  0  0  0  0  0  0  0  0  0
    4.7604   -3.2291   23.6473 C   0  0  0  0  0  0  0  0  0  0  0  0
    4.4263   -3.2560   22.6131 H   0  0  0  0  0  0  0  0  0  0  0  0
    4.0058   -3.9261   24.4986 N   0  0  0  0  0  0  0  0  0  0  0  0
    4.3041   -3.8762   25.8106 C   0  0  0  0  0  0  0  0  0  0  0  0
    3.6620   -4.4579   26.4709 H   0  0  0  0  0  0  0  0  0  0  0  0
    5.3748   -3.1058   26.3124 C   0  0  0  0  0  0  0  0  0  0  0  0
    5.7435   -2.9928   27.6137 O   0  0  0  0  0  0  0  0  0  0  0  0
    5.0552   -3.7516   28.5874 C   0  0  0  0  0  0  0  0  0  0  0  0
    5.5540   -3.5164   29.5259 H   0  0  0  0  0  0  0  0  0  0  0  0
    3.9974   -3.4611   28.6335 H   0  0  0  0  0  0  0  0  0  0  0  0
    5.1231   -4.8274   28.3736 H   0  0  0  0  0  0  0  0  0  0  0  0
    6.1398   -2.3620   25.4078 C   0  0  0  0  0  0  0  0  0  0  0  0
    6.9200   -1.7170   25.8100 H   0  0  0  0  0  0  0  0  0  0  0  0
    7.4636   -0.4058   23.4595 C   0  0  0  0  0  0  0  0  0  0  0  0
    6.8904    0.2997   24.0768 H   0  0  0  0  0  0  0  0  0  0  0  0
    8.3136   -0.7218   24.0785 H   0  0  0  0  0  0  0  0  0  0  0  0
    7.9078    0.2311   22.1202 C   0  0  0  0  0  0  0  0  0  0  0  0
    7.4752    1.2284   21.9827 H   0  0  0  0  0  0  0  0  0  0  0  0
    8.9915    0.3549   22.0787 H   0  0  0  0  0  0  0  0  0  0  0  0
    7.4139   -0.7201   20.9861 C   0  0  2  0  0  0  0  0  0  0  0  0
    8.2637   -1.2463   20.5246 H   0  0  0  0  0  0  0  0  0  0  0  0
    6.6601   -0.0150   19.8600 C   0  0  0  0  0  0  0  0  0  0  0  0
    7.1598    0.0563   18.5484 C   0  0  0  0  0  0  0  0  0  0  0  0
    8.1139   -0.4089   18.3007 H   0  0  0  0  0  0  0  0  0  0  0  0
    6.5520    0.6855   17.5343 N   0  0  0  0  0  0  0  0  0  0  0  0
    5.3936    1.3073   17.8029 C   0  0  0  0  0  0  0  0  0  0  0  0
    4.9193    1.8221   16.9680 H   0  0  0  0  0  0  0  0  0  0  0  0
    4.8011    1.3134   19.0714 C   0  0  0  0  0  0  0  0  0  0  0  0
    3.8700    1.8528   19.2300 H   0  0  0  0  0  0  0  0  0  0  0  0
    5.4477    0.6440   20.1116 C   0  0  0  0  0  0  0  0  0  0  0  0
    5.0280    0.6227   21.1194 H   0  0  0  0  0  0  0  0  0  0  0  0
  1  2  1  0
  2  3  2  0
  3  4  1  0
  4  5  2  0
  5  6  1  0
  5  7  1  0
  7  8  2  0
  8  9  1  0
  8 10  1  0
 10 11  1  0
 11 12  1  0
 12 13  1  0
 12 14  1  0
 12 15  1  0
 10 16  2  0
 16 17  1  0
  3 18  1  0
 18 19  1  0
 18 20  1  0
 18 21  1  0
 21 22  1  0
 21 23  1  0
 21 24  1  0
 24 25  1  6
 24 26  1  0
 26 27  2  0
 27 28  1  0
 27 29  1  0
 29 30  2  0
 30 31  1  0
 30 32  1  0
 32 33  1  0
 32 34  2  0
 34 35  1  0
 24  2  1  0
 34 26  1  0
 16  4  1  0
M  END
>  <cnnaffinity>  (1) 
-4.96303

>  <filename>  (1) 
COc1cncc(C2=C[C@@H](c3cccnc3)CC2)c1

$$$$
