
     RDKit          3D

 48 51  0  0  0  0  0  0  0  0999 V2000
   13.4921    1.3931   23.8690 C   0  0  0  0  0  0  0  0  0  0  0  0
   12.4660    1.3167   22.9086 O   0  0  0  0  0  0  0  0  0  0  0  0
   11.2885    1.9481   23.1446 C   0  0  0  0  0  0  0  0  0  0  0  0
   11.0894    2.9065   24.1439 C   0  0  0  0  0  0  0  0  0  0  0  0
    9.8519    3.5499   24.2880 C   0  0  0  0  0  0  0  0  0  0  0  0
    8.7997    3.2187   23.4429 C   0  0  0  0  0  0  0  0  0  0  0  0
    8.9754    2.2355   22.4593 C   0  0  0  0  0  0  0  0  0  0  0  0
   10.2016    1.5948   22.2930 C   0  0  0  0  0  0  0  0  0  0  0  0
   10.4638    0.6468   21.3379 O   0  0  0  0  0  0  0  0  0  0  0  0
    9.4211    0.1324   20.5376 C   0  0  0  0  0  0  0  0  0  0  0  0
    8.4249   -0.7239   21.2647 C   0  0  0  0  0  0  0  0  0  0  0  0
    8.6495   -1.5092   22.2949 N   0  0  0  0  0  0  0  0  0  0  0  0
    7.4328   -2.0682   22.5328 C   0  0  0  0  0  0  0  0  0  0  0  0
    7.2274   -3.0066   23.6887 C   0  0  0  0  0  0  0  0  0  0  0  0
    6.1363   -4.0709   23.4816 C   0  0  0  0  0  0  0  0  0  0  0  0
    6.4346   -5.1603   24.5272 C   0  0  0  0  0  0  0  0  0  0  0  0
    7.9332   -5.0169   24.8935 C   0  0  0  0  0  0  0  0  0  0  0  0
    8.4692   -3.8467   24.0530 C   0  0  0  0  0  0  0  0  0  0  0  0
    8.9297   -4.2241   23.1314 H   0  0  0  0  0  0  0  0  0  0  0  0
    9.2292   -3.2513   24.5702 H   0  0  0  0  0  0  0  0  0  0  0  0
    8.0436   -4.8131   25.9650 H   0  0  0  0  0  0  0  0  0  0  0  0
    8.4988   -5.9339   24.6960 H   0  0  0  0  0  0  0  0  0  0  0  0
    5.8148   -5.0264   25.4209 H   0  0  0  0  0  0  0  0  0  0  0  0
    6.1975   -6.1530   24.1325 H   0  0  0  0  0  0  0  0  0  0  0  0
    5.1287   -3.6507   23.5647 H   0  0  0  0  0  0  0  0  0  0  0  0
    6.2372   -4.4805   22.4687 H   0  0  0  0  0  0  0  0  0  0  0  0
    6.9704   -2.3679   24.5497 H   0  0  0  0  0  0  0  0  0  0  0  0
    6.4787   -1.6788   21.7017 N   0  0  0  0  0  0  0  0  0  0  0  0
    7.1275   -0.8449   20.8573 N   0  0  0  0  0  0  0  0  0  0  0  0
    6.4230   -0.1940   19.8036 C   0  0  0  0  0  0  0  0  0  0  0  0
    5.2646    0.5481   20.0646 C   0  0  0  0  0  0  0  0  0  0  0  0
    4.7398    1.3189   19.0215 C   0  0  0  0  0  0  0  0  0  0  0  0
    5.3483    1.2726   17.7595 C   0  0  0  0  0  0  0  0  0  0  0  0
    6.3948    0.4812   17.4813 N   0  0  0  0  0  0  0  0  0  0  0  0
    6.9066   -0.2418   18.4830 C   0  0  0  0  0  0  0  0  0  0  0  0
    7.7566   -0.8794   18.2445 H   0  0  0  0  0  0  0  0  0  0  0  0
    4.9819    1.8862   16.9392 H   0  0  0  0  0  0  0  0  0  0  0  0
    3.8825    1.9672   19.1726 H   0  0  0  0  0  0  0  0  0  0  0  0
    4.8033    0.5245   21.0549 H   0  0  0  0  0  0  0  0  0  0  0  0
    9.9207   -0.5032   19.7977 H   0  0  0  0  0  0  0  0  0  0  0  0
    8.9207    0.9583   20.0188 H   0  0  0  0  0  0  0  0  0  0  0  0
    8.1464    1.9516   21.8183 H   0  0  0  0  0  0  0  0  0  0  0  0
    7.8361    3.7097   23.5363 H   0  0  0  0  0  0  0  0  0  0  0  0
    9.7257    4.2997   25.0647 H   0  0  0  0  0  0  0  0  0  0  0  0
   11.8947    3.1465   24.8232 H   0  0  0  0  0  0  0  0  0  0  0  0
   14.2530    0.6838   23.5422 H   0  0  0  0  0  0  0  0  0  0  0  0
   13.9206    2.4012   23.9012 H   0  0  0  0  0  0  0  0  0  0  0  0
   13.1311    1.1138   24.8688 H   0  0  0  0  0  0  0  0  0  0  0  0
  1  2  1  0
  2  3  1  0
  3  4  2  0
  4  5  1  0
  5  6  2  0
  6  7  1  0
  7  8  2  0
  8  9  1  0
  9 10  1  0
 10 11  1  0
 11 12  2  0
 12 13  1  0
 13 14  1  0
 14 15  1  0
 15 16  1  0
 16 17  1  0
 17 18  1  0
 18 19  1  0
 18 20  1  0
 17 21  1  0
 17 22  1  0
 16 23  1  0
 16 24  1  0
 15 25  1  0
 15 26  1  0
 14 27  1  0
 13 28  2  0
 28 29  1  0
 29 30  1  0
 30 31  2  0
 31 32  1  0
 32 33  2  0
 33 34  1  0
 34 35  2  0
 35 36  1  0
 33 37  1  0
 32 38  1  0
 31 39  1  0
 10 40  1  0
 10 41  1  0
  7 42  1  0
  6 43  1  0
  5 44  1  0
  4 45  1  0
  1 46  1  0
  1 47  1  0
  1 48  1  0
  8  3  1  0
 29 11  1  0
 35 30  1  0
 18 14  1  0
M  END
>  <cnnaffinity>  (1) 
-6.2426

>  <filename>  (1) 
COc1ccccc1OCc1nc(C2CCCC2)nn1-c1cccnc1

$$$$
