
     RDKit          3D

 46 49  0  0  0  0  0  0  0  0999 V2000
    9.3122   -0.4629   28.1970 C   0  0  0  0  0  0  0  0  0  0  0  0
    9.4034    0.0984   26.9045 O   0  0  0  0  0  0  0  0  0  0  0  0
    8.2655    0.2582   26.1780 C   0  0  0  0  0  0  0  0  0  0  0  0
    7.0202   -0.2931   26.5111 C   0  0  0  0  0  0  0  0  0  0  0  0
    5.9346   -0.1001   25.6482 C   0  0  0  0  0  0  0  0  0  0  0  0
    6.0886    0.6350   24.4681 C   0  0  0  0  0  0  0  0  0  0  0  0
    7.3346    1.1740   24.1232 C   0  0  0  0  0  0  0  0  0  0  0  0
    7.6018    1.8800   22.7904 C   0  0  0  0  0  0  0  0  0  0  0  0
    8.6082    1.1026   21.9886 C   0  0  0  0  0  0  0  0  0  0  0  0
    9.9196    1.2506   22.0815 N   0  0  0  0  0  0  0  0  0  0  0  0
   10.4039    0.0612   21.6372 C   0  0  0  0  0  0  0  0  0  0  0  0
   11.8399   -0.3441   21.7716 C   0  0  0  0  0  0  0  0  0  0  0  0
   12.2770   -1.6004   21.3087 C   0  0  0  0  0  0  0  0  0  0  0  0
   13.6207   -1.9483   21.4042 C   0  0  0  0  0  0  0  0  0  0  0  0
   14.5339   -1.1714   21.9938 N   0  0  0  0  0  0  0  0  0  0  0  0
   14.1270    0.0198   22.4488 C   0  0  0  0  0  0  0  0  0  0  0  0
   12.8144    0.4850   22.3577 C   0  0  0  0  0  0  0  0  0  0  0  0
   12.5745    1.4864   22.7043 H   0  0  0  0  0  0  0  0  0  0  0  0
   14.9002    0.6530   22.8721 H   0  0  0  0  0  0  0  0  0  0  0  0
   13.9946   -2.8778   20.9833 H   0  0  0  0  0  0  0  0  0  0  0  0
   11.5653   -2.2802   20.8692 H   0  0  0  0  0  0  0  0  0  0  0  0
    9.4676   -0.7617   21.1892 N   0  0  0  0  0  0  0  0  0  0  0  0
    8.3231   -0.0881   21.4222 N   0  0  0  0  0  0  0  0  0  0  0  0
    7.0416   -0.6758   21.0530 C   0  0  0  0  0  0  0  0  0  0  0  0
    6.3676    0.0379   19.9037 C   0  0  0  0  0  0  0  0  0  0  0  0
    5.1570    0.7259   20.0211 C   0  0  0  0  0  0  0  0  0  0  0  0
    4.6574    1.4158   18.9122 C   0  0  0  0  0  0  0  0  0  0  0  0
    5.3863    1.3834   17.7200 C   0  0  0  0  0  0  0  0  0  0  0  0
    6.5354    0.7048   17.5786 N   0  0  0  0  0  0  0  0  0  0  0  0
    7.0069    0.0637   18.6530 C   0  0  0  0  0  0  0  0  0  0  0  0
    7.9582   -0.4500   18.5242 H   0  0  0  0  0  0  0  0  0  0  0  0
    5.0329    1.9184   16.8388 H   0  0  0  0  0  0  0  0  0  0  0  0
    3.7416    1.9942   18.9609 H   0  0  0  0  0  0  0  0  0  0  0  0
    4.6224    0.7450   20.9736 H   0  0  0  0  0  0  0  0  0  0  0  0
    7.2710   -1.7100   20.7809 H   0  0  0  0  0  0  0  0  0  0  0  0
    6.3959   -0.6994   21.9380 H   0  0  0  0  0  0  0  0  0  0  0  0
    8.0454    2.8613   22.9751 H   0  0  0  0  0  0  0  0  0  0  0  0
    6.6783    2.0381   22.2262 H   0  0  0  0  0  0  0  0  0  0  0  0
    8.4117    0.9936   24.9982 C   0  0  0  0  0  0  0  0  0  0  0  0
    9.3969    1.3761   24.7483 H   0  0  0  0  0  0  0  0  0  0  0  0
    5.2363    0.7702   23.8071 H   0  0  0  0  0  0  0  0  0  0  0  0
    4.9714   -0.5360   25.9032 H   0  0  0  0  0  0  0  0  0  0  0  0
    6.9107   -0.8549   27.4322 H   0  0  0  0  0  0  0  0  0  0  0  0
    9.0051   -1.5119   28.1451 H   0  0  0  0  0  0  0  0  0  0  0  0
   10.3051   -0.3907   28.6331 H   0  0  0  0  0  0  0  0  0  0  0  0
    8.6126    0.0970   28.8319 H   0  0  0  0  0  0  0  0  0  0  0  0
  1  2  1  0
  2  3  1  0
  3  4  2  0
  4  5  1  0
  5  6  2  0
  6  7  1  0
  7  8  1  0
  8  9  1  0
  9 10  2  0
 10 11  1  0
 11 12  1  0
 12 13  2  0
 13 14  1  0
 14 15  2  0
 15 16  1  0
 16 17  2  0
 17 18  1  0
 16 19  1  0
 14 20  1  0
 13 21  1  0
 11 22  2  0
 22 23  1  0
 23 24  1  0
 24 25  1  0
 25 26  2  0
 26 27  1  0
 27 28  2  0
 28 29  1  0
 29 30  2  0
 30 31  1  0
 28 32  1  0
 27 33  1  0
 26 34  1  0
 24 35  1  0
 24 36  1  0
  8 37  1  0
  8 38  1  0
  7 39  2  0
 39 40  1  0
  6 41  1  0
  5 42  1  0
  4 43  1  0
  1 44  1  0
  1 45  1  0
  1 46  1  0
 39  3  1  0
 23  9  1  0
 30 25  1  0
 17 12  1  0
M  END
>  <cnnaffinity>  (1) 
-6.53871

>  <filename>  (1) 
COc1cccc(Cc2nc(-c3ccncc3)nn2Cc2cccnc2)c1

$$$$
