
     RDKit          3D

 46 49  0  0  0  0  0  0  0  0999 V2000
   14.1617    0.4410   23.6501 C   0  0  0  0  0  0  0  0  0  0  0  0
   13.1020   -0.0787   22.8548 O   0  0  0  0  0  0  0  0  0  0  0  0
   12.0279    0.6812   22.5797 C   0  0  0  0  0  0  0  0  0  0  0  0
   11.1195    0.1300   21.6592 C   0  0  0  0  0  0  0  0  0  0  0  0
    9.9769    0.8371   21.3439 C   0  0  0  0  0  0  0  0  0  0  0  0
    8.9120    0.2304   20.4641 C   0  0  0  0  0  0  0  0  0  0  0  0
    7.9801   -0.6986   21.1884 C   0  0  0  0  0  0  0  0  0  0  0  0
    8.2369   -1.4514   22.2327 N   0  0  0  0  0  0  0  0  0  0  0  0
    7.0875   -2.1605   22.4070 C   0  0  0  0  0  0  0  0  0  0  0  0
    6.9797   -3.1350   23.5484 C   0  0  0  0  0  0  0  0  0  0  0  0
    5.9655   -4.2851   23.4096 C   0  0  0  0  0  0  0  0  0  0  0  0
    6.3866   -5.2921   24.5026 C   0  0  0  0  0  0  0  0  0  0  0  0
    7.8961   -5.0405   24.7711 C   0  0  0  0  0  0  0  0  0  0  0  0
    8.2984   -3.8833   23.8429 C   0  0  0  0  0  0  0  0  0  0  0  0
    9.0608   -3.2163   24.2595 H   0  0  0  0  0  0  0  0  0  0  0  0
    8.7073   -4.2807   22.9040 H   0  0  0  0  0  0  0  0  0  0  0  0
    8.0580   -4.7657   25.8209 H   0  0  0  0  0  0  0  0  0  0  0  0
    8.5086   -5.9307   24.5848 H   0  0  0  0  0  0  0  0  0  0  0  0
    6.1823   -6.3195   24.1856 H   0  0  0  0  0  0  0  0  0  0  0  0
    5.8134   -5.1371   25.4253 H   0  0  0  0  0  0  0  0  0  0  0  0
    4.9234   -3.9589   23.5027 H   0  0  0  0  0  0  0  0  0  0  0  0
    6.0675   -4.7421   22.4162 H   0  0  0  0  0  0  0  0  0  0  0  0
    6.7211   -2.5248   24.4300 H   0  0  0  0  0  0  0  0  0  0  0  0
    6.1318   -1.8856   21.5356 N   0  0  0  0  0  0  0  0  0  0  0  0
    6.7158   -0.9644   20.7349 N   0  0  0  0  0  0  0  0  0  0  0  0
    6.0375   -0.3485   19.6507 C   0  0  0  0  0  0  0  0  0  0  0  0
    4.9403    0.4910   19.8662 C   0  0  0  0  0  0  0  0  0  0  0  0
    4.5708    1.3571   18.8323 C   0  0  0  0  0  0  0  0  0  0  0  0
    5.2619    1.2998   17.6137 C   0  0  0  0  0  0  0  0  0  0  0  0
    6.2194    0.3925   17.3592 N   0  0  0  0  0  0  0  0  0  0  0  0
    6.5665   -0.4346   18.3497 C   0  0  0  0  0  0  0  0  0  0  0  0
    7.3227   -1.1846   18.1193 H   0  0  0  0  0  0  0  0  0  0  0  0
    5.0354    1.9975   16.8111 H   0  0  0  0  0  0  0  0  0  0  0  0
    3.7815    2.0907   18.9671 H   0  0  0  0  0  0  0  0  0  0  0  0
    4.4232    0.4787   20.8261 H   0  0  0  0  0  0  0  0  0  0  0  0
    8.3265    1.0377   20.0237 H   0  0  0  0  0  0  0  0  0  0  0  0
    9.3574   -0.3331   19.6319 H   0  0  0  0  0  0  0  0  0  0  0  0
    9.7979    2.0940   21.9470 C   0  0  0  0  0  0  0  0  0  0  0  0
   10.7487    2.5403   22.8570 C   0  0  0  0  0  0  0  0  0  0  0  0
   11.8603    1.8512   23.1782 N   0  0  0  0  0  0  0  0  0  0  0  0
   10.6049    3.4943   23.3640 H   0  0  0  0  0  0  0  0  0  0  0  0
    8.9361    2.7054   21.6931 H   0  0  0  0  0  0  0  0  0  0  0  0
   11.3289   -0.8561   21.2693 H   0  0  0  0  0  0  0  0  0  0  0  0
   14.6225    1.3085   23.1673 H   0  0  0  0  0  0  0  0  0  0  0  0
   13.8350    0.7060   24.6636 H   0  0  0  0  0  0  0  0  0  0  0  0
   14.8826   -0.3715   23.6889 H   0  0  0  0  0  0  0  0  0  0  0  0
  1  2  1  0
  2  3  1  0
  3  4  2  0
  4  5  1  0
  5  6  1  0
  6  7  1  0
  7  8  2  0
  8  9  1  0
  9 10  1  0
 10 11  1  0
 11 12  1  0
 12 13  1  0
 13 14  1  0
 14 15  1  0
 14 16  1  0
 13 17  1  0
 13 18  1  0
 12 19  1  0
 12 20  1  0
 11 21  1  0
 11 22  1  0
 10 23  1  0
  9 24  2  0
 24 25  1  0
 25 26  1  0
 26 27  2  0
 27 28  1  0
 28 29  2  0
 29 30  1  0
 30 31  2  0
 31 32  1  0
 29 33  1  0
 28 34  1  0
 27 35  1  0
  6 36  1  0
  6 37  1  0
  5 38  2  0
 38 39  1  0
 39 40  2  0
 39 41  1  0
 38 42  1  0
  4 43  1  0
  1 44  1  0
  1 45  1  0
  1 46  1  0
 40  3  1  0
 25  7  1  0
 31 26  1  0
 14 10  1  0
M  END
>  <cnnaffinity>  (1) 
-6.42123

>  <filename>  (1) 
COc1cc(Cc2nc(C3CCCC3)nn2-c2cccnc2)ccn1

$$$$
