
     RDKit          3D

 47 50  0  0  0  0  0  0  0  0999 V2000
   13.3226   -1.7471   21.3545 C   0  0  0  0  0  0  0  0  0  0  0  0
   12.1456   -0.9903   21.1699 O   0  0  0  0  0  0  0  0  0  0  0  0
   11.8552    0.0796   21.9594 C   0  0  0  0  0  0  0  0  0  0  0  0
   12.6731    0.5067   23.0223 C   0  0  0  0  0  0  0  0  0  0  0  0
   12.3830    1.7026   23.6872 C   0  0  0  0  0  0  0  0  0  0  0  0
   11.2764    2.4631   23.3134 C   0  0  0  0  0  0  0  0  0  0  0  0
   10.4238    1.9866   22.3069 C   0  0  0  0  0  0  0  0  0  0  0  0
   10.6558    0.7714   21.6547 C   0  0  0  0  0  0  0  0  0  0  0  0
    9.6005    0.1998   20.7099 C   0  0  0  0  0  0  0  0  0  0  0  0
    8.5399   -0.6302   21.3713 C   0  0  0  0  0  0  0  0  0  0  0  0
    8.7393   -1.4470   22.3812 N   0  0  0  0  0  0  0  0  0  0  0  0
    7.5238   -2.0322   22.5651 C   0  0  0  0  0  0  0  0  0  0  0  0
    7.3299   -3.0396   23.6557 C   0  0  0  0  0  0  0  0  0  0  0  0
    8.2402   -4.2818   23.5131 C   0  0  0  0  0  0  0  0  0  0  0  0
    8.3210   -4.8932   24.9244 C   0  0  0  0  0  0  0  0  0  0  0  0
    7.9953   -3.7453   25.9137 C   0  0  0  0  0  0  0  0  0  0  0  0
    7.7157   -2.5002   25.0521 C   0  0  0  0  0  0  0  0  0  0  0  0
    6.9397   -1.8501   25.4725 H   0  0  0  0  0  0  0  0  0  0  0  0
    8.6299   -1.8996   24.9524 H   0  0  0  0  0  0  0  0  0  0  0  0
    7.1234   -4.0071   26.5249 H   0  0  0  0  0  0  0  0  0  0  0  0
    8.8174   -3.5594   26.6143 H   0  0  0  0  0  0  0  0  0  0  0  0
    7.5992   -5.7101   25.0429 H   0  0  0  0  0  0  0  0  0  0  0  0
    9.3098   -5.3278   25.1094 H   0  0  0  0  0  0  0  0  0  0  0  0
    7.8655   -4.9852   22.7609 H   0  0  0  0  0  0  0  0  0  0  0  0
    9.2369   -3.9512   23.1901 H   0  0  0  0  0  0  0  0  0  0  0  0
    6.2728   -3.3329   23.6328 H   0  0  0  0  0  0  0  0  0  0  0  0
    6.5934   -1.6391   21.7230 N   0  0  0  0  0  0  0  0  0  0  0  0
    7.2478   -0.7501   20.9288 N   0  0  0  0  0  0  0  0  0  0  0  0
    6.5653   -0.0797   19.8713 C   0  0  0  0  0  0  0  0  0  0  0  0
    5.3625    0.5961   20.1130 C   0  0  0  0  0  0  0  0  0  0  0  0
    4.7873    1.3127   19.0593 C   0  0  0  0  0  0  0  0  0  0  0  0
    5.4040    1.3018   17.8022 C   0  0  0  0  0  0  0  0  0  0  0  0
    6.5248    0.6104   17.5480 N   0  0  0  0  0  0  0  0  0  0  0  0
    7.0813   -0.0631   18.5617 C   0  0  0  0  0  0  0  0  0  0  0  0
    7.9891   -0.6149   18.3259 H   0  0  0  0  0  0  0  0  0  0  0  0
    4.9832    1.8622   16.9692 H   0  0  0  0  0  0  0  0  0  0  0  0
    3.8775    1.8856   19.1995 H   0  0  0  0  0  0  0  0  0  0  0  0
    4.9054    0.5514   21.1023 H   0  0  0  0  0  0  0  0  0  0  0  0
   10.0684   -0.4649   19.9737 H   0  0  0  0  0  0  0  0  0  0  0  0
    9.1081    1.0157   20.1748 H   0  0  0  0  0  0  0  0  0  0  0  0
    9.5408    2.5617   22.0382 H   0  0  0  0  0  0  0  0  0  0  0  0
   11.0725    3.4232   23.7794 H   0  0  0  0  0  0  0  0  0  0  0  0
   13.0311    2.0337   24.4939 H   0  0  0  0  0  0  0  0  0  0  0  0
   13.5286   -0.0896   23.3219 H   0  0  0  0  0  0  0  0  0  0  0  0
   13.2652   -2.3243   22.2794 H   0  0  0  0  0  0  0  0  0  0  0  0
   13.3589   -2.4168   20.4969 H   0  0  0  0  0  0  0  0  0  0  0  0
   14.2317   -1.1322   21.3671 H   0  0  0  0  0  0  0  0  0  0  0  0
  1  2  1  0
  2  3  1  0
  3  4  2  0
  4  5  1  0
  5  6  2  0
  6  7  1  0
  7  8  2  0
  8  9  1  0
  9 10  1  0
 10 11  2  0
 11 12  1  0
 12 13  1  0
 13 14  1  0
 14 15  1  0
 15 16  1  0
 16 17  1  0
 17 18  1  0
 17 19  1  0
 16 20  1  0
 16 21  1  0
 15 22  1  0
 15 23  1  0
 14 24  1  0
 14 25  1  0
 13 26  1  0
 12 27  2  0
 27 28  1  0
 28 29  1  0
 29 30  2  0
 30 31  1  0
 31 32  2  0
 32 33  1  0
 33 34  2  0
 34 35  1  0
 32 36  1  0
 31 37  1  0
 30 38  1  0
  9 39  1  0
  9 40  1  0
  7 41  1  0
  6 42  1  0
  5 43  1  0
  4 44  1  0
  1 45  1  0
  1 46  1  0
  1 47  1  0
  8  3  1  0
 28 10  1  0
 34 29  1  0
 17 13  1  0
M  END
>  <cnnaffinity>  (1) 
-6.70205

>  <filename>  (1) 
COc1ccccc1Cc1nc(C2CCCC2)nn1-c1cccnc1

$$$$
