
     RDKit          3D

 38 40  0  0  0  0  0  0  0  0999 V2000
    6.0467    1.0238   22.0963 H   0  0  0  0  0  0  0  0  0  0  0  0
    6.6469    0.1689   21.7869 C   0  0  0  0  0  0  0  0  0  0  0  0
    7.2502   -0.5225   22.7619 N   0  0  0  0  0  0  0  0  0  0  0  0
    8.0346   -1.5657   22.3901 C   0  0  0  0  0  0  0  0  0  0  0  0
    8.6574   -2.2628   23.3912 N   0  0  0  0  0  0  0  0  0  0  0  0
    8.3043   -2.0257   24.7986 C   0  0  0  0  0  0  0  0  0  0  0  0
    7.4457   -1.3566   24.8399 H   0  0  0  0  0  0  0  0  0  0  0  0
    9.1390   -1.5102   25.2936 H   0  0  0  0  0  0  0  0  0  0  0  0
    8.0168   -3.3757   25.4437 C   0  0  0  0  0  0  0  0  0  0  0  0
    7.2438   -3.8605   24.8321 H   0  0  0  0  0  0  0  0  0  0  0  0
    7.6369   -3.2465   26.4648 H   0  0  0  0  0  0  0  0  0  0  0  0
    9.2834   -4.2529   25.4688 C   0  0  0  0  0  0  0  0  0  0  0  0
    8.9707   -5.2982   25.3001 H   0  0  0  0  0  0  0  0  0  0  0  0
    9.9123   -4.1005   26.7330 O   0  0  0  0  0  0  0  0  0  0  0  0
   10.2766   -5.2807   27.4090 C   0  0  0  0  0  0  0  0  0  0  0  0
   11.0773   -5.0219   28.1073 H   0  0  0  0  0  0  0  0  0  0  0  0
    9.4312   -5.7064   27.9765 H   0  0  0  0  0  0  0  0  0  0  0  0
   10.6483   -6.0546   26.7185 H   0  0  0  0  0  0  0  0  0  0  0  0
   10.2929   -3.8396   24.3730 C   0  0  0  0  0  0  0  0  0  0  0  0
   10.9667   -4.6772   24.1649 H   0  0  0  0  0  0  0  0  0  0  0  0
   10.9120   -3.0198   24.7540 H   0  0  0  0  0  0  0  0  0  0  0  0
    9.6082   -3.3510   23.0953 C   0  0  0  0  0  0  0  0  0  0  0  0
   10.3686   -2.9911   22.3893 H   0  0  0  0  0  0  0  0  0  0  0  0
    9.0966   -4.1892   22.5967 H   0  0  0  0  0  0  0  0  0  0  0  0
    8.1853   -1.8827   20.9922 C   0  0  0  0  0  0  0  0  0  0  0  0
    8.8135   -2.7181   20.6894 H   0  0  0  0  0  0  0  0  0  0  0  0
    7.6044   -1.1673   20.0284 N   0  0  0  0  0  0  0  0  0  0  0  0
    6.8014   -0.1371   20.4123 C   0  0  0  0  0  0  0  0  0  0  0  0
    6.1802    0.6408   19.3220 C   0  0  0  0  0  0  0  0  0  0  0  0
    6.8145    0.6321   18.0626 C   0  0  0  0  0  0  0  0  0  0  0  0
    7.7186    0.0452   17.9394 H   0  0  0  0  0  0  0  0  0  0  0  0
    6.3852    1.3046   16.9953 N   0  0  0  0  0  0  0  0  0  0  0  0
    5.2659    2.0277   17.1466 C   0  0  0  0  0  0  0  0  0  0  0  0
    4.9367    2.5700   16.2617 H   0  0  0  0  0  0  0  0  0  0  0  0
    4.5480    2.1021   18.3435 C   0  0  0  0  0  0  0  0  0  0  0  0
    3.6554    2.7163   18.3845 H   0  0  0  0  0  0  0  0  0  0  0  0
    5.0078    1.4033   19.4626 C   0  0  0  0  0  0  0  0  0  0  0  0
    4.4518    1.4498   20.4033 H   0  0  0  0  0  0  0  0  0  0  0  0
  1  2  1  0
  2  3  2  0
  3  4  1  0
  4  5  1  0
  5  6  1  0
  6  7  1  0
  6  8  1  0
  6  9  1  0
  9 10  1  0
  9 11  1  0
  9 12  1  0
 12 13  1  0
 12 14  1  0
 14 15  1  0
 15 16  1  0
 15 17  1  0
 15 18  1  0
 12 19  1  0
 19 20  1  0
 19 21  1  0
 19 22  1  0
 22 23  1  0
 22 24  1  0
  4 25  2  0
 25 26  1  0
 25 27  1  0
 27 28  2  0
 28 29  1  0
 29 30  2  0
 30 31  1  0
 30 32  1  0
 32 33  2  0
 33 34  1  0
 33 35  1  0
 35 36  1  0
 35 37  2  0
 37 38  1  0
 28  2  1  0
 37 29  1  0
 22  5  1  0
M  END
>  <cnnaffinity>  (1) 
-4.98935

>  <filename>  (1) 
COC1CCN(c2cnc(-c3cccnc3)cn2)CC1

$$$$
