
     RDKit          3D

 34 36  0  0  0  0  0  0  0  0999 V2000
    4.9642    1.8847   16.9422 H   0  0  0  0  0  0  0  0  0  0  0  0
    5.4121    1.3458   17.7737 C   0  0  0  0  0  0  0  0  0  0  0  0
    6.5722    0.7185   17.5165 N   0  0  0  0  0  0  0  0  0  0  0  0
    7.1532    0.0581   18.5246 C   0  0  0  0  0  0  0  0  0  0  0  0
    8.1024   -0.4306   18.3068 H   0  0  0  0  0  0  0  0  0  0  0  0
    6.6010   -0.0403   19.8175 C   0  0  0  0  0  0  0  0  0  0  0  0
    7.2907   -0.7373   20.8753 N   0  0  0  0  0  0  0  0  0  0  0  0
    8.5420   -0.2752   21.2089 C   0  0  0  0  0  0  0  0  0  0  0  0
    8.8836    0.5908   20.6514 H   0  0  0  0  0  0  0  0  0  0  0  0
    9.3184   -0.8543   22.1673 C   0  0  0  0  0  0  0  0  0  0  0  0
   10.6821   -0.3326   22.4046 C   0  0  0  0  0  0  0  0  0  0  0  0
   11.8077   -1.1784   22.4205 C   0  0  0  0  0  0  0  0  0  0  0  0
   11.7067   -2.2477   22.2344 H   0  0  0  0  0  0  0  0  0  0  0  0
   13.0503   -0.7322   22.6303 N   0  0  0  0  0  0  0  0  0  0  0  0
   13.2270    0.5870   22.7946 C   0  0  0  0  0  0  0  0  0  0  0  0
   14.2509    0.9202   22.9519 H   0  0  0  0  0  0  0  0  0  0  0  0
   12.1762    1.5338   22.7263 C   0  0  0  0  0  0  0  0  0  0  0  0
   12.3430    2.8846   22.7440 O   0  0  0  0  0  0  0  0  0  0  0  0
   13.6330    3.3720   23.0774 C   0  0  0  0  0  0  0  0  0  0  0  0
   13.9723    2.9012   24.0028 H   0  0  0  0  0  0  0  0  0  0  0  0
   14.3734    3.1717   22.2943 H   0  0  0  0  0  0  0  0  0  0  0  0
   13.5464    4.4490   23.2036 H   0  0  0  0  0  0  0  0  0  0  0  0
   10.8754    1.0459   22.5564 C   0  0  0  0  0  0  0  0  0  0  0  0
   10.0168    1.7179   22.5270 H   0  0  0  0  0  0  0  0  0  0  0  0
    8.7681   -1.9276   22.9297 C   0  0  0  0  0  0  0  0  0  0  0  0
    9.3562   -2.3512   23.7438 H   0  0  0  0  0  0  0  0  0  0  0  0
    7.5125   -2.3843   22.6590 C   0  0  0  0  0  0  0  0  0  0  0  0
    7.0508   -3.1990   23.1940 H   0  0  0  0  0  0  0  0  0  0  0  0
    6.6876   -1.8401   21.5846 C   0  0  0  0  0  0  0  0  0  0  0  0
    5.5942   -2.2869   21.2866 O   0  0  0  0  0  0  0  0  0  0  0  0
    5.4006    0.6275   20.0749 C   0  0  0  0  0  0  0  0  0  0  0  0
    4.9748    0.5917   21.0761 H   0  0  0  0  0  0  0  0  0  0  0  0
    4.7958    1.3320   19.0292 C   0  0  0  0  0  0  0  0  0  0  0  0
    3.8728    1.8808   19.1805 H   0  0  0  0  0  0  0  0  0  0  0  0
  1  2  1  0
  2  3  2  0
  3  4  1  0
  4  5  1  0
  4  6  2  0
  6  7  1  0
  7  8  1  0
  8  9  1  0
  8 10  2  0
 10 11  1  0
 11 12  2  0
 12 13  1  0
 12 14  1  0
 14 15  2  0
 15 16  1  0
 15 17  1  0
 17 18  1  0
 18 19  1  0
 19 20  1  0
 19 21  1  0
 19 22  1  0
 17 23  2  0
 23 24  1  0
 10 25  1  0
 25 26  1  0
 25 27  2  0
 27 28  1  0
 27 29  1  0
 29 30  2  0
  6 31  1  0
 31 32  1  0
 31 33  2  0
 33 34  1  0
 33  2  1  0
 29  7  1  0
 23 11  1  0
M  END
>  <cnnaffinity>  (1) 
-4.96327

>  <filename>  (1) 
COc1cncc(-c2ccc(=O)n(-c3cccnc3)c2)c1

$$$$
