
     RDKit          3D

 37 39  0  0  0  0  0  0  0  0999 V2000
    4.9383    1.8015   17.0036 H   0  0  0  0  0  0  0  0  0  0  0  0
    5.4274    1.2939   17.8344 C   0  0  0  0  0  0  0  0  0  0  0  0
    6.5927    0.6908   17.5533 N   0  0  0  0  0  0  0  0  0  0  0  0
    7.2155    0.0593   18.5630 C   0  0  0  0  0  0  0  0  0  0  0  0
    8.1626   -0.4219   18.3269 H   0  0  0  0  0  0  0  0  0  0  0  0
    6.7292   -0.0301   19.8894 C   0  0  0  0  0  0  0  0  0  0  0  0
    7.5068   -0.7209   20.8624 N   0  0  0  0  0  0  0  0  0  0  0  0
    8.3233   -0.1955   21.1684 H   0  0  0  0  0  0  0  0  0  0  0  0
    6.9905   -1.5237   21.8971 C   0  0  0  0  0  0  0  0  0  0  0  0
    5.9459   -2.4908   21.8891 C   0  0  0  0  0  0  0  0  0  0  0  0
    5.3215   -2.8084   21.0610 H   0  0  0  0  0  0  0  0  0  0  0  0
    5.7925   -3.0519   23.0889 N   0  0  0  0  0  0  0  0  0  0  0  0
    6.7286   -2.4600   23.8465 N   0  0  0  0  0  0  0  0  0  0  0  0
    6.8283   -2.7326   24.8124 H   0  0  0  0  0  0  0  0  0  0  0  0
    7.5120   -1.5686   23.1809 C   0  0  0  0  0  0  0  0  0  0  0  0
    8.6750   -0.8918   23.8535 C   0  0  0  0  0  0  0  0  0  0  0  0
    9.1467   -1.6156   24.5283 H   0  0  0  0  0  0  0  0  0  0  0  0
    9.4343   -0.6572   23.1011 H   0  0  0  0  0  0  0  0  0  0  0  0
    8.3107    0.3739   24.6106 C   0  0  0  0  0  0  0  0  0  0  0  0
    8.0846    0.3610   25.9941 C   0  0  0  0  0  0  0  0  0  0  0  0
    8.1971   -0.5661   26.5570 H   0  0  0  0  0  0  0  0  0  0  0  0
    7.7252    1.5276   26.6814 C   0  0  0  0  0  0  0  0  0  0  0  0
    7.5688    1.5060   27.7575 H   0  0  0  0  0  0  0  0  0  0  0  0
    7.6007    2.7229   25.9784 C   0  0  0  0  0  0  0  0  0  0  0  0
    7.3516    3.6452   26.4991 H   0  0  0  0  0  0  0  0  0  0  0  0
    7.8244    2.7624   24.5961 C   0  0  0  0  0  0  0  0  0  0  0  0
    7.7521    3.6987   24.0556 H   0  0  0  0  0  0  0  0  0  0  0  0
    8.1730    1.5915   23.9077 C   0  0  0  0  0  0  0  0  0  0  0  0
    8.4205    1.5390   22.5563 O   0  0  0  0  0  0  0  0  0  0  0  0
    8.2268    2.7079   21.7772 C   0  0  0  0  0  0  0  0  0  0  0  0
    8.4150    2.4282   20.7375 H   0  0  0  0  0  0  0  0  0  0  0  0
    8.9244    3.5068   22.0666 H   0  0  0  0  0  0  0  0  0  0  0  0
    7.1959    3.0720   21.8754 H   0  0  0  0  0  0  0  0  0  0  0  0
    5.5143    0.6235   20.1596 C   0  0  0  0  0  0  0  0  0  0  0  0
    5.1053    0.6263   21.1751 H   0  0  0  0  0  0  0  0  0  0  0  0
    4.8532    1.2824   19.1098 C   0  0  0  0  0  0  0  0  0  0  0  0
    3.9087    1.7923   19.2714 H   0  0  0  0  0  0  0  0  0  0  0  0
  1  2  1  0
  2  3  2  0
  3  4  1  0
  4  5  1  0
  4  6  2  0
  6  7  1  0
  7  8  1  0
  7  9  1  0
  9 10  1  0
 10 11  1  0
 10 12  2  0
 12 13  1  0
 13 14  1  0
 13 15  1  0
 15 16  1  0
 16 17  1  0
 16 18  1  0
 16 19  1  0
 19 20  2  0
 20 21  1  0
 20 22  1  0
 22 23  1  0
 22 24  2  0
 24 25  1  0
 24 26  1  0
 26 27  1  0
 26 28  2  0
 28 29  1  0
 29 30  1  0
 30 31  1  0
 30 32  1  0
 30 33  1  0
  6 34  1  0
 34 35  1  0
 34 36  2  0
 36 37  1  0
 36  2  1  0
 15  9  2  0
 28 19  1  0
M  END
>  <cnnaffinity>  (1) 
-5.28851

>  <filename>  (1) 
COc1ccccc1Cc1[nH]ncc1Nc1cccnc1

$$$$
