
     RDKit          3D

 31 33  0  0  0  0  0  0  0  0999 V2000
    4.9825    1.7793   16.9740 H   0  0  0  0  0  0  0  0  0  0  0  0
    5.4365    1.2949   17.8379 C   0  0  0  0  0  0  0  0  0  0  0  0
    6.6172    0.6890   17.6318 N   0  0  0  0  0  0  0  0  0  0  0  0
    7.1826    0.0727   18.6817 C   0  0  0  0  0  0  0  0  0  0  0  0
    8.1410   -0.4048   18.4856 H   0  0  0  0  0  0  0  0  0  0  0  0
    6.6271    0.0277   19.9817 C   0  0  0  0  0  0  0  0  0  0  0  0
    7.2728   -0.6961   21.1100 C   0  0  0  0  0  0  0  0  0  0  0  0
    7.7158   -2.0466   21.1758 C   0  0  0  0  0  0  0  0  0  0  0  0
    7.6409   -2.8253   20.4388 H   0  0  0  0  0  0  0  0  0  0  0  0
    8.1979   -2.3591   22.3649 N   0  0  0  0  0  0  0  0  0  0  0  0
    8.0666   -1.2460   23.0865 N   0  0  0  0  0  0  0  0  0  0  0  0
    8.2920   -1.2518   24.0721 H   0  0  0  0  0  0  0  0  0  0  0  0
    7.5078   -0.2154   22.4045 C   0  0  0  0  0  0  0  0  0  0  0  0
    7.2322    1.0675   23.0923 C   0  0  0  0  0  0  0  0  0  0  0  0
    6.9343    0.9642   24.4128 N   0  0  0  0  0  0  0  0  0  0  0  0
    6.5526    2.0588   25.0442 C   0  0  0  0  0  0  0  0  0  0  0  0
    6.1448    1.9851   26.3325 O   0  0  0  0  0  0  0  0  0  0  0  0
    6.0711    0.7086   26.9633 C   0  0  0  0  0  0  0  0  0  0  0  0
    5.3421    0.0637   26.4576 H   0  0  0  0  0  0  0  0  0  0  0  0
    5.7515    0.9019   27.9901 H   0  0  0  0  0  0  0  0  0  0  0  0
    7.0486    0.2136   26.9533 H   0  0  0  0  0  0  0  0  0  0  0  0
    6.5417    3.3386   24.4597 C   0  0  0  0  0  0  0  0  0  0  0  0
    6.2260    4.1823   25.0665 H   0  0  0  0  0  0  0  0  0  0  0  0
    6.9299    3.4556   23.1354 C   0  0  0  0  0  0  0  0  0  0  0  0
    6.9467    4.4282   22.6354 H   0  0  0  0  0  0  0  0  0  0  0  0
    7.2856    2.2941   22.4275 C   0  0  0  0  0  0  0  0  0  0  0  0
    7.5865    2.3317   21.3836 H   0  0  0  0  0  0  0  0  0  0  0  0
    5.4024    0.6853   20.1647 C   0  0  0  0  0  0  0  0  0  0  0  0
    4.9543    0.7100   21.1583 H   0  0  0  0  0  0  0  0  0  0  0  0
    4.7917    1.3175   19.0770 C   0  0  0  0  0  0  0  0  0  0  0  0
    3.8403    1.8312   19.1814 H   0  0  0  0  0  0  0  0  0  0  0  0
  1  2  1  0
  2  3  2  0
  3  4  1  0
  4  5  1  0
  4  6  2  0
  6  7  1  0
  7  8  1  0
  8  9  1  0
  8 10  2  0
 10 11  1  0
 11 12  1  0
 11 13  1  0
 13 14  1  0
 14 15  2  0
 15 16  1  0
 16 17  1  0
 17 18  1  0
 18 19  1  0
 18 20  1  0
 18 21  1  0
 16 22  2  0
 22 23  1  0
 22 24  1  0
 24 25  1  0
 24 26  2  0
 26 27  1  0
  6 28  1  0
 28 29  1  0
 28 30  2  0
 30 31  1  0
 30  2  1  0
 13  7  2  0
 26 14  1  0
M  END
>  <cnnaffinity>  (1) 
-4.89202

>  <filename>  (1) 
COc1cccc(-c2[nH]ncc2-c2cccnc2)n1

$$$$
