
     RDKit          3D

 45 48  0  0  0  0  0  0  0  0999 V2000
   13.2929   -1.7615   21.3458 C   0  0  0  0  0  0  0  0  0  0  0  0
   12.0935   -1.0475   21.1615 O   0  0  0  0  0  0  0  0  0  0  0  0
   11.8481    0.0280   21.9500 C   0  0  0  0  0  0  0  0  0  0  0  0
   12.7077    0.4594   22.9797 C   0  0  0  0  0  0  0  0  0  0  0  0
   12.4514    1.6590   23.6503 C   0  0  0  0  0  0  0  0  0  0  0  0
   11.3474    2.4269   23.2914 C   0  0  0  0  0  0  0  0  0  0  0  0
   11.0846    3.9812   24.0335 Cl  0  0  0  0  0  0  0  0  0  0  0  0
   10.4638    1.9677   22.3084 C   0  0  0  0  0  0  0  0  0  0  0  0
   10.6732    0.7512   21.6564 C   0  0  0  0  0  0  0  0  0  0  0  0
    9.6135    0.1936   20.7186 C   0  0  0  0  0  0  0  0  0  0  0  0
    8.5562   -0.6320   21.3947 C   0  0  0  0  0  0  0  0  0  0  0  0
    8.7565   -1.4540   22.3988 N   0  0  0  0  0  0  0  0  0  0  0  0
    7.5342   -2.0049   22.6099 C   0  0  0  0  0  0  0  0  0  0  0  0
    7.2677   -3.1265   23.5891 C   0  0  0  0  0  0  0  0  0  0  0  0
    7.7823   -4.5069   23.0743 C   0  0  0  0  0  0  0  0  0  0  0  0
    8.2521   -5.1920   24.3622 C   0  0  0  0  0  0  0  0  0  0  0  0
    8.7583   -4.0031   25.1739 C   0  0  0  0  0  0  0  0  0  0  0  0
    7.8772   -2.9306   24.8615 O   0  0  0  0  0  0  0  0  0  0  0  0
    8.7208   -4.1541   26.2575 H   0  0  0  0  0  0  0  0  0  0  0  0
    9.7904   -3.7348   24.8966 H   0  0  0  0  0  0  0  0  0  0  0  0
    9.0293   -5.9449   24.1956 H   0  0  0  0  0  0  0  0  0  0  0  0
    7.4156   -5.6758   24.8815 H   0  0  0  0  0  0  0  0  0  0  0  0
    7.0112   -5.0608   22.5276 H   0  0  0  0  0  0  0  0  0  0  0  0
    8.6321   -4.3552   22.3928 H   0  0  0  0  0  0  0  0  0  0  0  0
    6.1785   -3.1272   23.7292 H   0  0  0  0  0  0  0  0  0  0  0  0
    6.5991   -1.6012   21.7696 N   0  0  0  0  0  0  0  0  0  0  0  0
    7.2594   -0.7337   20.9637 N   0  0  0  0  0  0  0  0  0  0  0  0
    6.5840   -0.0774   19.9003 C   0  0  0  0  0  0  0  0  0  0  0  0
    5.3832    0.5957   20.1412 C   0  0  0  0  0  0  0  0  0  0  0  0
    4.8000    1.2953   19.0850 C   0  0  0  0  0  0  0  0  0  0  0  0
    5.4162    1.2736   17.8263 C   0  0  0  0  0  0  0  0  0  0  0  0
    6.5404    0.5867   17.5755 N   0  0  0  0  0  0  0  0  0  0  0  0
    7.1035   -0.0739   18.5925 C   0  0  0  0  0  0  0  0  0  0  0  0
    8.0164   -0.6214   18.3660 H   0  0  0  0  0  0  0  0  0  0  0  0
    4.9913    1.8207   16.9888 H   0  0  0  0  0  0  0  0  0  0  0  0
    3.8860    1.8631   19.2229 H   0  0  0  0  0  0  0  0  0  0  0  0
    4.9374    0.5592   21.1369 H   0  0  0  0  0  0  0  0  0  0  0  0
    9.1301    1.0132   20.1842 H   0  0  0  0  0  0  0  0  0  0  0  0
   10.0747   -0.4819   19.9904 H   0  0  0  0  0  0  0  0  0  0  0  0
    9.6069    2.5837   22.0571 H   0  0  0  0  0  0  0  0  0  0  0  0
   13.1299    2.0022   24.4214 H   0  0  0  0  0  0  0  0  0  0  0  0
   13.5728   -0.1318   23.2573 H   0  0  0  0  0  0  0  0  0  0  0  0
   13.2407   -2.3571   22.2648 H   0  0  0  0  0  0  0  0  0  0  0  0
   13.3867   -2.3963   20.4676 H   0  0  0  0  0  0  0  0  0  0  0  0
   14.1509   -1.0806   21.3990 H   0  0  0  0  0  0  0  0  0  0  0  0
  1  2  1  0
  2  3  1  0
  3  4  2  0
  4  5  1  0
  5  6  2  0
  6  7  1  0
  6  8  1  0
  8  9  2  0
  9 10  1  0
 10 11  1  0
 11 12  2  0
 12 13  1  0
 13 14  1  0
 14 15  1  0
 15 16  1  0
 16 17  1  0
 17 18  1  0
 17 19  1  0
 17 20  1  0
 16 21  1  0
 16 22  1  0
 15 23  1  0
 15 24  1  0
 14 25  1  0
 13 26  2  0
 26 27  1  0
 27 28  1  0
 28 29  2  0
 29 30  1  0
 30 31  2  0
 31 32  1  0
 32 33  2  0
 33 34  1  0
 31 35  1  0
 30 36  1  0
 29 37  1  0
 10 38  1  0
 10 39  1  0
  8 40  1  0
  5 41  1  0
  4 42  1  0
  1 43  1  0
  1 44  1  0
  1 45  1  0
  9  3  1  0
 27 11  1  0
 33 28  1  0
 18 14  1  0
M  END
>  <cnnaffinity>  (1) 
-6.52852

>  <filename>  (1) 
COc1ccc(Cl)cc1Cc1nc(C2CCCO2)nn1-c1cccnc1

$$$$
