
     RDKit          3D

 46 48  0  0  0  0  0  0  0  0999 V2000
    7.3782   -6.0096   21.4147 C   0  0  0  0  0  0  0  0  0  0  0  0
    7.0373   -4.7723   21.9854 O   0  0  0  0  0  0  0  0  0  0  0  0
    7.8480   -4.4364   23.0805 C   0  0  0  0  0  0  0  0  0  0  0  0
    7.4074   -3.0661   23.5651 C   0  0  0  0  0  0  0  0  0  0  0  0
    7.5957   -2.0366   22.5231 C   0  0  0  0  0  0  0  0  0  0  0  0
    6.6522   -1.5947   21.7274 N   0  0  0  0  0  0  0  0  0  0  0  0
    7.3073   -0.6854   20.9594 N   0  0  0  0  0  0  0  0  0  0  0  0
    6.6385   -0.0119   19.8995 C   0  0  0  0  0  0  0  0  0  0  0  0
    5.4257    0.6326   20.1574 C   0  0  0  0  0  0  0  0  0  0  0  0
    4.8047    1.3090   19.1033 C   0  0  0  0  0  0  0  0  0  0  0  0
    5.3956    1.2954   17.8341 C   0  0  0  0  0  0  0  0  0  0  0  0
    6.5443    0.6543   17.5719 N   0  0  0  0  0  0  0  0  0  0  0  0
    7.1494    0.0264   18.5869 C   0  0  0  0  0  0  0  0  0  0  0  0
    8.0975   -0.4502   18.3453 H   0  0  0  0  0  0  0  0  0  0  0  0
    4.9374    1.8120   16.9931 H   0  0  0  0  0  0  0  0  0  0  0  0
    3.8762    1.8456   19.2530 H   0  0  0  0  0  0  0  0  0  0  0  0
    5.0101    0.5883   21.1654 H   0  0  0  0  0  0  0  0  0  0  0  0
    8.5986   -0.5974   21.3913 C   0  0  0  0  0  0  0  0  0  0  0  0
    9.6250    0.2689   20.7566 C   0  0  0  0  0  0  0  0  0  0  0  0
   10.5458    0.9290   21.7539 C   0  0  0  0  0  0  0  0  0  0  0  0
   10.0925    2.0720   22.4478 C   0  0  0  0  0  0  0  0  0  0  0  0
    8.7437    2.7095   22.1761 C   0  0  0  0  0  0  0  0  0  0  0  0
    7.9312    1.9752   22.1975 H   0  0  0  0  0  0  0  0  0  0  0  0
    8.7095    3.1910   21.1935 H   0  0  0  0  0  0  0  0  0  0  0  0
    8.5160    3.4740   22.9233 H   0  0  0  0  0  0  0  0  0  0  0  0
   10.9051    2.6053   23.4537 C   0  0  0  0  0  0  0  0  0  0  0  0
   12.1355    2.0197   23.7567 C   0  0  0  0  0  0  0  0  0  0  0  0
   12.5744    0.8913   23.0713 C   0  0  0  0  0  0  0  0  0  0  0  0
   11.7685    0.3041   22.0910 C   0  0  0  0  0  0  0  0  0  0  0  0
   12.1757   -1.0322   21.5053 C   0  0  0  0  0  0  0  0  0  0  0  0
   11.4494   -1.8040   21.7731 H   0  0  0  0  0  0  0  0  0  0  0  0
   13.1493   -1.3594   21.8763 H   0  0  0  0  0  0  0  0  0  0  0  0
   12.2486   -1.0244   20.4182 H   0  0  0  0  0  0  0  0  0  0  0  0
   13.5294    0.4346   23.3272 H   0  0  0  0  0  0  0  0  0  0  0  0
   12.7408    2.3930   24.5582 H   0  0  0  0  0  0  0  0  0  0  0  0
   10.5495    3.4684   24.0098 H   0  0  0  0  0  0  0  0  0  0  0  0
    9.1268    1.0381   20.1678 H   0  0  0  0  0  0  0  0  0  0  0  0
   10.1663   -0.4095   20.0918 H   0  0  0  0  0  0  0  0  0  0  0  0
    8.8178   -1.4791   22.3454 N   0  0  0  0  0  0  0  0  0  0  0  0
    6.3516   -3.0767   23.8435 H   0  0  0  0  0  0  0  0  0  0  0  0
    8.0228   -2.7691   24.4179 H   0  0  0  0  0  0  0  0  0  0  0  0
    8.9170   -4.4310   22.7939 H   0  0  0  0  0  0  0  0  0  0  0  0
    7.7365   -5.1766   23.8937 H   0  0  0  0  0  0  0  0  0  0  0  0
    6.6777   -6.1934   20.5983 H   0  0  0  0  0  0  0  0  0  0  0  0
    7.3069   -6.8321   22.1464 H   0  0  0  0  0  0  0  0  0  0  0  0
    8.4051   -5.9816   21.0204 H   0  0  0  0  0  0  0  0  0  0  0  0
  1  2  1  0
  2  3  1  0
  3  4  1  0
  4  5  1  0
  5  6  2  0
  6  7  1  0
  7  8  1  0
  8  9  2  0
  9 10  1  0
 10 11  2  0
 11 12  1  0
 12 13  2  0
 13 14  1  0
 11 15  1  0
 10 16  1  0
  9 17  1  0
  7 18  1  0
 18 19  1  0
 19 20  1  0
 20 21  2  0
 21 22  1  0
 22 23  1  0
 22 24  1  0
 22 25  1  0
 21 26  1  0
 26 27  2  0
 27 28  1  0
 28 29  2  0
 29 30  1  0
 30 31  1  0
 30 32  1  0
 30 33  1  0
 28 34  1  0
 27 35  1  0
 26 36  1  0
 19 37  1  0
 19 38  1  0
 18 39  2  0
  4 40  1  0
  4 41  1  0
  3 42  1  0
  3 43  1  0
  1 44  1  0
  1 45  1  0
  1 46  1  0
 39  5  1  0
 13  8  1  0
 29 20  1  0
M  END
>  <cnnaffinity>  (1) 
-6.22646

>  <filename>  (1) 
COCCc1nc(Cc2c(C)cccc2C)n(-c2cccnc2)n1

$$$$
