
     RDKit          3D

 40 42  0  0  0  0  0  0  0  0999 V2000
    5.7824   -5.5690   22.8486 C   0  0  0  0  0  0  0  0  0  0  0  0
    6.6626   -4.5918   22.3504 O   0  0  0  0  0  0  0  0  0  0  0  0
    7.7991   -4.3331   23.1409 C   0  0  0  0  0  0  0  0  0  0  0  0
    8.6977   -3.4401   22.2965 C   0  0  0  0  0  0  0  0  0  0  0  0
    8.0623   -2.1311   22.0026 C   0  0  0  0  0  0  0  0  0  0  0  0
    7.7242   -1.2825   22.9475 N   0  0  0  0  0  0  0  0  0  0  0  0
    7.2139   -0.2294   22.2547 N   0  0  0  0  0  0  0  0  0  0  0  0
    7.0661    1.0473   22.9714 C   0  0  0  0  0  0  0  0  0  0  0  0
    8.3943    1.5229   23.5478 C   0  0  0  0  0  0  0  0  0  0  0  0
    9.3942    2.0338   22.6947 C   0  0  0  0  0  0  0  0  0  0  0  0
    9.0185    2.3209   21.0210 Cl  0  0  0  0  0  0  0  0  0  0  0  0
   10.6879    2.3449   23.1261 C   0  0  0  0  0  0  0  0  0  0  0  0
   11.0196    2.1454   24.4686 C   0  0  0  0  0  0  0  0  0  0  0  0
   10.0630    1.6409   25.3511 C   0  0  0  0  0  0  0  0  0  0  0  0
    8.7631    1.3749   24.9023 C   0  0  0  0  0  0  0  0  0  0  0  0
    7.5941    0.9061   26.1184 Cl  0  0  0  0  0  0  0  0  0  0  0  0
   10.3101    1.4292   26.3845 H   0  0  0  0  0  0  0  0  0  0  0  0
   12.0060    2.4245   24.8455 H   0  0  0  0  0  0  0  0  0  0  0  0
   11.4077    2.7164   22.4000 H   0  0  0  0  0  0  0  0  0  0  0  0
    6.6880    1.7976   22.2726 H   0  0  0  0  0  0  0  0  0  0  0  0
    6.3329    0.9003   23.7645 H   0  0  0  0  0  0  0  0  0  0  0  0
    7.2429   -0.5333   20.9252 C   0  0  0  0  0  0  0  0  0  0  0  0
    6.5851    0.2101   19.8538 C   0  0  0  0  0  0  0  0  0  0  0  0
    5.3591    0.8795   20.0004 C   0  0  0  0  0  0  0  0  0  0  0  0
    4.7856    1.4587   18.8701 C   0  0  0  0  0  0  0  0  0  0  0  0
    5.4513    1.3616   17.6440 C   0  0  0  0  0  0  0  0  0  0  0  0
    6.6158    0.7129   17.4893 N   0  0  0  0  0  0  0  0  0  0  0  0
    7.1522    0.1410   18.5719 C   0  0  0  0  0  0  0  0  0  0  0  0
    8.0794   -0.4064   18.4183 H   0  0  0  0  0  0  0  0  0  0  0  0
    5.0487    1.8308   16.7455 H   0  0  0  0  0  0  0  0  0  0  0  0
    3.8489    2.0017   18.9239 H   0  0  0  0  0  0  0  0  0  0  0  0
    4.8447    0.9167   20.9656 H   0  0  0  0  0  0  0  0  0  0  0  0
    7.8278   -1.7061   20.7425 N   0  0  0  0  0  0  0  0  0  0  0  0
    9.6694   -3.2774   22.7809 H   0  0  0  0  0  0  0  0  0  0  0  0
    8.8494   -3.9055   21.3261 H   0  0  0  0  0  0  0  0  0  0  0  0
    8.3307   -5.2698   23.3938 H   0  0  0  0  0  0  0  0  0  0  0  0
    7.5223   -3.8257   24.0807 H   0  0  0  0  0  0  0  0  0  0  0  0
    5.0603   -5.7748   22.0551 H   0  0  0  0  0  0  0  0  0  0  0  0
    5.2311   -5.2325   23.7391 H   0  0  0  0  0  0  0  0  0  0  0  0
    6.3131   -6.4998   23.1001 H   0  0  0  0  0  0  0  0  0  0  0  0
  1  2  1  0
  2  3  1  0
  3  4  1  0
  4  5  1  0
  5  6  2  0
  6  7  1  0
  7  8  1  0
  8  9  1  0
  9 10  2  0
 10 11  1  0
 10 12  1  0
 12 13  2  0
 13 14  1  0
 14 15  2  0
 15 16  1  0
 14 17  1  0
 13 18  1  0
 12 19  1  0
  8 20  1  0
  8 21  1  0
  7 22  1  0
 22 23  1  0
 23 24  2  0
 24 25  1  0
 25 26  2  0
 26 27  1  0
 27 28  2  0
 28 29  1  0
 26 30  1  0
 25 31  1  0
 24 32  1  0
 22 33  2  0
  4 34  1  0
  4 35  1  0
  3 36  1  0
  3 37  1  0
  1 38  1  0
  1 39  1  0
  1 40  1  0
 33  5  1  0
 15  9  1  0
 28 23  1  0
M  END
>  <cnnaffinity>  (1) 
-5.97431

>  <filename>  (1) 
COCCc1nc(-c2cccnc2)n(Cc2c(Cl)cccc2Cl)n1

$$$$
