
     RDKit          3D

 31 32  0  0  0  0  0  0  0  0999 V2000
    4.9886    1.8320   17.0225 H   0  0  0  0  0  0  0  0  0  0  0  0
    5.4509    1.2818   17.8369 C   0  0  0  0  0  0  0  0  0  0  0  0
    6.6078    0.6668   17.5404 N   0  0  0  0  0  0  0  0  0  0  0  0
    7.2288    0.0025   18.5221 C   0  0  0  0  0  0  0  0  0  0  0  0
    8.1719   -0.4893   18.2736 H   0  0  0  0  0  0  0  0  0  0  0  0
    6.7119   -0.0907   19.8269 C   0  0  0  0  0  0  0  0  0  0  0  0
    7.4472   -0.7610   20.8543 N   0  0  0  0  0  0  0  0  0  0  0  0
    8.6942   -0.3216   21.3017 C   0  0  0  0  0  0  0  0  0  0  0  0
    9.2478    0.4332   20.7728 H   0  0  0  0  0  0  0  0  0  0  0  0
    9.0172   -1.0625   22.3781 C   0  0  0  0  0  0  0  0  0  0  0  0
   10.1079   -1.1064   23.2229 N   0  0  0  0  0  0  0  0  0  0  0  0
   10.1366   -2.0394   23.6191 H   0  0  0  0  0  0  0  0  0  0  0  0
   11.3773   -0.7417   22.5794 C   0  0  0  0  0  0  0  0  0  0  0  0
   11.3063    0.2477   22.1148 H   0  0  0  0  0  0  0  0  0  0  0  0
   12.1536   -0.6420   23.3434 H   0  0  0  0  0  0  0  0  0  0  0  0
   11.7458   -1.7986   21.5282 C   0  0  0  0  0  0  0  0  0  0  0  0
   11.9425   -2.7386   22.0704 H   0  0  0  0  0  0  0  0  0  0  0  0
   10.8526   -1.9614   20.9057 H   0  0  0  0  0  0  0  0  0  0  0  0
   12.8014   -1.4321   20.6772 O   0  0  0  0  0  0  0  0  0  0  0  0
   14.0869   -1.8041   21.1133 C   0  0  0  0  0  0  0  0  0  0  0  0
   14.3135   -1.5271   22.1573 H   0  0  0  0  0  0  0  0  0  0  0  0
   14.2342   -2.8875   21.0111 H   0  0  0  0  0  0  0  0  0  0  0  0
   14.7896   -1.2808   20.4588 H   0  0  0  0  0  0  0  0  0  0  0  0
    7.9979   -1.9612   22.5597 N   0  0  0  0  0  0  0  0  0  0  0  0
    7.9205   -2.6355   23.2951 H   0  0  0  0  0  0  0  0  0  0  0  0
    7.0053   -1.8028   21.6417 C   0  0  0  0  0  0  0  0  0  0  0  0
    5.6403   -2.7485   21.5248 S   0  0  0  0  0  0  0  0  0  0  0  0
    5.4908    0.5268   20.1244 C   0  0  0  0  0  0  0  0  0  0  0  0
    5.0799    0.4496   21.1341 H   0  0  0  0  0  0  0  0  0  0  0  0
    4.8553    1.2426   19.1048 C   0  0  0  0  0  0  0  0  0  0  0  0
    3.9282    1.7810   19.2815 H   0  0  0  0  0  0  0  0  0  0  0  0
  1  2  1  0
  2  3  2  0
  3  4  1  0
  4  5  1  0
  4  6  2  0
  6  7  1  0
  7  8  1  0
  8  9  1  0
  8 10  2  0
 10 11  1  0
 11 12  1  0
 11 13  1  0
 13 14  1  0
 13 15  1  0
 13 16  1  0
 16 17  1  0
 16 18  1  0
 16 19  1  0
 19 20  1  0
 20 21  1  0
 20 22  1  0
 20 23  1  0
 10 24  1  0
 24 25  1  0
 24 26  1  0
 26 27  2  0
  6 28  1  0
 28 29  1  0
 28 30  2  0
 30 31  1  0
 30  2  1  0
 26  7  1  0
M  END
>  <cnnaffinity>  (1) 
-5.40692

>  <filename>  (1) 
COCCNc1cn(-c2cccnc2)c(=S)[nH]1

$$$$
