
     RDKit          3D

 48 52  0  0  0  0  0  0  0  0999 V2000
    7.3073    1.5671   23.9175 C   0  0  0  0  0  0  0  0  0  0  0  0
    7.8537    2.7369   23.3386 O   0  0  0  0  0  0  0  0  0  0  0  0
    8.6364    2.5355   22.1763 C   0  0  0  0  0  0  0  0  0  0  0  0
    9.9861    1.8697   22.4513 C   0  0  0  0  0  0  0  0  0  0  0  0
   10.8121    2.4368   23.4386 C   0  0  0  0  0  0  0  0  0  0  0  0
   12.0791    1.9074   23.6944 C   0  0  0  0  0  0  0  0  0  0  0  0
   12.5365    0.7904   22.9911 C   0  0  0  0  0  0  0  0  0  0  0  0
   11.6986    0.1948   22.0421 C   0  0  0  0  0  0  0  0  0  0  0  0
   10.4309    0.7193   21.7690 C   0  0  0  0  0  0  0  0  0  0  0  0
    9.5087    0.0106   20.7981 C   0  0  0  0  0  0  0  0  0  0  0  0
    8.3414   -0.6554   21.4629 C   0  0  0  0  0  0  0  0  0  0  0  0
    8.3807   -1.4538   22.5169 N   0  0  0  0  0  0  0  0  0  0  0  0
    7.0850   -1.8517   22.6481 C   0  0  0  0  0  0  0  0  0  0  0  0
    6.5518   -2.8085   23.6288 C   0  0  0  0  0  0  0  0  0  0  0  0
    7.3398   -3.3657   24.8040 C   0  0  0  0  0  0  0  0  0  0  0  0
    7.0296   -4.2268   23.6040 C   0  0  0  0  0  0  0  0  0  0  0  0
    7.7641   -4.9641   22.5527 C   0  0  0  0  0  0  0  0  0  0  0  0
    6.4565   -5.5124   23.1356 C   0  0  0  0  0  0  0  0  0  0  0  0
    6.5167   -6.3811   23.7822 H   0  0  0  0  0  0  0  0  0  0  0  0
    5.5516   -5.4681   22.5295 H   0  0  0  0  0  0  0  0  0  0  0  0
    7.7795   -4.4893   21.5702 H   0  0  0  0  0  0  0  0  0  0  0  0
    8.6845   -5.4546   22.8602 H   0  0  0  0  0  0  0  0  0  0  0  0
    6.7913   -3.5424   25.7287 H   0  0  0  0  0  0  0  0  0  0  0  0
    8.3833   -3.0689   24.9277 H   0  0  0  0  0  0  0  0  0  0  0  0
    5.4765   -2.7019   23.7216 H   0  0  0  0  0  0  0  0  0  0  0  0
    6.2567   -1.3311   21.7662 N   0  0  0  0  0  0  0  0  0  0  0  0
    7.0625   -0.5845   20.9772 N   0  0  0  0  0  0  0  0  0  0  0  0
    6.4951    0.0829   19.8554 C   0  0  0  0  0  0  0  0  0  0  0  0
    5.3515    0.8753   20.0196 C   0  0  0  0  0  0  0  0  0  0  0  0
    4.8006    1.4645   18.8776 C   0  0  0  0  0  0  0  0  0  0  0  0
    5.3930    1.2294   17.6309 C   0  0  0  0  0  0  0  0  0  0  0  0
    6.4830    0.4635   17.4643 N   0  0  0  0  0  0  0  0  0  0  0  0
    7.0130   -0.0948   18.5591 C   0  0  0  0  0  0  0  0  0  0  0  0
    7.8890   -0.7249   18.4042 H   0  0  0  0  0  0  0  0  0  0  0  0
    4.9702    1.6554   16.7254 H   0  0  0  0  0  0  0  0  0  0  0  0
    3.9198    2.0950   18.9435 H   0  0  0  0  0  0  0  0  0  0  0  0
    4.9009    1.0014   21.0095 H   0  0  0  0  0  0  0  0  0  0  0  0
    9.1478    0.7315   20.0594 H   0  0  0  0  0  0  0  0  0  0  0  0
   10.0478   -0.7664   20.2462 H   0  0  0  0  0  0  0  0  0  0  0  0
   12.0286   -0.6846   21.4925 H   0  0  0  0  0  0  0  0  0  0  0  0
   13.5295    0.3848   23.1803 H   0  0  0  0  0  0  0  0  0  0  0  0
   12.7113    2.3619   24.4454 H   0  0  0  0  0  0  0  0  0  0  0  0
   10.4507    3.3064   23.9867 H   0  0  0  0  0  0  0  0  0  0  0  0
    8.7986    3.5498   21.7941 H   0  0  0  0  0  0  0  0  0  0  0  0
    8.0536    2.0004   21.4101 H   0  0  0  0  0  0  0  0  0  0  0  0
    8.0658    0.8072   24.1587 H   0  0  0  0  0  0  0  0  0  0  0  0
    6.8191    1.8936   24.8390 H   0  0  0  0  0  0  0  0  0  0  0  0
    6.5566    1.0847   23.2726 H   0  0  0  0  0  0  0  0  0  0  0  0
  1  2  1  0
  2  3  1  0
  3  4  1  0
  4  5  2  0
  5  6  1  0
  6  7  2  0
  7  8  1  0
  8  9  2  0
  9 10  1  0
 10 11  1  0
 11 12  2  0
 12 13  1  0
 13 14  1  0
 14 15  1  0
 15 16  1  0
 16 17  1  0
 17 18  1  0
 18 19  1  0
 18 20  1  0
 17 21  1  0
 17 22  1  0
 15 23  1  0
 15 24  1  0
 14 25  1  0
 13 26  2  0
 26 27  1  0
 27 28  1  0
 28 29  2  0
 29 30  1  0
 30 31  2  0
 31 32  1  0
 32 33  2  0
 33 34  1  0
 31 35  1  0
 30 36  1  0
 29 37  1  0
 10 38  1  0
 10 39  1  0
  8 40  1  0
  7 41  1  0
  6 42  1  0
  5 43  1  0
  3 44  1  0
  3 45  1  0
  1 46  1  0
  1 47  1  0
  1 48  1  0
  9  4  1  0
 27 11  1  0
 33 28  1  0
 16 14  1  0
 18 16  1  0
M  END
>  <cnnaffinity>  (1) 
-6.41455

>  <filename>  (1) 
COCc1ccccc1Cc1nc(C2CC23CC3)nn1-c1cccnc1

$$$$
