
     RDKit          3D

 27 27  0  0  0  0  0  0  0  0999 V2000
    6.7142    0.4228   22.5297 H   0  0  0  0  0  0  0  0  0  0  0  0
    7.3661   -0.3992   22.2263 C   0  0  0  0  0  0  0  0  0  0  0  0
    7.4069   -0.6680   20.9108 C   0  0  0  0  0  0  0  0  0  0  0  0
    8.2965   -1.5962   20.4393 F   0  0  0  0  0  0  0  0  0  0  0  0
    6.6266   -0.0098   19.8490 C   0  0  0  0  0  0  0  0  0  0  0  0
    7.1245   -0.0080   18.5255 C   0  0  0  0  0  0  0  0  0  0  0  0
    8.0352   -0.5517   18.3022 H   0  0  0  0  0  0  0  0  0  0  0  0
    6.5579    0.6395   17.5027 N   0  0  0  0  0  0  0  0  0  0  0  0
    5.4248    1.3180   17.7508 C   0  0  0  0  0  0  0  0  0  0  0  0
    4.9973    1.8649   16.9089 H   0  0  0  0  0  0  0  0  0  0  0  0
    4.8109    1.3389   19.0055 C   0  0  0  0  0  0  0  0  0  0  0  0
    3.8848    1.8947   19.1309 H   0  0  0  0  0  0  0  0  0  0  0  0
    5.4151    0.6791   20.0756 C   0  0  0  0  0  0  0  0  0  0  0  0
    4.9451    0.6897   21.0595 H   0  0  0  0  0  0  0  0  0  0  0  0
    8.0900   -1.0300   23.2117 N   0  0  0  0  0  0  0  0  0  0  0  0
    8.6615   -1.8080   22.9117 H   0  0  0  0  0  0  0  0  0  0  0  0
    8.0636   -0.6504   24.6113 C   0  0  0  0  0  0  0  0  0  0  0  0
    8.5000    0.3541   24.7685 H   0  0  0  0  0  0  0  0  0  0  0  0
    7.0250   -0.6066   24.9746 H   0  0  0  0  0  0  0  0  0  0  0  0
    8.8312   -1.6835   25.4633 C   0  0  0  0  0  0  0  0  0  0  0  0
    9.8613   -1.7893   25.0770 H   0  0  0  0  0  0  0  0  0  0  0  0
    8.3472   -2.6632   25.3604 H   0  0  0  0  0  0  0  0  0  0  0  0
    8.8221   -1.4140   26.8552 O   0  0  0  0  0  0  0  0  0  0  0  0
    9.6227   -0.3435   27.3004 C   0  0  0  0  0  0  0  0  0  0  0  0
    9.4706   -0.2790   28.3822 H   0  0  0  0  0  0  0  0  0  0  0  0
    9.3589    0.6204   26.8337 H   0  0  0  0  0  0  0  0  0  0  0  0
   10.6928   -0.5094   27.1179 H   0  0  0  0  0  0  0  0  0  0  0  0
  1  2  1  0
  2  3  2  3
  3  4  1  0
  3  5  1  0
  5  6  2  0
  6  7  1  0
  6  8  1  0
  8  9  2  0
  9 10  1  0
  9 11  1  0
 11 12  1  0
 11 13  2  0
 13 14  1  0
  2 15  1  0
 15 16  1  0
 15 17  1  0
 17 18  1  0
 17 19  1  0
 17 20  1  0
 20 21  1  0
 20 22  1  0
 20 23  1  0
 23 24  1  0
 24 25  1  0
 24 26  1  0
 24 27  1  0
 13  5  1  0
M  END
>  <cnnaffinity>  (1) 
-3.48928

>  <filename>  (1) 
COCCNC=C(F)c1cccnc1

$$$$
