
     RDKit          3D

 40 42  0  0  0  0  0  0  0  0999 V2000
    6.1976   -4.9041   24.5194 C   0  0  0  0  0  0  0  0  0  0  0  0
    7.1488   -4.0753   23.9029 O   0  0  0  0  0  0  0  0  0  0  0  0
    7.6278   -4.5524   22.6763 C   0  0  0  0  0  0  0  0  0  0  0  0
    8.5675   -3.4931   22.1197 C   0  0  0  0  0  0  0  0  0  0  0  0
    7.9406   -2.1556   21.9737 C   0  0  0  0  0  0  0  0  0  0  0  0
    7.4233   -1.8022   20.8196 N   0  0  0  0  0  0  0  0  0  0  0  0
    7.0176   -0.5234   21.0340 N   0  0  0  0  0  0  0  0  0  0  0  0
    6.4268    0.1849   19.9453 C   0  0  0  0  0  0  0  0  0  0  0  0
    5.2363    0.9189   20.0455 C   0  0  0  0  0  0  0  0  0  0  0  0
    4.7197    1.4867   18.8715 C   0  0  0  0  0  0  0  0  0  0  0  0
    5.4183    1.3415   17.6682 C   0  0  0  0  0  0  0  0  0  0  0  0
    6.5667    0.6485   17.5718 N   0  0  0  0  0  0  0  0  0  0  0  0
    7.0355    0.0712   18.6787 C   0  0  0  0  0  0  0  0  0  0  0  0
    7.9346   -0.5310   18.5798 H   0  0  0  0  0  0  0  0  0  0  0  0
    5.0742    1.8128   16.7488 H   0  0  0  0  0  0  0  0  0  0  0  0
    3.8018    2.0673   18.8734 H   0  0  0  0  0  0  0  0  0  0  0  0
    4.7008    1.0186   20.9935 H   0  0  0  0  0  0  0  0  0  0  0  0
    7.3604   -0.1656   22.3112 C   0  0  0  0  0  0  0  0  0  0  0  0
    7.2106    1.1872   22.9454 C   0  0  0  0  0  0  0  0  0  0  0  0
    8.5235    1.6800   23.5446 C   0  0  0  0  0  0  0  0  0  0  0  0
    8.7759    1.5548   24.9175 C   0  0  0  0  0  0  0  0  0  0  0  0
   10.0551    1.7843   25.4365 C   0  0  0  0  0  0  0  0  0  0  0  0
   11.0921    2.2218   24.6061 C   0  0  0  0  0  0  0  0  0  0  0  0
   10.8444    2.4399   23.2492 C   0  0  0  0  0  0  0  0  0  0  0  0
    9.5727    2.1520   22.7357 C   0  0  0  0  0  0  0  0  0  0  0  0
    9.2981    2.3701   21.0344 Cl  0  0  0  0  0  0  0  0  0  0  0  0
   11.6234    2.8166   22.5902 H   0  0  0  0  0  0  0  0  0  0  0  0
   12.0813    2.4173   25.0163 H   0  0  0  0  0  0  0  0  0  0  0  0
   10.2406    1.5910   26.4816 H   0  0  0  0  0  0  0  0  0  0  0  0
    7.9569    1.2861   25.5868 H   0  0  0  0  0  0  0  0  0  0  0  0
    6.8487    1.9052   22.2051 H   0  0  0  0  0  0  0  0  0  0  0  0
    6.4650    1.0968   23.7423 H   0  0  0  0  0  0  0  0  0  0  0  0
    7.9232   -1.1947   22.9266 N   0  0  0  0  0  0  0  0  0  0  0  0
    8.9168   -3.7835   21.1270 H   0  0  0  0  0  0  0  0  0  0  0  0
    9.4258   -3.3973   22.7876 H   0  0  0  0  0  0  0  0  0  0  0  0
    6.8001   -4.7665   21.9782 H   0  0  0  0  0  0  0  0  0  0  0  0
    8.1852   -5.4987   22.8039 H   0  0  0  0  0  0  0  0  0  0  0  0
    5.9423   -4.4261   25.4661 H   0  0  0  0  0  0  0  0  0  0  0  0
    6.6003   -5.9062   24.7264 H   0  0  0  0  0  0  0  0  0  0  0  0
    5.2845   -5.0095   23.9130 H   0  0  0  0  0  0  0  0  0  0  0  0
  1  2  1  0
  2  3  1  0
  3  4  1  0
  4  5  1  0
  5  6  2  0
  6  7  1  0
  7  8  1  0
  8  9  2  0
  9 10  1  0
 10 11  2  0
 11 12  1  0
 12 13  2  0
 13 14  1  0
 11 15  1  0
 10 16  1  0
  9 17  1  0
  7 18  1  0
 18 19  1  0
 19 20  1  0
 20 21  2  0
 21 22  1  0
 22 23  2  0
 23 24  1  0
 24 25  2  0
 25 26  1  0
 24 27  1  0
 23 28  1  0
 22 29  1  0
 21 30  1  0
 19 31  1  0
 19 32  1  0
 18 33  2  0
  4 34  1  0
  4 35  1  0
  3 36  1  0
  3 37  1  0
  1 38  1  0
  1 39  1  0
  1 40  1  0
 33  5  1  0
 13  8  1  0
 25 20  1  0
M  END
>  <cnnaffinity>  (1) 
-5.60216

>  <filename>  (1) 
COCCc1nc(Cc2ccccc2Cl)n(-c2cccnc2)n1

$$$$
