
     RDKit          3D

 40 42  0  0  0  0  0  0  0  0999 V2000
    7.6933   -5.4311   24.0083 C   0  0  0  0  0  0  0  0  0  0  0  0
    7.8467   -4.4166   23.0399 O   0  0  0  0  0  0  0  0  0  0  0  0
    7.4806   -3.1201   23.4897 C   0  0  0  0  0  0  0  0  0  0  0  0
    7.7080   -2.0555   22.4429 C   0  0  0  0  0  0  0  0  0  0  0  0
    6.7521   -1.6748   21.6169 N   0  0  0  0  0  0  0  0  0  0  0  0
    7.3430   -0.7038   20.8839 N   0  0  0  0  0  0  0  0  0  0  0  0
    6.6347   -0.0300   19.8516 C   0  0  0  0  0  0  0  0  0  0  0  0
    5.4373    0.6326   20.1322 C   0  0  0  0  0  0  0  0  0  0  0  0
    4.8158    1.3223   19.0852 C   0  0  0  0  0  0  0  0  0  0  0  0
    5.3955    1.3157   17.8114 C   0  0  0  0  0  0  0  0  0  0  0  0
    6.5302    0.6554   17.5312 N   0  0  0  0  0  0  0  0  0  0  0  0
    7.1217   -0.0024   18.5339 C   0  0  0  0  0  0  0  0  0  0  0  0
    8.0333   -0.5428   18.2880 H   0  0  0  0  0  0  0  0  0  0  0  0
    4.9269    1.8421   16.9807 H   0  0  0  0  0  0  0  0  0  0  0  0
    3.8888    1.8588   19.2466 H   0  0  0  0  0  0  0  0  0  0  0  0
    5.0162    0.6022   21.1379 H   0  0  0  0  0  0  0  0  0  0  0  0
    8.6167   -0.5025   21.3434 C   0  0  0  0  0  0  0  0  0  0  0  0
    9.5017    0.6053   20.8575 C   0  0  0  0  0  0  0  0  0  0  0  0
    9.1304    2.0130   21.4010 C   0  0  0  0  0  0  0  0  0  0  0  0
    9.3468    2.0466   22.9021 C   0  0  0  0  0  0  0  0  0  0  0  0
   10.6763    2.0953   23.3737 C   0  0  0  0  0  0  0  0  0  0  0  0
   10.9955    1.7981   24.6975 C   0  0  0  0  0  0  0  0  0  0  0  0
    9.9774    1.4622   25.5949 C   0  0  0  0  0  0  0  0  0  0  0  0
    8.6433    1.5249   25.1930 C   0  0  0  0  0  0  0  0  0  0  0  0
    8.3344    1.8183   23.8576 C   0  0  0  0  0  0  0  0  0  0  0  0
    6.6417    1.8508   23.4178 Cl  0  0  0  0  0  0  0  0  0  0  0  0
    7.8446    1.3388   25.9068 H   0  0  0  0  0  0  0  0  0  0  0  0
   10.2233    1.1292   26.5972 H   0  0  0  0  0  0  0  0  0  0  0  0
   12.0329    1.8051   25.0150 H   0  0  0  0  0  0  0  0  0  0  0  0
   11.4818    2.3241   22.6735 H   0  0  0  0  0  0  0  0  0  0  0  0
    9.7969    2.7362   20.9233 H   0  0  0  0  0  0  0  0  0  0  0  0
    8.1062    2.2816   21.1164 H   0  0  0  0  0  0  0  0  0  0  0  0
    9.5051    0.6104   19.7655 H   0  0  0  0  0  0  0  0  0  0  0  0
   10.5201    0.3605   21.1761 H   0  0  0  0  0  0  0  0  0  0  0  0
    8.8767   -1.3599   22.3120 N   0  0  0  0  0  0  0  0  0  0  0  0
    8.0649   -2.8357   24.3791 H   0  0  0  0  0  0  0  0  0  0  0  0
    6.4125   -3.0833   23.7607 H   0  0  0  0  0  0  0  0  0  0  0  0
    8.0418   -6.3576   23.5458 H   0  0  0  0  0  0  0  0  0  0  0  0
    8.2930   -5.2419   24.9116 H   0  0  0  0  0  0  0  0  0  0  0  0
    6.6433   -5.5597   24.3104 H   0  0  0  0  0  0  0  0  0  0  0  0
  1  2  1  0
  2  3  1  0
  3  4  1  0
  4  5  2  0
  5  6  1  0
  6  7  1  0
  7  8  2  0
  8  9  1  0
  9 10  2  0
 10 11  1  0
 11 12  2  0
 12 13  1  0
 10 14  1  0
  9 15  1  0
  8 16  1  0
  6 17  1  0
 17 18  1  0
 18 19  1  0
 19 20  1  0
 20 21  2  0
 21 22  1  0
 22 23  2  0
 23 24  1  0
 24 25  2  0
 25 26  1  0
 24 27  1  0
 23 28  1  0
 22 29  1  0
 21 30  1  0
 19 31  1  0
 19 32  1  0
 18 33  1  0
 18 34  1  0
 17 35  2  0
  3 36  1  0
  3 37  1  0
  1 38  1  0
  1 39  1  0
  1 40  1  0
 35  4  1  0
 12  7  1  0
 25 20  1  0
M  END
>  <cnnaffinity>  (1) 
-5.83085

>  <filename>  (1) 
COCc1nc(CCc2ccccc2Cl)n(-c2cccnc2)n1

$$$$
