
     RDKit          3D

 37 39  0  0  0  0  0  0  0  0999 V2000
    8.3894   -5.7476   23.1070 C   0  0  0  0  0  0  0  0  0  0  0  0
    7.8304   -4.4695   22.8942 O   0  0  0  0  0  0  0  0  0  0  0  0
    8.6931   -3.5773   22.2096 C   0  0  0  0  0  0  0  0  0  0  0  0
    8.1276   -2.1974   21.9944 C   0  0  0  0  0  0  0  0  0  0  0  0
    7.6953   -1.8555   20.7966 N   0  0  0  0  0  0  0  0  0  0  0  0
    7.3155   -0.5708   20.9523 N   0  0  0  0  0  0  0  0  0  0  0  0
    6.6371    0.0931   19.8994 C   0  0  0  0  0  0  0  0  0  0  0  0
    5.4062    0.7169   20.1220 C   0  0  0  0  0  0  0  0  0  0  0  0
    4.7820    1.3336   19.0364 C   0  0  0  0  0  0  0  0  0  0  0  0
    5.4082    1.2990   17.7858 C   0  0  0  0  0  0  0  0  0  0  0  0
    6.5596    0.6395   17.5560 N   0  0  0  0  0  0  0  0  0  0  0  0
    7.1507    0.0386   18.5922 C   0  0  0  0  0  0  0  0  0  0  0  0
    8.0652   -0.5215   18.3931 H   0  0  0  0  0  0  0  0  0  0  0  0
    4.9794    1.8276   16.9381 H   0  0  0  0  0  0  0  0  0  0  0  0
    3.8433    1.8603   19.1615 H   0  0  0  0  0  0  0  0  0  0  0  0
    4.9409    0.6739   21.1095 H   0  0  0  0  0  0  0  0  0  0  0  0
    7.5914   -0.1730   22.2333 C   0  0  0  0  0  0  0  0  0  0  0  0
    7.3517    1.1861   22.8279 C   0  0  0  0  0  0  0  0  0  0  0  0
    8.6068    1.7310   23.4798 C   0  0  0  0  0  0  0  0  0  0  0  0
    8.8250    1.6239   24.8558 C   0  0  0  0  0  0  0  0  0  0  0  0
   10.0445    2.0010   25.4155 C   0  0  0  0  0  0  0  0  0  0  0  0
   11.0612    2.5109   24.6089 C   0  0  0  0  0  0  0  0  0  0  0  0
   10.8738    2.6413   23.2394 C   0  0  0  0  0  0  0  0  0  0  0  0
    9.6571    2.2310   22.6975 C   0  0  0  0  0  0  0  0  0  0  0  0
    9.4999    2.2559   20.9863 Cl  0  0  0  0  0  0  0  0  0  0  0  0
   11.6614    3.0199   22.5948 H   0  0  0  0  0  0  0  0  0  0  0  0
   12.0110    2.7894   25.0391 H   0  0  0  0  0  0  0  0  0  0  0  0
   10.2059    1.8741   26.4728 H   0  0  0  0  0  0  0  0  0  0  0  0
    8.0530    1.2048   25.4947 H   0  0  0  0  0  0  0  0  0  0  0  0
    7.0177    1.8942   22.0654 H   0  0  0  0  0  0  0  0  0  0  0  0
    6.5451    1.0970   23.5622 H   0  0  0  0  0  0  0  0  0  0  0  0
    8.1178   -1.1825   22.9028 N   0  0  0  0  0  0  0  0  0  0  0  0
    9.6514   -3.4593   22.7411 H   0  0  0  0  0  0  0  0  0  0  0  0
    8.8814   -3.9536   21.1931 H   0  0  0  0  0  0  0  0  0  0  0  0
    7.5904   -6.3837   23.4886 H   0  0  0  0  0  0  0  0  0  0  0  0
    9.1912   -5.7116   23.8572 H   0  0  0  0  0  0  0  0  0  0  0  0
    8.7799   -6.2041   22.1826 H   0  0  0  0  0  0  0  0  0  0  0  0
  1  2  1  0
  2  3  1  0
  3  4  1  0
  4  5  2  0
  5  6  1  0
  6  7  1  0
  7  8  2  0
  8  9  1  0
  9 10  2  0
 10 11  1  0
 11 12  2  0
 12 13  1  0
 10 14  1  0
  9 15  1  0
  8 16  1  0
  6 17  1  0
 17 18  1  0
 18 19  1  0
 19 20  2  0
 20 21  1  0
 21 22  2  0
 22 23  1  0
 23 24  2  0
 24 25  1  0
 23 26  1  0
 22 27  1  0
 21 28  1  0
 20 29  1  0
 18 30  1  0
 18 31  1  0
 17 32  2  0
  3 33  1  0
  3 34  1  0
  1 35  1  0
  1 36  1  0
  1 37  1  0
 32  4  1  0
 12  7  1  0
 24 19  1  0
M  END
>  <cnnaffinity>  (1) 
-5.69675

>  <filename>  (1) 
COCc1nc(Cc2ccccc2Cl)n(-c2cccnc2)n1

$$$$
