
     RDKit          3D

 44 47  0  0  0  0  0  0  0  0999 V2000
   11.5448    2.6454   23.9954 C   0  0  0  0  0  0  0  0  0  0  0  0
   10.1806    2.5708   24.3328 O   0  0  0  0  0  0  0  0  0  0  0  0
    9.7552    1.3040   24.8159 C   0  0  0  0  0  0  0  0  0  0  0  0
    8.2726    1.3748   25.1246 C   0  0  0  0  0  0  0  0  0  0  0  0
    7.8259    1.3979   26.4547 C   0  0  0  0  0  0  0  0  0  0  0  0
    6.4600    1.3823   26.7547 C   0  0  0  0  0  0  0  0  0  0  0  0
    5.5235    1.3174   25.7214 C   0  0  0  0  0  0  0  0  0  0  0  0
    5.9594    1.3073   24.3913 C   0  0  0  0  0  0  0  0  0  0  0  0
    7.3222    1.3890   24.0770 C   0  0  0  0  0  0  0  0  0  0  0  0
    7.7533    1.3468   22.6152 C   0  0  0  0  0  0  0  0  0  0  0  0
    7.8448   -0.0715   22.1034 C   0  0  0  0  0  0  0  0  0  0  0  0
    8.3567   -1.0834   22.7725 N   0  0  0  0  0  0  0  0  0  0  0  0
    8.1662   -2.1578   21.9600 C   0  0  0  0  0  0  0  0  0  0  0  0
    8.4083   -3.5517   22.3653 C   0  0  0  0  0  0  0  0  0  0  0  0
    8.1305   -4.7501   21.7599 C   0  0  0  0  0  0  0  0  0  0  0  0
    8.5601   -5.7672   22.6741 C   0  0  0  0  0  0  0  0  0  0  0  0
    9.0544   -5.1159   23.7589 C   0  0  0  0  0  0  0  0  0  0  0  0
    8.9658   -3.7815   23.5904 O   0  0  0  0  0  0  0  0  0  0  0  0
    9.4899   -5.4392   24.6979 H   0  0  0  0  0  0  0  0  0  0  0  0
    8.5665   -6.8461   22.5533 H   0  0  0  0  0  0  0  0  0  0  0  0
    7.7159   -4.8580   20.7631 H   0  0  0  0  0  0  0  0  0  0  0  0
    7.6350   -1.8515   20.7867 N   0  0  0  0  0  0  0  0  0  0  0  0
    7.4038   -0.5243   20.8887 N   0  0  0  0  0  0  0  0  0  0  0  0
    6.6533    0.1112   19.8624 C   0  0  0  0  0  0  0  0  0  0  0  0
    5.4181    0.7209   20.1060 C   0  0  0  0  0  0  0  0  0  0  0  0
    4.7774    1.3458   19.0308 C   0  0  0  0  0  0  0  0  0  0  0  0
    5.3857    1.3178   17.7721 C   0  0  0  0  0  0  0  0  0  0  0  0
    6.5363    0.6636   17.5231 N   0  0  0  0  0  0  0  0  0  0  0  0
    7.1384    0.0567   18.5483 C   0  0  0  0  0  0  0  0  0  0  0  0
    8.0530   -0.4945   18.3388 H   0  0  0  0  0  0  0  0  0  0  0  0
    4.9336    1.8326   16.9281 H   0  0  0  0  0  0  0  0  0  0  0  0
    3.8345    1.8645   19.1664 H   0  0  0  0  0  0  0  0  0  0  0  0
    4.9578    0.6787   21.0952 H   0  0  0  0  0  0  0  0  0  0  0  0
    7.0509    1.9174   22.0011 H   0  0  0  0  0  0  0  0  0  0  0  0
    8.7267    1.8363   22.4947 H   0  0  0  0  0  0  0  0  0  0  0  0
    5.2266    1.2205   23.5902 H   0  0  0  0  0  0  0  0  0  0  0  0
    4.4620    1.2674   25.9486 H   0  0  0  0  0  0  0  0  0  0  0  0
    6.1320    1.3961   27.7909 H   0  0  0  0  0  0  0  0  0  0  0  0
    8.5517    1.4074   27.2667 H   0  0  0  0  0  0  0  0  0  0  0  0
   10.3173    1.0347   25.7254 H   0  0  0  0  0  0  0  0  0  0  0  0
    9.9303    0.5123   24.0653 H   0  0  0  0  0  0  0  0  0  0  0  0
   11.7497    3.6896   23.7456 H   0  0  0  0  0  0  0  0  0  0  0  0
   12.1914    2.3508   24.8353 H   0  0  0  0  0  0  0  0  0  0  0  0
   11.7981    2.0212   23.1238 H   0  0  0  0  0  0  0  0  0  0  0  0
  1  2  1  0
  2  3  1  0
  3  4  1  0
  4  5  2  0
  5  6  1  0
  6  7  2  0
  7  8  1  0
  8  9  2  0
  9 10  1  0
 10 11  1  0
 11 12  2  0
 12 13  1  0
 13 14  1  0
 14 15  2  0
 15 16  1  0
 16 17  2  0
 17 18  1  0
 17 19  1  0
 16 20  1  0
 15 21  1  0
 13 22  2  0
 22 23  1  0
 23 24  1  0
 24 25  2  0
 25 26  1  0
 26 27  2  0
 27 28  1  0
 28 29  2  0
 29 30  1  0
 27 31  1  0
 26 32  1  0
 25 33  1  0
 10 34  1  0
 10 35  1  0
  8 36  1  0
  7 37  1  0
  6 38  1  0
  5 39  1  0
  3 40  1  0
  3 41  1  0
  1 42  1  0
  1 43  1  0
  1 44  1  0
  9  4  1  0
 23 11  1  0
 29 24  1  0
 18 14  1  0
M  END
>  <cnnaffinity>  (1) 
-5.83875

>  <filename>  (1) 
COCc1ccccc1Cc1nc(-c2ccco2)nn1-c1cccnc1

$$$$
