
     RDKit          3D

 48 51  0  0  0  0  0  0  0  0999 V2000
   10.5193    0.6614   25.1812 C   0  0  0  0  0  0  0  0  0  0  0  0
   10.5203    1.8406   24.3862 O   0  0  0  0  0  0  0  0  0  0  0  0
   11.5873    2.0272   23.4602 C   0  0  0  0  0  0  0  0  0  0  0  0
   12.0163    0.7879   22.6876 C   0  0  0  0  0  0  0  0  0  0  0  0
   13.3151    0.2801   22.8840 C   0  0  0  0  0  0  0  0  0  0  0  0
   13.7364   -0.8909   22.2392 C   0  0  0  0  0  0  0  0  0  0  0  0
   12.8444   -1.5713   21.4116 C   0  0  0  0  0  0  0  0  0  0  0  0
   11.5252   -1.1250   21.2889 C   0  0  0  0  0  0  0  0  0  0  0  0
   11.0863    0.0504   21.9167 C   0  0  0  0  0  0  0  0  0  0  0  0
    9.6425    0.5257   21.6983 C   0  0  0  0  0  0  0  0  0  0  0  0
    8.5813   -0.5202   21.9064 C   0  0  0  0  0  0  0  0  0  0  0  0
    8.5487   -1.3813   22.9136 N   0  0  0  0  0  0  0  0  0  0  0  0
    7.4147   -2.1014   22.6934 C   0  0  0  0  0  0  0  0  0  0  0  0
    7.1111   -3.3184   23.5292 C   0  0  0  0  0  0  0  0  0  0  0  0
    7.5225   -4.6585   22.8718 C   0  0  0  0  0  0  0  0  0  0  0  0
    6.6673   -5.6568   23.6559 C   0  0  0  0  0  0  0  0  0  0  0  0
    5.3804   -4.8588   23.9050 C   0  0  0  0  0  0  0  0  0  0  0  0
    5.7271   -3.4770   23.8215 O   0  0  0  0  0  0  0  0  0  0  0  0
    4.6184   -5.0675   23.1448 H   0  0  0  0  0  0  0  0  0  0  0  0
    4.9386   -5.0496   24.8903 H   0  0  0  0  0  0  0  0  0  0  0  0
    7.1458   -5.9178   24.6087 H   0  0  0  0  0  0  0  0  0  0  0  0
    6.4764   -6.5869   23.1107 H   0  0  0  0  0  0  0  0  0  0  0  0
    8.6007   -4.8462   22.9309 H   0  0  0  0  0  0  0  0  0  0  0  0
    7.2256   -4.6398   21.8143 H   0  0  0  0  0  0  0  0  0  0  0  0
    7.6687   -3.1636   24.4647 H   0  0  0  0  0  0  0  0  0  0  0  0
    6.7394   -1.7422   21.6199 N   0  0  0  0  0  0  0  0  0  0  0  0
    7.4657   -0.7133   21.1199 N   0  0  0  0  0  0  0  0  0  0  0  0
    6.9295   -0.0231   19.9786 C   0  0  0  0  0  0  0  0  0  0  0  0
    5.7464    0.7183   20.1016 C   0  0  0  0  0  0  0  0  0  0  0  0
    5.2292    1.3456   18.9630 C   0  0  0  0  0  0  0  0  0  0  0  0
    5.8869    1.1799   17.7400 C   0  0  0  0  0  0  0  0  0  0  0  0
    6.9968    0.4420   17.6049 N   0  0  0  0  0  0  0  0  0  0  0  0
    7.4971   -0.1484   18.7008 C   0  0  0  0  0  0  0  0  0  0  0  0
    8.3860   -0.7595   18.5527 H   0  0  0  0  0  0  0  0  0  0  0  0
    5.4981    1.6455   16.8339 H   0  0  0  0  0  0  0  0  0  0  0  0
    4.3344    1.9575   19.0123 H   0  0  0  0  0  0  0  0  0  0  0  0
    5.2392    0.7858   21.0626 H   0  0  0  0  0  0  0  0  0  0  0  0
    9.5337    0.9404   20.6871 H   0  0  0  0  0  0  0  0  0  0  0  0
    9.4293    1.3287   22.4106 H   0  0  0  0  0  0  0  0  0  0  0  0
   10.7944   -1.7150   20.7459 H   0  0  0  0  0  0  0  0  0  0  0  0
   13.1741   -2.4510   20.8695 H   0  0  0  0  0  0  0  0  0  0  0  0
   14.7328   -1.2898   22.4072 H   0  0  0  0  0  0  0  0  0  0  0  0
   13.9916    0.7921   23.5653 H   0  0  0  0  0  0  0  0  0  0  0  0
   11.2233    2.8123   22.7839 H   0  0  0  0  0  0  0  0  0  0  0  0
   12.4583    2.4314   23.9952 H   0  0  0  0  0  0  0  0  0  0  0  0
    9.6443    0.0504   24.9164 H   0  0  0  0  0  0  0  0  0  0  0  0
   10.4567    0.9480   26.2366 H   0  0  0  0  0  0  0  0  0  0  0  0
   11.4141    0.0434   25.0227 H   0  0  0  0  0  0  0  0  0  0  0  0
  1  2  1  0
  2  3  1  0
  3  4  1  0
  4  5  2  0
  5  6  1  0
  6  7  2  0
  7  8  1  0
  8  9  2  0
  9 10  1  0
 10 11  1  0
 11 12  2  0
 12 13  1  0
 13 14  1  0
 14 15  1  0
 15 16  1  0
 16 17  1  0
 17 18  1  0
 17 19  1  0
 17 20  1  0
 16 21  1  0
 16 22  1  0
 15 23  1  0
 15 24  1  0
 14 25  1  0
 13 26  2  0
 26 27  1  0
 27 28  1  0
 28 29  2  0
 29 30  1  0
 30 31  2  0
 31 32  1  0
 32 33  2  0
 33 34  1  0
 31 35  1  0
 30 36  1  0
 29 37  1  0
 10 38  1  0
 10 39  1  0
  8 40  1  0
  7 41  1  0
  6 42  1  0
  5 43  1  0
  3 44  1  0
  3 45  1  0
  1 46  1  0
  1 47  1  0
  1 48  1  0
  9  4  1  0
 27 11  1  0
 33 28  1  0
 18 14  1  0
M  END
>  <cnnaffinity>  (1) 
-6.52638

>  <filename>  (1) 
COCc1ccccc1Cc1nc(C2CCCO2)nn1-c1cccnc1

$$$$
