
     RDKit          3D

 31 32  0  0  0  0  0  0  0  0999 V2000
    4.9288    1.7905   16.9872 H   0  0  0  0  0  0  0  0  0  0  0  0
    5.3992    1.2895   17.8329 C   0  0  0  0  0  0  0  0  0  0  0  0
    6.5610    0.6674   17.5856 N   0  0  0  0  0  0  0  0  0  0  0  0
    7.1728    0.0589   18.6105 C   0  0  0  0  0  0  0  0  0  0  0  0
    8.1153   -0.4277   18.3738 H   0  0  0  0  0  0  0  0  0  0  0  0
    6.6742    0.0301   19.9416 C   0  0  0  0  0  0  0  0  0  0  0  0
    7.3597   -0.6285   20.9935 N   0  0  0  0  0  0  0  0  0  0  0  0
    7.3982   -0.3555   22.3540 C   0  0  0  0  0  0  0  0  0  0  0  0
    6.8918    0.8141   22.7403 O   0  0  0  0  0  0  0  0  0  0  0  0
    6.8756    1.1236   24.1522 C   0  0  0  0  0  0  0  0  0  0  0  0
    6.7239    2.2038   24.1912 H   0  0  0  0  0  0  0  0  0  0  0  0
    7.8409    0.8778   24.6124 H   0  0  0  0  0  0  0  0  0  0  0  0
    5.7296    0.3976   24.8601 C   0  0  0  0  0  0  0  0  0  0  0  0
    5.8596   -0.6894   24.7239 H   0  0  0  0  0  0  0  0  0  0  0  0
    4.7761    0.6848   24.4001 H   0  0  0  0  0  0  0  0  0  0  0  0
    5.6655    0.7767   26.2217 O   0  0  0  0  0  0  0  0  0  0  0  0
    6.3585   -0.0841   27.0957 C   0  0  0  0  0  0  0  0  0  0  0  0
    7.4174   -0.1952   26.8173 H   0  0  0  0  0  0  0  0  0  0  0  0
    5.9045   -1.0867   27.1183 H   0  0  0  0  0  0  0  0  0  0  0  0
    6.3009    0.3526   28.0954 H   0  0  0  0  0  0  0  0  0  0  0  0
    7.9477   -1.2318   23.1112 N   0  0  0  0  0  0  0  0  0  0  0  0
    8.3842   -2.3220   22.2449 C   0  0  0  0  0  0  0  0  0  0  0  0
    9.4642   -2.4948   22.3435 H   0  0  0  0  0  0  0  0  0  0  0  0
    7.8790   -3.2541   22.5319 H   0  0  0  0  0  0  0  0  0  0  0  0
    8.0171   -1.9152   20.8017 C   0  0  0  0  0  0  0  0  0  0  0  0
    7.3245   -2.6262   20.3379 H   0  0  0  0  0  0  0  0  0  0  0  0
    8.8955   -1.8172   20.1507 H   0  0  0  0  0  0  0  0  0  0  0  0
    5.4430    0.6628   20.1674 C   0  0  0  0  0  0  0  0  0  0  0  0
    5.0206    0.6403   21.1665 H   0  0  0  0  0  0  0  0  0  0  0  0
    4.8047    1.3055   19.1006 C   0  0  0  0  0  0  0  0  0  0  0  0
    3.8730    1.8358   19.2491 H   0  0  0  0  0  0  0  0  0  0  0  0
  1  2  1  0
  2  3  2  0
  3  4  1  0
  4  5  1  0
  4  6  2  0
  6  7  1  0
  7  8  1  0
  8  9  1  0
  9 10  1  0
 10 11  1  0
 10 12  1  0
 10 13  1  0
 13 14  1  0
 13 15  1  0
 13 16  1  0
 16 17  1  0
 17 18  1  0
 17 19  1  0
 17 20  1  0
  8 21  2  0
 21 22  1  0
 22 23  1  0
 22 24  1  0
 22 25  1  0
 25 26  1  0
 25 27  1  0
  6 28  1  0
 28 29  1  0
 28 30  2  0
 30 31  1  0
 30  2  1  0
 25  7  1  0
M  END
>  <cnnaffinity>  (1) 
-3.98221

>  <filename>  (1) 
COCCOC1=NCCN1c1cccnc1

$$$$
