
     RDKit          3D

 46 49  0  0  0  0  0  0  0  0999 V2000
    7.3119    1.4549   23.9885 C   0  0  0  0  0  0  0  0  0  0  0  0
    7.8522    2.7019   23.5952 O   0  0  0  0  0  0  0  0  0  0  0  0
    8.5755    2.6352   22.3767 C   0  0  0  0  0  0  0  0  0  0  0  0
    9.9790    2.0559   22.5424 C   0  0  0  0  0  0  0  0  0  0  0  0
   10.7825    2.6140   23.5472 C   0  0  0  0  0  0  0  0  0  0  0  0
   12.0617    2.1156   23.7775 C   0  0  0  0  0  0  0  0  0  0  0  0
   12.5749    1.0552   23.0373 C   0  0  0  0  0  0  0  0  0  0  0  0
   11.7792    0.4921   22.0397 C   0  0  0  0  0  0  0  0  0  0  0  0
   10.4997    0.9962   21.7733 C   0  0  0  0  0  0  0  0  0  0  0  0
    9.6351    0.2939   20.7528 C   0  0  0  0  0  0  0  0  0  0  0  0
    8.6187   -0.5976   21.3711 C   0  0  0  0  0  0  0  0  0  0  0  0
    8.8442   -1.4492   22.3470 N   0  0  0  0  0  0  0  0  0  0  0  0
    7.6280   -2.0104   22.5600 C   0  0  0  0  0  0  0  0  0  0  0  0
    7.4350   -2.9768   23.6434 C   0  0  0  0  0  0  0  0  0  0  0  0
    8.4948   -3.3670   24.4905 C   0  0  0  0  0  0  0  0  0  0  0  0
    8.1917   -4.2835   25.4837 C   0  0  0  0  0  0  0  0  0  0  0  0
    9.1490   -4.6960   26.3216 F   0  0  0  0  0  0  0  0  0  0  0  0
    6.8913   -4.7856   25.6212 C   0  0  0  0  0  0  0  0  0  0  0  0
    5.8937   -4.4105   24.8153 N   0  0  0  0  0  0  0  0  0  0  0  0
    6.1591   -3.5206   23.8539 C   0  0  0  0  0  0  0  0  0  0  0  0
    5.3178   -3.2436   23.2267 H   0  0  0  0  0  0  0  0  0  0  0  0
    6.6667   -5.5062   26.4052 H   0  0  0  0  0  0  0  0  0  0  0  0
    9.5140   -2.9814   24.3967 H   0  0  0  0  0  0  0  0  0  0  0  0
    6.6703   -1.5762   21.7562 N   0  0  0  0  0  0  0  0  0  0  0  0
    7.3243   -0.6971   20.9490 N   0  0  0  0  0  0  0  0  0  0  0  0
    6.6458   -0.0060   19.9063 C   0  0  0  0  0  0  0  0  0  0  0  0
    5.4363    0.6436   20.1668 C   0  0  0  0  0  0  0  0  0  0  0  0
    4.8129    1.3125   19.1100 C   0  0  0  0  0  0  0  0  0  0  0  0
    5.3988    1.2965   17.8389 C   0  0  0  0  0  0  0  0  0  0  0  0
    6.5553    0.6678   17.5794 N   0  0  0  0  0  0  0  0  0  0  0  0
    7.1621    0.0436   18.5954 C   0  0  0  0  0  0  0  0  0  0  0  0
    8.1113   -0.4323   18.3618 H   0  0  0  0  0  0  0  0  0  0  0  0
    4.9220    1.7873   16.9935 H   0  0  0  0  0  0  0  0  0  0  0  0
    3.8813    1.8398   19.2616 H   0  0  0  0  0  0  0  0  0  0  0  0
    5.0095    0.6093   21.1736 H   0  0  0  0  0  0  0  0  0  0  0  0
   10.2309   -0.3826   20.1376 H   0  0  0  0  0  0  0  0  0  0  0  0
    9.1647    1.0325   20.1015 H   0  0  0  0  0  0  0  0  0  0  0  0
   12.1419   -0.3590   21.4666 H   0  0  0  0  0  0  0  0  0  0  0  0
   13.5788    0.6816   23.2336 H   0  0  0  0  0  0  0  0  0  0  0  0
   12.6603    2.5532   24.5445 H   0  0  0  0  0  0  0  0  0  0  0  0
   10.3902    3.4367   24.1421 H   0  0  0  0  0  0  0  0  0  0  0  0
    8.6506    3.6751   22.0400 H   0  0  0  0  0  0  0  0  0  0  0  0
    7.9874    2.0858   21.6265 H   0  0  0  0  0  0  0  0  0  0  0  0
    8.0814    0.6715   24.0819 H   0  0  0  0  0  0  0  0  0  0  0  0
    6.8273    1.6026   24.9583 H   0  0  0  0  0  0  0  0  0  0  0  0
    6.5628    1.1021   23.2613 H   0  0  0  0  0  0  0  0  0  0  0  0
  1  2  1  0
  2  3  1  0
  3  4  1  0
  4  5  2  0
  5  6  1  0
  6  7  2  0
  7  8  1  0
  8  9  2  0
  9 10  1  0
 10 11  1  0
 11 12  2  0
 12 13  1  0
 13 14  1  0
 14 15  2  0
 15 16  1  0
 16 17  1  0
 16 18  2  0
 18 19  1  0
 19 20  2  0
 20 21  1  0
 18 22  1  0
 15 23  1  0
 13 24  2  0
 24 25  1  0
 25 26  1  0
 26 27  2  0
 27 28  1  0
 28 29  2  0
 29 30  1  0
 30 31  2  0
 31 32  1  0
 29 33  1  0
 28 34  1  0
 27 35  1  0
 10 36  1  0
 10 37  1  0
  8 38  1  0
  7 39  1  0
  6 40  1  0
  5 41  1  0
  3 42  1  0
  3 43  1  0
  1 44  1  0
  1 45  1  0
  1 46  1  0
  9  4  1  0
 25 11  1  0
 31 26  1  0
 20 14  1  0
M  END
>  <cnnaffinity>  (1) 
-6.358

>  <filename>  (1) 
COCc1ccccc1Cc1nc(-c2cncc(F)c2)nn1-c1cccnc1

$$$$
