
     RDKit          3D

 40 42  0  0  0  0  0  0  0  0999 V2000
    8.3774   -6.4090   22.9531 C   0  0  0  0  0  0  0  0  0  0  0  0
    8.4429   -5.2459   23.7433 O   0  0  0  0  0  0  0  0  0  0  0  0
    7.7810   -4.1092   23.2419 C   0  0  0  0  0  0  0  0  0  0  0  0
    8.7792   -3.2282   22.4923 C   0  0  0  0  0  0  0  0  0  0  0  0
    8.1785   -1.9256   22.1499 C   0  0  0  0  0  0  0  0  0  0  0  0
    7.8703   -1.0233   23.0545 N   0  0  0  0  0  0  0  0  0  0  0  0
    7.2257   -0.0760   22.3246 N   0  0  0  0  0  0  0  0  0  0  0  0
    6.8400    1.1520   22.9483 C   0  0  0  0  0  0  0  0  0  0  0  0
    5.9617    1.0938   24.0338 C   0  0  0  0  0  0  0  0  0  0  0  0
    5.4943    2.2759   24.6102 C   0  0  0  0  0  0  0  0  0  0  0  0
    5.9044    3.5099   24.0981 C   0  0  0  0  0  0  0  0  0  0  0  0
    6.8307    3.5400   23.0533 C   0  0  0  0  0  0  0  0  0  0  0  0
    7.3593    5.1063   22.4883 Cl  0  0  0  0  0  0  0  0  0  0  0  0
    7.3777    2.3783   22.4823 C   0  0  0  0  0  0  0  0  0  0  0  0
    8.5255    2.4083   21.4969 C   0  0  0  0  0  0  0  0  0  0  0  0
    8.9890    3.3937   21.4465 H   0  0  0  0  0  0  0  0  0  0  0  0
    8.1839    2.1296   20.4947 H   0  0  0  0  0  0  0  0  0  0  0  0
    9.2862    1.6770   21.7888 H   0  0  0  0  0  0  0  0  0  0  0  0
    5.5445    4.4494   24.5058 H   0  0  0  0  0  0  0  0  0  0  0  0
    4.8263    2.2335   25.4667 H   0  0  0  0  0  0  0  0  0  0  0  0
    5.6665    0.1196   24.4135 H   0  0  0  0  0  0  0  0  0  0  0  0
    7.1780   -0.4776   21.0169 C   0  0  0  0  0  0  0  0  0  0  0  0
    6.5142    0.2031   19.8990 C   0  0  0  0  0  0  0  0  0  0  0  0
    5.3342    0.9520   20.0227 C   0  0  0  0  0  0  0  0  0  0  0  0
    4.7788    1.5074   18.8723 C   0  0  0  0  0  0  0  0  0  0  0  0
    5.4151    1.3060   17.6433 C   0  0  0  0  0  0  0  0  0  0  0  0
    6.5311    0.5714   17.5072 N   0  0  0  0  0  0  0  0  0  0  0  0
    7.0533    0.0353   18.6122 C   0  0  0  0  0  0  0  0  0  0  0  0
    7.9601   -0.5444   18.4548 H   0  0  0  0  0  0  0  0  0  0  0  0
    5.0165    1.7552   16.7346 H   0  0  0  0  0  0  0  0  0  0  0  0
    3.8756    2.1050   18.9230 H   0  0  0  0  0  0  0  0  0  0  0  0
    4.8615    1.0691   20.9986 H   0  0  0  0  0  0  0  0  0  0  0  0
    7.7858   -1.6405   20.8849 N   0  0  0  0  0  0  0  0  0  0  0  0
    9.6781   -3.1131   23.1050 H   0  0  0  0  0  0  0  0  0  0  0  0
    9.0534   -3.6933   21.5504 H   0  0  0  0  0  0  0  0  0  0  0  0
    6.9202   -4.3710   22.5996 H   0  0  0  0  0  0  0  0  0  0  0  0
    7.3842   -3.5417   24.0921 H   0  0  0  0  0  0  0  0  0  0  0  0
    8.6607   -6.2296   21.9051 H   0  0  0  0  0  0  0  0  0  0  0  0
    9.0998   -7.1103   23.3806 H   0  0  0  0  0  0  0  0  0  0  0  0
    7.3657   -6.8477   22.9629 H   0  0  0  0  0  0  0  0  0  0  0  0
  1  2  1  0
  2  3  1  0
  3  4  1  0
  4  5  1  0
  5  6  2  0
  6  7  1  0
  7  8  1  0
  8  9  2  0
  9 10  1  0
 10 11  2  0
 11 12  1  0
 12 13  1  0
 12 14  2  0
 14 15  1  0
 15 16  1  0
 15 17  1  0
 15 18  1  0
 11 19  1  0
 10 20  1  0
  9 21  1  0
  7 22  1  0
 22 23  1  0
 23 24  2  0
 24 25  1  0
 25 26  2  0
 26 27  1  0
 27 28  2  0
 28 29  1  0
 26 30  1  0
 25 31  1  0
 24 32  1  0
 22 33  2  0
  4 34  1  0
  4 35  1  0
  3 36  1  0
  3 37  1  0
  1 38  1  0
  1 39  1  0
  1 40  1  0
 33  5  1  0
 14  8  1  0
 28 23  1  0
M  END
>  <cnnaffinity>  (1) 
-5.55778

>  <filename>  (1) 
COCCc1nc(-c2cccnc2)n(-c2cccc(Cl)c2C)n1

$$$$
