
     RDKit          3D

 40 42  0  0  0  0  0  0  0  0999 V2000
    8.1223   -6.4686   22.3788 C   0  0  0  0  0  0  0  0  0  0  0  0
    8.0969   -5.5327   23.4307 O   0  0  0  0  0  0  0  0  0  0  0  0
    7.5793   -4.2665   23.0870 C   0  0  0  0  0  0  0  0  0  0  0  0
    8.6092   -3.5096   22.2476 C   0  0  0  0  0  0  0  0  0  0  0  0
    8.1920   -2.1283   21.9538 C   0  0  0  0  0  0  0  0  0  0  0  0
    7.7627   -1.7869   20.7616 N   0  0  0  0  0  0  0  0  0  0  0  0
    7.3070   -0.5274   20.9564 N   0  0  0  0  0  0  0  0  0  0  0  0
    6.6160    0.1062   19.9041 C   0  0  0  0  0  0  0  0  0  0  0  0
    5.3900    0.7416   20.1120 C   0  0  0  0  0  0  0  0  0  0  0  0
    4.7891    1.3608   19.0167 C   0  0  0  0  0  0  0  0  0  0  0  0
    5.4252    1.3120   17.7699 C   0  0  0  0  0  0  0  0  0  0  0  0
    6.5767    0.6473   17.5593 N   0  0  0  0  0  0  0  0  0  0  0  0
    7.1407    0.0370   18.6008 C   0  0  0  0  0  0  0  0  0  0  0  0
    8.0493   -0.5342   18.4197 H   0  0  0  0  0  0  0  0  0  0  0  0
    4.9883    1.8086   16.9088 H   0  0  0  0  0  0  0  0  0  0  0  0
    3.8399    1.8709   19.1193 H   0  0  0  0  0  0  0  0  0  0  0  0
    4.9183    0.7159   21.0964 H   0  0  0  0  0  0  0  0  0  0  0  0
    7.5434   -0.1578   22.2534 C   0  0  0  0  0  0  0  0  0  0  0  0
    7.3033    1.2021   22.8500 C   0  0  0  0  0  0  0  0  0  0  0  0
    8.5790    1.7255   23.4953 C   0  0  0  0  0  0  0  0  0  0  0  0
    9.6420    2.1858   22.6952 C   0  0  0  0  0  0  0  0  0  0  0  0
    9.4513    2.1893   20.9853 Cl  0  0  0  0  0  0  0  0  0  0  0  0
   10.8655    2.5774   23.2668 C   0  0  0  0  0  0  0  0  0  0  0  0
   12.1700    3.2123   22.3150 Cl  0  0  0  0  0  0  0  0  0  0  0  0
   11.0528    2.4250   24.6406 C   0  0  0  0  0  0  0  0  0  0  0  0
   10.0110    1.9527   25.4381 C   0  0  0  0  0  0  0  0  0  0  0  0
    8.7779    1.6176   24.8756 C   0  0  0  0  0  0  0  0  0  0  0  0
    7.9699    1.2503   25.5099 H   0  0  0  0  0  0  0  0  0  0  0  0
   10.1722    1.8153   26.4952 H   0  0  0  0  0  0  0  0  0  0  0  0
   12.0193    2.6651   25.0695 H   0  0  0  0  0  0  0  0  0  0  0  0
    6.5119    1.1143   23.6023 H   0  0  0  0  0  0  0  0  0  0  0  0
    6.9626    1.9070   22.0833 H   0  0  0  0  0  0  0  0  0  0  0  0
    8.0866   -1.1687   22.9051 N   0  0  0  0  0  0  0  0  0  0  0  0
    8.7212   -4.0128   21.2867 H   0  0  0  0  0  0  0  0  0  0  0  0
    9.5573   -3.5249   22.7900 H   0  0  0  0  0  0  0  0  0  0  0  0
    7.3936   -3.7347   24.0275 H   0  0  0  0  0  0  0  0  0  0  0  0
    6.6189   -4.3526   22.5483 H   0  0  0  0  0  0  0  0  0  0  0  0
    7.1297   -6.9016   22.1880 H   0  0  0  0  0  0  0  0  0  0  0  0
    8.8063   -7.2674   22.6773 H   0  0  0  0  0  0  0  0  0  0  0  0
    8.4811   -6.0326   21.4334 H   0  0  0  0  0  0  0  0  0  0  0  0
  1  2  1  0
  2  3  1  0
  3  4  1  0
  4  5  1  0
  5  6  2  0
  6  7  1  0
  7  8  1  0
  8  9  2  0
  9 10  1  0
 10 11  2  0
 11 12  1  0
 12 13  2  0
 13 14  1  0
 11 15  1  0
 10 16  1  0
  9 17  1  0
  7 18  1  0
 18 19  1  0
 19 20  1  0
 20 21  2  0
 21 22  1  0
 21 23  1  0
 23 24  1  0
 23 25  2  0
 25 26  1  0
 26 27  2  0
 27 28  1  0
 26 29  1  0
 25 30  1  0
 19 31  1  0
 19 32  1  0
 18 33  2  0
  4 34  1  0
  4 35  1  0
  3 36  1  0
  3 37  1  0
  1 38  1  0
  1 39  1  0
  1 40  1  0
 33  5  1  0
 13  8  1  0
 27 20  1  0
M  END
>  <cnnaffinity>  (1) 
-6.30416

>  <filename>  (1) 
COCCc1nc(Cc2cccc(Cl)c2Cl)n(-c2cccnc2)n1

$$$$
