
     RDKit          3D

 37 39  0  0  0  0  0  0  0  0999 V2000
    8.4683   -5.6437   23.3439 C   0  0  0  0  0  0  0  0  0  0  0  0
    7.9233   -4.3691   23.0814 O   0  0  0  0  0  0  0  0  0  0  0  0
    8.7514   -3.5536   22.2717 C   0  0  0  0  0  0  0  0  0  0  0  0
    8.1941   -2.1813   22.0102 C   0  0  0  0  0  0  0  0  0  0  0  0
    7.7099   -1.8762   20.8219 N   0  0  0  0  0  0  0  0  0  0  0  0
    7.3809   -0.5721   20.9462 N   0  0  0  0  0  0  0  0  0  0  0  0
    6.6547    0.0719   19.9077 C   0  0  0  0  0  0  0  0  0  0  0  0
    5.4235    0.6953   20.1437 C   0  0  0  0  0  0  0  0  0  0  0  0
    4.7991    1.3242   19.0619 C   0  0  0  0  0  0  0  0  0  0  0  0
    5.4190    1.2968   17.8099 C   0  0  0  0  0  0  0  0  0  0  0  0
    6.5682    0.6378   17.5698 N   0  0  0  0  0  0  0  0  0  0  0  0
    7.1586    0.0221   18.5983 C   0  0  0  0  0  0  0  0  0  0  0  0
    8.0750   -0.5316   18.3940 H   0  0  0  0  0  0  0  0  0  0  0  0
    4.9833    1.8235   16.9649 H   0  0  0  0  0  0  0  0  0  0  0  0
    3.8599    1.8482   19.1937 H   0  0  0  0  0  0  0  0  0  0  0  0
    4.9619    0.6559   21.1324 H   0  0  0  0  0  0  0  0  0  0  0  0
    7.7425   -0.1408   22.1916 C   0  0  0  0  0  0  0  0  0  0  0  0
    7.7080    1.2971   22.5956 C   0  0  0  0  0  0  0  0  0  0  0  0
    8.7059    2.1961   21.8042 C   0  0  0  0  0  0  0  0  0  0  0  0
    8.6581    3.6258   22.2215 C   0  0  0  0  0  0  0  0  0  0  0  0
    9.4001    4.1948   23.1381 N   0  0  0  0  0  0  0  0  0  0  0  0
    8.9172    5.4740   23.2572 C   0  0  0  0  0  0  0  0  0  0  0  0
    7.8777    5.6881   22.3988 C   0  0  0  0  0  0  0  0  0  0  0  0
    7.7198    4.4862   21.7469 N   0  0  0  0  0  0  0  0  0  0  0  0
    7.0706    4.2560   21.0128 H   0  0  0  0  0  0  0  0  0  0  0  0
    7.2558    6.5447   22.1749 H   0  0  0  0  0  0  0  0  0  0  0  0
    9.3391    6.1559   23.9815 H   0  0  0  0  0  0  0  0  0  0  0  0
    8.5010    2.1375   20.7288 H   0  0  0  0  0  0  0  0  0  0  0  0
    9.7338    1.8582   21.9717 H   0  0  0  0  0  0  0  0  0  0  0  0
    7.9255    1.3446   23.6664 H   0  0  0  0  0  0  0  0  0  0  0  0
    6.6879    1.6723   22.4656 H   0  0  0  0  0  0  0  0  0  0  0  0
    8.2512   -1.1382   22.8814 N   0  0  0  0  0  0  0  0  0  0  0  0
    8.8373   -3.9922   21.2716 H   0  0  0  0  0  0  0  0  0  0  0  0
    9.7618   -3.4294   22.7048 H   0  0  0  0  0  0  0  0  0  0  0  0
    8.7511   -6.1790   22.4220 H   0  0  0  0  0  0  0  0  0  0  0  0
    7.6894   -6.2155   23.8482 H   0  0  0  0  0  0  0  0  0  0  0  0
    9.3412   -5.5883   24.0130 H   0  0  0  0  0  0  0  0  0  0  0  0
  1  2  1  0
  2  3  1  0
  3  4  1  0
  4  5  2  0
  5  6  1  0
  6  7  1  0
  7  8  2  0
  8  9  1  0
  9 10  2  0
 10 11  1  0
 11 12  2  0
 12 13  1  0
 10 14  1  0
  9 15  1  0
  8 16  1  0
  6 17  1  0
 17 18  1  0
 18 19  1  0
 19 20  1  0
 20 21  2  0
 21 22  1  0
 22 23  2  0
 23 24  1  0
 24 25  1  0
 23 26  1  0
 22 27  1  0
 19 28  1  0
 19 29  1  0
 18 30  1  0
 18 31  1  0
 17 32  2  0
  3 33  1  0
  3 34  1  0
  1 35  1  0
  1 36  1  0
  1 37  1  0
 32  4  1  0
 12  7  1  0
 24 20  1  0
M  END
>  <cnnaffinity>  (1) 
-5.31717

>  <filename>  (1) 
COCc1nc(CCc2ncc[nH]2)n(-c2cccnc2)n1

$$$$
