
     RDKit          3D

 48 51  0  0  0  0  0  0  0  0999 V2000
   10.4932    0.6415   25.1275 C   0  0  0  0  0  0  0  0  0  0  0  0
   10.3715    1.7388   24.2326 O   0  0  0  0  0  0  0  0  0  0  0  0
   11.4379    1.9411   23.3175 C   0  0  0  0  0  0  0  0  0  0  0  0
   11.9314    0.6871   22.6347 C   0  0  0  0  0  0  0  0  0  0  0  0
   13.2506    0.2678   22.8862 C   0  0  0  0  0  0  0  0  0  0  0  0
   13.7490   -0.8962   22.3022 C   0  0  0  0  0  0  0  0  0  0  0  0
   12.9217   -1.6531   21.4774 C   0  0  0  0  0  0  0  0  0  0  0  0
   11.5818   -1.2917   21.3044 C   0  0  0  0  0  0  0  0  0  0  0  0
   11.0666   -0.1102   21.8503 C   0  0  0  0  0  0  0  0  0  0  0  0
    9.6074    0.2530   21.5584 C   0  0  0  0  0  0  0  0  0  0  0  0
    8.5932   -0.8218   21.8489 C   0  0  0  0  0  0  0  0  0  0  0  0
    8.6009   -1.6685   22.8680 N   0  0  0  0  0  0  0  0  0  0  0  0
    7.4652   -2.3893   22.6993 C   0  0  0  0  0  0  0  0  0  0  0  0
    7.0483   -3.4346   23.6935 C   0  0  0  0  0  0  0  0  0  0  0  0
    6.6584   -4.8017   23.0784 C   0  0  0  0  0  0  0  0  0  0  0  0
    5.1988   -4.5647   22.6627 C   0  0  0  0  0  0  0  0  0  0  0  0
    4.6985   -3.5679   23.5395 O   0  0  0  0  0  0  0  0  0  0  0  0
    5.7170   -3.0532   24.3738 C   0  0  0  0  0  0  0  0  0  0  0  0
    5.6558   -3.4889   25.3852 H   0  0  0  0  0  0  0  0  0  0  0  0
    5.5680   -1.9728   24.4728 H   0  0  0  0  0  0  0  0  0  0  0  0
    5.1481   -4.1928   21.6314 H   0  0  0  0  0  0  0  0  0  0  0  0
    4.5660   -5.4590   22.7439 H   0  0  0  0  0  0  0  0  0  0  0  0
    7.2934   -5.1090   22.2408 H   0  0  0  0  0  0  0  0  0  0  0  0
    6.7210   -5.5854   23.8470 H   0  0  0  0  0  0  0  0  0  0  0  0
    7.8686   -3.5020   24.4076 H   0  0  0  0  0  0  0  0  0  0  0  0
    6.7376   -2.0353   21.6562 N   0  0  0  0  0  0  0  0  0  0  0  0
    7.4512   -1.0188   21.1075 N   0  0  0  0  0  0  0  0  0  0  0  0
    6.8752   -0.2898   20.0109 C   0  0  0  0  0  0  0  0  0  0  0  0
    5.7279    0.4909   20.2000 C   0  0  0  0  0  0  0  0  0  0  0  0
    5.2052    1.1804   19.1013 C   0  0  0  0  0  0  0  0  0  0  0  0
    5.8144    1.0274   17.8504 C   0  0  0  0  0  0  0  0  0  0  0  0
    6.9004    0.2675   17.6551 N   0  0  0  0  0  0  0  0  0  0  0  0
    7.4176   -0.3679   18.7156 C   0  0  0  0  0  0  0  0  0  0  0  0
    8.3071   -0.9697   18.5292 H   0  0  0  0  0  0  0  0  0  0  0  0
    5.4091    1.5283   16.9734 H   0  0  0  0  0  0  0  0  0  0  0  0
    4.3495    1.8381   19.2067 H   0  0  0  0  0  0  0  0  0  0  0  0
    5.2579    0.5524   21.1825 H   0  0  0  0  0  0  0  0  0  0  0  0
    9.5049    0.4991   20.4966 H   0  0  0  0  0  0  0  0  0  0  0  0
    9.2995    1.1362   22.1256 H   0  0  0  0  0  0  0  0  0  0  0  0
   10.8973   -1.9449   20.7741 H   0  0  0  0  0  0  0  0  0  0  0  0
   13.3202   -2.5267   20.9784 H   0  0  0  0  0  0  0  0  0  0  0  0
   14.7602   -1.2438   22.4996 H   0  0  0  0  0  0  0  0  0  0  0  0
   13.8802    0.8479   23.5607 H   0  0  0  0  0  0  0  0  0  0  0  0
   12.2831    2.4310   23.8259 H   0  0  0  0  0  0  0  0  0  0  0  0
   11.0429    2.6620   22.5926 H   0  0  0  0  0  0  0  0  0  0  0  0
   11.5428    0.3549   25.3116 H   0  0  0  0  0  0  0  0  0  0  0  0
    9.9362   -0.2308   24.7484 H   0  0  0  0  0  0  0  0  0  0  0  0
   10.0493    0.9473   26.0781 H   0  0  0  0  0  0  0  0  0  0  0  0
  1  2  1  0
  2  3  1  0
  3  4  1  0
  4  5  2  0
  5  6  1  0
  6  7  2  0
  7  8  1  0
  8  9  2  0
  9 10  1  0
 10 11  1  0
 11 12  2  0
 12 13  1  0
 13 14  1  0
 14 15  1  0
 15 16  1  0
 16 17  1  0
 17 18  1  0
 18 19  1  0
 18 20  1  0
 16 21  1  0
 16 22  1  0
 15 23  1  0
 15 24  1  0
 14 25  1  0
 13 26  2  0
 26 27  1  0
 27 28  1  0
 28 29  2  0
 29 30  1  0
 30 31  2  0
 31 32  1  0
 32 33  2  0
 33 34  1  0
 31 35  1  0
 30 36  1  0
 29 37  1  0
 10 38  1  0
 10 39  1  0
  8 40  1  0
  7 41  1  0
  6 42  1  0
  5 43  1  0
  3 44  1  0
  3 45  1  0
  1 46  1  0
  1 47  1  0
  1 48  1  0
  9  4  1  0
 27 11  1  0
 33 28  1  0
 18 14  1  0
M  END
>  <cnnaffinity>  (1) 
-6.45207

>  <filename>  (1) 
COCc1ccccc1Cc1nc(C2CCOC2)nn1-c1cccnc1

$$$$
