
     RDKit          3D

 37 39  0  0  0  0  0  0  0  0999 V2000
    8.4723   -5.0019   22.7900 C   0  0  0  0  0  0  0  0  0  0  0  0
    7.2214   -4.4400   23.1449 O   0  0  0  0  0  0  0  0  0  0  0  0
    7.3400   -3.0948   23.5785 C   0  0  0  0  0  0  0  0  0  0  0  0
    7.5811   -2.0609   22.5075 C   0  0  0  0  0  0  0  0  0  0  0  0
    6.6452   -1.6224   21.6882 N   0  0  0  0  0  0  0  0  0  0  0  0
    7.2938   -0.6860   20.9554 N   0  0  0  0  0  0  0  0  0  0  0  0
    6.6381   -0.0081   19.8924 C   0  0  0  0  0  0  0  0  0  0  0  0
    5.4247    0.6357   20.1456 C   0  0  0  0  0  0  0  0  0  0  0  0
    4.7964    1.3138   19.0988 C   0  0  0  0  0  0  0  0  0  0  0  0
    5.3931    1.2960   17.8323 C   0  0  0  0  0  0  0  0  0  0  0  0
    6.5386    0.6489   17.5702 N   0  0  0  0  0  0  0  0  0  0  0  0
    7.1493    0.0202   18.5799 C   0  0  0  0  0  0  0  0  0  0  0  0
    8.0931   -0.4679   18.3366 H   0  0  0  0  0  0  0  0  0  0  0  0
    4.9361    1.8200   16.9963 H   0  0  0  0  0  0  0  0  0  0  0  0
    3.8679    1.8578   19.2514 H   0  0  0  0  0  0  0  0  0  0  0  0
    5.0096    0.5849   21.1521 H   0  0  0  0  0  0  0  0  0  0  0  0
    8.5833   -0.5869   21.3943 C   0  0  0  0  0  0  0  0  0  0  0  0
    9.6372    0.2844   20.7980 C   0  0  0  0  0  0  0  0  0  0  0  0
   10.3826    1.0820   21.8456 C   0  0  0  0  0  0  0  0  0  0  0  0
    9.7728    2.1713   22.4992 C   0  0  0  0  0  0  0  0  0  0  0  0
    8.1755    2.6771   22.0356 Cl  0  0  0  0  0  0  0  0  0  0  0  0
   10.4394    2.8103   23.5576 C   0  0  0  0  0  0  0  0  0  0  0  0
    9.7432    4.1351   24.4346 Cl  0  0  0  0  0  0  0  0  0  0  0  0
   11.6983    2.3598   23.9642 C   0  0  0  0  0  0  0  0  0  0  0  0
   12.3200    1.2957   23.3093 C   0  0  0  0  0  0  0  0  0  0  0  0
   11.6546    0.6636   22.2548 C   0  0  0  0  0  0  0  0  0  0  0  0
   12.1040   -0.1870   21.7437 H   0  0  0  0  0  0  0  0  0  0  0  0
   13.3003    0.9470   23.6260 H   0  0  0  0  0  0  0  0  0  0  0  0
   12.1404    2.8560   24.8151 H   0  0  0  0  0  0  0  0  0  0  0  0
   10.3217   -0.3890   20.2704 H   0  0  0  0  0  0  0  0  0  0  0  0
    9.1887    0.9585   20.0674 H   0  0  0  0  0  0  0  0  0  0  0  0
    8.7899   -1.4492   22.3707 N   0  0  0  0  0  0  0  0  0  0  0  0
    8.1737   -2.9812   24.2867 H   0  0  0  0  0  0  0  0  0  0  0  0
    6.3996   -2.8425   24.0758 H   0  0  0  0  0  0  0  0  0  0  0  0
    9.0438   -5.3064   23.6814 H   0  0  0  0  0  0  0  0  0  0  0  0
    8.2782   -5.8832   22.1751 H   0  0  0  0  0  0  0  0  0  0  0  0
    9.0646   -4.2769   22.2158 H   0  0  0  0  0  0  0  0  0  0  0  0
  1  2  1  0
  2  3  1  0
  3  4  1  0
  4  5  2  0
  5  6  1  0
  6  7  1  0
  7  8  2  0
  8  9  1  0
  9 10  2  0
 10 11  1  0
 11 12  2  0
 12 13  1  0
 10 14  1  0
  9 15  1  0
  8 16  1  0
  6 17  1  0
 17 18  1  0
 18 19  1  0
 19 20  2  0
 20 21  1  0
 20 22  1  0
 22 23  1  0
 22 24  2  0
 24 25  1  0
 25 26  2  0
 26 27  1  0
 25 28  1  0
 24 29  1  0
 18 30  1  0
 18 31  1  0
 17 32  2  0
  3 33  1  0
  3 34  1  0
  1 35  1  0
  1 36  1  0
  1 37  1  0
 32  4  1  0
 12  7  1  0
 26 19  1  0
M  END
>  <cnnaffinity>  (1) 
-6.05163

>  <filename>  (1) 
COCc1nc(Cc2cccc(Cl)c2Cl)n(-c2cccnc2)n1

$$$$
