
     RDKit          3D

 39 41  0  0  0  0  0  0  0  0999 V2000
    8.1116   -6.4869   22.3558 C   0  0  0  0  0  0  0  0  0  0  0  0
    8.1094   -5.5516   23.4075 O   0  0  0  0  0  0  0  0  0  0  0  0
    7.5920   -4.2835   23.0673 C   0  0  0  0  0  0  0  0  0  0  0  0
    8.6265   -3.5242   22.2358 C   0  0  0  0  0  0  0  0  0  0  0  0
    8.2121   -2.1394   21.9458 C   0  0  0  0  0  0  0  0  0  0  0  0
    7.7419   -1.8055   20.7698 N   0  0  0  0  0  0  0  0  0  0  0  0
    7.3125   -0.5355   20.9612 N   0  0  0  0  0  0  0  0  0  0  0  0
    6.6174    0.1005   19.9064 C   0  0  0  0  0  0  0  0  0  0  0  0
    5.3909    0.7348   20.1174 C   0  0  0  0  0  0  0  0  0  0  0  0
    4.7874    1.3564   19.0226 C   0  0  0  0  0  0  0  0  0  0  0  0
    5.4186    1.3091   17.7758 C   0  0  0  0  0  0  0  0  0  0  0  0
    6.5710    0.6482   17.5605 N   0  0  0  0  0  0  0  0  0  0  0  0
    7.1398    0.0392   18.6012 C   0  0  0  0  0  0  0  0  0  0  0  0
    8.0510   -0.5282   18.4164 H   0  0  0  0  0  0  0  0  0  0  0  0
    4.9852    1.8126   16.9145 H   0  0  0  0  0  0  0  0  0  0  0  0
    3.8400    1.8707   19.1254 H   0  0  0  0  0  0  0  0  0  0  0  0
    4.9126    0.7016   21.0981 H   0  0  0  0  0  0  0  0  0  0  0  0
    7.5856   -0.1587   22.2504 C   0  0  0  0  0  0  0  0  0  0  0  0
    7.3385    1.1795   22.8888 C   0  0  0  0  0  0  0  0  0  0  0  0
    8.6075    1.7177   23.5272 C   0  0  0  0  0  0  0  0  0  0  0  0
    9.6503    2.2469   22.7542 C   0  0  0  0  0  0  0  0  0  0  0  0
    9.4677    2.3865   21.0452 Cl  0  0  0  0  0  0  0  0  0  0  0  0
   10.8620    2.6409   23.3351 C   0  0  0  0  0  0  0  0  0  0  0  0
   11.1015    2.4906   24.6441 N   0  0  0  0  0  0  0  0  0  0  0  0
   10.1269    1.9810   25.4104 C   0  0  0  0  0  0  0  0  0  0  0  0
    8.8794    1.6220   24.8948 C   0  0  0  0  0  0  0  0  0  0  0  0
    7.9322    1.1840   25.7391 F   0  0  0  0  0  0  0  0  0  0  0  0
   10.3303    1.8398   26.4639 H   0  0  0  0  0  0  0  0  0  0  0  0
   11.6497    3.0625   22.7155 H   0  0  0  0  0  0  0  0  0  0  0  0
    6.5641    1.0550   23.6535 H   0  0  0  0  0  0  0  0  0  0  0  0
    6.9855    1.8982   22.1399 H   0  0  0  0  0  0  0  0  0  0  0  0
    8.1462   -1.1702   22.8905 N   0  0  0  0  0  0  0  0  0  0  0  0
    8.7476   -4.0291   21.2738 H   0  0  0  0  0  0  0  0  0  0  0  0
    9.5665   -3.5321   22.7891 H   0  0  0  0  0  0  0  0  0  0  0  0
    6.6372   -4.3701   22.5178 H   0  0  0  0  0  0  0  0  0  0  0  0
    7.3964   -3.7578   24.0101 H   0  0  0  0  0  0  0  0  0  0  0  0
    8.4624   -6.0571   21.4049 H   0  0  0  0  0  0  0  0  0  0  0  0
    8.7873   -7.2972   22.6381 H   0  0  0  0  0  0  0  0  0  0  0  0
    7.1139   -6.9109   22.1769 H   0  0  0  0  0  0  0  0  0  0  0  0
  1  2  1  0
  2  3  1  0
  3  4  1  0
  4  5  1  0
  5  6  2  0
  6  7  1  0
  7  8  1  0
  8  9  2  0
  9 10  1  0
 10 11  2  0
 11 12  1  0
 12 13  2  0
 13 14  1  0
 11 15  1  0
 10 16  1  0
  9 17  1  0
  7 18  1  0
 18 19  1  0
 19 20  1  0
 20 21  2  0
 21 22  1  0
 21 23  1  0
 23 24  2  0
 24 25  1  0
 25 26  2  0
 26 27  1  0
 25 28  1  0
 23 29  1  0
 19 30  1  0
 19 31  1  0
 18 32  2  0
  4 33  1  0
  4 34  1  0
  3 35  1  0
  3 36  1  0
  1 37  1  0
  1 38  1  0
  1 39  1  0
 32  5  1  0
 13  8  1  0
 26 20  1  0
M  END
>  <cnnaffinity>  (1) 
-6.19702

>  <filename>  (1) 
COCCc1nc(Cc2c(F)cncc2Cl)n(-c2cccnc2)n1

$$$$
