
     RDKit          3D

 31 32  0  0  0  0  0  0  0  0999 V2000
    4.9570    1.8959   16.9573 H   0  0  0  0  0  0  0  0  0  0  0  0
    5.4424    1.3416   17.7592 C   0  0  0  0  0  0  0  0  0  0  0  0
    6.5972    0.7321   17.4439 N   0  0  0  0  0  0  0  0  0  0  0  0
    7.2399    0.0533   18.4048 C   0  0  0  0  0  0  0  0  0  0  0  0
    8.1738   -0.4218   18.1026 H   0  0  0  0  0  0  0  0  0  0  0  0
    6.7440   -0.0704   19.7220 C   0  0  0  0  0  0  0  0  0  0  0  0
    7.4056   -0.8065   20.7407 N   0  0  0  0  0  0  0  0  0  0  0  0
    8.7252   -0.5788   21.1732 C   0  0  0  0  0  0  0  0  0  0  0  0
    9.4069    0.1044   20.6992 H   0  0  0  0  0  0  0  0  0  0  0  0
    8.8908   -1.2957   22.2994 C   0  0  0  0  0  0  0  0  0  0  0  0
    9.9554   -1.3519   23.1519 N   0  0  0  0  0  0  0  0  0  0  0  0
   10.8192   -1.2157   22.6455 H   0  0  0  0  0  0  0  0  0  0  0  0
   10.0154   -2.3171   24.2355 C   0  0  0  0  0  0  0  0  0  0  0  0
   10.8360   -2.0072   24.8771 H   0  0  0  0  0  0  0  0  0  0  0  0
    9.1104   -2.2566   24.8553 H   0  0  0  0  0  0  0  0  0  0  0  0
   10.2623   -3.7492   23.7319 C   0  0  0  0  0  0  0  0  0  0  0  0
    9.4537   -4.0444   23.0374 H   0  0  0  0  0  0  0  0  0  0  0  0
   11.1968   -3.7211   23.1605 H   0  0  0  0  0  0  0  0  0  0  0  0
   10.4799   -4.6944   24.7582 O   0  0  0  0  0  0  0  0  0  0  0  0
    9.3327   -5.2750   25.3273 C   0  0  0  0  0  0  0  0  0  0  0  0
    9.6879   -5.9368   26.1170 H   0  0  0  0  0  0  0  0  0  0  0  0
    8.6572   -4.5392   25.7861 H   0  0  0  0  0  0  0  0  0  0  0  0
    8.7508   -5.8723   24.6073 H   0  0  0  0  0  0  0  0  0  0  0  0
    7.7214   -1.9455   22.5821 N   0  0  0  0  0  0  0  0  0  0  0  0
    7.5534   -2.6469   23.2748 H   0  0  0  0  0  0  0  0  0  0  0  0
    6.7718   -1.6909   21.6288 C   0  0  0  0  0  0  0  0  0  0  0  0
    5.6581   -2.1719   21.5956 O   0  0  0  0  0  0  0  0  0  0  0  0
    5.5290    0.5553   20.0304 C   0  0  0  0  0  0  0  0  0  0  0  0
    5.1326    0.4552   21.0398 H   0  0  0  0  0  0  0  0  0  0  0  0
    4.8743    1.2844   19.0369 C   0  0  0  0  0  0  0  0  0  0  0  0
    3.9452    1.8072   19.2419 H   0  0  0  0  0  0  0  0  0  0  0  0
  1  2  1  0
  2  3  2  0
  3  4  1  0
  4  5  1  0
  4  6  2  0
  6  7  1  0
  7  8  1  0
  8  9  1  0
  8 10  2  0
 10 11  1  0
 11 12  1  0
 11 13  1  0
 13 14  1  0
 13 15  1  0
 13 16  1  0
 16 17  1  0
 16 18  1  0
 16 19  1  0
 19 20  1  0
 20 21  1  0
 20 22  1  0
 20 23  1  0
 10 24  1  0
 24 25  1  0
 24 26  1  0
 26 27  2  0
  6 28  1  0
 28 29  1  0
 28 30  2  0
 30 31  1  0
 30  2  1  0
 26  7  1  0
M  END
>  <cnnaffinity>  (1) 
-4.6338

>  <filename>  (1) 
COCCNc1cn(-c2cccnc2)c(=O)[nH]1

$$$$
