
     RDKit          3D

 44 47  0  0  0  0  0  0  0  0999 V2000
   10.6800   -0.2160   25.1584 C   0  0  0  0  0  0  0  0  0  0  0  0
   10.5069    1.0856   24.6167 O   0  0  0  0  0  0  0  0  0  0  0  0
   11.6091    1.5756   23.8648 C   0  0  0  0  0  0  0  0  0  0  0  0
   12.0179    0.6638   22.7208 C   0  0  0  0  0  0  0  0  0  0  0  0
   13.3278    0.1498   22.6627 C   0  0  0  0  0  0  0  0  0  0  0  0
   13.6216   -0.9797   21.8903 C   0  0  0  0  0  0  0  0  0  0  0  0
   12.6099   -1.5618   21.1231 C   0  0  0  0  0  0  0  0  0  0  0  0
   11.3232   -1.0166   21.1360 C   0  0  0  0  0  0  0  0  0  0  0  0
   11.0297    0.1486   21.8549 C   0  0  0  0  0  0  0  0  0  0  0  0
    9.6287    0.7463   21.6988 C   0  0  0  0  0  0  0  0  0  0  0  0
    8.5664   -0.2906   21.9123 C   0  0  0  0  0  0  0  0  0  0  0  0
    8.5887   -1.0897   22.9532 N   0  0  0  0  0  0  0  0  0  0  0  0
    7.5769   -1.9628   22.7439 C   0  0  0  0  0  0  0  0  0  0  0  0
    7.3332   -3.1049   23.6546 C   0  0  0  0  0  0  0  0  0  0  0  0
    8.2488   -3.5557   24.5225 N   0  0  0  0  0  0  0  0  0  0  0  0
    7.6621   -4.5867   25.1252 N   0  0  0  0  0  0  0  0  0  0  0  0
    6.4024   -4.8244   24.6847 C   0  0  0  0  0  0  0  0  0  0  0  0
    6.1499   -3.8792   23.7244 C   0  0  0  0  0  0  0  0  0  0  0  0
    5.2613   -3.7131   23.1337 H   0  0  0  0  0  0  0  0  0  0  0  0
    5.8059   -5.6302   25.0901 H   0  0  0  0  0  0  0  0  0  0  0  0
    8.1938   -5.0934   25.8183 H   0  0  0  0  0  0  0  0  0  0  0  0
    6.8647   -1.6987   21.6557 N   0  0  0  0  0  0  0  0  0  0  0  0
    7.4953   -0.6186   21.1174 N   0  0  0  0  0  0  0  0  0  0  0  0
    6.8563    0.0543   20.0175 C   0  0  0  0  0  0  0  0  0  0  0  0
    5.6286    0.6973   20.2280 C   0  0  0  0  0  0  0  0  0  0  0  0
    4.9983    1.3068   19.1409 C   0  0  0  0  0  0  0  0  0  0  0  0
    5.6042    1.2371   17.8811 C   0  0  0  0  0  0  0  0  0  0  0  0
    6.7732    0.6164   17.6650 N   0  0  0  0  0  0  0  0  0  0  0  0
    7.3830    0.0450   18.7154 C   0  0  0  0  0  0  0  0  0  0  0  0
    8.3352   -0.4425   18.5070 H   0  0  0  0  0  0  0  0  0  0  0  0
    5.1209    1.6841   17.0129 H   0  0  0  0  0  0  0  0  0  0  0  0
    4.0523    1.8252   19.2623 H   0  0  0  0  0  0  0  0  0  0  0  0
    5.1838    0.7061   21.2235 H   0  0  0  0  0  0  0  0  0  0  0  0
    9.5248    1.1805   20.7021 H   0  0  0  0  0  0  0  0  0  0  0  0
    9.4535    1.5274   22.4419 H   0  0  0  0  0  0  0  0  0  0  0  0
   10.4979   -1.5218   20.6414 H   0  0  0  0  0  0  0  0  0  0  0  0
   12.8283   -2.4255   20.5069 H   0  0  0  0  0  0  0  0  0  0  0  0
   14.6150   -1.4220   21.9249 H   0  0  0  0  0  0  0  0  0  0  0  0
   14.1067    0.6165   23.2605 H   0  0  0  0  0  0  0  0  0  0  0  0
   12.4592    1.7454   24.5413 H   0  0  0  0  0  0  0  0  0  0  0  0
   11.2885    2.5606   23.5056 H   0  0  0  0  0  0  0  0  0  0  0  0
   11.6226   -0.3097   25.7153 H   0  0  0  0  0  0  0  0  0  0  0  0
    9.8357   -0.3958   25.8312 H   0  0  0  0  0  0  0  0  0  0  0  0
   10.6637   -1.0037   24.3952 H   0  0  0  0  0  0  0  0  0  0  0  0
  1  2  1  0
  2  3  1  0
  3  4  1  0
  4  5  2  0
  5  6  1  0
  6  7  2  0
  7  8  1  0
  8  9  2  0
  9 10  1  0
 10 11  1  0
 11 12  2  0
 12 13  1  0
 13 14  1  0
 14 15  2  0
 15 16  1  0
 16 17  1  0
 17 18  2  0
 18 19  1  0
 17 20  1  0
 16 21  1  0
 13 22  2  0
 22 23  1  0
 23 24  1  0
 24 25  2  0
 25 26  1  0
 26 27  2  0
 27 28  1  0
 28 29  2  0
 29 30  1  0
 27 31  1  0
 26 32  1  0
 25 33  1  0
 10 34  1  0
 10 35  1  0
  8 36  1  0
  7 37  1  0
  6 38  1  0
  5 39  1  0
  3 40  1  0
  3 41  1  0
  1 42  1  0
  1 43  1  0
  1 44  1  0
  9  4  1  0
 23 11  1  0
 29 24  1  0
 18 14  1  0
M  END
>  <cnnaffinity>  (1) 
-6.33325

>  <filename>  (1) 
COCc1ccccc1Cc1nc(-c2cc[nH]n2)nn1-c1cccnc1

$$$$
