
     RDKit          3D

 37 39  0  0  0  0  0  0  0  0999 V2000
    8.3991   -5.5880   23.3300 C   0  0  0  0  0  0  0  0  0  0  0  0
    7.8424   -4.2978   23.2189 O   0  0  0  0  0  0  0  0  0  0  0  0
    8.5933   -3.4687   22.3587 C   0  0  0  0  0  0  0  0  0  0  0  0
    7.9400   -2.1583   22.0548 C   0  0  0  0  0  0  0  0  0  0  0  0
    7.6754   -1.2374   22.9616 N   0  0  0  0  0  0  0  0  0  0  0  0
    7.2235   -0.1993   22.2227 N   0  0  0  0  0  0  0  0  0  0  0  0
    7.0983    1.1150   22.8637 C   0  0  0  0  0  0  0  0  0  0  0  0
    8.3990    1.5794   23.5053 C   0  0  0  0  0  0  0  0  0  0  0  0
    9.5088    1.9391   22.7222 C   0  0  0  0  0  0  0  0  0  0  0  0
    9.2930    2.0822   21.0186 Cl  0  0  0  0  0  0  0  0  0  0  0  0
   10.7668    2.1675   23.3092 C   0  0  0  0  0  0  0  0  0  0  0  0
   12.1588    2.5635   22.3577 Cl  0  0  0  0  0  0  0  0  0  0  0  0
   10.9189    2.0457   24.6927 C   0  0  0  0  0  0  0  0  0  0  0  0
    9.8199    1.7092   25.4796 C   0  0  0  0  0  0  0  0  0  0  0  0
    8.5652    1.5221   24.8948 C   0  0  0  0  0  0  0  0  0  0  0  0
    7.7085    1.3247   25.5357 H   0  0  0  0  0  0  0  0  0  0  0  0
    9.9587    1.5370   26.5375 H   0  0  0  0  0  0  0  0  0  0  0  0
   11.9018    2.2130   25.1241 H   0  0  0  0  0  0  0  0  0  0  0  0
    6.7768    1.8279   22.1067 H   0  0  0  0  0  0  0  0  0  0  0  0
    6.3135    1.0349   23.6166 H   0  0  0  0  0  0  0  0  0  0  0  0
    7.2076   -0.5627   20.9056 C   0  0  0  0  0  0  0  0  0  0  0  0
    6.5714    0.1937   19.8300 C   0  0  0  0  0  0  0  0  0  0  0  0
    5.3475    0.8700   19.9789 C   0  0  0  0  0  0  0  0  0  0  0  0
    4.7731    1.4572   18.8534 C   0  0  0  0  0  0  0  0  0  0  0  0
    5.4480    1.3668   17.6304 C   0  0  0  0  0  0  0  0  0  0  0  0
    6.6174    0.7256   17.4770 N   0  0  0  0  0  0  0  0  0  0  0  0
    7.1503    0.1415   18.5543 C   0  0  0  0  0  0  0  0  0  0  0  0
    8.0814   -0.4030   18.4008 H   0  0  0  0  0  0  0  0  0  0  0  0
    5.0378    1.8269   16.7331 H   0  0  0  0  0  0  0  0  0  0  0  0
    3.8357    1.9987   18.9122 H   0  0  0  0  0  0  0  0  0  0  0  0
    4.8454    0.9098   20.9483 H   0  0  0  0  0  0  0  0  0  0  0  0
    7.7113   -1.7728   20.7702 N   0  0  0  0  0  0  0  0  0  0  0  0
    8.7260   -3.9469   21.3796 H   0  0  0  0  0  0  0  0  0  0  0  0
    9.6031   -3.2650   22.7637 H   0  0  0  0  0  0  0  0  0  0  0  0
    7.6298   -6.2274   23.7613 H   0  0  0  0  0  0  0  0  0  0  0  0
    9.2796   -5.5887   23.9896 H   0  0  0  0  0  0  0  0  0  0  0  0
    8.6853   -5.9909   22.3437 H   0  0  0  0  0  0  0  0  0  0  0  0
  1  2  1  0
  2  3  1  0
  3  4  1  0
  4  5  2  0
  5  6  1  0
  6  7  1  0
  7  8  1  0
  8  9  2  0
  9 10  1  0
  9 11  1  0
 11 12  1  0
 11 13  2  0
 13 14  1  0
 14 15  2  0
 15 16  1  0
 14 17  1  0
 13 18  1  0
  7 19  1  0
  7 20  1  0
  6 21  1  0
 21 22  1  0
 22 23  2  0
 23 24  1  0
 24 25  2  0
 25 26  1  0
 26 27  2  0
 27 28  1  0
 25 29  1  0
 24 30  1  0
 23 31  1  0
 21 32  2  0
  3 33  1  0
  3 34  1  0
  1 35  1  0
  1 36  1  0
  1 37  1  0
 32  4  1  0
 15  8  1  0
 27 22  1  0
M  END
>  <cnnaffinity>  (1) 
-5.73074

>  <filename>  (1) 
COCc1nc(-c2cccnc2)n(Cc2cccc(Cl)c2Cl)n1

$$$$
