
     RDKit          3D

 40 42  0  0  0  0  0  0  0  0999 V2000
    8.4022   -5.6704   23.1877 C   0  0  0  0  0  0  0  0  0  0  0  0
    7.8789   -4.3923   22.9136 O   0  0  0  0  0  0  0  0  0  0  0  0
    8.8290   -3.5513   22.2877 C   0  0  0  0  0  0  0  0  0  0  0  0
    8.3033   -2.2000   21.9752 C   0  0  0  0  0  0  0  0  0  0  0  0
    7.7675   -1.9516   20.7924 N   0  0  0  0  0  0  0  0  0  0  0  0
    7.3644   -0.6713   20.9114 N   0  0  0  0  0  0  0  0  0  0  0  0
    6.6479    0.0006   19.8920 C   0  0  0  0  0  0  0  0  0  0  0  0
    5.4386    0.6501   20.1608 C   0  0  0  0  0  0  0  0  0  0  0  0
    4.8046    1.3067   19.1033 C   0  0  0  0  0  0  0  0  0  0  0  0
    5.4018    1.2921   17.8397 C   0  0  0  0  0  0  0  0  0  0  0  0
    6.5689    0.6731   17.5857 N   0  0  0  0  0  0  0  0  0  0  0  0
    7.1728    0.0383   18.5920 C   0  0  0  0  0  0  0  0  0  0  0  0
    8.1230   -0.4452   18.3793 H   0  0  0  0  0  0  0  0  0  0  0  0
    4.9220    1.7817   16.9968 H   0  0  0  0  0  0  0  0  0  0  0  0
    3.8758    1.8416   19.2595 H   0  0  0  0  0  0  0  0  0  0  0  0
    5.0075    0.6303   21.1642 H   0  0  0  0  0  0  0  0  0  0  0  0
    7.7624   -0.2003   22.1263 C   0  0  0  0  0  0  0  0  0  0  0  0
    7.5706    1.1632   22.6522 C   0  0  0  0  0  0  0  0  0  0  0  0
    6.5738    1.2023   23.8268 C   0  0  0  0  0  0  0  0  0  0  0  0
    6.5093    2.5842   24.4209 C   0  0  0  0  0  0  0  0  0  0  0  0
    7.4061    3.0018   25.4261 C   0  0  0  0  0  0  0  0  0  0  0  0
    8.6148    1.9030   26.0395 Cl  0  0  0  0  0  0  0  0  0  0  0  0
    7.3875    4.2874   25.9642 C   0  0  0  0  0  0  0  0  0  0  0  0
    6.4619    5.2107   25.4796 C   0  0  0  0  0  0  0  0  0  0  0  0
    5.5778    4.8601   24.4613 C   0  0  0  0  0  0  0  0  0  0  0  0
    5.6194    3.5663   23.9437 C   0  0  0  0  0  0  0  0  0  0  0  0
    4.5042    3.1969   22.6534 Cl  0  0  0  0  0  0  0  0  0  0  0  0
    4.8585    5.5689   24.0646 H   0  0  0  0  0  0  0  0  0  0  0  0
    6.4329    6.2115   25.8942 H   0  0  0  0  0  0  0  0  0  0  0  0
    8.0900    4.5468   26.7487 H   0  0  0  0  0  0  0  0  0  0  0  0
    5.5781    0.8969   23.4832 H   0  0  0  0  0  0  0  0  0  0  0  0
    6.8815    0.4788   24.5889 H   0  0  0  0  0  0  0  0  0  0  0  0
    8.5530    1.5049   22.9873 H   0  0  0  0  0  0  0  0  0  0  0  0
    7.2581    1.8385   21.8555 H   0  0  0  0  0  0  0  0  0  0  0  0
    8.3648   -1.1453   22.8144 N   0  0  0  0  0  0  0  0  0  0  0  0
    9.7422   -3.4448   22.9028 H   0  0  0  0  0  0  0  0  0  0  0  0
    9.0411   -3.9104   21.2811 H   0  0  0  0  0  0  0  0  0  0  0  0
    9.2461   -5.6135   23.8934 H   0  0  0  0  0  0  0  0  0  0  0  0
    7.5915   -6.2358   23.6450 H   0  0  0  0  0  0  0  0  0  0  0  0
    8.7380   -6.1942   22.2759 H   0  0  0  0  0  0  0  0  0  0  0  0
  1  2  1  0
  2  3  1  0
  3  4  1  0
  4  5  2  0
  5  6  1  0
  6  7  1  0
  7  8  2  0
  8  9  1  0
  9 10  2  0
 10 11  1  0
 11 12  2  0
 12 13  1  0
 10 14  1  0
  9 15  1  0
  8 16  1  0
  6 17  1  0
 17 18  1  0
 18 19  1  0
 19 20  1  0
 20 21  2  0
 21 22  1  0
 21 23  1  0
 23 24  2  0
 24 25  1  0
 25 26  2  0
 26 27  1  0
 25 28  1  0
 24 29  1  0
 23 30  1  0
 19 31  1  0
 19 32  1  0
 18 33  1  0
 18 34  1  0
 17 35  2  0
  3 36  1  0
  3 37  1  0
  1 38  1  0
  1 39  1  0
  1 40  1  0
 35  4  1  0
 12  7  1  0
 26 20  1  0
M  END
>  <cnnaffinity>  (1) 
-5.75095

>  <filename>  (1) 
COCc1nc(CCc2c(Cl)cccc2Cl)n(-c2cccnc2)n1

$$$$
