
     RDKit          3D

 40 42  0  0  0  0  0  0  0  0999 V2000
    8.9648   -5.7004   24.3847 C   0  0  0  0  0  0  0  0  0  0  0  0
    8.1701   -5.6434   23.1932 O   0  0  0  0  0  0  0  0  0  0  0  0
    7.5385   -4.3761   22.9854 C   0  0  0  0  0  0  0  0  0  0  0  0
    8.4832   -3.4983   22.1747 C   0  0  0  0  0  0  0  0  0  0  0  0
    7.9133   -2.1420   21.9413 C   0  0  0  0  0  0  0  0  0  0  0  0
    7.6884   -1.6715   20.7432 N   0  0  0  0  0  0  0  0  0  0  0  0
    7.1878   -0.4362   20.9689 N   0  0  0  0  0  0  0  0  0  0  0  0
    6.5964    0.2904   19.9221 C   0  0  0  0  0  0  0  0  0  0  0  0
    5.5116    1.1579   20.0979 C   0  0  0  0  0  0  0  0  0  0  0  0
    4.9144    1.6914   18.9470 C   0  0  0  0  0  0  0  0  0  0  0  0
    5.4124    1.3729   17.6802 C   0  0  0  0  0  0  0  0  0  0  0  0
    6.4784    0.5748   17.5098 N   0  0  0  0  0  0  0  0  0  0  0  0
    7.0554    0.0534   18.6105 C   0  0  0  0  0  0  0  0  0  0  0  0
    7.9237   -0.5816   18.4627 H   0  0  0  0  0  0  0  0  0  0  0  0
    4.9127    1.7869   16.8057 H   0  0  0  0  0  0  0  0  0  0  0  0
    4.0490    2.3378   19.0193 H   0  0  0  0  0  0  0  0  0  0  0  0
    5.1132    1.3769   21.0879 H   0  0  0  0  0  0  0  0  0  0  0  0
    7.2181   -0.1974   22.3417 C   0  0  0  0  0  0  0  0  0  0  0  0
    6.9785    1.0923   23.0732 C   0  0  0  0  0  0  0  0  0  0  0  0
    8.3038    1.4947   23.6935 C   0  0  0  0  0  0  0  0  0  0  0  0
    9.3270    1.9992   22.8764 C   0  0  0  0  0  0  0  0  0  0  0  0
    8.9559    2.4327   21.0650 Br  0  0  0  0  0  0  0  0  0  0  0  0
   10.6272    2.1443   23.3719 C   0  0  0  0  0  0  0  0  0  0  0  0
   10.9099    1.8056   24.6999 C   0  0  0  0  0  0  0  0  0  0  0  0
    9.8757    1.3850   25.5346 C   0  0  0  0  0  0  0  0  0  0  0  0
    8.5795    1.2257   25.0440 C   0  0  0  0  0  0  0  0  0  0  0  0
    7.6153    0.7517   25.8678 F   0  0  0  0  0  0  0  0  0  0  0  0
   10.0715    1.1365   26.5699 H   0  0  0  0  0  0  0  0  0  0  0  0
   11.9184    1.8666   25.1027 H   0  0  0  0  0  0  0  0  0  0  0  0
   11.4086    2.5044   22.7077 H   0  0  0  0  0  0  0  0  0  0  0  0
    6.6203    1.8573   22.3804 H   0  0  0  0  0  0  0  0  0  0  0  0
    6.2181    0.9366   23.8424 H   0  0  0  0  0  0  0  0  0  0  0  0
    7.6232   -1.2703   22.9690 N   0  0  0  0  0  0  0  0  0  0  0  0
    8.6558   -3.9643   21.2023 H   0  0  0  0  0  0  0  0  0  0  0  0
    9.4400   -3.4039   22.7010 H   0  0  0  0  0  0  0  0  0  0  0  0
    6.5987   -4.5352   22.4441 H   0  0  0  0  0  0  0  0  0  0  0  0
    7.2975   -3.9004   23.9439 H   0  0  0  0  0  0  0  0  0  0  0  0
    9.4722   -4.7487   24.5727 H   0  0  0  0  0  0  0  0  0  0  0  0
    8.3418   -5.9454   25.2488 H   0  0  0  0  0  0  0  0  0  0  0  0
    9.7188   -6.4859   24.2906 H   0  0  0  0  0  0  0  0  0  0  0  0
  1  2  1  0
  2  3  1  0
  3  4  1  0
  4  5  1  0
  5  6  2  0
  6  7  1  0
  7  8  1  0
  8  9  2  0
  9 10  1  0
 10 11  2  0
 11 12  1  0
 12 13  2  0
 13 14  1  0
 11 15  1  0
 10 16  1  0
  9 17  1  0
  7 18  1  0
 18 19  1  0
 19 20  1  0
 20 21  2  0
 21 22  1  0
 21 23  1  0
 23 24  2  0
 24 25  1  0
 25 26  2  0
 26 27  1  0
 25 28  1  0
 24 29  1  0
 23 30  1  0
 19 31  1  0
 19 32  1  0
 18 33  2  0
  4 34  1  0
  4 35  1  0
  3 36  1  0
  3 37  1  0
  1 38  1  0
  1 39  1  0
  1 40  1  0
 33  5  1  0
 13  8  1  0
 26 20  1  0
M  END
>  <cnnaffinity>  (1) 
-5.8502

>  <filename>  (1) 
COCCc1nc(Cc2c(F)cccc2Br)n(-c2cccnc2)n1

$$$$
