
     RDKit          3D

 44 46  0  0  0  0  0  0  0  0999 V2000
    7.3797   -5.3376   24.0986 C   0  0  0  0  0  0  0  0  0  0  0  0
    7.5668   -4.3362   23.1257 O   0  0  0  0  0  0  0  0  0  0  0  0
    7.3567   -3.0238   23.6197 C   0  0  0  0  0  0  0  0  0  0  0  0
    7.5817   -1.9836   22.5639 C   0  0  0  0  0  0  0  0  0  0  0  0
    6.6612   -1.5593   21.7244 N   0  0  0  0  0  0  0  0  0  0  0  0
    7.3302   -0.6647   20.9589 N   0  0  0  0  0  0  0  0  0  0  0  0
    6.6615    0.0119   19.8984 C   0  0  0  0  0  0  0  0  0  0  0  0
    5.4402    0.6456   20.1513 C   0  0  0  0  0  0  0  0  0  0  0  0
    4.8094    1.3124   19.0986 C   0  0  0  0  0  0  0  0  0  0  0  0
    5.4077    1.2982   17.8317 C   0  0  0  0  0  0  0  0  0  0  0  0
    6.5584    0.6600   17.5701 N   0  0  0  0  0  0  0  0  0  0  0  0
    7.1695    0.0371   18.5854 C   0  0  0  0  0  0  0  0  0  0  0  0
    8.1025   -0.4680   18.3376 H   0  0  0  0  0  0  0  0  0  0  0  0
    4.9392    1.8139   16.9965 H   0  0  0  0  0  0  0  0  0  0  0  0
    3.8751    1.8452   19.2505 H   0  0  0  0  0  0  0  0  0  0  0  0
    5.0148    0.5933   21.1546 H   0  0  0  0  0  0  0  0  0  0  0  0
    8.6191   -0.5729   21.4153 C   0  0  0  0  0  0  0  0  0  0  0  0
    9.6950    0.2201   20.7311 C   0  0  0  0  0  0  0  0  0  0  0  0
   10.7892    0.7000   21.5762 N   0  0  0  0  0  0  0  0  0  0  0  0
   10.4083    1.7031   22.5761 C   0  0  0  0  0  0  0  0  0  0  0  0
   11.6307    2.4363   23.1474 C   0  0  0  0  0  0  0  0  0  0  0  0
   12.2298    3.4241   22.1295 C   0  0  0  0  0  0  0  0  0  0  0  0
   13.5017    3.7553   22.4411 F   0  0  0  0  0  0  0  0  0  0  0  0
   11.5529    4.5928   22.1286 F   0  0  0  0  0  0  0  0  0  0  0  0
   12.2350    2.9749   20.8686 F   0  0  0  0  0  0  0  0  0  0  0  0
   12.6491    1.4191   23.6957 C   0  0  0  0  0  0  0  0  0  0  0  0
   13.0172    0.4020   22.6194 C   0  0  0  0  0  0  0  0  0  0  0  0
   11.8901   -0.1270   21.7597 C   0  0  0  0  0  0  0  0  0  0  0  0
   12.0128   -1.1970   21.1840 O   0  0  0  0  0  0  0  0  0  0  0  0
   13.7098    0.8476   21.9059 H   0  0  0  0  0  0  0  0  0  0  0  0
   13.5179   -0.4803   23.0120 H   0  0  0  0  0  0  0  0  0  0  0  0
   13.5503    1.9337   24.0496 H   0  0  0  0  0  0  0  0  0  0  0  0
   12.2241    0.9308   24.5813 H   0  0  0  0  0  0  0  0  0  0  0  0
   11.2893    3.0792   23.9641 H   0  0  0  0  0  0  0  0  0  0  0  0
    9.7249    2.4211   22.1018 H   0  0  0  0  0  0  0  0  0  0  0  0
    9.8517    1.2018   23.3875 H   0  0  0  0  0  0  0  0  0  0  0  0
    9.2308    1.0642   20.2166 H   0  0  0  0  0  0  0  0  0  0  0  0
   10.1145   -0.4574   19.9838 H   0  0  0  0  0  0  0  0  0  0  0  0
    8.7928   -1.3835   22.4293 N   0  0  0  0  0  0  0  0  0  0  0  0
    8.0723   -2.7901   24.4235 H   0  0  0  0  0  0  0  0  0  0  0  0
    6.3309   -2.9079   24.0043 H   0  0  0  0  0  0  0  0  0  0  0  0
    7.5661   -6.2899   23.6005 H   0  0  0  0  0  0  0  0  0  0  0  0
    8.0816   -5.2379   24.9415 H   0  0  0  0  0  0  0  0  0  0  0  0
    6.3510   -5.3359   24.4899 H   0  0  0  0  0  0  0  0  0  0  0  0
  1  2  1  0
  2  3  1  0
  3  4  1  0
  4  5  2  0
  5  6  1  0
  6  7  1  0
  7  8  2  0
  8  9  1  0
  9 10  2  0
 10 11  1  0
 11 12  2  0
 12 13  1  0
 10 14  1  0
  9 15  1  0
  8 16  1  0
  6 17  1  0
 17 18  1  0
 18 19  1  0
 19 20  1  0
 20 21  1  0
 21 22  1  0
 22 23  1  0
 22 24  1  0
 22 25  1  0
 21 26  1  0
 26 27  1  0
 27 28  1  0
 28 29  2  0
 27 30  1  0
 27 31  1  0
 26 32  1  0
 26 33  1  0
 21 34  1  0
 20 35  1  0
 20 36  1  0
 18 37  1  0
 18 38  1  0
 17 39  2  0
  3 40  1  0
  3 41  1  0
  1 42  1  0
  1 43  1  0
  1 44  1  0
 39  4  1  0
 12  7  1  0
 28 19  1  0
M  END
>  <cnnaffinity>  (1) 
-6.08288

>  <filename>  (1) 
COCc1nc(CN2CC(C(F)(F)F)CCC2=O)n(-c2cccnc2)n1

$$$$
