
     RDKit          3D

 39 41  0  0  0  0  0  0  0  0999 V2000
    7.6922   -5.3049   24.0541 C   0  0  0  0  0  0  0  0  0  0  0  0
    7.8764   -4.2734   23.0915 O   0  0  0  0  0  0  0  0  0  0  0  0
    7.4751   -2.9890   23.5946 C   0  0  0  0  0  0  0  0  0  0  0  0
    7.6758   -1.9348   22.5445 C   0  0  0  0  0  0  0  0  0  0  0  0
    6.7261   -1.6167   21.6977 N   0  0  0  0  0  0  0  0  0  0  0  0
    7.3181   -0.6730   20.9363 N   0  0  0  0  0  0  0  0  0  0  0  0
    6.6657    0.0101   19.9089 C   0  0  0  0  0  0  0  0  0  0  0  0
    5.4464    0.6422   20.1624 C   0  0  0  0  0  0  0  0  0  0  0  0
    4.8204    1.3039   19.1034 C   0  0  0  0  0  0  0  0  0  0  0  0
    5.4039    1.2949   17.8275 C   0  0  0  0  0  0  0  0  0  0  0  0
    6.5739    0.6780   17.5795 N   0  0  0  0  0  0  0  0  0  0  0  0
    7.1902    0.0609   18.6051 C   0  0  0  0  0  0  0  0  0  0  0  0
    8.1307   -0.4398   18.4026 H   0  0  0  0  0  0  0  0  0  0  0  0
    4.8878    1.7963   17.0125 H   0  0  0  0  0  0  0  0  0  0  0  0
    3.8842    1.8308   19.2590 H   0  0  0  0  0  0  0  0  0  0  0  0
    5.0064    0.6271   21.1632 H   0  0  0  0  0  0  0  0  0  0  0  0
    8.5990   -0.4318   21.4143 C   0  0  0  0  0  0  0  0  0  0  0  0
    9.5478    0.6241   20.9401 C   0  0  0  0  0  0  0  0  0  0  0  0
    9.0648    2.0061   21.3942 C   0  0  0  0  0  0  0  0  0  0  0  0
    8.9510    2.0770   22.9066 C   0  0  0  0  0  0  0  0  0  0  0  0
    7.7068    1.8621   23.5059 C   0  0  0  0  0  0  0  0  0  0  0  0
    7.6277    1.9170   24.8948 C   0  0  0  0  0  0  0  0  0  0  0  0
    8.7745    2.1827   25.6470 C   0  0  0  0  0  0  0  0  0  0  0  0
    9.9688    2.3992   25.0792 N   0  0  0  0  0  0  0  0  0  0  0  0
   10.0630    2.3446   23.7373 C   0  0  0  0  0  0  0  0  0  0  0  0
   11.7863    2.6470   22.9745 Br  0  0  0  0  0  0  0  0  0  0  0  0
    8.6927    2.2169   26.7285 H   0  0  0  0  0  0  0  0  0  0  0  0
    6.6837    1.7485   25.3979 H   0  0  0  0  0  0  0  0  0  0  0  0
    6.8218    1.6526   22.9058 H   0  0  0  0  0  0  0  0  0  0  0  0
    9.7632    2.7630   21.0292 H   0  0  0  0  0  0  0  0  0  0  0  0
    8.0893    2.2203   20.9370 H   0  0  0  0  0  0  0  0  0  0  0  0
    9.5884    0.5812   19.8500 H   0  0  0  0  0  0  0  0  0  0  0  0
   10.5487    0.4219   21.3436 H   0  0  0  0  0  0  0  0  0  0  0  0
    8.8613   -1.2219   22.4086 N   0  0  0  0  0  0  0  0  0  0  0  0
    8.0581   -2.7338   24.4831 H   0  0  0  0  0  0  0  0  0  0  0  0
    6.4207   -3.0143   23.8855 H   0  0  0  0  0  0  0  0  0  0  0  0
    8.2830   -5.0932   24.9513 H   0  0  0  0  0  0  0  0  0  0  0  0
    8.0106   -6.2621   23.6284 H   0  0  0  0  0  0  0  0  0  0  0  0
    6.6360   -5.3662   24.3352 H   0  0  0  0  0  0  0  0  0  0  0  0
  1  2  1  0
  2  3  1  0
  3  4  1  0
  4  5  2  0
  5  6  1  0
  6  7  1  0
  7  8  2  0
  8  9  1  0
  9 10  2  0
 10 11  1  0
 11 12  2  0
 12 13  1  0
 10 14  1  0
  9 15  1  0
  8 16  1  0
  6 17  1  0
 17 18  1  0
 18 19  1  0
 19 20  1  0
 20 21  2  0
 21 22  1  0
 22 23  2  0
 23 24  1  0
 24 25  2  0
 25 26  1  0
 23 27  1  0
 22 28  1  0
 21 29  1  0
 19 30  1  0
 19 31  1  0
 18 32  1  0
 18 33  1  0
 17 34  2  0
  3 35  1  0
  3 36  1  0
  1 37  1  0
  1 38  1  0
  1 39  1  0
 34  4  1  0
 12  7  1  0
 25 20  1  0
M  END
>  <cnnaffinity>  (1) 
-5.92703

>  <filename>  (1) 
COCc1nc(CCc2cccnc2Br)n(-c2cccnc2)n1

$$$$
