
     RDKit          3D

 49 52  0  0  0  0  0  0  0  0999 V2000
    7.3078    1.4385   23.9830 C   0  0  0  0  0  0  0  0  0  0  0  0
    7.8451    2.6819   23.5762 O   0  0  0  0  0  0  0  0  0  0  0  0
    8.5726    2.6379   22.3585 C   0  0  0  0  0  0  0  0  0  0  0  0
    9.9824    2.0616   22.5242 C   0  0  0  0  0  0  0  0  0  0  0  0
   10.7885    2.6155   23.5305 C   0  0  0  0  0  0  0  0  0  0  0  0
   12.0663    2.1143   23.7737 C   0  0  0  0  0  0  0  0  0  0  0  0
   12.5760    1.0595   23.0203 C   0  0  0  0  0  0  0  0  0  0  0  0
   11.7796    0.4939   22.0221 C   0  0  0  0  0  0  0  0  0  0  0  0
   10.4939    0.9883   21.7662 C   0  0  0  0  0  0  0  0  0  0  0  0
    9.6315    0.2773   20.7525 C   0  0  0  0  0  0  0  0  0  0  0  0
    8.6065   -0.5898   21.3891 C   0  0  0  0  0  0  0  0  0  0  0  0
    8.8314   -1.4239   22.3766 N   0  0  0  0  0  0  0  0  0  0  0  0
    7.6198   -2.0098   22.5732 C   0  0  0  0  0  0  0  0  0  0  0  0
    7.3972   -2.9921   23.6452 C   0  0  0  0  0  0  0  0  0  0  0  0
    6.1074   -3.5297   23.8464 C   0  0  0  0  0  0  0  0  0  0  0  0
    5.8814   -4.4435   24.8649 C   0  0  0  0  0  0  0  0  0  0  0  0
    6.9319   -4.8398   25.7135 C   0  0  0  0  0  0  0  0  0  0  0  0
    6.7002   -5.7290   26.7161 N   0  0  0  0  0  0  0  0  0  0  0  0
    5.7804   -6.1136   26.8318 H   0  0  0  0  0  0  0  0  0  0  0  0
    7.4606   -6.0283   27.3010 H   0  0  0  0  0  0  0  0  0  0  0  0
    8.2182   -4.3026   25.5212 C   0  0  0  0  0  0  0  0  0  0  0  0
    8.4522   -3.3887   24.5016 C   0  0  0  0  0  0  0  0  0  0  0  0
    9.4546   -2.9728   24.3701 H   0  0  0  0  0  0  0  0  0  0  0  0
    9.0087   -4.6236   26.1938 H   0  0  0  0  0  0  0  0  0  0  0  0
    4.8988   -4.8691   25.0371 H   0  0  0  0  0  0  0  0  0  0  0  0
    5.2879   -3.2109   23.1976 H   0  0  0  0  0  0  0  0  0  0  0  0
    6.6675   -1.5835   21.7528 N   0  0  0  0  0  0  0  0  0  0  0  0
    7.3155   -0.6889   20.9668 N   0  0  0  0  0  0  0  0  0  0  0  0
    6.6440   -0.0138   19.9062 C   0  0  0  0  0  0  0  0  0  0  0  0
    5.4342    0.6380   20.1576 C   0  0  0  0  0  0  0  0  0  0  0  0
    4.8058    1.3131   19.1066 C   0  0  0  0  0  0  0  0  0  0  0  0
    5.3947    1.2942   17.8389 C   0  0  0  0  0  0  0  0  0  0  0  0
    6.5471    0.6558   17.5828 N   0  0  0  0  0  0  0  0  0  0  0  0
    7.1563    0.0278   18.5956 C   0  0  0  0  0  0  0  0  0  0  0  0
    8.1054   -0.4495   18.3505 H   0  0  0  0  0  0  0  0  0  0  0  0
    4.9320    1.8046   16.9961 H   0  0  0  0  0  0  0  0  0  0  0  0
    3.8743    1.8479   19.2575 H   0  0  0  0  0  0  0  0  0  0  0  0
    5.0083    0.6021   21.1592 H   0  0  0  0  0  0  0  0  0  0  0  0
   10.2366   -0.4010   20.1454 H   0  0  0  0  0  0  0  0  0  0  0  0
    9.1509    1.0022   20.0958 H   0  0  0  0  0  0  0  0  0  0  0  0
   12.1380   -0.3651   21.4554 H   0  0  0  0  0  0  0  0  0  0  0  0
   13.5754    0.6811   23.2263 H   0  0  0  0  0  0  0  0  0  0  0  0
   12.6556    2.5379   24.5619 H   0  0  0  0  0  0  0  0  0  0  0  0
   10.3819    3.4227   24.1355 H   0  0  0  0  0  0  0  0  0  0  0  0
    8.0011    2.0973   21.5865 H   0  0  0  0  0  0  0  0  0  0  0  0
    8.6301    3.6893   22.0457 H   0  0  0  0  0  0  0  0  0  0  0  0
    6.5439    1.0679   23.2780 H   0  0  0  0  0  0  0  0  0  0  0  0
    8.0860    0.6666   24.0910 H   0  0  0  0  0  0  0  0  0  0  0  0
    6.8373    1.6143   24.9545 H   0  0  0  0  0  0  0  0  0  0  0  0
  1  2  1  0
  2  3  1  0
  3  4  1  0
  4  5  2  0
  5  6  1  0
  6  7  2  0
  7  8  1  0
  8  9  2  0
  9 10  1  0
 10 11  1  0
 11 12  2  0
 12 13  1  0
 13 14  1  0
 14 15  2  0
 15 16  1  0
 16 17  2  0
 17 18  1  0
 18 19  1  0
 18 20  1  0
 17 21  1  0
 21 22  2  0
 22 23  1  0
 21 24  1  0
 16 25  1  0
 15 26  1  0
 13 27  2  0
 27 28  1  0
 28 29  1  0
 29 30  2  0
 30 31  1  0
 31 32  2  0
 32 33  1  0
 33 34  2  0
 34 35  1  0
 32 36  1  0
 31 37  1  0
 30 38  1  0
 10 39  1  0
 10 40  1  0
  8 41  1  0
  7 42  1  0
  6 43  1  0
  5 44  1  0
  3 45  1  0
  3 46  1  0
  1 47  1  0
  1 48  1  0
  1 49  1  0
  9  4  1  0
 28 11  1  0
 34 29  1  0
 22 14  1  0
M  END
>  <cnnaffinity>  (1) 
-6.21335

>  <filename>  (1) 
COCc1ccccc1Cc1nc(-c2ccc(N)cc2)nn1-c1cccnc1

$$$$
