
     RDKit          3D

 39 41  0  0  0  0  0  0  0  0999 V2000
    8.4119   -5.7454   23.0690 C   0  0  0  0  0  0  0  0  0  0  0  0
    7.8028   -4.4926   22.8384 O   0  0  0  0  0  0  0  0  0  0  0  0
    8.6414   -3.5954   22.1259 C   0  0  0  0  0  0  0  0  0  0  0  0
    8.0639   -2.2183   21.9482 C   0  0  0  0  0  0  0  0  0  0  0  0
    7.6431   -1.8302   20.7618 N   0  0  0  0  0  0  0  0  0  0  0  0
    7.2141   -0.5686   20.9744 N   0  0  0  0  0  0  0  0  0  0  0  0
    6.5620    0.1079   19.9076 C   0  0  0  0  0  0  0  0  0  0  0  0
    5.3549    0.7844   20.0907 C   0  0  0  0  0  0  0  0  0  0  0  0
    4.7778    1.4029   18.9771 C   0  0  0  0  0  0  0  0  0  0  0  0
    5.4290    1.3354   17.7417 C   0  0  0  0  0  0  0  0  0  0  0  0
    6.5731    0.6529   17.5554 N   0  0  0  0  0  0  0  0  0  0  0  0
    7.1049    0.0306   18.6102 C   0  0  0  0  0  0  0  0  0  0  0  0
    7.9993   -0.5601   18.4274 H   0  0  0  0  0  0  0  0  0  0  0  0
    4.9984    1.8130   16.8626 H   0  0  0  0  0  0  0  0  0  0  0  0
    3.8250    1.9123   19.0543 H   0  0  0  0  0  0  0  0  0  0  0  0
    4.8680    0.7894   21.0664 H   0  0  0  0  0  0  0  0  0  0  0  0
    7.4923   -0.2207   22.2760 C   0  0  0  0  0  0  0  0  0  0  0  0
    7.2603    1.1185   22.9106 C   0  0  0  0  0  0  0  0  0  0  0  0
    8.2841    1.5179   24.0039 C   0  0  0  0  0  0  0  0  0  0  0  0
    7.9770    2.8962   24.5513 C   0  0  0  0  0  0  0  0  0  0  0  0
    8.3959    4.0565   23.8750 C   0  0  0  0  0  0  0  0  0  0  0  0
    9.4389    3.9486   22.4967 Cl  0  0  0  0  0  0  0  0  0  0  0  0
    7.9920    5.3275   24.2903 C   0  0  0  0  0  0  0  0  0  0  0  0
    7.2285    5.5235   25.3734 N   0  0  0  0  0  0  0  0  0  0  0  0
    6.8258    4.4458   26.0566 C   0  0  0  0  0  0  0  0  0  0  0  0
    7.1671    3.1415   25.6778 C   0  0  0  0  0  0  0  0  0  0  0  0
    6.5363    1.8362   26.6300 Cl  0  0  0  0  0  0  0  0  0  0  0  0
    6.2029    4.6053   26.9375 H   0  0  0  0  0  0  0  0  0  0  0  0
    8.2977    6.2007   23.7158 H   0  0  0  0  0  0  0  0  0  0  0  0
    9.2935    1.5239   23.5815 H   0  0  0  0  0  0  0  0  0  0  0  0
    8.2966    0.7808   24.8124 H   0  0  0  0  0  0  0  0  0  0  0  0
    7.2381    1.8885   22.1310 H   0  0  0  0  0  0  0  0  0  0  0  0
    6.2642    1.1061   23.3667 H   0  0  0  0  0  0  0  0  0  0  0  0
    8.0273   -1.2533   22.8993 N   0  0  0  0  0  0  0  0  0  0  0  0
    9.6250   -3.4835   22.6218 H   0  0  0  0  0  0  0  0  0  0  0  0
    8.7959   -3.9647   21.1024 H   0  0  0  0  0  0  0  0  0  0  0  0
    7.6217   -6.4210   23.3981 H   0  0  0  0  0  0  0  0  0  0  0  0
    9.1919   -5.6961   23.8455 H   0  0  0  0  0  0  0  0  0  0  0  0
    8.8640   -6.1616   22.1559 H   0  0  0  0  0  0  0  0  0  0  0  0
  1  2  1  0
  2  3  1  0
  3  4  1  0
  4  5  2  0
  5  6  1  0
  6  7  1  0
  7  8  2  0
  8  9  1  0
  9 10  2  0
 10 11  1  0
 11 12  2  0
 12 13  1  0
 10 14  1  0
  9 15  1  0
  8 16  1  0
  6 17  1  0
 17 18  1  0
 18 19  1  0
 19 20  1  0
 20 21  2  0
 21 22  1  0
 21 23  1  0
 23 24  2  0
 24 25  1  0
 25 26  2  0
 26 27  1  0
 25 28  1  0
 23 29  1  0
 19 30  1  0
 19 31  1  0
 18 32  1  0
 18 33  1  0
 17 34  2  0
  3 35  1  0
  3 36  1  0
  1 37  1  0
  1 38  1  0
  1 39  1  0
 34  4  1  0
 12  7  1  0
 26 20  1  0
M  END
>  <cnnaffinity>  (1) 
-5.91638

>  <filename>  (1) 
COCc1nc(CCc2c(Cl)cncc2Cl)n(-c2cccnc2)n1

$$$$
