
     RDKit          3D

 43 45  0  0  0  0  0  0  0  0999 V2000
    7.4782   -5.3874   24.0028 C   0  0  0  0  0  0  0  0  0  0  0  0
    7.6695   -4.3703   23.0490 O   0  0  0  0  0  0  0  0  0  0  0  0
    7.4206   -3.0705   23.5550 C   0  0  0  0  0  0  0  0  0  0  0  0
    7.6326   -2.0220   22.5129 C   0  0  0  0  0  0  0  0  0  0  0  0
    6.6780   -1.5856   21.7165 N   0  0  0  0  0  0  0  0  0  0  0  0
    7.3145   -0.6643   20.9569 N   0  0  0  0  0  0  0  0  0  0  0  0
    6.6383   -0.0026   19.8949 C   0  0  0  0  0  0  0  0  0  0  0  0
    5.4238    0.6368   20.1521 C   0  0  0  0  0  0  0  0  0  0  0  0
    4.8007    1.3117   19.0991 C   0  0  0  0  0  0  0  0  0  0  0  0
    5.3919    1.2983   17.8295 C   0  0  0  0  0  0  0  0  0  0  0  0
    6.5399    0.6568   17.5670 N   0  0  0  0  0  0  0  0  0  0  0  0
    7.1469    0.0303   18.5814 C   0  0  0  0  0  0  0  0  0  0  0  0
    8.0944   -0.4484   18.3413 H   0  0  0  0  0  0  0  0  0  0  0  0
    4.9333    1.8150   16.9891 H   0  0  0  0  0  0  0  0  0  0  0  0
    3.8719    1.8485   19.2501 H   0  0  0  0  0  0  0  0  0  0  0  0
    5.0082    0.5912   21.1600 H   0  0  0  0  0  0  0  0  0  0  0  0
    8.6058   -0.5540   21.3885 C   0  0  0  0  0  0  0  0  0  0  0  0
    9.6349    0.2960   20.7397 C   0  0  0  0  0  0  0  0  0  0  0  0
   10.5390    0.9605   21.7459 C   0  0  0  0  0  0  0  0  0  0  0  0
   10.0621    2.0954   22.4366 C   0  0  0  0  0  0  0  0  0  0  0  0
    8.7085    2.7155   22.1537 C   0  0  0  0  0  0  0  0  0  0  0  0
    8.6791    3.1878   21.1669 H   0  0  0  0  0  0  0  0  0  0  0  0
    7.9028    1.9736   22.1767 H   0  0  0  0  0  0  0  0  0  0  0  0
    8.4701    3.4835   22.8938 H   0  0  0  0  0  0  0  0  0  0  0  0
   10.8590    2.6380   23.4480 C   0  0  0  0  0  0  0  0  0  0  0  0
   12.0904    2.0656   23.7662 C   0  0  0  0  0  0  0  0  0  0  0  0
   12.5486    0.9378   23.0923 C   0  0  0  0  0  0  0  0  0  0  0  0
   11.7579    0.3393   22.1067 C   0  0  0  0  0  0  0  0  0  0  0  0
   12.1777   -0.9992   21.5391 C   0  0  0  0  0  0  0  0  0  0  0  0
   12.2476   -1.0055   20.4530 H   0  0  0  0  0  0  0  0  0  0  0  0
   11.4586   -1.7770   21.8163 H   0  0  0  0  0  0  0  0  0  0  0  0
   13.1528   -1.3168   21.9109 H   0  0  0  0  0  0  0  0  0  0  0  0
   13.5051    0.4911   23.3587 H   0  0  0  0  0  0  0  0  0  0  0  0
   12.6761    2.4527   24.5735 H   0  0  0  0  0  0  0  0  0  0  0  0
   10.4918    3.4998   23.9978 H   0  0  0  0  0  0  0  0  0  0  0  0
   10.1830   -0.4006   20.0998 H   0  0  0  0  0  0  0  0  0  0  0  0
    9.1418    1.0540   20.1333 H   0  0  0  0  0  0  0  0  0  0  0  0
    8.8366   -1.4178   22.3519 N   0  0  0  0  0  0  0  0  0  0  0  0
    6.3831   -2.9690   23.9100 H   0  0  0  0  0  0  0  0  0  0  0  0
    8.1092   -2.8260   24.3798 H   0  0  0  0  0  0  0  0  0  0  0  0
    6.4418   -5.4098   24.3740 H   0  0  0  0  0  0  0  0  0  0  0  0
    8.1531   -5.2820   24.8670 H   0  0  0  0  0  0  0  0  0  0  0  0
    7.6980   -6.3239   23.4892 H   0  0  0  0  0  0  0  0  0  0  0  0
  1  2  1  0
  2  3  1  0
  3  4  1  0
  4  5  2  0
  5  6  1  0
  6  7  1  0
  7  8  2  0
  8  9  1  0
  9 10  2  0
 10 11  1  0
 11 12  2  0
 12 13  1  0
 10 14  1  0
  9 15  1  0
  8 16  1  0
  6 17  1  0
 17 18  1  0
 18 19  1  0
 19 20  2  0
 20 21  1  0
 21 22  1  0
 21 23  1  0
 21 24  1  0
 20 25  1  0
 25 26  2  0
 26 27  1  0
 27 28  2  0
 28 29  1  0
 29 30  1  0
 29 31  1  0
 29 32  1  0
 27 33  1  0
 26 34  1  0
 25 35  1  0
 18 36  1  0
 18 37  1  0
 17 38  2  0
  3 39  1  0
  3 40  1  0
  1 41  1  0
  1 42  1  0
  1 43  1  0
 38  4  1  0
 12  7  1  0
 28 19  1  0
M  END
>  <cnnaffinity>  (1) 
-6.05661

>  <filename>  (1) 
COCc1nc(Cc2c(C)cccc2C)n(-c2cccnc2)n1

$$$$
