
     RDKit          3D

 47 50  0  0  0  0  0  0  0  0999 V2000
   12.1941    2.7775   23.7920 C   0  0  0  0  0  0  0  0  0  0  0  0
   11.6451    1.4843   23.6304 O   0  0  0  0  0  0  0  0  0  0  0  0
   10.2958    1.3539   24.0638 C   0  0  0  0  0  0  0  0  0  0  0  0
    9.3174    2.2618   23.3421 C   0  0  0  0  0  0  0  0  0  0  0  0
    8.9092    3.4543   23.9571 C   0  0  0  0  0  0  0  0  0  0  0  0
    7.9271    4.2622   23.3785 C   0  0  0  0  0  0  0  0  0  0  0  0
    7.3600    3.8919   22.1529 C   0  0  0  0  0  0  0  0  0  0  0  0
    7.8177    2.7358   21.5098 C   0  0  0  0  0  0  0  0  0  0  0  0
    8.8431    1.9531   22.0525 C   0  0  0  0  0  0  0  0  0  0  0  0
    9.3626    0.7363   21.2955 C   0  0  0  0  0  0  0  0  0  0  0  0
    8.5268   -0.4774   21.5450 C   0  0  0  0  0  0  0  0  0  0  0  0
    8.7591   -1.3609   22.4918 N   0  0  0  0  0  0  0  0  0  0  0  0
    7.6772   -2.1794   22.4327 C   0  0  0  0  0  0  0  0  0  0  0  0
    7.5108   -3.2768   23.4080 C   0  0  2  0  0  0  0  0  0  0  0  0
    8.5212   -4.3933   23.5223 C   0  0  0  0  0  0  0  0  0  0  0  0
    7.1531   -4.6653   22.9656 C   0  0  1  0  0  0  0  0  0  0  0  0
    6.1376   -5.4453   23.7619 C   0  0  0  0  0  0  0  0  0  0  0  0
    6.3102   -5.3417   24.8388 H   0  0  0  0  0  0  0  0  0  0  0  0
    5.1243   -5.0862   23.5580 H   0  0  0  0  0  0  0  0  0  0  0  0
    6.1759   -6.5118   23.5261 H   0  0  0  0  0  0  0  0  0  0  0  0
    7.0939   -4.7894   21.8855 H   0  0  0  0  0  0  0  0  0  0  0  0
    9.3721   -4.3588   22.8501 H   0  0  0  0  0  0  0  0  0  0  0  0
    8.7547   -4.7665   24.5183 H   0  0  0  0  0  0  0  0  0  0  0  0
    7.0727   -2.9169   24.3371 H   0  0  0  0  0  0  0  0  0  0  0  0
    6.7982   -1.8698   21.5000 N   0  0  0  0  0  0  0  0  0  0  0  0
    7.3547   -0.7776   20.9112 N   0  0  0  0  0  0  0  0  0  0  0  0
    6.6680   -0.1123   19.8506 C   0  0  0  0  0  0  0  0  0  0  0  0
    5.4378    0.5057   20.0963 C   0  0  0  0  0  0  0  0  0  0  0  0
    4.8455    1.2186   19.0516 C   0  0  0  0  0  0  0  0  0  0  0  0
    5.4688    1.2397   17.7970 C   0  0  0  0  0  0  0  0  0  0  0  0
    6.6135    0.5897   17.5350 N   0  0  0  0  0  0  0  0  0  0  0  0
    7.1945   -0.0687   18.5462 C   0  0  0  0  0  0  0  0  0  0  0  0
    8.1204   -0.5916   18.3106 H   0  0  0  0  0  0  0  0  0  0  0  0
    5.0287    1.7954   16.9735 H   0  0  0  0  0  0  0  0  0  0  0  0
    3.9239    1.7683   19.2031 H   0  0  0  0  0  0  0  0  0  0  0  0
    4.9814    0.4315   21.0867 H   0  0  0  0  0  0  0  0  0  0  0  0
   10.3835    0.4916   21.6136 H   0  0  0  0  0  0  0  0  0  0  0  0
    9.3939    0.9305   20.2206 H   0  0  0  0  0  0  0  0  0  0  0  0
    7.3600    2.4216   20.5754 H   0  0  0  0  0  0  0  0  0  0  0  0
    6.5899    4.4962   21.6801 H   0  0  0  0  0  0  0  0  0  0  0  0
    7.5866    5.1537   23.8975 H   0  0  0  0  0  0  0  0  0  0  0  0
    9.3821    3.7456   24.8944 H   0  0  0  0  0  0  0  0  0  0  0  0
   10.2369    1.5562   25.1465 H   0  0  0  0  0  0  0  0  0  0  0  0
   10.0263    0.3065   23.9116 H   0  0  0  0  0  0  0  0  0  0  0  0
   13.2770    2.6754   23.7065 H   0  0  0  0  0  0  0  0  0  0  0  0
   11.8411    3.4785   23.0207 H   0  0  0  0  0  0  0  0  0  0  0  0
   11.9507    3.2176   24.7723 H   0  0  0  0  0  0  0  0  0  0  0  0
  1  2  1  0
  2  3  1  0
  3  4  1  0
  4  5  2  0
  5  6  1  0
  6  7  2  0
  7  8  1  0
  8  9  2  0
  9 10  1  0
 10 11  1  0
 11 12  2  0
 12 13  1  0
 13 14  1  0
 14 15  1  0
 15 16  1  0
 16 17  1  0
 17 18  1  0
 17 19  1  0
 17 20  1  0
 16 21  1  6
 15 22  1  0
 15 23  1  0
 14 24  1  1
 13 25  2  0
 25 26  1  0
 26 27  1  0
 27 28  2  0
 28 29  1  0
 29 30  2  0
 30 31  1  0
 31 32  2  0
 32 33  1  0
 30 34  1  0
 29 35  1  0
 28 36  1  0
 10 37  1  0
 10 38  1  0
  8 39  1  0
  7 40  1  0
  6 41  1  0
  5 42  1  0
  3 43  1  0
  3 44  1  0
  1 45  1  0
  1 46  1  0
  1 47  1  0
  9  4  1  0
 26 11  1  0
 32 27  1  0
 16 14  1  0
M  END
>  <cnnaffinity>  (1) 
-5.99172

>  <filename>  (1) 
COCc1ccccc1Cc1nc([C@@H]2C[C@H]2C)nn1-c1cccnc1

$$$$
