
     RDKit          3D

 51 54  0  0  0  0  0  0  0  0999 V2000
    5.9776    3.9748   21.9692 C   0  0  0  0  0  0  0  0  0  0  0  0
    7.3103    3.7785   22.3699 O   0  0  0  0  0  0  0  0  0  0  0  0
    7.8351    2.5201   22.0102 C   0  0  0  0  0  0  0  0  0  0  0  0
    9.2674    2.3469   22.5165 C   0  0  0  0  0  0  0  0  0  0  0  0
    9.7633    3.1269   23.5741 C   0  0  0  0  0  0  0  0  0  0  0  0
   11.0714    2.9613   24.0447 C   0  0  0  0  0  0  0  0  0  0  0  0
   11.8817    1.9553   23.5142 C   0  0  0  0  0  0  0  0  0  0  0  0
   11.3960    1.1708   22.4653 C   0  0  0  0  0  0  0  0  0  0  0  0
   10.1113    1.3681   21.9520 C   0  0  0  0  0  0  0  0  0  0  0  0
    9.6224    0.4258   20.8727 C   0  0  0  0  0  0  0  0  0  0  0  0
    8.6058   -0.5257   21.3939 C   0  0  0  0  0  0  0  0  0  0  0  0
    8.8353   -1.3727   22.3777 N   0  0  0  0  0  0  0  0  0  0  0  0
    7.6442   -1.9969   22.5298 C   0  0  0  0  0  0  0  0  0  0  0  0
    7.4212   -2.9917   23.6342 C   0  0  0  0  0  0  0  0  0  0  0  0
    6.8374   -4.3230   23.0968 C   0  0  0  0  0  0  0  0  0  0  0  0
    6.4577   -5.2520   24.2492 C   0  0  0  0  0  0  0  0  0  0  0  0
    5.5773   -4.6229   25.1606 O   0  0  0  0  0  0  0  0  0  0  0  0
    6.1355   -3.4755   25.7735 C   0  0  0  0  0  0  0  0  0  0  0  0
    6.4953   -2.4069   24.7416 C   0  0  0  0  0  0  0  0  0  0  0  0
    5.5735   -2.0311   24.2799 H   0  0  0  0  0  0  0  0  0  0  0  0
    6.9763   -1.5594   25.2469 H   0  0  0  0  0  0  0  0  0  0  0  0
    5.3721   -3.1166   26.4711 H   0  0  0  0  0  0  0  0  0  0  0  0
    7.0290   -3.7524   26.3632 H   0  0  0  0  0  0  0  0  0  0  0  0
    5.9247   -6.1380   23.8909 H   0  0  0  0  0  0  0  0  0  0  0  0
    7.3700   -5.5921   24.7735 H   0  0  0  0  0  0  0  0  0  0  0  0
    5.9483   -4.0978   22.4908 H   0  0  0  0  0  0  0  0  0  0  0  0
    7.5619   -4.8276   22.4454 H   0  0  0  0  0  0  0  0  0  0  0  0
    8.4252   -3.1587   24.0557 H   0  0  0  0  0  0  0  0  0  0  0  0
    6.6983   -1.6098   21.6894 N   0  0  0  0  0  0  0  0  0  0  0  0
    7.3263   -0.6653   20.9452 N   0  0  0  0  0  0  0  0  0  0  0  0
    6.6418   -0.0005   19.8967 C   0  0  0  0  0  0  0  0  0  0  0  0
    5.4326    0.6491   20.1566 C   0  0  0  0  0  0  0  0  0  0  0  0
    4.8000    1.3211   19.1076 C   0  0  0  0  0  0  0  0  0  0  0  0
    5.3903    1.2994   17.8376 C   0  0  0  0  0  0  0  0  0  0  0  0
    6.5356    0.6540   17.5715 N   0  0  0  0  0  0  0  0  0  0  0  0
    7.1479    0.0282   18.5835 C   0  0  0  0  0  0  0  0  0  0  0  0
    8.0914   -0.4625   18.3466 H   0  0  0  0  0  0  0  0  0  0  0  0
    4.9278    1.8189   17.0023 H   0  0  0  0  0  0  0  0  0  0  0  0
    3.8714    1.8670   19.2586 H   0  0  0  0  0  0  0  0  0  0  0  0
    5.0089    0.6114   21.1605 H   0  0  0  0  0  0  0  0  0  0  0  0
    9.2172    0.9610   20.0146 H   0  0  0  0  0  0  0  0  0  0  0  0
   10.4582   -0.1891   20.5330 H   0  0  0  0  0  0  0  0  0  0  0  0
   12.0132    0.3914   22.0202 H   0  0  0  0  0  0  0  0  0  0  0  0
   12.8726    1.7685   23.9193 H   0  0  0  0  0  0  0  0  0  0  0  0
   11.4786    3.6424   24.7863 H   0  0  0  0  0  0  0  0  0  0  0  0
    9.0948    3.8563   24.0208 H   0  0  0  0  0  0  0  0  0  0  0  0
    7.8122    2.4041   20.9131 H   0  0  0  0  0  0  0  0  0  0  0  0
    7.1989    1.7195   22.4297 H   0  0  0  0  0  0  0  0  0  0  0  0
    5.6931    4.9861   22.2762 H   0  0  0  0  0  0  0  0  0  0  0  0
    5.2900    3.2594   22.4519 H   0  0  0  0  0  0  0  0  0  0  0  0
    5.8593    3.8902   20.8774 H   0  0  0  0  0  0  0  0  0  0  0  0
  1  2  1  0
  2  3  1  0
  3  4  1  0
  4  5  2  0
  5  6  1  0
  6  7  2  0
  7  8  1  0
  8  9  2  0
  9 10  1  0
 10 11  1  0
 11 12  2  0
 12 13  1  0
 13 14  1  0
 14 15  1  0
 15 16  1  0
 16 17  1  0
 17 18  1  0
 18 19  1  0
 19 20  1  0
 19 21  1  0
 18 22  1  0
 18 23  1  0
 16 24  1  0
 16 25  1  0
 15 26  1  0
 15 27  1  0
 14 28  1  0
 13 29  2  0
 29 30  1  0
 30 31  1  0
 31 32  2  0
 32 33  1  0
 33 34  2  0
 34 35  1  0
 35 36  2  0
 36 37  1  0
 34 38  1  0
 33 39  1  0
 32 40  1  0
 10 41  1  0
 10 42  1  0
  8 43  1  0
  7 44  1  0
  6 45  1  0
  5 46  1  0
  3 47  1  0
  3 48  1  0
  1 49  1  0
  1 50  1  0
  1 51  1  0
  9  4  1  0
 30 11  1  0
 36 31  1  0
 19 14  1  0
M  END
>  <cnnaffinity>  (1) 
-5.96571

>  <filename>  (1) 
COCc1ccccc1Cc1nc(C2CCOCC2)nn1-c1cccnc1

$$$$
