
     RDKit          3D

 43 45  0  0  0  0  0  0  0  0999 V2000
    6.8221   -5.8565   21.2961 C   0  0  0  0  0  0  0  0  0  0  0  0
    6.6895   -4.7689   22.1847 O   0  0  0  0  0  0  0  0  0  0  0  0
    7.8196   -4.4698   22.9780 C   0  0  0  0  0  0  0  0  0  0  0  0
    8.7539   -3.5482   22.1973 C   0  0  0  0  0  0  0  0  0  0  0  0
    8.1814   -2.2024   21.9500 C   0  0  0  0  0  0  0  0  0  0  0  0
    7.7601   -1.8561   20.7593 N   0  0  0  0  0  0  0  0  0  0  0  0
    7.3183   -0.5908   20.9438 N   0  0  0  0  0  0  0  0  0  0  0  0
    6.6285    0.0627   19.8985 C   0  0  0  0  0  0  0  0  0  0  0  0
    5.4011    0.6916   20.1280 C   0  0  0  0  0  0  0  0  0  0  0  0
    4.7871    1.3203   19.0436 C   0  0  0  0  0  0  0  0  0  0  0  0
    5.4172    1.2896   17.7960 C   0  0  0  0  0  0  0  0  0  0  0  0
    6.5686    0.6294   17.5619 N   0  0  0  0  0  0  0  0  0  0  0  0
    7.1512    0.0171   18.5962 C   0  0  0  0  0  0  0  0  0  0  0  0
    8.0735   -0.5357   18.4055 H   0  0  0  0  0  0  0  0  0  0  0  0
    4.9928    1.8225   16.9498 H   0  0  0  0  0  0  0  0  0  0  0  0
    3.8541    1.8557   19.1726 H   0  0  0  0  0  0  0  0  0  0  0  0
    4.9430    0.6598   21.1186 H   0  0  0  0  0  0  0  0  0  0  0  0
    7.5688   -0.2117   22.2302 C   0  0  0  0  0  0  0  0  0  0  0  0
    7.3384    1.1547   22.8038 C   0  0  0  0  0  0  0  0  0  0  0  0
    8.5910    1.6982   23.4665 C   0  0  0  0  0  0  0  0  0  0  0  0
    9.6773    2.1724   22.7141 C   0  0  0  0  0  0  0  0  0  0  0  0
    9.5444    2.1357   20.9957 Cl  0  0  0  0  0  0  0  0  0  0  0  0
   10.8985    2.5915   23.2791 C   0  0  0  0  0  0  0  0  0  0  0  0
   12.0414    3.1638   22.4691 C   0  0  0  0  0  0  0  0  0  0  0  0
   12.8583    3.4936   23.1189 H   0  0  0  0  0  0  0  0  0  0  0  0
   11.7226    4.0274   21.8754 H   0  0  0  0  0  0  0  0  0  0  0  0
   12.4482    2.4210   21.7751 H   0  0  0  0  0  0  0  0  0  0  0  0
   11.0206    2.4220   24.6600 C   0  0  0  0  0  0  0  0  0  0  0  0
    9.9639    1.9555   25.4388 C   0  0  0  0  0  0  0  0  0  0  0  0
    8.7558    1.6072   24.8464 C   0  0  0  0  0  0  0  0  0  0  0  0
    7.9484    1.2255   25.4614 H   0  0  0  0  0  0  0  0  0  0  0  0
   10.0791    1.8534   26.5029 H   0  0  0  0  0  0  0  0  0  0  0  0
   11.9682    2.6350   25.1384 H   0  0  0  0  0  0  0  0  0  0  0  0
    6.5197    1.0775   23.5268 H   0  0  0  0  0  0  0  0  0  0  0  0
    7.0147    1.8430   22.0198 H   0  0  0  0  0  0  0  0  0  0  0  0
    8.0925   -1.2292   22.8938 N   0  0  0  0  0  0  0  0  0  0  0  0
    9.7247   -3.4220   22.6792 H   0  0  0  0  0  0  0  0  0  0  0  0
    8.8743   -3.9873   21.2074 H   0  0  0  0  0  0  0  0  0  0  0  0
    7.4303   -3.9835   23.8810 H   0  0  0  0  0  0  0  0  0  0  0  0
    8.3620   -5.3810   23.2879 H   0  0  0  0  0  0  0  0  0  0  0  0
    7.7252   -5.7927   20.6671 H   0  0  0  0  0  0  0  0  0  0  0  0
    6.8383   -6.8207   21.8290 H   0  0  0  0  0  0  0  0  0  0  0  0
    5.9501   -5.8337   20.6371 H   0  0  0  0  0  0  0  0  0  0  0  0
  1  2  1  0
  2  3  1  0
  3  4  1  0
  4  5  1  0
  5  6  2  0
  6  7  1  0
  7  8  1  0
  8  9  2  0
  9 10  1  0
 10 11  2  0
 11 12  1  0
 12 13  2  0
 13 14  1  0
 11 15  1  0
 10 16  1  0
  9 17  1  0
  7 18  1  0
 18 19  1  0
 19 20  1  0
 20 21  2  0
 21 22  1  0
 21 23  1  0
 23 24  1  0
 24 25  1  0
 24 26  1  0
 24 27  1  0
 23 28  2  0
 28 29  1  0
 29 30  2  0
 30 31  1  0
 29 32  1  0
 28 33  1  0
 19 34  1  0
 19 35  1  0
 18 36  2  0
  4 37  1  0
  4 38  1  0
  3 39  1  0
  3 40  1  0
  1 41  1  0
  1 42  1  0
  1 43  1  0
 36  5  1  0
 13  8  1  0
 30 20  1  0
M  END
>  <cnnaffinity>  (1) 
-6.14675

>  <filename>  (1) 
COCCc1nc(Cc2cccc(C)c2Cl)n(-c2cccnc2)n1

$$$$
