
     RDKit          3D

 50 53  0  0  0  0  0  0  0  0999 V2000
   10.4940    0.5624   26.0891 C   0  0  0  0  0  0  0  0  0  0  0  0
    9.6457    0.9086   25.0261 O   0  0  0  0  0  0  0  0  0  0  0  0
   10.3200    1.3553   23.8571 C   0  0  0  0  0  0  0  0  0  0  0  0
    9.3916    2.2588   23.0785 C   0  0  0  0  0  0  0  0  0  0  0  0
    9.0152    3.4811   23.6607 C   0  0  0  0  0  0  0  0  0  0  0  0
    8.0289    4.2827   23.0907 C   0  0  0  0  0  0  0  0  0  0  0  0
    7.3939    3.8414   21.9296 C   0  0  0  0  0  0  0  0  0  0  0  0
    7.8044    2.6574   21.3153 C   0  0  0  0  0  0  0  0  0  0  0  0
    8.8716    1.9131   21.8197 C   0  0  0  0  0  0  0  0  0  0  0  0
    9.3862    0.7086   21.0380 C   0  0  0  0  0  0  0  0  0  0  0  0
    8.5963   -0.5118   21.3927 C   0  0  0  0  0  0  0  0  0  0  0  0
    8.8674   -1.3877   22.3394 N   0  0  0  0  0  0  0  0  0  0  0  0
    7.6920   -2.0625   22.4858 C   0  0  0  0  0  0  0  0  0  0  0  0
    7.5050   -3.1203   23.5122 C   0  0  0  0  0  0  0  0  0  0  0  0
    6.1827   -3.2503   24.2270 C   0  0  0  0  0  0  0  0  0  0  0  0
    7.3946   -2.7933   24.9939 C   0  0  0  0  0  0  0  0  0  0  0  0
    8.0311   -3.7738   25.9634 C   0  0  0  0  0  0  0  0  0  0  0  0
    7.9343   -4.8110   25.6225 H   0  0  0  0  0  0  0  0  0  0  0  0
    9.1010   -3.5635   26.0893 H   0  0  0  0  0  0  0  0  0  0  0  0
    7.5635   -3.7051   26.9536 H   0  0  0  0  0  0  0  0  0  0  0  0
    7.5313   -1.3418   25.4167 C   0  0  0  0  0  0  0  0  0  0  0  0
    7.0566   -1.1554   26.3883 H   0  0  0  0  0  0  0  0  0  0  0  0
    8.5928   -1.0866   25.5040 H   0  0  0  0  0  0  0  0  0  0  0  0
    7.0980   -0.6541   24.6810 H   0  0  0  0  0  0  0  0  0  0  0  0
    5.7942   -4.2492   24.4155 H   0  0  0  0  0  0  0  0  0  0  0  0
    5.4201   -2.5122   23.9813 H   0  0  0  0  0  0  0  0  0  0  0  0
    8.0470   -4.0287   23.2531 H   0  0  0  0  0  0  0  0  0  0  0  0
    6.7456   -1.7057   21.6371 N   0  0  0  0  0  0  0  0  0  0  0  0
    7.3360   -0.7218   20.9137 N   0  0  0  0  0  0  0  0  0  0  0  0
    6.6234   -0.0900   19.8542 C   0  0  0  0  0  0  0  0  0  0  0  0
    5.3919    0.5279   20.1018 C   0  0  0  0  0  0  0  0  0  0  0  0
    4.7966    1.2401   19.0567 C   0  0  0  0  0  0  0  0  0  0  0  0
    5.4129    1.2582   17.7994 C   0  0  0  0  0  0  0  0  0  0  0  0
    6.5573    0.6056   17.5388 N   0  0  0  0  0  0  0  0  0  0  0  0
    7.1424   -0.0468   18.5496 C   0  0  0  0  0  0  0  0  0  0  0  0
    8.0798   -0.5529   18.3203 H   0  0  0  0  0  0  0  0  0  0  0  0
    4.9743    1.8108   16.9703 H   0  0  0  0  0  0  0  0  0  0  0  0
    3.8815    1.8021   19.2083 H   0  0  0  0  0  0  0  0  0  0  0  0
    4.9557    0.4860   21.1024 H   0  0  0  0  0  0  0  0  0  0  0  0
   10.4455    0.5169   21.2268 H   0  0  0  0  0  0  0  0  0  0  0  0
    9.2940    0.8908   19.9656 H   0  0  0  0  0  0  0  0  0  0  0  0
    7.3010    2.3271   20.4103 H   0  0  0  0  0  0  0  0  0  0  0  0
    6.5901    4.4304   21.4983 H   0  0  0  0  0  0  0  0  0  0  0  0
    7.7475    5.2364   23.5380 H   0  0  0  0  0  0  0  0  0  0  0  0
    9.5258    3.8052   24.5618 H   0  0  0  0  0  0  0  0  0  0  0  0
   10.6169    0.4808   23.2662 H   0  0  0  0  0  0  0  0  0  0  0  0
   11.2315    1.9150   24.1237 H   0  0  0  0  0  0  0  0  0  0  0  0
    9.8715    0.1333   26.8810 H   0  0  0  0  0  0  0  0  0  0  0  0
   11.2493   -0.1891   25.8008 H   0  0  0  0  0  0  0  0  0  0  0  0
   10.9779    1.4681   26.4645 H   0  0  0  0  0  0  0  0  0  0  0  0
  1  2  1  0
  2  3  1  0
  3  4  1  0
  4  5  2  0
  5  6  1  0
  6  7  2  0
  7  8  1  0
  8  9  2  0
  9 10  1  0
 10 11  1  0
 11 12  2  0
 12 13  1  0
 13 14  1  0
 14 15  1  0
 15 16  1  0
 16 17  1  0
 17 18  1  0
 17 19  1  0
 17 20  1  0
 16 21  1  0
 21 22  1  0
 21 23  1  0
 21 24  1  0
 15 25  1  0
 15 26  1  0
 14 27  1  0
 13 28  2  0
 28 29  1  0
 29 30  1  0
 30 31  2  0
 31 32  1  0
 32 33  2  0
 33 34  1  0
 34 35  2  0
 35 36  1  0
 33 37  1  0
 32 38  1  0
 31 39  1  0
 10 40  1  0
 10 41  1  0
  8 42  1  0
  7 43  1  0
  6 44  1  0
  5 45  1  0
  3 46  1  0
  3 47  1  0
  1 48  1  0
  1 49  1  0
  1 50  1  0
  9  4  1  0
 29 11  1  0
 35 30  1  0
 16 14  1  0
M  END
>  <cnnaffinity>  (1) 
-5.99074

>  <filename>  (1) 
COCc1ccccc1Cc1nc(C2CC2(C)C)nn1-c1cccnc1

$$$$
