
     RDKit          3D

 36 38  0  0  0  0  0  0  0  0999 V2000
    7.3784   -4.6511   23.7682 C   0  0  0  0  0  0  0  0  0  0  0  0
    7.9348   -4.6517   22.4681 O   0  0  0  0  0  0  0  0  0  0  0  0
    8.7493   -3.5404   22.1348 C   0  0  0  0  0  0  0  0  0  0  0  0
    8.1141   -2.1766   21.9825 C   0  0  0  0  0  0  0  0  0  0  0  0
    7.6545   -1.8230   20.8000 N   0  0  0  0  0  0  0  0  0  0  0  0
    7.2475   -0.5514   20.9838 N   0  0  0  0  0  0  0  0  0  0  0  0
    6.5928    0.1112   19.9138 C   0  0  0  0  0  0  0  0  0  0  0  0
    5.3747    0.7602   20.1157 C   0  0  0  0  0  0  0  0  0  0  0  0
    4.7751    1.3741   19.0151 C   0  0  0  0  0  0  0  0  0  0  0  0
    5.4103    1.3173   17.7687 C   0  0  0  0  0  0  0  0  0  0  0  0
    6.5672    0.6581   17.5641 N   0  0  0  0  0  0  0  0  0  0  0  0
    7.1288    0.0522   18.6132 C   0  0  0  0  0  0  0  0  0  0  0  0
    8.0398   -0.5155   18.4321 H   0  0  0  0  0  0  0  0  0  0  0  0
    4.9780    1.8108   16.9016 H   0  0  0  0  0  0  0  0  0  0  0  0
    3.8228    1.8840   19.1102 H   0  0  0  0  0  0  0  0  0  0  0  0
    4.8936    0.7290   21.0957 H   0  0  0  0  0  0  0  0  0  0  0  0
    7.5291   -0.1664   22.2701 C   0  0  0  0  0  0  0  0  0  0  0  0
    7.3317    1.1951   22.8841 C   0  0  0  0  0  0  0  0  0  0  0  0
    8.6134    1.7170   23.5155 C   0  0  0  0  0  0  0  0  0  0  0  0
    9.6612    2.2471   22.7489 C   0  0  0  0  0  0  0  0  0  0  0  0
    9.4853    2.3831   21.0423 Cl  0  0  0  0  0  0  0  0  0  0  0  0
   10.8726    2.6418   23.3352 C   0  0  0  0  0  0  0  0  0  0  0  0
   11.1110    2.4949   24.6412 N   0  0  0  0  0  0  0  0  0  0  0  0
   10.1328    1.9833   25.3998 C   0  0  0  0  0  0  0  0  0  0  0  0
    8.8849    1.6221   24.8811 C   0  0  0  0  0  0  0  0  0  0  0  0
    7.9378    1.1861   25.7246 F   0  0  0  0  0  0  0  0  0  0  0  0
   10.3309    1.8404   26.4528 H   0  0  0  0  0  0  0  0  0  0  0  0
   11.6649    3.0563   22.7161 H   0  0  0  0  0  0  0  0  0  0  0  0
    7.0043    1.9112   22.1202 H   0  0  0  0  0  0  0  0  0  0  0  0
    6.5540    1.1181   23.6541 H   0  0  0  0  0  0  0  0  0  0  0  0
    8.0719   -1.1889   22.9173 N   0  0  0  0  0  0  0  0  0  0  0  0
    9.6136   -3.4376   22.8110 H   0  0  0  0  0  0  0  0  0  0  0  0
    9.0830   -3.7531   21.1200 H   0  0  0  0  0  0  0  0  0  0  0  0
    6.9767   -3.6703   24.0571 H   0  0  0  0  0  0  0  0  0  0  0  0
    8.1077   -4.9672   24.5256 H   0  0  0  0  0  0  0  0  0  0  0  0
    6.5636   -5.3752   23.7444 H   0  0  0  0  0  0  0  0  0  0  0  0
  1  2  1  0
  2  3  1  0
  3  4  1  0
  4  5  2  0
  5  6  1  0
  6  7  1  0
  7  8  2  0
  8  9  1  0
  9 10  2  0
 10 11  1  0
 11 12  2  0
 12 13  1  0
 10 14  1  0
  9 15  1  0
  8 16  1  0
  6 17  1  0
 17 18  1  0
 18 19  1  0
 19 20  2  0
 20 21  1  0
 20 22  1  0
 22 23  2  0
 23 24  1  0
 24 25  2  0
 25 26  1  0
 24 27  1  0
 22 28  1  0
 18 29  1  0
 18 30  1  0
 17 31  2  0
  3 32  1  0
  3 33  1  0
  1 34  1  0
  1 35  1  0
  1 36  1  0
 31  4  1  0
 12  7  1  0
 25 19  1  0
M  END
>  <cnnaffinity>  (1) 
-6.24362

>  <filename>  (1) 
COCc1nc(Cc2c(F)cncc2Cl)n(-c2cccnc2)n1

$$$$
