
     RDKit          3D

 43 45  0  0  0  0  0  0  0  0999 V2000
    5.5520   -5.5876   24.8779 C   0  0  0  0  0  0  0  0  0  0  0  0
    6.3864   -5.5911   23.7475 O   0  0  0  0  0  0  0  0  0  0  0  0
    7.2307   -4.4678   23.6633 C   0  0  0  0  0  0  0  0  0  0  0  0
    8.0453   -4.5998   22.3800 C   0  0  0  0  0  0  0  0  0  0  0  0
    8.9234   -3.3601   22.0985 C   0  0  0  0  0  0  0  0  0  0  0  0
    8.1835   -2.0789   21.9474 C   0  0  0  0  0  0  0  0  0  0  0  0
    7.8706   -1.6491   20.7456 N   0  0  0  0  0  0  0  0  0  0  0  0
    7.2235   -0.4868   20.9900 N   0  0  0  0  0  0  0  0  0  0  0  0
    6.5348    0.1216   19.9146 C   0  0  0  0  0  0  0  0  0  0  0  0
    5.3432    0.8243   20.0937 C   0  0  0  0  0  0  0  0  0  0  0  0
    4.7697    1.4152   18.9659 C   0  0  0  0  0  0  0  0  0  0  0  0
    5.4149    1.3068   17.7283 C   0  0  0  0  0  0  0  0  0  0  0  0
    6.5485    0.6048   17.5516 N   0  0  0  0  0  0  0  0  0  0  0  0
    7.0737    0.0045   18.6198 C   0  0  0  0  0  0  0  0  0  0  0  0
    7.9718   -0.5874   18.4650 H   0  0  0  0  0  0  0  0  0  0  0  0
    4.9914    1.7682   16.8406 H   0  0  0  0  0  0  0  0  0  0  0  0
    3.8305    1.9520   19.0328 H   0  0  0  0  0  0  0  0  0  0  0  0
    4.9027    0.9106   21.0887 H   0  0  0  0  0  0  0  0  0  0  0  0
    7.2581   -0.2372   22.3365 C   0  0  0  0  0  0  0  0  0  0  0  0
    6.9128    1.0558   22.9683 C   0  0  0  0  0  0  0  0  0  0  0  0
    6.0905    1.0509   24.1036 C   0  0  0  0  0  0  0  0  0  0  0  0
    5.6355    2.2553   24.6402 C   0  0  0  0  0  0  0  0  0  0  0  0
    6.0339    3.4655   24.0675 C   0  0  0  0  0  0  0  0  0  0  0  0
    6.9344    3.4638   22.9990 C   0  0  0  0  0  0  0  0  0  0  0  0
    7.4256    5.0191   22.3646 Cl  0  0  0  0  0  0  0  0  0  0  0  0
    7.4434    2.2727   22.4525 C   0  0  0  0  0  0  0  0  0  0  0  0
    8.5323    2.2646   21.4020 C   0  0  0  0  0  0  0  0  0  0  0  0
    9.0559    3.2197   21.3915 H   0  0  0  0  0  0  0  0  0  0  0  0
    8.1046    2.0886   20.4131 H   0  0  0  0  0  0  0  0  0  0  0  0
    9.2513    1.4588   21.5859 H   0  0  0  0  0  0  0  0  0  0  0  0
    5.6737    4.4143   24.4516 H   0  0  0  0  0  0  0  0  0  0  0  0
    4.9749    2.2517   25.5043 H   0  0  0  0  0  0  0  0  0  0  0  0
    5.8282    0.0978   24.5566 H   0  0  0  0  0  0  0  0  0  0  0  0
    7.8098   -1.2658   22.9625 N   0  0  0  0  0  0  0  0  0  0  0  0
    9.4037   -3.4316   21.1228 H   0  0  0  0  0  0  0  0  0  0  0  0
    9.6919   -3.2312   22.8734 H   0  0  0  0  0  0  0  0  0  0  0  0
    7.3597   -4.7959   21.5411 H   0  0  0  0  0  0  0  0  0  0  0  0
    8.6804   -5.4908   22.4732 H   0  0  0  0  0  0  0  0  0  0  0  0
    6.6483   -3.5287   23.6557 H   0  0  0  0  0  0  0  0  0  0  0  0
    7.9001   -4.4157   24.5449 H   0  0  0  0  0  0  0  0  0  0  0  0
    6.1337   -5.5629   25.8136 H   0  0  0  0  0  0  0  0  0  0  0  0
    4.9606   -6.5078   24.8450 H   0  0  0  0  0  0  0  0  0  0  0  0
    4.8685   -4.7228   24.8814 H   0  0  0  0  0  0  0  0  0  0  0  0
  1  2  1  0
  2  3  1  0
  3  4  1  0
  4  5  1  0
  5  6  1  0
  6  7  2  0
  7  8  1  0
  8  9  1  0
  9 10  2  0
 10 11  1  0
 11 12  2  0
 12 13  1  0
 13 14  2  0
 14 15  1  0
 12 16  1  0
 11 17  1  0
 10 18  1  0
  8 19  1  0
 19 20  1  0
 20 21  2  0
 21 22  1  0
 22 23  2  0
 23 24  1  0
 24 25  1  0
 24 26  2  0
 26 27  1  0
 27 28  1  0
 27 29  1  0
 27 30  1  0
 23 31  1  0
 22 32  1  0
 21 33  1  0
 19 34  2  0
  5 35  1  0
  5 36  1  0
  4 37  1  0
  4 38  1  0
  3 39  1  0
  3 40  1  0
  1 41  1  0
  1 42  1  0
  1 43  1  0
 34  6  1  0
 14  9  1  0
 26 20  1  0
M  END
>  <cnnaffinity>  (1) 
-5.50613

>  <filename>  (1) 
COCCCc1nc(-c2cccc(Cl)c2C)n(-c2cccnc2)n1

$$$$
