
     RDKit          3D

 31 32  0  0  0  0  0  0  0  0999 V2000
    4.9515    1.7862   16.9897 H   0  0  0  0  0  0  0  0  0  0  0  0
    5.4101    1.2867   17.8442 C   0  0  0  0  0  0  0  0  0  0  0  0
    6.5705    0.6620   17.6054 N   0  0  0  0  0  0  0  0  0  0  0  0
    7.1687    0.0445   18.6318 C   0  0  0  0  0  0  0  0  0  0  0  0
    8.1093   -0.4293   18.3574 H   0  0  0  0  0  0  0  0  0  0  0  0
    6.6457   -0.0298   19.9424 C   0  0  0  0  0  0  0  0  0  0  0  0
    7.3787   -0.7681   21.0180 C   0  0  0  0  0  0  0  0  0  0  0  0
    6.4134   -1.7327   22.1317 S   0  0  0  0  0  0  0  0  0  0  0  0
    7.6013   -2.3647   23.2495 C   0  0  0  0  0  0  0  0  0  0  0  0
    6.9677   -3.1026   24.1839 O   0  0  0  0  0  0  0  0  0  0  0  0
    7.7143   -3.7789   25.2134 C   0  0  0  0  0  0  0  0  0  0  0  0
    8.2824   -3.0570   25.8137 H   0  0  0  0  0  0  0  0  0  0  0  0
    8.4190   -4.4923   24.7676 H   0  0  0  0  0  0  0  0  0  0  0  0
    6.7167   -4.5207   26.1014 C   0  0  0  0  0  0  0  0  0  0  0  0
    6.1371   -5.2344   25.4923 H   0  0  0  0  0  0  0  0  0  0  0  0
    6.0017   -3.8030   26.5374 H   0  0  0  0  0  0  0  0  0  0  0  0
    7.4403   -5.1919   27.1146 O   0  0  0  0  0  0  0  0  0  0  0  0
    6.6187   -5.9237   27.9991 C   0  0  0  0  0  0  0  0  0  0  0  0
    7.2634   -6.4068   28.7385 H   0  0  0  0  0  0  0  0  0  0  0  0
    5.9004   -5.2794   28.5292 H   0  0  0  0  0  0  0  0  0  0  0  0
    6.0366   -6.7027   27.4830 H   0  0  0  0  0  0  0  0  0  0  0  0
    8.9264   -2.1561   23.1553 C   0  0  0  0  0  0  0  0  0  0  0  0
    9.6245   -2.6014   23.8530 H   0  0  0  0  0  0  0  0  0  0  0  0
    9.5664   -1.3446   22.1357 C   0  0  0  0  0  0  0  0  0  0  0  0
   10.7828   -1.2046   22.1222 O   0  0  0  0  0  0  0  0  0  0  0  0
    8.7220   -0.6951   21.1208 C   0  0  0  0  0  0  0  0  0  0  0  0
    9.2827   -0.0877   20.4290 H   0  0  0  0  0  0  0  0  0  0  0  0
    5.4330    0.6468   20.1698 C   0  0  0  0  0  0  0  0  0  0  0  0
    4.9988    0.6589   21.1697 H   0  0  0  0  0  0  0  0  0  0  0  0
    4.8133    1.3076   19.1075 C   0  0  0  0  0  0  0  0  0  0  0  0
    3.8826    1.8422   19.2422 H   0  0  0  0  0  0  0  0  0  0  0  0
  1  2  1  0
  2  3  2  0
  3  4  1  0
  4  5  1  0
  4  6  2  0
  6  7  1  0
  7  8  1  0
  8  9  1  0
  9 10  1  0
 10 11  1  0
 11 12  1  0
 11 13  1  0
 11 14  1  0
 14 15  1  0
 14 16  1  0
 14 17  1  0
 17 18  1  0
 18 19  1  0
 18 20  1  0
 18 21  1  0
  9 22  2  0
 22 23  1  0
 22 24  1  0
 24 25  2  0
 24 26  1  0
 26 27  1  0
  6 28  1  0
 28 29  1  0
 28 30  2  0
 30 31  1  0
 30  2  1  0
 26  7  2  0
M  END
>  <cnnaffinity>  (1) 
-4.72805

>  <filename>  (1) 
COCCOc1cc(=O)cc(-c2cccnc2)s1

$$$$
