
     RDKit          3D

 47 49  0  0  0  0  0  0  0  0999 V2000
    5.6703   -5.4703   22.8019 C   0  0  0  0  0  0  0  0  0  0  0  0
    6.6795   -4.6829   22.2201 O   0  0  0  0  0  0  0  0  0  0  0  0
    7.7969   -4.4619   23.0455 C   0  0  0  0  0  0  0  0  0  0  0  0
    8.7360   -3.5865   22.2343 C   0  0  0  0  0  0  0  0  0  0  0  0
    8.2052   -2.2326   21.9587 C   0  0  0  0  0  0  0  0  0  0  0  0
    7.7547   -1.8882   20.7753 N   0  0  0  0  0  0  0  0  0  0  0  0
    7.3651   -0.6048   20.9534 N   0  0  0  0  0  0  0  0  0  0  0  0
    6.6630    0.0654   19.9222 C   0  0  0  0  0  0  0  0  0  0  0  0
    5.4282    0.6811   20.1553 C   0  0  0  0  0  0  0  0  0  0  0  0
    4.7980    1.3087   19.0774 C   0  0  0  0  0  0  0  0  0  0  0  0
    5.4154    1.2812   17.8227 C   0  0  0  0  0  0  0  0  0  0  0  0
    6.5704    0.6347   17.5821 N   0  0  0  0  0  0  0  0  0  0  0  0
    7.1728    0.0322   18.6130 C   0  0  0  0  0  0  0  0  0  0  0  0
    8.1014   -0.4997   18.4054 H   0  0  0  0  0  0  0  0  0  0  0  0
    4.9683    1.7985   16.9774 H   0  0  0  0  0  0  0  0  0  0  0  0
    3.8647    1.8408   19.2152 H   0  0  0  0  0  0  0  0  0  0  0  0
    4.9719    0.6468   21.1460 H   0  0  0  0  0  0  0  0  0  0  0  0
    7.6622   -0.2275   22.2287 C   0  0  0  0  0  0  0  0  0  0  0  0
    7.5380    1.1845   22.7409 C   0  0  0  0  0  0  0  0  0  0  0  0
    8.8185    1.8592   23.0106 N   0  0  0  0  0  0  0  0  0  0  0  0
    9.4713    1.5494   24.2738 C   0  0  0  0  0  0  0  0  0  0  0  0
   10.5146    2.6166   24.5987 C   0  0  0  0  0  0  0  0  0  0  0  0
    9.8090    3.9589   24.8863 C   0  0  0  0  0  0  0  0  0  0  0  0
    9.0381    3.8728   25.9928 F   0  0  0  0  0  0  0  0  0  0  0  0
   10.6844    4.9679   25.0949 F   0  0  0  0  0  0  0  0  0  0  0  0
    9.0119    4.3616   23.8845 F   0  0  0  0  0  0  0  0  0  0  0  0
   11.5693    2.7235   23.4818 C   0  0  0  0  0  0  0  0  0  0  0  0
   10.8560    3.0052   22.1585 C   0  0  0  0  0  0  0  0  0  0  0  0
    9.5979    2.1869   21.9114 C   0  0  0  0  0  0  0  0  0  0  0  0
    9.2520    1.8636   20.7923 O   0  0  0  0  0  0  0  0  0  0  0  0
   10.5222    4.0432   22.1733 H   0  0  0  0  0  0  0  0  0  0  0  0
   11.4759    2.8780   21.2702 H   0  0  0  0  0  0  0  0  0  0  0  0
   12.2819    3.5292   23.6997 H   0  0  0  0  0  0  0  0  0  0  0  0
   12.1613    1.7979   23.4474 H   0  0  0  0  0  0  0  0  0  0  0  0
   10.9835    2.2749   25.5191 H   0  0  0  0  0  0  0  0  0  0  0  0
    9.9230    0.5431   24.2244 H   0  0  0  0  0  0  0  0  0  0  0  0
    8.7183    1.5282   25.0703 H   0  0  0  0  0  0  0  0  0  0  0  0
    6.9694    1.1676   23.6741 H   0  0  0  0  0  0  0  0  0  0  0  0
    6.9776    1.7995   22.0347 H   0  0  0  0  0  0  0  0  0  0  0  0
    8.1801   -1.2482   22.8910 N   0  0  0  0  0  0  0  0  0  0  0  0
    9.7199   -3.4937   22.7036 H   0  0  0  0  0  0  0  0  0  0  0  0
    8.8192   -4.0521   21.2582 H   0  0  0  0  0  0  0  0  0  0  0  0
    7.5084   -3.9832   23.9958 H   0  0  0  0  0  0  0  0  0  0  0  0
    8.3007   -5.4149   23.2963 H   0  0  0  0  0  0  0  0  0  0  0  0
    4.8947   -5.5918   22.0439 H   0  0  0  0  0  0  0  0  0  0  0  0
    5.2286   -4.9867   23.6883 H   0  0  0  0  0  0  0  0  0  0  0  0
    6.0412   -6.4674   23.0898 H   0  0  0  0  0  0  0  0  0  0  0  0
  1  2  1  0
  2  3  1  0
  3  4  1  0
  4  5  1  0
  5  6  2  0
  6  7  1  0
  7  8  1  0
  8  9  2  0
  9 10  1  0
 10 11  2  0
 11 12  1  0
 12 13  2  0
 13 14  1  0
 11 15  1  0
 10 16  1  0
  9 17  1  0
  7 18  1  0
 18 19  1  0
 19 20  1  0
 20 21  1  0
 21 22  1  0
 22 23  1  0
 23 24  1  0
 23 25  1  0
 23 26  1  0
 22 27  1  0
 27 28  1  0
 28 29  1  0
 29 30  2  0
 28 31  1  0
 28 32  1  0
 27 33  1  0
 27 34  1  0
 22 35  1  0
 21 36  1  0
 21 37  1  0
 19 38  1  0
 19 39  1  0
 18 40  2  0
  4 41  1  0
  4 42  1  0
  3 43  1  0
  3 44  1  0
  1 45  1  0
  1 46  1  0
  1 47  1  0
 40  5  1  0
 13  8  1  0
 29 20  1  0
M  END
>  <cnnaffinity>  (1) 
-6.03694

>  <filename>  (1) 
COCCc1nc(CN2CC(C(F)(F)F)CCC2=O)n(-c2cccnc2)n1

$$$$
