
     RDKit          3D

 40 42  0  0  0  0  0  0  0  0999 V2000
    7.4628   -4.5010   23.9542 C   0  0  0  0  0  0  0  0  0  0  0  0
    7.8921   -4.5830   22.6087 O   0  0  0  0  0  0  0  0  0  0  0  0
    8.7047   -3.5066   22.1679 C   0  0  0  0  0  0  0  0  0  0  0  0
    8.0839   -2.1261   21.9988 C   0  0  0  0  0  0  0  0  0  0  0  0
    7.5538   -1.8001   20.8357 N   0  0  0  0  0  0  0  0  0  0  0  0
    7.1845   -0.5095   21.0064 N   0  0  0  0  0  0  0  0  0  0  0  0
    6.5305    0.1661   19.9400 C   0  0  0  0  0  0  0  0  0  0  0  0
    5.3350    0.8787   20.1007 C   0  0  0  0  0  0  0  0  0  0  0  0
    4.7751    1.4655   18.9568 C   0  0  0  0  0  0  0  0  0  0  0  0
    5.4342    1.3435   17.7288 C   0  0  0  0  0  0  0  0  0  0  0  0
    6.5810    0.6566   17.5738 N   0  0  0  0  0  0  0  0  0  0  0  0
    7.0955    0.0690   18.6557 C   0  0  0  0  0  0  0  0  0  0  0  0
    7.9943   -0.5277   18.5189 H   0  0  0  0  0  0  0  0  0  0  0  0
    5.0374    1.8090   16.8287 H   0  0  0  0  0  0  0  0  0  0  0  0
    3.8453    2.0249   19.0062 H   0  0  0  0  0  0  0  0  0  0  0  0
    4.8279    0.9428   21.0668 H   0  0  0  0  0  0  0  0  0  0  0  0
    7.5991   -0.0844   22.2375 C   0  0  0  0  0  0  0  0  0  0  0  0
    7.5916    1.3501   22.6842 C   0  0  0  0  0  0  0  0  0  0  0  0
    8.5763    2.2698   21.8931 C   0  0  0  0  0  0  0  0  0  0  0  0
    8.5840    3.7113   22.3299 C   0  0  0  0  0  0  0  0  0  0  0  0
    9.4410    4.2796   23.2405 C   0  0  0  0  0  0  0  0  0  0  0  0
    9.2967    5.6589   23.6035 C   0  0  0  0  0  0  0  0  0  0  0  0
    8.3202    6.4271   23.0361 C   0  0  0  0  0  0  0  0  0  0  0  0
    7.4188    5.8607   22.0460 C   0  0  0  0  0  0  0  0  0  0  0  0
    6.5172    6.4490   21.4702 O   0  0  0  0  0  0  0  0  0  0  0  0
    7.6181    4.5153   21.7742 N   0  0  0  0  0  0  0  0  0  0  0  0
    6.9699    4.2152   21.0616 H   0  0  0  0  0  0  0  0  0  0  0  0
    8.1389    7.4681   23.2653 H   0  0  0  0  0  0  0  0  0  0  0  0
    9.9667    6.0918   24.3496 H   0  0  0  0  0  0  0  0  0  0  0  0
   10.2265    3.6800   23.6843 H   0  0  0  0  0  0  0  0  0  0  0  0
    8.3258    2.2244   20.8259 H   0  0  0  0  0  0  0  0  0  0  0  0
    9.5917    1.8727   21.9961 H   0  0  0  0  0  0  0  0  0  0  0  0
    7.8431    1.3360   23.7493 H   0  0  0  0  0  0  0  0  0  0  0  0
    6.5687    1.7326   22.6063 H   0  0  0  0  0  0  0  0  0  0  0  0
    8.1351   -1.0994   22.8952 N   0  0  0  0  0  0  0  0  0  0  0  0
    9.6133   -3.4149   22.7859 H   0  0  0  0  0  0  0  0  0  0  0  0
    8.9903   -3.7713   21.1486 H   0  0  0  0  0  0  0  0  0  0  0  0
    6.6966   -5.2699   24.0719 H   0  0  0  0  0  0  0  0  0  0  0  0
    7.0419   -3.5113   24.1838 H   0  0  0  0  0  0  0  0  0  0  0  0
    8.2811   -4.7154   24.6565 H   0  0  0  0  0  0  0  0  0  0  0  0
  1  2  1  0
  2  3  1  0
  3  4  1  0
  4  5  2  0
  5  6  1  0
  6  7  1  0
  7  8  2  0
  8  9  1  0
  9 10  2  0
 10 11  1  0
 11 12  2  0
 12 13  1  0
 10 14  1  0
  9 15  1  0
  8 16  1  0
  6 17  1  0
 17 18  1  0
 18 19  1  0
 19 20  1  0
 20 21  2  0
 21 22  1  0
 22 23  2  0
 23 24  1  0
 24 25  2  0
 24 26  1  0
 26 27  1  0
 23 28  1  0
 22 29  1  0
 21 30  1  0
 19 31  1  0
 19 32  1  0
 18 33  1  0
 18 34  1  0
 17 35  2  0
  3 36  1  0
  3 37  1  0
  1 38  1  0
  1 39  1  0
  1 40  1  0
 35  4  1  0
 12  7  1  0
 26 20  1  0
M  END
>  <cnnaffinity>  (1) 
-5.30544

>  <filename>  (1) 
COCc1nc(CCc2cccc(=O)[nH]2)n(-c2cccnc2)n1

$$$$
