
     RDKit          3D

 37 39  0  0  0  0  0  0  0  0999 V2000
    8.2671   -5.8444   23.2748 C   0  0  0  0  0  0  0  0  0  0  0  0
    7.6050   -4.5828   23.0931 O   0  0  0  0  0  0  0  0  0  0  0  0
    8.2359   -3.7766   22.0791 C   0  0  0  0  0  0  0  0  0  0  0  0
    7.7105   -2.3721   21.8699 C   0  0  0  0  0  0  0  0  0  0  0  0
    7.5076   -1.9392   20.6467 N   0  0  0  0  0  0  0  0  0  0  0  0
    7.1136   -0.6591   20.8222 N   0  0  0  0  0  0  0  0  0  0  0  0
    6.5856    0.1189   19.7797 C   0  0  0  0  0  0  0  0  0  0  0  0
    5.5531    1.0437   19.9953 C   0  0  0  0  0  0  0  0  0  0  0  0
    4.9932    1.6778   18.8854 C   0  0  0  0  0  0  0  0  0  0  0  0
    5.4647    1.3870   17.6017 C   0  0  0  0  0  0  0  0  0  0  0  0
    6.4754    0.5239   17.3892 N   0  0  0  0  0  0  0  0  0  0  0  0
    7.0199   -0.0916   18.4586 C   0  0  0  0  0  0  0  0  0  0  0  0
    7.8240   -0.7995   18.2820 H   0  0  0  0  0  0  0  0  0  0  0  0
    5.0056    1.8873   16.7538 H   0  0  0  0  0  0  0  0  0  0  0  0
    4.1844    2.3919   19.0025 H   0  0  0  0  0  0  0  0  0  0  0  0
    5.1449    1.2298   20.9865 H   0  0  0  0  0  0  0  0  0  0  0  0
    7.1587   -0.3514   22.1768 C   0  0  0  0  0  0  0  0  0  0  0  0
    6.8238    0.9957   22.7592 C   0  0  0  0  0  0  0  0  0  0  0  0
    7.9817    1.7317   23.3837 C   0  0  0  0  0  0  0  0  0  0  0  0
    7.7634    2.3566   24.6188 C   0  0  0  0  0  0  0  0  0  0  0  0
    8.7349    3.1935   25.1659 C   0  0  0  0  0  0  0  0  0  0  0  0
    8.3768    4.1011   26.8019 Br  0  0  0  0  0  0  0  0  0  0  0  0
    9.9410    3.3864   24.4885 C   0  0  0  0  0  0  0  0  0  0  0  0
   10.1967    2.7220   23.2808 C   0  0  0  0  0  0  0  0  0  0  0  0
    9.2158    1.8886   22.7222 C   0  0  0  0  0  0  0  0  0  0  0  0
    9.5385    1.0780   21.2074 Cl  0  0  0  0  0  0  0  0  0  0  0  0
   11.1406    2.8757   22.7621 H   0  0  0  0  0  0  0  0  0  0  0  0
   10.6611    4.0809   24.9093 H   0  0  0  0  0  0  0  0  0  0  0  0
    6.8234    2.1996   25.1450 H   0  0  0  0  0  0  0  0  0  0  0  0
    6.4293    1.6415   21.9748 H   0  0  0  0  0  0  0  0  0  0  0  0
    6.0428    0.8512   23.5068 H   0  0  0  0  0  0  0  0  0  0  0  0
    7.5121   -1.4088   22.8564 N   0  0  0  0  0  0  0  0  0  0  0  0
    9.2946   -3.6758   22.3258 H   0  0  0  0  0  0  0  0  0  0  0  0
    8.1348   -4.3048   21.1267 H   0  0  0  0  0  0  0  0  0  0  0  0
    7.5357   -6.5873   23.5865 H   0  0  0  0  0  0  0  0  0  0  0  0
    9.0390   -5.7704   24.0476 H   0  0  0  0  0  0  0  0  0  0  0  0
    8.7353   -6.1957   22.3480 H   0  0  0  0  0  0  0  0  0  0  0  0
  1  2  1  0
  2  3  1  0
  3  4  1  0
  4  5  2  0
  5  6  1  0
  6  7  1  0
  7  8  2  0
  8  9  1  0
  9 10  2  0
 10 11  1  0
 11 12  2  0
 12 13  1  0
 10 14  1  0
  9 15  1  0
  8 16  1  0
  6 17  1  0
 17 18  1  0
 18 19  1  0
 19 20  2  0
 20 21  1  0
 21 22  1  0
 21 23  2  0
 23 24  1  0
 24 25  2  0
 25 26  1  0
 24 27  1  0
 23 28  1  0
 20 29  1  0
 18 30  1  0
 18 31  1  0
 17 32  2  0
  3 33  1  0
  3 34  1  0
  1 35  1  0
  1 36  1  0
  1 37  1  0
 32  4  1  0
 12  7  1  0
 25 19  1  0
M  END
>  <cnnaffinity>  (1) 
-5.77835

>  <filename>  (1) 
COCc1nc(Cc2cc(Br)ccc2Cl)n(-c2cccnc2)n1

$$$$
