
     RDKit          3D

 40 42  0  0  0  0  0  0  0  0999 V2000
    8.3943   -5.6973   23.1384 C   0  0  0  0  0  0  0  0  0  0  0  0
    7.7961   -4.4324   22.9527 O   0  0  0  0  0  0  0  0  0  0  0  0
    8.6054   -3.5517   22.1946 C   0  0  0  0  0  0  0  0  0  0  0  0
    8.0069   -2.1862   21.9721 C   0  0  0  0  0  0  0  0  0  0  0  0
    7.6251   -1.8322   20.7620 N   0  0  0  0  0  0  0  0  0  0  0  0
    7.1565   -0.5768   20.9320 N   0  0  0  0  0  0  0  0  0  0  0  0
    6.5219    0.0942   19.8568 C   0  0  0  0  0  0  0  0  0  0  0  0
    5.3129    0.7774   20.0339 C   0  0  0  0  0  0  0  0  0  0  0  0
    4.7503    1.4032   18.9173 C   0  0  0  0  0  0  0  0  0  0  0  0
    5.4198    1.3393   17.6916 C   0  0  0  0  0  0  0  0  0  0  0  0
    6.5783    0.6763   17.5178 N   0  0  0  0  0  0  0  0  0  0  0  0
    7.1012    0.0528   18.5765 C   0  0  0  0  0  0  0  0  0  0  0  0
    8.0192   -0.5115   18.4203 H   0  0  0  0  0  0  0  0  0  0  0  0
    5.0030    1.8168   16.8082 H   0  0  0  0  0  0  0  0  0  0  0  0
    3.8060    1.9310   18.9902 H   0  0  0  0  0  0  0  0  0  0  0  0
    4.8244    0.7939   21.0085 H   0  0  0  0  0  0  0  0  0  0  0  0
    7.3748   -0.1916   22.2288 C   0  0  0  0  0  0  0  0  0  0  0  0
    7.1918    1.2027   22.7757 C   0  0  0  0  0  0  0  0  0  0  0  0
    8.4524    1.6761   23.5029 C   0  0  0  0  0  0  0  0  0  0  0  0
    9.5442    2.1776   22.7810 C   0  0  0  0  0  0  0  0  0  0  0  0
    9.3982    2.4137   21.0658 Cl  0  0  0  0  0  0  0  0  0  0  0  0
   10.7947    2.4176   23.3634 C   0  0  0  0  0  0  0  0  0  0  0  0
   10.9531    2.1416   24.7195 C   0  0  0  0  0  0  0  0  0  0  0  0
    9.8772    1.6539   25.4710 C   0  0  0  0  0  0  0  0  0  0  0  0
    8.6219    1.4364   24.8851 C   0  0  0  0  0  0  0  0  0  0  0  0
    7.4816    0.8596   25.6859 C   0  0  0  0  0  0  0  0  0  0  0  0
    7.7386    0.7447   26.7413 H   0  0  0  0  0  0  0  0  0  0  0  0
    7.2312   -0.1269   25.2723 H   0  0  0  0  0  0  0  0  0  0  0  0
    6.5933    1.5015   25.6240 H   0  0  0  0  0  0  0  0  0  0  0  0
   10.0147    1.3752   26.5088 H   0  0  0  0  0  0  0  0  0  0  0  0
   11.9247    2.2869   25.1839 H   0  0  0  0  0  0  0  0  0  0  0  0
   11.6172    2.7419   22.7271 H   0  0  0  0  0  0  0  0  0  0  0  0
    6.9479    1.8935   21.9672 H   0  0  0  0  0  0  0  0  0  0  0  0
    6.3337    1.1982   23.4564 H   0  0  0  0  0  0  0  0  0  0  0  0
    7.8768   -1.2074   22.9075 N   0  0  0  0  0  0  0  0  0  0  0  0
    8.7524   -3.9639   21.1838 H   0  0  0  0  0  0  0  0  0  0  0  0
    9.5847   -3.4249   22.6840 H   0  0  0  0  0  0  0  0  0  0  0  0
    9.2084   -5.6546   23.8770 H   0  0  0  0  0  0  0  0  0  0  0  0
    8.7966   -6.1052   22.1974 H   0  0  0  0  0  0  0  0  0  0  0  0
    7.6171   -6.3705   23.5051 H   0  0  0  0  0  0  0  0  0  0  0  0
  1  2  1  0
  2  3  1  0
  3  4  1  0
  4  5  2  0
  5  6  1  0
  6  7  1  0
  7  8  2  0
  8  9  1  0
  9 10  2  0
 10 11  1  0
 11 12  2  0
 12 13  1  0
 10 14  1  0
  9 15  1  0
  8 16  1  0
  6 17  1  0
 17 18  1  0
 18 19  1  0
 19 20  2  0
 20 21  1  0
 20 22  1  0
 22 23  2  0
 23 24  1  0
 24 25  2  0
 25 26  1  0
 26 27  1  0
 26 28  1  0
 26 29  1  0
 24 30  1  0
 23 31  1  0
 22 32  1  0
 18 33  1  0
 18 34  1  0
 17 35  2  0
  3 36  1  0
  3 37  1  0
  1 38  1  0
  1 39  1  0
  1 40  1  0
 35  4  1  0
 12  7  1  0
 25 19  1  0
M  END
>  <cnnaffinity>  (1) 
-5.60334

>  <filename>  (1) 
COCc1nc(Cc2c(C)cccc2Cl)n(-c2cccnc2)n1

$$$$
