
     RDKit          3D

 47 50  0  0  0  0  0  0  0  0999 V2000
    6.3043    2.2404   24.7565 C   0  0  0  0  0  0  0  0  0  0  0  0
    5.4285    1.1442   24.8100 O   0  0  0  0  0  0  0  0  0  0  0  0
    5.4607    0.3691   25.9960 C   0  0  0  0  0  0  0  0  0  0  0  0
    5.2038   -1.0877   25.6559 C   0  0  0  0  0  0  0  0  0  0  0  0
    4.0351   -1.7219   26.0971 C   0  0  0  0  0  0  0  0  0  0  0  0
    3.8066   -3.0758   25.8326 C   0  0  0  0  0  0  0  0  0  0  0  0
    4.7701   -3.8160   25.1432 C   0  0  0  0  0  0  0  0  0  0  0  0
    5.9280   -3.1848   24.6757 C   0  0  0  0  0  0  0  0  0  0  0  0
    6.1382   -1.8135   24.8818 C   0  0  0  0  0  0  0  0  0  0  0  0
    7.3359   -1.1223   24.2369 C   0  0  0  0  0  0  0  0  0  0  0  0
    7.2717   -1.0370   22.7367 C   0  0  0  0  0  0  0  0  0  0  0  0
    6.3949   -0.3280   22.0577 N   0  0  0  0  0  0  0  0  0  0  0  0
    6.8032   -0.4434   20.7716 C   0  0  0  0  0  0  0  0  0  0  0  0
    6.1679    0.2401   19.6392 C   0  0  0  0  0  0  0  0  0  0  0  0
    4.9757    0.9789   19.7198 C   0  0  0  0  0  0  0  0  0  0  0  0
    4.5297    1.6311   18.5683 C   0  0  0  0  0  0  0  0  0  0  0  0
    5.2828    1.5258   17.3921 C   0  0  0  0  0  0  0  0  0  0  0  0
    6.4078    0.7999   17.3002 N   0  0  0  0  0  0  0  0  0  0  0  0
    6.8290    0.1783   18.4043 C   0  0  0  0  0  0  0  0  0  0  0  0
    7.7462   -0.3982   18.3051 H   0  0  0  0  0  0  0  0  0  0  0  0
    4.9748    2.0594   16.4940 H   0  0  0  0  0  0  0  0  0  0  0  0
    3.6376    2.2515   18.5808 H   0  0  0  0  0  0  0  0  0  0  0  0
    4.4297    1.0539   20.6633 H   0  0  0  0  0  0  0  0  0  0  0  0
    7.8955   -1.1761   20.6144 N   0  0  0  0  0  0  0  0  0  0  0  0
    8.1829   -1.5765   21.8777 N   0  0  0  0  0  0  0  0  0  0  0  0
    9.3946   -2.2610   22.2127 C   0  0  0  0  0  0  0  0  0  0  0  0
   10.5734   -1.8490   21.6703 C   0  0  0  0  0  0  0  0  0  0  0  0
   11.8204   -2.3258   22.2127 C   0  0  0  0  0  0  0  0  0  0  0  0
   12.9571   -1.9935   21.9106 O   0  0  0  0  0  0  0  0  0  0  0  0
   11.6882   -3.2676   23.2384 N   0  0  0  0  0  0  0  0  0  0  0  0
   10.5239   -3.7492   23.7471 C   0  0  0  0  0  0  0  0  0  0  0  0
    9.3615   -3.2841   23.2264 C   0  0  0  0  0  0  0  0  0  0  0  0
    8.4253   -3.6528   23.6111 H   0  0  0  0  0  0  0  0  0  0  0  0
   10.5903   -4.4763   24.5560 H   0  0  0  0  0  0  0  0  0  0  0  0
   12.6106   -3.4754   23.5897 H   0  0  0  0  0  0  0  0  0  0  0  0
   10.6356   -1.1093   20.8862 H   0  0  0  0  0  0  0  0  0  0  0  0
    8.2620   -1.5942   24.5642 H   0  0  0  0  0  0  0  0  0  0  0  0
    7.4006   -0.0879   24.5748 H   0  0  0  0  0  0  0  0  0  0  0  0
    6.6585   -3.7805   24.1364 H   0  0  0  0  0  0  0  0  0  0  0  0
    4.6225   -4.8793   24.9689 H   0  0  0  0  0  0  0  0  0  0  0  0
    2.8922   -3.5491   26.1806 H   0  0  0  0  0  0  0  0  0  0  0  0
    3.2982   -1.1444   26.6546 H   0  0  0  0  0  0  0  0  0  0  0  0
    4.7096    0.7423   26.7057 H   0  0  0  0  0  0  0  0  0  0  0  0
    6.4451    0.4588   26.4891 H   0  0  0  0  0  0  0  0  0  0  0  0
    6.4247    2.4913   23.6985 H   0  0  0  0  0  0  0  0  0  0  0  0
    5.9146    3.1161   25.2965 H   0  0  0  0  0  0  0  0  0  0  0  0
    7.2985    1.9927   25.1646 H   0  0  0  0  0  0  0  0  0  0  0  0
  1  2  1  0
  2  3  1  0
  3  4  1  0
  4  5  2  0
  5  6  1  0
  6  7  2  0
  7  8  1  0
  8  9  2  0
  9 10  1  0
 10 11  1  0
 11 12  2  0
 12 13  1  0
 13 14  1  0
 14 15  2  0
 15 16  1  0
 16 17  2  0
 17 18  1  0
 18 19  2  0
 19 20  1  0
 17 21  1  0
 16 22  1  0
 15 23  1  0
 13 24  2  0
 24 25  1  0
 25 26  1  0
 26 27  2  0
 27 28  1  0
 28 29  2  0
 28 30  1  0
 30 31  1  0
 31 32  2  0
 32 33  1  0
 31 34  1  0
 30 35  1  0
 27 36  1  0
 10 37  1  0
 10 38  1  0
  8 39  1  0
  7 40  1  0
  6 41  1  0
  5 42  1  0
  3 43  1  0
  3 44  1  0
  1 45  1  0
  1 46  1  0
  1 47  1  0
  9  4  1  0
 25 11  1  0
 32 26  1  0
 19 14  1  0
M  END
>  <cnnaffinity>  (1) 
-6.01168

>  <filename>  (1) 
COCc1ccccc1Cc1nc(-c2cccnc2)nn1-c1cc[nH]c(=O)c1

$$$$
