
     RDKit          3D

 39 41  0  0  0  0  0  0  0  0999 V2000
    6.7600   -3.1232   25.9087 C   0  0  0  0  0  0  0  0  0  0  0  0
    7.0030   -2.2430   24.8230 O   0  0  0  0  0  0  0  0  0  0  0  0
    7.4188   -2.9450   23.6442 C   0  0  0  0  0  0  0  0  0  0  0  0
    7.6607   -1.9616   22.5330 C   0  0  0  0  0  0  0  0  0  0  0  0
    6.7218   -1.6508   21.6707 N   0  0  0  0  0  0  0  0  0  0  0  0
    7.3179   -0.6965   20.9276 N   0  0  0  0  0  0  0  0  0  0  0  0
    6.6671    0.0064   19.9071 C   0  0  0  0  0  0  0  0  0  0  0  0
    5.4481    0.6416   20.1636 C   0  0  0  0  0  0  0  0  0  0  0  0
    4.8176    1.3070   19.1057 C   0  0  0  0  0  0  0  0  0  0  0  0
    5.4026    1.2948   17.8314 C   0  0  0  0  0  0  0  0  0  0  0  0
    6.5729    0.6800   17.5808 N   0  0  0  0  0  0  0  0  0  0  0  0
    7.1911    0.0602   18.6049 C   0  0  0  0  0  0  0  0  0  0  0  0
    8.1298   -0.4404   18.3985 H   0  0  0  0  0  0  0  0  0  0  0  0
    4.8891    1.7888   17.0125 H   0  0  0  0  0  0  0  0  0  0  0  0
    3.8792    1.8359   19.2638 H   0  0  0  0  0  0  0  0  0  0  0  0
    5.0078    0.6274   21.1620 H   0  0  0  0  0  0  0  0  0  0  0  0
    8.6018   -0.4701   21.4043 C   0  0  0  0  0  0  0  0  0  0  0  0
    9.5390    0.6086   20.9623 C   0  0  0  0  0  0  0  0  0  0  0  0
    9.2202    1.9150   21.7081 C   0  0  0  0  0  0  0  0  0  0  0  0
    9.5033    1.7755   23.1845 C   0  0  0  0  0  0  0  0  0  0  0  0
   10.8229    1.8142   23.6275 C   0  0  0  0  0  0  0  0  0  0  0  0
   11.1112    1.6606   24.9804 C   0  0  0  0  0  0  0  0  0  0  0  0
   10.1581    1.4819   25.9032 N   0  0  0  0  0  0  0  0  0  0  0  0
    8.8786    1.4453   25.4914 C   0  0  0  0  0  0  0  0  0  0  0  0
    8.5010    1.5920   24.1486 C   0  0  0  0  0  0  0  0  0  0  0  0
    6.6393    1.5257   23.6893 Br  0  0  0  0  0  0  0  0  0  0  0  0
    8.0993    1.2955   26.2348 H   0  0  0  0  0  0  0  0  0  0  0  0
   12.1494    1.6890   25.2957 H   0  0  0  0  0  0  0  0  0  0  0  0
   11.6348    1.9538   22.9261 H   0  0  0  0  0  0  0  0  0  0  0  0
    9.8464    2.7125   21.3037 H   0  0  0  0  0  0  0  0  0  0  0  0
    8.1767    2.2024   21.5468 H   0  0  0  0  0  0  0  0  0  0  0  0
    9.4278    0.7585   19.8860 H   0  0  0  0  0  0  0  0  0  0  0  0
   10.5689    0.2948   21.1663 H   0  0  0  0  0  0  0  0  0  0  0  0
    8.8686   -1.2920   22.3727 N   0  0  0  0  0  0  0  0  0  0  0  0
    6.6427   -3.6531   23.3438 H   0  0  0  0  0  0  0  0  0  0  0  0
    8.3337   -3.5058   23.8514 H   0  0  0  0  0  0  0  0  0  0  0  0
    5.9743   -3.8338   25.6391 H   0  0  0  0  0  0  0  0  0  0  0  0
    6.4409   -2.5425   26.7789 H   0  0  0  0  0  0  0  0  0  0  0  0
    7.6737   -3.6714   26.1540 H   0  0  0  0  0  0  0  0  0  0  0  0
  1  2  1  0
  2  3  1  0
  3  4  1  0
  4  5  2  0
  5  6  1  0
  6  7  1  0
  7  8  2  0
  8  9  1  0
  9 10  2  0
 10 11  1  0
 11 12  2  0
 12 13  1  0
 10 14  1  0
  9 15  1  0
  8 16  1  0
  6 17  1  0
 17 18  1  0
 18 19  1  0
 19 20  1  0
 20 21  2  0
 21 22  1  0
 22 23  2  0
 23 24  1  0
 24 25  2  0
 25 26  1  0
 24 27  1  0
 22 28  1  0
 21 29  1  0
 19 30  1  0
 19 31  1  0
 18 32  1  0
 18 33  1  0
 17 34  2  0
  3 35  1  0
  3 36  1  0
  1 37  1  0
  1 38  1  0
  1 39  1  0
 34  4  1  0
 12  7  1  0
 25 20  1  0
M  END
>  <cnnaffinity>  (1) 
-5.65438

>  <filename>  (1) 
COCc1nc(CCc2ccncc2Br)n(-c2cccnc2)n1

$$$$
