
     RDKit          3D

 49 52  0  0  0  0  0  0  0  0999 V2000
   10.3810    3.2929   24.0985 C   0  0  0  0  0  0  0  0  0  0  0  0
   10.1340    1.5961   24.5510 S   0  0  0  0  0  0  0  0  0  0  0  0
   10.9159    1.3673   25.7572 O   0  0  0  0  0  0  0  0  0  0  0  0
   10.4041    0.8164   23.3473 O   0  0  0  0  0  0  0  0  0  0  0  0
    8.3942    1.5174   24.9962 C   0  0  0  0  0  0  0  0  0  0  0  0
    8.0612    1.4913   26.3671 C   0  0  0  0  0  0  0  0  0  0  0  0
    6.7314    1.3626   26.7598 C   0  0  0  0  0  0  0  0  0  0  0  0
    5.7241    1.2382   25.7993 C   0  0  0  0  0  0  0  0  0  0  0  0
    6.0652    1.2652   24.4485 C   0  0  0  0  0  0  0  0  0  0  0  0
    7.3905    1.4334   24.0178 C   0  0  0  0  0  0  0  0  0  0  0  0
    7.6332    1.3299   22.5328 C   0  0  0  0  0  0  0  0  0  0  0  0
    7.5960   -0.1102   22.1274 C   0  0  0  0  0  0  0  0  0  0  0  0
    8.0702   -1.0871   22.8749 N   0  0  0  0  0  0  0  0  0  0  0  0
    8.0817   -2.1560   22.0487 C   0  0  0  0  0  0  0  0  0  0  0  0
    8.6579   -3.4921   22.4633 C   0  0  0  0  0  0  0  0  0  0  0  0
    7.9418   -4.7107   21.8293 C   0  0  0  0  0  0  0  0  0  0  0  0
    8.3413   -5.9095   22.7007 C   0  0  0  0  0  0  0  0  0  0  0  0
    8.6004   -5.3402   24.1177 C   0  0  0  0  0  0  0  0  0  0  0  0
    8.6810   -3.7957   23.9870 C   0  0  0  0  0  0  0  0  0  0  0  0
    9.5956   -3.4011   24.4502 H   0  0  0  0  0  0  0  0  0  0  0  0
    7.8330   -3.3164   24.4937 H   0  0  0  0  0  0  0  0  0  0  0  0
    7.7845   -5.6157   24.7941 H   0  0  0  0  0  0  0  0  0  0  0  0
    9.5061   -5.7560   24.5768 H   0  0  0  0  0  0  0  0  0  0  0  0
    9.2252   -6.3944   22.2771 H   0  0  0  0  0  0  0  0  0  0  0  0
    7.5716   -6.6893   22.7180 H   0  0  0  0  0  0  0  0  0  0  0  0
    8.2270   -4.8471   20.7792 H   0  0  0  0  0  0  0  0  0  0  0  0
    6.8527   -4.5553   21.8689 H   0  0  0  0  0  0  0  0  0  0  0  0
    9.7087   -3.4294   22.1447 H   0  0  0  0  0  0  0  0  0  0  0  0
    7.6202   -1.9082   20.8290 N   0  0  0  0  0  0  0  0  0  0  0  0
    7.2539   -0.6026   20.8993 N   0  0  0  0  0  0  0  0  0  0  0  0
    6.5601    0.0149   19.8222 C   0  0  0  0  0  0  0  0  0  0  0  0
    5.3557    0.7051   20.0242 C   0  0  0  0  0  0  0  0  0  0  0  0
    4.7802    1.3644   18.9342 C   0  0  0  0  0  0  0  0  0  0  0  0
    5.4268    1.3182   17.6978 C   0  0  0  0  0  0  0  0  0  0  0  0
    6.5566    0.6179   17.4888 N   0  0  0  0  0  0  0  0  0  0  0  0
    7.0918   -0.0398   18.5226 C   0  0  0  0  0  0  0  0  0  0  0  0
    7.9854   -0.6260   18.3158 H   0  0  0  0  0  0  0  0  0  0  0  0
    5.0220    1.8470   16.8368 H   0  0  0  0  0  0  0  0  0  0  0  0
    3.8503    1.9130   19.0352 H   0  0  0  0  0  0  0  0  0  0  0  0
    4.8740    0.7192   21.0023 H   0  0  0  0  0  0  0  0  0  0  0  0
    6.8784    1.9044   21.9922 H   0  0  0  0  0  0  0  0  0  0  0  0
    8.6090    1.7127   22.2331 H   0  0  0  0  0  0  0  0  0  0  0  0
    5.2990    1.1131   23.6928 H   0  0  0  0  0  0  0  0  0  0  0  0
    4.6907    1.0896   26.0986 H   0  0  0  0  0  0  0  0  0  0  0  0
    6.4799    1.3467   27.8177 H   0  0  0  0  0  0  0  0  0  0  0  0
    8.8330    1.5505   27.1303 H   0  0  0  0  0  0  0  0  0  0  0  0
    9.8288    3.4815   23.1787 H   0  0  0  0  0  0  0  0  0  0  0  0
   11.4538    3.4100   23.9427 H   0  0  0  0  0  0  0  0  0  0  0  0
   10.0302    3.9101   24.9214 H   0  0  0  0  0  0  0  0  0  0  0  0
  1  2  1  0
  2  3  2  0
  2  4  2  0
  2  5  1  0
  5  6  2  0
  6  7  1  0
  7  8  2  0
  8  9  1  0
  9 10  2  0
 10 11  1  0
 11 12  1  0
 12 13  2  0
 13 14  1  0
 14 15  1  0
 15 16  1  0
 16 17  1  0
 17 18  1  0
 18 19  1  0
 19 20  1  0
 19 21  1  0
 18 22  1  0
 18 23  1  0
 17 24  1  0
 17 25  1  0
 16 26  1  0
 16 27  1  0
 15 28  1  0
 14 29  2  0
 29 30  1  0
 30 31  1  0
 31 32  2  0
 32 33  1  0
 33 34  2  0
 34 35  1  0
 35 36  2  0
 36 37  1  0
 34 38  1  0
 33 39  1  0
 32 40  1  0
 11 41  1  0
 11 42  1  0
  9 43  1  0
  8 44  1  0
  7 45  1  0
  6 46  1  0
  1 47  1  0
  1 48  1  0
  1 49  1  0
 10  5  1  0
 30 12  1  0
 36 31  1  0
 19 15  1  0
M  END
>  <cnnaffinity>  (1) 
-6.48801

>  <filename>  (1) 
CS(=O)(=O)c1ccccc1Cc1nc(C2CCCC2)nn1-c1cccnc1

$$$$
