
     RDKit          3D

 48 51  0  0  0  0  0  0  0  0999 V2000
   11.4032    1.3166   25.0136 C   0  0  0  0  0  0  0  0  0  0  0  0
   11.9759    2.2251   23.5567 S   0  0  0  0  0  0  0  0  0  0  0  0
   13.3896    2.6586   23.7858 O   0  0  0  0  0  0  0  0  0  0  0  0
   12.1098    0.7488   22.5492 C   0  0  0  0  0  0  0  0  0  0  0  0
   13.2406   -0.0579   22.7669 C   0  0  0  0  0  0  0  0  0  0  0  0
   13.3798   -1.2376   22.0444 C   0  0  0  0  0  0  0  0  0  0  0  0
   12.3638   -1.6295   21.1728 C   0  0  0  0  0  0  0  0  0  0  0  0
   11.2154   -0.8457   21.0282 C   0  0  0  0  0  0  0  0  0  0  0  0
   11.1086    0.4091   21.6321 C   0  0  0  0  0  0  0  0  0  0  0  0
    9.9200    1.2945   21.2837 C   0  0  0  0  0  0  0  0  0  0  0  0
    8.7736    1.1300   22.2295 C   0  0  0  0  0  0  0  0  0  0  0  0
    8.6661    1.8010   23.3547 N   0  0  0  0  0  0  0  0  0  0  0  0
    7.5501    1.2871   23.9461 C   0  0  0  0  0  0  0  0  0  0  0  0
    7.0962    1.7380   25.2856 C   0  0  0  0  0  0  0  0  0  0  0  0
    5.9460    1.2055   25.9085 C   0  0  0  0  0  0  0  0  0  0  0  0
    5.5598    1.6645   27.1719 C   0  0  0  0  0  0  0  0  0  0  0  0
    6.3052    2.6508   27.8297 C   0  0  0  0  0  0  0  0  0  0  0  0
    7.4468    3.1786   27.2205 C   0  0  0  0  0  0  0  0  0  0  0  0
    7.8475    2.7208   25.9643 C   0  0  0  0  0  0  0  0  0  0  0  0
    8.7435    3.1216   25.4908 H   0  0  0  0  0  0  0  0  0  0  0  0
    8.0206    3.9543   27.7194 H   0  0  0  0  0  0  0  0  0  0  0  0
    5.9968    3.0046   28.8115 H   0  0  0  0  0  0  0  0  0  0  0  0
    4.6730    1.2544   27.6482 H   0  0  0  0  0  0  0  0  0  0  0  0
    5.3593    0.4316   25.4129 H   0  0  0  0  0  0  0  0  0  0  0  0
    6.9611    0.3492   23.2241 N   0  0  0  0  0  0  0  0  0  0  0  0
    7.7581    0.2384   22.1327 N   0  0  0  0  0  0  0  0  0  0  0  0
    7.3592   -0.6529   21.0467 C   0  0  0  0  0  0  0  0  0  0  0  0
    6.6655    0.0399   19.8925 C   0  0  0  0  0  0  0  0  0  0  0  0
    5.4472    0.6938   20.1180 C   0  0  0  0  0  0  0  0  0  0  0  0
    4.8273    1.3327   19.0442 C   0  0  0  0  0  0  0  0  0  0  0  0
    5.4460    1.2917   17.7905 C   0  0  0  0  0  0  0  0  0  0  0  0
    6.5988    0.6481   17.5475 N   0  0  0  0  0  0  0  0  0  0  0  0
    7.1797    0.0378   18.5879 C   0  0  0  0  0  0  0  0  0  0  0  0
    8.1038   -0.5018   18.3707 H   0  0  0  0  0  0  0  0  0  0  0  0
    4.9895    1.7791   16.9340 H   0  0  0  0  0  0  0  0  0  0  0  0
    3.8851    1.8582   19.1662 H   0  0  0  0  0  0  0  0  0  0  0  0
    5.0134    0.6994   21.1208 H   0  0  0  0  0  0  0  0  0  0  0  0
    6.6797   -1.3686   21.5140 H   0  0  0  0  0  0  0  0  0  0  0  0
    8.2242   -1.2268   20.6996 H   0  0  0  0  0  0  0  0  0  0  0  0
    9.5680    1.0788   20.2708 H   0  0  0  0  0  0  0  0  0  0  0  0
   10.2183    2.3493   21.3160 H   0  0  0  0  0  0  0  0  0  0  0  0
   10.3772   -1.2009   20.4414 H   0  0  0  0  0  0  0  0  0  0  0  0
   12.5347   -2.4931   20.5537 H   0  0  0  0  0  0  0  0  0  0  0  0
   14.2523   -1.8669   22.1874 H   0  0  0  0  0  0  0  0  0  0  0  0
   13.9899    0.2691   23.4880 H   0  0  0  0  0  0  0  0  0  0  0  0
   11.1824    2.0011   25.8240 H   0  0  0  0  0  0  0  0  0  0  0  0
   12.1835    0.6168   25.3252 H   0  0  0  0  0  0  0  0  0  0  0  0
   10.4939    0.7847   24.7341 H   0  0  0  0  0  0  0  0  0  0  0  0
  1  2  1  0
  2  3  2  0
  2  4  1  0
  4  5  2  0
  5  6  1  0
  6  7  2  0
  7  8  1  0
  8  9  2  0
  9 10  1  0
 10 11  1  0
 11 12  2  0
 12 13  1  0
 13 14  1  0
 14 15  2  0
 15 16  1  0
 16 17  2  0
 17 18  1  0
 18 19  2  0
 19 20  1  0
 18 21  1  0
 17 22  1  0
 16 23  1  0
 15 24  1  0
 13 25  2  0
 25 26  1  0
 26 27  1  0
 27 28  1  0
 28 29  2  0
 29 30  1  0
 30 31  2  0
 31 32  1  0
 32 33  2  0
 33 34  1  0
 31 35  1  0
 30 36  1  0
 29 37  1  0
 27 38  1  0
 27 39  1  0
 10 40  1  0
 10 41  1  0
  8 42  1  0
  7 43  1  0
  6 44  1  0
  5 45  1  0
  1 46  1  0
  1 47  1  0
  1 48  1  0
  9  4  1  0
 26 11  1  0
 33 28  1  0
 19 14  1  0
M  END
>  <cnnaffinity>  (1) 
-6.43878

>  <filename>  (1) 
CS(=O)c1ccccc1Cc1nc(-c2ccccc2)nn1Cc1cccnc1

$$$$
