
     RDKit          3D

 33 35  0  0  0  0  0  0  0  0999 V2000
    5.1760    1.5320   17.0132 H   0  0  0  0  0  0  0  0  0  0  0  0
    5.5634    0.9463   17.8475 C   0  0  0  0  0  0  0  0  0  0  0  0
    6.6939    0.2563   17.6117 N   0  0  0  0  0  0  0  0  0  0  0  0
    7.2189   -0.4410   18.6204 C   0  0  0  0  0  0  0  0  0  0  0  0
    8.1512   -0.9640   18.4199 H   0  0  0  0  0  0  0  0  0  0  0  0
    6.6450   -0.4955   19.9063 C   0  0  0  0  0  0  0  0  0  0  0  0
    7.3409   -1.1674   20.9613 N   0  0  0  0  0  0  0  0  0  0  0  0
    8.6831   -0.9761   21.1167 N   0  0  0  0  0  0  0  0  0  0  0  0
    9.0404   -1.6538   22.1369 N   0  0  0  0  0  0  0  0  0  0  0  0
    7.9960   -2.3185   22.6926 N   0  0  0  0  0  0  0  0  0  0  0  0
    6.9619   -1.9987   21.9638 C   0  0  0  0  0  0  0  0  0  0  0  0
    5.7325   -2.5306   22.0184 O   0  0  0  0  0  0  0  0  0  0  0  0
    5.4010   -3.0985   23.2139 C   0  0  0  0  0  0  0  0  0  0  0  0
    4.3986   -2.6779   25.0198 C   0  0  0  0  0  0  0  0  0  0  0  0
    3.4152   -1.8128   25.9917 H   0  0  0  0  0  0  0  0  0  0  0  0
    4.0977   -2.4127   25.2243 C   0  0  0  0  0  0  0  0  0  0  0  0
    3.5403   -2.6016   24.1736 H   0  0  0  0  0  0  0  0  0  0  0  0
    4.5272   -3.8903   25.5648 C   0  0  0  0  0  0  0  0  0  0  0  0
    4.5980   -4.0890   26.6325 H   0  0  0  0  0  0  0  0  0  0  0  0
    4.9799   -4.9692   24.6429 C   0  0  0  0  0  0  0  0  0  0  0  0
    4.8984   -6.5670   25.3174 S   0  0  0  0  0  0  0  0  0  0  0  0
    6.1149   -6.8368   26.0708 O   0  0  0  0  0  0  0  0  0  0  0  0
    3.5891   -6.7542   25.9321 O   0  0  0  0  0  0  0  0  0  0  0  0
    4.9278   -7.6185   23.9072 C   0  0  0  0  0  0  0  0  0  0  0  0
    5.7866   -7.3882   23.2830 H   0  0  0  0  0  0  0  0  0  0  0  0
    5.0268   -8.6077   24.3281 H   0  0  0  0  0  0  0  0  0  0  0  0
    3.9753   -7.4970   23.4038 H   0  0  0  0  0  0  0  0  0  0  0  0
    5.4584   -4.4530   23.4000 C   0  0  0  0  0  0  0  0  0  0  0  0
    5.8756   -5.0507   22.5751 H   0  0  0  0  0  0  0  0  0  0  0  0
    5.4522    0.1939   20.1392 C   0  0  0  0  0  0  0  0  0  0  0  0
    4.9821    0.2083   21.1167 H   0  0  0  0  0  0  0  0  0  0  0  0
    4.9070    0.9362   19.0813 C   0  0  0  0  0  0  0  0  0  0  0  0
    4.0021    1.5265   19.2027 H   0  0  0  0  0  0  0  0  0  0  0  0
  1  2  1  0
  2  3  2  0
  3  4  1  0
  4  5  1  0
  4  6  2  0
  6  7  1  0
  7  8  1  0
  8  9  2  0
  9 10  1  0
 10 11  2  0
 11 12  1  0
 12 13  1  0
 13 14  2  0
 14 15  1  0
 14 16  1  0
 16 17  1  0
 16 18  2  0
 18 19  1  0
 18 20  1  0
 20 21  1  0
 21 22  2  0
 21 23  2  0
 21 24  1  0
 24 25  1  0
 24 26  1  0
 24 27  1  0
 20 28  2  0
 28 29  1  0
  6 30  1  0
 30 31  1  0
 30 32  2  0
 32 33  1  0
 32  2  1  0
 11  7  1  0
 28 13  1  0
M  END
>  <cnnaffinity>  (1) 
-5.23849

>  <filename>  (1) 
CS(=O)(=O)c1cccc(Oc2nnnn2-c2cccnc2)c1

$$$$
