
     RDKit          3D

 42 45  0  0  0  0  0  0  0  0999 V2000
    6.8658    2.2669   23.2458 C   0  0  0  0  0  0  0  0  0  0  0  0
    7.9388    2.7968   21.8889 S   0  0  0  0  0  0  0  0  0  0  0  0
    7.9201    4.2929   21.9892 O   0  0  0  0  0  0  0  0  0  0  0  0
    9.5495    2.2252   22.5266 C   0  0  0  0  0  0  0  0  0  0  0  0
   10.1245    2.9311   23.5922 C   0  0  0  0  0  0  0  0  0  0  0  0
   11.3871    2.5643   24.0643 C   0  0  0  0  0  0  0  0  0  0  0  0
   12.0871    1.5091   23.4754 C   0  0  0  0  0  0  0  0  0  0  0  0
   11.5074    0.8210   22.4068 C   0  0  0  0  0  0  0  0  0  0  0  0
   10.2402    1.1627   21.9217 C   0  0  0  0  0  0  0  0  0  0  0  0
    9.6156    0.3198   20.8345 C   0  0  0  0  0  0  0  0  0  0  0  0
    8.5903   -0.5971   21.3849 C   0  0  0  0  0  0  0  0  0  0  0  0
    8.8284   -1.4434   22.3550 N   0  0  0  0  0  0  0  0  0  0  0  0
    7.6218   -2.0268   22.5533 C   0  0  0  0  0  0  0  0  0  0  0  0
    7.4499   -3.0053   23.6094 C   0  0  0  0  0  0  0  0  0  0  0  0
    8.3867   -3.4628   24.5012 C   0  0  0  0  0  0  0  0  0  0  0  0
    7.8407   -4.4130   25.4078 C   0  0  0  0  0  0  0  0  0  0  0  0
    6.5136   -4.6388   25.1783 C   0  0  0  0  0  0  0  0  0  0  0  0
    5.9040   -3.7111   23.8753 S   0  0  0  0  0  0  0  0  0  0  0  0
    5.8432   -5.3028   25.7046 H   0  0  0  0  0  0  0  0  0  0  0  0
    8.3989   -4.9063   26.1943 H   0  0  0  0  0  0  0  0  0  0  0  0
    9.4146   -3.1124   24.4918 H   0  0  0  0  0  0  0  0  0  0  0  0
    6.6548   -1.6075   21.7515 N   0  0  0  0  0  0  0  0  0  0  0  0
    7.2960   -0.7059   20.9637 N   0  0  0  0  0  0  0  0  0  0  0  0
    6.6313   -0.0267   19.9049 C   0  0  0  0  0  0  0  0  0  0  0  0
    5.4293    0.6341   20.1601 C   0  0  0  0  0  0  0  0  0  0  0  0
    4.8064    1.3140   19.1098 C   0  0  0  0  0  0  0  0  0  0  0  0
    5.3945    1.2929   17.8403 C   0  0  0  0  0  0  0  0  0  0  0  0
    6.5449    0.6525   17.5827 N   0  0  0  0  0  0  0  0  0  0  0  0
    7.1498    0.0199   18.5950 C   0  0  0  0  0  0  0  0  0  0  0  0
    8.1024   -0.4499   18.3545 H   0  0  0  0  0  0  0  0  0  0  0  0
    4.9340    1.8034   16.9969 H   0  0  0  0  0  0  0  0  0  0  0  0
    3.8774    1.8509   19.2570 H   0  0  0  0  0  0  0  0  0  0  0  0
    5.0208    0.5999   21.1704 H   0  0  0  0  0  0  0  0  0  0  0  0
    9.1805    0.9572   20.0669 H   0  0  0  0  0  0  0  0  0  0  0  0
   10.3671   -0.3283   20.3799 H   0  0  0  0  0  0  0  0  0  0  0  0
   12.0326   -0.0072   21.9388 H   0  0  0  0  0  0  0  0  0  0  0  0
   13.0652    1.2186   23.8540 H   0  0  0  0  0  0  0  0  0  0  0  0
   11.8424    3.1270   24.8686 H   0  0  0  0  0  0  0  0  0  0  0  0
    9.5930    3.7856   24.0066 H   0  0  0  0  0  0  0  0  0  0  0  0
    6.8848    1.1829   23.3726 H   0  0  0  0  0  0  0  0  0  0  0  0
    7.1750    2.7854   24.1584 H   0  0  0  0  0  0  0  0  0  0  0  0
    5.8634    2.6119   22.9755 H   0  0  0  0  0  0  0  0  0  0  0  0
  1  2  1  0
  2  3  2  0
  2  4  1  0
  4  5  2  0
  5  6  1  0
  6  7  2  0
  7  8  1  0
  8  9  2  0
  9 10  1  0
 10 11  1  0
 11 12  2  0
 12 13  1  0
 13 14  1  0
 14 15  2  0
 15 16  1  0
 16 17  2  0
 17 18  1  0
 17 19  1  0
 16 20  1  0
 15 21  1  0
 13 22  2  0
 22 23  1  0
 23 24  1  0
 24 25  2  0
 25 26  1  0
 26 27  2  0
 27 28  1  0
 28 29  2  0
 29 30  1  0
 27 31  1  0
 26 32  1  0
 25 33  1  0
 10 34  1  0
 10 35  1  0
  8 36  1  0
  7 37  1  0
  6 38  1  0
  5 39  1  0
  1 40  1  0
  1 41  1  0
  1 42  1  0
  9  4  1  0
 23 11  1  0
 29 24  1  0
 18 14  1  0
M  END
>  <cnnaffinity>  (1) 
-6.39906

>  <filename>  (1) 
CS(=O)c1ccccc1Cc1nc(-c2cccs2)nn1-c1cccnc1

$$$$
