
     RDKit          3D

 37 39  0  0  0  0  0  0  0  0999 V2000
    4.9159    1.7991   16.9841 H   0  0  0  0  0  0  0  0  0  0  0  0
    5.3874    1.3007   17.8291 C   0  0  0  0  0  0  0  0  0  0  0  0
    6.5452    0.6735   17.5649 N   0  0  0  0  0  0  0  0  0  0  0  0
    7.1566    0.0512   18.5778 C   0  0  0  0  0  0  0  0  0  0  0  0
    8.1162   -0.4175   18.3686 H   0  0  0  0  0  0  0  0  0  0  0  0
    6.6395   -0.0049   19.8843 C   0  0  0  0  0  0  0  0  0  0  0  0
    7.3491   -0.6839   20.9363 N   0  0  0  0  0  0  0  0  0  0  0  0
    6.7322   -1.7340   21.5850 C   0  0  0  0  0  0  0  0  0  0  0  0
    5.7215   -1.9468   21.2480 H   0  0  0  0  0  0  0  0  0  0  0  0
    7.3349   -2.4471   22.5849 C   0  0  0  0  0  0  0  0  0  0  0  0
    6.6522   -3.5867   23.2601 C   0  0  0  0  0  0  0  0  0  0  0  0
    5.8876   -4.5027   22.5182 C   0  0  0  0  0  0  0  0  0  0  0  0
    5.8186   -4.3781   21.4402 H   0  0  0  0  0  0  0  0  0  0  0  0
    5.2549   -5.5754   23.1516 C   0  0  0  0  0  0  0  0  0  0  0  0
    4.6651   -6.2715   22.5633 H   0  0  0  0  0  0  0  0  0  0  0  0
    5.3603   -5.7531   24.5324 C   0  0  0  0  0  0  0  0  0  0  0  0
    4.8338   -6.5783   25.0093 H   0  0  0  0  0  0  0  0  0  0  0  0
    6.1224   -4.8414   25.2811 C   0  0  0  0  0  0  0  0  0  0  0  0
    6.2315   -5.0110   27.0616 S   0  0  0  0  0  0  0  0  0  0  0  0
    5.1559   -5.8961   27.4955 O   0  0  0  0  0  0  0  0  0  0  0  0
    6.4302   -3.6859   27.6295 O   0  0  0  0  0  0  0  0  0  0  0  0
    7.7279   -5.8859   27.3581 C   0  0  0  0  0  0  0  0  0  0  0  0
    7.7844   -6.0130   28.4394 H   0  0  0  0  0  0  0  0  0  0  0  0
    8.5628   -5.2970   26.9905 H   0  0  0  0  0  0  0  0  0  0  0  0
    7.6466   -6.8399   26.8548 H   0  0  0  0  0  0  0  0  0  0  0  0
    6.7631   -3.7639   24.6501 C   0  0  0  0  0  0  0  0  0  0  0  0
    7.3220   -3.0147   25.2088 H   0  0  0  0  0  0  0  0  0  0  0  0
    8.6617   -2.0637   22.9674 C   0  0  0  0  0  0  0  0  0  0  0  0
    9.1573   -2.6368   23.7527 H   0  0  0  0  0  0  0  0  0  0  0  0
    9.2933   -1.0300   22.3514 C   0  0  0  0  0  0  0  0  0  0  0  0
   10.2923   -0.6991   22.6012 H   0  0  0  0  0  0  0  0  0  0  0  0
    8.6753   -0.2566   21.2896 C   0  0  0  0  0  0  0  0  0  0  0  0
    9.2268    0.6725   20.7196 O   0  0  0  0  0  0  0  0  0  0  0  0
    5.4283    0.6383   20.1479 C   0  0  0  0  0  0  0  0  0  0  0  0
    5.0278    0.6253   21.1631 H   0  0  0  0  0  0  0  0  0  0  0  0
    4.7984    1.3168   19.0981 C   0  0  0  0  0  0  0  0  0  0  0  0
    3.8698    1.8511   19.2514 H   0  0  0  0  0  0  0  0  0  0  0  0
  1  2  1  0
  2  3  2  0
  3  4  1  0
  4  5  1  0
  4  6  2  0
  6  7  1  0
  7  8  1  0
  8  9  1  0
  8 10  2  0
 10 11  1  0
 11 12  2  0
 12 13  1  0
 12 14  1  0
 14 15  1  0
 14 16  2  0
 16 17  1  0
 16 18  1  0
 18 19  1  0
 19 20  2  0
 19 21  2  0
 19 22  1  0
 22 23  1  0
 22 24  1  0
 22 25  1  0
 18 26  2  0
 26 27  1  0
 10 28  1  0
 28 29  1  0
 28 30  2  0
 30 31  1  0
 30 32  1  0
 32 33  2  0
  6 34  1  0
 34 35  1  0
 34 36  2  0
 36 37  1  0
 36  2  1  0
 32  7  1  0
 26 11  1  0
M  END
>  <cnnaffinity>  (1) 
-5.64551

>  <filename>  (1) 
CS(=O)(=O)c1cccc(-c2ccc(=O)n(-c3cccnc3)c2)c1

$$$$
