
     RDKit          3D

 51 54  0  0  0  0  0  0  0  0999 V2000
   10.1718   -0.6104   25.5517 C   0  0  0  0  0  0  0  0  0  0  0  0
    9.8824    0.9675   24.7560 S   0  0  0  0  0  0  0  0  0  0  0  0
   10.6752    1.9576   25.5462 O   0  0  0  0  0  0  0  0  0  0  0  0
    8.1052    1.1724   25.1220 C   0  0  0  0  0  0  0  0  0  0  0  0
    7.6414    1.2164   26.4487 C   0  0  0  0  0  0  0  0  0  0  0  0
    6.2723    1.3273   26.7054 C   0  0  0  0  0  0  0  0  0  0  0  0
    5.3643    1.4170   25.6465 C   0  0  0  0  0  0  0  0  0  0  0  0
    5.8393    1.4219   24.3311 C   0  0  0  0  0  0  0  0  0  0  0  0
    7.2103    1.3353   24.0459 C   0  0  0  0  0  0  0  0  0  0  0  0
    7.6869    1.3509   22.6002 C   0  0  0  0  0  0  0  0  0  0  0  0
    7.8121   -0.0325   22.0384 C   0  0  0  0  0  0  0  0  0  0  0  0
    8.4660   -1.0130   22.6400 N   0  0  0  0  0  0  0  0  0  0  0  0
    8.3381   -2.0569   21.7797 C   0  0  0  0  0  0  0  0  0  0  0  0
    8.6795   -3.4664   22.1204 C   0  0  0  0  0  0  0  0  0  0  0  0
    7.6494   -4.0998   23.0682 C   0  0  0  0  0  0  0  0  0  0  0  0
    8.0582   -5.4810   23.5764 C   0  0  0  0  0  0  0  0  0  0  0  0
    7.1276   -5.7452   24.7679 C   0  0  0  0  0  0  0  0  0  0  0  0
    6.7737   -4.3545   25.3421 C   0  0  0  0  0  0  0  0  0  0  0  0
    7.4036   -3.3360   24.3766 C   0  0  0  0  0  0  0  0  0  0  0  0
    8.3628   -2.9710   24.7600 H   0  0  0  0  0  0  0  0  0  0  0  0
    6.7880   -2.4440   24.2484 H   0  0  0  0  0  0  0  0  0  0  0  0
    5.6876   -4.2080   25.3912 H   0  0  0  0  0  0  0  0  0  0  0  0
    7.1523   -4.2168   26.3593 H   0  0  0  0  0  0  0  0  0  0  0  0
    6.2150   -6.2441   24.4294 H   0  0  0  0  0  0  0  0  0  0  0  0
    7.5967   -6.4050   25.5062 H   0  0  0  0  0  0  0  0  0  0  0  0
    9.0929   -5.4252   23.9410 H   0  0  0  0  0  0  0  0  0  0  0  0
    8.0381   -6.2573   22.8018 H   0  0  0  0  0  0  0  0  0  0  0  0
    6.6901   -4.1540   22.5284 H   0  0  0  0  0  0  0  0  0  0  0  0
    9.6738   -3.4864   22.5757 H   0  0  0  0  0  0  0  0  0  0  0  0
    8.6834   -4.0277   21.1840 H   0  0  0  0  0  0  0  0  0  0  0  0
    7.7279   -1.7656   20.6556 N   0  0  0  0  0  0  0  0  0  0  0  0
    7.3525   -0.4750   20.8315 N   0  0  0  0  0  0  0  0  0  0  0  0
    6.5979    0.1439   19.8069 C   0  0  0  0  0  0  0  0  0  0  0  0
    5.3740    0.7770   20.0406 C   0  0  0  0  0  0  0  0  0  0  0  0
    4.7522    1.4031   18.9536 C   0  0  0  0  0  0  0  0  0  0  0  0
    5.3708    1.3588   17.7007 C   0  0  0  0  0  0  0  0  0  0  0  0
    6.5130    0.6869   17.4634 N   0  0  0  0  0  0  0  0  0  0  0  0
    7.0900    0.0684   18.4940 C   0  0  0  0  0  0  0  0  0  0  0  0
    7.9854   -0.5185   18.2938 H   0  0  0  0  0  0  0  0  0  0  0  0
    4.9238    1.8493   16.8410 H   0  0  0  0  0  0  0  0  0  0  0  0
    3.8041    1.9148   19.0709 H   0  0  0  0  0  0  0  0  0  0  0  0
    4.9102    0.7492   21.0292 H   0  0  0  0  0  0  0  0  0  0  0  0
    8.6874    1.8005   22.5473 H   0  0  0  0  0  0  0  0  0  0  0  0
    7.0258    1.9594   21.9775 H   0  0  0  0  0  0  0  0  0  0  0  0
    5.1318    1.4895   23.5072 H   0  0  0  0  0  0  0  0  0  0  0  0
    4.2958    1.4672   25.8431 H   0  0  0  0  0  0  0  0  0  0  0  0
    5.9130    1.3140   27.7317 H   0  0  0  0  0  0  0  0  0  0  0  0
    8.3405    1.1654   27.2812 H   0  0  0  0  0  0  0  0  0  0  0  0
    9.8801   -0.5824   26.6055 H   0  0  0  0  0  0  0  0  0  0  0  0
   11.2503   -0.7699   25.4886 H   0  0  0  0  0  0  0  0  0  0  0  0
    9.6355   -1.3740   24.9913 H   0  0  0  0  0  0  0  0  0  0  0  0
  1  2  1  0
  2  3  2  0
  2  4  1  0
  4  5  2  0
  5  6  1  0
  6  7  2  0
  7  8  1  0
  8  9  2  0
  9 10  1  0
 10 11  1  0
 11 12  2  0
 12 13  1  0
 13 14  1  0
 14 15  1  0
 15 16  1  0
 16 17  1  0
 17 18  1  0
 18 19  1  0
 19 20  1  0
 19 21  1  0
 18 22  1  0
 18 23  1  0
 17 24  1  0
 17 25  1  0
 16 26  1  0
 16 27  1  0
 15 28  1  0
 14 29  1  0
 14 30  1  0
 13 31  2  0
 31 32  1  0
 32 33  1  0
 33 34  2  0
 34 35  1  0
 35 36  2  0
 36 37  1  0
 37 38  2  0
 38 39  1  0
 36 40  1  0
 35 41  1  0
 34 42  1  0
 10 43  1  0
 10 44  1  0
  8 45  1  0
  7 46  1  0
  6 47  1  0
  5 48  1  0
  1 49  1  0
  1 50  1  0
  1 51  1  0
  9  4  1  0
 32 11  1  0
 38 33  1  0
 19 15  1  0
M  END
>  <cnnaffinity>  (1) 
-6.60364

>  <filename>  (1) 
CS(=O)c1ccccc1Cc1nc(CC2CCCC2)nn1-c1cccnc1

$$$$
