
     RDKit          3D

 36 39  0  0  0  0  0  0  0  0999 V2000
    4.9393    1.7781   16.9993 H   0  0  0  0  0  0  0  0  0  0  0  0
    5.4059    1.2855   17.8491 C   0  0  0  0  0  0  0  0  0  0  0  0
    6.5691    0.6658   17.6007 N   0  0  0  0  0  0  0  0  0  0  0  0
    7.1731    0.0514   18.6199 C   0  0  0  0  0  0  0  0  0  0  0  0
    8.1220   -0.4293   18.3797 H   0  0  0  0  0  0  0  0  0  0  0  0
    6.6489    0.0091   19.9223 C   0  0  0  0  0  0  0  0  0  0  0  0
    7.3578   -0.6888   20.9991 C   0  0  0  0  0  0  0  0  0  0  0  0
    6.8742   -0.7492   22.2025 N   0  0  0  0  0  0  0  0  0  0  0  0
    7.7126   -1.4600   22.9840 N   0  0  0  0  0  0  0  0  0  0  0  0
    7.6807   -1.9165   24.2975 C   0  0  0  0  0  0  0  0  0  0  0  0
    6.6310   -1.6322   25.2817 C   0  0  0  0  0  0  0  0  0  0  0  0
    6.4617   -2.5095   26.3694 C   0  0  0  0  0  0  0  0  0  0  0  0
    7.1012   -3.3838   26.4518 H   0  0  0  0  0  0  0  0  0  0  0  0
    5.4775   -2.2766   27.3277 C   0  0  0  0  0  0  0  0  0  0  0  0
    5.3617   -2.9697   28.1554 H   0  0  0  0  0  0  0  0  0  0  0  0
    4.6378   -1.1660   27.2293 C   0  0  0  0  0  0  0  0  0  0  0  0
    3.8578   -1.0206   27.9768 H   0  0  0  0  0  0  0  0  0  0  0  0
    4.8103   -0.2774   26.1541 C   0  0  0  0  0  0  0  0  0  0  0  0
    3.7138    1.1305   25.9869 S   0  0  0  0  0  0  0  0  0  0  0  0
    3.6195    1.4998   24.5800 O   0  0  0  0  0  0  0  0  0  0  0  0
    2.5282    0.8873   26.7987 O   0  0  0  0  0  0  0  0  0  0  0  0
    4.5576    2.4771   26.7424 C   0  0  0  0  0  0  0  0  0  0  0  0
    4.7249    2.2442   27.7899 H   0  0  0  0  0  0  0  0  0  0  0  0
    5.4758    2.6429   26.1845 H   0  0  0  0  0  0  0  0  0  0  0  0
    3.8773    3.3208   26.6235 H   0  0  0  0  0  0  0  0  0  0  0  0
    5.7967   -0.5036   25.1823 C   0  0  0  0  0  0  0  0  0  0  0  0
    5.9358    0.1419   24.3186 H   0  0  0  0  0  0  0  0  0  0  0  0
    8.8375   -2.6597   24.3923 C   0  0  0  0  0  0  0  0  0  0  0  0
    9.2064   -3.1782   25.2685 H   0  0  0  0  0  0  0  0  0  0  0  0
    9.5603   -2.6910   23.2302 N   0  0  0  0  0  0  0  0  0  0  0  0
    8.8439   -1.9645   22.4150 C   0  0  0  0  0  0  0  0  0  0  0  0
    8.9102   -1.5025   20.7529 S   0  0  0  0  0  0  0  0  0  0  0  0
    5.4246    0.6570   20.1701 C   0  0  0  0  0  0  0  0  0  0  0  0
    4.9884    0.6434   21.1714 H   0  0  0  0  0  0  0  0  0  0  0  0
    4.8024    1.3099   19.1098 C   0  0  0  0  0  0  0  0  0  0  0  0
    3.8714    1.8451   19.2479 H   0  0  0  0  0  0  0  0  0  0  0  0
  1  2  1  0
  2  3  2  0
  3  4  1  0
  4  5  1  0
  4  6  2  0
  6  7  1  0
  7  8  2  0
  8  9  1  0
  9 10  1  0
 10 11  1  0
 11 12  2  0
 12 13  1  0
 12 14  1  0
 14 15  1  0
 14 16  2  0
 16 17  1  0
 16 18  1  0
 18 19  1  0
 19 20  2  0
 19 21  2  0
 19 22  1  0
 22 23  1  0
 22 24  1  0
 22 25  1  0
 18 26  2  0
 26 27  1  0
 10 28  2  0
 28 29  1  0
 28 30  1  0
 30 31  2  0
 31 32  1  0
  6 33  1  0
 33 34  1  0
 33 35  2  0
 35 36  1  0
 35  2  1  0
 32  7  1  0
 31  9  1  0
 26 11  1  0
M  END
>  <cnnaffinity>  (1) 
-5.3325

>  <filename>  (1) 
CS(=O)(=O)c1cccc(-c2cnc3sc(-c4cccnc4)nn23)c1

$$$$
