
     RDKit          3D

 38 40  0  0  0  0  0  0  0  0999 V2000
    6.6110   -1.2389   21.7255 H   0  0  0  0  0  0  0  0  0  0  0  0
    7.2645   -0.6763   21.0554 C   0  0  0  0  0  0  0  0  0  0  0  0
    8.5530   -0.4897   21.3996 C   0  0  0  0  0  0  0  0  0  0  0  0
    9.3550   -1.1379   22.4717 C   0  0  0  0  0  0  0  0  0  0  0  0
    8.8575   -2.3199   23.2254 C   0  0  0  0  0  0  0  0  0  0  0  0
    9.0696   -2.4708   24.6044 C   0  0  0  0  0  0  0  0  0  0  0  0
    9.6333   -1.7105   25.1467 H   0  0  0  0  0  0  0  0  0  0  0  0
    8.5545   -3.5976   25.2514 C   0  0  0  0  0  0  0  0  0  0  0  0
    8.7085   -3.7046   26.3217 H   0  0  0  0  0  0  0  0  0  0  0  0
    7.8616   -4.5895   24.5439 C   0  0  0  0  0  0  0  0  0  0  0  0
    7.4951   -5.4620   25.0829 H   0  0  0  0  0  0  0  0  0  0  0  0
    7.6871   -4.4391   23.1586 C   0  0  0  0  0  0  0  0  0  0  0  0
    6.8451   -5.6328   22.1293 S   0  0  0  0  0  0  0  0  0  0  0  0
    7.4703   -5.6097   20.8069 O   0  0  0  0  0  0  0  0  0  0  0  0
    6.6844   -6.8715   22.8691 O   0  0  0  0  0  0  0  0  0  0  0  0
    5.2220   -4.9879   21.8707 C   0  0  0  0  0  0  0  0  0  0  0  0
    4.7455   -4.7609   22.8190 H   0  0  0  0  0  0  0  0  0  0  0  0
    4.7178   -5.8116   21.3708 H   0  0  0  0  0  0  0  0  0  0  0  0
    5.2712   -4.1151   21.2245 H   0  0  0  0  0  0  0  0  0  0  0  0
    8.1810   -3.3103   22.5070 C   0  0  0  0  0  0  0  0  0  0  0  0
    8.0917   -3.2059   21.4279 H   0  0  0  0  0  0  0  0  0  0  0  0
   10.5143   -0.6205   22.6475 N   0  0  0  0  0  0  0  0  0  0  0  0
   10.6939    0.5022   21.7168 C   0  0  0  0  0  0  0  0  0  0  0  0
   10.7744    1.4187   22.3122 H   0  0  0  0  0  0  0  0  0  0  0  0
   11.6379    0.3771   21.1784 H   0  0  0  0  0  0  0  0  0  0  0  0
    9.4644    0.5306   20.7713 C   0  0  0  0  0  0  0  0  0  0  0  0
    9.7099    0.1866   19.7648 H   0  0  0  0  0  0  0  0  0  0  0  0
    8.9864    1.5108   20.6858 H   0  0  0  0  0  0  0  0  0  0  0  0
    6.5729   -0.0491   19.9057 C   0  0  0  0  0  0  0  0  0  0  0  0
    7.1089    0.0025   18.6022 C   0  0  0  0  0  0  0  0  0  0  0  0
    8.0406   -0.5145   18.3792 H   0  0  0  0  0  0  0  0  0  0  0  0
    6.5516    0.6582   17.5730 N   0  0  0  0  0  0  0  0  0  0  0  0
    5.4047    1.3119   17.8083 C   0  0  0  0  0  0  0  0  0  0  0  0
    4.9887    1.8731   16.9712 H   0  0  0  0  0  0  0  0  0  0  0  0
    4.7554    1.2933   19.0482 C   0  0  0  0  0  0  0  0  0  0  0  0
    3.8351    1.8501   19.1756 H   0  0  0  0  0  0  0  0  0  0  0  0
    5.3357    0.5892   20.1037 C   0  0  0  0  0  0  0  0  0  0  0  0
    4.8735    0.5719   21.0914 H   0  0  0  0  0  0  0  0  0  0  0  0
  1  2  1  0
  2  3  2  3
  3  4  1  0
  4  5  1  0
  5  6  2  0
  6  7  1  0
  6  8  1  0
  8  9  1  0
  8 10  2  0
 10 11  1  0
 10 12  1  0
 12 13  1  0
 13 14  2  0
 13 15  2  0
 13 16  1  0
 16 17  1  0
 16 18  1  0
 16 19  1  0
 12 20  2  0
 20 21  1  0
  4 22  2  0
 22 23  1  0
 23 24  1  0
 23 25  1  0
 23 26  1  0
 26 27  1  0
 26 28  1  0
  2 29  1  0
 29 30  2  0
 30 31  1  0
 30 32  1  0
 32 33  2  0
 33 34  1  0
 33 35  1  0
 35 36  1  0
 35 37  2  0
 37 38  1  0
 26  3  1  0
 37 29  1  0
 20  5  1  0
M  END
>  <cnnaffinity>  (1) 
-5.91274

>  <filename>  (1) 
CS(=O)(=O)c1cccc(C2=NCCC2=Cc2cccnc2)c1

$$$$
