
     RDKit          3D

 36 38  0  0  0  0  0  0  0  0999 V2000
    4.9225    1.8073   16.9770 H   0  0  0  0  0  0  0  0  0  0  0  0
    5.3880    1.2976   17.8187 C   0  0  0  0  0  0  0  0  0  0  0  0
    6.5496    0.6736   17.5596 N   0  0  0  0  0  0  0  0  0  0  0  0
    7.1559    0.0640   18.5848 C   0  0  0  0  0  0  0  0  0  0  0  0
    8.1018   -0.4259   18.3446 H   0  0  0  0  0  0  0  0  0  0  0  0
    6.6582    0.0456   19.9020 C   0  0  0  0  0  0  0  0  0  0  0  0
    7.3651   -0.6709   21.0124 C   0  0  0  0  0  0  0  0  0  0  0  0
    7.7363   -0.0888   22.2549 C   0  0  0  0  0  0  0  0  0  0  0  0
    7.5418    1.3653   22.5259 C   0  0  0  0  0  0  0  0  0  0  0  0
    7.9740    2.3429   21.6099 C   0  0  0  0  0  0  0  0  0  0  0  0
    8.4104    2.0376   20.6634 H   0  0  0  0  0  0  0  0  0  0  0  0
    7.7902    3.6972   21.8963 C   0  0  0  0  0  0  0  0  0  0  0  0
    8.1644    4.4745   21.2396 H   0  0  0  0  0  0  0  0  0  0  0  0
    7.1095    4.0958   23.0405 C   0  0  0  0  0  0  0  0  0  0  0  0
    6.9221    5.1567   23.1995 H   0  0  0  0  0  0  0  0  0  0  0  0
    6.6757    3.1174   23.9462 C   0  0  0  0  0  0  0  0  0  0  0  0
    5.8304    3.6255   25.4308 S   0  0  0  0  0  0  0  0  0  0  0  0
    5.3379    4.9846   25.2465 O   0  0  0  0  0  0  0  0  0  0  0  0
    4.9558    2.5412   25.8661 O   0  0  0  0  0  0  0  0  0  0  0  0
    7.0932    3.7454   26.6491 C   0  0  0  0  0  0  0  0  0  0  0  0
    6.5404    4.0540   27.5359 H   0  0  0  0  0  0  0  0  0  0  0  0
    7.7964    4.5110   26.3230 H   0  0  0  0  0  0  0  0  0  0  0  0
    7.5346    2.7566   26.7694 H   0  0  0  0  0  0  0  0  0  0  0  0
    6.8895    1.7568   23.7003 C   0  0  0  0  0  0  0  0  0  0  0  0
    6.5343    0.9855   24.3851 H   0  0  0  0  0  0  0  0  0  0  0  0
    8.2771   -0.8155   23.2500 N   0  0  0  0  0  0  0  0  0  0  0  0
    8.5629   -2.0996   23.0275 C   0  0  0  0  0  0  0  0  0  0  0  0
    9.0297   -2.6378   23.8514 H   0  0  0  0  0  0  0  0  0  0  0  0
    8.2534   -2.7531   21.8324 C   0  0  0  0  0  0  0  0  0  0  0  0
    8.5020   -3.7972   21.7134 H   0  0  0  0  0  0  0  0  0  0  0  0
    7.5972   -2.0339   20.8392 C   0  0  0  0  0  0  0  0  0  0  0  0
    7.1785   -2.4890   19.9456 H   0  0  0  0  0  0  0  0  0  0  0  0
    5.4314    0.6766   20.1396 C   0  0  0  0  0  0  0  0  0  0  0  0
    5.0180    0.6563   21.1496 H   0  0  0  0  0  0  0  0  0  0  0  0
    4.7874    1.3156   19.0817 C   0  0  0  0  0  0  0  0  0  0  0  0
    3.8545    1.8496   19.2259 H   0  0  0  0  0  0  0  0  0  0  0  0
  1  2  1  0
  2  3  2  0
  3  4  1  0
  4  5  1  0
  4  6  2  0
  6  7  1  0
  7  8  1  0
  8  9  1  0
  9 10  2  0
 10 11  1  0
 10 12  1  0
 12 13  1  0
 12 14  2  0
 14 15  1  0
 14 16  1  0
 16 17  1  0
 17 18  2  0
 17 19  2  0
 17 20  1  0
 20 21  1  0
 20 22  1  0
 20 23  1  0
 16 24  2  0
 24 25  1  0
  8 26  2  0
 26 27  1  0
 27 28  1  0
 27 29  2  0
 29 30  1  0
 29 31  1  0
 31 32  1  0
  6 33  1  0
 33 34  1  0
 33 35  2  0
 35 36  1  0
 35  2  1  0
 31  7  2  0
 24  9  1  0
M  END
>  <cnnaffinity>  (1) 
-4.9027

>  <filename>  (1) 
CS(=O)(=O)c1cccc(-c2ncccc2-c2cccnc2)c1

$$$$
