
     RDKit          3D

 49 52  0  0  0  0  0  0  0  0999 V2000
    7.8040    4.5441   21.9053 C   0  0  0  0  0  0  0  0  0  0  0  0
    7.7844    2.7427   22.1387 S   0  0  0  0  0  0  0  0  0  0  0  0
    7.0468    2.6151   23.4466 O   0  0  0  0  0  0  0  0  0  0  0  0
    9.5347    2.3574   22.5085 C   0  0  0  0  0  0  0  0  0  0  0  0
   10.1330    3.0385   23.5826 C   0  0  0  0  0  0  0  0  0  0  0  0
   11.4137    2.6926   24.0118 C   0  0  0  0  0  0  0  0  0  0  0  0
   12.0949    1.6291   23.4181 C   0  0  0  0  0  0  0  0  0  0  0  0
   11.4832    0.9336   22.3761 C   0  0  0  0  0  0  0  0  0  0  0  0
   10.2087    1.2788   21.8997 C   0  0  0  0  0  0  0  0  0  0  0  0
    9.5971    0.3831   20.8392 C   0  0  0  0  0  0  0  0  0  0  0  0
    8.5692   -0.5457   21.3905 C   0  0  0  0  0  0  0  0  0  0  0  0
    8.7995   -1.3745   22.3906 N   0  0  0  0  0  0  0  0  0  0  0  0
    7.6036   -2.0043   22.5498 C   0  0  0  0  0  0  0  0  0  0  0  0
    7.3830   -2.9878   23.6717 C   0  0  0  0  0  0  0  0  0  0  0  0
    8.4991   -4.0803   23.7581 C   0  0  0  0  0  0  0  0  0  0  0  0
    9.5442   -3.7404   24.8272 C   0  0  0  0  0  0  0  0  0  0  0  0
    8.9758   -3.6146   26.1257 O   0  0  0  0  0  0  0  0  0  0  0  0
    7.6416   -3.1224   26.2090 C   0  0  0  0  0  0  0  0  0  0  0  0
    7.2703   -2.2236   25.0309 C   0  0  0  0  0  0  0  0  0  0  0  0
    6.2628   -1.8162   25.1616 H   0  0  0  0  0  0  0  0  0  0  0  0
    7.9637   -1.3701   25.0263 H   0  0  0  0  0  0  0  0  0  0  0  0
    6.9417   -3.9710   26.2694 H   0  0  0  0  0  0  0  0  0  0  0  0
    7.5779   -2.5824   27.1591 H   0  0  0  0  0  0  0  0  0  0  0  0
   10.3013   -4.5274   24.9066 H   0  0  0  0  0  0  0  0  0  0  0  0
   10.0635   -2.8083   24.5530 H   0  0  0  0  0  0  0  0  0  0  0  0
    8.0502   -5.0477   24.0188 H   0  0  0  0  0  0  0  0  0  0  0  0
    8.9969   -4.2168   22.7926 H   0  0  0  0  0  0  0  0  0  0  0  0
    6.4308   -3.4792   23.4467 H   0  0  0  0  0  0  0  0  0  0  0  0
    6.6676   -1.6318   21.7041 N   0  0  0  0  0  0  0  0  0  0  0  0
    7.2982   -0.7095   20.9260 N   0  0  0  0  0  0  0  0  0  0  0  0
    6.6159   -0.0261   19.8793 C   0  0  0  0  0  0  0  0  0  0  0  0
    5.4099    0.6334   20.1412 C   0  0  0  0  0  0  0  0  0  0  0  0
    4.7976    1.3179   19.0896 C   0  0  0  0  0  0  0  0  0  0  0  0
    5.3906    1.3020   17.8234 C   0  0  0  0  0  0  0  0  0  0  0  0
    6.5328    0.6499   17.5587 N   0  0  0  0  0  0  0  0  0  0  0  0
    7.1288    0.0093   18.5691 C   0  0  0  0  0  0  0  0  0  0  0  0
    8.0684   -0.4953   18.3332 H   0  0  0  0  0  0  0  0  0  0  0  0
    4.9330    1.8287   16.9893 H   0  0  0  0  0  0  0  0  0  0  0  0
    3.8754    1.8639   19.2442 H   0  0  0  0  0  0  0  0  0  0  0  0
    4.9927    0.6055   21.1493 H   0  0  0  0  0  0  0  0  0  0  0  0
    9.1878    0.9627   20.0107 H   0  0  0  0  0  0  0  0  0  0  0  0
   10.3784   -0.2659   20.4332 H   0  0  0  0  0  0  0  0  0  0  0  0
   12.0001    0.0941   21.9160 H   0  0  0  0  0  0  0  0  0  0  0  0
   13.0696    1.3155   23.7832 H   0  0  0  0  0  0  0  0  0  0  0  0
   11.8760    3.2359   24.8242 H   0  0  0  0  0  0  0  0  0  0  0  0
    9.5972    3.8261   24.1077 H   0  0  0  0  0  0  0  0  0  0  0  0
    8.1817    5.0458   22.7967 H   0  0  0  0  0  0  0  0  0  0  0  0
    8.3641    4.8636   21.0350 H   0  0  0  0  0  0  0  0  0  0  0  0
    6.7559    4.8371   21.7837 H   0  0  0  0  0  0  0  0  0  0  0  0
  1  2  1  0
  2  3  2  0
  2  4  1  0
  4  5  2  0
  5  6  1  0
  6  7  2  0
  7  8  1  0
  8  9  2  0
  9 10  1  0
 10 11  1  0
 11 12  2  0
 12 13  1  0
 13 14  1  0
 14 15  1  0
 15 16  1  0
 16 17  1  0
 17 18  1  0
 18 19  1  0
 19 20  1  0
 19 21  1  0
 18 22  1  0
 18 23  1  0
 16 24  1  0
 16 25  1  0
 15 26  1  0
 15 27  1  0
 14 28  1  0
 13 29  2  0
 29 30  1  0
 30 31  1  0
 31 32  2  0
 32 33  1  0
 33 34  2  0
 34 35  1  0
 35 36  2  0
 36 37  1  0
 34 38  1  0
 33 39  1  0
 32 40  1  0
 10 41  1  0
 10 42  1  0
  8 43  1  0
  7 44  1  0
  6 45  1  0
  5 46  1  0
  1 47  1  0
  1 48  1  0
  1 49  1  0
  9  4  1  0
 30 11  1  0
 36 31  1  0
 19 14  1  0
M  END
>  <cnnaffinity>  (1) 
-6.22032

>  <filename>  (1) 
CS(=O)c1ccccc1Cc1nc(C2CCOCC2)nn1-c1cccnc1

$$$$
