
     RDKit          3D

 30 31  0  0  0  0  0  0  0  0999 V2000
    6.9262   -0.6601   21.9753 H   0  0  0  0  0  0  0  0  0  0  0  0
    7.3873   -0.7246   20.9818 C   0  0  0  0  0  0  0  0  0  0  0  0
    8.4843   -1.3450   20.8004 N   0  0  0  0  0  0  0  0  0  0  0  0
    9.1994   -1.9083   21.8808 C   0  0  0  0  0  0  0  0  0  0  0  0
   10.5912   -1.9735   21.7157 C   0  0  0  0  0  0  0  0  0  0  0  0
   11.0222   -1.4764   20.8499 H   0  0  0  0  0  0  0  0  0  0  0  0
   11.3677   -2.6519   22.6540 C   0  0  0  0  0  0  0  0  0  0  0  0
   12.4370   -2.7323   22.4985 H   0  0  0  0  0  0  0  0  0  0  0  0
   10.7874   -3.2646   23.7735 C   0  0  0  0  0  0  0  0  0  0  0  0
   11.4018   -3.8579   24.4525 H   0  0  0  0  0  0  0  0  0  0  0  0
    9.4106   -3.1278   23.9890 C   0  0  0  0  0  0  0  0  0  0  0  0
    8.6858   -3.7869   25.5053 S   0  0  0  0  0  0  0  0  0  0  0  0
    7.2817   -4.0918   25.2573 O   0  0  0  0  0  0  0  0  0  0  0  0
    9.6069   -4.7677   26.0678 O   0  0  0  0  0  0  0  0  0  0  0  0
    8.6673   -2.4157   26.6140 C   0  0  0  0  0  0  0  0  0  0  0  0
    8.1794   -2.8088   27.5016 H   0  0  0  0  0  0  0  0  0  0  0  0
    9.6782   -2.1014   26.8423 H   0  0  0  0  0  0  0  0  0  0  0  0
    8.0863   -1.6138   26.1662 H   0  0  0  0  0  0  0  0  0  0  0  0
    8.6125   -2.4498   23.0440 C   0  0  0  0  0  0  0  0  0  0  0  0
    7.5340   -2.3794   23.1561 H   0  0  0  0  0  0  0  0  0  0  0  0
    6.6724   -0.0258   19.9118 C   0  0  0  0  0  0  0  0  0  0  0  0
    7.1945    0.0220   18.6062 C   0  0  0  0  0  0  0  0  0  0  0  0
    8.1379   -0.4671   18.3800 H   0  0  0  0  0  0  0  0  0  0  0  0
    6.5972    0.6529   17.5943 N   0  0  0  0  0  0  0  0  0  0  0  0
    5.4383    1.2780   17.8489 C   0  0  0  0  0  0  0  0  0  0  0  0
    4.9701    1.7866   17.0090 H   0  0  0  0  0  0  0  0  0  0  0  0
    4.8339    1.2924   19.1105 C   0  0  0  0  0  0  0  0  0  0  0  0
    3.8998    1.8213   19.2501 H   0  0  0  0  0  0  0  0  0  0  0  0
    5.4608    0.6343   20.1636 C   0  0  0  0  0  0  0  0  0  0  0  0
    5.0244    0.6434   21.1652 H   0  0  0  0  0  0  0  0  0  0  0  0
  1  2  1  0
  2  3  2  3
  3  4  1  0
  4  5  2  0
  5  6  1  0
  5  7  1  0
  7  8  1  0
  7  9  2  0
  9 10  1  0
  9 11  1  0
 11 12  1  0
 12 13  2  0
 12 14  2  0
 12 15  1  0
 15 16  1  0
 15 17  1  0
 15 18  1  0
 11 19  2  0
 19 20  1  0
  2 21  1  0
 21 22  2  0
 22 23  1  0
 22 24  1  0
 24 25  2  0
 25 26  1  0
 25 27  1  0
 27 28  1  0
 27 29  2  0
 29 30  1  0
 19  4  1  0
 29 21  1  0
M  END
>  <cnnaffinity>  (1) 
-4.91492

>  <filename>  (1) 
CS(=O)(=O)c1cccc(N=Cc2cccnc2)c1

$$$$
