
     RDKit          3D

 39 41  0  0  0  0  0  0  0  0999 V2000
    4.9445    1.7943   16.9920 H   0  0  0  0  0  0  0  0  0  0  0  0
    5.4053    1.2826   17.8352 C   0  0  0  0  0  0  0  0  0  0  0  0
    6.5606    0.6497   17.5845 N   0  0  0  0  0  0  0  0  0  0  0  0
    7.1532    0.0162   18.6057 C   0  0  0  0  0  0  0  0  0  0  0  0
    8.1140   -0.4431   18.3712 H   0  0  0  0  0  0  0  0  0  0  0  0
    6.6424   -0.0389   19.9113 C   0  0  0  0  0  0  0  0  0  0  0  0
    7.3468   -0.8306   20.9970 C   0  0  0  0  0  0  0  0  0  0  0  0
    6.8418   -2.1886   20.9534 N   0  0  0  0  0  0  0  0  0  0  0  0
    6.3763   -2.4294   20.0969 H   0  0  0  0  0  0  0  0  0  0  0  0
    6.6356   -3.0371   22.0564 C   0  0  0  0  0  0  0  0  0  0  0  0
    7.6895   -3.4197   22.8993 C   0  0  0  0  0  0  0  0  0  0  0  0
    8.6837   -3.0549   22.6756 H   0  0  0  0  0  0  0  0  0  0  0  0
    7.4580   -4.2461   24.0051 C   0  0  0  0  0  0  0  0  0  0  0  0
    8.2841   -4.5248   24.6530 H   0  0  0  0  0  0  0  0  0  0  0  0
    6.1765   -4.7190   24.2896 C   0  0  0  0  0  0  0  0  0  0  0  0
    6.0241   -5.3730   25.1490 H   0  0  0  0  0  0  0  0  0  0  0  0
    5.1129   -4.3542   23.4463 C   0  0  0  0  0  0  0  0  0  0  0  0
    3.4588   -4.9904   23.7707 S   0  0  0  0  0  0  0  0  0  0  0  0
    2.7320   -5.0286   22.5061 O   0  0  0  0  0  0  0  0  0  0  0  0
    3.5717   -6.1690   24.6203 O   0  0  0  0  0  0  0  0  0  0  0  0
    2.6574   -3.7677   24.7587 C   0  0  0  0  0  0  0  0  0  0  0  0
    2.6186   -2.8341   24.2058 H   0  0  0  0  0  0  0  0  0  0  0  0
    1.6599   -4.1813   24.9166 H   0  0  0  0  0  0  0  0  0  0  0  0
    3.2098   -3.6781   25.6913 H   0  0  0  0  0  0  0  0  0  0  0  0
    5.3464   -3.5319   22.3255 C   0  0  0  0  0  0  0  0  0  0  0  0
    4.5554   -3.2317   21.6456 H   0  0  0  0  0  0  0  0  0  0  0  0
    8.9047   -0.7399   20.9941 C   0  0  0  0  0  0  0  0  0  0  0  0
    9.4026   -1.7095   20.8823 H   0  0  0  0  0  0  0  0  0  0  0  0
    9.3004   -0.0673   20.2276 H   0  0  0  0  0  0  0  0  0  0  0  0
    8.8838   -0.1293   22.4209 C   0  0  0  0  0  0  0  0  0  0  0  0
    9.3340   -0.7552   23.2027 H   0  0  0  0  0  0  0  0  0  0  0  0
    9.3340    0.8661   22.5010 H   0  0  0  0  0  0  0  0  0  0  0  0
    7.3324   -0.1420   22.3957 C   0  0  0  0  0  0  0  0  0  0  0  0
    6.8849    0.8553   22.3654 H   0  0  0  0  0  0  0  0  0  0  0  0
    6.8236   -0.7249   23.1711 H   0  0  0  0  0  0  0  0  0  0  0  0
    5.4268    0.6276   20.1458 C   0  0  0  0  0  0  0  0  0  0  0  0
    4.9948    0.6393   21.1492 H   0  0  0  0  0  0  0  0  0  0  0  0
    4.8002    1.2986   19.0965 C   0  0  0  0  0  0  0  0  0  0  0  0
    3.8774    1.8499   19.2460 H   0  0  0  0  0  0  0  0  0  0  0  0
  1  2  1  0
  2  3  2  0
  3  4  1  0
  4  5  1  0
  4  6  2  0
  6  7  1  0
  7  8  1  0
  8  9  1  0
  8 10  1  0
 10 11  2  0
 11 12  1  0
 11 13  1  0
 13 14  1  0
 13 15  2  0
 15 16  1  0
 15 17  1  0
 17 18  1  0
 18 19  2  0
 18 20  2  0
 18 21  1  0
 21 22  1  0
 21 23  1  0
 21 24  1  0
 17 25  2  0
 25 26  1  0
  7 27  1  0
 27 28  1  0
 27 29  1  0
 27 30  1  0
 30 31  1  0
 30 32  1  0
 30 33  1  0
 33 34  1  0
 33 35  1  0
  6 36  1  0
 36 37  1  0
 36 38  2  0
 38 39  1  0
 38  2  1  0
 33  7  1  0
 25 10  1  0
M  END
>  <cnnaffinity>  (1) 
-5.28671

>  <filename>  (1) 
CS(=O)(=O)c1cccc(NC2(c3cccnc3)CCC2)c1

$$$$
