
     RDKit          3D

 46 49  0  0  0  0  0  0  0  0999 V2000
    6.2392   -0.8385   25.3878 C   0  0  0  0  0  0  0  0  0  0  0  0
    6.1622    0.9250   25.8129 S   0  0  0  0  0  0  0  0  0  0  0  0
    5.0882    1.5354   24.9518 O   0  0  0  0  0  0  0  0  0  0  0  0
    7.8112    1.3260   25.1568 C   0  0  0  0  0  0  0  0  0  0  0  0
    8.8851    1.2598   26.0609 C   0  0  0  0  0  0  0  0  0  0  0  0
   10.1739    1.5852   25.6341 C   0  0  0  0  0  0  0  0  0  0  0  0
   10.3876    2.0390   24.3300 C   0  0  0  0  0  0  0  0  0  0  0  0
    9.3224    2.0548   23.4291 C   0  0  0  0  0  0  0  0  0  0  0  0
    8.0389    1.6251   23.8002 C   0  0  0  0  0  0  0  0  0  0  0  0
    7.0853    1.2440   22.6924 C   0  0  0  0  0  0  0  0  0  0  0  0
    7.4011   -0.1355   22.1943 C   0  0  0  0  0  0  0  0  0  0  0  0
    7.9796   -1.1021   22.8924 N   0  0  0  0  0  0  0  0  0  0  0  0
    8.1384   -2.1005   21.9894 C   0  0  0  0  0  0  0  0  0  0  0  0
    8.6763   -3.4735   22.3167 C   0  0  0  0  0  0  0  0  0  0  0  0
    7.7241   -4.3604   23.1663 C   0  0  0  0  0  0  0  0  0  0  0  0
    8.6993   -5.1951   24.0102 C   0  0  0  0  0  0  0  0  0  0  0  0
    9.8632   -4.2216   24.2030 C   0  0  0  0  0  0  0  0  0  0  0  0
    9.9188   -3.4439   23.0144 O   0  0  0  0  0  0  0  0  0  0  0  0
   10.8411   -4.6992   24.3221 H   0  0  0  0  0  0  0  0  0  0  0  0
    9.7037   -3.5663   25.0748 H   0  0  0  0  0  0  0  0  0  0  0  0
    8.2833   -5.5331   24.9663 H   0  0  0  0  0  0  0  0  0  0  0  0
    9.0231   -6.0904   23.4662 H   0  0  0  0  0  0  0  0  0  0  0  0
    7.1122   -3.7155   23.8121 H   0  0  0  0  0  0  0  0  0  0  0  0
    7.0480   -4.9613   22.5444 H   0  0  0  0  0  0  0  0  0  0  0  0
    8.8363   -3.9178   21.3309 H   0  0  0  0  0  0  0  0  0  0  0  0
    7.6796   -1.8222   20.7827 N   0  0  0  0  0  0  0  0  0  0  0  0
    7.1827   -0.5676   20.9179 N   0  0  0  0  0  0  0  0  0  0  0  0
    6.5221    0.0682   19.8342 C   0  0  0  0  0  0  0  0  0  0  0  0
    5.3190    0.7608   20.0106 C   0  0  0  0  0  0  0  0  0  0  0  0
    4.7605    1.4011   18.9010 C   0  0  0  0  0  0  0  0  0  0  0  0
    5.4201    1.3238   17.6704 C   0  0  0  0  0  0  0  0  0  0  0  0
    6.5553    0.6225   17.4889 N   0  0  0  0  0  0  0  0  0  0  0  0
    7.0793   -0.0052   18.5459 C   0  0  0  0  0  0  0  0  0  0  0  0
    7.9882   -0.5807   18.3793 H   0  0  0  0  0  0  0  0  0  0  0  0
    5.0182    1.8282   16.7944 H   0  0  0  0  0  0  0  0  0  0  0  0
    3.8414    1.9699   18.9940 H   0  0  0  0  0  0  0  0  0  0  0  0
    4.8397    0.7958   20.9899 H   0  0  0  0  0  0  0  0  0  0  0  0
    6.0532    1.2719   23.0438 H   0  0  0  0  0  0  0  0  0  0  0  0
    7.1676    1.9448   21.8562 H   0  0  0  0  0  0  0  0  0  0  0  0
    9.4965    2.3513   22.3970 H   0  0  0  0  0  0  0  0  0  0  0  0
   11.3732    2.3482   23.9964 H   0  0  0  0  0  0  0  0  0  0  0  0
   11.0079    1.4805   26.3157 H   0  0  0  0  0  0  0  0  0  0  0  0
    8.7102    0.9381   27.0868 H   0  0  0  0  0  0  0  0  0  0  0  0
    6.0351   -0.9464   24.3195 H   0  0  0  0  0  0  0  0  0  0  0  0
    5.4956   -1.3775   25.9777 H   0  0  0  0  0  0  0  0  0  0  0  0
    7.2427   -1.2147   25.6097 H   0  0  0  0  0  0  0  0  0  0  0  0
  1  2  1  0
  2  3  2  0
  2  4  1  0
  4  5  2  0
  5  6  1  0
  6  7  2  0
  7  8  1  0
  8  9  2  0
  9 10  1  0
 10 11  1  0
 11 12  2  0
 12 13  1  0
 13 14  1  0
 14 15  1  0
 15 16  1  0
 16 17  1  0
 17 18  1  0
 17 19  1  0
 17 20  1  0
 16 21  1  0
 16 22  1  0
 15 23  1  0
 15 24  1  0
 14 25  1  0
 13 26  2  0
 26 27  1  0
 27 28  1  0
 28 29  2  0
 29 30  1  0
 30 31  2  0
 31 32  1  0
 32 33  2  0
 33 34  1  0
 31 35  1  0
 30 36  1  0
 29 37  1  0
 10 38  1  0
 10 39  1  0
  8 40  1  0
  7 41  1  0
  6 42  1  0
  5 43  1  0
  1 44  1  0
  1 45  1  0
  1 46  1  0
  9  4  1  0
 27 11  1  0
 33 28  1  0
 18 14  1  0
M  END
>  <cnnaffinity>  (1) 
-6.15836

>  <filename>  (1) 
CS(=O)c1ccccc1Cc1nc(C2CCCO2)nn1-c1cccnc1

$$$$
