
     RDKit          3D

 49 52  0  0  0  0  0  0  0  0999 V2000
    6.0572   -0.6975   25.5308 C   0  0  0  0  0  0  0  0  0  0  0  0
    6.1642    1.0428   25.7490 S   0  0  0  0  0  0  0  0  0  0  0  0
    5.1336    1.6429   24.9082 O   0  0  0  0  0  0  0  0  0  0  0  0
    6.1456    1.2837   27.1858 O   0  0  0  0  0  0  0  0  0  0  0  0
    7.8131    1.3829   25.1208 C   0  0  0  0  0  0  0  0  0  0  0  0
    8.8973    1.2956   26.0219 C   0  0  0  0  0  0  0  0  0  0  0  0
   10.1919    1.5356   25.5707 C   0  0  0  0  0  0  0  0  0  0  0  0
   10.4209    1.9404   24.2525 C   0  0  0  0  0  0  0  0  0  0  0  0
    9.3445    1.9873   23.3656 C   0  0  0  0  0  0  0  0  0  0  0  0
    8.0444    1.6314   23.7583 C   0  0  0  0  0  0  0  0  0  0  0  0
    7.0781    1.2670   22.6571 C   0  0  0  0  0  0  0  0  0  0  0  0
    7.3039   -0.1380   22.1781 C   0  0  0  0  0  0  0  0  0  0  0  0
    7.9138   -1.1201   22.8288 N   0  0  0  0  0  0  0  0  0  0  0  0
    8.0171   -2.1050   21.9026 C   0  0  0  0  0  0  0  0  0  0  0  0
    8.7599   -3.3859   22.0928 C   0  0  0  0  0  0  0  0  0  0  0  0
    8.0391   -4.5134   22.8421 C   0  0  0  0  0  0  0  0  0  0  0  0
    7.4714   -4.1958   24.2521 C   0  0  0  0  0  0  0  0  0  0  0  0
    6.0301   -4.2849   23.6820 C   0  0  0  0  0  0  0  0  0  0  0  0
    6.6032   -4.8256   22.3444 C   0  0  0  0  0  0  0  0  0  0  0  0
    6.4222   -5.8960   22.1929 H   0  0  0  0  0  0  0  0  0  0  0  0
    6.2948   -4.3007   21.4307 H   0  0  0  0  0  0  0  0  0  0  0  0
    5.5491   -3.3028   23.5863 H   0  0  0  0  0  0  0  0  0  0  0  0
    5.3441   -4.9531   24.2165 H   0  0  0  0  0  0  0  0  0  0  0  0
    7.7707   -3.2359   24.6978 H   0  0  0  0  0  0  0  0  0  0  0  0
    7.6972   -4.9826   24.9824 H   0  0  0  0  0  0  0  0  0  0  0  0
    8.7044   -5.3841   22.8390 H   0  0  0  0  0  0  0  0  0  0  0  0
    8.9618   -3.7196   21.0719 H   0  0  0  0  0  0  0  0  0  0  0  0
    9.7164   -3.1610   22.5816 H   0  0  0  0  0  0  0  0  0  0  0  0
    7.5104   -1.7946   20.7244 N   0  0  0  0  0  0  0  0  0  0  0  0
    7.0036   -0.5494   20.9124 N   0  0  0  0  0  0  0  0  0  0  0  0
    6.3928    0.1316   19.8281 C   0  0  0  0  0  0  0  0  0  0  0  0
    5.2045    0.8632   19.9553 C   0  0  0  0  0  0  0  0  0  0  0  0
    4.6940    1.4875   18.8101 C   0  0  0  0  0  0  0  0  0  0  0  0
    5.3892    1.3738   17.6040 C   0  0  0  0  0  0  0  0  0  0  0  0
    6.5206    0.6601   17.4781 N   0  0  0  0  0  0  0  0  0  0  0  0
    6.9972    0.0467   18.5624 C   0  0  0  0  0  0  0  0  0  0  0  0
    7.9036   -0.5404   18.4372 H   0  0  0  0  0  0  0  0  0  0  0  0
    5.0335    1.8658   16.7000 H   0  0  0  0  0  0  0  0  0  0  0  0
    3.7838    2.0745   18.8432 H   0  0  0  0  0  0  0  0  0  0  0  0
    4.6844    0.9408   20.9113 H   0  0  0  0  0  0  0  0  0  0  0  0
    7.2396    1.9284   21.8040 H   0  0  0  0  0  0  0  0  0  0  0  0
    6.0408    1.3856   22.9649 H   0  0  0  0  0  0  0  0  0  0  0  0
    9.5056    2.2644   22.3274 H   0  0  0  0  0  0  0  0  0  0  0  0
   11.4151    2.1978   23.8974 H   0  0  0  0  0  0  0  0  0  0  0  0
   11.0220    1.3842   26.2508 H   0  0  0  0  0  0  0  0  0  0  0  0
    8.7500    1.0649   27.0764 H   0  0  0  0  0  0  0  0  0  0  0  0
    6.1438   -0.8964   24.4664 H   0  0  0  0  0  0  0  0  0  0  0  0
    5.1019   -1.0259   25.9297 H   0  0  0  0  0  0  0  0  0  0  0  0
    6.8998   -1.1201   26.0714 H   0  0  0  0  0  0  0  0  0  0  0  0
  1  2  1  0
  2  3  2  0
  2  4  2  0
  2  5  1  0
  5  6  2  0
  6  7  1  0
  7  8  2  0
  8  9  1  0
  9 10  2  0
 10 11  1  0
 11 12  1  0
 12 13  2  0
 13 14  1  0
 14 15  1  0
 15 16  1  0
 16 17  1  0
 17 18  1  0
 18 19  1  0
 19 20  1  0
 19 21  1  0
 18 22  1  0
 18 23  1  0
 17 24  1  0
 17 25  1  0
 16 26  1  0
 15 27  1  0
 15 28  1  0
 14 29  2  0
 29 30  1  0
 30 31  1  0
 31 32  2  0
 32 33  1  0
 33 34  2  0
 34 35  1  0
 35 36  2  0
 36 37  1  0
 34 38  1  0
 33 39  1  0
 32 40  1  0
 11 41  1  0
 11 42  1  0
  9 43  1  0
  8 44  1  0
  7 45  1  0
  6 46  1  0
  1 47  1  0
  1 48  1  0
  1 49  1  0
 10  5  1  0
 30 12  1  0
 36 31  1  0
 19 16  1  0
M  END
>  <cnnaffinity>  (1) 
-6.06054

>  <filename>  (1) 
CS(=O)(=O)c1ccccc1Cc1nc(CC2CCC2)nn1-c1cccnc1

$$$$
