
     RDKit          3D

 45 48  0  0  0  0  0  0  0  0999 V2000
    8.0983    1.9429   23.2232 C   0  0  0  0  0  0  0  0  0  0  0  0
    9.3791    2.7610   22.2434 S   0  0  0  0  0  0  0  0  0  0  0  0
    8.8571    2.7615   20.8332 O   0  0  0  0  0  0  0  0  0  0  0  0
   10.7071    1.5287   22.3670 C   0  0  0  0  0  0  0  0  0  0  0  0
   11.7067    1.8353   23.2933 C   0  0  0  0  0  0  0  0  0  0  0  0
   12.8404    1.0277   23.4043 C   0  0  0  0  0  0  0  0  0  0  0  0
   12.9644   -0.1045   22.5911 C   0  0  0  0  0  0  0  0  0  0  0  0
   11.9394   -0.4322   21.6935 C   0  0  0  0  0  0  0  0  0  0  0  0
   10.7967    0.3779   21.5571 C   0  0  0  0  0  0  0  0  0  0  0  0
    9.6632   -0.0321   20.6446 C   0  0  0  0  0  0  0  0  0  0  0  0
    8.5555   -0.7041   21.3778 C   0  0  0  0  0  0  0  0  0  0  0  0
    8.6942   -1.4114   22.4712 N   0  0  0  0  0  0  0  0  0  0  0  0
    7.4659   -1.9668   22.6596 C   0  0  0  0  0  0  0  0  0  0  0  0
    7.2330   -2.9233   23.7595 C   0  0  0  0  0  0  0  0  0  0  0  0
    8.3186   -3.3147   24.5706 C   0  0  0  0  0  0  0  0  0  0  0  0
    8.1428   -4.2206   25.6114 C   0  0  0  0  0  0  0  0  0  0  0  0
    6.8705   -4.7388   25.8343 C   0  0  0  0  0  0  0  0  0  0  0  0
    6.6933   -5.6048   26.8425 F   0  0  0  0  0  0  0  0  0  0  0  0
    5.7771   -4.3857   25.0455 C   0  0  0  0  0  0  0  0  0  0  0  0
    5.9602   -3.4759   24.0039 C   0  0  0  0  0  0  0  0  0  0  0  0
    5.1174   -3.1927   23.3755 H   0  0  0  0  0  0  0  0  0  0  0  0
    4.8102   -4.8241   25.2643 H   0  0  0  0  0  0  0  0  0  0  0  0
    8.9666   -4.5263   26.2482 H   0  0  0  0  0  0  0  0  0  0  0  0
    9.3067   -2.9036   24.3732 H   0  0  0  0  0  0  0  0  0  0  0  0
    6.5635   -1.6061   21.7646 N   0  0  0  0  0  0  0  0  0  0  0  0
    7.2647   -0.8003   20.9252 N   0  0  0  0  0  0  0  0  0  0  0  0
    6.5949   -0.1091   19.8761 C   0  0  0  0  0  0  0  0  0  0  0  0
    5.4047    0.5786   20.1407 C   0  0  0  0  0  0  0  0  0  0  0  0
    4.8166    1.2995   19.0983 C   0  0  0  0  0  0  0  0  0  0  0  0
    5.4246    1.2915   17.8354 C   0  0  0  0  0  0  0  0  0  0  0  0
    6.5461    0.6067   17.5641 N   0  0  0  0  0  0  0  0  0  0  0  0
    7.1106   -0.0776   18.5665 C   0  0  0  0  0  0  0  0  0  0  0  0
    8.0298   -0.6122   18.3310 H   0  0  0  0  0  0  0  0  0  0  0  0
    4.9898    1.8480   17.0082 H   0  0  0  0  0  0  0  0  0  0  0  0
    3.9038    1.8643   19.2556 H   0  0  0  0  0  0  0  0  0  0  0  0
    4.9701    0.5394   21.1422 H   0  0  0  0  0  0  0  0  0  0  0  0
    9.2764    0.8431   20.1317 H   0  0  0  0  0  0  0  0  0  0  0  0
   10.0027   -0.7348   19.8844 H   0  0  0  0  0  0  0  0  0  0  0  0
   12.0275   -1.3348   21.0821 H   0  0  0  0  0  0  0  0  0  0  0  0
   13.8462   -0.7385   22.6694 H   0  0  0  0  0  0  0  0  0  0  0  0
   13.6267    1.2976   24.1054 H   0  0  0  0  0  0  0  0  0  0  0  0
   11.5984    2.7300   23.9027 H   0  0  0  0  0  0  0  0  0  0  0  0
    7.3868    1.4915   22.5274 H   0  0  0  0  0  0  0  0  0  0  0  0
    8.5298    1.1850   23.8772 H   0  0  0  0  0  0  0  0  0  0  0  0
    7.5820    2.7013   23.8177 H   0  0  0  0  0  0  0  0  0  0  0  0
  1  2  1  0
  2  3  2  0
  2  4  1  0
  4  5  2  0
  5  6  1  0
  6  7  2  0
  7  8  1  0
  8  9  2  0
  9 10  1  0
 10 11  1  0
 11 12  2  0
 12 13  1  0
 13 14  1  0
 14 15  2  0
 15 16  1  0
 16 17  2  0
 17 18  1  0
 17 19  1  0
 19 20  2  0
 20 21  1  0
 19 22  1  0
 16 23  1  0
 15 24  1  0
 13 25  2  0
 25 26  1  0
 26 27  1  0
 27 28  2  0
 28 29  1  0
 29 30  2  0
 30 31  1  0
 31 32  2  0
 32 33  1  0
 30 34  1  0
 29 35  1  0
 28 36  1  0
 10 37  1  0
 10 38  1  0
  8 39  1  0
  7 40  1  0
  6 41  1  0
  5 42  1  0
  1 43  1  0
  1 44  1  0
  1 45  1  0
  9  4  1  0
 26 11  1  0
 32 27  1  0
 20 14  1  0
M  END
>  <cnnaffinity>  (1) 
-6.54648

>  <filename>  (1) 
CS(=O)c1ccccc1Cc1nc(-c2ccc(F)cc2)nn1-c1cccnc1

$$$$
