
     RDKit          3D

 48 51  0  0  0  0  0  0  0  0999 V2000
   10.0493    1.5755   21.1912 C   0  0  0  0  0  0  0  0  0  0  0  0
    9.5629    3.0512   22.1416 S   0  0  0  0  0  0  0  0  0  0  0  0
    8.2612    3.5657   21.6016 O   0  0  0  0  0  0  0  0  0  0  0  0
    9.2333    2.1730   23.6699 C   0  0  0  0  0  0  0  0  0  0  0  0
   10.2906    2.1146   24.5777 C   0  0  0  0  0  0  0  0  0  0  0  0
   10.0939    1.5008   25.8115 C   0  0  0  0  0  0  0  0  0  0  0  0
    8.8370    0.9981   26.1571 C   0  0  0  0  0  0  0  0  0  0  0  0
    7.7931    1.0623   25.2323 C   0  0  0  0  0  0  0  0  0  0  0  0
    8.0088    1.5358   23.9268 C   0  0  0  0  0  0  0  0  0  0  0  0
    7.0492    1.1259   22.8285 C   0  0  0  0  0  0  0  0  0  0  0  0
    7.4321   -0.1963   22.2175 C   0  0  0  0  0  0  0  0  0  0  0  0
    8.0584   -1.1780   22.8407 N   0  0  0  0  0  0  0  0  0  0  0  0
    8.1523   -2.1454   21.9018 C   0  0  0  0  0  0  0  0  0  0  0  0
    8.7351   -3.4864   22.1549 C   0  0  0  0  0  0  0  0  0  0  0  0
    7.7798   -4.4276   22.8934 C   0  0  0  0  0  0  0  0  0  0  0  0
    6.4793   -4.7970   22.1342 C   0  0  0  0  0  0  0  0  0  0  0  0
    6.7586   -6.2920   22.4115 C   0  0  0  0  0  0  0  0  0  0  0  0
    8.1758   -5.9261   22.9043 C   0  0  0  0  0  0  0  0  0  0  0  0
    8.9651   -6.1570   22.1797 H   0  0  0  0  0  0  0  0  0  0  0  0
    8.4703   -6.3571   23.8635 H   0  0  0  0  0  0  0  0  0  0  0  0
    6.6917   -6.9765   21.5639 H   0  0  0  0  0  0  0  0  0  0  0  0
    6.1319   -6.6981   23.2150 H   0  0  0  0  0  0  0  0  0  0  0  0
    6.5328   -4.5181   21.0751 H   0  0  0  0  0  0  0  0  0  0  0  0
    5.5348   -4.4077   22.5215 H   0  0  0  0  0  0  0  0  0  0  0  0
    7.5501   -4.0504   23.8983 H   0  0  0  0  0  0  0  0  0  0  0  0
    8.9170   -3.8872   21.1584 H   0  0  0  0  0  0  0  0  0  0  0  0
    9.6855   -3.3839   22.6895 H   0  0  0  0  0  0  0  0  0  0  0  0
    7.6534   -1.8275   20.7243 N   0  0  0  0  0  0  0  0  0  0  0  0
    7.1643   -0.5783   20.9253 N   0  0  0  0  0  0  0  0  0  0  0  0
    6.5152    0.0827   19.8519 C   0  0  0  0  0  0  0  0  0  0  0  0
    5.3068    0.7691   20.0288 C   0  0  0  0  0  0  0  0  0  0  0  0
    4.7481    1.4072   18.9165 C   0  0  0  0  0  0  0  0  0  0  0  0
    5.4087    1.3424   17.6864 C   0  0  0  0  0  0  0  0  0  0  0  0
    6.5513    0.6557   17.5038 N   0  0  0  0  0  0  0  0  0  0  0  0
    7.0758    0.0312   18.5626 C   0  0  0  0  0  0  0  0  0  0  0  0
    7.9805   -0.5450   18.3785 H   0  0  0  0  0  0  0  0  0  0  0  0
    5.0061    1.8492   16.8107 H   0  0  0  0  0  0  0  0  0  0  0  0
    3.8223    1.9668   19.0020 H   0  0  0  0  0  0  0  0  0  0  0  0
    4.8167    0.7943   21.0030 H   0  0  0  0  0  0  0  0  0  0  0  0
    7.0089    1.8866   22.0481 H   0  0  0  0  0  0  0  0  0  0  0  0
    6.0461    1.0192   23.2552 H   0  0  0  0  0  0  0  0  0  0  0  0
    6.8137    0.6622   25.4771 H   0  0  0  0  0  0  0  0  0  0  0  0
    8.6962    0.5077   27.1165 H   0  0  0  0  0  0  0  0  0  0  0  0
   10.9179    1.4121   26.4993 H   0  0  0  0  0  0  0  0  0  0  0  0
   11.2534    2.5304   24.2901 H   0  0  0  0  0  0  0  0  0  0  0  0
    9.1883    1.2519   20.5981 H   0  0  0  0  0  0  0  0  0  0  0  0
   10.8922    1.8305   20.5422 H   0  0  0  0  0  0  0  0  0  0  0  0
   10.3522    0.7744   21.8740 H   0  0  0  0  0  0  0  0  0  0  0  0
  1  2  1  0
  2  3  2  0
  2  4  1  0
  4  5  2  0
  5  6  1  0
  6  7  2  0
  7  8  1  0
  8  9  2  0
  9 10  1  0
 10 11  1  0
 11 12  2  0
 12 13  1  0
 13 14  1  0
 14 15  1  0
 15 16  1  0
 16 17  1  0
 17 18  1  0
 18 19  1  0
 18 20  1  0
 17 21  1  0
 17 22  1  0
 16 23  1  0
 16 24  1  0
 15 25  1  0
 14 26  1  0
 14 27  1  0
 13 28  2  0
 28 29  1  0
 29 30  1  0
 30 31  2  0
 31 32  1  0
 32 33  2  0
 33 34  1  0
 34 35  2  0
 35 36  1  0
 33 37  1  0
 32 38  1  0
 31 39  1  0
 10 40  1  0
 10 41  1  0
  8 42  1  0
  7 43  1  0
  6 44  1  0
  5 45  1  0
  1 46  1  0
  1 47  1  0
  1 48  1  0
  9  4  1  0
 29 11  1  0
 35 30  1  0
 18 15  1  0
M  END
>  <cnnaffinity>  (1) 
-6.14103

>  <filename>  (1) 
CS(=O)c1ccccc1Cc1nc(CC2CCC2)nn1-c1cccnc1

$$$$
