
     RDKit          3D

 42 45  0  0  0  0  0  0  0  0999 V2000
   12.8454    1.4881   22.0891 C   0  0  0  0  0  0  0  0  0  0  0  0
   11.8572    0.7956   23.4213 S   0  0  0  0  0  0  0  0  0  0  0  0
   11.5741   -0.6085   22.9798 O   0  0  0  0  0  0  0  0  0  0  0  0
   10.4229    1.8550   23.0907 C   0  0  0  0  0  0  0  0  0  0  0  0
   10.3091    2.9579   23.9444 C   0  0  0  0  0  0  0  0  0  0  0  0
    9.2279    3.8281   23.8260 C   0  0  0  0  0  0  0  0  0  0  0  0
    8.2882    3.6241   22.8130 C   0  0  0  0  0  0  0  0  0  0  0  0
    8.4483    2.5638   21.9169 C   0  0  0  0  0  0  0  0  0  0  0  0
    9.5195    1.6560   22.0250 C   0  0  0  0  0  0  0  0  0  0  0  0
    9.5598    0.4957   21.0291 C   0  0  0  0  0  0  0  0  0  0  0  0
    8.5758   -0.5622   21.4069 C   0  0  0  0  0  0  0  0  0  0  0  0
    8.7649   -1.4279   22.3708 N   0  0  0  0  0  0  0  0  0  0  0  0
    7.5695   -2.0766   22.4719 C   0  0  0  0  0  0  0  0  0  0  0  0
    7.3798   -3.1333   23.4938 C   0  0  0  0  0  0  0  0  0  0  0  0
    6.2486   -3.8293   23.6539 N   0  0  0  0  0  0  0  0  0  0  0  0
    6.4957   -4.6441   24.6725 N   0  0  0  0  0  0  0  0  0  0  0  0
    7.7403   -4.5174   25.1858 C   0  0  0  0  0  0  0  0  0  0  0  0
    8.3524   -3.5446   24.4451 C   0  0  0  0  0  0  0  0  0  0  0  0
    9.3533   -3.1551   24.5537 H   0  0  0  0  0  0  0  0  0  0  0  0
    8.0717   -5.1248   26.0176 H   0  0  0  0  0  0  0  0  0  0  0  0
    5.7539   -5.2511   24.9858 H   0  0  0  0  0  0  0  0  0  0  0  0
    6.6582   -1.6550   21.6093 N   0  0  0  0  0  0  0  0  0  0  0  0
    7.3122   -0.7018   20.9035 N   0  0  0  0  0  0  0  0  0  0  0  0
    6.6368   -0.0110   19.8537 C   0  0  0  0  0  0  0  0  0  0  0  0
    5.4265    0.6355   20.1195 C   0  0  0  0  0  0  0  0  0  0  0  0
    4.8039    1.3253   19.0770 C   0  0  0  0  0  0  0  0  0  0  0  0
    5.3925    1.3202   17.8079 C   0  0  0  0  0  0  0  0  0  0  0  0
    6.5361    0.6726   17.5381 N   0  0  0  0  0  0  0  0  0  0  0  0
    7.1402    0.0213   18.5411 C   0  0  0  0  0  0  0  0  0  0  0  0
    8.0659   -0.4972   18.2884 H   0  0  0  0  0  0  0  0  0  0  0  0
    4.9243    1.8433   16.9777 H   0  0  0  0  0  0  0  0  0  0  0  0
    3.8753    1.8590   19.2351 H   0  0  0  0  0  0  0  0  0  0  0  0
    5.0048    0.5877   21.1245 H   0  0  0  0  0  0  0  0  0  0  0  0
   10.5311    0.0005   21.0095 H   0  0  0  0  0  0  0  0  0  0  0  0
    9.3448    0.8565   20.0188 H   0  0  0  0  0  0  0  0  0  0  0  0
    7.7236    2.4346   21.1145 H   0  0  0  0  0  0  0  0  0  0  0  0
    7.4128    4.2657   22.7477 H   0  0  0  0  0  0  0  0  0  0  0  0
    9.1083    4.6386   24.5382 H   0  0  0  0  0  0  0  0  0  0  0  0
   11.0887    3.1415   24.6776 H   0  0  0  0  0  0  0  0  0  0  0  0
   13.2631    2.4599   22.3521 H   0  0  0  0  0  0  0  0  0  0  0  0
   13.6353    0.7589   21.9022 H   0  0  0  0  0  0  0  0  0  0  0  0
   12.2134    1.5826   21.2002 H   0  0  0  0  0  0  0  0  0  0  0  0
  1  2  1  0
  2  3  2  0
  2  4  1  0
  4  5  2  0
  5  6  1  0
  6  7  2  0
  7  8  1  0
  8  9  2  0
  9 10  1  0
 10 11  1  0
 11 12  2  0
 12 13  1  0
 13 14  1  0
 14 15  2  0
 15 16  1  0
 16 17  1  0
 17 18  2  0
 18 19  1  0
 17 20  1  0
 16 21  1  0
 13 22  2  0
 22 23  1  0
 23 24  1  0
 24 25  2  0
 25 26  1  0
 26 27  2  0
 27 28  1  0
 28 29  2  0
 29 30  1  0
 27 31  1  0
 26 32  1  0
 25 33  1  0
 10 34  1  0
 10 35  1  0
  8 36  1  0
  7 37  1  0
  6 38  1  0
  5 39  1  0
  1 40  1  0
  1 41  1  0
  1 42  1  0
  9  4  1  0
 23 11  1  0
 29 24  1  0
 18 14  1  0
M  END
>  <cnnaffinity>  (1) 
-6.7425

>  <filename>  (1) 
CS(=O)c1ccccc1Cc1nc(-c2cc[nH]n2)nn1-c1cccnc1

$$$$
