
     RDKit          3D

 46 49  0  0  0  0  0  0  0  0999 V2000
   12.9483    1.4574   22.0789 C   0  0  0  0  0  0  0  0  0  0  0  0
   11.8599    0.8788   23.3292 S   0  0  0  0  0  0  0  0  0  0  0  0
   12.4621    1.2318   24.6112 O   0  0  0  0  0  0  0  0  0  0  0  0
   11.5915   -0.5171   23.0046 O   0  0  0  0  0  0  0  0  0  0  0  0
   10.4303    1.9150   23.0525 C   0  0  0  0  0  0  0  0  0  0  0  0
   10.2865    3.0238   23.9073 C   0  0  0  0  0  0  0  0  0  0  0  0
    9.2066    3.8848   23.7545 C   0  0  0  0  0  0  0  0  0  0  0  0
    8.2801    3.6656   22.7309 C   0  0  0  0  0  0  0  0  0  0  0  0
    8.4560    2.5861   21.8629 C   0  0  0  0  0  0  0  0  0  0  0  0
    9.5369    1.6962   21.9903 C   0  0  0  0  0  0  0  0  0  0  0  0
    9.5717    0.5238   21.0191 C   0  0  0  0  0  0  0  0  0  0  0  0
    8.5971   -0.5300   21.4258 C   0  0  0  0  0  0  0  0  0  0  0  0
    8.8075   -1.3824   22.3961 N   0  0  0  0  0  0  0  0  0  0  0  0
    7.6344   -2.0541   22.5025 C   0  0  0  0  0  0  0  0  0  0  0  0
    7.4207   -3.1052   23.5197 C   0  0  0  0  0  0  0  0  0  0  0  0
    8.4544   -3.4430   24.4180 C   0  0  0  0  0  0  0  0  0  0  0  0
    8.2477   -4.4316   25.3811 C   0  0  0  0  0  0  0  0  0  0  0  0
    7.0154   -5.0905   25.4596 C   0  0  0  0  0  0  0  0  0  0  0  0
    5.9842   -4.7545   24.5748 C   0  0  0  0  0  0  0  0  0  0  0  0
    6.1788   -3.7657   23.6105 C   0  0  0  0  0  0  0  0  0  0  0  0
    5.3773   -3.4863   22.9284 H   0  0  0  0  0  0  0  0  0  0  0  0
    5.0259   -5.2603   24.6381 H   0  0  0  0  0  0  0  0  0  0  0  0
    6.8589   -5.8599   26.2108 H   0  0  0  0  0  0  0  0  0  0  0  0
    9.0459   -4.6872   26.0730 H   0  0  0  0  0  0  0  0  0  0  0  0
    9.4086   -2.9187   24.3549 H   0  0  0  0  0  0  0  0  0  0  0  0
    6.7095   -1.6691   21.6352 N   0  0  0  0  0  0  0  0  0  0  0  0
    7.3368   -0.6974   20.9277 N   0  0  0  0  0  0  0  0  0  0  0  0
    6.6478   -0.0138   19.8811 C   0  0  0  0  0  0  0  0  0  0  0  0
    5.4370    0.6320   20.1445 C   0  0  0  0  0  0  0  0  0  0  0  0
    4.8053    1.3109   19.0991 C   0  0  0  0  0  0  0  0  0  0  0  0
    5.3968    1.2977   17.8313 C   0  0  0  0  0  0  0  0  0  0  0  0
    6.5433    0.6526   17.5623 N   0  0  0  0  0  0  0  0  0  0  0  0
    7.1531    0.0138   18.5704 C   0  0  0  0  0  0  0  0  0  0  0  0
    8.0857   -0.4977   18.3257 H   0  0  0  0  0  0  0  0  0  0  0  0
    4.9316    1.8223   17.0012 H   0  0  0  0  0  0  0  0  0  0  0  0
    3.8763    1.8491   19.2558 H   0  0  0  0  0  0  0  0  0  0  0  0
    5.0136    0.5949   21.1490 H   0  0  0  0  0  0  0  0  0  0  0  0
   10.5445    0.0364   20.9611 H   0  0  0  0  0  0  0  0  0  0  0  0
    9.3173    0.8754   20.0187 H   0  0  0  0  0  0  0  0  0  0  0  0
    7.7361    2.4115   21.0662 H   0  0  0  0  0  0  0  0  0  0  0  0
    7.4151    4.3144   22.6233 H   0  0  0  0  0  0  0  0  0  0  0  0
    9.0812    4.7139   24.4472 H   0  0  0  0  0  0  0  0  0  0  0  0
   11.0171    3.2116   24.6909 H   0  0  0  0  0  0  0  0  0  0  0  0
   13.7357    0.7111   22.0508 H   0  0  0  0  0  0  0  0  0  0  0  0
   13.3212    2.4430   22.3490 H   0  0  0  0  0  0  0  0  0  0  0  0
   12.4153    1.4925   21.1291 H   0  0  0  0  0  0  0  0  0  0  0  0
  1  2  1  0
  2  3  2  0
  2  4  2  0
  2  5  1  0
  5  6  2  0
  6  7  1  0
  7  8  2  0
  8  9  1  0
  9 10  2  0
 10 11  1  0
 11 12  1  0
 12 13  2  0
 13 14  1  0
 14 15  1  0
 15 16  2  0
 16 17  1  0
 17 18  2  0
 18 19  1  0
 19 20  2  0
 20 21  1  0
 19 22  1  0
 18 23  1  0
 17 24  1  0
 16 25  1  0
 14 26  2  0
 26 27  1  0
 27 28  1  0
 28 29  2  0
 29 30  1  0
 30 31  2  0
 31 32  1  0
 32 33  2  0
 33 34  1  0
 31 35  1  0
 30 36  1  0
 29 37  1  0
 11 38  1  0
 11 39  1  0
  9 40  1  0
  8 41  1  0
  7 42  1  0
  6 43  1  0
  1 44  1  0
  1 45  1  0
  1 46  1  0
 10  5  1  0
 27 12  1  0
 33 28  1  0
 20 15  1  0
M  END
>  <cnnaffinity>  (1) 
-6.31138

>  <filename>  (1) 
CS(=O)(=O)c1ccccc1Cc1nc(-c2ccccc2)nn1-c1cccnc1

$$$$
