
     RDKit          3D

 50 53  0  0  0  0  0  0  0  0999 V2000
    8.8048    3.8854   23.6861 C   0  0  0  0  0  0  0  0  0  0  0  0
    8.7431    2.5113   22.6113 S   0  0  0  0  0  0  0  0  0  0  0  0
    8.5307    3.0548   21.2751 O   0  0  0  0  0  0  0  0  0  0  0  0
    7.7744    1.5886   23.1909 O   0  0  0  0  0  0  0  0  0  0  0  0
   10.3834    1.8092   22.6728 C   0  0  0  0  0  0  0  0  0  0  0  0
   11.3561    2.1976   23.6175 C   0  0  0  0  0  0  0  0  0  0  0  0
   12.5553    1.4927   23.6928 C   0  0  0  0  0  0  0  0  0  0  0  0
   12.8127    0.4264   22.8263 C   0  0  0  0  0  0  0  0  0  0  0  0
   11.8545    0.0938   21.8687 C   0  0  0  0  0  0  0  0  0  0  0  0
   10.6390    0.7736   21.7595 C   0  0  0  0  0  0  0  0  0  0  0  0
    9.6156    0.2903   20.7555 C   0  0  0  0  0  0  0  0  0  0  0  0
    8.5758   -0.5728   21.3853 C   0  0  0  0  0  0  0  0  0  0  0  0
    8.7986   -1.3901   22.3831 N   0  0  0  0  0  0  0  0  0  0  0  0
    7.5788   -1.9239   22.6359 C   0  0  0  0  0  0  0  0  0  0  0  0
    7.3118   -2.7791   23.8544 C   0  0  0  0  0  0  0  0  0  0  0  0
    8.5411   -3.6347   24.2640 C   0  0  0  0  0  0  0  0  0  0  0  0
    9.5771   -2.8496   25.0390 C   0  0  0  0  0  0  0  0  0  0  0  0
    9.3445   -1.6445   25.5680 C   0  0  0  0  0  0  0  0  0  0  0  0
    8.0146   -0.9373   25.4765 C   0  0  0  0  0  0  0  0  0  0  0  0
    6.8771   -1.8823   25.0487 C   0  0  0  0  0  0  0  0  0  0  0  0
    5.9905   -1.3003   24.7712 H   0  0  0  0  0  0  0  0  0  0  0  0
    6.5949   -2.5301   25.8917 H   0  0  0  0  0  0  0  0  0  0  0  0
    7.7795   -0.4847   26.4469 H   0  0  0  0  0  0  0  0  0  0  0  0
    8.1122   -0.0933   24.7773 H   0  0  0  0  0  0  0  0  0  0  0  0
   10.1561   -1.0723   26.0175 H   0  0  0  0  0  0  0  0  0  0  0  0
   10.5599   -3.3133   25.1391 H   0  0  0  0  0  0  0  0  0  0  0  0
    9.0173   -4.0789   23.3813 H   0  0  0  0  0  0  0  0  0  0  0  0
    8.2002   -4.4843   24.8768 H   0  0  0  0  0  0  0  0  0  0  0  0
    6.4833   -3.4312   23.5729 H   0  0  0  0  0  0  0  0  0  0  0  0
    6.6286   -1.5427   21.8020 N   0  0  0  0  0  0  0  0  0  0  0  0
    7.2834   -0.6916   20.9596 N   0  0  0  0  0  0  0  0  0  0  0  0
    6.5966   -0.0327   19.9045 C   0  0  0  0  0  0  0  0  0  0  0  0
    5.3930    0.6350   20.1585 C   0  0  0  0  0  0  0  0  0  0  0  0
    4.7957    1.3148   19.0939 C   0  0  0  0  0  0  0  0  0  0  0  0
    5.3949    1.2909   17.8309 C   0  0  0  0  0  0  0  0  0  0  0  0
    6.5341    0.6306   17.5780 N   0  0  0  0  0  0  0  0  0  0  0  0
    7.1166   -0.0109   18.5972 C   0  0  0  0  0  0  0  0  0  0  0  0
    8.0540   -0.5193   18.3730 H   0  0  0  0  0  0  0  0  0  0  0  0
    4.9519    1.8202   16.9899 H   0  0  0  0  0  0  0  0  0  0  0  0
    3.8770    1.8654   19.2353 H   0  0  0  0  0  0  0  0  0  0  0  0
    4.9676    0.6223   21.1634 H   0  0  0  0  0  0  0  0  0  0  0  0
    9.1467    1.1329   20.2488 H   0  0  0  0  0  0  0  0  0  0  0  0
   10.0966   -0.3527   20.0169 H   0  0  0  0  0  0  0  0  0  0  0  0
   12.0286   -0.7333   21.1889 H   0  0  0  0  0  0  0  0  0  0  0  0
   13.7442   -0.1323   22.8855 H   0  0  0  0  0  0  0  0  0  0  0  0
   13.2904    1.7694   24.4382 H   0  0  0  0  0  0  0  0  0  0  0  0
   11.2112    3.0308   24.3095 H   0  0  0  0  0  0  0  0  0  0  0  0
    9.6335    4.5249   23.3894 H   0  0  0  0  0  0  0  0  0  0  0  0
    7.8543    4.3861   23.5221 H   0  0  0  0  0  0  0  0  0  0  0  0
    8.8748    3.5078   24.7022 H   0  0  0  0  0  0  0  0  0  0  0  0
  1  2  1  0
  2  3  2  0
  2  4  2  0
  2  5  1  0
  5  6  2  0
  6  7  1  0
  7  8  2  0
  8  9  1  0
  9 10  2  0
 10 11  1  0
 11 12  1  0
 12 13  2  0
 13 14  1  0
 14 15  1  0
 15 16  1  0
 16 17  1  0
 17 18  2  0
 18 19  1  0
 19 20  1  0
 20 21  1  0
 20 22  1  0
 19 23  1  0
 19 24  1  0
 18 25  1  0
 17 26  1  0
 16 27  1  0
 16 28  1  0
 15 29  1  0
 14 30  2  0
 30 31  1  0
 31 32  1  0
 32 33  2  0
 33 34  1  0
 34 35  2  0
 35 36  1  0
 36 37  2  0
 37 38  1  0
 35 39  1  0
 34 40  1  0
 33 41  1  0
 11 42  1  0
 11 43  1  0
  9 44  1  0
  8 45  1  0
  7 46  1  0
  6 47  1  0
  1 48  1  0
  1 49  1  0
  1 50  1  0
 10  5  1  0
 31 12  1  0
 37 32  1  0
 20 15  1  0
M  END
>  <cnnaffinity>  (1) 
-6.58588

>  <filename>  (1) 
CS(=O)(=O)c1ccccc1Cc1nc(C2CC=CCC2)nn1-c1cccnc1

$$$$
