
     RDKit          3D

 22 22  0  0  0  0  0  0  0  0999 V2000
    8.9185   -1.4337   21.7733 H   0  0  0  0  0  0  0  0  0  0  0  0
    8.6767   -0.8580   20.9666 N   0  0  0  0  0  0  0  0  0  0  0  0
    7.4334   -0.6819   21.0222 C   0  0  0  0  0  0  0  0  0  0  0  0
    6.6451    0.0010   19.9951 C   0  0  0  0  0  0  0  0  0  0  0  0
    7.1925    0.0196   18.7073 C   0  0  0  0  0  0  0  0  0  0  0  0
    8.1388   -0.4822   18.5153 H   0  0  0  0  0  0  0  0  0  0  0  0
    6.5966    0.6058   17.6648 N   0  0  0  0  0  0  0  0  0  0  0  0
    5.4347    1.2418   17.8848 C   0  0  0  0  0  0  0  0  0  0  0  0
    4.9889    1.7557   17.0347 H   0  0  0  0  0  0  0  0  0  0  0  0
    4.8041    1.2818   19.1355 C   0  0  0  0  0  0  0  0  0  0  0  0
    3.8750    1.8307   19.2614 H   0  0  0  0  0  0  0  0  0  0  0  0
    5.4143    0.6452   20.2111 C   0  0  0  0  0  0  0  0  0  0  0  0
    4.9484    0.6634   21.1999 H   0  0  0  0  0  0  0  0  0  0  0  0
    6.7072   -1.0726   22.1155 N   0  0  0  0  0  0  0  0  0  0  0  0
    5.7545   -1.3779   22.1452 H   0  0  0  0  0  0  0  0  0  0  0  0
    7.3674   -1.5087   23.5181 S   0  0  0  0  0  0  0  0  0  0  0  0
    8.4502   -2.4508   23.3008 O   0  0  0  0  0  0  0  0  0  0  0  0
    6.1644   -1.8415   24.2474 O   0  0  0  0  0  0  0  0  0  0  0  0
    8.0581   -0.0121   24.0944 C   0  0  0  0  0  0  0  0  0  0  0  0
    8.3563   -0.2122   25.1182 H   0  0  0  0  0  0  0  0  0  0  0  0
    7.2856    0.7509   24.0550 H   0  0  0  0  0  0  0  0  0  0  0  0
    8.9185    0.2738   23.4903 H   0  0  0  0  0  0  0  0  0  0  0  0
  1  2  1  0
  2  3  2  3
  3  4  1  0
  4  5  2  0
  5  6  1  0
  5  7  1  0
  7  8  2  0
  8  9  1  0
  8 10  1  0
 10 11  1  0
 10 12  2  0
 12 13  1  0
  3 14  1  0
 14 15  1  0
 14 16  1  0
 16 17  2  0
 16 18  2  0
 16 19  1  0
 19 20  1  0
 19 21  1  0
 19 22  1  0
 12  4  1  0
M  END
>  <cnnaffinity>  (1) 
-4.54848

>  <filename>  (1) 
CS(=O)(=O)NC(=N)c1cccnc1

$$$$
