
     RDKit          3D

 45 48  0  0  0  0  0  0  0  0999 V2000
    9.1926   -0.6949   25.0754 C   0  0  0  0  0  0  0  0  0  0  0  0
    7.5497    0.0489   24.9259 S   0  0  0  0  0  0  0  0  0  0  0  0
    6.9046   -0.1882   26.2602 O   0  0  0  0  0  0  0  0  0  0  0  0
    8.0866    1.7871   24.8898 C   0  0  0  0  0  0  0  0  0  0  0  0
    8.4166    2.3793   26.1188 C   0  0  0  0  0  0  0  0  0  0  0  0
    8.8516    3.7037   26.1538 C   0  0  0  0  0  0  0  0  0  0  0  0
    8.9517    4.4434   24.9747 C   0  0  0  0  0  0  0  0  0  0  0  0
    8.6029    3.8494   23.7590 C   0  0  0  0  0  0  0  0  0  0  0  0
    8.1504    2.5228   23.6938 C   0  0  0  0  0  0  0  0  0  0  0  0
    7.8141    1.9206   22.3424 C   0  0  0  0  0  0  0  0  0  0  0  0
    8.8384    0.9260   21.8713 C   0  0  0  0  0  0  0  0  0  0  0  0
   10.1387    1.0394   22.0506 N   0  0  0  0  0  0  0  0  0  0  0  0
   10.6500   -0.1568   21.6202 C   0  0  0  0  0  0  0  0  0  0  0  0
   12.1009   -0.4186   21.8142 C   0  0  0  0  0  0  0  0  0  0  0  0
   12.7706   -1.5011   21.4029 N   0  0  0  0  0  0  0  0  0  0  0  0
   14.0391   -1.2647   21.7437 N   0  0  0  0  0  0  0  0  0  0  0  0
   14.2169   -0.0714   22.3582 C   0  0  0  0  0  0  0  0  0  0  0  0
   12.9813    0.5050   22.4466 C   0  0  0  0  0  0  0  0  0  0  0  0
   12.7199    1.4571   22.8909 H   0  0  0  0  0  0  0  0  0  0  0  0
   15.1862    0.2953   22.6421 H   0  0  0  0  0  0  0  0  0  0  0  0
   14.7477   -1.9360   21.4783 H   0  0  0  0  0  0  0  0  0  0  0  0
    9.7195   -0.9732   21.1314 N   0  0  0  0  0  0  0  0  0  0  0  0
    8.5729   -0.2707   21.2896 N   0  0  0  0  0  0  0  0  0  0  0  0
    7.2689   -0.8386   20.9463 C   0  0  0  0  0  0  0  0  0  0  0  0
    6.5568   -0.0489   19.8701 C   0  0  0  0  0  0  0  0  0  0  0  0
    5.3419    0.6132   20.0714 C   0  0  0  0  0  0  0  0  0  0  0  0
    4.7770    1.3179   19.0041 C   0  0  0  0  0  0  0  0  0  0  0  0
    5.4549    1.3403   17.7830 C   0  0  0  0  0  0  0  0  0  0  0  0
    6.6277    0.7223   17.5757 N   0  0  0  0  0  0  0  0  0  0  0  0
    7.1609    0.0598   18.6073 C   0  0  0  0  0  0  0  0  0  0  0  0
    8.1277   -0.4123   18.4305 H   0  0  0  0  0  0  0  0  0  0  0  0
    5.0322    1.8660   16.9293 H   0  0  0  0  0  0  0  0  0  0  0  0
    3.8403    1.8526   19.1102 H   0  0  0  0  0  0  0  0  0  0  0  0
    4.8496    0.5969   21.0476 H   0  0  0  0  0  0  0  0  0  0  0  0
    7.4537   -1.8663   20.6242 H   0  0  0  0  0  0  0  0  0  0  0  0
    6.6494   -0.9151   21.8510 H   0  0  0  0  0  0  0  0  0  0  0  0
    7.7505    2.7221   21.6013 H   0  0  0  0  0  0  0  0  0  0  0  0
    6.8206    1.4585   22.3751 H   0  0  0  0  0  0  0  0  0  0  0  0
    8.6923    4.4169   22.8350 H   0  0  0  0  0  0  0  0  0  0  0  0
    9.2964    5.4735   25.0046 H   0  0  0  0  0  0  0  0  0  0  0  0
    9.1093    4.1701   27.0969 H   0  0  0  0  0  0  0  0  0  0  0  0
    8.3228    1.7936   27.0305 H   0  0  0  0  0  0  0  0  0  0  0  0
    9.0570   -1.7781   25.0170 H   0  0  0  0  0  0  0  0  0  0  0  0
    9.6118   -0.4378   26.0526 H   0  0  0  0  0  0  0  0  0  0  0  0
    9.8390   -0.3369   24.2716 H   0  0  0  0  0  0  0  0  0  0  0  0
  1  2  1  0
  2  3  2  0
  2  4  1  0
  4  5  2  0
  5  6  1  0
  6  7  2  0
  7  8  1  0
  8  9  2  0
  9 10  1  0
 10 11  1  0
 11 12  2  0
 12 13  1  0
 13 14  1  0
 14 15  2  0
 15 16  1  0
 16 17  1  0
 17 18  2  0
 18 19  1  0
 17 20  1  0
 16 21  1  0
 13 22  2  0
 22 23  1  0
 23 24  1  0
 24 25  1  0
 25 26  2  0
 26 27  1  0
 27 28  2  0
 28 29  1  0
 29 30  2  0
 30 31  1  0
 28 32  1  0
 27 33  1  0
 26 34  1  0
 24 35  1  0
 24 36  1  0
 10 37  1  0
 10 38  1  0
  8 39  1  0
  7 40  1  0
  6 41  1  0
  5 42  1  0
  1 43  1  0
  1 44  1  0
  1 45  1  0
  9  4  1  0
 23 11  1  0
 30 25  1  0
 18 14  1  0
M  END
>  <cnnaffinity>  (1) 
-6.51131

>  <filename>  (1) 
CS(=O)c1ccccc1Cc1nc(-c2cc[nH]n2)nn1Cc1cccnc1

$$$$
