
     RDKit          3D

 46 49  0  0  0  0  0  0  0  0999 V2000
    4.9969    1.9001   17.0140 H   0  0  0  0  0  0  0  0  0  0  0  0
    5.4728    1.3500   17.8225 C   0  0  0  0  0  0  0  0  0  0  0  0
    6.6373    0.7464   17.5338 N   0  0  0  0  0  0  0  0  0  0  0  0
    7.2442    0.0585   18.5093 C   0  0  0  0  0  0  0  0  0  0  0  0
    8.1928   -0.4126   18.2465 H   0  0  0  0  0  0  0  0  0  0  0  0
    6.7286   -0.1019   19.8242 C   0  0  0  0  0  0  0  0  0  0  0  0
    7.3844   -0.9143   20.7638 N   0  0  0  0  0  0  0  0  0  0  0  0
    6.8277   -1.1548   22.1046 C   0  0  1  0  0  0  0  0  0  0  0  0
    5.7943   -1.4979   22.0150 H   0  0  0  0  0  0  0  0  0  0  0  0
    7.7418   -2.2978   22.5935 C   0  0  0  0  0  0  0  0  0  0  0  0
    7.7963   -2.3393   23.6859 H   0  0  0  0  0  0  0  0  0  0  0  0
    7.3402   -3.2564   22.2561 H   0  0  0  0  0  0  0  0  0  0  0  0
    9.0953   -2.0014   21.9156 C   0  0  0  0  0  0  0  0  0  0  0  0
    9.9045   -1.8256   22.6299 H   0  0  0  0  0  0  0  0  0  0  0  0
    9.3992   -2.8377   21.2824 H   0  0  0  0  0  0  0  0  0  0  0  0
    8.8241   -0.7590   21.0312 C   0  0  2  0  0  0  0  0  0  0  0  0
    9.4035   -0.8174   20.1037 H   0  0  0  0  0  0  0  0  0  0  0  0
    9.1145    0.5935   21.7378 C   0  0  0  0  0  0  0  0  0  0  0  0
    9.4803    1.3247   21.0094 H   0  0  0  0  0  0  0  0  0  0  0  0
    9.9403    0.4319   22.4406 H   0  0  0  0  0  0  0  0  0  0  0  0
    7.8889    1.2100   22.4901 C   0  0  2  0  0  0  0  0  0  0  0  0
    7.3268    1.8120   21.7622 H   0  0  0  0  0  0  0  0  0  0  0  0
    8.3518    2.1125   23.6238 C   0  0  0  0  0  0  0  0  0  0  0  0
    9.1515    1.5276   24.6165 C   0  0  0  0  0  0  0  0  0  0  0  0
    9.4765    0.4909   24.5176 H   0  0  0  0  0  0  0  0  0  0  0  0
    9.5130    2.2321   25.7543 C   0  0  0  0  0  0  0  0  0  0  0  0
   10.1505    1.7295   26.4683 H   0  0  0  0  0  0  0  0  0  0  0  0
    9.1057    3.5537   25.9184 C   0  0  0  0  0  0  0  0  0  0  0  0
    9.3305    4.0899   26.8356 H   0  0  0  0  0  0  0  0  0  0  0  0
    8.4312    4.1994   24.8734 C   0  0  0  0  0  0  0  0  0  0  0  0
    8.1927    5.9695   25.0225 S   0  0  0  0  0  0  0  0  0  0  0  0
    8.4058    6.3354   26.4193 O   0  0  0  0  0  0  0  0  0  0  0  0
    6.9814    6.3479   24.3057 O   0  0  0  0  0  0  0  0  0  0  0  0
    9.5609    6.6495   24.1300 C   0  0  0  0  0  0  0  0  0  0  0  0
    9.5267    6.2804   23.1074 H   0  0  0  0  0  0  0  0  0  0  0  0
   10.4823    6.3644   24.6343 H   0  0  0  0  0  0  0  0  0  0  0  0
    9.4271    7.7287   24.1547 H   0  0  0  0  0  0  0  0  0  0  0  0
    8.0156    3.4762   23.7373 C   0  0  0  0  0  0  0  0  0  0  0  0
    7.4370    3.9493   22.9412 H   0  0  0  0  0  0  0  0  0  0  0  0
    6.9205    0.1025   23.0207 C   0  0  0  0  0  0  0  0  0  0  0  0
    7.2543   -0.2240   24.0160 H   0  0  0  0  0  0  0  0  0  0  0  0
    5.9279    0.5389   23.1856 H   0  0  0  0  0  0  0  0  0  0  0  0
    5.5041    0.5457   20.0951 C   0  0  0  0  0  0  0  0  0  0  0  0
    5.0836    0.4938   21.0974 H   0  0  0  0  0  0  0  0  0  0  0  0
    4.8755    1.2769   19.0844 C   0  0  0  0  0  0  0  0  0  0  0  0
    3.9412    1.7948   19.2711 H   0  0  0  0  0  0  0  0  0  0  0  0
  1  2  1  0
  2  3  2  0
  3  4  1  0
  4  5  1  0
  4  6  2  0
  6  7  1  0
  7  8  1  0
  8  9  1  6
  8 10  1  0
 10 11  1  0
 10 12  1  0
 10 13  1  0
 13 14  1  0
 13 15  1  0
 13 16  1  0
 16 17  1  6
 16 18  1  0
 18 19  1  0
 18 20  1  0
 18 21  1  0
 21 22  1  6
 21 23  1  0
 23 24  2  0
 24 25  1  0
 24 26  1  0
 26 27  1  0
 26 28  2  0
 28 29  1  0
 28 30  1  0
 30 31  1  0
 31 32  2  0
 31 33  2  0
 31 34  1  0
 34 35  1  0
 34 36  1  0
 34 37  1  0
 30 38  2  0
 38 39  1  0
 21 40  1  0
 40 41  1  0
 40 42  1  0
  6 43  1  0
 43 44  1  0
 43 45  2  0
 45 46  1  0
 45  2  1  0
 16  7  1  0
 38 23  1  0
 40  8  1  0
M  END
>  <cnnaffinity>  (1) 
-5.59187

>  <filename>  (1) 
CS(=O)(=O)c1cccc([C@H]2C[C@H]3CC[C@@H](C2)N3c2cccnc2)c1

$$$$
