
     RDKit          3D

 33 35  0  0  0  0  0  0  0  0999 V2000
    4.9283    1.7950   17.0057 H   0  0  0  0  0  0  0  0  0  0  0  0
    5.4228    1.2912   17.8335 C   0  0  0  0  0  0  0  0  0  0  0  0
    6.5831    0.6814   17.5490 N   0  0  0  0  0  0  0  0  0  0  0  0
    7.2267    0.0567   18.5463 C   0  0  0  0  0  0  0  0  0  0  0  0
    8.1770   -0.4136   18.3081 H   0  0  0  0  0  0  0  0  0  0  0  0
    6.7268    0.0043   19.8611 C   0  0  0  0  0  0  0  0  0  0  0  0
    7.3052   -0.7119   20.9159 O   0  0  0  0  0  0  0  0  0  0  0  0
    8.6273   -0.8031   21.1000 C   0  0  0  0  0  0  0  0  0  0  0  0
    9.5802   -0.1138   20.5311 N   0  0  0  0  0  0  0  0  0  0  0  0
   10.7263   -0.5740   21.0922 N   0  0  0  0  0  0  0  0  0  0  0  0
   10.4995   -1.4974   21.9484 N   0  0  0  0  0  0  0  0  0  0  0  0
    9.1515   -1.6795   21.9874 N   0  0  0  0  0  0  0  0  0  0  0  0
    8.5429   -2.6769   22.8168 C   0  0  0  0  0  0  0  0  0  0  0  0
    7.3174   -3.2288   22.4227 C   0  0  0  0  0  0  0  0  0  0  0  0
    6.8390   -2.9206   21.5025 H   0  0  0  0  0  0  0  0  0  0  0  0
    6.7202   -4.1941   23.2295 C   0  0  0  0  0  0  0  0  0  0  0  0
    5.7725   -4.6269   22.9311 H   0  0  0  0  0  0  0  0  0  0  0  0
    7.3040   -4.5913   24.4279 C   0  0  0  0  0  0  0  0  0  0  0  0
    6.8038   -5.3361   25.0436 H   0  0  0  0  0  0  0  0  0  0  0  0
    8.5168   -4.0175   24.8365 C   0  0  0  0  0  0  0  0  0  0  0  0
    9.1361   -4.5176   26.4640 S   0  0  0  0  0  0  0  0  0  0  0  0
    9.6867   -3.3645   27.1522 O   0  0  0  0  0  0  0  0  0  0  0  0
    8.1232   -5.3562   27.0964 O   0  0  0  0  0  0  0  0  0  0  0  0
   10.5007   -5.5753   26.1158 C   0  0  0  0  0  0  0  0  0  0  0  0
   10.1741   -6.4562   25.5654 H   0  0  0  0  0  0  0  0  0  0  0  0
   11.2482   -4.9884   25.5896 H   0  0  0  0  0  0  0  0  0  0  0  0
   10.8736   -5.8407   27.1037 H   0  0  0  0  0  0  0  0  0  0  0  0
    9.1697   -3.0780   24.0109 C   0  0  0  0  0  0  0  0  0  0  0  0
   10.1404   -2.6364   24.2431 H   0  0  0  0  0  0  0  0  0  0  0  0
    5.5132    0.6292   20.1502 C   0  0  0  0  0  0  0  0  0  0  0  0
    5.1229    0.5974   21.1671 H   0  0  0  0  0  0  0  0  0  0  0  0
    4.8526    1.2932   19.1122 C   0  0  0  0  0  0  0  0  0  0  0  0
    3.9172    1.8165   19.2871 H   0  0  0  0  0  0  0  0  0  0  0  0
  1  2  1  0
  2  3  2  0
  3  4  1  0
  4  5  1  0
  4  6  2  0
  6  7  1  0
  7  8  1  0
  8  9  2  0
  9 10  1  0
 10 11  2  0
 11 12  1  0
 12 13  1  0
 13 14  2  0
 14 15  1  0
 14 16  1  0
 16 17  1  0
 16 18  2  0
 18 19  1  0
 18 20  1  0
 20 21  1  0
 21 22  2  0
 21 23  2  0
 21 24  1  0
 24 25  1  0
 24 26  1  0
 24 27  1  0
 20 28  2  0
 28 29  1  0
  6 30  1  0
 30 31  1  0
 30 32  2  0
 32 33  1  0
 32  2  1  0
 12  8  1  0
 28 13  1  0
M  END
>  <cnnaffinity>  (1) 
-5.45689

>  <filename>  (1) 
CS(=O)(=O)c1cccc(-n2nnnc2Oc2cccnc2)c1

$$$$
