
     RDKit          3D

 42 45  0  0  0  0  0  0  0  0999 V2000
    6.9327    2.2281   23.1658 C   0  0  0  0  0  0  0  0  0  0  0  0
    7.9843    2.8616   21.8438 S   0  0  0  0  0  0  0  0  0  0  0  0
    7.9467    4.3468   22.0689 O   0  0  0  0  0  0  0  0  0  0  0  0
    9.5688    2.2626   22.5001 C   0  0  0  0  0  0  0  0  0  0  0  0
   10.1410    2.9927   23.5533 C   0  0  0  0  0  0  0  0  0  0  0  0
   11.3969    2.6310   24.0424 C   0  0  0  0  0  0  0  0  0  0  0  0
   12.0849    1.5455   23.4978 C   0  0  0  0  0  0  0  0  0  0  0  0
   11.5098    0.8375   22.4425 C   0  0  0  0  0  0  0  0  0  0  0  0
   10.2427    1.1673   21.9370 C   0  0  0  0  0  0  0  0  0  0  0  0
    9.6407    0.2867   20.8596 C   0  0  0  0  0  0  0  0  0  0  0  0
    8.5654   -0.5999   21.3914 C   0  0  0  0  0  0  0  0  0  0  0  0
    8.7559   -1.4295   22.3890 N   0  0  0  0  0  0  0  0  0  0  0  0
    7.5483   -2.0318   22.5444 C   0  0  0  0  0  0  0  0  0  0  0  0
    7.2720   -3.0472   23.5656 C   0  0  0  0  0  0  0  0  0  0  0  0
    6.1114   -3.6844   23.8950 C   0  0  0  0  0  0  0  0  0  0  0  0
    6.4337   -4.5392   24.9945 C   0  0  0  0  0  0  0  0  0  0  0  0
    7.7529   -4.3621   25.2474 C   0  0  0  0  0  0  0  0  0  0  0  0
    8.2845   -3.4665   24.3857 O   0  0  0  0  0  0  0  0  0  0  0  0
    8.4299   -4.7670   25.9887 H   0  0  0  0  0  0  0  0  0  0  0  0
    5.7703   -5.1964   25.5367 H   0  0  0  0  0  0  0  0  0  0  0  0
    5.1608   -3.5149   23.3989 H   0  0  0  0  0  0  0  0  0  0  0  0
    6.6196   -1.6135   21.6918 N   0  0  0  0  0  0  0  0  0  0  0  0
    7.2840   -0.7190   20.9236 N   0  0  0  0  0  0  0  0  0  0  0  0
    6.6074   -0.0313   19.8789 C   0  0  0  0  0  0  0  0  0  0  0  0
    5.4096    0.6345   20.1463 C   0  0  0  0  0  0  0  0  0  0  0  0
    4.8007    1.3233   19.0965 C   0  0  0  0  0  0  0  0  0  0  0  0
    5.3913    1.3012   17.8283 C   0  0  0  0  0  0  0  0  0  0  0  0
    6.5207    0.6300   17.5559 N   0  0  0  0  0  0  0  0  0  0  0  0
    7.1127   -0.0187   18.5659 C   0  0  0  0  0  0  0  0  0  0  0  0
    8.0354   -0.5520   18.3299 H   0  0  0  0  0  0  0  0  0  0  0  0
    4.9442    1.8453   17.0017 H   0  0  0  0  0  0  0  0  0  0  0  0
    3.8838    1.8736   19.2509 H   0  0  0  0  0  0  0  0  0  0  0  0
    4.9838    0.6030   21.1535 H   0  0  0  0  0  0  0  0  0  0  0  0
    9.2545    0.8822   20.0321 H   0  0  0  0  0  0  0  0  0  0  0  0
   10.4245   -0.3735   20.4741 H   0  0  0  0  0  0  0  0  0  0  0  0
   12.0552    0.0171   21.9820 H   0  0  0  0  0  0  0  0  0  0  0  0
   13.0698    1.2674   23.8694 H   0  0  0  0  0  0  0  0  0  0  0  0
   11.8454    3.1986   24.8454 H   0  0  0  0  0  0  0  0  0  0  0  0
    9.6123    3.8475   23.9711 H   0  0  0  0  0  0  0  0  0  0  0  0
    6.9728    1.1398   23.2465 H   0  0  0  0  0  0  0  0  0  0  0  0
    7.2547    2.7130   24.0910 H   0  0  0  0  0  0  0  0  0  0  0  0
    5.9248    2.5741   22.9315 H   0  0  0  0  0  0  0  0  0  0  0  0
  1  2  1  0
  2  3  2  0
  2  4  1  0
  4  5  2  0
  5  6  1  0
  6  7  2  0
  7  8  1  0
  8  9  2  0
  9 10  1  0
 10 11  1  0
 11 12  2  0
 12 13  1  0
 13 14  1  0
 14 15  2  0
 15 16  1  0
 16 17  2  0
 17 18  1  0
 17 19  1  0
 16 20  1  0
 15 21  1  0
 13 22  2  0
 22 23  1  0
 23 24  1  0
 24 25  2  0
 25 26  1  0
 26 27  2  0
 27 28  1  0
 28 29  2  0
 29 30  1  0
 27 31  1  0
 26 32  1  0
 25 33  1  0
 10 34  1  0
 10 35  1  0
  8 36  1  0
  7 37  1  0
  6 38  1  0
  5 39  1  0
  1 40  1  0
  1 41  1  0
  1 42  1  0
  9  4  1  0
 23 11  1  0
 29 24  1  0
 18 14  1  0
M  END
>  <cnnaffinity>  (1) 
-5.97352

>  <filename>  (1) 
CS(=O)c1ccccc1Cc1nc(-c2ccco2)nn1-c1cccnc1

$$$$
