
     RDKit          3D

 38 39  0  0  0  0  0  0  0  0999 V2000
    5.7039    3.8962   21.8125 C   0  0  0  0  0  0  0  0  0  0  0  0
    6.3046    4.5281   23.3426 S   0  0  0  0  0  0  0  0  0  0  0  0
    5.2210    5.2996   23.9345 O   0  0  0  0  0  0  0  0  0  0  0  0
    7.5993    5.1296   23.0600 O   0  0  0  0  0  0  0  0  0  0  0  0
    6.5341    3.0558   24.3479 C   0  0  0  0  0  0  0  0  0  0  0  0
    5.8551    2.9186   25.5710 C   0  0  0  0  0  0  0  0  0  0  0  0
    6.0669    1.7767   26.3482 C   0  0  0  0  0  0  0  0  0  0  0  0
    6.9096    0.7535   25.8999 C   0  0  0  0  0  0  0  0  0  0  0  0
    7.5665    0.8932   24.6736 C   0  0  0  0  0  0  0  0  0  0  0  0
    8.2768   -0.2302   24.1506 N   0  0  0  0  0  0  0  0  0  0  0  0
    9.3764   -0.0494   23.3250 C   0  0  0  0  0  0  0  0  0  0  0  0
   10.1421    0.8814   23.4279 O   0  0  0  0  0  0  0  0  0  0  0  0
    9.5020   -1.1267   22.2042 C   0  0  0  0  0  0  0  0  0  0  0  0
    8.7073   -0.8493   20.9838 N   0  0  0  0  0  0  0  0  0  0  0  0
    7.3348   -0.8096   21.0315 C   0  0  0  0  0  0  0  0  0  0  0  0
    6.7160   -1.3183   21.9563 O   0  0  0  0  0  0  0  0  0  0  0  0
    6.6711   -0.0580   19.9366 C   0  0  0  0  0  0  0  0  0  0  0  0
    5.4653    0.6229   20.1658 C   0  0  0  0  0  0  0  0  0  0  0  0
    4.8853    1.3116   19.1046 C   0  0  0  0  0  0  0  0  0  0  0  0
    5.5194    1.2832   17.8564 C   0  0  0  0  0  0  0  0  0  0  0  0
    6.6544    0.6100   17.6195 N   0  0  0  0  0  0  0  0  0  0  0  0
    7.2155   -0.0326   18.6477 C   0  0  0  0  0  0  0  0  0  0  0  0
    8.1337   -0.5702   18.4059 H   0  0  0  0  0  0  0  0  0  0  0  0
    5.1016    1.8178   17.0090 H   0  0  0  0  0  0  0  0  0  0  0  0
    3.9696    1.8806   19.2256 H   0  0  0  0  0  0  0  0  0  0  0  0
    5.0103    0.6211   21.1611 H   0  0  0  0  0  0  0  0  0  0  0  0
    9.1080   -0.1757   20.3505 H   0  0  0  0  0  0  0  0  0  0  0  0
   10.5535   -1.2153   21.9162 H   0  0  0  0  0  0  0  0  0  0  0  0
    9.1724   -2.0861   22.6094 H   0  0  0  0  0  0  0  0  0  0  0  0
    7.6342   -0.9191   23.7771 H   0  0  0  0  0  0  0  0  0  0  0  0
    7.4193    2.0569   23.9123 C   0  0  0  0  0  0  0  0  0  0  0  0
    8.0197    2.1318   23.0043 H   0  0  0  0  0  0  0  0  0  0  0  0
    7.0712   -0.1505   26.4789 H   0  0  0  0  0  0  0  0  0  0  0  0
    5.5393    1.6633   27.2906 H   0  0  0  0  0  0  0  0  0  0  0  0
    5.1644    3.6885   25.9094 H   0  0  0  0  0  0  0  0  0  0  0  0
    6.4661    3.2562   21.3744 H   0  0  0  0  0  0  0  0  0  0  0  0
    4.7725    3.3681   21.9957 H   0  0  0  0  0  0  0  0  0  0  0  0
    5.5369    4.7728   21.1928 H   0  0  0  0  0  0  0  0  0  0  0  0
  1  2  1  0
  2  3  2  0
  2  4  2  0
  2  5  1  0
  5  6  2  0
  6  7  1  0
  7  8  2  0
  8  9  1  0
  9 10  1  0
 10 11  1  0
 11 12  2  0
 11 13  1  0
 13 14  1  0
 14 15  1  0
 15 16  2  0
 15 17  1  0
 17 18  2  0
 18 19  1  0
 19 20  2  0
 20 21  1  0
 21 22  2  0
 22 23  1  0
 20 24  1  0
 19 25  1  0
 18 26  1  0
 14 27  1  0
 13 28  1  0
 13 29  1  0
 10 30  1  0
  9 31  2  0
 31 32  1  0
  8 33  1  0
  7 34  1  0
  6 35  1  0
  1 36  1  0
  1 37  1  0
  1 38  1  0
 31  5  1  0
 22 17  1  0
M  END
>  <cnnaffinity>  (1) 
-4.72802

>  <filename>  (1) 
CS(=O)(=O)c1cccc(NC(=O)CNC(=O)c2cccnc2)c1

$$$$
