
     RDKit          3D

 45 48  0  0  0  0  0  0  0  0999 V2000
   11.4639    0.2656   25.6436 C   0  0  0  0  0  0  0  0  0  0  0  0
   10.4916    0.6403   24.1784 S   0  0  0  0  0  0  0  0  0  0  0  0
   10.5659    2.1336   24.0676 O   0  0  0  0  0  0  0  0  0  0  0  0
   11.7276   -0.0920   23.0802 C   0  0  0  0  0  0  0  0  0  0  0  0
   13.0249    0.4493   23.0561 C   0  0  0  0  0  0  0  0  0  0  0  0
   13.9981   -0.1286   22.2444 C   0  0  0  0  0  0  0  0  0  0  0  0
   13.6531   -1.1634   21.3716 C   0  0  0  0  0  0  0  0  0  0  0  0
   12.3434   -1.6492   21.3875 C   0  0  0  0  0  0  0  0  0  0  0  0
   11.3892   -1.2136   22.3152 C   0  0  0  0  0  0  0  0  0  0  0  0
   10.1320   -2.0228   22.6139 C   0  0  0  0  0  0  0  0  0  0  0  0
    8.8344   -1.4378   22.1507 C   0  0  0  0  0  0  0  0  0  0  0  0
    8.5674   -0.9864   20.9447 N   0  0  0  0  0  0  0  0  0  0  0  0
    7.2727   -0.5765   21.0466 C   0  0  0  0  0  0  0  0  0  0  0  0
    6.5680    0.0495   19.9317 C   0  0  0  0  0  0  0  0  0  0  0  0
    5.3356    0.7129   20.0723 C   0  0  0  0  0  0  0  0  0  0  0  0
    4.8088    1.3378   18.9454 C   0  0  0  0  0  0  0  0  0  0  0  0
    5.5136    1.2613   17.7363 C   0  0  0  0  0  0  0  0  0  0  0  0
    6.6764    0.6089   17.5885 N   0  0  0  0  0  0  0  0  0  0  0  0
    7.1877    0.0230   18.6755 C   0  0  0  0  0  0  0  0  0  0  0  0
    8.1368   -0.4927   18.5448 H   0  0  0  0  0  0  0  0  0  0  0  0
    5.1194    1.7364   16.8428 H   0  0  0  0  0  0  0  0  0  0  0  0
    3.8765    1.8925   18.9913 H   0  0  0  0  0  0  0  0  0  0  0  0
    4.8264    0.7424   21.0404 H   0  0  0  0  0  0  0  0  0  0  0  0
    6.7253   -0.7650   22.2311 N   0  0  0  0  0  0  0  0  0  0  0  0
    7.7180   -1.3640   22.9309 N   0  0  0  0  0  0  0  0  0  0  0  0
    7.5809   -1.7050   24.3176 C   0  0  0  0  0  0  0  0  0  0  0  0
    7.7658   -3.0632   24.7373 C   0  0  0  0  0  0  0  0  0  0  0  0
    7.7819   -3.4412   26.0737 C   0  0  0  0  0  0  0  0  0  0  0  0
    7.6001   -2.2961   27.0329 C   0  0  0  0  0  0  0  0  0  0  0  0
    7.5614   -2.0556   27.2954 F   0  0  0  0  0  0  0  0  0  0  0  0
    7.3784   -0.9742   26.6901 C   0  0  0  0  0  0  0  0  0  0  0  0
    7.3349   -0.6815   25.2325 C   0  0  0  0  0  0  0  0  0  0  0  0
    7.1430    0.3347   24.8865 H   0  0  0  0  0  0  0  0  0  0  0  0
    7.2107    0.0117   27.2773 H   0  0  0  0  0  0  0  0  0  0  0  0
    7.9497   -4.5200   26.3039 H   0  0  0  0  0  0  0  0  0  0  0  0
    7.8947   -3.8075   23.9442 H   0  0  0  0  0  0  0  0  0  0  0  0
   10.2205   -3.0173   22.1669 H   0  0  0  0  0  0  0  0  0  0  0  0
   10.0767   -2.1677   23.7006 H   0  0  0  0  0  0  0  0  0  0  0  0
   12.0574   -2.3755   20.6532 H   0  0  0  0  0  0  0  0  0  0  0  0
   14.3793   -1.5512   20.6582 H   0  0  0  0  0  0  0  0  0  0  0  0
   15.0109    0.2510   22.2843 H   0  0  0  0  0  0  0  0  0  0  0  0
   13.2747    1.3335   23.6395 H   0  0  0  0  0  0  0  0  0  0  0  0
   11.8044   -0.7693   25.6525 H   0  0  0  0  0  0  0  0  0  0  0  0
   12.3294    0.9192   25.5401 H   0  0  0  0  0  0  0  0  0  0  0  0
   10.8902    0.5003   26.5412 H   0  0  0  0  0  0  0  0  0  0  0  0
  1  2  1  0
  2  3  2  0
  2  4  1  0
  4  5  2  0
  5  6  1  0
  6  7  2  0
  7  8  1  0
  8  9  2  0
  9 10  1  0
 10 11  1  0
 11 12  2  0
 12 13  1  0
 13 14  1  0
 14 15  2  0
 15 16  1  0
 16 17  2  0
 17 18  1  0
 18 19  2  0
 19 20  1  0
 17 21  1  0
 16 22  1  0
 15 23  1  0
 13 24  2  0
 24 25  1  0
 25 26  1  0
 26 27  2  0
 27 28  1  0
 28 29  2  0
 29 30  1  0
 29 31  1  0
 31 32  2  0
 32 33  1  0
 31 34  1  0
 28 35  1  0
 27 36  1  0
 10 37  1  0
 10 38  1  0
  8 39  1  0
  7 40  1  0
  6 41  1  0
  5 42  1  0
  1 43  1  0
  1 44  1  0
  1 45  1  0
  9  4  1  0
 25 11  1  0
 32 26  1  0
 19 14  1  0
M  END
>  <cnnaffinity>  (1) 
-6.82611

>  <filename>  (1) 
CS(=O)c1ccccc1Cc1nc(-c2cccnc2)nn1-c1ccc(F)cc1

$$$$
