
     RDKit          3D

 47 50  0  0  0  0  0  0  0  0999 V2000
    7.5043   -5.6114   24.8559 C   0  0  0  0  0  0  0  0  0  0  0  0
    6.8877   -4.6484   23.4537 S   0  0  0  0  0  0  0  0  0  0  0  0
    5.9706   -5.5791   22.7162 O   0  0  0  0  0  0  0  0  0  0  0  0
    5.8500   -3.5233   24.4317 C   0  0  0  0  0  0  0  0  0  0  0  0
    4.5808   -3.9765   24.8144 C   0  0  0  0  0  0  0  0  0  0  0  0
    3.7519   -3.1510   25.5758 C   0  0  0  0  0  0  0  0  0  0  0  0
    4.1797   -1.8707   25.9378 C   0  0  0  0  0  0  0  0  0  0  0  0
    5.4445   -1.4278   25.5393 C   0  0  0  0  0  0  0  0  0  0  0  0
    6.3013   -2.2403   24.7808 C   0  0  0  0  0  0  0  0  0  0  0  0
    7.6277   -1.7011   24.2939 C   0  0  0  0  0  0  0  0  0  0  0  0
    7.6564   -1.4036   22.8272 C   0  0  0  0  0  0  0  0  0  0  0  0
    6.7249   -0.7565   22.1587 N   0  0  0  0  0  0  0  0  0  0  0  0
    7.2379   -0.6584   20.9108 C   0  0  0  0  0  0  0  0  0  0  0  0
    6.5455    0.0265   19.8247 C   0  0  0  0  0  0  0  0  0  0  0  0
    5.3353    0.7066   20.0106 C   0  0  0  0  0  0  0  0  0  0  0  0
    4.7912    1.3747   18.9168 C   0  0  0  0  0  0  0  0  0  0  0  0
    5.4665    1.3233   17.6916 C   0  0  0  0  0  0  0  0  0  0  0  0
    6.6110    0.6542   17.4988 N   0  0  0  0  0  0  0  0  0  0  0  0
    7.1356    0.0223   18.5531 C   0  0  0  0  0  0  0  0  0  0  0  0
    8.0676   -0.5153   18.3853 H   0  0  0  0  0  0  0  0  0  0  0  0
    5.0676    1.8448   16.8239 H   0  0  0  0  0  0  0  0  0  0  0  0
    3.8742    1.9450   19.0048 H   0  0  0  0  0  0  0  0  0  0  0  0
    4.8475    0.7084   20.9899 H   0  0  0  0  0  0  0  0  0  0  0  0
    8.4400   -1.1960   20.7700 N   0  0  0  0  0  0  0  0  0  0  0  0
    8.7064   -1.6756   22.0010 N   0  0  0  0  0  0  0  0  0  0  0  0
   10.0554   -2.1512   22.3009 C   0  0  0  0  0  0  0  0  0  0  0  0
   10.9206   -1.0972   22.9509 C   0  0  0  0  0  0  0  0  0  0  0  0
   11.9245   -0.4110   22.2539 C   0  0  0  0  0  0  0  0  0  0  0  0
   12.6547    0.5684   22.9301 C   0  0  0  0  0  0  0  0  0  0  0  0
   12.3554    0.8238   24.2724 C   0  0  0  0  0  0  0  0  0  0  0  0
   11.3472    0.0750   24.8810 C   0  0  0  0  0  0  0  0  0  0  0  0
   10.6371   -0.8598   24.2427 N   0  0  0  0  0  0  0  0  0  0  0  0
   11.1047    0.2294   25.9325 H   0  0  0  0  0  0  0  0  0  0  0  0
   12.8449    1.5998   24.8473 H   0  0  0  0  0  0  0  0  0  0  0  0
   13.4621    1.0989   22.4197 H   0  0  0  0  0  0  0  0  0  0  0  0
   12.0895   -0.6502   21.2056 H   0  0  0  0  0  0  0  0  0  0  0  0
    9.9751   -3.0171   22.9669 H   0  0  0  0  0  0  0  0  0  0  0  0
   10.4747   -2.4792   21.3492 H   0  0  0  0  0  0  0  0  0  0  0  0
    7.8719   -0.7682   24.8131 H   0  0  0  0  0  0  0  0  0  0  0  0
    8.4363   -2.3990   24.5270 H   0  0  0  0  0  0  0  0  0  0  0  0
    5.7737   -0.4240   25.7962 H   0  0  0  0  0  0  0  0  0  0  0  0
    3.5345   -1.2199   26.5250 H   0  0  0  0  0  0  0  0  0  0  0  0
    2.7692   -3.5036   25.8779 H   0  0  0  0  0  0  0  0  0  0  0  0
    4.2527   -4.9639   24.4947 H   0  0  0  0  0  0  0  0  0  0  0  0
    8.2189   -6.3418   24.4699 H   0  0  0  0  0  0  0  0  0  0  0  0
    6.6495   -6.1298   25.2998 H   0  0  0  0  0  0  0  0  0  0  0  0
    7.9891   -4.9634   25.5890 H   0  0  0  0  0  0  0  0  0  0  0  0
  1  2  1  0
  2  3  2  0
  2  4  1  0
  4  5  2  0
  5  6  1  0
  6  7  2  0
  7  8  1  0
  8  9  2  0
  9 10  1  0
 10 11  1  0
 11 12  2  0
 12 13  1  0
 13 14  1  0
 14 15  2  0
 15 16  1  0
 16 17  2  0
 17 18  1  0
 18 19  2  0
 19 20  1  0
 17 21  1  0
 16 22  1  0
 15 23  1  0
 13 24  2  0
 24 25  1  0
 25 26  1  0
 26 27  1  0
 27 28  2  0
 28 29  1  0
 29 30  2  0
 30 31  1  0
 31 32  2  0
 31 33  1  0
 30 34  1  0
 29 35  1  0
 28 36  1  0
 26 37  1  0
 26 38  1  0
 10 39  1  0
 10 40  1  0
  8 41  1  0
  7 42  1  0
  6 43  1  0
  5 44  1  0
  1 45  1  0
  1 46  1  0
  1 47  1  0
  9  4  1  0
 25 11  1  0
 32 27  1  0
 19 14  1  0
M  END
>  <cnnaffinity>  (1) 
-6.53751

>  <filename>  (1) 
CS(=O)c1ccccc1Cc1nc(-c2cccnc2)nn1Cc1ccccn1

$$$$
