
     RDKit          3D

 34 35  0  0  0  0  0  0  0  0999 V2000
    4.9229    1.8242   16.9829 H   0  0  0  0  0  0  0  0  0  0  0  0
    5.4158    1.3251   17.8133 C   0  0  0  0  0  0  0  0  0  0  0  0
    6.5739    0.7104   17.5257 N   0  0  0  0  0  0  0  0  0  0  0  0
    7.1929    0.0662   18.5242 C   0  0  0  0  0  0  0  0  0  0  0  0
    8.1205   -0.4442   18.2697 H   0  0  0  0  0  0  0  0  0  0  0  0
    6.7144   -0.0082   19.8596 C   0  0  0  0  0  0  0  0  0  0  0  0
    7.2832   -0.8087   20.8597 N   0  0  0  0  0  0  0  0  0  0  0  0
    8.4532   -0.7046   21.3198 C   0  0  0  0  0  0  0  0  0  0  0  0
    9.3649    0.3094   21.1401 N   0  0  0  0  0  0  0  0  0  0  0  0
    9.1057    0.8569   20.3375 H   0  0  0  0  0  0  0  0  0  0  0  0
   10.2499   -0.1516   21.0298 H   0  0  0  0  0  0  0  0  0  0  0  0
    9.0597   -1.6251   22.1315 N   0  0  0  0  0  0  0  0  0  0  0  0
    9.7220   -1.1120   22.6747 H   0  0  0  0  0  0  0  0  0  0  0  0
    8.4169   -2.7348   22.7068 C   0  0  0  0  0  0  0  0  0  0  0  0
    7.6269   -3.5419   21.8804 C   0  0  0  0  0  0  0  0  0  0  0  0
    7.4870   -3.2137   20.8583 H   0  0  0  0  0  0  0  0  0  0  0  0
    7.0091   -4.6741   22.4020 C   0  0  0  0  0  0  0  0  0  0  0  0
    6.3965   -5.2882   21.7519 H   0  0  0  0  0  0  0  0  0  0  0  0
    7.1298   -4.9951   23.7533 C   0  0  0  0  0  0  0  0  0  0  0  0
    6.5954   -5.8547   24.1512 H   0  0  0  0  0  0  0  0  0  0  0  0
    7.9012   -4.1730   24.5897 C   0  0  0  0  0  0  0  0  0  0  0  0
    7.9945   -4.6017   26.3341 S   0  0  0  0  0  0  0  0  0  0  0  0
    6.8612   -5.4647   26.6499 O   0  0  0  0  0  0  0  0  0  0  0  0
    8.2874   -3.4099   27.1174 O   0  0  0  0  0  0  0  0  0  0  0  0
    9.4176   -5.6216   26.4666 C   0  0  0  0  0  0  0  0  0  0  0  0
    9.2650   -6.5344   25.8980 H   0  0  0  0  0  0  0  0  0  0  0  0
   10.2917   -5.0674   26.1403 H   0  0  0  0  0  0  0  0  0  0  0  0
    9.4647   -5.8269   27.5327 H   0  0  0  0  0  0  0  0  0  0  0  0
    8.5589   -3.0375   24.0705 C   0  0  0  0  0  0  0  0  0  0  0  0
    9.1200   -2.3477   24.7023 H   0  0  0  0  0  0  0  0  0  0  0  0
    5.4993    0.6484   20.1293 C   0  0  0  0  0  0  0  0  0  0  0  0
    5.1014    0.6059   21.1445 H   0  0  0  0  0  0  0  0  0  0  0  0
    4.8453    1.3212   19.0929 C   0  0  0  0  0  0  0  0  0  0  0  0
    3.9022    1.8306   19.2603 H   0  0  0  0  0  0  0  0  0  0  0  0
  1  2  1  0
  2  3  2  0
  3  4  1  0
  4  5  1  0
  4  6  2  0
  6  7  1  0
  7  8  2  3
  8  9  1  0
  9 10  1  0
  9 11  1  0
  8 12  1  0
 12 13  1  0
 12 14  1  0
 14 15  2  0
 15 16  1  0
 15 17  1  0
 17 18  1  0
 17 19  2  0
 19 20  1  0
 19 21  1  0
 21 22  1  0
 22 23  2  0
 22 24  2  0
 22 25  1  0
 25 26  1  0
 25 27  1  0
 25 28  1  0
 21 29  2  0
 29 30  1  0
  6 31  1  0
 31 32  1  0
 31 33  2  0
 33 34  1  0
 33  2  1  0
 29 14  1  0
M  END
>  <cnnaffinity>  (1) 
-4.8946

>  <filename>  (1) 
CS(=O)(=O)c1cccc(NC(N)=Nc2cccnc2)c1

$$$$
