
     RDKit          3D

 48 51  0  0  0  0  0  0  0  0999 V2000
    8.0603    1.9232   23.2502 C   0  0  0  0  0  0  0  0  0  0  0  0
    9.3790    2.7691   22.3379 S   0  0  0  0  0  0  0  0  0  0  0  0
    8.8736    2.8415   20.9233 O   0  0  0  0  0  0  0  0  0  0  0  0
   10.7112    1.5274   22.4242 C   0  0  0  0  0  0  0  0  0  0  0  0
   11.7554    1.7971   23.3190 C   0  0  0  0  0  0  0  0  0  0  0  0
   12.8763    0.9634   23.3713 C   0  0  0  0  0  0  0  0  0  0  0  0
   12.9608   -0.1442   22.5273 C   0  0  0  0  0  0  0  0  0  0  0  0
   11.9046   -0.4174   21.6532 C   0  0  0  0  0  0  0  0  0  0  0  0
   10.7752    0.4110   21.5678 C   0  0  0  0  0  0  0  0  0  0  0  0
    9.6390    0.0249   20.6462 C   0  0  0  0  0  0  0  0  0  0  0  0
    8.5400   -0.6892   21.3613 C   0  0  0  0  0  0  0  0  0  0  0  0
    8.6864   -1.4013   22.4540 N   0  0  0  0  0  0  0  0  0  0  0  0
    7.4605   -1.9661   22.6460 C   0  0  0  0  0  0  0  0  0  0  0  0
    7.2715   -2.9021   23.8042 C   0  0  0  0  0  0  0  0  0  0  0  0
    7.5617   -2.2134   25.1582 C   0  0  0  0  0  0  0  0  0  0  0  0
    7.8998   -3.3467   26.1440 C   0  0  0  0  0  0  0  0  0  0  0  0
    8.3142   -4.5607   25.2749 C   0  0  0  0  0  0  0  0  0  0  0  0
    8.2890   -4.0694   23.8182 C   0  0  0  0  0  0  0  0  0  0  0  0
    9.2753   -3.6706   23.5440 H   0  0  0  0  0  0  0  0  0  0  0  0
    8.0453   -4.8626   23.1023 H   0  0  0  0  0  0  0  0  0  0  0  0
    9.3046   -4.9447   25.5443 H   0  0  0  0  0  0  0  0  0  0  0  0
    7.6113   -5.3901   25.4200 H   0  0  0  0  0  0  0  0  0  0  0  0
    8.7016   -3.0366   26.8234 H   0  0  0  0  0  0  0  0  0  0  0  0
    7.0391   -3.6010   26.7737 H   0  0  0  0  0  0  0  0  0  0  0  0
    8.4442   -1.5731   25.0225 H   0  0  0  0  0  0  0  0  0  0  0  0
    6.7358   -1.5756   25.4933 H   0  0  0  0  0  0  0  0  0  0  0  0
    6.2468   -3.2949   23.7810 H   0  0  0  0  0  0  0  0  0  0  0  0
    6.5516   -1.6118   21.7613 N   0  0  0  0  0  0  0  0  0  0  0  0
    7.2473   -0.7953   20.9159 N   0  0  0  0  0  0  0  0  0  0  0  0
    6.5828   -0.0907   19.8734 C   0  0  0  0  0  0  0  0  0  0  0  0
    5.3930    0.6009   20.1311 C   0  0  0  0  0  0  0  0  0  0  0  0
    4.8083    1.3140   19.0824 C   0  0  0  0  0  0  0  0  0  0  0  0
    5.4175    1.3083   17.8217 C   0  0  0  0  0  0  0  0  0  0  0  0
    6.5475    0.6349   17.5598 N   0  0  0  0  0  0  0  0  0  0  0  0
    7.1104   -0.0411   18.5682 C   0  0  0  0  0  0  0  0  0  0  0  0
    8.0375   -0.5609   18.3364 H   0  0  0  0  0  0  0  0  0  0  0  0
    4.9775    1.8528   16.9892 H   0  0  0  0  0  0  0  0  0  0  0  0
    3.8938    1.8746   19.2334 H   0  0  0  0  0  0  0  0  0  0  0  0
    4.9500    0.5699   21.1286 H   0  0  0  0  0  0  0  0  0  0  0  0
    9.9928   -0.6531   19.8638 H   0  0  0  0  0  0  0  0  0  0  0  0
    9.2371    0.9179   20.1750 H   0  0  0  0  0  0  0  0  0  0  0  0
   11.9587   -1.2943   21.0140 H   0  0  0  0  0  0  0  0  0  0  0  0
   13.8201   -0.8093   22.5811 H   0  0  0  0  0  0  0  0  0  0  0  0
   13.6793    1.1930   24.0625 H   0  0  0  0  0  0  0  0  0  0  0  0
   11.6974    2.6849   23.9411 H   0  0  0  0  0  0  0  0  0  0  0  0
    7.5035    2.6677   23.8227 H   0  0  0  0  0  0  0  0  0  0  0  0
    7.3631    1.4791   22.5378 H   0  0  0  0  0  0  0  0  0  0  0  0
    8.4742    1.1479   23.8966 H   0  0  0  0  0  0  0  0  0  0  0  0
  1  2  1  0
  2  3  2  0
  2  4  1  0
  4  5  2  0
  5  6  1  0
  6  7  2  0
  7  8  1  0
  8  9  2  0
  9 10  1  0
 10 11  1  0
 11 12  2  0
 12 13  1  0
 13 14  1  0
 14 15  1  0
 15 16  1  0
 16 17  1  0
 17 18  1  0
 18 19  1  0
 18 20  1  0
 17 21  1  0
 17 22  1  0
 16 23  1  0
 16 24  1  0
 15 25  1  0
 15 26  1  0
 14 27  1  0
 13 28  2  0
 28 29  1  0
 29 30  1  0
 30 31  2  0
 31 32  1  0
 32 33  2  0
 33 34  1  0
 34 35  2  0
 35 36  1  0
 33 37  1  0
 32 38  1  0
 31 39  1  0
 10 40  1  0
 10 41  1  0
  8 42  1  0
  7 43  1  0
  6 44  1  0
  5 45  1  0
  1 46  1  0
  1 47  1  0
  1 48  1  0
  9  4  1  0
 29 11  1  0
 35 30  1  0
 18 14  1  0
M  END
>  <cnnaffinity>  (1) 
-6.7346

>  <filename>  (1) 
CS(=O)c1ccccc1Cc1nc(C2CCCC2)nn1-c1cccnc1

$$$$
