
     RDKit          3D

 34 36  0  0  0  0  0  0  0  0999 V2000
    4.9147    1.8075   16.9738 H   0  0  0  0  0  0  0  0  0  0  0  0
    5.3883    1.3041   17.8147 C   0  0  0  0  0  0  0  0  0  0  0  0
    6.5530    0.6879   17.5530 N   0  0  0  0  0  0  0  0  0  0  0  0
    7.1569    0.0608   18.5673 C   0  0  0  0  0  0  0  0  0  0  0  0
    8.1153   -0.4026   18.3325 H   0  0  0  0  0  0  0  0  0  0  0  0
    6.6447    0.0018   19.8786 C   0  0  0  0  0  0  0  0  0  0  0  0
    7.3564   -0.6787   20.9714 C   0  0  0  0  0  0  0  0  0  0  0  0
    7.5306   -0.3381   22.3113 C   0  0  0  0  0  0  0  0  0  0  0  0
    7.1838    0.9279   22.9747 C   0  0  0  0  0  0  0  0  0  0  0  0
    7.3340    2.1576   22.3130 C   0  0  0  0  0  0  0  0  0  0  0  0
    7.6912    2.1663   21.2870 H   0  0  0  0  0  0  0  0  0  0  0  0
    7.0063    3.3493   22.9594 C   0  0  0  0  0  0  0  0  0  0  0  0
    7.1115    4.2909   22.4313 H   0  0  0  0  0  0  0  0  0  0  0  0
    6.5318    3.3462   24.2720 C   0  0  0  0  0  0  0  0  0  0  0  0
    6.2617    4.2892   24.7469 H   0  0  0  0  0  0  0  0  0  0  0  0
    6.3937    2.1187   24.9416 C   0  0  0  0  0  0  0  0  0  0  0  0
    5.7602    2.0803   26.6187 S   0  0  0  0  0  0  0  0  0  0  0  0
    5.1102    0.7926   26.8387 O   0  0  0  0  0  0  0  0  0  0  0  0
    5.0844    3.3471   26.8802 O   0  0  0  0  0  0  0  0  0  0  0  0
    7.1809    2.0792   27.6585 C   0  0  0  0  0  0  0  0  0  0  0  0
    6.7777    2.0575   28.6702 H   0  0  0  0  0  0  0  0  0  0  0  0
    7.7373    2.9939   27.4756 H   0  0  0  0  0  0  0  0  0  0  0  0
    7.7558    1.1807   27.4510 H   0  0  0  0  0  0  0  0  0  0  0  0
    6.7122    0.9163   24.2957 C   0  0  0  0  0  0  0  0  0  0  0  0
    6.5811   -0.0560   24.7687 H   0  0  0  0  0  0  0  0  0  0  0  0
    8.1977   -1.4551   22.8688 C   0  0  0  0  0  0  0  0  0  0  0  0
    8.5309   -1.5880   23.8932 H   0  0  0  0  0  0  0  0  0  0  0  0
    8.4445   -2.3916   21.9652 N   0  0  0  0  0  0  0  0  0  0  0  0
    7.9387   -1.8929   20.8284 N   0  0  0  0  0  0  0  0  0  0  0  0
    7.9436   -2.4527   19.9869 H   0  0  0  0  0  0  0  0  0  0  0  0
    5.4223    0.6448   20.1267 C   0  0  0  0  0  0  0  0  0  0  0  0
    5.0112    0.6397   21.1364 H   0  0  0  0  0  0  0  0  0  0  0  0
    4.7905    1.3117   19.0797 C   0  0  0  0  0  0  0  0  0  0  0  0
    3.8635    1.8491   19.2372 H   0  0  0  0  0  0  0  0  0  0  0  0
  1  2  1  0
  2  3  2  0
  3  4  1  0
  4  5  1  0
  4  6  2  0
  6  7  1  0
  7  8  2  0
  8  9  1  0
  9 10  2  0
 10 11  1  0
 10 12  1  0
 12 13  1  0
 12 14  2  0
 14 15  1  0
 14 16  1  0
 16 17  1  0
 17 18  2  0
 17 19  2  0
 17 20  1  0
 20 21  1  0
 20 22  1  0
 20 23  1  0
 16 24  2  0
 24 25  1  0
  8 26  1  0
 26 27  1  0
 26 28  2  0
 28 29  1  0
 29 30  1  0
  6 31  1  0
 31 32  1  0
 31 33  2  0
 33 34  1  0
 33  2  1  0
 29  7  1  0
 24  9  1  0
M  END
>  <cnnaffinity>  (1) 
-5.23674

>  <filename>  (1) 
CS(=O)(=O)c1cccc(-c2cn[nH]c2-c2cccnc2)c1

$$$$
