
     RDKit          3D

 49 52  0  0  0  0  0  0  0  0999 V2000
    6.9617    2.0776   23.4485 C   0  0  0  0  0  0  0  0  0  0  0  0
    7.9370    2.7103   22.0628 S   0  0  0  0  0  0  0  0  0  0  0  0
    7.8759    4.1989   22.2472 O   0  0  0  0  0  0  0  0  0  0  0  0
    9.5922    2.1565   22.5958 C   0  0  0  0  0  0  0  0  0  0  0  0
   10.1992    2.8293   23.6660 C   0  0  0  0  0  0  0  0  0  0  0  0
   11.4854    2.4686   24.0699 C   0  0  0  0  0  0  0  0  0  0  0  0
   12.1847    1.4615   23.3998 C   0  0  0  0  0  0  0  0  0  0  0  0
   11.5695    0.8032   22.3306 C   0  0  0  0  0  0  0  0  0  0  0  0
   10.2746    1.1323   21.9196 C   0  0  0  0  0  0  0  0  0  0  0  0
    9.6192    0.3244   20.8243 C   0  0  0  0  0  0  0  0  0  0  0  0
    8.5889   -0.5902   21.3694 C   0  0  0  0  0  0  0  0  0  0  0  0
    8.8233   -1.4272   22.3554 N   0  0  0  0  0  0  0  0  0  0  0  0
    7.6096   -1.9982   22.5615 C   0  0  0  0  0  0  0  0  0  0  0  0
    7.3828   -2.9453   23.6910 C   0  0  0  0  0  0  0  0  0  0  0  0
    8.3616   -4.1524   23.6348 C   0  0  0  0  0  0  0  0  0  0  0  0
    8.2901   -4.9901   24.8913 C   0  0  0  0  0  0  0  0  0  0  0  0
    7.7761   -4.5503   26.0421 C   0  0  0  0  0  0  0  0  0  0  0  0
    7.1475   -3.1825   26.2117 C   0  0  0  0  0  0  0  0  0  0  0  0
    7.5137   -2.2239   25.0630 C   0  0  0  0  0  0  0  0  0  0  0  0
    8.5504   -1.8619   25.1687 H   0  0  0  0  0  0  0  0  0  0  0  0
    6.8729   -1.3291   25.0979 H   0  0  0  0  0  0  0  0  0  0  0  0
    6.0517   -3.3000   26.2667 H   0  0  0  0  0  0  0  0  0  0  0  0
    7.4394   -2.7609   27.1831 H   0  0  0  0  0  0  0  0  0  0  0  0
    7.7727   -5.2025   26.9174 H   0  0  0  0  0  0  0  0  0  0  0  0
    8.7064   -5.9977   24.8319 H   0  0  0  0  0  0  0  0  0  0  0  0
    8.1480   -4.7818   22.7604 H   0  0  0  0  0  0  0  0  0  0  0  0
    9.3942   -3.7904   23.4889 H   0  0  0  0  0  0  0  0  0  0  0  0
    6.3486   -3.2941   23.5613 H   0  0  0  0  0  0  0  0  0  0  0  0
    6.6555   -1.5870   21.7500 N   0  0  0  0  0  0  0  0  0  0  0  0
    7.2998   -0.6994   20.9482 N   0  0  0  0  0  0  0  0  0  0  0  0
    6.6314   -0.0199   19.8917 C   0  0  0  0  0  0  0  0  0  0  0  0
    5.4274    0.6384   20.1482 C   0  0  0  0  0  0  0  0  0  0  0  0
    4.8033    1.3201   19.1003 C   0  0  0  0  0  0  0  0  0  0  0  0
    5.3932    1.2986   17.8314 C   0  0  0  0  0  0  0  0  0  0  0  0
    6.5419    0.6559   17.5717 N   0  0  0  0  0  0  0  0  0  0  0  0
    7.1482    0.0259   18.5833 C   0  0  0  0  0  0  0  0  0  0  0  0
    8.0998   -0.4495   18.3448 H   0  0  0  0  0  0  0  0  0  0  0  0
    4.9326    1.8134   16.9898 H   0  0  0  0  0  0  0  0  0  0  0  0
    3.8724    1.8577   19.2519 H   0  0  0  0  0  0  0  0  0  0  0  0
    5.0095    0.5938   21.1531 H   0  0  0  0  0  0  0  0  0  0  0  0
   10.3498   -0.3269   20.3406 H   0  0  0  0  0  0  0  0  0  0  0  0
    9.1699    0.9833   20.0832 H   0  0  0  0  0  0  0  0  0  0  0  0
   12.0914    0.0122   21.8006 H   0  0  0  0  0  0  0  0  0  0  0  0
   13.1873    1.1823   23.7124 H   0  0  0  0  0  0  0  0  0  0  0  0
   11.9496    3.0004   24.8903 H   0  0  0  0  0  0  0  0  0  0  0  0
    9.6687    3.6508   24.1439 H   0  0  0  0  0  0  0  0  0  0  0  0
    7.0276    0.9898   23.5275 H   0  0  0  0  0  0  0  0  0  0  0  0
    5.9360    2.3988   23.2451 H   0  0  0  0  0  0  0  0  0  0  0  0
    7.3010    2.5668   24.3670 H   0  0  0  0  0  0  0  0  0  0  0  0
  1  2  1  0
  2  3  2  0
  2  4  1  0
  4  5  2  0
  5  6  1  0
  6  7  2  0
  7  8  1  0
  8  9  2  0
  9 10  1  0
 10 11  1  0
 11 12  2  0
 12 13  1  0
 13 14  1  0
 14 15  1  0
 15 16  1  0
 16 17  2  0
 17 18  1  0
 18 19  1  0
 19 20  1  0
 19 21  1  0
 18 22  1  0
 18 23  1  0
 17 24  1  0
 16 25  1  0
 15 26  1  0
 15 27  1  0
 14 28  1  0
 13 29  2  0
 29 30  1  0
 30 31  1  0
 31 32  2  0
 32 33  1  0
 33 34  2  0
 34 35  1  0
 35 36  2  0
 36 37  1  0
 34 38  1  0
 33 39  1  0
 32 40  1  0
 10 41  1  0
 10 42  1  0
  8 43  1  0
  7 44  1  0
  6 45  1  0
  5 46  1  0
  1 47  1  0
  1 48  1  0
  1 49  1  0
  9  4  1  0
 30 11  1  0
 36 31  1  0
 19 14  1  0
M  END
>  <cnnaffinity>  (1) 
-6.59684

>  <filename>  (1) 
CS(=O)c1ccccc1Cc1nc(C2CC=CCC2)nn1-c1cccnc1

$$$$
