
     RDKit          3D

 35 37  0  0  0  0  0  0  0  0999 V2000
    4.9349    1.8168   16.9415 H   0  0  0  0  0  0  0  0  0  0  0  0
    5.4064    1.3123   17.7834 C   0  0  0  0  0  0  0  0  0  0  0  0
    6.5584    0.6697   17.5284 N   0  0  0  0  0  0  0  0  0  0  0  0
    7.1745    0.0538   18.5465 C   0  0  0  0  0  0  0  0  0  0  0  0
    8.1075   -0.4620   18.3243 H   0  0  0  0  0  0  0  0  0  0  0  0
    6.6652    0.0356   19.8585 C   0  0  0  0  0  0  0  0  0  0  0  0
    7.3253   -0.6562   20.9217 N   0  0  0  0  0  0  0  0  0  0  0  0
    6.6907   -1.5995   21.7146 C   0  0  0  0  0  0  0  0  0  0  0  0
    5.6592   -1.8686   21.5405 H   0  0  0  0  0  0  0  0  0  0  0  0
    7.5751   -2.0487   22.6317 C   0  0  0  0  0  0  0  0  0  0  0  0
    7.4017   -3.0203   23.7142 C   0  0  0  0  0  0  0  0  0  0  0  0
    6.1368   -3.1832   24.3068 C   0  0  0  0  0  0  0  0  0  0  0  0
    5.3054   -2.5674   23.9709 H   0  0  0  0  0  0  0  0  0  0  0  0
    5.9472   -4.1216   25.3217 C   0  0  0  0  0  0  0  0  0  0  0  0
    4.9683   -4.2107   25.7838 H   0  0  0  0  0  0  0  0  0  0  0  0
    6.9986   -4.9414   25.7448 C   0  0  0  0  0  0  0  0  0  0  0  0
    6.8249   -5.6590   26.5469 H   0  0  0  0  0  0  0  0  0  0  0  0
    8.2553   -4.7962   25.1291 C   0  0  0  0  0  0  0  0  0  0  0  0
    9.6566   -5.7690   25.6704 S   0  0  0  0  0  0  0  0  0  0  0  0
    9.1898   -7.0958   26.0447 O   0  0  0  0  0  0  0  0  0  0  0  0
   10.7485   -5.5508   24.7297 O   0  0  0  0  0  0  0  0  0  0  0  0
   10.1056   -4.9301   27.1474 C   0  0  0  0  0  0  0  0  0  0  0  0
   11.0532   -5.3301   27.4928 H   0  0  0  0  0  0  0  0  0  0  0  0
   10.1950   -3.8790   26.8907 H   0  0  0  0  0  0  0  0  0  0  0  0
    9.3194   -5.0865   27.8803 H   0  0  0  0  0  0  0  0  0  0  0  0
    8.4698   -3.8142   24.1565 C   0  0  0  0  0  0  0  0  0  0  0  0
    9.4566   -3.6537   23.7261 H   0  0  0  0  0  0  0  0  0  0  0  0
    8.7593   -1.3684   22.3747 N   0  0  0  0  0  0  0  0  0  0  0  0
    9.6158   -1.3912   22.9058 H   0  0  0  0  0  0  0  0  0  0  0  0
    8.6108   -0.4460   21.3843 C   0  0  0  0  0  0  0  0  0  0  0  0
    9.7214    0.6928   20.9137 S   0  0  0  0  0  0  0  0  0  0  0  0
    5.4549    0.6890   20.1085 C   0  0  0  0  0  0  0  0  0  0  0  0
    5.0367    0.6808   21.1159 H   0  0  0  0  0  0  0  0  0  0  0  0
    4.8173    1.3435   19.0521 C   0  0  0  0  0  0  0  0  0  0  0  0
    3.8815    1.8703   19.2026 H   0  0  0  0  0  0  0  0  0  0  0  0
  1  2  1  0
  2  3  2  0
  3  4  1  0
  4  5  1  0
  4  6  2  0
  6  7  1  0
  7  8  1  0
  8  9  1  0
  8 10  2  0
 10 11  1  0
 11 12  2  0
 12 13  1  0
 12 14  1  0
 14 15  1  0
 14 16  2  0
 16 17  1  0
 16 18  1  0
 18 19  1  0
 19 20  2  0
 19 21  2  0
 19 22  1  0
 22 23  1  0
 22 24  1  0
 22 25  1  0
 18 26  2  0
 26 27  1  0
 10 28  1  0
 28 29  1  0
 28 30  1  0
 30 31  2  0
  6 32  1  0
 32 33  1  0
 32 34  2  0
 34 35  1  0
 34  2  1  0
 30  7  1  0
 26 11  1  0
M  END
>  <cnnaffinity>  (1) 
-5.76743

>  <filename>  (1) 
CS(=O)(=O)c1cccc(-c2cn(-c3cccnc3)c(=S)[nH]2)c1

$$$$
