
     RDKit          3D

 42 45  0  0  0  0  0  0  0  0999 V2000
    6.8814    2.2604   23.2375 C   0  0  0  0  0  0  0  0  0  0  0  0
    7.9485    2.8042   21.8855 S   0  0  0  0  0  0  0  0  0  0  0  0
    7.9156    4.3002   22.0118 O   0  0  0  0  0  0  0  0  0  0  0  0
    9.5572    2.2313   22.5244 C   0  0  0  0  0  0  0  0  0  0  0  0
   10.1296    2.9351   23.5927 C   0  0  0  0  0  0  0  0  0  0  0  0
   11.3904    2.5672   24.0680 C   0  0  0  0  0  0  0  0  0  0  0  0
   12.0904    1.5117   23.4787 C   0  0  0  0  0  0  0  0  0  0  0  0
   11.5106    0.8231   22.4104 C   0  0  0  0  0  0  0  0  0  0  0  0
   10.2464    1.1676   21.9211 C   0  0  0  0  0  0  0  0  0  0  0  0
    9.6307    0.3239   20.8295 C   0  0  0  0  0  0  0  0  0  0  0  0
    8.5928   -0.5814   21.3760 C   0  0  0  0  0  0  0  0  0  0  0  0
    8.8228   -1.4299   22.3498 N   0  0  0  0  0  0  0  0  0  0  0  0
    7.6155   -2.0160   22.5331 C   0  0  0  0  0  0  0  0  0  0  0  0
    7.3999   -3.0068   23.5879 C   0  0  0  0  0  0  0  0  0  0  0  0
    8.3644   -3.4418   24.4653 C   0  0  0  0  0  0  0  0  0  0  0  0
    7.7279   -4.5832   25.5631 S   0  0  0  0  0  0  0  0  0  0  0  0
    6.1585   -4.4852   24.8678 C   0  0  0  0  0  0  0  0  0  0  0  0
    6.1210   -3.6089   23.8322 C   0  0  0  0  0  0  0  0  0  0  0  0
    5.2405   -3.3568   23.2464 H   0  0  0  0  0  0  0  0  0  0  0  0
    5.3701   -5.0949   25.2927 H   0  0  0  0  0  0  0  0  0  0  0  0
    9.4096   -3.1512   24.5404 H   0  0  0  0  0  0  0  0  0  0  0  0
    6.6607   -1.5933   21.7179 N   0  0  0  0  0  0  0  0  0  0  0  0
    7.3051   -0.6840   20.9481 N   0  0  0  0  0  0  0  0  0  0  0  0
    6.6336   -0.0135   19.8886 C   0  0  0  0  0  0  0  0  0  0  0  0
    5.4293    0.6399   20.1486 C   0  0  0  0  0  0  0  0  0  0  0  0
    4.7994    1.3182   19.1009 C   0  0  0  0  0  0  0  0  0  0  0  0
    5.3871    1.2968   17.8307 C   0  0  0  0  0  0  0  0  0  0  0  0
    6.5333    0.6504   17.5671 N   0  0  0  0  0  0  0  0  0  0  0  0
    7.1428    0.0211   18.5781 C   0  0  0  0  0  0  0  0  0  0  0  0
    8.0932   -0.4565   18.3375 H   0  0  0  0  0  0  0  0  0  0  0  0
    4.9331    1.8194   16.9914 H   0  0  0  0  0  0  0  0  0  0  0  0
    3.8709    1.8585   19.2515 H   0  0  0  0  0  0  0  0  0  0  0  0
    5.0240    0.6031   21.1606 H   0  0  0  0  0  0  0  0  0  0  0  0
   10.3874   -0.3313   20.3911 H   0  0  0  0  0  0  0  0  0  0  0  0
    9.2027    0.9540   20.0509 H   0  0  0  0  0  0  0  0  0  0  0  0
   12.0363   -0.0003   21.9352 H   0  0  0  0  0  0  0  0  0  0  0  0
   13.0684    1.2225   23.8551 H   0  0  0  0  0  0  0  0  0  0  0  0
   11.8486    3.1354   24.8669 H   0  0  0  0  0  0  0  0  0  0  0  0
    9.5967    3.7918   24.0017 H   0  0  0  0  0  0  0  0  0  0  0  0
    6.9056    1.1757   23.3597 H   0  0  0  0  0  0  0  0  0  0  0  0
    5.8802    2.6094   22.9667 H   0  0  0  0  0  0  0  0  0  0  0  0
    7.1971    2.7767   24.1495 H   0  0  0  0  0  0  0  0  0  0  0  0
  1  2  1  0
  2  3  2  0
  2  4  1  0
  4  5  2  0
  5  6  1  0
  6  7  2  0
  7  8  1  0
  8  9  2  0
  9 10  1  0
 10 11  1  0
 11 12  2  0
 12 13  1  0
 13 14  1  0
 14 15  2  0
 15 16  1  0
 16 17  1  0
 17 18  2  0
 18 19  1  0
 17 20  1  0
 15 21  1  0
 13 22  2  0
 22 23  1  0
 23 24  1  0
 24 25  2  0
 25 26  1  0
 26 27  2  0
 27 28  1  0
 28 29  2  0
 29 30  1  0
 27 31  1  0
 26 32  1  0
 25 33  1  0
 10 34  1  0
 10 35  1  0
  8 36  1  0
  7 37  1  0
  6 38  1  0
  5 39  1  0
  1 40  1  0
  1 41  1  0
  1 42  1  0
  9  4  1  0
 23 11  1  0
 29 24  1  0
 18 14  1  0
M  END
>  <cnnaffinity>  (1) 
-6.05799

>  <filename>  (1) 
CS(=O)c1ccccc1Cc1nc(-c2ccsc2)nn1-c1cccnc1

$$$$
