
     RDKit          3D

 42 45  0  0  0  0  0  0  0  0999 V2000
    6.9488    2.2040   23.1654 C   0  0  0  0  0  0  0  0  0  0  0  0
    7.9967    2.8630   21.8512 S   0  0  0  0  0  0  0  0  0  0  0  0
    7.9549    4.3438   22.0966 O   0  0  0  0  0  0  0  0  0  0  0  0
    9.5804    2.2598   22.5058 C   0  0  0  0  0  0  0  0  0  0  0  0
   10.1498    2.9882   23.5627 C   0  0  0  0  0  0  0  0  0  0  0  0
   11.4068    2.6279   24.0496 C   0  0  0  0  0  0  0  0  0  0  0  0
   12.0999    1.5494   23.4972 C   0  0  0  0  0  0  0  0  0  0  0  0
   11.5216    0.8401   22.4449 C   0  0  0  0  0  0  0  0  0  0  0  0
   10.2506    1.1612   21.9456 C   0  0  0  0  0  0  0  0  0  0  0  0
    9.6415    0.2762   20.8742 C   0  0  0  0  0  0  0  0  0  0  0  0
    8.5619   -0.6119   21.4035 C   0  0  0  0  0  0  0  0  0  0  0  0
    8.7291   -1.4507   22.4015 N   0  0  0  0  0  0  0  0  0  0  0  0
    7.5094   -2.0341   22.5347 C   0  0  0  0  0  0  0  0  0  0  0  0
    7.2797   -3.0341   23.5673 C   0  0  0  0  0  0  0  0  0  0  0  0
    8.2564   -3.4567   24.4113 C   0  0  0  0  0  0  0  0  0  0  0  0
    7.7664   -4.3660   25.2815 O   0  0  0  0  0  0  0  0  0  0  0  0
    6.4436   -4.5266   24.9928 C   0  0  0  0  0  0  0  0  0  0  0  0
    6.0800   -3.7425   23.9515 C   0  0  0  0  0  0  0  0  0  0  0  0
    5.0992   -3.6390   23.5089 H   0  0  0  0  0  0  0  0  0  0  0  0
    5.8990   -5.2146   25.6177 H   0  0  0  0  0  0  0  0  0  0  0  0
    9.3017   -3.1908   24.5028 H   0  0  0  0  0  0  0  0  0  0  0  0
    6.6002   -1.6112   21.6772 N   0  0  0  0  0  0  0  0  0  0  0  0
    7.2854   -0.7185   20.9141 N   0  0  0  0  0  0  0  0  0  0  0  0
    6.6162   -0.0264   19.8697 C   0  0  0  0  0  0  0  0  0  0  0  0
    5.4180    0.6445   20.1346 C   0  0  0  0  0  0  0  0  0  0  0  0
    4.8061    1.3357   19.0867 C   0  0  0  0  0  0  0  0  0  0  0  0
    5.3900    1.3139   17.8141 C   0  0  0  0  0  0  0  0  0  0  0  0
    6.5172    0.6411   17.5429 N   0  0  0  0  0  0  0  0  0  0  0  0
    7.1098   -0.0118   18.5500 C   0  0  0  0  0  0  0  0  0  0  0  0
    8.0223   -0.5533   18.3100 H   0  0  0  0  0  0  0  0  0  0  0  0
    4.9369    1.8548   16.9843 H   0  0  0  0  0  0  0  0  0  0  0  0
    3.8842    1.8789   19.2408 H   0  0  0  0  0  0  0  0  0  0  0  0
    4.9907    0.6037   21.1387 H   0  0  0  0  0  0  0  0  0  0  0  0
   10.4225   -0.3907   20.4957 H   0  0  0  0  0  0  0  0  0  0  0  0
    9.2749    0.8704   20.0360 H   0  0  0  0  0  0  0  0  0  0  0  0
   12.0693    0.0198   21.9880 H   0  0  0  0  0  0  0  0  0  0  0  0
   13.0840    1.2741   23.8733 H   0  0  0  0  0  0  0  0  0  0  0  0
   11.8534    3.2038   24.8473 H   0  0  0  0  0  0  0  0  0  0  0  0
    9.6202    3.8473   23.9692 H   0  0  0  0  0  0  0  0  0  0  0  0
    7.2724    2.6775   24.0963 H   0  0  0  0  0  0  0  0  0  0  0  0
    5.9371    2.5462   22.9425 H   0  0  0  0  0  0  0  0  0  0  0  0
    6.9960    1.1144   23.2308 H   0  0  0  0  0  0  0  0  0  0  0  0
  1  2  1  0
  2  3  2  0
  2  4  1  0
  4  5  2  0
  5  6  1  0
  6  7  2  0
  7  8  1  0
  8  9  2  0
  9 10  1  0
 10 11  1  0
 11 12  2  0
 12 13  1  0
 13 14  1  0
 14 15  2  0
 15 16  1  0
 16 17  1  0
 17 18  2  0
 18 19  1  0
 17 20  1  0
 15 21  1  0
 13 22  2  0
 22 23  1  0
 23 24  1  0
 24 25  2  0
 25 26  1  0
 26 27  2  0
 27 28  1  0
 28 29  2  0
 29 30  1  0
 27 31  1  0
 26 32  1  0
 25 33  1  0
 10 34  1  0
 10 35  1  0
  8 36  1  0
  7 37  1  0
  6 38  1  0
  5 39  1  0
  1 40  1  0
  1 41  1  0
  1 42  1  0
  9  4  1  0
 23 11  1  0
 29 24  1  0
 18 14  1  0
M  END
>  <cnnaffinity>  (1) 
-5.91559

>  <filename>  (1) 
CS(=O)c1ccccc1Cc1nc(-c2ccoc2)nn1-c1cccnc1

$$$$
