
     RDKit          3D

 41 43  0  0  0  0  0  0  0  0999 V2000
    5.2902    1.3332   17.6083 H   0  0  0  0  0  0  0  0  0  0  0  0
    5.8241    0.8971   18.4546 C   0  0  0  0  0  0  0  0  0  0  0  0
    7.0864    0.5092   18.2314 N   0  0  0  0  0  0  0  0  0  0  0  0
    7.7629   -0.0237   19.2617 C   0  0  0  0  0  0  0  0  0  0  0  0
    8.7983   -0.2825   19.0391 H   0  0  0  0  0  0  0  0  0  0  0  0
    7.2432   -0.2243   20.5562 C   0  0  0  0  0  0  0  0  0  0  0  0
    8.1970   -0.7647   21.6526 C   0  0  0  0  0  0  0  0  0  0  0  0
    9.3144    0.2961   21.8918 C   0  0  0  0  0  0  0  0  0  0  0  0
   10.6955    0.0410   21.7838 C   0  0  0  0  0  0  0  0  0  0  0  0
   11.0685   -0.9333   21.4785 H   0  0  0  0  0  0  0  0  0  0  0  0
   11.6317    1.0432   22.0592 C   0  0  0  0  0  0  0  0  0  0  0  0
   12.6860    0.8258   21.9310 H   0  0  0  0  0  0  0  0  0  0  0  0
   11.2350    2.3042   22.5045 C   0  0  0  0  0  0  0  0  0  0  0  0
   11.9824    3.0629   22.7277 H   0  0  0  0  0  0  0  0  0  0  0  0
    9.8608    2.5562   22.6298 C   0  0  0  0  0  0  0  0  0  0  0  0
    9.2611    4.0724   23.3559 S   0  0  0  0  0  0  0  0  0  0  0  0
    7.9822    4.4178   22.7535 O   0  0  0  0  0  0  0  0  0  0  0  0
   10.3472    5.0382   23.4507 O   0  0  0  0  0  0  0  0  0  0  0  0
    8.8865    3.5652   25.0056 C   0  0  0  0  0  0  0  0  0  0  0  0
    9.7565    3.0772   25.4374 H   0  0  0  0  0  0  0  0  0  0  0  0
    8.6473    4.4790   25.5416 H   0  0  0  0  0  0  0  0  0  0  0  0
    8.0163    2.9124   24.9583 H   0  0  0  0  0  0  0  0  0  0  0  0
    8.9160    1.5881   22.2728 C   0  0  0  0  0  0  0  0  0  0  0  0
    7.8519    1.8436   22.2632 H   0  0  0  0  0  0  0  0  0  0  0  0
    7.4829   -1.0044   23.0231 C   0  0  0  0  0  0  0  0  0  0  0  0
    8.2608   -1.2143   23.7664 H   0  0  0  0  0  0  0  0  0  0  0  0
    6.9597   -0.0970   23.3491 H   0  0  0  0  0  0  0  0  0  0  0  0
    6.5300   -2.2042   23.0006 C   0  0  0  0  0  0  0  0  0  0  0  0
    6.0811   -2.3911   23.9821 H   0  0  0  0  0  0  0  0  0  0  0  0
    5.7145   -2.0447   22.2802 H   0  0  0  0  0  0  0  0  0  0  0  0
    7.2055   -3.3922   22.6328 O   0  0  0  0  0  0  0  0  0  0  0  0
    7.7324   -3.2859   21.3238 C   0  0  0  0  0  0  0  0  0  0  0  0
    6.9189   -3.1360   20.5949 H   0  0  0  0  0  0  0  0  0  0  0  0
    8.1811   -4.2595   21.1023 H   0  0  0  0  0  0  0  0  0  0  0  0
    8.7674   -2.1588   21.2327 C   0  0  0  0  0  0  0  0  0  0  0  0
    9.2000   -2.1049   20.2289 H   0  0  0  0  0  0  0  0  0  0  0  0
    9.5639   -2.4272   21.9365 H   0  0  0  0  0  0  0  0  0  0  0  0
    5.9153    0.1971   20.7577 C   0  0  0  0  0  0  0  0  0  0  0  0
    5.4342    0.0944   21.7301 H   0  0  0  0  0  0  0  0  0  0  0  0
    5.1993    0.7620   19.6963 C   0  0  0  0  0  0  0  0  0  0  0  0
    4.1786    1.1043   19.8309 H   0  0  0  0  0  0  0  0  0  0  0  0
  1  2  1  0
  2  3  2  0
  3  4  1  0
  4  5  1  0
  4  6  2  0
  6  7  1  0
  7  8  1  0
  8  9  2  0
  9 10  1  0
  9 11  1  0
 11 12  1  0
 11 13  2  0
 13 14  1  0
 13 15  1  0
 15 16  1  0
 16 17  2  0
 16 18  2  0
 16 19  1  0
 19 20  1  0
 19 21  1  0
 19 22  1  0
 15 23  2  0
 23 24  1  0
  7 25  1  0
 25 26  1  0
 25 27  1  0
 25 28  1  0
 28 29  1  0
 28 30  1  0
 28 31  1  0
 31 32  1  0
 32 33  1  0
 32 34  1  0
 32 35  1  0
 35 36  1  0
 35 37  1  0
  6 38  1  0
 38 39  1  0
 38 40  2  0
 40 41  1  0
 40  2  1  0
 35  7  1  0
 23  8  1  0
M  END
>  <cnnaffinity>  (1) 
-5.42212

>  <filename>  (1) 
CS(=O)(=O)c1cccc(C2(c3cccnc3)CCOCC2)c1

$$$$
