
     RDKit          3D

 27 28  0  0  0  0  0  0  0  0999 V2000
    4.9641    1.7801   17.0170 H   0  0  0  0  0  0  0  0  0  0  0  0
    5.4309    1.2665   17.8540 C   0  0  0  0  0  0  0  0  0  0  0  0
    6.5844    0.6280   17.5980 N   0  0  0  0  0  0  0  0  0  0  0  0
    7.1953    0.0114   18.6180 C   0  0  0  0  0  0  0  0  0  0  0  0
    8.1335   -0.4902   18.3943 H   0  0  0  0  0  0  0  0  0  0  0  0
    6.6754   -0.0206   19.9288 C   0  0  0  0  0  0  0  0  0  0  0  0
    7.3305   -0.7085   20.9947 N   0  0  0  0  0  0  0  0  0  0  0  0
    6.6989   -1.6746   21.7909 C   0  0  0  0  0  0  0  0  0  0  0  0
    5.6536   -1.9202   21.7182 H   0  0  0  0  0  0  0  0  0  0  0  0
    7.6400   -2.1222   22.6331 C   0  0  0  0  0  0  0  0  0  0  0  0
    7.6157   -3.1426   23.5541 N   0  0  0  0  0  0  0  0  0  0  0  0
    6.7917   -3.2828   24.1107 H   0  0  0  0  0  0  0  0  0  0  0  0
    8.7822   -3.3227   24.7112 S   0  0  0  0  0  0  0  0  0  0  0  0
    8.0154   -4.0082   25.7270 O   0  0  0  0  0  0  0  0  0  0  0  0
    9.4668   -2.0734   24.9906 O   0  0  0  0  0  0  0  0  0  0  0  0
    9.8702   -4.3860   23.8546 C   0  0  0  0  0  0  0  0  0  0  0  0
   10.2870   -3.7794   23.0540 H   0  0  0  0  0  0  0  0  0  0  0  0
    9.2642   -5.1944   23.4482 H   0  0  0  0  0  0  0  0  0  0  0  0
   10.6546   -4.7420   24.5209 H   0  0  0  0  0  0  0  0  0  0  0  0
    8.8113   -1.4703   22.4069 N   0  0  0  0  0  0  0  0  0  0  0  0
    9.5358   -1.3925   23.1046 H   0  0  0  0  0  0  0  0  0  0  0  0
    8.6368   -0.5413   21.4189 C   0  0  0  0  0  0  0  0  0  0  0  0
    9.7771    0.5511   20.9332 S   0  0  0  0  0  0  0  0  0  0  0  0
    5.4686    0.6389   20.1788 C   0  0  0  0  0  0  0  0  0  0  0  0
    5.0601    0.6270   21.1913 H   0  0  0  0  0  0  0  0  0  0  0  0
    4.8362    1.2985   19.1208 C   0  0  0  0  0  0  0  0  0  0  0  0
    3.9042    1.8340   19.2730 H   0  0  0  0  0  0  0  0  0  0  0  0
  1  2  1  0
  2  3  2  0
  3  4  1  0
  4  5  1  0
  4  6  2  0
  6  7  1  0
  7  8  1  0
  8  9  1  0
  8 10  2  0
 10 11  1  0
 11 12  1  0
 11 13  1  0
 13 14  2  0
 13 15  2  0
 13 16  1  0
 16 17  1  0
 16 18  1  0
 16 19  1  0
 10 20  1  0
 20 21  1  0
 20 22  1  0
 22 23  2  0
  6 24  1  0
 24 25  1  0
 24 26  2  0
 26 27  1  0
 26  2  1  0
 22  7  1  0
M  END
>  <cnnaffinity>  (1) 
-4.91432

>  <filename>  (1) 
CS(=O)(=O)Nc1cn(-c2cccnc2)c(=S)[nH]1

$$$$
