
     RDKit          3D

 36 38  0  0  0  0  0  0  0  0999 V2000
    4.9366    1.8008   16.9740 H   0  0  0  0  0  0  0  0  0  0  0  0
    5.3945    1.2964   17.8236 C   0  0  0  0  0  0  0  0  0  0  0  0
    6.5542    0.6679   17.5797 N   0  0  0  0  0  0  0  0  0  0  0  0
    7.1468    0.0449   18.6067 C   0  0  0  0  0  0  0  0  0  0  0  0
    8.0897   -0.4479   18.3769 H   0  0  0  0  0  0  0  0  0  0  0  0
    6.6176    0.0019   19.9028 C   0  0  0  0  0  0  0  0  0  0  0  0
    7.4332   -0.6292   21.0181 C   0  0  0  0  0  0  0  0  0  0  0  0
    8.4009    0.3924   21.6172 C   0  0  0  0  0  0  0  0  0  0  0  0
    9.7079    0.5189   21.1349 C   0  0  0  0  0  0  0  0  0  0  0  0
   10.0471   -0.1847   20.3814 H   0  0  0  0  0  0  0  0  0  0  0  0
   10.5525    1.5076   21.6364 C   0  0  0  0  0  0  0  0  0  0  0  0
   11.5682    1.5985   21.2652 H   0  0  0  0  0  0  0  0  0  0  0  0
   10.1132    2.3791   22.6327 C   0  0  0  0  0  0  0  0  0  0  0  0
   10.7947    3.1276   23.0429 H   0  0  0  0  0  0  0  0  0  0  0  0
    8.7957    2.2563   23.1040 C   0  0  0  0  0  0  0  0  0  0  0  0
    8.2121    3.3405   24.4055 S   0  0  0  0  0  0  0  0  0  0  0  0
    7.2154    2.6347   25.2006 O   0  0  0  0  0  0  0  0  0  0  0  0
    9.3640    3.9977   25.0178 O   0  0  0  0  0  0  0  0  0  0  0  0
    7.3225    4.6125   23.5816 C   0  0  0  0  0  0  0  0  0  0  0  0
    6.4823    4.1454   23.0705 H   0  0  0  0  0  0  0  0  0  0  0  0
    8.0139    5.1282   22.9189 H   0  0  0  0  0  0  0  0  0  0  0  0
    6.9856    5.2517   24.3990 H   0  0  0  0  0  0  0  0  0  0  0  0
    7.9420    1.2681   22.6089 C   0  0  0  0  0  0  0  0  0  0  0  0
    6.9264    1.1390   22.9892 H   0  0  0  0  0  0  0  0  0  0  0  0
    8.1043   -1.7647   20.4898 O   0  0  0  0  0  0  0  0  0  0  0  0
    7.7888   -2.9101   21.2721 C   0  0  0  0  0  0  0  0  0  0  0  0
    8.5993   -3.1129   21.9798 H   0  0  0  0  0  0  0  0  0  0  0  0
    7.6550   -3.7849   20.6287 H   0  0  0  0  0  0  0  0  0  0  0  0
    6.4843   -2.5172   21.9436 C   0  0  0  0  0  0  0  0  0  0  0  0
    6.3661   -2.9387   22.9468 H   0  0  0  0  0  0  0  0  0  0  0  0
    5.6150   -2.7845   21.3305 H   0  0  0  0  0  0  0  0  0  0  0  0
    6.6013   -1.1129   22.0577 O   0  0  0  0  0  0  0  0  0  0  0  0
    5.4049    0.6611   20.1415 C   0  0  0  0  0  0  0  0  0  0  0  0
    4.9669    0.6427   21.1400 H   0  0  0  0  0  0  0  0  0  0  0  0
    4.7831    1.3182   19.0832 C   0  0  0  0  0  0  0  0  0  0  0  0
    3.8529    1.8586   19.2211 H   0  0  0  0  0  0  0  0  0  0  0  0
  1  2  1  0
  2  3  2  0
  3  4  1  0
  4  5  1  0
  4  6  2  0
  6  7  1  0
  7  8  1  0
  8  9  2  0
  9 10  1  0
  9 11  1  0
 11 12  1  0
 11 13  2  0
 13 14  1  0
 13 15  1  0
 15 16  1  0
 16 17  2  0
 16 18  2  0
 16 19  1  0
 19 20  1  0
 19 21  1  0
 19 22  1  0
 15 23  2  0
 23 24  1  0
  7 25  1  0
 25 26  1  0
 26 27  1  0
 26 28  1  0
 26 29  1  0
 29 30  1  0
 29 31  1  0
 29 32  1  0
  6 33  1  0
 33 34  1  0
 33 35  2  0
 35 36  1  0
 35  2  1  0
 32  7  1  0
 23  8  1  0
M  END
>  <cnnaffinity>  (1) 
-4.37865

>  <filename>  (1) 
CS(=O)(=O)c1cccc(C2(c3cccnc3)OCCO2)c1

$$$$
