
     RDKit          3D

 37 39  0  0  0  0  0  0  0  0999 V2000
    4.9168    1.8001   16.9770 H   0  0  0  0  0  0  0  0  0  0  0  0
    5.3894    1.3033   17.8220 C   0  0  0  0  0  0  0  0  0  0  0  0
    6.5522    0.6837   17.5608 N   0  0  0  0  0  0  0  0  0  0  0  0
    7.1589    0.0716   18.5855 C   0  0  0  0  0  0  0  0  0  0  0  0
    8.1045   -0.4205   18.3547 H   0  0  0  0  0  0  0  0  0  0  0  0
    6.6472    0.0092   19.8969 C   0  0  0  0  0  0  0  0  0  0  0  0
    7.3692   -0.7120   20.9748 C   0  0  0  0  0  0  0  0  0  0  0  0
    8.7815   -0.5628   21.1301 C   0  0  0  0  0  0  0  0  0  0  0  0
    9.3085    0.1052   20.4488 H   0  0  0  0  0  0  0  0  0  0  0  0
    9.4338   -1.2148   22.1288 C   0  0  0  0  0  0  0  0  0  0  0  0
   10.4976   -1.1445   22.2976 H   0  0  0  0  0  0  0  0  0  0  0  0
    8.7511   -2.0953   23.0675 C   0  0  0  0  0  0  0  0  0  0  0  0
    9.3326   -2.6941   23.9545 O   0  0  0  0  0  0  0  0  0  0  0  0
    7.3361   -2.2159   22.8583 N   0  0  0  0  0  0  0  0  0  0  0  0
    6.5493   -3.0401   23.7410 C   0  0  0  0  0  0  0  0  0  0  0  0
    6.5741   -2.8072   25.1190 C   0  0  0  0  0  0  0  0  0  0  0  0
    7.2033   -2.0121   25.5015 H   0  0  0  0  0  0  0  0  0  0  0  0
    5.8190   -3.6182   25.9688 C   0  0  0  0  0  0  0  0  0  0  0  0
    5.8567   -3.4449   27.0388 H   0  0  0  0  0  0  0  0  0  0  0  0
    5.0424   -4.6649   25.4682 C   0  0  0  0  0  0  0  0  0  0  0  0
    4.4898   -5.2970   26.1646 H   0  0  0  0  0  0  0  0  0  0  0  0
    5.0113   -4.8877   24.0818 C   0  0  0  0  0  0  0  0  0  0  0  0
    4.0529   -6.2483   23.4094 S   0  0  0  0  0  0  0  0  0  0  0  0
    4.6793   -6.6484   22.1558 O   0  0  0  0  0  0  0  0  0  0  0  0
    3.7543   -7.1918   24.4790 O   0  0  0  0  0  0  0  0  0  0  0  0
    2.5090   -5.5408   22.9478 C   0  0  0  0  0  0  0  0  0  0  0  0
    2.0395   -5.1315   23.8376 H   0  0  0  0  0  0  0  0  0  0  0  0
    1.9376   -6.3757   22.5435 H   0  0  0  0  0  0  0  0  0  0  0  0
    2.7048   -4.7975   22.1815 H   0  0  0  0  0  0  0  0  0  0  0  0
    5.7634   -4.0701   23.2149 C   0  0  0  0  0  0  0  0  0  0  0  0
    5.8160   -4.2275   22.1400 H   0  0  0  0  0  0  0  0  0  0  0  0
    6.7047   -1.5324   21.8432 C   0  0  0  0  0  0  0  0  0  0  0  0
    5.6350   -1.6950   21.7684 H   0  0  0  0  0  0  0  0  0  0  0  0
    5.4257    0.6539   20.1403 C   0  0  0  0  0  0  0  0  0  0  0  0
    5.0060    0.6490   21.1468 H   0  0  0  0  0  0  0  0  0  0  0  0
    4.7943    1.3207   19.0890 C   0  0  0  0  0  0  0  0  0  0  0  0
    3.8630    1.8541   19.2386 H   0  0  0  0  0  0  0  0  0  0  0  0
  1  2  1  0
  2  3  2  0
  3  4  1  0
  4  5  1  0
  4  6  2  0
  6  7  1  0
  7  8  1  0
  8  9  1  0
  8 10  2  0
 10 11  1  0
 10 12  1  0
 12 13  2  0
 12 14  1  0
 14 15  1  0
 15 16  2  0
 16 17  1  0
 16 18  1  0
 18 19  1  0
 18 20  2  0
 20 21  1  0
 20 22  1  0
 22 23  1  0
 23 24  2  0
 23 25  2  0
 23 26  1  0
 26 27  1  0
 26 28  1  0
 26 29  1  0
 22 30  2  0
 30 31  1  0
 14 32  1  0
 32 33  1  0
  6 34  1  0
 34 35  1  0
 34 36  2  0
 36 37  1  0
 36  2  1  0
 32  7  2  0
 30 15  1  0
M  END
>  <cnnaffinity>  (1) 
-5.52046

>  <filename>  (1) 
CS(=O)(=O)c1cccc(-n2cc(-c3cccnc3)ccc2=O)c1

$$$$
