
     RDKit          3D

 35 37  0  0  0  0  0  0  0  0999 V2000
    4.9336    1.8580   16.7650 H   0  0  0  0  0  0  0  0  0  0  0  0
    5.4269    1.3810   17.6116 C   0  0  0  0  0  0  0  0  0  0  0  0
    6.5740    0.7325   17.3481 N   0  0  0  0  0  0  0  0  0  0  0  0
    7.2187    0.1417   18.3633 C   0  0  0  0  0  0  0  0  0  0  0  0
    8.1711   -0.3371   18.1355 H   0  0  0  0  0  0  0  0  0  0  0  0
    6.7246    0.1291   19.6841 C   0  0  0  0  0  0  0  0  0  0  0  0
    7.3251   -0.6143   20.7337 N   0  0  0  0  0  0  0  0  0  0  0  0
    6.6044   -1.4763   21.5510 C   0  0  0  0  0  0  0  0  0  0  0  0
    5.5369   -1.5544   21.4371 H   0  0  0  0  0  0  0  0  0  0  0  0
    7.4532   -2.0686   22.4203 C   0  0  0  0  0  0  0  0  0  0  0  0
    7.2003   -3.0410   23.4828 C   0  0  0  0  0  0  0  0  0  0  0  0
    5.9564   -3.6905   23.5676 C   0  0  0  0  0  0  0  0  0  0  0  0
    5.1710   -3.4439   22.8551 H   0  0  0  0  0  0  0  0  0  0  0  0
    5.7229   -4.6283   24.5755 C   0  0  0  0  0  0  0  0  0  0  0  0
    4.7706   -5.1449   24.6150 H   0  0  0  0  0  0  0  0  0  0  0  0
    6.6887   -4.8909   25.5520 C   0  0  0  0  0  0  0  0  0  0  0  0
    6.4700   -5.6110   26.3413 H   0  0  0  0  0  0  0  0  0  0  0  0
    7.9021   -4.1879   25.5064 C   0  0  0  0  0  0  0  0  0  0  0  0
    9.0376   -4.2270   26.8920 S   0  0  0  0  0  0  0  0  0  0  0  0
    8.5157   -5.1271   27.9099 O   0  0  0  0  0  0  0  0  0  0  0  0
    9.4039   -2.8415   27.1575 O   0  0  0  0  0  0  0  0  0  0  0  0
   10.4902   -4.9995   26.2764 C   0  0  0  0  0  0  0  0  0  0  0  0
   11.0958   -5.1888   27.1616 H   0  0  0  0  0  0  0  0  0  0  0  0
   10.9904   -4.3138   25.5976 H   0  0  0  0  0  0  0  0  0  0  0  0
   10.2012   -5.9291   25.7984 H   0  0  0  0  0  0  0  0  0  0  0  0
    8.1728   -3.2927   24.4626 C   0  0  0  0  0  0  0  0  0  0  0  0
    9.1132   -2.7458   24.4048 H   0  0  0  0  0  0  0  0  0  0  0  0
    8.7083   -1.5435   22.1260 N   0  0  0  0  0  0  0  0  0  0  0  0
    9.6090   -1.7945   22.4798 H   0  0  0  0  0  0  0  0  0  0  0  0
    8.6786   -0.6430   21.0948 C   0  0  0  0  0  0  0  0  0  0  0  0
    9.6276   -0.0430   20.6320 O   0  0  0  0  0  0  0  0  0  0  0  0
    5.5442    0.8311   19.9508 C   0  0  0  0  0  0  0  0  0  0  0  0
    5.1751    0.8863   20.9754 H   0  0  0  0  0  0  0  0  0  0  0  0
    4.8827    1.4646   18.8976 C   0  0  0  0  0  0  0  0  0  0  0  0
    3.9663    2.0190   19.0639 H   0  0  0  0  0  0  0  0  0  0  0  0
  1  2  1  0
  2  3  2  0
  3  4  1  0
  4  5  1  0
  4  6  2  0
  6  7  1  0
  7  8  1  0
  8  9  1  0
  8 10  2  0
 10 11  1  0
 11 12  2  0
 12 13  1  0
 12 14  1  0
 14 15  1  0
 14 16  2  0
 16 17  1  0
 16 18  1  0
 18 19  1  0
 19 20  2  0
 19 21  2  0
 19 22  1  0
 22 23  1  0
 22 24  1  0
 22 25  1  0
 18 26  2  0
 26 27  1  0
 10 28  1  0
 28 29  1  0
 28 30  1  0
 30 31  2  0
  6 32  1  0
 32 33  1  0
 32 34  2  0
 34 35  1  0
 34  2  1  0
 30  7  1  0
 26 11  1  0
M  END
>  <cnnaffinity>  (1) 
-5.65466

>  <filename>  (1) 
CS(=O)(=O)c1cccc(-c2cn(-c3cccnc3)c(=O)[nH]2)c1

$$$$
