
     RDKit          3D

 33 34  0  0  0  0  0  0  0  0999 V2000
    4.9415    1.7583   16.8766 H   0  0  0  0  0  0  0  0  0  0  0  0
    5.3754    1.3284   17.7757 C   0  0  0  0  0  0  0  0  0  0  0  0
    6.5617    0.7195   17.6248 N   0  0  0  0  0  0  0  0  0  0  0  0
    7.1219    0.1872   18.7167 C   0  0  0  0  0  0  0  0  0  0  0  0
    8.0803   -0.3104   18.5618 H   0  0  0  0  0  0  0  0  0  0  0  0
    6.5551    0.2466   20.0013 C   0  0  0  0  0  0  0  0  0  0  0  0
    7.2524   -0.3948   21.1759 C   0  0  2  0  0  0  0  0  0  0  0  0
    6.7704   -0.1279   22.1245 H   0  0  0  0  0  0  0  0  0  0  0  0
    8.9333    0.2639   21.2779 Cl  0  0  0  0  0  0  0  0  0  0  0  0
    7.2869   -1.9272   21.0110 C   0  0  0  0  0  0  0  0  0  0  0  0
    7.9448   -2.1123   20.1607 H   0  0  0  0  0  0  0  0  0  0  0  0
    6.2816   -2.2383   20.7068 H   0  0  0  0  0  0  0  0  0  0  0  0
    7.7502   -2.7347   22.2022 C   0  0  0  0  0  0  0  0  0  0  0  0
    9.1204   -2.9694   22.3740 C   0  0  0  0  0  0  0  0  0  0  0  0
    9.8140   -2.5638   21.6428 H   0  0  0  0  0  0  0  0  0  0  0  0
    9.5859   -3.7071   23.4642 C   0  0  0  0  0  0  0  0  0  0  0  0
   10.6489   -3.8887   23.5840 H   0  0  0  0  0  0  0  0  0  0  0  0
    8.6970   -4.2037   24.4121 C   0  0  0  0  0  0  0  0  0  0  0  0
    9.0907   -4.7673   25.2583 H   0  0  0  0  0  0  0  0  0  0  0  0
    7.3267   -3.9316   24.2719 C   0  0  0  0  0  0  0  0  0  0  0  0
    6.2328   -4.3088   25.6348 S   0  0  0  0  0  0  0  0  0  0  0  0
    6.8081   -5.4060   26.4014 O   0  0  0  0  0  0  0  0  0  0  0  0
    4.8602   -4.3551   25.1406 O   0  0  0  0  0  0  0  0  0  0  0  0
    6.4120   -2.8335   26.5964 C   0  0  0  0  0  0  0  0  0  0  0  0
    7.4653   -2.7614   26.8727 H   0  0  0  0  0  0  0  0  0  0  0  0
    5.7799   -2.9288   27.4779 H   0  0  0  0  0  0  0  0  0  0  0  0
    6.0979   -2.0017   25.9644 H   0  0  0  0  0  0  0  0  0  0  0  0
    6.8448   -3.2446   23.1441 C   0  0  0  0  0  0  0  0  0  0  0  0
    5.7767   -3.0837   22.9876 H   0  0  0  0  0  0  0  0  0  0  0  0
    5.3023    0.8550   20.1300 C   0  0  0  0  0  0  0  0  0  0  0  0
    4.8163    0.8964   21.1051 H   0  0  0  0  0  0  0  0  0  0  0  0
    4.7025    1.4103   18.9973 C   0  0  0  0  0  0  0  0  0  0  0  0
    3.7418    1.9083   19.0516 H   0  0  0  0  0  0  0  0  0  0  0  0
  1  2  1  0
  2  3  2  0
  3  4  1  0
  4  5  1  0
  4  6  2  0
  6  7  1  0
  7  8  1  1
  7  9  1  0
  7 10  1  0
 10 11  1  0
 10 12  1  0
 10 13  1  0
 13 14  2  0
 14 15  1  0
 14 16  1  0
 16 17  1  0
 16 18  2  0
 18 19  1  0
 18 20  1  0
 20 21  1  0
 21 22  2  0
 21 23  2  0
 21 24  1  0
 24 25  1  0
 24 26  1  0
 24 27  1  0
 20 28  2  0
 28 29  1  0
  6 30  1  0
 30 31  1  0
 30 32  2  0
 32 33  1  0
 32  2  1  0
 28 13  1  0
M  END
>  <cnnaffinity>  (1) 
-4.99838

>  <filename>  (1) 
CS(=O)(=O)c1cccc(C[C@@H](Cl)c2cccnc2)c1

$$$$
