
     RDKit          3D

 38 40  0  0  0  0  0  0  0  0999 V2000
    7.2018    0.9606   22.4501 H   0  0  0  0  0  0  0  0  0  0  0  0
    7.5177   -0.0451   22.2408 C   0  0  0  0  0  0  0  0  0  0  0  0
    7.3402   -0.5960   21.0238 C   0  0  0  0  0  0  0  0  0  0  0  0
    6.6473    0.0439   19.8970 C   0  0  0  0  0  0  0  0  0  0  0  0
    7.1705    0.0249   18.5900 C   0  0  0  0  0  0  0  0  0  0  0  0
    8.1047   -0.4960   18.3764 H   0  0  0  0  0  0  0  0  0  0  0  0
    6.5946    0.6359   17.5475 N   0  0  0  0  0  0  0  0  0  0  0  0
    5.4358    1.2770   17.7757 C   0  0  0  0  0  0  0  0  0  0  0  0
    4.9875    1.7720   16.9188 H   0  0  0  0  0  0  0  0  0  0  0  0
    4.8048    1.3209   19.0247 C   0  0  0  0  0  0  0  0  0  0  0  0
    3.8617    1.8444   19.1389 H   0  0  0  0  0  0  0  0  0  0  0  0
    5.4243    0.7013   20.1078 C   0  0  0  0  0  0  0  0  0  0  0  0
    4.9705    0.6882   21.1024 H   0  0  0  0  0  0  0  0  0  0  0  0
    7.7942   -1.8921   20.8057 N   0  0  0  0  0  0  0  0  0  0  0  0
    7.5091   -2.3901   19.9795 H   0  0  0  0  0  0  0  0  0  0  0  0
    8.0928   -2.7428   21.8212 C   0  0  0  0  0  0  0  0  0  0  0  0
    8.0568   -4.3869   21.6022 S   0  0  0  0  0  0  0  0  0  0  0  0
    8.4210   -2.1684   22.9848 N   0  0  0  0  0  0  0  0  0  0  0  0
    8.6868   -2.8403   23.6798 H   0  0  0  0  0  0  0  0  0  0  0  0
    8.1577   -0.7771   23.3692 C   0  0  1  0  0  0  0  0  0  0  0  0
    7.4496   -0.7841   24.2172 H   0  0  0  0  0  0  0  0  0  0  0  0
    9.4248   -0.0899   23.9109 C   0  0  0  0  0  0  0  0  0  0  0  0
    9.4037    0.5643   25.1504 C   0  0  0  0  0  0  0  0  0  0  0  0
    8.5053    0.5450   25.7652 H   0  0  0  0  0  0  0  0  0  0  0  0
   10.5425    1.2280   25.6051 C   0  0  0  0  0  0  0  0  0  0  0  0
   10.4991    1.7552   26.5381 H   0  0  0  0  0  0  0  0  0  0  0  0
   11.7066    1.2683   24.8469 C   0  0  0  0  0  0  0  0  0  0  0  0
   12.5835    1.8093   25.1966 H   0  0  0  0  0  0  0  0  0  0  0  0
   11.7133    0.6345   23.6014 C   0  0  0  0  0  0  0  0  0  0  0  0
   13.0524    0.9787   22.4834 S   0  0  0  0  0  0  0  0  0  0  0  0
   12.4469    1.6632   21.3492 O   0  0  0  0  0  0  0  0  0  0  0  0
   14.1506    1.5570   23.2453 O   0  0  0  0  0  0  0  0  0  0  0  0
   13.6305   -0.6088   21.9436 C   0  0  0  0  0  0  0  0  0  0  0  0
   12.8036   -1.1741   21.5123 H   0  0  0  0  0  0  0  0  0  0  0  0
   14.3785   -0.3912   21.1817 H   0  0  0  0  0  0  0  0  0  0  0  0
   14.0886   -1.1152   22.7912 H   0  0  0  0  0  0  0  0  0  0  0  0
   10.5814   -0.0430   23.1312 C   0  0  0  0  0  0  0  0  0  0  0  0
   10.5575   -0.4951   22.1394 H   0  0  0  0  0  0  0  0  0  0  0  0
  1  2  1  0
  2  3  2  0
  3  4  1  0
  4  5  2  0
  5  6  1  0
  5  7  1  0
  7  8  2  0
  8  9  1  0
  8 10  1  0
 10 11  1  0
 10 12  2  0
 12 13  1  0
  3 14  1  0
 14 15  1  0
 14 16  1  0
 16 17  2  0
 16 18  1  0
 18 19  1  0
 18 20  1  0
 20 21  1  1
 20 22  1  0
 22 23  2  0
 23 24  1  0
 23 25  1  0
 25 26  1  0
 25 27  2  0
 27 28  1  0
 27 29  1  0
 29 30  1  0
 30 31  2  0
 30 32  2  0
 30 33  1  0
 33 34  1  0
 33 35  1  0
 33 36  1  0
 29 37  2  0
 37 38  1  0
 20  2  1  0
 37 22  1  0
 12  4  1  0
M  END
>  <cnnaffinity>  (1) 
-5.51075

>  <filename>  (1) 
CS(=O)(=O)c1cccc([C@H]2C=C(c3cccnc3)NC(=S)N2)c1

$$$$
