
     RDKit          3D

 36 38  0  0  0  0  0  0  0  0999 V2000
    4.9236    1.7892   16.9413 H   0  0  0  0  0  0  0  0  0  0  0  0
    5.3692    1.3268   17.8194 C   0  0  0  0  0  0  0  0  0  0  0  0
    6.5435    0.7105   17.6142 N   0  0  0  0  0  0  0  0  0  0  0  0
    7.1270    0.1537   18.6768 C   0  0  0  0  0  0  0  0  0  0  0  0
    8.0795   -0.3369   18.4800 H   0  0  0  0  0  0  0  0  0  0  0  0
    6.6053    0.1880   19.9822 C   0  0  0  0  0  0  0  0  0  0  0  0
    7.3691   -0.4891   21.0466 C   0  0  0  0  0  0  0  0  0  0  0  0
    7.0862   -0.0724   22.3186 O   0  0  0  0  0  0  0  0  0  0  0  0
    7.7680   -0.6359   23.3742 C   0  0  0  0  0  0  0  0  0  0  0  0
    7.5401    0.0112   24.6817 C   0  0  0  0  0  0  0  0  0  0  0  0
    8.4703   -0.1437   25.7272 C   0  0  0  0  0  0  0  0  0  0  0  0
    9.3941   -0.7014   25.5694 H   0  0  0  0  0  0  0  0  0  0  0  0
    8.2132    0.4265   26.9733 C   0  0  0  0  0  0  0  0  0  0  0  0
    8.9238    0.2848   27.7785 H   0  0  0  0  0  0  0  0  0  0  0  0
    7.0402    1.1465   27.2047 C   0  0  0  0  0  0  0  0  0  0  0  0
    6.8482    1.5712   28.1883 H   0  0  0  0  0  0  0  0  0  0  0  0
    6.1084    1.2661   26.1620 C   0  0  0  0  0  0  0  0  0  0  0  0
    4.5856    2.1544   26.3896 S   0  0  0  0  0  0  0  0  0  0  0  0
    4.3574    2.3454   27.8147 O   0  0  0  0  0  0  0  0  0  0  0  0
    3.5636    1.5964   25.5112 O   0  0  0  0  0  0  0  0  0  0  0  0
    4.9347    3.7411   25.7308 C   0  0  0  0  0  0  0  0  0  0  0  0
    4.0097    4.2834   25.8923 H   0  0  0  0  0  0  0  0  0  0  0  0
    5.7621    4.1854   26.2713 H   0  0  0  0  0  0  0  0  0  0  0  0
    5.1441    3.6424   24.6706 H   0  0  0  0  0  0  0  0  0  0  0  0
    6.3470    0.7054   24.9076 C   0  0  0  0  0  0  0  0  0  0  0  0
    5.6144    0.7321   24.1024 H   0  0  0  0  0  0  0  0  0  0  0  0
    8.4931   -1.7608   23.2223 C   0  0  0  0  0  0  0  0  0  0  0  0
    8.9184   -2.2705   24.0729 H   0  0  0  0  0  0  0  0  0  0  0  0
    8.6363   -2.3746   21.9131 C   0  0  0  0  0  0  0  0  0  0  0  0
    9.0383   -3.5145   21.7577 O   0  0  0  0  0  0  0  0  0  0  0  0
    8.2024   -1.5215   20.8193 C   0  0  0  0  0  0  0  0  0  0  0  0
    8.4728   -1.8206   19.8283 H   0  0  0  0  0  0  0  0  0  0  0  0
    5.3543    0.8009   20.1717 C   0  0  0  0  0  0  0  0  0  0  0  0
    4.8783    0.8017   21.1520 H   0  0  0  0  0  0  0  0  0  0  0  0
    4.7347    1.3825   19.0667 C   0  0  0  0  0  0  0  0  0  0  0  0
    3.7764    1.8820   19.1493 H   0  0  0  0  0  0  0  0  0  0  0  0
  1  2  1  0
  2  3  2  0
  3  4  1  0
  4  5  1  0
  4  6  2  0
  6  7  1  0
  7  8  1  0
  8  9  1  0
  9 10  1  0
 10 11  2  0
 11 12  1  0
 11 13  1  0
 13 14  1  0
 13 15  2  0
 15 16  1  0
 15 17  1  0
 17 18  1  0
 18 19  2  0
 18 20  2  0
 18 21  1  0
 21 22  1  0
 21 23  1  0
 21 24  1  0
 17 25  2  0
 25 26  1  0
  9 27  2  0
 27 28  1  0
 27 29  1  0
 29 30  2  0
 29 31  1  0
 31 32  1  0
  6 33  1  0
 33 34  1  0
 33 35  2  0
 35 36  1  0
 35  2  1  0
 31  7  2  0
 25 10  1  0
M  END
>  <cnnaffinity>  (1) 
-5.36493

>  <filename>  (1) 
CS(=O)(=O)c1cccc(-c2cc(=O)cc(-c3cccnc3)o2)c1

$$$$
