
     RDKit          3D

 36 38  0  0  0  0  0  0  0  0999 V2000
    4.9338    1.8156   16.9535 H   0  0  0  0  0  0  0  0  0  0  0  0
    5.3809    1.3210   17.8123 C   0  0  0  0  0  0  0  0  0  0  0  0
    6.5461    0.6954   17.5821 N   0  0  0  0  0  0  0  0  0  0  0  0
    7.1406    0.1020   18.6174 C   0  0  0  0  0  0  0  0  0  0  0  0
    8.0695   -0.4380   18.4323 H   0  0  0  0  0  0  0  0  0  0  0  0
    6.6201    0.1285   19.9157 C   0  0  0  0  0  0  0  0  0  0  0  0
    7.3696   -0.5678   20.9720 C   0  0  0  0  0  0  0  0  0  0  0  0
    8.0240   -1.6204   20.5774 N   0  0  0  0  0  0  0  0  0  0  0  0
    8.5421   -2.4262   21.5390 C   0  0  0  0  0  0  0  0  0  0  0  0
    8.8289   -3.5886   21.3834 O   0  0  0  0  0  0  0  0  0  0  0  0
    8.7804   -1.8698   22.7998 N   0  0  0  0  0  0  0  0  0  0  0  0
    9.1013   -2.6118   23.3960 H   0  0  0  0  0  0  0  0  0  0  0  0
    8.0370   -0.8263   23.2635 C   0  0  0  0  0  0  0  0  0  0  0  0
    8.0616   -0.5148   24.7057 C   0  0  0  0  0  0  0  0  0  0  0  0
    9.2431   -0.6235   25.4671 C   0  0  0  0  0  0  0  0  0  0  0  0
   10.1590   -0.9821   24.9982 H   0  0  0  0  0  0  0  0  0  0  0  0
    9.2443   -0.2208   26.8022 C   0  0  0  0  0  0  0  0  0  0  0  0
   10.1611   -0.2636   27.3803 H   0  0  0  0  0  0  0  0  0  0  0  0
    8.0863    0.2695   27.4114 C   0  0  0  0  0  0  0  0  0  0  0  0
    8.1251    0.6239   28.4412 H   0  0  0  0  0  0  0  0  0  0  0  0
    6.9045    0.3350   26.6592 C   0  0  0  0  0  0  0  0  0  0  0  0
    5.4138    1.0103   27.3724 S   0  0  0  0  0  0  0  0  0  0  0  0
    5.7564    1.8006   28.5473 O   0  0  0  0  0  0  0  0  0  0  0  0
    4.5811    1.5549   26.3051 O   0  0  0  0  0  0  0  0  0  0  0  0
    4.5545   -0.4044   27.9647 C   0  0  0  0  0  0  0  0  0  0  0  0
    4.3043   -1.0445   27.1199 H   0  0  0  0  0  0  0  0  0  0  0  0
    5.1598   -0.9083   28.7164 H   0  0  0  0  0  0  0  0  0  0  0  0
    3.6585    0.0311   28.4011 H   0  0  0  0  0  0  0  0  0  0  0  0
    6.8858   -0.0485   25.3151 C   0  0  0  0  0  0  0  0  0  0  0  0
    5.9734    0.0203   24.7223 H   0  0  0  0  0  0  0  0  0  0  0  0
    7.3232   -0.1284   22.3256 C   0  0  0  0  0  0  0  0  0  0  0  0
    6.7605    0.7477   22.6040 H   0  0  0  0  0  0  0  0  0  0  0  0
    5.3853    0.7429   20.1400 C   0  0  0  0  0  0  0  0  0  0  0  0
    4.9243    0.7055   21.1293 H   0  0  0  0  0  0  0  0  0  0  0  0
    4.7525    1.3570   19.0630 C   0  0  0  0  0  0  0  0  0  0  0  0
    3.8062    1.8762   19.1816 H   0  0  0  0  0  0  0  0  0  0  0  0
  1  2  1  0
  2  3  2  0
  3  4  1  0
  4  5  1  0
  4  6  2  0
  6  7  1  0
  7  8  2  0
  8  9  1  0
  9 10  2  0
  9 11  1  0
 11 12  1  0
 11 13  1  0
 13 14  1  0
 14 15  2  0
 15 16  1  0
 15 17  1  0
 17 18  1  0
 17 19  2  0
 19 20  1  0
 19 21  1  0
 21 22  1  0
 22 23  2  0
 22 24  2  0
 22 25  1  0
 25 26  1  0
 25 27  1  0
 25 28  1  0
 21 29  2  0
 29 30  1  0
 13 31  2  0
 31 32  1  0
  6 33  1  0
 33 34  1  0
 33 35  2  0
 35 36  1  0
 35  2  1  0
 31  7  1  0
 29 14  1  0
M  END
>  <cnnaffinity>  (1) 
-5.32237

>  <filename>  (1) 
CS(=O)(=O)c1cccc(-c2cc(-c3cccnc3)nc(=O)[nH]2)c1

$$$$
