
     RDKit          3D

 43 46  0  0  0  0  0  0  0  0999 V2000
    6.9171    2.1363   23.3603 C   0  0  0  0  0  0  0  0  0  0  0  0
    7.9294    2.7369   21.9861 S   0  0  0  0  0  0  0  0  0  0  0  0
    7.8737    4.2252   22.1384 O   0  0  0  0  0  0  0  0  0  0  0  0
    9.5713    2.1852   22.5634 C   0  0  0  0  0  0  0  0  0  0  0  0
   10.1605    2.8788   23.6308 C   0  0  0  0  0  0  0  0  0  0  0  0
   11.4380    2.5226   24.0664 C   0  0  0  0  0  0  0  0  0  0  0  0
   12.1422    1.4963   23.4328 C   0  0  0  0  0  0  0  0  0  0  0  0
   11.5474    0.8186   22.3668 C   0  0  0  0  0  0  0  0  0  0  0  0
   10.2632    1.1458   21.9212 C   0  0  0  0  0  0  0  0  0  0  0  0
    9.6327    0.3120   20.8323 C   0  0  0  0  0  0  0  0  0  0  0  0
    8.5938   -0.5999   21.3755 C   0  0  0  0  0  0  0  0  0  0  0  0
    8.7951   -1.4317   22.3754 N   0  0  0  0  0  0  0  0  0  0  0  0
    7.5828   -2.0003   22.5491 C   0  0  0  0  0  0  0  0  0  0  0  0
    7.3629   -2.9561   23.6643 C   0  0  0  0  0  0  0  0  0  0  0  0
    6.5603   -4.2189   23.2523 C   0  0  0  0  0  0  0  0  0  0  0  0
    5.1915   -3.7848   24.3770 S   0  0  0  0  0  0  0  0  0  0  0  0
    6.3535   -2.4234   24.7291 C   0  0  0  0  0  0  0  0  0  0  0  0
    6.7293   -2.4211   25.7553 H   0  0  0  0  0  0  0  0  0  0  0  0
    5.9333   -1.4277   24.5291 H   0  0  0  0  0  0  0  0  0  0  0  0
    6.2581   -4.2535   22.1984 H   0  0  0  0  0  0  0  0  0  0  0  0
    7.0448   -5.1664   23.4977 H   0  0  0  0  0  0  0  0  0  0  0  0
    8.3553   -3.1713   24.0802 H   0  0  0  0  0  0  0  0  0  0  0  0
    6.6436   -1.5897   21.7160 N   0  0  0  0  0  0  0  0  0  0  0  0
    7.3092   -0.6983   20.9367 N   0  0  0  0  0  0  0  0  0  0  0  0
    6.6401   -0.0173   19.8898 C   0  0  0  0  0  0  0  0  0  0  0  0
    5.4319    0.6314   20.1510 C   0  0  0  0  0  0  0  0  0  0  0  0
    4.8010    1.3118   19.1068 C   0  0  0  0  0  0  0  0  0  0  0  0
    5.3933    1.2928   17.8385 C   0  0  0  0  0  0  0  0  0  0  0  0
    6.5409    0.6518   17.5733 N   0  0  0  0  0  0  0  0  0  0  0  0
    7.1514    0.0211   18.5799 C   0  0  0  0  0  0  0  0  0  0  0  0
    8.1020   -0.4603   18.3429 H   0  0  0  0  0  0  0  0  0  0  0  0
    4.9330    1.8123   17.0014 H   0  0  0  0  0  0  0  0  0  0  0  0
    3.8736    1.8538   19.2606 H   0  0  0  0  0  0  0  0  0  0  0  0
    5.0158    0.5942   21.1577 H   0  0  0  0  0  0  0  0  0  0  0  0
    9.1910    0.9550   20.0731 H   0  0  0  0  0  0  0  0  0  0  0  0
   10.3827   -0.3288   20.3645 H   0  0  0  0  0  0  0  0  0  0  0  0
   12.0789    0.0186   21.8581 H   0  0  0  0  0  0  0  0  0  0  0  0
   13.1378    1.2221   23.7692 H   0  0  0  0  0  0  0  0  0  0  0  0
   11.8967    3.0720   24.8778 H   0  0  0  0  0  0  0  0  0  0  0  0
    9.6245    3.7062   24.0908 H   0  0  0  0  0  0  0  0  0  0  0  0
    5.8965    2.4568   23.1293 H   0  0  0  0  0  0  0  0  0  0  0  0
    6.9789    1.0515   23.4574 H   0  0  0  0  0  0  0  0  0  0  0  0
    7.2448    2.6372   24.2767 H   0  0  0  0  0  0  0  0  0  0  0  0
  1  2  1  0
  2  3  2  0
  2  4  1  0
  4  5  2  0
  5  6  1  0
  6  7  2  0
  7  8  1  0
  8  9  2  0
  9 10  1  0
 10 11  1  0
 11 12  2  0
 12 13  1  0
 13 14  1  0
 14 15  1  0
 15 16  1  0
 16 17  1  0
 17 18  1  0
 17 19  1  0
 15 20  1  0
 15 21  1  0
 14 22  1  0
 13 23  2  0
 23 24  1  0
 24 25  1  0
 25 26  2  0
 26 27  1  0
 27 28  2  0
 28 29  1  0
 29 30  2  0
 30 31  1  0
 28 32  1  0
 27 33  1  0
 26 34  1  0
 10 35  1  0
 10 36  1  0
  8 37  1  0
  7 38  1  0
  6 39  1  0
  5 40  1  0
  1 41  1  0
  1 42  1  0
  1 43  1  0
  9  4  1  0
 24 11  1  0
 30 25  1  0
 17 14  1  0
M  END
>  <cnnaffinity>  (1) 
-6.13721

>  <filename>  (1) 
CS(=O)c1ccccc1Cc1nc(C2CSC2)nn1-c1cccnc1

$$$$
