
     RDKit          3D

 34 35  0  0  0  0  0  0  0  0999 V2000
    4.9820    1.7472   16.9140 H   0  0  0  0  0  0  0  0  0  0  0  0
    5.4413    1.2723   17.7779 C   0  0  0  0  0  0  0  0  0  0  0  0
    6.5752    0.5954   17.5429 N   0  0  0  0  0  0  0  0  0  0  0  0
    7.1607   -0.0044   18.5818 C   0  0  0  0  0  0  0  0  0  0  0  0
    8.0676   -0.5701   18.3733 H   0  0  0  0  0  0  0  0  0  0  0  0
    6.6718    0.0765   19.8946 C   0  0  0  0  0  0  0  0  0  0  0  0
    7.5095   -0.4848   21.0212 C   0  0  0  0  0  0  0  0  0  0  0  0
    6.7028   -0.6933   22.1234 F   0  0  0  0  0  0  0  0  0  0  0  0
    7.9859   -1.7013   20.6653 F   0  0  0  0  0  0  0  0  0  0  0  0
    8.7373    0.4451   21.4508 C   0  0  0  0  0  0  0  0  0  0  0  0
    9.8638    0.2515   21.0485 O   0  0  0  0  0  0  0  0  0  0  0  0
    8.3775    1.4883   22.2584 N   0  0  0  0  0  0  0  0  0  0  0  0
    7.4600    1.4376   22.6692 H   0  0  0  0  0  0  0  0  0  0  0  0
    9.2030    2.5048   22.7860 C   0  0  0  0  0  0  0  0  0  0  0  0
    8.7364    3.1520   23.9351 C   0  0  0  0  0  0  0  0  0  0  0  0
    7.8259    2.7945   24.4111 H   0  0  0  0  0  0  0  0  0  0  0  0
    9.4357    4.2445   24.4460 C   0  0  0  0  0  0  0  0  0  0  0  0
    9.0463    4.7641   25.3159 H   0  0  0  0  0  0  0  0  0  0  0  0
   10.6111    4.6914   23.8331 C   0  0  0  0  0  0  0  0  0  0  0  0
   11.0962    5.5905   24.2037 H   0  0  0  0  0  0  0  0  0  0  0  0
   11.1125    4.0000   22.7188 C   0  0  0  0  0  0  0  0  0  0  0  0
   12.6474    4.5438   21.9339 S   0  0  0  0  0  0  0  0  0  0  0  0
   12.6657    4.1266   20.5386 O   0  0  0  0  0  0  0  0  0  0  0  0
   12.9040    5.9275   22.3183 O   0  0  0  0  0  0  0  0  0  0  0  0
   13.8994    3.6208   22.7566 C   0  0  0  0  0  0  0  0  0  0  0  0
   13.9476    3.9622   23.7852 H   0  0  0  0  0  0  0  0  0  0  0  0
   14.8150    3.8905   22.2372 H   0  0  0  0  0  0  0  0  0  0  0  0
   13.6947    2.5579   22.6559 H   0  0  0  0  0  0  0  0  0  0  0  0
   10.4091    2.8973   22.1927 C   0  0  0  0  0  0  0  0  0  0  0  0
   10.7367    2.3519   21.3161 H   0  0  0  0  0  0  0  0  0  0  0  0
    5.4608    0.7410   20.1220 C   0  0  0  0  0  0  0  0  0  0  0  0
    5.0127    0.7535   21.1163 H   0  0  0  0  0  0  0  0  0  0  0  0
    4.8409    1.3559   19.0374 C   0  0  0  0  0  0  0  0  0  0  0  0
    3.9064    1.8882   19.1564 H   0  0  0  0  0  0  0  0  0  0  0  0
  1  2  1  0
  2  3  2  0
  3  4  1  0
  4  5  1  0
  4  6  2  0
  6  7  1  0
  7  8  1  0
  7  9  1  0
  7 10  1  0
 10 11  2  0
 10 12  1  0
 12 13  1  0
 12 14  1  0
 14 15  2  0
 15 16  1  0
 15 17  1  0
 17 18  1  0
 17 19  2  0
 19 20  1  0
 19 21  1  0
 21 22  1  0
 22 23  2  0
 22 24  2  0
 22 25  1  0
 25 26  1  0
 25 27  1  0
 25 28  1  0
 21 29  2  0
 29 30  1  0
  6 31  1  0
 31 32  1  0
 31 33  2  0
 33 34  1  0
 33  2  1  0
 29 14  1  0
M  END
>  <cnnaffinity>  (1) 
-5.2821

>  <filename>  (1) 
CS(=O)(=O)c1cccc(NC(=O)C(F)(F)c2cccnc2)c1

$$$$
