
     RDKit          3D

 37 39  0  0  0  0  0  0  0  0999 V2000
    4.9264    1.7953   16.9868 H   0  0  0  0  0  0  0  0  0  0  0  0
    5.4018    1.2974   17.8312 C   0  0  0  0  0  0  0  0  0  0  0  0
    6.5642    0.6786   17.5755 N   0  0  0  0  0  0  0  0  0  0  0  0
    7.1715    0.0628   18.6013 C   0  0  0  0  0  0  0  0  0  0  0  0
    8.1149   -0.4279   18.3560 H   0  0  0  0  0  0  0  0  0  0  0  0
    6.6690    0.0155   19.9172 C   0  0  0  0  0  0  0  0  0  0  0  0
    7.4164   -0.6795   21.0347 C   0  0  0  0  0  0  0  0  0  0  0  0
    8.5028    0.1472   21.7370 C   0  0  0  0  0  0  0  0  0  0  0  0
    9.2795    0.4079   21.0081 H   0  0  0  0  0  0  0  0  0  0  0  0
    8.9848   -0.4767   22.5005 H   0  0  0  0  0  0  0  0  0  0  0  0
    7.9498    1.4071   22.3695 C   0  0  0  0  0  0  0  0  0  0  0  0
    7.9749    2.6256   21.6766 C   0  0  0  0  0  0  0  0  0  0  0  0
    8.4489    2.6619   20.7001 H   0  0  0  0  0  0  0  0  0  0  0  0
    7.3843    3.7704   22.2157 C   0  0  0  0  0  0  0  0  0  0  0  0
    7.4026    4.7043   21.6608 H   0  0  0  0  0  0  0  0  0  0  0  0
    6.7539    3.7179   23.4575 C   0  0  0  0  0  0  0  0  0  0  0  0
    6.2828    4.6151   23.8586 H   0  0  0  0  0  0  0  0  0  0  0  0
    6.7243    2.5003   24.1554 C   0  0  0  0  0  0  0  0  0  0  0  0
    5.8759    2.3965   25.7304 S   0  0  0  0  0  0  0  0  0  0  0  0
    5.3915    1.0335   25.9159 O   0  0  0  0  0  0  0  0  0  0  0  0
    4.9890    3.5437   25.8574 O   0  0  0  0  0  0  0  0  0  0  0  0
    7.1256    2.6240   26.9495 C   0  0  0  0  0  0  0  0  0  0  0  0
    7.8403    1.8084   26.8513 H   0  0  0  0  0  0  0  0  0  0  0  0
    7.5549    3.6128   26.8021 H   0  0  0  0  0  0  0  0  0  0  0  0
    6.5711    2.5590   27.8872 H   0  0  0  0  0  0  0  0  0  0  0  0
    7.3038    1.3455   23.6081 C   0  0  0  0  0  0  0  0  0  0  0  0
    7.2448    0.3848   24.1203 H   0  0  0  0  0  0  0  0  0  0  0  0
    7.6596   -2.1474   20.8458 C   0  0  0  0  0  0  0  0  0  0  0  0
    7.1702   -2.5669   19.9783 H   0  0  0  0  0  0  0  0  0  0  0  0
    8.6235   -2.5784   21.1069 H   0  0  0  0  0  0  0  0  0  0  0  0
    6.6641   -1.6903   21.8710 C   0  0  0  0  0  0  0  0  0  0  0  0
    6.8789   -1.7783   22.9349 H   0  0  0  0  0  0  0  0  0  0  0  0
    5.6248   -1.8706   21.6067 H   0  0  0  0  0  0  0  0  0  0  0  0
    5.4499    0.6646   20.1496 C   0  0  0  0  0  0  0  0  0  0  0  0
    5.0297    0.6401   21.1571 H   0  0  0  0  0  0  0  0  0  0  0  0
    4.8056    1.3190   19.0976 C   0  0  0  0  0  0  0  0  0  0  0  0
    3.8671    1.8447   19.2428 H   0  0  0  0  0  0  0  0  0  0  0  0
  1  2  1  0
  2  3  2  0
  3  4  1  0
  4  5  1  0
  4  6  2  0
  6  7  1  0
  7  8  1  0
  8  9  1  0
  8 10  1  0
  8 11  1  0
 11 12  2  0
 12 13  1  0
 12 14  1  0
 14 15  1  0
 14 16  2  0
 16 17  1  0
 16 18  1  0
 18 19  1  0
 19 20  2  0
 19 21  2  0
 19 22  1  0
 22 23  1  0
 22 24  1  0
 22 25  1  0
 18 26  2  0
 26 27  1  0
  7 28  1  0
 28 29  1  0
 28 30  1  0
 28 31  1  0
 31 32  1  0
 31 33  1  0
  6 34  1  0
 34 35  1  0
 34 36  2  0
 36 37  1  0
 36  2  1  0
 31  7  1  0
 26 11  1  0
M  END
>  <cnnaffinity>  (1) 
-5.11867

>  <filename>  (1) 
CS(=O)(=O)c1cccc(CC2(c3cccnc3)CC2)c1

$$$$
