
     RDKit          3D

 45 48  0  0  0  0  0  0  0  0999 V2000
   10.6969    0.1766   25.6128 C   0  0  0  0  0  0  0  0  0  0  0  0
    9.6869    0.5240   24.1520 S   0  0  0  0  0  0  0  0  0  0  0  0
   10.2440    1.8124   23.6200 O   0  0  0  0  0  0  0  0  0  0  0  0
    8.1222    0.9063   25.0075 C   0  0  0  0  0  0  0  0  0  0  0  0
    8.0417    2.1272   25.6929 C   0  0  0  0  0  0  0  0  0  0  0  0
    6.9500    2.3831   26.5259 C   0  0  0  0  0  0  0  0  0  0  0  0
    5.9136    1.4498   26.6337 C   0  0  0  0  0  0  0  0  0  0  0  0
    5.9507    0.2936   25.8464 C   0  0  0  0  0  0  0  0  0  0  0  0
    7.0384    0.0119   25.0051 C   0  0  0  0  0  0  0  0  0  0  0  0
    7.0310   -1.2562   24.1724 C   0  0  0  0  0  0  0  0  0  0  0  0
    7.0425   -1.0490   22.6858 C   0  0  0  0  0  0  0  0  0  0  0  0
    6.2210   -0.2910   21.9913 N   0  0  0  0  0  0  0  0  0  0  0  0
    6.6409   -0.4500   20.7127 C   0  0  0  0  0  0  0  0  0  0  0  0
    6.0334    0.2279   19.5712 C   0  0  0  0  0  0  0  0  0  0  0  0
    4.8516    0.9827   19.6515 C   0  0  0  0  0  0  0  0  0  0  0  0
    4.4534    1.6876   18.5164 C   0  0  0  0  0  0  0  0  0  0  0  0
    5.2324    1.6044   17.3565 C   0  0  0  0  0  0  0  0  0  0  0  0
    6.3285    0.8399   17.2562 N   0  0  0  0  0  0  0  0  0  0  0  0
    6.7096    0.1686   18.3445 C   0  0  0  0  0  0  0  0  0  0  0  0
    7.6057   -0.4365   18.2350 H   0  0  0  0  0  0  0  0  0  0  0  0
    4.9785    2.1830   16.4707 H   0  0  0  0  0  0  0  0  0  0  0  0
    3.5840    2.3366   18.5209 H   0  0  0  0  0  0  0  0  0  0  0  0
    4.2786    1.0375   20.5797 H   0  0  0  0  0  0  0  0  0  0  0  0
    7.6918   -1.2435   20.5744 N   0  0  0  0  0  0  0  0  0  0  0  0
    7.9350   -1.6446   21.8465 N   0  0  0  0  0  0  0  0  0  0  0  0
    9.1173   -2.3512   22.2216 C   0  0  0  0  0  0  0  0  0  0  0  0
    9.0611   -3.4170   23.0790 C   0  0  0  0  0  0  0  0  0  0  0  0
   10.2640   -3.8669   23.7471 C   0  0  0  0  0  0  0  0  0  0  0  0
   10.3690   -4.7136   24.6167 O   0  0  0  0  0  0  0  0  0  0  0  0
   11.4331   -3.2684   23.2982 N   0  0  0  0  0  0  0  0  0  0  0  0
   11.5196   -2.3127   22.3191 C   0  0  0  0  0  0  0  0  0  0  0  0
   10.3692   -1.8350   21.7729 C   0  0  0  0  0  0  0  0  0  0  0  0
   10.3761   -1.0286   21.0470 H   0  0  0  0  0  0  0  0  0  0  0  0
   12.5111   -1.9897   22.0087 H   0  0  0  0  0  0  0  0  0  0  0  0
   12.2028   -3.6782   23.8099 H   0  0  0  0  0  0  0  0  0  0  0  0
    8.1592   -3.9334   23.3532 H   0  0  0  0  0  0  0  0  0  0  0  0
    6.1246   -1.8161   24.4126 H   0  0  0  0  0  0  0  0  0  0  0  0
    7.8805   -1.8716   24.4835 H   0  0  0  0  0  0  0  0  0  0  0  0
    5.1188   -0.4066   25.8886 H   0  0  0  0  0  0  0  0  0  0  0  0
    5.0816    1.6300   27.3155 H   0  0  0  0  0  0  0  0  0  0  0  0
    6.9140    3.3104   27.0915 H   0  0  0  0  0  0  0  0  0  0  0  0
    8.8296    2.8658   25.5556 H   0  0  0  0  0  0  0  0  0  0  0  0
   11.6960   -0.0995   25.2642 H   0  0  0  0  0  0  0  0  0  0  0  0
   10.7747    1.0992   26.1961 H   0  0  0  0  0  0  0  0  0  0  0  0
   10.2617   -0.6330   26.1997 H   0  0  0  0  0  0  0  0  0  0  0  0
  1  2  1  0
  2  3  2  0
  2  4  1  0
  4  5  2  0
  5  6  1  0
  6  7  2  0
  7  8  1  0
  8  9  2  0
  9 10  1  0
 10 11  1  0
 11 12  2  0
 12 13  1  0
 13 14  1  0
 14 15  2  0
 15 16  1  0
 16 17  2  0
 17 18  1  0
 18 19  2  0
 19 20  1  0
 17 21  1  0
 16 22  1  0
 15 23  1  0
 13 24  2  0
 24 25  1  0
 25 26  1  0
 26 27  2  0
 27 28  1  0
 28 29  2  0
 28 30  1  0
 30 31  1  0
 31 32  2  0
 32 33  1  0
 31 34  1  0
 30 35  1  0
 27 36  1  0
 10 37  1  0
 10 38  1  0
  8 39  1  0
  7 40  1  0
  6 41  1  0
  5 42  1  0
  1 43  1  0
  1 44  1  0
  1 45  1  0
  9  4  1  0
 25 11  1  0
 32 26  1  0
 19 14  1  0
M  END
>  <cnnaffinity>  (1) 
-6.26167

>  <filename>  (1) 
CS(=O)c1ccccc1Cc1nc(-c2cccnc2)nn1-c1cc[nH]c(=O)c1

$$$$
