
     RDKit          3D

 30 31  0  0  0  0  0  0  0  0999 V2000
    4.9276    1.7847   17.0137 H   0  0  0  0  0  0  0  0  0  0  0  0
    5.4064    1.2825   17.8528 C   0  0  0  0  0  0  0  0  0  0  0  0
    6.5636    0.6618   17.5823 N   0  0  0  0  0  0  0  0  0  0  0  0
    7.1965    0.0484   18.5876 C   0  0  0  0  0  0  0  0  0  0  0  0
    8.1400   -0.4282   18.3448 H   0  0  0  0  0  0  0  0  0  0  0  0
    6.6958    0.0026   19.9047 C   0  0  0  0  0  0  0  0  0  0  0  0
    7.3095   -0.7143   20.9384 O   0  0  0  0  0  0  0  0  0  0  0  0
    8.6795   -0.7635   21.0699 C   0  0  0  0  0  0  0  0  0  0  0  0
    9.4245   -0.0540   20.4393 O   0  0  0  0  0  0  0  0  0  0  0  0
    9.1422   -1.7899   22.0618 C   0  0  0  0  0  0  0  0  0  0  0  0
   10.5294   -1.9574   22.2313 C   0  0  0  0  0  0  0  0  0  0  0  0
   11.2193   -1.3344   21.6669 H   0  0  0  0  0  0  0  0  0  0  0  0
   11.0172   -2.9249   23.1063 C   0  0  0  0  0  0  0  0  0  0  0  0
   12.0822   -3.1080   23.1556 H   0  0  0  0  0  0  0  0  0  0  0  0
   10.1577   -3.7114   23.8671 C   0  0  0  0  0  0  0  0  0  0  0  0
   10.5818   -4.4487   24.5514 H   0  0  0  0  0  0  0  0  0  0  0  0
    8.7764   -3.5508   23.6846 C   0  0  0  0  0  0  0  0  0  0  0  0
    7.6611   -4.6263   24.5697 S   0  0  0  0  0  0  0  0  0  0  0  0
    6.4426   -4.7608   23.7847 O   0  0  0  0  0  0  0  0  0  0  0  0
    8.4125   -5.7835   25.0396 O   0  0  0  0  0  0  0  0  0  0  0  0
    7.2053   -3.7350   26.0121 C   0  0  0  0  0  0  0  0  0  0  0  0
    6.5188   -4.4019   26.5342 H   0  0  0  0  0  0  0  0  0  0  0  0
    6.7043   -2.8260   25.6909 H   0  0  0  0  0  0  0  0  0  0  0  0
    8.1040   -3.5559   26.5960 H   0  0  0  0  0  0  0  0  0  0  0  0
    8.2601   -2.6103   22.7792 C   0  0  0  0  0  0  0  0  0  0  0  0
    7.1897   -2.5172   22.6037 H   0  0  0  0  0  0  0  0  0  0  0  0
    5.4801    0.6319   20.1821 C   0  0  0  0  0  0  0  0  0  0  0  0
    5.0627    0.5984   21.1868 H   0  0  0  0  0  0  0  0  0  0  0  0
    4.8357    1.2933   19.1280 C   0  0  0  0  0  0  0  0  0  0  0  0
    3.9008    1.8176   19.2774 H   0  0  0  0  0  0  0  0  0  0  0  0
  1  2  1  0
  2  3  2  0
  3  4  1  0
  4  5  1  0
  4  6  2  0
  6  7  1  0
  7  8  1  0
  8  9  2  0
  8 10  1  0
 10 11  2  0
 11 12  1  0
 11 13  1  0
 13 14  1  0
 13 15  2  0
 15 16  1  0
 15 17  1  0
 17 18  1  0
 18 19  2  0
 18 20  2  0
 18 21  1  0
 21 22  1  0
 21 23  1  0
 21 24  1  0
 17 25  2  0
 25 26  1  0
  6 27  1  0
 27 28  1  0
 27 29  2  0
 29 30  1  0
 29  2  1  0
 25 10  1  0
M  END
>  <cnnaffinity>  (1) 
-4.86843

>  <filename>  (1) 
CS(=O)(=O)c1cccc(C(=O)Oc2cccnc2)c1

$$$$
