
     RDKit          3D

 45 48  0  0  0  0  0  0  0  0999 V2000
    7.1056    2.1350   23.2054 C   0  0  0  0  0  0  0  0  0  0  0  0
    8.0850    2.8795   21.8720 S   0  0  0  0  0  0  0  0  0  0  0  0
    9.7035    2.3323   22.4082 C   0  0  0  0  0  0  0  0  0  0  0  0
   10.3304    3.0266   23.4513 C   0  0  0  0  0  0  0  0  0  0  0  0
   11.5503    2.5830   23.9643 C   0  0  0  0  0  0  0  0  0  0  0  0
   12.1543    1.4339   23.4509 C   0  0  0  0  0  0  0  0  0  0  0  0
   11.5321    0.7449   22.4066 C   0  0  0  0  0  0  0  0  0  0  0  0
   10.3232    1.1924   21.8575 C   0  0  0  0  0  0  0  0  0  0  0  0
    9.6382    0.3573   20.7991 C   0  0  0  0  0  0  0  0  0  0  0  0
    8.6223   -0.5652   21.3687 C   0  0  0  0  0  0  0  0  0  0  0  0
    8.8626   -1.4353   22.3286 N   0  0  0  0  0  0  0  0  0  0  0  0
    7.6564   -2.0235   22.5154 C   0  0  0  0  0  0  0  0  0  0  0  0
    7.4334   -3.0570   23.5718 C   0  0  0  0  0  0  0  0  0  0  0  0
    6.0160   -3.0543   24.1795 C   0  0  0  0  0  0  0  0  0  0  0  0
    6.2279   -3.6359   25.5788 C   0  0  0  0  0  0  0  0  0  0  0  0
    7.6091   -3.4909   25.8773 O   0  0  0  0  0  0  0  0  0  0  0  0
    8.3252   -2.8885   24.8137 C   0  0  0  0  0  0  0  0  0  0  0  0
    8.5271   -1.8262   25.0285 H   0  0  0  0  0  0  0  0  0  0  0  0
    9.2918   -3.3995   24.7306 H   0  0  0  0  0  0  0  0  0  0  0  0
    5.9681   -4.7031   25.6254 H   0  0  0  0  0  0  0  0  0  0  0  0
    5.6288   -3.1165   26.3408 H   0  0  0  0  0  0  0  0  0  0  0  0
    5.6496   -2.0247   24.2442 H   0  0  0  0  0  0  0  0  0  0  0  0
    5.3006   -3.6273   23.5859 H   0  0  0  0  0  0  0  0  0  0  0  0
    7.6515   -4.0296   23.1186 H   0  0  0  0  0  0  0  0  0  0  0  0
    6.7000   -1.6026   21.7053 N   0  0  0  0  0  0  0  0  0  0  0  0
    7.3371   -0.6853   20.9331 N   0  0  0  0  0  0  0  0  0  0  0  0
    6.6470    0.0018   19.9004 C   0  0  0  0  0  0  0  0  0  0  0  0
    5.4361    0.6444   20.1668 C   0  0  0  0  0  0  0  0  0  0  0  0
    4.8122    1.3138   19.1104 C   0  0  0  0  0  0  0  0  0  0  0  0
    5.3978    1.2966   17.8380 C   0  0  0  0  0  0  0  0  0  0  0  0
    6.5531    0.6678   17.5737 N   0  0  0  0  0  0  0  0  0  0  0  0
    7.1611    0.0471   18.5897 C   0  0  0  0  0  0  0  0  0  0  0  0
    8.1111   -0.4319   18.3627 H   0  0  0  0  0  0  0  0  0  0  0  0
    4.9207    1.7873   16.9938 H   0  0  0  0  0  0  0  0  0  0  0  0
    3.8803    1.8409   19.2596 H   0  0  0  0  0  0  0  0  0  0  0  0
    5.0154    0.6063   21.1768 H   0  0  0  0  0  0  0  0  0  0  0  0
   10.3483   -0.3109   20.3121 H   0  0  0  0  0  0  0  0  0  0  0  0
    9.1749    1.0081   20.0580 H   0  0  0  0  0  0  0  0  0  0  0  0
   11.9652   -0.1703   22.0081 H   0  0  0  0  0  0  0  0  0  0  0  0
   13.1022    1.0787   23.8463 H   0  0  0  0  0  0  0  0  0  0  0  0
   12.0164    3.1454   24.7610 H   0  0  0  0  0  0  0  0  0  0  0  0
    9.8408    3.9092   23.8547 H   0  0  0  0  0  0  0  0  0  0  0  0
    6.0451    2.3096   23.0050 H   0  0  0  0  0  0  0  0  0  0  0  0
    7.3104    1.0609   23.2505 H   0  0  0  0  0  0  0  0  0  0  0  0
    7.3737    2.5862   24.1657 H   0  0  0  0  0  0  0  0  0  0  0  0
  1  2  1  0
  2  3  1  0
  3  4  2  0
  4  5  1  0
  5  6  2  0
  6  7  1  0
  7  8  2  0
  8  9  1  0
  9 10  1  0
 10 11  2  0
 11 12  1  0
 12 13  1  0
 13 14  1  0
 14 15  1  0
 15 16  1  0
 16 17  1  0
 17 18  1  0
 17 19  1  0
 15 20  1  0
 15 21  1  0
 14 22  1  0
 14 23  1  0
 13 24  1  0
 12 25  2  0
 25 26  1  0
 26 27  1  0
 27 28  2  0
 28 29  1  0
 29 30  2  0
 30 31  1  0
 31 32  2  0
 32 33  1  0
 30 34  1  0
 29 35  1  0
 28 36  1  0
  9 37  1  0
  9 38  1  0
  7 39  1  0
  6 40  1  0
  5 41  1  0
  4 42  1  0
  1 43  1  0
  1 44  1  0
  1 45  1  0
  8  3  1  0
 26 10  1  0
 32 27  1  0
 17 13  1  0
M  END
>  <cnnaffinity>  (1) 
-6.0713

>  <filename>  (1) 
CSc1ccccc1Cc1nc(C2CCOC2)nn1-c1cccnc1

$$$$
