
     RDKit          3D

 42 44  0  0  0  0  0  0  0  0999 V2000
    4.9483   -4.0171   25.7685 C   0  0  0  0  0  0  0  0  0  0  0  0
    6.5595   -3.3831   26.2806 S   0  0  0  0  0  0  0  0  0  0  0  0
    6.9008   -2.2581   24.9108 C   0  0  0  0  0  0  0  0  0  0  0  0
    7.4338   -2.9709   23.6507 C   0  0  0  0  0  0  0  0  0  0  0  0
    7.7020   -1.9957   22.5600 C   0  0  0  0  0  0  0  0  0  0  0  0
    6.8265   -1.6546   21.6436 N   0  0  0  0  0  0  0  0  0  0  0  0
    7.4429   -0.6304   20.9935 N   0  0  0  0  0  0  0  0  0  0  0  0
    6.7496    0.0439   19.9375 C   0  0  0  0  0  0  0  0  0  0  0  0
    5.5394    0.7078   20.1872 C   0  0  0  0  0  0  0  0  0  0  0  0
    4.8825    1.3229   19.1154 C   0  0  0  0  0  0  0  0  0  0  0  0
    5.4660    1.2801   17.8444 C   0  0  0  0  0  0  0  0  0  0  0  0
    6.6174    0.6354   17.5942 N   0  0  0  0  0  0  0  0  0  0  0  0
    7.2268    0.0202   18.6155 C   0  0  0  0  0  0  0  0  0  0  0  0
    8.1293   -0.5402   18.3676 H   0  0  0  0  0  0  0  0  0  0  0  0
    4.9865    1.7678   16.9970 H   0  0  0  0  0  0  0  0  0  0  0  0
    3.9449    1.8490   19.2616 H   0  0  0  0  0  0  0  0  0  0  0  0
    5.1426    0.7645   21.2027 H   0  0  0  0  0  0  0  0  0  0  0  0
    8.6609   -0.4149   21.5813 C   0  0  0  0  0  0  0  0  0  0  0  0
    9.5456    0.7517   21.3224 C   0  0  0  0  0  0  0  0  0  0  0  0
    8.9811    1.9456   22.0819 C   0  0  0  0  0  0  0  0  0  0  0  0
    9.2239    2.0869   23.4496 C   0  0  0  0  0  0  0  0  0  0  0  0
    8.6183    3.1651   24.1271 C   0  0  0  0  0  0  0  0  0  0  0  0
    7.8427    4.0707   23.5855 N   0  0  0  0  0  0  0  0  0  0  0  0
    7.2936    3.8464   22.2143 C   0  0  0  0  0  0  0  0  0  0  0  0
    7.2232    5.1180   21.5068 C   0  0  0  0  0  0  0  0  0  0  0  0
    8.2937    5.8237   21.2465 F   0  0  0  0  0  0  0  0  0  0  0  0
    5.8171    3.5204   22.2486 F   0  0  0  0  0  0  0  0  0  0  0  0
    6.1394    5.7361   21.1335 F   0  0  0  0  0  0  0  0  0  0  0  0
    8.0741    2.7477   21.4670 C   0  0  0  0  0  0  0  0  0  0  0  0
    7.7272    2.5240   20.4741 H   0  0  0  0  0  0  0  0  0  0  0  0
    8.8380    3.3315   25.1819 H   0  0  0  0  0  0  0  0  0  0  0  0
    9.8249    1.3548   23.9726 H   0  0  0  0  0  0  0  0  0  0  0  0
    9.5964    0.9423   20.2490 H   0  0  0  0  0  0  0  0  0  0  0  0
   10.5469    0.5160   21.6891 H   0  0  0  0  0  0  0  0  0  0  0  0
    8.8539   -1.2737   22.5580 N   0  0  0  0  0  0  0  0  0  0  0  0
    6.7156   -3.7149   23.2921 H   0  0  0  0  0  0  0  0  0  0  0  0
    8.3757   -3.4749   23.8878 H   0  0  0  0  0  0  0  0  0  0  0  0
    7.6484   -1.5456   25.2865 H   0  0  0  0  0  0  0  0  0  0  0  0
    5.9922   -1.6802   24.6916 H   0  0  0  0  0  0  0  0  0  0  0  0
    4.9963   -4.4961   24.7863 H   0  0  0  0  0  0  0  0  0  0  0  0
    4.1968   -3.2219   25.7465 H   0  0  0  0  0  0  0  0  0  0  0  0
    4.6477   -4.7657   26.5053 H   0  0  0  0  0  0  0  0  0  0  0  0
  1  2  1  0
  2  3  1  0
  3  4  1  0
  4  5  1  0
  5  6  2  0
  6  7  1  0
  7  8  1  0
  8  9  2  0
  9 10  1  0
 10 11  2  0
 11 12  1  0
 12 13  2  0
 13 14  1  0
 11 15  1  0
 10 16  1  0
  9 17  1  0
  7 18  1  0
 18 19  1  0
 19 20  1  0
 20 21  2  0
 21 22  1  0
 22 23  2  0
 23 24  1  0
 24 25  1  0
 25 26  1  0
 25 27  1  0
 25 28  1  0
 24 29  2  0
 29 30  1  0
 22 31  1  0
 21 32  1  0
 19 33  1  0
 19 34  1  0
 18 35  2  0
  4 36  1  0
  4 37  1  0
  3 38  1  0
  3 39  1  0
  1 40  1  0
  1 41  1  0
  1 42  1  0
 35  5  1  0
 13  8  1  0
 29 20  1  0
M  END
>  <cnnaffinity>  (1) 
-5.92849

>  <filename>  (1) 
CSCCc1nc(Cc2ccnc(C(F)(F)F)c2)n(-c2cccnc2)n1

$$$$
