
     RDKit          3D

 40 42  0  0  0  0  0  0  0  0999 V2000
    8.4812   -6.0984   23.1734 C   0  0  0  0  0  0  0  0  0  0  0  0
    7.4058   -4.6733   22.9268 S   0  0  0  0  0  0  0  0  0  0  0  0
    8.6211   -3.5678   22.1407 C   0  0  0  0  0  0  0  0  0  0  0  0
    8.1263   -2.1882   21.9228 C   0  0  0  0  0  0  0  0  0  0  0  0
    7.6826   -1.8384   20.7368 N   0  0  0  0  0  0  0  0  0  0  0  0
    7.2593   -0.5752   20.9354 N   0  0  0  0  0  0  0  0  0  0  0  0
    6.5835    0.0913   19.8848 C   0  0  0  0  0  0  0  0  0  0  0  0
    5.3751    0.7566   20.0962 C   0  0  0  0  0  0  0  0  0  0  0  0
    4.7841    1.3822   18.9956 C   0  0  0  0  0  0  0  0  0  0  0  0
    5.4177    1.3249   17.7505 C   0  0  0  0  0  0  0  0  0  0  0  0
    6.5661    0.6547   17.5409 N   0  0  0  0  0  0  0  0  0  0  0  0
    7.1134    0.0312   18.5855 C   0  0  0  0  0  0  0  0  0  0  0  0
    8.0162   -0.5516   18.4107 H   0  0  0  0  0  0  0  0  0  0  0  0
    4.9831    1.8195   16.8810 H   0  0  0  0  0  0  0  0  0  0  0  0
    3.8303    1.8879   19.0896 H   0  0  0  0  0  0  0  0  0  0  0  0
    4.8965    0.7377   21.0780 H   0  0  0  0  0  0  0  0  0  0  0  0
    7.5431   -0.2030   22.2257 C   0  0  0  0  0  0  0  0  0  0  0  0
    7.2864    1.1433   22.8266 C   0  0  0  0  0  0  0  0  0  0  0  0
    8.3786    1.6062   23.8182 C   0  0  0  0  0  0  0  0  0  0  0  0
    8.0397    2.9748   24.3631 C   0  0  0  0  0  0  0  0  0  0  0  0
    8.5242    4.1267   23.7140 C   0  0  0  0  0  0  0  0  0  0  0  0
    8.1659    5.4083   24.1381 C   0  0  0  0  0  0  0  0  0  0  0  0
    7.3062    5.5688   25.2295 C   0  0  0  0  0  0  0  0  0  0  0  0
    6.7998    4.4459   25.8887 C   0  0  0  0  0  0  0  0  0  0  0  0
    7.1582    3.1701   25.4449 C   0  0  0  0  0  0  0  0  0  0  0  0
    6.4432    1.8019   26.2626 Cl  0  0  0  0  0  0  0  0  0  0  0  0
    6.1165    4.5520   26.7263 H   0  0  0  0  0  0  0  0  0  0  0  0
    7.0162    6.5612   25.5603 H   0  0  0  0  0  0  0  0  0  0  0  0
    8.5390    6.2788   23.6082 H   0  0  0  0  0  0  0  0  0  0  0  0
    9.1851    4.0093   22.8564 H   0  0  0  0  0  0  0  0  0  0  0  0
    8.4838    0.8761   24.6325 H   0  0  0  0  0  0  0  0  0  0  0  0
    9.3509    1.6528   23.3098 H   0  0  0  0  0  0  0  0  0  0  0  0
    6.3311    1.1003   23.3667 H   0  0  0  0  0  0  0  0  0  0  0  0
    7.1651    1.8977   22.0350 H   0  0  0  0  0  0  0  0  0  0  0  0
    8.0897   -1.2212   22.8647 N   0  0  0  0  0  0  0  0  0  0  0  0
    9.5248   -3.5363   22.7484 H   0  0  0  0  0  0  0  0  0  0  0  0
    8.8488   -3.9550   21.1499 H   0  0  0  0  0  0  0  0  0  0  0  0
    7.8211   -6.9348   23.3728 H   0  0  0  0  0  0  0  0  0  0  0  0
    9.0520   -6.3529   22.2745 H   0  0  0  0  0  0  0  0  0  0  0  0
    9.1367   -5.9650   24.0385 H   0  0  0  0  0  0  0  0  0  0  0  0
  1  2  1  0
  2  3  1  0
  3  4  1  0
  4  5  2  0
  5  6  1  0
  6  7  1  0
  7  8  2  0
  8  9  1  0
  9 10  2  0
 10 11  1  0
 11 12  2  0
 12 13  1  0
 10 14  1  0
  9 15  1  0
  8 16  1  0
  6 17  1  0
 17 18  1  0
 18 19  1  0
 19 20  1  0
 20 21  2  0
 21 22  1  0
 22 23  2  0
 23 24  1  0
 24 25  2  0
 25 26  1  0
 24 27  1  0
 23 28  1  0
 22 29  1  0
 21 30  1  0
 19 31  1  0
 19 32  1  0
 18 33  1  0
 18 34  1  0
 17 35  2  0
  3 36  1  0
  3 37  1  0
  1 38  1  0
  1 39  1  0
  1 40  1  0
 35  4  1  0
 12  7  1  0
 25 20  1  0
M  END
>  <cnnaffinity>  (1) 
-5.69337

>  <filename>  (1) 
CSCc1nc(CCc2ccccc2Cl)n(-c2cccnc2)n1

$$$$
