
     RDKit          3D

 37 39  0  0  0  0  0  0  0  0999 V2000
    8.5612   -5.8618   23.7586 C   0  0  0  0  0  0  0  0  0  0  0  0
    7.5613   -4.3929   23.4905 S   0  0  0  0  0  0  0  0  0  0  0  0
    8.7910   -3.4995   22.5009 C   0  0  0  0  0  0  0  0  0  0  0  0
    8.3344   -2.1677   22.0636 C   0  0  0  0  0  0  0  0  0  0  0  0
    8.4907   -1.0857   22.7938 N   0  0  0  0  0  0  0  0  0  0  0  0
    7.8786   -0.1383   22.0502 N   0  0  0  0  0  0  0  0  0  0  0  0
    7.8075    1.2466   22.4914 C   0  0  0  0  0  0  0  0  0  0  0  0
    6.5612    1.5682   23.2980 C   0  0  0  0  0  0  0  0  0  0  0  0
    6.2300    0.7946   24.4166 C   0  0  0  0  0  0  0  0  0  0  0  0
    5.0891    1.0678   25.1737 C   0  0  0  0  0  0  0  0  0  0  0  0
    4.2586    2.1378   24.8259 C   0  0  0  0  0  0  0  0  0  0  0  0
    4.5710    2.9397   23.7255 C   0  0  0  0  0  0  0  0  0  0  0  0
    5.7190    2.6440   22.9914 C   0  0  0  0  0  0  0  0  0  0  0  0
    6.0056    3.4258   21.9315 F   0  0  0  0  0  0  0  0  0  0  0  0
    3.9608    3.7877   23.4250 H   0  0  0  0  0  0  0  0  0  0  0  0
    3.3732    2.3565   25.4159 H   0  0  0  0  0  0  0  0  0  0  0  0
    4.8566    0.4457   26.0314 H   0  0  0  0  0  0  0  0  0  0  0  0
    6.8814   -0.0366   24.6745 H   0  0  0  0  0  0  0  0  0  0  0  0
    8.6995    1.4207   23.0980 H   0  0  0  0  0  0  0  0  0  0  0  0
    7.8617    1.8867   21.6117 H   0  0  0  0  0  0  0  0  0  0  0  0
    7.3948   -0.7067   20.9156 C   0  0  0  0  0  0  0  0  0  0  0  0
    6.6466    0.0221   19.8975 C   0  0  0  0  0  0  0  0  0  0  0  0
    5.4309    0.6680   20.1575 C   0  0  0  0  0  0  0  0  0  0  0  0
    4.7989    1.3174   19.1004 C   0  0  0  0  0  0  0  0  0  0  0  0
    5.4035    1.2939   17.8386 C   0  0  0  0  0  0  0  0  0  0  0  0
    6.5653    0.6730   17.5801 N   0  0  0  0  0  0  0  0  0  0  0  0
    7.1628    0.0475   18.5973 C   0  0  0  0  0  0  0  0  0  0  0  0
    8.1110   -0.4406   18.3806 H   0  0  0  0  0  0  0  0  0  0  0  0
    4.9243    1.7824   16.9944 H   0  0  0  0  0  0  0  0  0  0  0  0
    3.8659    1.8486   19.2512 H   0  0  0  0  0  0  0  0  0  0  0  0
    4.9982    0.6387   21.1590 H   0  0  0  0  0  0  0  0  0  0  0  0
    7.7135   -1.9792   20.8723 N   0  0  0  0  0  0  0  0  0  0  0  0
    9.7282   -3.3896   23.0534 H   0  0  0  0  0  0  0  0  0  0  0  0
    8.9260   -4.0596   21.5852 H   0  0  0  0  0  0  0  0  0  0  0  0
    7.9704   -6.5195   24.3859 H   0  0  0  0  0  0  0  0  0  0  0  0
    8.7967   -6.3761   22.8203 H   0  0  0  0  0  0  0  0  0  0  0  0
    9.4778   -5.6230   24.3060 H   0  0  0  0  0  0  0  0  0  0  0  0
  1  2  1  0
  2  3  1  0
  3  4  1  0
  4  5  2  0
  5  6  1  0
  6  7  1  0
  7  8  1  0
  8  9  2  0
  9 10  1  0
 10 11  2  0
 11 12  1  0
 12 13  2  0
 13 14  1  0
 12 15  1  0
 11 16  1  0
 10 17  1  0
  9 18  1  0
  7 19  1  0
  7 20  1  0
  6 21  1  0
 21 22  1  0
 22 23  2  0
 23 24  1  0
 24 25  2  0
 25 26  1  0
 26 27  2  0
 27 28  1  0
 25 29  1  0
 24 30  1  0
 23 31  1  0
 21 32  2  0
  3 33  1  0
  3 34  1  0
  1 35  1  0
  1 36  1  0
  1 37  1  0
 32  4  1  0
 13  8  1  0
 27 22  1  0
M  END
>  <cnnaffinity>  (1) 
-5.0827

>  <filename>  (1) 
CSCc1nc(-c2cccnc2)n(Cc2ccccc2F)n1

$$$$
