
     RDKit          3D

 37 39  0  0  0  0  0  0  0  0999 V2000
    8.4477   -4.9798   22.7482 C   0  0  0  0  0  0  0  0  0  0  0  0
    6.8658   -4.5403   23.5137 S   0  0  0  0  0  0  0  0  0  0  0  0
    7.1818   -2.7827   23.8686 C   0  0  0  0  0  0  0  0  0  0  0  0
    7.4482   -1.9345   22.6645 C   0  0  0  0  0  0  0  0  0  0  0  0
    8.6762   -1.6109   22.2952 N   0  0  0  0  0  0  0  0  0  0  0  0
    8.4805   -0.7785   21.2436 N   0  0  0  0  0  0  0  0  0  0  0  0
    9.6217   -0.0185   20.7279 C   0  0  0  0  0  0  0  0  0  0  0  0
   10.4171    0.7391   21.7817 C   0  0  0  0  0  0  0  0  0  0  0  0
   11.7321    0.3302   22.0556 C   0  0  0  0  0  0  0  0  0  0  0  0
   12.5046    0.9435   23.0454 C   0  0  0  0  0  0  0  0  0  0  0  0
   11.9583    1.9860   23.7964 C   0  0  0  0  0  0  0  0  0  0  0  0
   10.6762    2.4610   23.5083 C   0  0  0  0  0  0  0  0  0  0  0  0
    9.9206    1.8445   22.4980 C   0  0  0  0  0  0  0  0  0  0  0  0
    8.3573    2.5254   22.1159 Cl  0  0  0  0  0  0  0  0  0  0  0  0
   10.2724    3.3160   24.0450 H   0  0  0  0  0  0  0  0  0  0  0  0
   12.5251    2.4196   24.6128 H   0  0  0  0  0  0  0  0  0  0  0  0
   13.5251    0.6132   23.2185 H   0  0  0  0  0  0  0  0  0  0  0  0
   12.1570   -0.4844   21.4692 H   0  0  0  0  0  0  0  0  0  0  0  0
   10.2889   -0.7462   20.2613 H   0  0  0  0  0  0  0  0  0  0  0  0
    9.2571    0.6919   19.9820 H   0  0  0  0  0  0  0  0  0  0  0  0
    7.1404   -0.7008   20.9985 C   0  0  0  0  0  0  0  0  0  0  0  0
    6.5025    0.0185   19.8969 C   0  0  0  0  0  0  0  0  0  0  0  0
    5.3039    0.7175   20.0930 C   0  0  0  0  0  0  0  0  0  0  0  0
    4.7557    1.3921   19.0033 C   0  0  0  0  0  0  0  0  0  0  0  0
    5.4127    1.3375   17.7678 C   0  0  0  0  0  0  0  0  0  0  0  0
    6.5452    0.6496   17.5640 N   0  0  0  0  0  0  0  0  0  0  0  0
    7.0616    0.0034   18.6130 C   0  0  0  0  0  0  0  0  0  0  0  0
    7.9767   -0.5584   18.4333 H   0  0  0  0  0  0  0  0  0  0  0  0
    5.0034    1.8508   16.8996 H   0  0  0  0  0  0  0  0  0  0  0  0
    3.8312    1.9481   19.0909 H   0  0  0  0  0  0  0  0  0  0  0  0
    4.8309    0.7324   21.0780 H   0  0  0  0  0  0  0  0  0  0  0  0
    6.4759   -1.3972   21.8991 N   0  0  0  0  0  0  0  0  0  0  0  0
    8.0444   -2.6977   24.5334 H   0  0  0  0  0  0  0  0  0  0  0  0
    6.2804   -2.4201   24.3756 H   0  0  0  0  0  0  0  0  0  0  0  0
    8.7454   -4.1962   22.0432 H   0  0  0  0  0  0  0  0  0  0  0  0
    8.2954   -5.9213   22.2090 H   0  0  0  0  0  0  0  0  0  0  0  0
    9.2336   -5.0984   23.5040 H   0  0  0  0  0  0  0  0  0  0  0  0
  1  2  1  0
  2  3  1  0
  3  4  1  0
  4  5  2  0
  5  6  1  0
  6  7  1  0
  7  8  1  0
  8  9  2  0
  9 10  1  0
 10 11  2  0
 11 12  1  0
 12 13  2  0
 13 14  1  0
 12 15  1  0
 11 16  1  0
 10 17  1  0
  9 18  1  0
  7 19  1  0
  7 20  1  0
  6 21  1  0
 21 22  1  0
 22 23  2  0
 23 24  1  0
 24 25  2  0
 25 26  1  0
 26 27  2  0
 27 28  1  0
 25 29  1  0
 24 30  1  0
 23 31  1  0
 21 32  2  0
  3 33  1  0
  3 34  1  0
  1 35  1  0
  1 36  1  0
  1 37  1  0
 32  4  1  0
 13  8  1  0
 27 22  1  0
M  END
>  <cnnaffinity>  (1) 
-5.93318

>  <filename>  (1) 
CSCc1nc(-c2cccnc2)n(Cc2ccccc2Cl)n1

$$$$
