
     RDKit          3D

 36 38  0  0  0  0  0  0  0  0999 V2000
    6.4793   -4.6663   22.8544 C   0  0  0  0  0  0  0  0  0  0  0  0
    7.9626   -4.2776   23.8137 S   0  0  0  0  0  0  0  0  0  0  0  0
    8.8879   -3.4977   22.4639 C   0  0  0  0  0  0  0  0  0  0  0  0
    8.3668   -2.1733   22.0380 C   0  0  0  0  0  0  0  0  0  0  0  0
    8.4788   -1.1003   22.7901 N   0  0  0  0  0  0  0  0  0  0  0  0
    7.8465   -0.1547   22.0597 N   0  0  0  0  0  0  0  0  0  0  0  0
    7.7373    1.2150   22.5391 C   0  0  0  0  0  0  0  0  0  0  0  0
    6.5205    1.4685   23.4011 C   0  0  0  0  0  0  0  0  0  0  0  0
    6.2873    0.6989   24.5411 C   0  0  0  0  0  0  0  0  0  0  0  0
    5.1546    0.9574   25.3125 C   0  0  0  0  0  0  0  0  0  0  0  0
    4.2620    1.9179   25.0390 N   0  0  0  0  0  0  0  0  0  0  0  0
    4.5055    2.6660   23.9575 C   0  0  0  0  0  0  0  0  0  0  0  0
    5.6078    2.4862   23.1160 C   0  0  0  0  0  0  0  0  0  0  0  0
    5.7307    3.1181   22.2430 H   0  0  0  0  0  0  0  0  0  0  0  0
    3.7828    3.4478   23.7436 H   0  0  0  0  0  0  0  0  0  0  0  0
    4.9614    0.3632   26.1997 H   0  0  0  0  0  0  0  0  0  0  0  0
    6.9694   -0.0969   24.8121 H   0  0  0  0  0  0  0  0  0  0  0  0
    7.7101    1.8773   21.6750 H   0  0  0  0  0  0  0  0  0  0  0  0
    8.6419    1.4343   23.1088 H   0  0  0  0  0  0  0  0  0  0  0  0
    7.3900   -0.7115   20.9121 C   0  0  0  0  0  0  0  0  0  0  0  0
    6.6456    0.0238   19.8973 C   0  0  0  0  0  0  0  0  0  0  0  0
    5.4314    0.6727   20.1598 C   0  0  0  0  0  0  0  0  0  0  0  0
    4.7989    1.3224   19.1039 C   0  0  0  0  0  0  0  0  0  0  0  0
    5.4023    1.2947   17.8411 C   0  0  0  0  0  0  0  0  0  0  0  0
    6.5648    0.6749   17.5816 N   0  0  0  0  0  0  0  0  0  0  0  0
    7.1638    0.0491   18.5976 C   0  0  0  0  0  0  0  0  0  0  0  0
    8.1127   -0.4391   18.3818 H   0  0  0  0  0  0  0  0  0  0  0  0
    4.9225    1.7807   16.9962 H   0  0  0  0  0  0  0  0  0  0  0  0
    3.8647    1.8498   19.2537 H   0  0  0  0  0  0  0  0  0  0  0  0
    4.9969    0.6387   21.1630 H   0  0  0  0  0  0  0  0  0  0  0  0
    7.7312   -1.9833   20.8533 N   0  0  0  0  0  0  0  0  0  0  0  0
    9.9310   -3.3951   22.7660 H   0  0  0  0  0  0  0  0  0  0  0  0
    8.8193   -4.1562   21.6038 H   0  0  0  0  0  0  0  0  0  0  0  0
    6.7355   -5.3548   22.0443 H   0  0  0  0  0  0  0  0  0  0  0  0
    5.7667   -5.1565   23.5203 H   0  0  0  0  0  0  0  0  0  0  0  0
    6.0184   -3.7683   22.4261 H   0  0  0  0  0  0  0  0  0  0  0  0
  1  2  1  0
  2  3  1  0
  3  4  1  0
  4  5  2  0
  5  6  1  0
  6  7  1  0
  7  8  1  0
  8  9  2  0
  9 10  1  0
 10 11  2  0
 11 12  1  0
 12 13  2  0
 13 14  1  0
 12 15  1  0
 10 16  1  0
  9 17  1  0
  7 18  1  0
  7 19  1  0
  6 20  1  0
 20 21  1  0
 21 22  2  0
 22 23  1  0
 23 24  2  0
 24 25  1  0
 25 26  2  0
 26 27  1  0
 24 28  1  0
 23 29  1  0
 22 30  1  0
 20 31  2  0
  3 32  1  0
  3 33  1  0
  1 34  1  0
  1 35  1  0
  1 36  1  0
 31  4  1  0
 13  8  1  0
 26 21  1  0
M  END
>  <cnnaffinity>  (1) 
-5.01469

>  <filename>  (1) 
CSCc1nc(-c2cccnc2)n(Cc2ccncc2)n1

$$$$
