
     RDKit          3D

 40 42  0  0  0  0  0  0  0  0999 V2000
    8.5457   -1.8845   26.7881 C   0  0  0  0  0  0  0  0  0  0  0  0
    7.4054   -1.0149   25.6811 S   0  0  0  0  0  0  0  0  0  0  0  0
    6.5615   -2.3785   24.8375 C   0  0  0  0  0  0  0  0  0  0  0  0
    7.3552   -3.0171   23.6811 C   0  0  0  0  0  0  0  0  0  0  0  0
    7.6514   -2.0540   22.5774 C   0  0  0  0  0  0  0  0  0  0  0  0
    6.7656   -1.6641   21.6847 N   0  0  0  0  0  0  0  0  0  0  0  0
    7.4207   -0.6787   21.0074 N   0  0  0  0  0  0  0  0  0  0  0  0
    6.7418   -0.0095   19.9344 C   0  0  0  0  0  0  0  0  0  0  0  0
    5.5148    0.6208   20.1799 C   0  0  0  0  0  0  0  0  0  0  0  0
    4.8830    1.2863   19.1260 C   0  0  0  0  0  0  0  0  0  0  0  0
    5.4842    1.2734   17.8620 C   0  0  0  0  0  0  0  0  0  0  0  0
    6.6397    0.6389   17.6070 N   0  0  0  0  0  0  0  0  0  0  0  0
    7.2456    0.0035   18.6210 C   0  0  0  0  0  0  0  0  0  0  0  0
    8.1578   -0.5416   18.3709 H   0  0  0  0  0  0  0  0  0  0  0  0
    5.0113    1.7702   17.0173 H   0  0  0  0  0  0  0  0  0  0  0  0
    3.9387    1.8038   19.2708 H   0  0  0  0  0  0  0  0  0  0  0  0
    5.0791    0.5784   21.1800 H   0  0  0  0  0  0  0  0  0  0  0  0
    8.6536   -0.5075   21.5805 C   0  0  0  0  0  0  0  0  0  0  0  0
    9.5600    0.6750   21.4109 C   0  0  0  0  0  0  0  0  0  0  0  0
    9.0239    1.8988   22.1276 C   0  0  0  0  0  0  0  0  0  0  0  0
    8.1355    2.7610   21.4869 C   0  0  0  0  0  0  0  0  0  0  0  0
    7.6609    3.9122   22.1230 C   0  0  0  0  0  0  0  0  0  0  0  0
    8.0459    4.1792   23.4391 C   0  0  0  0  0  0  0  0  0  0  0  0
    8.8820    3.2943   24.1265 C   0  0  0  0  0  0  0  0  0  0  0  0
    9.3513    2.1726   23.4569 C   0  0  0  0  0  0  0  0  0  0  0  0
   10.1816    1.3312   24.1040 F   0  0  0  0  0  0  0  0  0  0  0  0
    9.1835    3.4498   25.1568 H   0  0  0  0  0  0  0  0  0  0  0  0
    7.7084    5.0894   23.9284 H   0  0  0  0  0  0  0  0  0  0  0  0
    7.0312    4.6088   21.5848 H   0  0  0  0  0  0  0  0  0  0  0  0
    7.8242    2.4920   20.4797 H   0  0  0  0  0  0  0  0  0  0  0  0
    9.7023    0.8925   20.3522 H   0  0  0  0  0  0  0  0  0  0  0  0
   10.5285    0.3950   21.8346 H   0  0  0  0  0  0  0  0  0  0  0  0
    8.8402   -1.4096   22.5185 N   0  0  0  0  0  0  0  0  0  0  0  0
    8.3150   -3.3887   24.0510 H   0  0  0  0  0  0  0  0  0  0  0  0
    6.7928   -3.8614   23.2778 H   0  0  0  0  0  0  0  0  0  0  0  0
    6.2669   -3.1374   25.5718 H   0  0  0  0  0  0  0  0  0  0  0  0
    5.6331   -1.9413   24.4539 H   0  0  0  0  0  0  0  0  0  0  0  0
    9.2789   -2.4927   26.2476 H   0  0  0  0  0  0  0  0  0  0  0  0
    9.0847   -1.1115   27.3446 H   0  0  0  0  0  0  0  0  0  0  0  0
    8.0034   -2.5110   27.5033 H   0  0  0  0  0  0  0  0  0  0  0  0
  1  2  1  0
  2  3  1  0
  3  4  1  0
  4  5  1  0
  5  6  2  0
  6  7  1  0
  7  8  1  0
  8  9  2  0
  9 10  1  0
 10 11  2  0
 11 12  1  0
 12 13  2  0
 13 14  1  0
 11 15  1  0
 10 16  1  0
  9 17  1  0
  7 18  1  0
 18 19  1  0
 19 20  1  0
 20 21  2  0
 21 22  1  0
 22 23  2  0
 23 24  1  0
 24 25  2  0
 25 26  1  0
 24 27  1  0
 23 28  1  0
 22 29  1  0
 21 30  1  0
 19 31  1  0
 19 32  1  0
 18 33  2  0
  4 34  1  0
  4 35  1  0
  3 36  1  0
  3 37  1  0
  1 38  1  0
  1 39  1  0
  1 40  1  0
 33  5  1  0
 13  8  1  0
 25 20  1  0
M  END
>  <cnnaffinity>  (1) 
-5.77849

>  <filename>  (1) 
CSCCc1nc(Cc2ccccc2F)n(-c2cccnc2)n1

$$$$
