
     RDKit          3D

 41 44  0  0  0  0  0  0  0  0999 V2000
    6.9369   -6.1369   21.3978 C   0  0  0  0  0  0  0  0  0  0  0  0
    6.4166   -5.0020   22.7072 S   0  0  0  0  0  0  0  0  0  0  0  0
    8.0018   -4.3423   23.2798 C   0  0  0  0  0  0  0  0  0  0  0  0
    8.7123   -3.4385   22.2672 C   0  0  0  0  0  0  0  0  0  0  0  0
    8.0462   -2.1362   21.9696 C   0  0  0  0  0  0  0  0  0  0  0  0
    7.6209   -1.8447   20.7596 N   0  0  0  0  0  0  0  0  0  0  0  0
    7.1569   -0.5762   20.8900 N   0  0  0  0  0  0  0  0  0  0  0  0
    6.5186    0.0778   19.8083 C   0  0  0  0  0  0  0  0  0  0  0  0
    5.3106    0.7634   19.9835 C   0  0  0  0  0  0  0  0  0  0  0  0
    4.7645    1.4201   18.8783 C   0  0  0  0  0  0  0  0  0  0  0  0
    5.4263    1.3541   17.6496 C   0  0  0  0  0  0  0  0  0  0  0  0
    6.5674    0.6653   17.4695 N   0  0  0  0  0  0  0  0  0  0  0  0
    7.0911    0.0342   18.5243 C   0  0  0  0  0  0  0  0  0  0  0  0
    8.0000   -0.5382   18.3546 H   0  0  0  0  0  0  0  0  0  0  0  0
    5.0315    1.8600   16.7712 H   0  0  0  0  0  0  0  0  0  0  0  0
    3.8457    1.9894   18.9585 H   0  0  0  0  0  0  0  0  0  0  0  0
    4.8015    0.7602   20.9480 H   0  0  0  0  0  0  0  0  0  0  0  0
    7.3919   -0.1456   22.1654 C   0  0  0  0  0  0  0  0  0  0  0  0
    7.1412    1.2618   22.6296 C   0  0  0  0  0  0  0  0  0  0  0  0
    7.5719    2.4901   21.7288 C   0  0  0  0  0  0  0  0  0  0  0  0
    8.4670    2.9246   22.8815 C   0  0  0  0  0  0  0  0  0  0  0  0
    8.1232    1.8151   23.6437 C   0  0  0  0  0  0  0  0  0  0  0  0
    8.7795    1.4381   24.8014 C   0  0  0  0  0  0  0  0  0  0  0  0
    9.8778    2.2288   25.1696 C   0  0  0  0  0  0  0  0  0  0  0  0
   10.2251    3.3701   24.4315 C   0  0  0  0  0  0  0  0  0  0  0  0
    9.4541    3.7880   23.3327 C   0  0  0  0  0  0  0  0  0  0  0  0
    9.7124    5.3834   22.6750 Cl  0  0  0  0  0  0  0  0  0  0  0  0
   11.1040    3.9535   24.6800 H   0  0  0  0  0  0  0  0  0  0  0  0
   10.4591    1.9476   26.0424 H   0  0  0  0  0  0  0  0  0  0  0  0
    8.4596    0.5725   25.3703 H   0  0  0  0  0  0  0  0  0  0  0  0
    8.1007    2.2411   20.8087 H   0  0  0  0  0  0  0  0  0  0  0  0
    6.7496    3.1668   21.4916 H   0  0  0  0  0  0  0  0  0  0  0  0
    6.1007    1.3406   22.9725 H   0  0  0  0  0  0  0  0  0  0  0  0
    7.9256   -1.1291   22.8729 N   0  0  0  0  0  0  0  0  0  0  0  0
    8.8059   -3.9378   21.2999 H   0  0  0  0  0  0  0  0  0  0  0  0
    9.7209   -3.2227   22.6393 H   0  0  0  0  0  0  0  0  0  0  0  0
    7.7661   -3.7731   24.1886 H   0  0  0  0  0  0  0  0  0  0  0  0
    8.6657   -5.1657   23.5688 H   0  0  0  0  0  0  0  0  0  0  0  0
    6.0546   -6.3193   20.7808 H   0  0  0  0  0  0  0  0  0  0  0  0
    7.7017   -5.6828   20.7619 H   0  0  0  0  0  0  0  0  0  0  0  0
    7.3068   -7.0926   21.7817 H   0  0  0  0  0  0  0  0  0  0  0  0
  1  2  1  0
  2  3  1  0
  3  4  1  0
  4  5  1  0
  5  6  2  0
  6  7  1  0
  7  8  1  0
  8  9  2  0
  9 10  1  0
 10 11  2  0
 11 12  1  0
 12 13  2  0
 13 14  1  0
 11 15  1  0
 10 16  1  0
  9 17  1  0
  7 18  1  0
 18 19  1  0
 19 20  1  0
 20 21  1  0
 21 22  2  0
 22 23  1  0
 23 24  2  0
 24 25  1  0
 25 26  2  0
 26 27  1  0
 25 28  1  0
 24 29  1  0
 23 30  1  0
 20 31  1  0
 20 32  1  0
 19 33  1  0
 18 34  2  0
  4 35  1  0
  4 36  1  0
  3 37  1  0
  3 38  1  0
  1 39  1  0
  1 40  1  0
  1 41  1  0
 34  5  1  0
 13  8  1  0
 22 19  1  0
 26 21  1  0
M  END
>  <cnnaffinity>  (1) 
-6.37664

>  <filename>  (1) 
CSCCc1nc(C2Cc3c(Cl)cccc32)n(-c2cccnc2)n1

$$$$
