
     RDKit          3D

 39 41  0  0  0  0  0  0  0  0999 V2000
    8.3995   -3.5978   26.8766 C   0  0  0  0  0  0  0  0  0  0  0  0
    6.7037   -3.3940   26.3003 S   0  0  0  0  0  0  0  0  0  0  0  0
    6.9932   -2.2660   24.9186 C   0  0  0  0  0  0  0  0  0  0  0  0
    7.3736   -3.0000   23.6164 C   0  0  0  0  0  0  0  0  0  0  0  0
    7.5996   -2.0481   22.5018 C   0  0  0  0  0  0  0  0  0  0  0  0
    6.6558   -1.6392   21.6828 N   0  0  0  0  0  0  0  0  0  0  0  0
    7.2942   -0.7069   20.9322 N   0  0  0  0  0  0  0  0  0  0  0  0
    6.6255   -0.0210   19.8853 C   0  0  0  0  0  0  0  0  0  0  0  0
    5.4194    0.6329   20.1480 C   0  0  0  0  0  0  0  0  0  0  0  0
    4.7967    1.3173   19.0995 C   0  0  0  0  0  0  0  0  0  0  0  0
    5.3928    1.2984   17.8302 C   0  0  0  0  0  0  0  0  0  0  0  0
    6.5387    0.6547   17.5684 N   0  0  0  0  0  0  0  0  0  0  0  0
    7.1427    0.0227   18.5773 C   0  0  0  0  0  0  0  0  0  0  0  0
    8.0916   -0.4554   18.3418 H   0  0  0  0  0  0  0  0  0  0  0  0
    4.9361    1.8172   16.9902 H   0  0  0  0  0  0  0  0  0  0  0  0
    3.8676    1.8597   19.2485 H   0  0  0  0  0  0  0  0  0  0  0  0
    5.0055    0.5890   21.1570 H   0  0  0  0  0  0  0  0  0  0  0  0
    8.5781   -0.5882   21.3746 C   0  0  0  0  0  0  0  0  0  0  0  0
    9.6338    0.3020   20.8129 C   0  0  0  0  0  0  0  0  0  0  0  0
   10.3182    1.1392   21.8741 C   0  0  0  0  0  0  0  0  0  0  0  0
    9.6982    2.2469   22.4800 C   0  0  0  0  0  0  0  0  0  0  0  0
    8.1254    2.7645   21.9497 Cl  0  0  0  0  0  0  0  0  0  0  0  0
   10.3113    2.9139   23.5523 C   0  0  0  0  0  0  0  0  0  0  0  0
   11.4976    2.5274   24.0487 N   0  0  0  0  0  0  0  0  0  0  0  0
   12.1177    1.4827   23.4812 C   0  0  0  0  0  0  0  0  0  0  0  0
   11.5627    0.7838   22.4069 C   0  0  0  0  0  0  0  0  0  0  0  0
   12.2372   -0.2614   21.8957 F   0  0  0  0  0  0  0  0  0  0  0  0
   13.0762    1.1612   23.8864 H   0  0  0  0  0  0  0  0  0  0  0  0
    9.8187    3.7600   24.0322 H   0  0  0  0  0  0  0  0  0  0  0  0
   10.3446   -0.3803   20.3402 H   0  0  0  0  0  0  0  0  0  0  0  0
    9.1884    0.9413   20.0513 H   0  0  0  0  0  0  0  0  0  0  0  0
    8.8013   -1.4436   22.3469 N   0  0  0  0  0  0  0  0  0  0  0  0
    8.3106   -3.5513   23.7601 H   0  0  0  0  0  0  0  0  0  0  0  0
    6.5887   -3.6995   23.3183 H   0  0  0  0  0  0  0  0  0  0  0  0
    7.7788   -1.5548   25.2141 H   0  0  0  0  0  0  0  0  0  0  0  0
    6.0704   -1.6832   24.7905 H   0  0  0  0  0  0  0  0  0  0  0  0
    8.8086   -2.6502   27.2369 H   0  0  0  0  0  0  0  0  0  0  0  0
    8.3686   -4.3105   27.7023 H   0  0  0  0  0  0  0  0  0  0  0  0
    9.0517   -3.9958   26.0944 H   0  0  0  0  0  0  0  0  0  0  0  0
  1  2  1  0
  2  3  1  0
  3  4  1  0
  4  5  1  0
  5  6  2  0
  6  7  1  0
  7  8  1  0
  8  9  2  0
  9 10  1  0
 10 11  2  0
 11 12  1  0
 12 13  2  0
 13 14  1  0
 11 15  1  0
 10 16  1  0
  9 17  1  0
  7 18  1  0
 18 19  1  0
 19 20  1  0
 20 21  2  0
 21 22  1  0
 21 23  1  0
 23 24  2  0
 24 25  1  0
 25 26  2  0
 26 27  1  0
 25 28  1  0
 23 29  1  0
 19 30  1  0
 19 31  1  0
 18 32  2  0
  4 33  1  0
  4 34  1  0
  3 35  1  0
  3 36  1  0
  1 37  1  0
  1 38  1  0
  1 39  1  0
 32  5  1  0
 13  8  1  0
 26 20  1  0
M  END
>  <cnnaffinity>  (1) 
-6.63057

>  <filename>  (1) 
CSCCc1nc(Cc2c(F)cncc2Cl)n(-c2cccnc2)n1

$$$$
