
     RDKit          3D

 40 42  0  0  0  0  0  0  0  0999 V2000
    9.2236   -5.7082   24.9765 C   0  0  0  0  0  0  0  0  0  0  0  0
    8.3101   -6.0121   23.4440 S   0  0  0  0  0  0  0  0  0  0  0  0
    7.5565   -4.4010   23.0965 C   0  0  0  0  0  0  0  0  0  0  0  0
    8.5113   -3.4600   22.3393 C   0  0  0  0  0  0  0  0  0  0  0  0
    7.9353   -2.1261   22.0142 C   0  0  0  0  0  0  0  0  0  0  0  0
    7.6501   -1.2278   22.9360 N   0  0  0  0  0  0  0  0  0  0  0  0
    7.1923   -0.1750   22.2115 N   0  0  0  0  0  0  0  0  0  0  0  0
    7.0684    1.1259   22.8883 C   0  0  0  0  0  0  0  0  0  0  0  0
    8.3807    1.5694   23.5152 C   0  0  0  0  0  0  0  0  0  0  0  0
    8.5975    1.5200   24.8982 C   0  0  0  0  0  0  0  0  0  0  0  0
    9.8712    1.6995   25.4454 C   0  0  0  0  0  0  0  0  0  0  0  0
   10.9587    1.9886   24.6190 C   0  0  0  0  0  0  0  0  0  0  0  0
   10.7658    2.0786   23.2395 C   0  0  0  0  0  0  0  0  0  0  0  0
    9.4851    1.8891   22.7143 C   0  0  0  0  0  0  0  0  0  0  0  0
    9.2692    2.1066   21.0124 Cl  0  0  0  0  0  0  0  0  0  0  0  0
   11.5866    2.2983   22.5658 H   0  0  0  0  0  0  0  0  0  0  0  0
   11.9421    2.1620   25.0480 H   0  0  0  0  0  0  0  0  0  0  0  0
   10.0173    1.5750   26.5082 H   0  0  0  0  0  0  0  0  0  0  0  0
    7.7531    1.3468   25.5599 H   0  0  0  0  0  0  0  0  0  0  0  0
    6.7378    1.8684   22.1591 H   0  0  0  0  0  0  0  0  0  0  0  0
    6.3047    1.0172   23.6593 H   0  0  0  0  0  0  0  0  0  0  0  0
    7.1941   -0.5182   20.8944 C   0  0  0  0  0  0  0  0  0  0  0  0
    6.5547    0.2401   19.8185 C   0  0  0  0  0  0  0  0  0  0  0  0
    5.3274    0.9070   19.9568 C   0  0  0  0  0  0  0  0  0  0  0  0
    4.7558    1.4807   18.8225 C   0  0  0  0  0  0  0  0  0  0  0  0
    5.4311    1.3815   17.5992 C   0  0  0  0  0  0  0  0  0  0  0  0
    6.5957    0.7320   17.4544 N   0  0  0  0  0  0  0  0  0  0  0  0
    7.1288    0.1671   18.5409 C   0  0  0  0  0  0  0  0  0  0  0  0
    8.0568   -0.3836   18.3937 H   0  0  0  0  0  0  0  0  0  0  0  0
    5.0266    1.8439   16.6998 H   0  0  0  0  0  0  0  0  0  0  0  0
    3.8196    2.0197   18.8715 H   0  0  0  0  0  0  0  0  0  0  0  0
    4.8087    0.9450   20.9192 H   0  0  0  0  0  0  0  0  0  0  0  0
    7.7060   -1.7255   20.7395 N   0  0  0  0  0  0  0  0  0  0  0  0
    8.7894   -3.8986   21.3822 H   0  0  0  0  0  0  0  0  0  0  0  0
    9.4335   -3.3095   22.9204 H   0  0  0  0  0  0  0  0  0  0  0  0
    6.6679   -4.6307   22.4902 H   0  0  0  0  0  0  0  0  0  0  0  0
    7.1978   -3.9398   24.0269 H   0  0  0  0  0  0  0  0  0  0  0  0
    9.6894   -6.6620   25.2358 H   0  0  0  0  0  0  0  0  0  0  0  0
   10.0122   -4.9586   24.8606 H   0  0  0  0  0  0  0  0  0  0  0  0
    8.5696   -5.4189   25.8056 H   0  0  0  0  0  0  0  0  0  0  0  0
  1  2  1  0
  2  3  1  0
  3  4  1  0
  4  5  1  0
  5  6  2  0
  6  7  1  0
  7  8  1  0
  8  9  1  0
  9 10  2  0
 10 11  1  0
 11 12  2  0
 12 13  1  0
 13 14  2  0
 14 15  1  0
 13 16  1  0
 12 17  1  0
 11 18  1  0
 10 19  1  0
  8 20  1  0
  8 21  1  0
  7 22  1  0
 22 23  1  0
 23 24  2  0
 24 25  1  0
 25 26  2  0
 26 27  1  0
 27 28  2  0
 28 29  1  0
 26 30  1  0
 25 31  1  0
 24 32  1  0
 22 33  2  0
  4 34  1  0
  4 35  1  0
  3 36  1  0
  3 37  1  0
  1 38  1  0
  1 39  1  0
  1 40  1  0
 33  5  1  0
 14  9  1  0
 28 23  1  0
M  END
>  <cnnaffinity>  (1) 
-5.58073

>  <filename>  (1) 
CSCCc1nc(-c2cccnc2)n(Cc2ccccc2Cl)n1

$$$$
