
     RDKit          3D

 39 41  0  0  0  0  0  0  0  0999 V2000
    6.9635   -6.2240   21.2350 C   0  0  0  0  0  0  0  0  0  0  0  0
    6.3421   -4.9172   22.3216 S   0  0  0  0  0  0  0  0  0  0  0  0
    7.8784   -4.4125   23.1444 C   0  0  0  0  0  0  0  0  0  0  0  0
    8.7505   -3.5416   22.2328 C   0  0  0  0  0  0  0  0  0  0  0  0
    8.2107   -2.1867   21.9528 C   0  0  0  0  0  0  0  0  0  0  0  0
    7.7924   -1.8439   20.7568 N   0  0  0  0  0  0  0  0  0  0  0  0
    7.3457   -0.5788   20.9388 N   0  0  0  0  0  0  0  0  0  0  0  0
    6.6326    0.0596   19.8972 C   0  0  0  0  0  0  0  0  0  0  0  0
    5.4010    0.6820   20.1271 C   0  0  0  0  0  0  0  0  0  0  0  0
    4.7855    1.3149   19.0458 C   0  0  0  0  0  0  0  0  0  0  0  0
    5.4153    1.2914   17.7968 C   0  0  0  0  0  0  0  0  0  0  0  0
    6.5648    0.6291   17.5615 N   0  0  0  0  0  0  0  0  0  0  0  0
    7.1492    0.0153   18.5919 C   0  0  0  0  0  0  0  0  0  0  0  0
    8.0752   -0.5280   18.3992 H   0  0  0  0  0  0  0  0  0  0  0  0
    4.9936    1.8301   16.9529 H   0  0  0  0  0  0  0  0  0  0  0  0
    3.8544    1.8546   19.1764 H   0  0  0  0  0  0  0  0  0  0  0  0
    4.9446    0.6566   21.1187 H   0  0  0  0  0  0  0  0  0  0  0  0
    7.5983   -0.1972   22.2254 C   0  0  0  0  0  0  0  0  0  0  0  0
    7.3698    1.1680   22.8096 C   0  0  0  0  0  0  0  0  0  0  0  0
    8.6180    1.7264   23.4806 C   0  0  0  0  0  0  0  0  0  0  0  0
    8.8139    1.6155   24.8578 C   0  0  0  0  0  0  0  0  0  0  0  0
   10.0333    2.0065   25.4156 C   0  0  0  0  0  0  0  0  0  0  0  0
   11.0151    2.5209   24.5754 C   0  0  0  0  0  0  0  0  0  0  0  0
   10.8681    2.6353   23.2554 N   0  0  0  0  0  0  0  0  0  0  0  0
    9.7192    2.2201   22.7497 C   0  0  0  0  0  0  0  0  0  0  0  0
    9.6549    2.2017   21.0320 Cl  0  0  0  0  0  0  0  0  0  0  0  0
   11.9746    2.8441   24.9600 H   0  0  0  0  0  0  0  0  0  0  0  0
   10.2280    1.8846   26.4646 H   0  0  0  0  0  0  0  0  0  0  0  0
    8.0326    1.1983   25.4897 H   0  0  0  0  0  0  0  0  0  0  0  0
    7.0349    1.8488   22.0221 H   0  0  0  0  0  0  0  0  0  0  0  0
    6.5535    1.0791   23.5356 H   0  0  0  0  0  0  0  0  0  0  0  0
    8.1354   -1.2053   22.8878 N   0  0  0  0  0  0  0  0  0  0  0  0
    9.7619   -3.4204   22.6334 H   0  0  0  0  0  0  0  0  0  0  0  0
    8.8038   -4.0358   21.2633 H   0  0  0  0  0  0  0  0  0  0  0  0
    7.5859   -3.8933   24.0656 H   0  0  0  0  0  0  0  0  0  0  0  0
    8.4304   -5.3108   23.4413 H   0  0  0  0  0  0  0  0  0  0  0  0
    7.8085   -5.8905   20.6234 H   0  0  0  0  0  0  0  0  0  0  0  0
    6.1411   -6.4869   20.5658 H   0  0  0  0  0  0  0  0  0  0  0  0
    7.2581   -7.1103   21.8051 H   0  0  0  0  0  0  0  0  0  0  0  0
  1  2  1  0
  2  3  1  0
  3  4  1  0
  4  5  1  0
  5  6  2  0
  6  7  1  0
  7  8  1  0
  8  9  2  0
  9 10  1  0
 10 11  2  0
 11 12  1  0
 12 13  2  0
 13 14  1  0
 11 15  1  0
 10 16  1  0
  9 17  1  0
  7 18  1  0
 18 19  1  0
 19 20  1  0
 20 21  2  0
 21 22  1  0
 22 23  2  0
 23 24  1  0
 24 25  2  0
 25 26  1  0
 23 27  1  0
 22 28  1  0
 21 29  1  0
 19 30  1  0
 19 31  1  0
 18 32  2  0
  4 33  1  0
  4 34  1  0
  3 35  1  0
  3 36  1  0
  1 37  1  0
  1 38  1  0
  1 39  1  0
 32  5  1  0
 13  8  1  0
 25 20  1  0
M  END
>  <cnnaffinity>  (1) 
-5.67758

>  <filename>  (1) 
CSCCc1nc(Cc2cccnc2Cl)n(-c2cccnc2)n1

$$$$
