
     RDKit          3D

 40 42  0  0  0  0  0  0  0  0999 V2000
    9.1857   -5.7959   24.7948 C   0  0  0  0  0  0  0  0  0  0  0  0
    8.2354   -6.0757   23.2835 S   0  0  0  0  0  0  0  0  0  0  0  0
    7.5255   -4.4332   22.9952 C   0  0  0  0  0  0  0  0  0  0  0  0
    8.4388   -3.5184   22.1642 C   0  0  0  0  0  0  0  0  0  0  0  0
    7.8553   -2.1832   21.8557 C   0  0  0  0  0  0  0  0  0  0  0  0
    7.4300   -1.8348   20.6621 N   0  0  0  0  0  0  0  0  0  0  0  0
    6.9886   -0.5631   20.8505 N   0  0  0  0  0  0  0  0  0  0  0  0
    6.4151    0.1411   19.7578 C   0  0  0  0  0  0  0  0  0  0  0  0
    5.2352    0.8827   19.8881 C   0  0  0  0  0  0  0  0  0  0  0  0
    4.7260    1.5116   18.7478 C   0  0  0  0  0  0  0  0  0  0  0  0
    5.4127    1.3862   17.5364 C   0  0  0  0  0  0  0  0  0  0  0  0
    6.5490    0.6758   17.4070 N   0  0  0  0  0  0  0  0  0  0  0  0
    7.0313    0.0680   18.4928 C   0  0  0  0  0  0  0  0  0  0  0  0
    7.9603   -0.4903   18.3788 H   0  0  0  0  0  0  0  0  0  0  0  0
    5.0368    1.8648   16.6349 H   0  0  0  0  0  0  0  0  0  0  0  0
    3.8123    2.0954   18.7939 H   0  0  0  0  0  0  0  0  0  0  0  0
    4.7282    0.9520   20.8526 H   0  0  0  0  0  0  0  0  0  0  0  0
    7.2246   -0.2034   22.1506 C   0  0  0  0  0  0  0  0  0  0  0  0
    7.0264    1.1239   22.8176 C   0  0  0  0  0  0  0  0  0  0  0  0
    8.3503    1.6459   23.3659 C   0  0  0  0  0  0  0  0  0  0  0  0
    8.7475    1.3439   24.6770 C   0  0  0  0  0  0  0  0  0  0  0  0
   10.0603    1.5913   25.0691 C   0  0  0  0  0  0  0  0  0  0  0  0
   10.4594    1.1899   26.2786 F   0  0  0  0  0  0  0  0  0  0  0  0
   10.9919    2.1942   24.2343 C   0  0  0  0  0  0  0  0  0  0  0  0
   10.5731    2.5929   22.9639 C   0  0  0  0  0  0  0  0  0  0  0  0
    9.2707    2.3021   22.5358 C   0  0  0  0  0  0  0  0  0  0  0  0
    8.8149    2.7190   20.9173 Cl  0  0  0  0  0  0  0  0  0  0  0  0
   11.2490    3.1119   22.2965 H   0  0  0  0  0  0  0  0  0  0  0  0
   12.0119    2.3153   24.5892 H   0  0  0  0  0  0  0  0  0  0  0  0
    8.0571    0.8867   25.3809 H   0  0  0  0  0  0  0  0  0  0  0  0
    6.3345    0.9517   23.6454 H   0  0  0  0  0  0  0  0  0  0  0  0
    6.5753    1.8439   22.1328 H   0  0  0  0  0  0  0  0  0  0  0  0
    7.7409   -1.2257   22.8032 N   0  0  0  0  0  0  0  0  0  0  0  0
    9.3640   -3.3402   22.7220 H   0  0  0  0  0  0  0  0  0  0  0  0
    8.6867   -4.0059   21.2209 H   0  0  0  0  0  0  0  0  0  0  0  0
    7.2749   -3.9774   23.9621 H   0  0  0  0  0  0  0  0  0  0  0  0
    6.5874   -4.6175   22.4600 H   0  0  0  0  0  0  0  0  0  0  0  0
    9.9649   -5.0410   24.6611 H   0  0  0  0  0  0  0  0  0  0  0  0
    9.6686   -6.7417   25.0517 H   0  0  0  0  0  0  0  0  0  0  0  0
    8.5340   -5.5022   25.6223 H   0  0  0  0  0  0  0  0  0  0  0  0
  1  2  1  0
  2  3  1  0
  3  4  1  0
  4  5  1  0
  5  6  2  0
  6  7  1  0
  7  8  1  0
  8  9  2  0
  9 10  1  0
 10 11  2  0
 11 12  1  0
 12 13  2  0
 13 14  1  0
 11 15  1  0
 10 16  1  0
  9 17  1  0
  7 18  1  0
 18 19  1  0
 19 20  1  0
 20 21  2  0
 21 22  1  0
 22 23  1  0
 22 24  2  0
 24 25  1  0
 25 26  2  0
 26 27  1  0
 25 28  1  0
 24 29  1  0
 21 30  1  0
 19 31  1  0
 19 32  1  0
 18 33  2  0
  4 34  1  0
  4 35  1  0
  3 36  1  0
  3 37  1  0
  1 38  1  0
  1 39  1  0
  1 40  1  0
 33  5  1  0
 13  8  1  0
 26 20  1  0
M  END
>  <cnnaffinity>  (1) 
-5.50236

>  <filename>  (1) 
CSCCc1nc(Cc2cc(F)ccc2Cl)n(-c2cccnc2)n1

$$$$
