
     RDKit          3D

 40 42  0  0  0  0  0  0  0  0999 V2000
    8.6101   -5.8672   23.7361 C   0  0  0  0  0  0  0  0  0  0  0  0
    7.5957   -4.4059   23.4796 S   0  0  0  0  0  0  0  0  0  0  0  0
    8.8125   -3.4940   22.4887 C   0  0  0  0  0  0  0  0  0  0  0  0
    8.3440   -2.1644   22.0589 C   0  0  0  0  0  0  0  0  0  0  0  0
    8.4779   -1.0875   22.7998 N   0  0  0  0  0  0  0  0  0  0  0  0
    7.8593   -0.1427   22.0610 N   0  0  0  0  0  0  0  0  0  0  0  0
    7.7572    1.2299   22.5288 C   0  0  0  0  0  0  0  0  0  0  0  0
    6.5242    1.5199   23.3645 C   0  0  0  0  0  0  0  0  0  0  0  0
    6.2651    0.7476   24.5013 C   0  0  0  0  0  0  0  0  0  0  0  0
    5.1376    0.9807   25.2968 C   0  0  0  0  0  0  0  0  0  0  0  0
    4.8894    0.1457   26.5274 C   0  0  0  0  0  0  0  0  0  0  0  0
    3.8237    0.0849   26.7669 H   0  0  0  0  0  0  0  0  0  0  0  0
    5.3928    0.5794   27.3986 H   0  0  0  0  0  0  0  0  0  0  0  0
    5.2645   -0.8766   26.4118 H   0  0  0  0  0  0  0  0  0  0  0  0
    4.2689    2.0243   24.9477 C   0  0  0  0  0  0  0  0  0  0  0  0
    4.5225    2.8176   23.8251 C   0  0  0  0  0  0  0  0  0  0  0  0
    5.6511    2.5672   23.0384 C   0  0  0  0  0  0  0  0  0  0  0  0
    5.8415    3.1722   22.1518 H   0  0  0  0  0  0  0  0  0  0  0  0
    3.8511    3.6329   23.5675 H   0  0  0  0  0  0  0  0  0  0  0  0
    3.4006    2.2172   25.5731 H   0  0  0  0  0  0  0  0  0  0  0  0
    6.9527   -0.0566   24.7587 H   0  0  0  0  0  0  0  0  0  0  0  0
    8.6650    1.4311   23.1022 H   0  0  0  0  0  0  0  0  0  0  0  0
    7.7683    1.8758   21.6521 H   0  0  0  0  0  0  0  0  0  0  0  0
    7.3969   -0.7055   20.9145 C   0  0  0  0  0  0  0  0  0  0  0  0
    6.6464    0.0244   19.8981 C   0  0  0  0  0  0  0  0  0  0  0  0
    5.4312    0.6716   20.1599 C   0  0  0  0  0  0  0  0  0  0  0  0
    4.7998    1.3215   19.1029 C   0  0  0  0  0  0  0  0  0  0  0  0
    5.4038    1.2943   17.8398 C   0  0  0  0  0  0  0  0  0  0  0  0
    6.5655    0.6733   17.5798 N   0  0  0  0  0  0  0  0  0  0  0  0
    7.1625    0.0475   18.5978 C   0  0  0  0  0  0  0  0  0  0  0  0
    8.1109   -0.4413   18.3820 H   0  0  0  0  0  0  0  0  0  0  0  0
    4.9239    1.7816   16.9951 H   0  0  0  0  0  0  0  0  0  0  0  0
    3.8647    1.8493   19.2517 H   0  0  0  0  0  0  0  0  0  0  0  0
    4.9965    0.6380   21.1619 H   0  0  0  0  0  0  0  0  0  0  0  0
    7.7340   -1.9728   20.8616 N   0  0  0  0  0  0  0  0  0  0  0  0
    8.9404   -4.0426   21.5658 H   0  0  0  0  0  0  0  0  0  0  0  0
    9.7538   -3.3815   23.0350 H   0  0  0  0  0  0  0  0  0  0  0  0
    9.5253   -5.6207   24.2825 H   0  0  0  0  0  0  0  0  0  0  0  0
    8.0276   -6.5378   24.3585 H   0  0  0  0  0  0  0  0  0  0  0  0
    8.8489   -6.3725   22.7938 H   0  0  0  0  0  0  0  0  0  0  0  0
  1  2  1  0
  2  3  1  0
  3  4  1  0
  4  5  2  0
  5  6  1  0
  6  7  1  0
  7  8  1  0
  8  9  2  0
  9 10  1  0
 10 11  1  0
 11 12  1  0
 11 13  1  0
 11 14  1  0
 10 15  2  0
 15 16  1  0
 16 17  2  0
 17 18  1  0
 16 19  1  0
 15 20  1  0
  9 21  1  0
  7 22  1  0
  7 23  1  0
  6 24  1  0
 24 25  1  0
 25 26  2  0
 26 27  1  0
 27 28  2  0
 28 29  1  0
 29 30  2  0
 30 31  1  0
 28 32  1  0
 27 33  1  0
 26 34  1  0
 24 35  2  0
  3 36  1  0
  3 37  1  0
  1 38  1  0
  1 39  1  0
  1 40  1  0
 35  4  1  0
 17  8  1  0
 30 25  1  0
M  END
>  <cnnaffinity>  (1) 
-4.99007

>  <filename>  (1) 
CSCc1nc(-c2cccnc2)n(Cc2cccc(C)c2)n1

$$$$
