
     RDKit          3D

 46 48  0  0  0  0  0  0  0  0999 V2000
    5.6335   -5.7958   22.5881 C   0  0  0  0  0  0  0  0  0  0  0  0
    7.0558   -5.1135   21.7046 S   0  0  0  0  0  0  0  0  0  0  0  0
    7.9499   -4.4282   23.1218 C   0  0  0  0  0  0  0  0  0  0  0  0
    7.4259   -3.0577   23.5791 C   0  0  0  0  0  0  0  0  0  0  0  0
    7.6088   -2.0077   22.5486 C   0  0  0  0  0  0  0  0  0  0  0  0
    6.6620   -1.5727   21.7504 N   0  0  0  0  0  0  0  0  0  0  0  0
    7.3144   -0.6828   20.9581 N   0  0  0  0  0  0  0  0  0  0  0  0
    6.6385   -0.0133   19.8991 C   0  0  0  0  0  0  0  0  0  0  0  0
    5.4253    0.6332   20.1577 C   0  0  0  0  0  0  0  0  0  0  0  0
    4.8058    1.3096   19.1027 C   0  0  0  0  0  0  0  0  0  0  0  0
    5.3954    1.2966   17.8327 C   0  0  0  0  0  0  0  0  0  0  0  0
    6.5447    0.6563   17.5715 N   0  0  0  0  0  0  0  0  0  0  0  0
    7.1488    0.0277   18.5865 C   0  0  0  0  0  0  0  0  0  0  0  0
    8.0975   -0.4464   18.3454 H   0  0  0  0  0  0  0  0  0  0  0  0
    4.9363    1.8105   16.9906 H   0  0  0  0  0  0  0  0  0  0  0  0
    3.8775    1.8456   19.2516 H   0  0  0  0  0  0  0  0  0  0  0  0
    5.0104    0.5907   21.1668 H   0  0  0  0  0  0  0  0  0  0  0  0
    8.6060   -0.5846   21.3921 C   0  0  0  0  0  0  0  0  0  0  0  0
    9.6341    0.2701   20.7466 C   0  0  0  0  0  0  0  0  0  0  0  0
   10.5726    0.9153   21.7385 C   0  0  0  0  0  0  0  0  0  0  0  0
   11.7904    0.2756   22.0643 C   0  0  0  0  0  0  0  0  0  0  0  0
   12.1835   -1.0588   21.4643 C   0  0  0  0  0  0  0  0  0  0  0  0
   12.2747   -1.0429   20.3772 H   0  0  0  0  0  0  0  0  0  0  0  0
   13.1473   -1.4005   21.8454 H   0  0  0  0  0  0  0  0  0  0  0  0
   11.4447   -1.8263   21.7122 H   0  0  0  0  0  0  0  0  0  0  0  0
   12.6037    0.8491   23.0477 C   0  0  0  0  0  0  0  0  0  0  0  0
   12.1813    1.9792   23.7415 C   0  0  0  0  0  0  0  0  0  0  0  0
   10.9536    2.5772   23.4530 C   0  0  0  0  0  0  0  0  0  0  0  0
   10.1309    2.0547   22.4484 C   0  0  0  0  0  0  0  0  0  0  0  0
    8.7840    2.7018   22.1878 C   0  0  0  0  0  0  0  0  0  0  0  0
    8.7472    3.1866   21.2068 H   0  0  0  0  0  0  0  0  0  0  0  0
    8.5647    3.4667   22.9375 H   0  0  0  0  0  0  0  0  0  0  0  0
    7.9638    1.9753   22.2080 H   0  0  0  0  0  0  0  0  0  0  0  0
   10.6067    3.4448   24.0110 H   0  0  0  0  0  0  0  0  0  0  0  0
   12.8052    2.3495   24.5328 H   0  0  0  0  0  0  0  0  0  0  0  0
   13.5559    0.3829   23.2988 H   0  0  0  0  0  0  0  0  0  0  0  0
   10.1570   -0.4171   20.0759 H   0  0  0  0  0  0  0  0  0  0  0  0
    9.1379    1.0450   20.1640 H   0  0  0  0  0  0  0  0  0  0  0  0
    8.8281   -1.4472   22.3610 N   0  0  0  0  0  0  0  0  0  0  0  0
    7.9763   -2.7230   24.4650 H   0  0  0  0  0  0  0  0  0  0  0  0
    6.3596   -3.1005   23.8173 H   0  0  0  0  0  0  0  0  0  0  0  0
    9.0050   -4.3726   22.8267 H   0  0  0  0  0  0  0  0  0  0  0  0
    7.8888   -5.1505   23.9431 H   0  0  0  0  0  0  0  0  0  0  0  0
    5.9511   -6.5897   23.2716 H   0  0  0  0  0  0  0  0  0  0  0  0
    4.9597   -6.2190   21.8410 H   0  0  0  0  0  0  0  0  0  0  0  0
    5.0914   -5.0312   23.1564 H   0  0  0  0  0  0  0  0  0  0  0  0
  1  2  1  0
  2  3  1  0
  3  4  1  0
  4  5  1  0
  5  6  2  0
  6  7  1  0
  7  8  1  0
  8  9  2  0
  9 10  1  0
 10 11  2  0
 11 12  1  0
 12 13  2  0
 13 14  1  0
 11 15  1  0
 10 16  1  0
  9 17  1  0
  7 18  1  0
 18 19  1  0
 19 20  1  0
 20 21  2  0
 21 22  1  0
 22 23  1  0
 22 24  1  0
 22 25  1  0
 21 26  1  0
 26 27  2  0
 27 28  1  0
 28 29  2  0
 29 30  1  0
 30 31  1  0
 30 32  1  0
 30 33  1  0
 28 34  1  0
 27 35  1  0
 26 36  1  0
 19 37  1  0
 19 38  1  0
 18 39  2  0
  4 40  1  0
  4 41  1  0
  3 42  1  0
  3 43  1  0
  1 44  1  0
  1 45  1  0
  1 46  1  0
 39  5  1  0
 13  8  1  0
 29 20  1  0
M  END
>  <cnnaffinity>  (1) 
-6.63597

>  <filename>  (1) 
CSCCc1nc(Cc2c(C)cccc2C)n(-c2cccnc2)n1

$$$$
