
     RDKit          3D

 39 41  0  0  0  0  0  0  0  0999 V2000
    9.1738   -5.8313   24.8417 C   0  0  0  0  0  0  0  0  0  0  0  0
    8.4385   -6.1305   23.2148 S   0  0  0  0  0  0  0  0  0  0  0  0
    7.7058   -4.5146   22.8574 C   0  0  0  0  0  0  0  0  0  0  0  0
    8.6953   -3.5554   22.1783 C   0  0  0  0  0  0  0  0  0  0  0  0
    8.1864   -2.1779   21.9558 C   0  0  0  0  0  0  0  0  0  0  0  0
    7.7408   -1.8303   20.7711 N   0  0  0  0  0  0  0  0  0  0  0  0
    7.3317   -0.5557   20.9572 N   0  0  0  0  0  0  0  0  0  0  0  0
    6.6345    0.0887   19.9063 C   0  0  0  0  0  0  0  0  0  0  0  0
    5.4003    0.7044   20.1284 C   0  0  0  0  0  0  0  0  0  0  0  0
    4.7797    1.3255   19.0428 C   0  0  0  0  0  0  0  0  0  0  0  0
    5.4098    1.2936   17.7949 C   0  0  0  0  0  0  0  0  0  0  0  0
    6.5601    0.6305   17.5636 N   0  0  0  0  0  0  0  0  0  0  0  0
    7.1484    0.0272   18.5998 C   0  0  0  0  0  0  0  0  0  0  0  0
    8.0663   -0.5303   18.4046 H   0  0  0  0  0  0  0  0  0  0  0  0
    4.9871    1.8281   16.9484 H   0  0  0  0  0  0  0  0  0  0  0  0
    3.8460    1.8612   19.1706 H   0  0  0  0  0  0  0  0  0  0  0  0
    4.9404    0.6674   21.1170 H   0  0  0  0  0  0  0  0  0  0  0  0
    7.6007   -0.1809   22.2433 C   0  0  0  0  0  0  0  0  0  0  0  0
    7.3676    1.1766   22.8573 C   0  0  0  0  0  0  0  0  0  0  0  0
    8.6285    1.7374   23.5111 C   0  0  0  0  0  0  0  0  0  0  0  0
    8.8939    1.6750   24.8864 C   0  0  0  0  0  0  0  0  0  0  0  0
   10.0550    2.0246   25.4520 N   0  0  0  0  0  0  0  0  0  0  0  0
   11.0222    2.4728   24.6499 C   0  0  0  0  0  0  0  0  0  0  0  0
   10.8917    2.6221   23.2788 C   0  0  0  0  0  0  0  0  0  0  0  0
    9.6827    2.2150   22.7262 C   0  0  0  0  0  0  0  0  0  0  0  0
    9.5421    2.2101   21.0163 Cl  0  0  0  0  0  0  0  0  0  0  0  0
   11.7019    2.9986   22.6647 H   0  0  0  0  0  0  0  0  0  0  0  0
   11.9669    2.7122   25.1245 H   0  0  0  0  0  0  0  0  0  0  0  0
    8.1370    1.2964   25.5688 H   0  0  0  0  0  0  0  0  0  0  0  0
    7.0337    1.8735   22.0821 H   0  0  0  0  0  0  0  0  0  0  0  0
    6.5495    1.0865   23.5801 H   0  0  0  0  0  0  0  0  0  0  0  0
    8.1350   -1.2011   22.8959 N   0  0  0  0  0  0  0  0  0  0  0  0
    9.6328   -3.4895   22.7384 H   0  0  0  0  0  0  0  0  0  0  0  0
    8.8974   -3.9392   21.1815 H   0  0  0  0  0  0  0  0  0  0  0  0
    6.8506   -4.7185   22.2011 H   0  0  0  0  0  0  0  0  0  0  0  0
    7.2986   -4.0886   23.7811 H   0  0  0  0  0  0  0  0  0  0  0  0
    9.6396   -6.7692   25.1543 H   0  0  0  0  0  0  0  0  0  0  0  0
    8.4160   -5.5598   25.5837 H   0  0  0  0  0  0  0  0  0  0  0  0
    9.9442   -5.0546   24.8108 H   0  0  0  0  0  0  0  0  0  0  0  0
  1  2  1  0
  2  3  1  0
  3  4  1  0
  4  5  1  0
  5  6  2  0
  6  7  1  0
  7  8  1  0
  8  9  2  0
  9 10  1  0
 10 11  2  0
 11 12  1  0
 12 13  2  0
 13 14  1  0
 11 15  1  0
 10 16  1  0
  9 17  1  0
  7 18  1  0
 18 19  1  0
 19 20  1  0
 20 21  2  0
 21 22  1  0
 22 23  2  0
 23 24  1  0
 24 25  2  0
 25 26  1  0
 24 27  1  0
 23 28  1  0
 21 29  1  0
 19 30  1  0
 19 31  1  0
 18 32  2  0
  4 33  1  0
  4 34  1  0
  3 35  1  0
  3 36  1  0
  1 37  1  0
  1 38  1  0
  1 39  1  0
 32  5  1  0
 13  8  1  0
 25 20  1  0
M  END
>  <cnnaffinity>  (1) 
-5.74929

>  <filename>  (1) 
CSCCc1nc(Cc2cnccc2Cl)n(-c2cccnc2)n1

$$$$
