
     RDKit          3D

 28 29  0  0  0  0  0  0  0  0999 V2000
    4.9286    1.7901   16.9881 H   0  0  0  0  0  0  0  0  0  0  0  0
    5.4017    1.2974   17.8340 C   0  0  0  0  0  0  0  0  0  0  0  0
    6.5634    0.6790   17.5763 N   0  0  0  0  0  0  0  0  0  0  0  0
    7.1597    0.0501   18.5963 C   0  0  0  0  0  0  0  0  0  0  0  0
    8.1089   -0.4289   18.3694 H   0  0  0  0  0  0  0  0  0  0  0  0
    6.6300   -0.0142   19.8951 C   0  0  0  0  0  0  0  0  0  0  0  0
    7.4024   -0.6694   21.0154 C   0  0  1  0  0  0  0  0  0  0  0  0
    6.7058   -0.9941   21.8044 H   0  0  0  0  0  0  0  0  0  0  0  0
    8.0243   -1.8198   20.5402 F   0  0  0  0  0  0  0  0  0  0  0  0
    8.4296    0.2711   21.6230 C   0  0  0  0  0  0  0  0  0  0  0  0
    9.7093    0.3793   21.0704 C   0  0  0  0  0  0  0  0  0  0  0  0
    9.9867   -0.2693   20.2397 H   0  0  0  0  0  0  0  0  0  0  0  0
   10.6156    1.3015   21.6029 C   0  0  0  0  0  0  0  0  0  0  0  0
   11.6152    1.3644   21.1871 H   0  0  0  0  0  0  0  0  0  0  0  0
   10.2502    2.1186   22.6755 C   0  0  0  0  0  0  0  0  0  0  0  0
   10.9464    2.8286   23.1143 H   0  0  0  0  0  0  0  0  0  0  0  0
    8.9597    2.0184   23.1995 C   0  0  0  0  0  0  0  0  0  0  0  0
    8.6921    2.8778   24.2615 O   0  0  0  0  0  0  0  0  0  0  0  0
    7.4860    2.9158   24.8676 C   0  0  0  0  0  0  0  0  0  0  0  0
    7.1309    1.7488   25.4334 F   0  0  0  0  0  0  0  0  0  0  0  0
    6.4756    3.2436   24.0417 F   0  0  0  0  0  0  0  0  0  0  0  0
    7.5797    3.8382   25.8151 F   0  0  0  0  0  0  0  0  0  0  0  0
    8.0390    1.1098   22.6830 C   0  0  0  0  0  0  0  0  0  0  0  0
    7.0355    1.0719   23.1024 H   0  0  0  0  0  0  0  0  0  0  0  0
    5.4235    0.6476   20.1519 C   0  0  0  0  0  0  0  0  0  0  0  0
    4.9902    0.6492   21.1572 H   0  0  0  0  0  0  0  0  0  0  0  0
    4.7992    1.3152   19.0985 C   0  0  0  0  0  0  0  0  0  0  0  0
    3.8690    1.8493   19.2462 H   0  0  0  0  0  0  0  0  0  0  0  0
  1  2  1  0
  2  3  2  0
  3  4  1  0
  4  5  1  0
  4  6  2  0
  6  7  1  0
  7  8  1  1
  7  9  1  0
  7 10  1  0
 10 11  2  0
 11 12  1  0
 11 13  1  0
 13 14  1  0
 13 15  2  0
 15 16  1  0
 15 17  1  0
 17 18  1  0
 18 19  1  0
 19 20  1  0
 19 21  1  0
 19 22  1  0
 17 23  2  0
 23 24  1  0
  6 25  1  0
 25 26  1  0
 25 27  2  0
 27 28  1  0
 27  2  1  0
 23 10  1  0
M  END
>  <cnnaffinity>  (1) 
-4.67981

>  <filename>  (1) 
F[C@H](c1cccnc1)c1cccc(OC(F)(F)F)c1

$$$$
