
     RDKit          3D

 28 30  0  0  0  0  0  0  0  0999 V2000
    5.7447   -1.4170   21.9144 H   0  0  0  0  0  0  0  0  0  0  0  0
    6.8238   -1.3511   21.9511 C   0  0  0  0  0  0  0  0  0  0  0  0
    7.3878   -0.6877   20.9409 C   0  0  0  0  0  0  0  0  0  0  0  0
    8.7286   -0.7021   20.7758 F   0  0  0  0  0  0  0  0  0  0  0  0
    6.6743    0.0387   19.8933 C   0  0  0  0  0  0  0  0  0  0  0  0
    7.1898    0.0806   18.5860 C   0  0  0  0  0  0  0  0  0  0  0  0
    8.1266   -0.4240   18.3647 H   0  0  0  0  0  0  0  0  0  0  0  0
    6.5666    0.6745   17.5676 N   0  0  0  0  0  0  0  0  0  0  0  0
    5.4039    1.2904   17.8381 C   0  0  0  0  0  0  0  0  0  0  0  0
    4.9176    1.7781   16.9984 H   0  0  0  0  0  0  0  0  0  0  0  0
    4.8057    1.3103   19.1053 C   0  0  0  0  0  0  0  0  0  0  0  0
    3.8725    1.8422   19.2593 H   0  0  0  0  0  0  0  0  0  0  0  0
    5.4398    0.6537   20.1538 C   0  0  0  0  0  0  0  0  0  0  0  0
    5.0136    0.6391   21.1619 H   0  0  0  0  0  0  0  0  0  0  0  0
    7.5166   -2.0285   23.0324 C   0  0  0  0  0  0  0  0  0  0  0  0
    8.7093   -1.6453   23.5530 C   0  0  0  0  0  0  0  0  0  0  0  0
    9.2839   -0.7812   23.2508 H   0  0  0  0  0  0  0  0  0  0  0  0
    9.2536   -2.6402   24.8468 S   0  0  0  0  0  0  0  0  0  0  0  0
    7.8393   -3.6561   24.7049 C   0  0  0  0  0  0  0  0  0  0  0  0
    7.5099   -4.7888   25.4643 C   0  0  0  0  0  0  0  0  0  0  0  0
    8.1711   -5.1271   26.2568 H   0  0  0  0  0  0  0  0  0  0  0  0
    6.3224   -5.4633   25.1820 C   0  0  0  0  0  0  0  0  0  0  0  0
    6.0516   -6.3406   25.7665 H   0  0  0  0  0  0  0  0  0  0  0  0
    5.4611   -5.0266   24.1484 C   0  0  0  0  0  0  0  0  0  0  0  0
    4.5385   -5.5642   23.9409 H   0  0  0  0  0  0  0  0  0  0  0  0
    5.7853   -3.9057   23.3946 C   0  0  0  0  0  0  0  0  0  0  0  0
    5.1336   -3.5655   22.5878 H   0  0  0  0  0  0  0  0  0  0  0  0
    6.9796   -3.2077   23.6792 C   0  0  0  0  0  0  0  0  0  0  0  0
  1  2  1  0
  2  3  2  3
  3  4  1  0
  3  5  1  0
  5  6  2  0
  6  7  1  0
  6  8  1  0
  8  9  2  0
  9 10  1  0
  9 11  1  0
 11 12  1  0
 11 13  2  0
 13 14  1  0
  2 15  1  0
 15 16  2  0
 16 17  1  0
 16 18  1  0
 18 19  1  0
 19 20  2  0
 20 21  1  0
 20 22  1  0
 22 23  1  0
 22 24  2  0
 24 25  1  0
 24 26  1  0
 26 27  1  0
 26 28  2  0
 13  5  1  0
 28 15  1  0
 28 19  1  0
M  END
>  <cnnaffinity>  (1) 
-4.96396

>  <filename>  (1) 
FC(=Cc1csc2ccccc12)c1cccnc1

$$$$
