
     RDKit          3D

 25 26  0  0  0  0  0  0  0  0999 V2000
    6.8062    0.5393   22.5034 H   0  0  0  0  0  0  0  0  0  0  0  0
    7.3457   -0.3676   22.2516 C   0  0  0  0  0  0  0  0  0  0  0  0
    7.3786   -0.6926   20.9664 C   0  0  0  0  0  0  0  0  0  0  0  0
    8.1432   -1.7233   20.5412 F   0  0  0  0  0  0  0  0  0  0  0  0
    6.6513   -0.0112   19.8887 C   0  0  0  0  0  0  0  0  0  0  0  0
    7.1731    0.0439   18.5854 C   0  0  0  0  0  0  0  0  0  0  0  0
    8.1262   -0.4315   18.3665 H   0  0  0  0  0  0  0  0  0  0  0  0
    6.5715    0.6776   17.5737 N   0  0  0  0  0  0  0  0  0  0  0  0
    5.4057    1.2911   17.8397 C   0  0  0  0  0  0  0  0  0  0  0  0
    4.9186    1.7787   16.9998 H   0  0  0  0  0  0  0  0  0  0  0  0
    4.8061    1.3088   19.1055 C   0  0  0  0  0  0  0  0  0  0  0  0
    3.8749    1.8440   19.2612 H   0  0  0  0  0  0  0  0  0  0  0  0
    5.4423    0.6522   20.1535 C   0  0  0  0  0  0  0  0  0  0  0  0
    5.0065    0.6275   21.1568 H   0  0  0  0  0  0  0  0  0  0  0  0
    8.1479   -1.0903   23.3038 C   0  0  0  0  0  0  0  0  0  0  0  0
    7.9821   -2.1678   23.2044 H   0  0  0  0  0  0  0  0  0  0  0  0
    7.7743   -0.7863   24.2869 H   0  0  0  0  0  0  0  0  0  0  0  0
    9.6224   -0.7695   23.1974 C   0  0  0  0  0  0  0  0  0  0  0  0
   10.7872   -1.8580   22.5330 S   0  0  0  0  0  0  0  0  0  0  0  0
   12.0536   -0.7131   22.7412 C   0  0  0  0  0  0  0  0  0  0  0  0
   13.0681   -0.9767   22.4819 H   0  0  0  0  0  0  0  0  0  0  0  0
   11.6076    0.4517   23.2882 C   0  0  0  0  0  0  0  0  0  0  0  0
   12.2423    1.3084   23.5061 H   0  0  0  0  0  0  0  0  0  0  0  0
   10.2048    0.4199   23.5377 C   0  0  0  0  0  0  0  0  0  0  0  0
    9.6396    1.2593   23.9369 H   0  0  0  0  0  0  0  0  0  0  0  0
  1  2  1  0
  2  3  2  3
  3  4  1  0
  3  5  1  0
  5  6  2  0
  6  7  1  0
  6  8  1  0
  8  9  2  0
  9 10  1  0
  9 11  1  0
 11 12  1  0
 11 13  2  0
 13 14  1  0
  2 15  1  0
 15 16  1  0
 15 17  1  0
 15 18  1  0
 18 19  1  0
 19 20  1  0
 20 21  1  0
 20 22  2  0
 22 23  1  0
 22 24  1  0
 24 25  1  0
 13  5  1  0
 24 18  2  0
M  END
>  <cnnaffinity>  (1) 
-5.04287

>  <filename>  (1) 
FC(=CCc1cccs1)c1cccnc1

$$$$
