
     RDKit          3D

 30 32  0  0  0  0  0  0  0  0999 V2000
    6.6501    0.3973   22.5313 H   0  0  0  0  0  0  0  0  0  0  0  0
    7.3628   -0.3684   22.2435 C   0  0  0  0  0  0  0  0  0  0  0  0
    7.4099   -0.6382   20.9299 C   0  0  0  0  0  0  0  0  0  0  0  0
    8.2201   -1.6194   20.4618 F   0  0  0  0  0  0  0  0  0  0  0  0
    6.6399    0.0216   19.8532 C   0  0  0  0  0  0  0  0  0  0  0  0
    7.1421    0.0413   18.5339 C   0  0  0  0  0  0  0  0  0  0  0  0
    8.0788   -0.4657   18.3120 H   0  0  0  0  0  0  0  0  0  0  0  0
    6.5452    0.6741   17.5192 N   0  0  0  0  0  0  0  0  0  0  0  0
    5.3938    1.3149   17.7804 C   0  0  0  0  0  0  0  0  0  0  0  0
    4.9450    1.8459   16.9451 H   0  0  0  0  0  0  0  0  0  0  0  0
    4.7841    1.3327   19.0399 C   0  0  0  0  0  0  0  0  0  0  0  0
    3.8522    1.8727   19.1824 H   0  0  0  0  0  0  0  0  0  0  0  0
    5.4207    0.6802   20.0950 C   0  0  0  0  0  0  0  0  0  0  0  0
    4.9725    0.6692   21.0899 H   0  0  0  0  0  0  0  0  0  0  0  0
    8.1198   -1.0137   23.3281 C   0  0  0  0  0  0  0  0  0  0  0  0
    9.3714   -1.5797   23.1043 C   0  0  0  0  0  0  0  0  0  0  0  0
    9.8616   -1.4212   22.1474 H   0  0  0  0  0  0  0  0  0  0  0  0
   10.0168   -2.3541   24.0959 C   0  0  0  0  0  0  0  0  0  0  0  0
   10.9775   -2.8109   23.8679 H   0  0  0  0  0  0  0  0  0  0  0  0
    9.4427   -2.5532   25.3312 C   0  0  0  0  0  0  0  0  0  0  0  0
    9.9264   -3.2153   26.0518 H   0  0  0  0  0  0  0  0  0  0  0  0
    8.2015   -1.9165   25.6458 C   0  0  0  0  0  0  0  0  0  0  0  0
    7.5674   -2.0339   26.9164 C   0  0  0  0  0  0  0  0  0  0  0  0
    8.0853   -2.5623   27.7121 H   0  0  0  0  0  0  0  0  0  0  0  0
    6.3161   -1.4968   27.0986 C   0  0  0  0  0  0  0  0  0  0  0  0
    5.7748   -1.5966   28.0349 H   0  0  0  0  0  0  0  0  0  0  0  0
    5.7064   -0.8041   26.0200 C   0  0  0  0  0  0  0  0  0  0  0  0
    4.6903   -0.4304   26.1313 H   0  0  0  0  0  0  0  0  0  0  0  0
    6.2844   -0.5949   24.8590 N   0  0  0  0  0  0  0  0  0  0  0  0
    7.5174   -1.1456   24.6407 C   0  0  0  0  0  0  0  0  0  0  0  0
  1  2  1  0
  2  3  2  3
  3  4  1  0
  3  5  1  0
  5  6  2  0
  6  7  1  0
  6  8  1  0
  8  9  2  0
  9 10  1  0
  9 11  1  0
 11 12  1  0
 11 13  2  0
 13 14  1  0
  2 15  1  0
 15 16  2  0
 16 17  1  0
 16 18  1  0
 18 19  1  0
 18 20  2  0
 20 21  1  0
 20 22  1  0
 22 23  2  0
 23 24  1  0
 23 25  1  0
 25 26  1  0
 25 27  2  0
 27 28  1  0
 27 29  1  0
 29 30  2  0
 13  5  1  0
 30 15  1  0
 30 22  1  0
M  END
>  <cnnaffinity>  (1) 
-5.06071

>  <filename>  (1) 
FC(=Cc1cccc2cccnc12)c1cccnc1

$$$$
