
     RDKit          3D

 27 28  0  0  0  0  0  0  0  0999 V2000
    4.9540    1.8101   16.9828 H   0  0  0  0  0  0  0  0  0  0  0  0
    5.4058    1.2796   17.8178 C   0  0  0  0  0  0  0  0  0  0  0  0
    6.5561    0.6389   17.5631 N   0  0  0  0  0  0  0  0  0  0  0  0
    7.1497    0.0147   18.5874 C   0  0  0  0  0  0  0  0  0  0  0  0
    8.0984   -0.4704   18.3554 H   0  0  0  0  0  0  0  0  0  0  0  0
    6.6514   -0.0085   19.8985 C   0  0  0  0  0  0  0  0  0  0  0  0
    7.4071   -0.7703   20.9632 C   0  0  0  0  0  0  0  0  0  0  0  0
    6.9593   -2.1710   20.8531 N   0  0  0  0  0  0  0  0  0  0  0  0
    7.1309   -2.5013   19.9077 H   0  0  0  0  0  0  0  0  0  0  0  0
    7.3616   -3.3824   22.0126 S   0  0  0  0  0  0  0  0  0  0  0  0
    5.7527   -4.1444   22.6214 C   0  0  0  0  0  0  0  0  0  0  0  0
    6.0834   -5.0007   23.5875 F   0  0  0  0  0  0  0  0  0  0  0  0
    4.9099   -3.2453   23.1096 F   0  0  0  0  0  0  0  0  0  0  0  0
    5.1489   -4.8023   21.6352 F   0  0  0  0  0  0  0  0  0  0  0  0
    7.3638   -0.1456   22.3818 C   0  0  0  0  0  0  0  0  0  0  0  0
    6.9308    0.8570   22.3710 H   0  0  0  0  0  0  0  0  0  0  0  0
    6.8473   -0.7622   23.1203 H   0  0  0  0  0  0  0  0  0  0  0  0
    8.9088   -0.1063   22.4405 C   0  0  0  0  0  0  0  0  0  0  0  0
    9.3458   -0.7978   23.1658 H   0  0  0  0  0  0  0  0  0  0  0  0
    9.3460    0.8827   22.6173 H   0  0  0  0  0  0  0  0  0  0  0  0
    8.9671   -0.6096   20.9799 C   0  0  0  0  0  0  0  0  0  0  0  0
    9.4868   -1.5626   20.8463 H   0  0  0  0  0  0  0  0  0  0  0  0
    9.3601    0.1088   20.2567 H   0  0  0  0  0  0  0  0  0  0  0  0
    5.4257    0.6409   20.1320 C   0  0  0  0  0  0  0  0  0  0  0  0
    4.9747    0.6332   21.1271 H   0  0  0  0  0  0  0  0  0  0  0  0
    4.7962    1.2987   19.0772 C   0  0  0  0  0  0  0  0  0  0  0  0
    3.8709    1.8498   19.2242 H   0  0  0  0  0  0  0  0  0  0  0  0
  1  2  1  0
  2  3  2  0
  3  4  1  0
  4  5  1  0
  4  6  2  0
  6  7  1  0
  7  8  1  0
  8  9  1  0
  8 10  1  0
 10 11  1  0
 11 12  1  0
 11 13  1  0
 11 14  1  0
  7 15  1  0
 15 16  1  0
 15 17  1  0
 15 18  1  0
 18 19  1  0
 18 20  1  0
 18 21  1  0
 21 22  1  0
 21 23  1  0
  6 24  1  0
 24 25  1  0
 24 26  2  0
 26 27  1  0
 26  2  1  0
 21  7  1  0
M  END
>  <cnnaffinity>  (1) 
-4.92222

>  <filename>  (1) 
FC(F)(F)SNC1(c2cccnc2)CCC1

$$$$
