
     RDKit          3D

 34 36  0  0  0  0  0  0  0  0999 V2000
    4.9779    1.7790   16.9874 H   0  0  0  0  0  0  0  0  0  0  0  0
    5.4233    1.3031   17.8591 C   0  0  0  0  0  0  0  0  0  0  0  0
    6.5731    0.6470   17.6384 N   0  0  0  0  0  0  0  0  0  0  0  0
    7.1483    0.0526   18.6827 C   0  0  0  0  0  0  0  0  0  0  0  0
    8.0608   -0.5083   18.4869 H   0  0  0  0  0  0  0  0  0  0  0  0
    6.6469    0.1068   19.9915 C   0  0  0  0  0  0  0  0  0  0  0  0
    7.4252   -0.6101   21.0103 C   0  0  0  0  0  0  0  0  0  0  0  0
    7.9760   -1.7851   20.8308 N   0  0  0  0  0  0  0  0  0  0  0  0
    8.5941   -2.1515   21.9972 N   0  0  0  0  0  0  0  0  0  0  0  0
    8.4254   -1.1699   22.8369 C   0  0  0  0  0  0  0  0  0  0  0  0
    8.7684   -1.1386   23.8627 H   0  0  0  0  0  0  0  0  0  0  0  0
    7.7089   -0.1501   22.2714 N   0  0  0  0  0  0  0  0  0  0  0  0
    7.3717    1.1063   22.9213 C   0  0  0  0  0  0  0  0  0  0  0  0
    8.2624    1.4772   23.4453 H   0  0  0  0  0  0  0  0  0  0  0  0
    7.1245    1.8436   22.1507 H   0  0  0  0  0  0  0  0  0  0  0  0
    6.2284    1.0507   23.9288 C   0  0  0  0  0  0  0  0  0  0  0  0
    5.7780   -0.1359   24.5271 C   0  0  0  0  0  0  0  0  0  0  0  0
    6.2603   -1.0779   24.2999 H   0  0  0  0  0  0  0  0  0  0  0  0
    4.6738   -0.1400   25.3831 C   0  0  0  0  0  0  0  0  0  0  0  0
    4.2980   -1.0737   25.7973 H   0  0  0  0  0  0  0  0  0  0  0  0
    4.0094    1.0496   25.6792 C   0  0  0  0  0  0  0  0  0  0  0  0
    3.0858    1.0395   26.2418 H   0  0  0  0  0  0  0  0  0  0  0  0
    4.5519    2.2426   25.2003 C   0  0  0  0  0  0  0  0  0  0  0  0
    4.0639    3.4984   25.5360 O   0  0  0  0  0  0  0  0  0  0  0  0
    3.0370    3.6756   26.3916 C   0  0  0  0  0  0  0  0  0  0  0  0
    1.8663    3.2503   25.8876 F   0  0  0  0  0  0  0  0  0  0  0  0
    2.9554    4.9784   26.6248 F   0  0  0  0  0  0  0  0  0  0  0  0
    3.1948    3.0481   27.5700 F   0  0  0  0  0  0  0  0  0  0  0  0
    5.6444    2.2589   24.3302 C   0  0  0  0  0  0  0  0  0  0  0  0
    6.0326    3.2180   23.9925 H   0  0  0  0  0  0  0  0  0  0  0  0
    5.4329    0.7778   20.2076 C   0  0  0  0  0  0  0  0  0  0  0  0
    4.9934    0.8119   21.2069 H   0  0  0  0  0  0  0  0  0  0  0  0
    4.8039    1.3776   19.1122 C   0  0  0  0  0  0  0  0  0  0  0  0
    3.8621    1.9069   19.2154 H   0  0  0  0  0  0  0  0  0  0  0  0
  1  2  1  0
  2  3  2  0
  3  4  1  0
  4  5  1  0
  4  6  2  0
  6  7  1  0
  7  8  2  0
  8  9  1  0
  9 10  2  0
 10 11  1  0
 10 12  1  0
 12 13  1  0
 13 14  1  0
 13 15  1  0
 13 16  1  0
 16 17  2  0
 17 18  1  0
 17 19  1  0
 19 20  1  0
 19 21  2  0
 21 22  1  0
 21 23  1  0
 23 24  1  0
 24 25  1  0
 25 26  1  0
 25 27  1  0
 25 28  1  0
 23 29  2  0
 29 30  1  0
  6 31  1  0
 31 32  1  0
 31 33  2  0
 33 34  1  0
 33  2  1  0
 12  7  1  0
 29 16  1  0
M  END
>  <cnnaffinity>  (1) 
-4.96643

>  <filename>  (1) 
FC(F)(F)Oc1cccc(Cn2cnnc2-c2cccnc2)c1

$$$$
