
     RDKit          3D

 37 39  0  0  0  0  0  0  0  0999 V2000
    7.2132   -4.7713   28.8308 F   0  0  0  0  0  0  0  0  0  0  0  0
    7.7343   -5.3124   27.7214 C   0  0  0  0  0  0  0  0  0  0  0  0
    8.9090   -5.8606   28.0686 F   0  0  0  0  0  0  0  0  0  0  0  0
    6.9234   -6.3250   27.3510 F   0  0  0  0  0  0  0  0  0  0  0  0
    7.9266   -4.3396   26.6186 C   0  0  0  0  0  0  0  0  0  0  0  0
    7.5269   -2.9950   26.6658 C   0  0  0  0  0  0  0  0  0  0  0  0
    7.6559   -2.2635   25.5028 C   0  0  0  0  0  0  0  0  0  0  0  0
    8.1872   -2.8826   24.3600 C   0  0  0  0  0  0  0  0  0  0  0  0
    8.2862   -2.1781   23.1838 N   0  0  0  0  0  0  0  0  0  0  0  0
    8.5895   -0.7476   23.1119 C   0  0  0  0  0  0  0  0  0  0  0  0
    7.5523    0.0321   22.2792 C   0  0  0  0  0  0  0  0  0  0  0  0
    7.3528   -0.5954   20.9663 N   0  0  0  0  0  0  0  0  0  0  0  0
    6.6861    0.0615   19.9220 C   0  0  0  0  0  0  0  0  0  0  0  0
    5.4618    0.7155   20.1534 C   0  0  0  0  0  0  0  0  0  0  0  0
    4.8084    1.3367   19.0853 C   0  0  0  0  0  0  0  0  0  0  0  0
    5.3960    1.3053   17.8162 C   0  0  0  0  0  0  0  0  0  0  0  0
    6.5537    0.6753   17.5571 N   0  0  0  0  0  0  0  0  0  0  0  0
    7.1685    0.0673   18.5822 C   0  0  0  0  0  0  0  0  0  0  0  0
    8.1015   -0.4490   18.3468 H   0  0  0  0  0  0  0  0  0  0  0  0
    4.9248    1.8052   16.9752 H   0  0  0  0  0  0  0  0  0  0  0  0
    3.8631    1.8507   19.2299 H   0  0  0  0  0  0  0  0  0  0  0  0
    5.0334    0.6933   21.1554 H   0  0  0  0  0  0  0  0  0  0  0  0
    7.9238   -1.9177   20.7253 C   0  0  0  0  0  0  0  0  0  0  0  0
    7.8928   -2.8518   21.9483 C   0  0  0  0  0  0  0  0  0  0  0  0
    8.5692   -3.6946   21.7580 H   0  0  0  0  0  0  0  0  0  0  0  0
    6.8812   -3.2761   22.0552 H   0  0  0  0  0  0  0  0  0  0  0  0
    7.3116   -2.3817   19.9520 H   0  0  0  0  0  0  0  0  0  0  0  0
    8.9607   -1.8481   20.3561 H   0  0  0  0  0  0  0  0  0  0  0  0
    7.9107    1.0668   22.1686 H   0  0  0  0  0  0  0  0  0  0  0  0
    6.6057    0.0923   22.8336 H   0  0  0  0  0  0  0  0  0  0  0  0
    8.6695   -0.3221   24.1141 H   0  0  0  0  0  0  0  0  0  0  0  0
    9.5736   -0.5998   22.6435 H   0  0  0  0  0  0  0  0  0  0  0  0
    8.5984   -4.1598   24.3312 N   0  0  0  0  0  0  0  0  0  0  0  0
    8.5223   -4.8408   25.4646 C   0  0  0  0  0  0  0  0  0  0  0  0
    8.9307   -5.8517   25.4468 H   0  0  0  0  0  0  0  0  0  0  0  0
    7.3205   -1.2410   25.4039 H   0  0  0  0  0  0  0  0  0  0  0  0
    7.1331   -2.5336   27.5725 H   0  0  0  0  0  0  0  0  0  0  0  0
  1  2  1  0
  2  3  1  0
  2  4  1  0
  2  5  1  0
  5  6  2  0
  6  7  1  0
  7  8  2  0
  8  9  1  0
  9 10  1  0
 10 11  1  0
 11 12  1  0
 12 13  1  0
 13 14  2  0
 14 15  1  0
 15 16  2  0
 16 17  1  0
 17 18  2  0
 18 19  1  0
 16 20  1  0
 15 21  1  0
 14 22  1  0
 12 23  1  0
 23 24  1  0
 24 25  1  0
 24 26  1  0
 23 27  1  0
 23 28  1  0
 11 29  1  0
 11 30  1  0
 10 31  1  0
 10 32  1  0
  8 33  1  0
 33 34  2  0
 34 35  1  0
  7 36  1  0
  6 37  1  0
 34  5  1  0
 24  9  1  0
 18 13  1  0
M  END
>  <cnnaffinity>  (1) 
-4.78831

>  <filename>  (1) 
FC(F)(F)c1ccc(N2CCN(c3cccnc3)CC2)nc1

$$$$
