
     RDKit          3D

 43 46  0  0  0  0  0  0  0  0999 V2000
   13.9241    0.3042   23.3725 F   0  0  0  0  0  0  0  0  0  0  0  0
   13.0639    1.3036   23.6678 C   0  0  0  0  0  0  0  0  0  0  0  0
   12.7590    1.1679   24.9692 F   0  0  0  0  0  0  0  0  0  0  0  0
   13.7148    2.4661   23.5298 F   0  0  0  0  0  0  0  0  0  0  0  0
   11.8421    1.2454   22.7803 C   0  0  0  0  0  0  0  0  0  0  0  0
   10.9485    2.2359   22.7947 N   0  0  0  0  0  0  0  0  0  0  0  0
   10.0134    1.8473   21.9306 N   0  0  0  0  0  0  0  0  0  0  0  0
   10.2527    0.6357   21.3681 C   0  0  0  0  0  0  0  0  0  0  0  0
    9.3041   -0.0589   20.4336 C   0  0  0  0  0  0  0  0  0  0  0  0
    8.2760   -0.9268   21.1033 C   0  0  0  0  0  0  0  0  0  0  0  0
    8.5012   -1.7355   22.1160 N   0  0  0  0  0  0  0  0  0  0  0  0
    7.2683   -2.2184   22.4173 C   0  0  0  0  0  0  0  0  0  0  0  0
    7.0806   -3.1666   23.5629 C   0  0  0  0  0  0  0  0  0  0  0  0
    6.3950   -4.4951   23.1892 C   0  0  0  0  0  0  0  0  0  0  0  0
    5.9988   -5.1130   24.5396 C   0  0  0  0  0  0  0  0  0  0  0  0
    5.7982   -3.9254   25.5139 C   0  0  0  0  0  0  0  0  0  0  0  0
    6.2345   -2.6544   24.7528 C   0  0  0  0  0  0  0  0  0  0  0  0
    5.3514   -2.1240   24.3829 H   0  0  0  0  0  0  0  0  0  0  0  0
    6.7949   -1.9565   25.3864 H   0  0  0  0  0  0  0  0  0  0  0  0
    6.3981   -4.0711   26.4202 H   0  0  0  0  0  0  0  0  0  0  0  0
    4.7556   -3.8378   25.8382 H   0  0  0  0  0  0  0  0  0  0  0  0
    6.7935   -5.7703   24.9148 H   0  0  0  0  0  0  0  0  0  0  0  0
    5.1002   -5.7319   24.4457 H   0  0  0  0  0  0  0  0  0  0  0  0
    5.5021   -4.2796   22.5855 H   0  0  0  0  0  0  0  0  0  0  0  0
    7.0511   -5.1459   22.5982 H   0  0  0  0  0  0  0  0  0  0  0  0
    8.0965   -3.3696   23.9275 H   0  0  0  0  0  0  0  0  0  0  0  0
    6.3007   -1.7934   21.6192 N   0  0  0  0  0  0  0  0  0  0  0  0
    6.9615   -1.0017   20.7354 N   0  0  0  0  0  0  0  0  0  0  0  0
    6.2809   -0.3115   19.6970 C   0  0  0  0  0  0  0  0  0  0  0  0
    5.1683    0.4828   19.9862 C   0  0  0  0  0  0  0  0  0  0  0  0
    4.6773    1.3222   18.9801 C   0  0  0  0  0  0  0  0  0  0  0  0
    5.2870    1.3093   17.7192 C   0  0  0  0  0  0  0  0  0  0  0  0
    6.2983    0.4835   17.4124 N   0  0  0  0  0  0  0  0  0  0  0  0
    6.7629   -0.3235   18.3738 C   0  0  0  0  0  0  0  0  0  0  0  0
    7.5681   -0.9985   18.0893 H   0  0  0  0  0  0  0  0  0  0  0  0
    4.9455    1.9772   16.9280 H   0  0  0  0  0  0  0  0  0  0  0  0
    3.8468    1.9926   19.1673 H   0  0  0  0  0  0  0  0  0  0  0  0
    4.7263    0.4525   20.9798 H   0  0  0  0  0  0  0  0  0  0  0  0
    8.7998    0.6768   19.7986 H   0  0  0  0  0  0  0  0  0  0  0  0
    9.8867   -0.7255   19.7933 H   0  0  0  0  0  0  0  0  0  0  0  0
   11.4530    0.2155   21.8891 C   0  0  0  0  0  0  0  0  0  0  0  0
   11.9728   -0.7042   21.6459 H   0  0  0  0  0  0  0  0  0  0  0  0
    9.2151    2.4488   21.7858 H   0  0  0  0  0  0  0  0  0  0  0  0
  1  2  1  0
  2  3  1  0
  2  4  1  0
  2  5  1  0
  5  6  2  0
  6  7  1  0
  7  8  1  0
  8  9  1  0
  9 10  1  0
 10 11  2  0
 11 12  1  0
 12 13  1  0
 13 14  1  0
 14 15  1  0
 15 16  1  0
 16 17  1  0
 17 18  1  0
 17 19  1  0
 16 20  1  0
 16 21  1  0
 15 22  1  0
 15 23  1  0
 14 24  1  0
 14 25  1  0
 13 26  1  0
 12 27  2  0
 27 28  1  0
 28 29  1  0
 29 30  2  0
 30 31  1  0
 31 32  2  0
 32 33  1  0
 33 34  2  0
 34 35  1  0
 32 36  1  0
 31 37  1  0
 30 38  1  0
  9 39  1  0
  9 40  1  0
  8 41  2  0
 41 42  1  0
  7 43  1  0
 41  5  1  0
 28 10  1  0
 34 29  1  0
 17 13  1  0
M  END
>  <cnnaffinity>  (1) 
-6.63083

>  <filename>  (1) 
FC(F)(F)c1cc(Cc2nc(C3CCCC3)nn2-c2cccnc2)[nH]n1

$$$$
