
     RDKit          3D

 39 41  0  0  0  0  0  0  0  0999 V2000
    5.0663    1.7763   16.9564 H   0  0  0  0  0  0  0  0  0  0  0  0
    5.5113    1.2903   17.8210 C   0  0  0  0  0  0  0  0  0  0  0  0
    6.6649    0.6485   17.6075 N   0  0  0  0  0  0  0  0  0  0  0  0
    7.2282    0.0309   18.6610 C   0  0  0  0  0  0  0  0  0  0  0  0
    8.1589   -0.4863   18.4398 H   0  0  0  0  0  0  0  0  0  0  0  0
    6.7007    0.0177   19.9675 C   0  0  0  0  0  0  0  0  0  0  0  0
    7.4034   -0.6721   21.1680 C   0  0  2  0  0  0  0  0  0  0  0  0
    6.4970   -1.7692   21.8184 C   0  0  0  0  0  0  0  0  0  0  0  0
    6.8052   -1.9727   22.8455 H   0  0  0  0  0  0  0  0  0  0  0  0
    5.5170   -1.3088   21.8564 H   0  0  0  0  0  0  0  0  0  0  0  0
    6.2983   -3.0512   21.0435 C   0  0  0  0  0  0  0  0  0  0  0  0
    5.6525   -2.9222   19.8097 C   0  0  0  0  0  0  0  0  0  0  0  0
    5.2513   -1.9612   19.5219 H   0  0  0  0  0  0  0  0  0  0  0  0
    5.4958   -3.9841   18.9436 C   0  0  0  0  0  0  0  0  0  0  0  0
    5.1201   -3.7412   17.9584 H   0  0  0  0  0  0  0  0  0  0  0  0
    5.8794   -5.2654   19.3416 C   0  0  0  0  0  0  0  0  0  0  0  0
    5.7336   -6.1202   18.6890 H   0  0  0  0  0  0  0  0  0  0  0  0
    6.4870   -5.4359   20.5829 C   0  0  0  0  0  0  0  0  0  0  0  0
    6.8041   -6.4262   20.8941 H   0  0  0  0  0  0  0  0  0  0  0  0
    6.7072   -4.3411   21.4404 C   0  0  0  0  0  0  0  0  0  0  0  0
    7.3687   -4.5678   22.7901 C   0  0  0  0  0  0  0  0  0  0  0  0
    6.5458   -4.2530   23.8116 F   0  0  0  0  0  0  0  0  0  0  0  0
    7.7522   -5.8436   22.9891 F   0  0  0  0  0  0  0  0  0  0  0  0
    8.4794   -3.8146   22.9544 F   0  0  0  0  0  0  0  0  0  0  0  0
    7.7828    0.3865   22.2552 C   0  0  0  0  0  0  0  0  0  0  0  0
    7.8532   -0.1317   23.2254 H   0  0  0  0  0  0  0  0  0  0  0  0
    7.0188    1.1683   22.3621 H   0  0  0  0  0  0  0  0  0  0  0  0
    9.0933    0.9454   21.8850 N   0  0  0  0  0  0  0  0  0  0  0  0
    9.6843    0.9646   22.7045 H   0  0  0  0  0  0  0  0  0  0  0  0
    9.6792    0.0724   20.8572 C   0  0  0  0  0  0  0  0  0  0  0  0
   10.7312   -0.1493   21.0671 H   0  0  0  0  0  0  0  0  0  0  0  0
    9.6358    0.5859   19.8885 H   0  0  0  0  0  0  0  0  0  0  0  0
    8.8167   -1.1882   20.8376 C   0  0  0  0  0  0  0  0  0  0  0  0
    9.1348   -1.8774   21.6275 H   0  0  0  0  0  0  0  0  0  0  0  0
    8.8686   -1.7297   19.8932 H   0  0  0  0  0  0  0  0  0  0  0  0
    5.4829    0.7005   20.1517 C   0  0  0  0  0  0  0  0  0  0  0  0
    5.0106    0.7425   21.1359 H   0  0  0  0  0  0  0  0  0  0  0  0
    4.8731    1.3359   19.0644 C   0  0  0  0  0  0  0  0  0  0  0  0
    3.9287    1.8590   19.1702 H   0  0  0  0  0  0  0  0  0  0  0  0
  1  2  1  0
  2  3  2  0
  3  4  1  0
  4  5  1  0
  4  6  2  0
  6  7  1  0
  7  8  1  1
  8  9  1  0
  8 10  1  0
  8 11  1  0
 11 12  2  0
 12 13  1  0
 12 14  1  0
 14 15  1  0
 14 16  2  0
 16 17  1  0
 16 18  1  0
 18 19  1  0
 18 20  2  0
 20 21  1  0
 21 22  1  0
 21 23  1  0
 21 24  1  0
  7 25  1  0
 25 26  1  0
 25 27  1  0
 25 28  1  0
 28 29  1  0
 28 30  1  0
 30 31  1  0
 30 32  1  0
 30 33  1  0
 33 34  1  0
 33 35  1  0
  6 36  1  0
 36 37  1  0
 36 38  2  0
 38 39  1  0
 38  2  1  0
 33  7  1  0
 20 11  1  0
M  END
>  <cnnaffinity>  (1) 
-5.25943

>  <filename>  (1) 
FC(F)(F)c1ccccc1C[C@]1(c2cccnc2)CCNC1

$$$$
