
     RDKit          3D

 27 29  0  0  0  0  0  0  0  0999 V2000
    4.9751    1.7846   16.9771 H   0  0  0  0  0  0  0  0  0  0  0  0
    5.4328    1.2844   17.8325 C   0  0  0  0  0  0  0  0  0  0  0  0
    6.5877    0.6467   17.5926 N   0  0  0  0  0  0  0  0  0  0  0  0
    7.1621    0.0135   18.6274 C   0  0  0  0  0  0  0  0  0  0  0  0
    8.1001   -0.5027   18.4243 H   0  0  0  0  0  0  0  0  0  0  0  0
    6.6455   -0.0231   19.9313 C   0  0  0  0  0  0  0  0  0  0  0  0
    7.4121   -0.7198   21.0322 C   0  0  0  0  0  0  0  0  0  0  0  0
    7.0886   -2.1700   21.2726 C   0  0  0  0  0  0  0  0  0  0  0  0
    7.9503   -3.1344   21.3266 N   0  0  0  0  0  0  0  0  0  0  0  0
    7.3760   -4.3478   21.6010 N   0  0  0  0  0  0  0  0  0  0  0  0
    6.1029   -4.2338   21.7826 C   0  0  0  0  0  0  0  0  0  0  0  0
    5.2683   -5.2143   22.1297 O   0  0  0  0  0  0  0  0  0  0  0  0
    5.6769   -6.5217   21.8394 C   0  0  0  0  0  0  0  0  0  0  0  0
    6.7566   -6.6164   21.7475 H   0  0  0  0  0  0  0  0  0  0  0  0
    5.2220   -7.2755   22.8405 F   0  0  0  0  0  0  0  0  0  0  0  0
    5.1013   -6.8951   20.6880 F   0  0  0  0  0  0  0  0  0  0  0  0
    5.4464   -2.6692   21.5730 S   0  0  0  0  0  0  0  0  0  0  0  0
    8.8386   -0.2880   21.3040 C   0  0  0  0  0  0  0  0  0  0  0  0
    9.2662    0.5009   20.6882 H   0  0  0  0  0  0  0  0  0  0  0  0
    9.5231   -1.0762   21.6064 H   0  0  0  0  0  0  0  0  0  0  0  0
    7.7681    0.0940   22.2690 C   0  0  0  0  0  0  0  0  0  0  0  0
    7.7309   -0.4246   23.2220 H   0  0  0  0  0  0  0  0  0  0  0  0
    7.4470    1.1352   22.2798 H   0  0  0  0  0  0  0  0  0  0  0  0
    5.4278    0.6376   20.1527 C   0  0  0  0  0  0  0  0  0  0  0  0
    4.9810    0.6343   21.1472 H   0  0  0  0  0  0  0  0  0  0  0  0
    4.8102    1.3034   19.0852 C   0  0  0  0  0  0  0  0  0  0  0  0
    3.8700    1.8298   19.2094 H   0  0  0  0  0  0  0  0  0  0  0  0
  1  2  1  0
  2  3  2  0
  3  4  1  0
  4  5  1  0
  4  6  2  0
  6  7  1  0
  7  8  1  0
  8  9  2  0
  9 10  1  0
 10 11  2  0
 11 12  1  0
 12 13  1  0
 13 14  1  0
 13 15  1  0
 13 16  1  0
 11 17  1  0
  7 18  1  0
 18 19  1  0
 18 20  1  0
 18 21  1  0
 21 22  1  0
 21 23  1  0
  6 24  1  0
 24 25  1  0
 24 26  2  0
 26 27  1  0
 26  2  1  0
 21  7  1  0
 17  8  1  0
M  END
>  <cnnaffinity>  (1) 
-4.45577

>  <filename>  (1) 
FC(F)Oc1nnc(C2(c3cccnc3)CC2)s1

$$$$
