
     RDKit          3D

 24 25  0  0  0  0  0  0  0  0999 V2000
    9.3488   -2.8425   22.1748 H   0  0  0  0  0  0  0  0  0  0  0  0
    8.6701   -2.0463   21.9095 C   0  0  0  0  0  0  0  0  0  0  0  0
    8.2635   -1.7182   20.7353 N   0  0  0  0  0  0  0  0  0  0  0  0
    7.3727   -0.6679   20.9598 C   0  0  0  0  0  0  0  0  0  0  0  0
    6.6436    0.0118   19.8989 C   0  0  0  0  0  0  0  0  0  0  0  0
    7.1669    0.0436   18.5891 C   0  0  0  0  0  0  0  0  0  0  0  0
    8.1162   -0.4347   18.3688 H   0  0  0  0  0  0  0  0  0  0  0  0
    6.5650    0.6683   17.5716 N   0  0  0  0  0  0  0  0  0  0  0  0
    5.4053    1.2889   17.8330 C   0  0  0  0  0  0  0  0  0  0  0  0
    4.9323    1.7865   16.9897 H   0  0  0  0  0  0  0  0  0  0  0  0
    4.8002    1.3094   19.0974 C   0  0  0  0  0  0  0  0  0  0  0  0
    3.8721    1.8440   19.2443 H   0  0  0  0  0  0  0  0  0  0  0  0
    5.4264    0.6617   20.1573 C   0  0  0  0  0  0  0  0  0  0  0  0
    5.0107    0.6500   21.1687 H   0  0  0  0  0  0  0  0  0  0  0  0
    7.3406   -0.4375   22.2971 C   0  0  0  0  0  0  0  0  0  0  0  0
    6.6250    0.4707   22.9627 O   0  0  0  0  0  0  0  0  0  0  0  0
    6.8113    0.7324   24.3469 C   0  0  0  0  0  0  0  0  0  0  0  0
    6.8583   -0.1807   24.9487 H   0  0  0  0  0  0  0  0  0  0  0  0
    5.9307    1.3092   24.6175 H   0  0  0  0  0  0  0  0  0  0  0  0
    8.0353    1.5919   24.6648 C   0  0  0  0  0  0  0  0  0  0  0  0
    8.0204    2.7660   24.0175 F   0  0  0  0  0  0  0  0  0  0  0  0
    8.0284    1.8680   25.9826 F   0  0  0  0  0  0  0  0  0  0  0  0
    9.1693    0.9501   24.3669 F   0  0  0  0  0  0  0  0  0  0  0  0
    8.1624   -1.2994   22.9328 O   0  0  0  0  0  0  0  0  0  0  0  0
  1  2  1  0
  2  3  2  0
  3  4  1  0
  4  5  1  0
  5  6  2  0
  6  7  1  0
  6  8  1  0
  8  9  2  0
  9 10  1  0
  9 11  1  0
 11 12  1  0
 11 13  2  0
 13 14  1  0
  4 15  2  0
 15 16  1  0
 16 17  1  0
 17 18  1  0
 17 19  1  0
 17 20  1  0
 20 21  1  0
 20 22  1  0
 20 23  1  0
 15 24  1  0
 24  2  1  0
 13  5  1  0
M  END
>  <cnnaffinity>  (1) 
-4.46683

>  <filename>  (1) 
FC(F)(F)COc1ocnc1-c1cccnc1

$$$$
