
     RDKit          3D

 34 37  0  0  0  0  0  0  0  0999 V2000
    5.0041    1.8431   16.9221 H   0  0  0  0  0  0  0  0  0  0  0  0
    5.4274    1.2879   17.7595 C   0  0  0  0  0  0  0  0  0  0  0  0
    6.5727    0.6301   17.5189 N   0  0  0  0  0  0  0  0  0  0  0  0
    7.1390   -0.0145   18.5445 C   0  0  0  0  0  0  0  0  0  0  0  0
    8.0709   -0.5342   18.3272 H   0  0  0  0  0  0  0  0  0  0  0  0
    6.6022   -0.0416   19.8457 C   0  0  0  0  0  0  0  0  0  0  0  0
    7.3436   -0.6669   20.9544 C   0  0  0  0  0  0  0  0  0  0  0  0
    8.4791   -1.3401   20.7160 N   0  0  0  0  0  0  0  0  0  0  0  0
    8.9000   -1.6593   21.9577 N   0  0  0  0  0  0  0  0  0  0  0  0
   10.0781   -2.1750   22.4902 C   0  0  0  0  0  0  0  0  0  0  0  0
   10.8418   -2.5564   21.8400 H   0  0  0  0  0  0  0  0  0  0  0  0
   10.0105   -1.9702   23.8269 C   0  0  0  0  0  0  0  0  0  0  0  0
   10.7422   -2.1731   24.5982 H   0  0  0  0  0  0  0  0  0  0  0  0
    8.7841   -1.3662   24.1428 N   0  0  0  0  0  0  0  0  0  0  0  0
    8.4114   -0.6680   25.3228 C   0  0  0  0  0  0  0  0  0  0  0  0
    9.1494    0.3982   25.6132 N   0  0  0  0  0  0  0  0  0  0  0  0
    8.7474    1.2004   26.5993 C   0  0  0  0  0  0  0  0  0  0  0  0
    9.3339    2.1051   26.7306 H   0  0  0  0  0  0  0  0  0  0  0  0
    7.6251    0.9439   27.3835 C   0  0  0  0  0  0  0  0  0  0  0  0
    7.3388    1.6618   28.1358 H   0  0  0  0  0  0  0  0  0  0  0  0
    6.8865   -0.2099   27.1416 C   0  0  0  0  0  0  0  0  0  0  0  0
    6.0015   -0.4278   27.7415 H   0  0  0  0  0  0  0  0  0  0  0  0
    7.2965   -1.0469   26.0950 C   0  0  0  0  0  0  0  0  0  0  0  0
    6.4713   -2.2175   25.6449 C   0  0  0  0  0  0  0  0  0  0  0  0
    7.1893   -3.2667   25.2291 F   0  0  0  0  0  0  0  0  0  0  0  0
    5.6920   -1.8499   24.6048 F   0  0  0  0  0  0  0  0  0  0  0  0
    5.6584   -2.6556   26.6215 F   0  0  0  0  0  0  0  0  0  0  0  0
    8.1075   -1.1890   22.9361 C   0  0  0  0  0  0  0  0  0  0  0  0
    7.0296   -0.5626   22.3347 C   0  0  0  0  0  0  0  0  0  0  0  0
    6.1747   -0.1047   22.8008 H   0  0  0  0  0  0  0  0  0  0  0  0
    5.3799    0.6094   20.0649 C   0  0  0  0  0  0  0  0  0  0  0  0
    4.9090    0.5989   21.0528 H   0  0  0  0  0  0  0  0  0  0  0  0
    4.7907    1.2896   19.0049 C   0  0  0  0  0  0  0  0  0  0  0  0
    3.8747    1.8523   19.1426 H   0  0  0  0  0  0  0  0  0  0  0  0
  1  2  1  0
  2  3  2  0
  3  4  1  0
  4  5  1  0
  4  6  2  0
  6  7  1  0
  7  8  2  0
  8  9  1  0
  9 10  1  0
 10 11  1  0
 10 12  2  0
 12 13  1  0
 12 14  1  0
 14 15  1  0
 15 16  2  0
 16 17  1  0
 17 18  1  0
 17 19  2  0
 19 20  1  0
 19 21  1  0
 21 22  1  0
 21 23  2  0
 23 24  1  0
 24 25  1  0
 24 26  1  0
 24 27  1  0
 14 28  1  0
 28 29  2  0
 29 30  1  0
  6 31  1  0
 31 32  1  0
 31 33  2  0
 33 34  1  0
 33  2  1  0
 29  7  1  0
 28  9  1  0
 23 15  1  0
M  END
>  <cnnaffinity>  (1) 
-5.92308

>  <filename>  (1) 
FC(F)(F)c1cccnc1-n1ccn2nc(-c3cccnc3)cc12

$$$$
