
     RDKit          3D

 42 45  0  0  0  0  0  0  0  0999 V2000
   12.0358    4.1881   24.1881 F   0  0  0  0  0  0  0  0  0  0  0  0
   11.5549    3.2604   23.3444 C   0  0  0  0  0  0  0  0  0  0  0  0
   11.2931    3.8851   22.1808 F   0  0  0  0  0  0  0  0  0  0  0  0
   12.5561    2.3932   23.1046 F   0  0  0  0  0  0  0  0  0  0  0  0
   10.3105    2.5449   23.8896 C   0  0  0  0  0  0  0  0  0  0  0  0
    9.2173    2.2287   23.0603 C   0  0  0  0  0  0  0  0  0  0  0  0
    8.0855    1.6496   23.6433 C   0  0  0  0  0  0  0  0  0  0  0  0
    6.9363    1.1763   22.7787 C   0  0  0  0  0  0  0  0  0  0  0  0
    7.2272   -0.1989   22.2438 C   0  0  0  0  0  0  0  0  0  0  0  0
    7.7551   -1.1576   22.9764 N   0  0  0  0  0  0  0  0  0  0  0  0
    8.1244   -2.0848   22.0629 C   0  0  0  0  0  0  0  0  0  0  0  0
    8.9728   -3.2549   22.4262 C   0  0  0  0  0  0  0  0  0  0  0  0
    8.5819   -4.1354   23.6533 C   0  0  0  0  0  0  0  0  0  0  0  0
    9.9875   -3.9168   24.2658 C   0  0  0  0  0  0  0  0  0  0  0  0
   10.3347   -2.9259   23.1319 C   0  0  0  0  0  0  0  0  0  0  0  0
   11.2490   -3.1214   22.5612 H   0  0  0  0  0  0  0  0  0  0  0  0
   10.3741   -1.8848   23.4700 H   0  0  0  0  0  0  0  0  0  0  0  0
    9.9819   -3.4919   25.2759 H   0  0  0  0  0  0  0  0  0  0  0  0
   10.6286   -4.8055   24.2942 H   0  0  0  0  0  0  0  0  0  0  0  0
    8.3342   -5.1714   23.4014 H   0  0  0  0  0  0  0  0  0  0  0  0
    7.7630   -3.7137   24.2483 H   0  0  0  0  0  0  0  0  0  0  0  0
    9.0503   -3.8097   21.4933 H   0  0  0  0  0  0  0  0  0  0  0  0
    7.7920   -1.8001   20.8167 N   0  0  0  0  0  0  0  0  0  0  0  0
    7.1619   -0.6007   20.9364 N   0  0  0  0  0  0  0  0  0  0  0  0
    6.5250    0.0193   19.8280 C   0  0  0  0  0  0  0  0  0  0  0  0
    5.3114    0.6945   20.0052 C   0  0  0  0  0  0  0  0  0  0  0  0
    4.7587    1.3675   18.9138 C   0  0  0  0  0  0  0  0  0  0  0  0
    5.4246    1.3263   17.6875 C   0  0  0  0  0  0  0  0  0  0  0  0
    6.5598    0.6293   17.4953 N   0  0  0  0  0  0  0  0  0  0  0  0
    7.0881   -0.0212   18.5390 C   0  0  0  0  0  0  0  0  0  0  0  0
    7.9976   -0.5870   18.3449 H   0  0  0  0  0  0  0  0  0  0  0  0
    5.0276    1.8624   16.8266 H   0  0  0  0  0  0  0  0  0  0  0  0
    3.8391    1.9321   19.0211 H   0  0  0  0  0  0  0  0  0  0  0  0
    4.8161    0.6876   20.9742 H   0  0  0  0  0  0  0  0  0  0  0  0
    6.7757    1.8801   21.9560 H   0  0  0  0  0  0  0  0  0  0  0  0
    6.0130    1.1203   23.3690 H   0  0  0  0  0  0  0  0  0  0  0  0
    8.1117    1.3593   25.0095 C   0  0  0  0  0  0  0  0  0  0  0  0
    9.2813    1.6136   25.7249 C   0  0  0  0  0  0  0  0  0  0  0  0
   10.3544    2.1892   25.1849 N   0  0  0  0  0  0  0  0  0  0  0  0
    9.3622    1.3539   26.7727 H   0  0  0  0  0  0  0  0  0  0  0  0
    7.2713    0.8964   25.5117 H   0  0  0  0  0  0  0  0  0  0  0  0
    9.2294    2.4122   21.9896 H   0  0  0  0  0  0  0  0  0  0  0  0
  1  2  1  0
  2  3  1  0
  2  4  1  0
  2  5  1  0
  5  6  2  0
  6  7  1  0
  7  8  1  0
  8  9  1  0
  9 10  2  0
 10 11  1  0
 11 12  1  0
 12 13  1  0
 13 14  1  0
 14 15  1  0
 15 16  1  0
 15 17  1  0
 14 18  1  0
 14 19  1  0
 13 20  1  0
 13 21  1  0
 12 22  1  0
 11 23  2  0
 23 24  1  0
 24 25  1  0
 25 26  2  0
 26 27  1  0
 27 28  2  0
 28 29  1  0
 29 30  2  0
 30 31  1  0
 28 32  1  0
 27 33  1  0
 26 34  1  0
  8 35  1  0
  8 36  1  0
  7 37  2  0
 37 38  1  0
 38 39  2  0
 38 40  1  0
 37 41  1  0
  6 42  1  0
 39  5  1  0
 24  9  1  0
 30 25  1  0
 15 12  1  0
M  END
>  <cnnaffinity>  (1) 
-6.55006

>  <filename>  (1) 
FC(F)(F)c1cc(Cc2nc(C3CCC3)nn2-c2cccnc2)ccn1

$$$$
