
     RDKit          3D

 45 48  0  0  0  0  0  0  0  0999 V2000
   11.5410    4.2189   22.3104 F   0  0  0  0  0  0  0  0  0  0  0  0
   12.2753    3.0942   22.4601 C   0  0  0  0  0  0  0  0  0  0  0  0
   12.0147    2.3105   21.3845 F   0  0  0  0  0  0  0  0  0  0  0  0
   11.9668    2.4468   23.6233 O   0  0  0  0  0  0  0  0  0  0  0  0
   10.6662    2.1120   23.9830 C   0  0  0  0  0  0  0  0  0  0  0  0
   10.5318    1.7697   25.3265 C   0  0  0  0  0  0  0  0  0  0  0  0
    9.2975    1.4153   25.8556 C   0  0  0  0  0  0  0  0  0  0  0  0
    8.1782    1.3989   25.0214 C   0  0  0  0  0  0  0  0  0  0  0  0
    8.3261    1.6562   23.6507 C   0  0  0  0  0  0  0  0  0  0  0  0
    7.2146    1.2230   22.7166 C   0  0  0  0  0  0  0  0  0  0  0  0
    7.5115   -0.1575   22.1915 C   0  0  0  0  0  0  0  0  0  0  0  0
    8.0637   -1.1165   22.9063 N   0  0  0  0  0  0  0  0  0  0  0  0
    8.2602   -2.1083   22.0078 C   0  0  0  0  0  0  0  0  0  0  0  0
    8.9131   -3.3684   22.4472 C   0  0  0  0  0  0  0  0  0  0  0  0
    8.1806   -4.1167   23.5850 C   0  0  0  0  0  0  0  0  0  0  0  0
    9.3127   -4.8432   24.3108 C   0  0  0  0  0  0  0  0  0  0  0  0
   10.4925   -4.0980   24.0588 O   0  0  0  0  0  0  0  0  0  0  0  0
   10.2866   -3.0869   23.0912 C   0  0  0  0  0  0  0  0  0  0  0  0
   11.1157   -3.0998   22.3736 H   0  0  0  0  0  0  0  0  0  0  0  0
   10.2920   -2.1031   23.5907 H   0  0  0  0  0  0  0  0  0  0  0  0
    9.4282   -5.8749   23.9458 H   0  0  0  0  0  0  0  0  0  0  0  0
    9.1545   -4.9009   25.3968 H   0  0  0  0  0  0  0  0  0  0  0  0
    7.4117   -4.8064   23.2189 H   0  0  0  0  0  0  0  0  0  0  0  0
    7.7132   -3.3859   24.2565 H   0  0  0  0  0  0  0  0  0  0  0  0
    8.9531   -4.0007   21.5619 H   0  0  0  0  0  0  0  0  0  0  0  0
    7.8559   -1.8456   20.7849 N   0  0  0  0  0  0  0  0  0  0  0  0
    7.3232   -0.5989   20.9158 N   0  0  0  0  0  0  0  0  0  0  0  0
    6.6183    0.0245   19.8594 C   0  0  0  0  0  0  0  0  0  0  0  0
    5.4009    0.6733   20.0988 C   0  0  0  0  0  0  0  0  0  0  0  0
    4.7913    1.3292   19.0284 C   0  0  0  0  0  0  0  0  0  0  0  0
    5.4112    1.3064   17.7773 C   0  0  0  0  0  0  0  0  0  0  0  0
    6.5623    0.6511   17.5374 N   0  0  0  0  0  0  0  0  0  0  0  0
    7.1430    0.0133   18.5585 C   0  0  0  0  0  0  0  0  0  0  0  0
    8.0727   -0.5159   18.3542 H   0  0  0  0  0  0  0  0  0  0  0  0
    4.9651    1.8268   16.9327 H   0  0  0  0  0  0  0  0  0  0  0  0
    3.8607    1.8656   19.1686 H   0  0  0  0  0  0  0  0  0  0  0  0
    4.9491    0.6643   21.0907 H   0  0  0  0  0  0  0  0  0  0  0  0
    6.2653    1.1691   23.2650 H   0  0  0  0  0  0  0  0  0  0  0  0
    7.0847    1.9333   21.8929 H   0  0  0  0  0  0  0  0  0  0  0  0
    9.5626    2.0820   23.1287 C   0  0  0  0  0  0  0  0  0  0  0  0
    9.6726    2.3959   22.0921 H   0  0  0  0  0  0  0  0  0  0  0  0
    7.1956    1.1548   25.4246 H   0  0  0  0  0  0  0  0  0  0  0  0
    9.2004    1.1502   26.9038 H   0  0  0  0  0  0  0  0  0  0  0  0
   11.4205    1.8081   25.9173 H   0  0  0  0  0  0  0  0  0  0  0  0
   13.3383    3.3461   22.4934 H   0  0  0  0  0  0  0  0  0  0  0  0
  1  2  1  0
  2  3  1  0
  2  4  1  0
  4  5  1  0
  5  6  2  0
  6  7  1  0
  7  8  2  0
  8  9  1  0
  9 10  1  0
 10 11  1  0
 11 12  2  0
 12 13  1  0
 13 14  1  0
 14 15  1  0
 15 16  1  0
 16 17  1  0
 17 18  1  0
 18 19  1  0
 18 20  1  0
 16 21  1  0
 16 22  1  0
 15 23  1  0
 15 24  1  0
 14 25  1  0
 13 26  2  0
 26 27  1  0
 27 28  1  0
 28 29  2  0
 29 30  1  0
 30 31  2  0
 31 32  1  0
 32 33  2  0
 33 34  1  0
 31 35  1  0
 30 36  1  0
 29 37  1  0
 10 38  1  0
 10 39  1  0
  9 40  2  0
 40 41  1  0
  8 42  1  0
  7 43  1  0
  6 44  1  0
  2 45  1  0
 40  5  1  0
 27 11  1  0
 33 28  1  0
 18 14  1  0
M  END
>  <cnnaffinity>  (1) 
-6.16743

>  <filename>  (1) 
FC(F)Oc1cccc(Cc2nc(C3CCOC3)nn2-c2cccnc2)c1

$$$$
