
     RDKit          3D

 35 37  0  0  0  0  0  0  0  0999 V2000
    5.9042   -3.2669   24.9548 F   0  0  0  0  0  0  0  0  0  0  0  0
    6.7106   -4.3091   24.7429 C   0  0  0  0  0  0  0  0  0  0  0  0
    7.9391   -3.9922   25.2268 F   0  0  0  0  0  0  0  0  0  0  0  0
    6.2586   -5.3313   25.4920 F   0  0  0  0  0  0  0  0  0  0  0  0
    6.8439   -4.7015   23.3003 C   0  0  0  0  0  0  0  0  0  0  0  0
    6.7111   -5.9769   22.7778 C   0  0  0  0  0  0  0  0  0  0  0  0
    7.2449   -6.1938   21.4996 C   0  0  0  0  0  0  0  0  0  0  0  0
    7.8208   -5.2443   20.7760 N   0  0  0  0  0  0  0  0  0  0  0  0
    7.8727   -3.9864   21.2531 N   0  0  0  0  0  0  0  0  0  0  0  0
    7.3755   -3.6971   22.4521 C   0  0  0  0  0  0  0  0  0  0  0  0
    7.3567   -2.3614   22.8904 N   0  0  0  0  0  0  0  0  0  0  0  0
    8.6666   -1.8253   23.2777 C   0  0  0  0  0  0  0  0  0  0  0  0
    9.5520   -1.4535   22.0746 C   0  0  0  0  0  0  0  0  0  0  0  0
    8.7770   -0.6813   21.0362 C   0  0  0  0  0  0  0  0  0  0  0  0
    7.4388   -0.7067   20.9492 C   0  0  0  0  0  0  0  0  0  0  0  0
    6.6958   -0.0045   19.8670 C   0  0  0  0  0  0  0  0  0  0  0  0
    5.4568    0.6254   20.0940 C   0  0  0  0  0  0  0  0  0  0  0  0
    4.8300    1.2988   19.0451 C   0  0  0  0  0  0  0  0  0  0  0  0
    5.4444    1.3040   17.7894 C   0  0  0  0  0  0  0  0  0  0  0  0
    6.6069    0.6827   17.5314 N   0  0  0  0  0  0  0  0  0  0  0  0
    7.2074    0.0547   18.5490 C   0  0  0  0  0  0  0  0  0  0  0  0
    8.1426   -0.4517   18.3016 H   0  0  0  0  0  0  0  0  0  0  0  0
    4.9792    1.8148   16.9504 H   0  0  0  0  0  0  0  0  0  0  0  0
    3.8855    1.8134   19.1904 H   0  0  0  0  0  0  0  0  0  0  0  0
    5.0088    0.6092   21.0881 H   0  0  0  0  0  0  0  0  0  0  0  0
    6.6135   -1.4180   22.0356 C   0  0  0  0  0  0  0  0  0  0  0  0
    5.7795   -1.9301   21.5499 H   0  0  0  0  0  0  0  0  0  0  0  0
    6.1748   -0.6485   22.6873 H   0  0  0  0  0  0  0  0  0  0  0  0
    9.3535   -0.0652   20.3488 H   0  0  0  0  0  0  0  0  0  0  0  0
    9.9525   -2.3625   21.6079 H   0  0  0  0  0  0  0  0  0  0  0  0
   10.4159   -0.8703   22.4197 H   0  0  0  0  0  0  0  0  0  0  0  0
    9.1845   -2.5338   23.9272 H   0  0  0  0  0  0  0  0  0  0  0  0
    8.4806   -0.9282   23.8879 H   0  0  0  0  0  0  0  0  0  0  0  0
    7.2411   -7.1805   21.0824 H   0  0  0  0  0  0  0  0  0  0  0  0
    6.2524   -6.8087   23.3015 H   0  0  0  0  0  0  0  0  0  0  0  0
  1  2  1  0
  2  3  1  0
  2  4  1  0
  2  5  1  0
  5  6  2  0
  6  7  1  0
  7  8  2  0
  8  9  1  0
  9 10  2  0
 10 11  1  0
 11 12  1  0
 12 13  1  0
 13 14  1  0
 14 15  2  0
 15 16  1  0
 16 17  2  0
 17 18  1  0
 18 19  2  0
 19 20  1  0
 20 21  2  0
 21 22  1  0
 19 23  1  0
 18 24  1  0
 17 25  1  0
 15 26  1  0
 26 27  1  0
 26 28  1  0
 14 29  1  0
 13 30  1  0
 13 31  1  0
 12 32  1  0
 12 33  1  0
  7 34  1  0
  6 35  1  0
 10  5  1  0
 26 11  1  0
 21 16  1  0
M  END
>  <cnnaffinity>  (1) 
-5.48878

>  <filename>  (1) 
FC(F)(F)c1ccnnc1N1CCC=C(c2cccnc2)C1

$$$$
