
     RDKit          3D

 43 46  0  0  0  0  0  0  0  0999 V2000
    8.0171   -1.4925   27.3037 F   0  0  0  0  0  0  0  0  0  0  0  0
    8.1066   -0.1398   27.1348 C   0  0  0  0  0  0  0  0  0  0  0  0
    7.8370    0.4402   28.3374 F   0  0  0  0  0  0  0  0  0  0  0  0
    7.1534    0.3247   26.0587 C   0  0  0  0  0  0  0  0  0  0  0  0
    7.5830    1.3076   25.2790 N   0  0  0  0  0  0  0  0  0  0  0  0
    6.6869    1.4207   24.2870 N   0  0  0  0  0  0  0  0  0  0  0  0
    7.1708    1.8656   22.9774 C   0  0  0  0  0  0  0  0  0  0  0  0
    8.1611    0.8632   22.4700 C   0  0  0  0  0  0  0  0  0  0  0  0
    9.4293    0.8964   22.8014 N   0  0  0  0  0  0  0  0  0  0  0  0
    9.8919   -0.3134   22.4011 C   0  0  0  0  0  0  0  0  0  0  0  0
   11.3301   -0.6274   22.4146 C   0  0  0  0  0  0  0  0  0  0  0  0
   12.2532    0.3735   22.7797 C   0  0  0  0  0  0  0  0  0  0  0  0
   13.5794    0.2735   22.3714 C   0  0  0  0  0  0  0  0  0  0  0  0
   13.9662   -0.8225   21.5947 C   0  0  0  0  0  0  0  0  0  0  0  0
   13.1022   -1.8913   21.3893 C   0  0  0  0  0  0  0  0  0  0  0  0
   11.7944   -1.8280   21.8516 C   0  0  0  0  0  0  0  0  0  0  0  0
   11.1101   -2.6638   21.7429 H   0  0  0  0  0  0  0  0  0  0  0  0
   13.4682   -2.6940   20.7653 H   0  0  0  0  0  0  0  0  0  0  0  0
   14.8382   -0.8473   20.9743 H   0  0  0  0  0  0  0  0  0  0  0  0
   14.2703    1.0799   22.5975 H   0  0  0  0  0  0  0  0  0  0  0  0
   11.8991    1.2641   23.2947 H   0  0  0  0  0  0  0  0  0  0  0  0
    8.9740   -1.0794   21.8332 N   0  0  0  0  0  0  0  0  0  0  0  0
    7.8638   -0.3163   21.8753 N   0  0  0  0  0  0  0  0  0  0  0  0
    6.6511   -0.7823   21.2146 C   0  0  0  0  0  0  0  0  0  0  0  0
    6.2232    0.0700   20.0405 C   0  0  0  0  0  0  0  0  0  0  0  0
    5.0237    0.7850   20.0181 C   0  0  0  0  0  0  0  0  0  0  0  0
    4.6625    1.4783   18.8595 C   0  0  0  0  0  0  0  0  0  0  0  0
    5.5308    1.4494   17.7661 C   0  0  0  0  0  0  0  0  0  0  0  0
    6.6981    0.7877   17.7752 N   0  0  0  0  0  0  0  0  0  0  0  0
    7.0292    0.1298   18.8920 C   0  0  0  0  0  0  0  0  0  0  0  0
    7.9811   -0.3995   18.8660 H   0  0  0  0  0  0  0  0  0  0  0  0
    5.2809    1.9701   16.8417 H   0  0  0  0  0  0  0  0  0  0  0  0
    3.7407    2.0436   18.7946 H   0  0  0  0  0  0  0  0  0  0  0  0
    4.3792    0.7996   20.8971 H   0  0  0  0  0  0  0  0  0  0  0  0
    6.8634   -1.8080   20.8867 H   0  0  0  0  0  0  0  0  0  0  0  0
    5.8527   -0.8267   21.9591 H   0  0  0  0  0  0  0  0  0  0  0  0
    6.3206    1.9959   22.3051 H   0  0  0  0  0  0  0  0  0  0  0  0
    7.6976    2.8058   23.1176 H   0  0  0  0  0  0  0  0  0  0  0  0
    5.6521    0.5618   24.4718 C   0  0  0  0  0  0  0  0  0  0  0  0
    5.9122   -0.1827   25.5949 C   0  0  0  0  0  0  0  0  0  0  0  0
    5.3376   -0.9989   26.0039 H   0  0  0  0  0  0  0  0  0  0  0  0
    4.8321    0.5747   23.7666 H   0  0  0  0  0  0  0  0  0  0  0  0
    9.1343    0.1073   26.8524 H   0  0  0  0  0  0  0  0  0  0  0  0
  1  2  1  0
  2  3  1  0
  2  4  1  0
  4  5  2  0
  5  6  1  0
  6  7  1  0
  7  8  1  0
  8  9  2  0
  9 10  1  0
 10 11  1  0
 11 12  2  0
 12 13  1  0
 13 14  2  0
 14 15  1  0
 15 16  2  0
 16 17  1  0
 15 18  1  0
 14 19  1  0
 13 20  1  0
 12 21  1  0
 10 22  2  0
 22 23  1  0
 23 24  1  0
 24 25  1  0
 25 26  2  0
 26 27  1  0
 27 28  2  0
 28 29  1  0
 29 30  2  0
 30 31  1  0
 28 32  1  0
 27 33  1  0
 26 34  1  0
 24 35  1  0
 24 36  1  0
  7 37  1  0
  7 38  1  0
  6 39  1  0
 39 40  2  0
 40 41  1  0
 39 42  1  0
  2 43  1  0
 40  4  1  0
 23  8  1  0
 30 25  1  0
 16 11  1  0
M  END
>  <cnnaffinity>  (1) 
-6.37057

>  <filename>  (1) 
FC(F)c1ccn(Cc2nc(-c3ccccc3)nn2Cc2cccnc2)n1

$$$$
