
     RDKit          3D

 34 37  0  0  0  0  0  0  0  0999 V2000
    4.9124    1.8100   16.9730 H   0  0  0  0  0  0  0  0  0  0  0  0
    5.3786    1.3048   17.8195 C   0  0  0  0  0  0  0  0  0  0  0  0
    6.5425    0.6851   17.5654 N   0  0  0  0  0  0  0  0  0  0  0  0
    7.1529    0.0757   18.5854 C   0  0  0  0  0  0  0  0  0  0  0  0
    8.1039   -0.3930   18.3373 H   0  0  0  0  0  0  0  0  0  0  0  0
    6.6605    0.0280   19.9118 C   0  0  0  0  0  0  0  0  0  0  0  0
    7.4077   -0.6723   20.9728 C   0  0  0  0  0  0  0  0  0  0  0  0
    8.3230   -1.6985   20.9066 C   0  0  0  0  0  0  0  0  0  0  0  0
    8.7325   -2.1042   20.0029 H   0  0  0  0  0  0  0  0  0  0  0  0
    8.7740   -2.1215   22.1263 N   0  0  0  0  0  0  0  0  0  0  0  0
    8.1604   -1.3183   22.9557 C   0  0  0  0  0  0  0  0  0  0  0  0
    8.2260   -0.9916   24.6495 S   0  0  0  0  0  0  0  0  0  0  0  0
    7.1056    0.3402   24.3451 C   0  0  0  0  0  0  0  0  0  0  0  0
    6.6316    1.2176   25.4353 C   0  0  0  0  0  0  0  0  0  0  0  0
    5.7382    2.2680   25.1378 C   0  0  0  0  0  0  0  0  0  0  0  0
    5.4225    2.4173   24.1092 H   0  0  0  0  0  0  0  0  0  0  0  0
    5.2743    3.0997   26.1537 C   0  0  0  0  0  0  0  0  0  0  0  0
    4.5858    3.9062   25.9174 H   0  0  0  0  0  0  0  0  0  0  0  0
    5.6822    2.9151   27.4780 C   0  0  0  0  0  0  0  0  0  0  0  0
    5.3266    3.5560   28.2727 H   0  0  0  0  0  0  0  0  0  0  0  0
    6.5675    1.8763   27.7603 C   0  0  0  0  0  0  0  0  0  0  0  0
    7.0454    1.5890   29.0319 O   0  0  0  0  0  0  0  0  0  0  0  0
    6.6879    2.3024   30.1168 C   0  0  0  0  0  0  0  0  0  0  0  0
    7.0346    3.5996   30.0260 F   0  0  0  0  0  0  0  0  0  0  0  0
    7.3183    1.7651   31.1517 F   0  0  0  0  0  0  0  0  0  0  0  0
    5.3644    2.2748   30.3515 F   0  0  0  0  0  0  0  0  0  0  0  0
    7.0477    1.0302   26.7666 C   0  0  0  0  0  0  0  0  0  0  0  0
    7.7378    0.2470   27.0713 H   0  0  0  0  0  0  0  0  0  0  0  0
    6.7321    0.5035   23.1118 N   0  0  0  0  0  0  0  0  0  0  0  0
    7.3213   -0.4338   22.3438 N   0  0  0  0  0  0  0  0  0  0  0  0
    5.4295    0.6667   20.1470 C   0  0  0  0  0  0  0  0  0  0  0  0
    5.0165    0.6527   21.1527 H   0  0  0  0  0  0  0  0  0  0  0  0
    4.7895    1.3158   19.0873 C   0  0  0  0  0  0  0  0  0  0  0  0
    3.8581    1.8495   19.2318 H   0  0  0  0  0  0  0  0  0  0  0  0
  1  2  1  0
  2  3  2  0
  3  4  1  0
  4  5  1  0
  4  6  2  0
  6  7  1  0
  7  8  2  0
  8  9  1  0
  8 10  1  0
 10 11  2  0
 11 12  1  0
 12 13  1  0
 13 14  1  0
 14 15  2  0
 15 16  1  0
 15 17  1  0
 17 18  1  0
 17 19  2  0
 19 20  1  0
 19 21  1  0
 21 22  1  0
 22 23  1  0
 23 24  1  0
 23 25  1  0
 23 26  1  0
 21 27  2  0
 27 28  1  0
 13 29  2  0
 29 30  1  0
  6 31  1  0
 31 32  1  0
 31 33  2  0
 33 34  1  0
 33  2  1  0
 30  7  1  0
 30 11  1  0
 27 14  1  0
M  END
>  <cnnaffinity>  (1) 
-5.36867

>  <filename>  (1) 
FC(F)(F)Oc1cccc(-c2nn3c(-c4cccnc4)cnc3s2)c1

$$$$
