
     RDKit          3D

 21 22  0  0  0  0  0  0  0  0999 V2000
    9.3410   -2.8473   22.1611 H   0  0  0  0  0  0  0  0  0  0  0  0
    8.6544   -2.0544   21.9092 C   0  0  0  0  0  0  0  0  0  0  0  0
    8.2497   -1.7183   20.7374 N   0  0  0  0  0  0  0  0  0  0  0  0
    7.3727   -0.6563   20.9672 C   0  0  0  0  0  0  0  0  0  0  0  0
    6.6479    0.0162   19.9044 C   0  0  0  0  0  0  0  0  0  0  0  0
    7.1715    0.0449   18.5950 C   0  0  0  0  0  0  0  0  0  0  0  0
    8.1202   -0.4366   18.3731 H   0  0  0  0  0  0  0  0  0  0  0  0
    6.5664    0.6695   17.5797 N   0  0  0  0  0  0  0  0  0  0  0  0
    5.4042    1.2878   17.8404 C   0  0  0  0  0  0  0  0  0  0  0  0
    4.9267    1.7812   16.9969 H   0  0  0  0  0  0  0  0  0  0  0  0
    4.8013    1.3097   19.1045 C   0  0  0  0  0  0  0  0  0  0  0  0
    3.8732    1.8434   19.2510 H   0  0  0  0  0  0  0  0  0  0  0  0
    5.4305    0.6634   20.1633 C   0  0  0  0  0  0  0  0  0  0  0  0
    5.0188    0.6481   21.1756 H   0  0  0  0  0  0  0  0  0  0  0  0
    7.3525   -0.4220   22.3045 C   0  0  0  0  0  0  0  0  0  0  0  0
    6.6802    0.5141   22.9793 O   0  0  0  0  0  0  0  0  0  0  0  0
    6.7786    0.6533   24.3577 C   0  0  0  0  0  0  0  0  0  0  0  0
    6.4654   -0.2462   24.9045 H   0  0  0  0  0  0  0  0  0  0  0  0
    8.0200    1.0221   24.6994 F   0  0  0  0  0  0  0  0  0  0  0  0
    5.9406    1.6591   24.6404 F   0  0  0  0  0  0  0  0  0  0  0  0
    8.1536   -1.3110   22.9363 O   0  0  0  0  0  0  0  0  0  0  0  0
  1  2  1  0
  2  3  2  0
  3  4  1  0
  4  5  1  0
  5  6  2  0
  6  7  1  0
  6  8  1  0
  8  9  2  0
  9 10  1  0
  9 11  1  0
 11 12  1  0
 11 13  2  0
 13 14  1  0
  4 15  2  0
 15 16  1  0
 16 17  1  0
 17 18  1  0
 17 19  1  0
 17 20  1  0
 15 21  1  0
 21  2  1  0
 13  5  1  0
M  END
>  <cnnaffinity>  (1) 
-4.10431

>  <filename>  (1) 
FC(F)Oc1ocnc1-c1cccnc1

$$$$
