
     RDKit          3D

 39 42  0  0  0  0  0  0  0  0999 V2000
   13.7617    2.1672   23.7696 F   0  0  0  0  0  0  0  0  0  0  0  0
   12.4335    2.0840   23.7704 C   0  0  0  0  0  0  0  0  0  0  0  0
   11.9511    3.3460   23.7569 F   0  0  0  0  0  0  0  0  0  0  0  0
   12.0654    1.5352   24.9442 F   0  0  0  0  0  0  0  0  0  0  0  0
   11.8914    1.2694   22.6277 C   0  0  0  0  0  0  0  0  0  0  0  0
   12.4832    0.1444   22.2280 N   0  0  0  0  0  0  0  0  0  0  0  0
   11.6254   -0.3764   21.3514 N   0  0  0  0  0  0  0  0  0  0  0  0
   10.4997    0.3628   21.1826 C   0  0  0  0  0  0  0  0  0  0  0  0
    9.3312   -0.0826   20.3667 C   0  0  0  0  0  0  0  0  0  0  0  0
    8.3149   -0.8957   21.1136 C   0  0  0  0  0  0  0  0  0  0  0  0
    8.5277   -1.7262   22.1013 N   0  0  0  0  0  0  0  0  0  0  0  0
    7.2749   -2.1963   22.4173 C   0  0  0  0  0  0  0  0  0  0  0  0
    7.0952   -3.1462   23.5928 C   0  0  0  0  0  0  0  0  0  0  0  0
    8.2271   -3.4503   24.3886 C   0  0  0  0  0  0  0  0  0  0  0  0
    8.1043   -4.3453   25.4495 C   0  0  0  0  0  0  0  0  0  0  0  0
    6.8499   -4.8999   25.7076 C   0  0  0  0  0  0  0  0  0  0  0  0
    5.7763   -4.5234   24.8967 C   0  0  0  0  0  0  0  0  0  0  0  0
    5.8821   -3.6825   23.8627 N   0  0  0  0  0  0  0  0  0  0  0  0
    4.7816   -4.9270   25.0846 H   0  0  0  0  0  0  0  0  0  0  0  0
    6.6974   -5.6148   26.5080 H   0  0  0  0  0  0  0  0  0  0  0  0
    8.9695   -4.6089   26.0593 H   0  0  0  0  0  0  0  0  0  0  0  0
    9.1753   -2.9752   24.1565 H   0  0  0  0  0  0  0  0  0  0  0  0
    6.3187   -1.7120   21.6342 N   0  0  0  0  0  0  0  0  0  0  0  0
    6.9886   -0.9044   20.7800 N   0  0  0  0  0  0  0  0  0  0  0  0
    6.3248   -0.1893   19.7445 C   0  0  0  0  0  0  0  0  0  0  0  0
    5.1751    0.5591   20.0132 C   0  0  0  0  0  0  0  0  0  0  0  0
    4.6657    1.3742   18.9968 C   0  0  0  0  0  0  0  0  0  0  0  0
    5.2879    1.3765   17.7424 C   0  0  0  0  0  0  0  0  0  0  0  0
    6.3384    0.5943   17.4557 N   0  0  0  0  0  0  0  0  0  0  0  0
    6.8319   -0.1739   18.4310 C   0  0  0  0  0  0  0  0  0  0  0  0
    7.6864   -0.7891   18.1562 H   0  0  0  0  0  0  0  0  0  0  0  0
    4.9297    2.0155   16.9370 H   0  0  0  0  0  0  0  0  0  0  0  0
    3.8007    2.0074   19.1553 H   0  0  0  0  0  0  0  0  0  0  0  0
    4.7091    0.4868   20.9956 H   0  0  0  0  0  0  0  0  0  0  0  0
    8.8364    0.8027   19.9593 H   0  0  0  0  0  0  0  0  0  0  0  0
    9.6574   -0.6896   19.5135 H   0  0  0  0  0  0  0  0  0  0  0  0
   10.6530    1.4720   21.9821 C   0  0  0  0  0  0  0  0  0  0  0  0
    9.9901    2.3246   22.0822 H   0  0  0  0  0  0  0  0  0  0  0  0
   11.8530   -1.2491   20.8938 H   0  0  0  0  0  0  0  0  0  0  0  0
  1  2  1  0
  2  3  1  0
  2  4  1  0
  2  5  1  0
  5  6  2  0
  6  7  1  0
  7  8  1  0
  8  9  1  0
  9 10  1  0
 10 11  2  0
 11 12  1  0
 12 13  1  0
 13 14  2  0
 14 15  1  0
 15 16  2  0
 16 17  1  0
 17 18  2  0
 17 19  1  0
 16 20  1  0
 15 21  1  0
 14 22  1  0
 12 23  2  0
 23 24  1  0
 24 25  1  0
 25 26  2  0
 26 27  1  0
 27 28  2  0
 28 29  1  0
 29 30  2  0
 30 31  1  0
 28 32  1  0
 27 33  1  0
 26 34  1  0
  9 35  1  0
  9 36  1  0
  8 37  2  0
 37 38  1  0
  7 39  1  0
 37  5  1  0
 24 10  1  0
 30 25  1  0
 18 13  1  0
M  END
>  <cnnaffinity>  (1) 
-6.32225

>  <filename>  (1) 
FC(F)(F)c1cc(Cc2nc(-c3ccccn3)nn2-c2cccnc2)[nH]n1

$$$$
