
     RDKit          3D

 44 47  0  0  0  0  0  0  0  0999 V2000
   14.7575    1.1849   22.7290 F   0  0  0  0  0  0  0  0  0  0  0  0
   13.8488    0.2905   23.1593 C   0  0  0  0  0  0  0  0  0  0  0  0
   13.9362    0.2970   24.5096 F   0  0  0  0  0  0  0  0  0  0  0  0
   14.2268   -0.9102   22.7127 F   0  0  0  0  0  0  0  0  0  0  0  0
   12.4519    0.6754   22.7193 C   0  0  0  0  0  0  0  0  0  0  0  0
   11.8110    0.0378   21.7469 N   0  0  0  0  0  0  0  0  0  0  0  0
   10.6477    0.6653   21.6135 N   0  0  0  0  0  0  0  0  0  0  0  0
    9.6403    0.1690   20.7024 C   0  0  0  0  0  0  0  0  0  0  0  0
    8.5917   -0.6179   21.3951 C   0  0  0  0  0  0  0  0  0  0  0  0
    8.7875   -1.4296   22.4060 N   0  0  0  0  0  0  0  0  0  0  0  0
    7.5634   -1.9921   22.5932 C   0  0  0  0  0  0  0  0  0  0  0  0
    7.3386   -2.9575   23.7089 C   0  0  0  0  0  0  0  0  0  0  0  0
    7.5196   -2.2351   25.0706 C   0  0  0  0  0  0  0  0  0  0  0  0
    7.5561   -3.1955   26.2274 C   0  0  0  0  0  0  0  0  0  0  0  0
    7.7517   -4.5073   26.0857 C   0  0  0  0  0  0  0  0  0  0  0  0
    7.9787   -5.1803   24.7532 C   0  0  0  0  0  0  0  0  0  0  0  0
    8.2956   -4.1739   23.6362 C   0  0  0  0  0  0  0  0  0  0  0  0
    9.3220   -3.8030   23.7497 H   0  0  0  0  0  0  0  0  0  0  0  0
    8.2423   -4.6632   22.6565 H   0  0  0  0  0  0  0  0  0  0  0  0
    7.0724   -5.7419   24.4874 H   0  0  0  0  0  0  0  0  0  0  0  0
    8.7767   -5.9296   24.8498 H   0  0  0  0  0  0  0  0  0  0  0  0
    7.7349   -5.1476   26.9651 H   0  0  0  0  0  0  0  0  0  0  0  0
    7.4063   -2.7726   27.2186 H   0  0  0  0  0  0  0  0  0  0  0  0
    8.4617   -1.6692   25.0439 H   0  0  0  0  0  0  0  0  0  0  0  0
    6.7279   -1.4901   25.2254 H   0  0  0  0  0  0  0  0  0  0  0  0
    6.3040   -3.3060   23.6284 H   0  0  0  0  0  0  0  0  0  0  0  0
    6.6329   -1.5746   21.7600 N   0  0  0  0  0  0  0  0  0  0  0  0
    7.3004   -0.6961   20.9637 N   0  0  0  0  0  0  0  0  0  0  0  0
    6.6409   -0.0190   19.9025 C   0  0  0  0  0  0  0  0  0  0  0  0
    5.4271    0.6336   20.1479 C   0  0  0  0  0  0  0  0  0  0  0  0
    4.8112    1.3121   19.0966 C   0  0  0  0  0  0  0  0  0  0  0  0
    5.4208    1.2983   17.8353 C   0  0  0  0  0  0  0  0  0  0  0  0
    6.5706    0.6541   17.5820 N   0  0  0  0  0  0  0  0  0  0  0  0
    7.1682    0.0168   18.5956 C   0  0  0  0  0  0  0  0  0  0  0  0
    8.1102   -0.4791   18.3576 H   0  0  0  0  0  0  0  0  0  0  0  0
    4.9607    1.8209   17.0012 H   0  0  0  0  0  0  0  0  0  0  0  0
    3.8789    1.8493   19.2447 H   0  0  0  0  0  0  0  0  0  0  0  0
    4.9994    0.5925   21.1500 H   0  0  0  0  0  0  0  0  0  0  0  0
   10.1577   -0.4925   20.0072 H   0  0  0  0  0  0  0  0  0  0  0  0
    9.1939    1.0080   20.1675 H   0  0  0  0  0  0  0  0  0  0  0  0
   10.5250    1.6963   22.4807 C   0  0  0  0  0  0  0  0  0  0  0  0
   11.6739    1.7393   23.2348 C   0  0  0  0  0  0  0  0  0  0  0  0
   11.8938    2.3824   24.0782 H   0  0  0  0  0  0  0  0  0  0  0  0
    9.6540    2.3337   22.4388 H   0  0  0  0  0  0  0  0  0  0  0  0
  1  2  1  0
  2  3  1  0
  2  4  1  0
  2  5  1  0
  5  6  2  0
  6  7  1  0
  7  8  1  0
  8  9  1  0
  9 10  2  0
 10 11  1  0
 11 12  1  0
 12 13  1  0
 13 14  1  0
 14 15  2  0
 15 16  1  0
 16 17  1  0
 17 18  1  0
 17 19  1  0
 16 20  1  0
 16 21  1  0
 15 22  1  0
 14 23  1  0
 13 24  1  0
 13 25  1  0
 12 26  1  0
 11 27  2  0
 27 28  1  0
 28 29  1  0
 29 30  2  0
 30 31  1  0
 31 32  2  0
 32 33  1  0
 33 34  2  0
 34 35  1  0
 32 36  1  0
 31 37  1  0
 30 38  1  0
  8 39  1  0
  8 40  1  0
  7 41  1  0
 41 42  2  0
 42 43  1  0
 41 44  1  0
 42  5  1  0
 28  9  1  0
 34 29  1  0
 17 12  1  0
M  END
>  <cnnaffinity>  (1) 
-6.79867

>  <filename>  (1) 
FC(F)(F)c1ccn(Cc2nc(C3CC=CCC3)nn2-c2cccnc2)n1

$$$$
