
     RDKit          3D

 42 45  0  0  0  0  0  0  0  0999 V2000
   13.4183    0.7128   24.8986 F   0  0  0  0  0  0  0  0  0  0  0  0
   13.4666    0.6042   23.5507 C   0  0  0  0  0  0  0  0  0  0  0  0
   14.3786    1.4888   23.0789 F   0  0  0  0  0  0  0  0  0  0  0  0
   12.1201    0.8638   22.9127 C   0  0  0  0  0  0  0  0  0  0  0  0
   11.6423    0.1480   21.9502 N   0  0  0  0  0  0  0  0  0  0  0  0
   10.4381    0.7428   21.6190 C   0  0  0  0  0  0  0  0  0  0  0  0
    9.5422    0.0959   20.6177 C   0  0  0  0  0  0  0  0  0  0  0  0
    8.4613   -0.7160   21.2581 C   0  0  0  0  0  0  0  0  0  0  0  0
    8.6669   -1.4943   22.2992 N   0  0  0  0  0  0  0  0  0  0  0  0
    7.4634   -2.0739   22.5055 C   0  0  0  0  0  0  0  0  0  0  0  0
    7.2477   -3.0581   23.6234 C   0  0  0  0  0  0  0  0  0  0  0  0
    6.3174   -2.5790   24.7653 C   0  0  0  0  0  0  0  0  0  0  0  0
    5.7754   -3.8611   25.4317 C   0  0  0  0  0  0  0  0  0  0  0  0
    6.0173   -5.0217   24.4343 C   0  0  0  0  0  0  0  0  0  0  0  0
    6.6287   -4.3968   23.1682 C   0  0  0  0  0  0  0  0  0  0  0  0
    5.8554   -4.1975   22.4181 H   0  0  0  0  0  0  0  0  0  0  0  0
    7.3719   -5.0457   22.6901 H   0  0  0  0  0  0  0  0  0  0  0  0
    5.0899   -5.5557   24.2013 H   0  0  0  0  0  0  0  0  0  0  0  0
    6.6950   -5.7647   24.8702 H   0  0  0  0  0  0  0  0  0  0  0  0
    4.7121   -3.7525   25.6720 H   0  0  0  0  0  0  0  0  0  0  0  0
    6.2817   -4.0585   26.3836 H   0  0  0  0  0  0  0  0  0  0  0  0
    6.8369   -1.9237   25.4749 H   0  0  0  0  0  0  0  0  0  0  0  0
    5.4949   -1.9899   24.3544 H   0  0  0  0  0  0  0  0  0  0  0  0
    8.2456   -3.2364   24.0392 H   0  0  0  0  0  0  0  0  0  0  0  0
    6.5235   -1.7080   21.6487 N   0  0  0  0  0  0  0  0  0  0  0  0
    7.1722   -0.8428   20.8258 N   0  0  0  0  0  0  0  0  0  0  0  0
    6.4789   -0.1506   19.7868 C   0  0  0  0  0  0  0  0  0  0  0  0
    5.3045    0.5604   20.0590 C   0  0  0  0  0  0  0  0  0  0  0  0
    4.7423    1.3274   19.0357 C   0  0  0  0  0  0  0  0  0  0  0  0
    5.3540    1.3344   17.7758 C   0  0  0  0  0  0  0  0  0  0  0  0
    6.4494    0.6125   17.4916 N   0  0  0  0  0  0  0  0  0  0  0  0
    6.9893   -0.1150   18.4751 C   0  0  0  0  0  0  0  0  0  0  0  0
    7.8808   -0.6883   18.2178 H   0  0  0  0  0  0  0  0  0  0  0  0
    4.9472    1.9347   16.9663 H   0  0  0  0  0  0  0  0  0  0  0  0
    3.8560    1.9304   19.2057 H   0  0  0  0  0  0  0  0  0  0  0  0
    4.8706    0.5180   21.0584 H   0  0  0  0  0  0  0  0  0  0  0  0
    9.1471    0.8445   19.9270 H   0  0  0  0  0  0  0  0  0  0  0  0
   10.1682   -0.6155   20.0757 H   0  0  0  0  0  0  0  0  0  0  0  0
   10.2704    1.8276   22.4074 C   0  0  0  0  0  0  0  0  0  0  0  0
   11.3395    1.9132   23.2527 O   0  0  0  0  0  0  0  0  0  0  0  0
    9.5206    2.6003   22.4957 H   0  0  0  0  0  0  0  0  0  0  0  0
   13.7751   -0.4037   23.2695 H   0  0  0  0  0  0  0  0  0  0  0  0
  1  2  1  0
  2  3  1  0
  2  4  1  0
  4  5  2  0
  5  6  1  0
  6  7  1  0
  7  8  1  0
  8  9  2  0
  9 10  1  0
 10 11  1  0
 11 12  1  0
 12 13  1  0
 13 14  1  0
 14 15  1  0
 15 16  1  0
 15 17  1  0
 14 18  1  0
 14 19  1  0
 13 20  1  0
 13 21  1  0
 12 22  1  0
 12 23  1  0
 11 24  1  0
 10 25  2  0
 25 26  1  0
 26 27  1  0
 27 28  2  0
 28 29  1  0
 29 30  2  0
 30 31  1  0
 31 32  2  0
 32 33  1  0
 30 34  1  0
 29 35  1  0
 28 36  1  0
  7 37  1  0
  7 38  1  0
  6 39  2  0
 39 40  1  0
 39 41  1  0
  2 42  1  0
 40  4  1  0
 26  8  1  0
 32 27  1  0
 15 11  1  0
M  END
>  <cnnaffinity>  (1) 
-6.25267

>  <filename>  (1) 
FC(F)c1nc(Cc2nc(C3CCCC3)nn2-c2cccnc2)co1

$$$$
