
     RDKit          3D

 45 48  0  0  0  0  0  0  0  0999 V2000
   14.3076   -1.3326   21.7540 F   0  0  0  0  0  0  0  0  0  0  0  0
   13.1768   -1.8936   21.2755 C   0  0  0  0  0  0  0  0  0  0  0  0
   13.3820   -2.0933   19.9680 F   0  0  0  0  0  0  0  0  0  0  0  0
   12.0487   -1.1348   21.4066 O   0  0  0  0  0  0  0  0  0  0  0  0
   11.8876    0.0609   22.0488 C   0  0  0  0  0  0  0  0  0  0  0  0
   12.7513    0.5186   23.0476 C   0  0  0  0  0  0  0  0  0  0  0  0
   12.4646    1.7182   23.6982 C   0  0  0  0  0  0  0  0  0  0  0  0
   11.3213    2.4528   23.3690 C   0  0  0  0  0  0  0  0  0  0  0  0
   10.4611    1.9728   22.3703 C   0  0  0  0  0  0  0  0  0  0  0  0
   10.7225    0.7738   21.6954 C   0  0  0  0  0  0  0  0  0  0  0  0
    9.7030    0.2110   20.7165 C   0  0  0  0  0  0  0  0  0  0  0  0
    8.6437   -0.6158   21.3636 C   0  0  0  0  0  0  0  0  0  0  0  0
    8.8417   -1.4516   22.3613 N   0  0  0  0  0  0  0  0  0  0  0  0
    7.6253   -1.9960   22.5576 C   0  0  0  0  0  0  0  0  0  0  0  0
    7.3905   -3.0047   23.6264 C   0  0  0  0  0  0  0  0  0  0  0  0
    6.8026   -4.3455   23.1372 C   0  0  0  0  0  0  0  0  0  0  0  0
    5.9996   -4.8365   24.3449 C   0  0  0  0  0  0  0  0  0  0  0  0
    5.7599   -3.7114   25.1745 O   0  0  0  0  0  0  0  0  0  0  0  0
    6.3619   -2.5401   24.6682 C   0  0  0  0  0  0  0  0  0  0  0  0
    5.6038   -1.8885   24.2159 H   0  0  0  0  0  0  0  0  0  0  0  0
    6.8181   -1.9926   25.5034 H   0  0  0  0  0  0  0  0  0  0  0  0
    6.5483   -5.5892   24.9274 H   0  0  0  0  0  0  0  0  0  0  0  0
    5.0361   -5.2729   24.0490 H   0  0  0  0  0  0  0  0  0  0  0  0
    6.1399   -4.1689   22.2823 H   0  0  0  0  0  0  0  0  0  0  0  0
    7.5746   -5.0559   22.8246 H   0  0  0  0  0  0  0  0  0  0  0  0
    8.3569   -3.1605   24.1143 H   0  0  0  0  0  0  0  0  0  0  0  0
    6.6784   -1.5650   21.7423 N   0  0  0  0  0  0  0  0  0  0  0  0
    7.3424   -0.6900   20.9434 N   0  0  0  0  0  0  0  0  0  0  0  0
    6.6546   -0.0108   19.8993 C   0  0  0  0  0  0  0  0  0  0  0  0
    5.4379    0.6294   20.1596 C   0  0  0  0  0  0  0  0  0  0  0  0
    4.8100    1.3040   19.1091 C   0  0  0  0  0  0  0  0  0  0  0  0
    5.4020    1.2924   17.8392 C   0  0  0  0  0  0  0  0  0  0  0  0
    6.5540    0.6578   17.5756 N   0  0  0  0  0  0  0  0  0  0  0  0
    7.1634    0.0299   18.5873 C   0  0  0  0  0  0  0  0  0  0  0  0
    8.1056   -0.4609   18.3494 H   0  0  0  0  0  0  0  0  0  0  0  0
    4.9327    1.8060   17.0035 H   0  0  0  0  0  0  0  0  0  0  0  0
    3.8801    1.8413   19.2627 H   0  0  0  0  0  0  0  0  0  0  0  0
    5.0139    0.5942   21.1639 H   0  0  0  0  0  0  0  0  0  0  0  0
    9.2231    1.0180   20.1602 H   0  0  0  0  0  0  0  0  0  0  0  0
   10.1785   -0.4702   20.0027 H   0  0  0  0  0  0  0  0  0  0  0  0
    9.5595    2.5270   22.1152 H   0  0  0  0  0  0  0  0  0  0  0  0
   11.0977    3.3864   23.8790 H   0  0  0  0  0  0  0  0  0  0  0  0
   13.1493    2.0600   24.4669 H   0  0  0  0  0  0  0  0  0  0  0  0
   13.6214   -0.0644   23.3183 H   0  0  0  0  0  0  0  0  0  0  0  0
   13.0000   -2.8208   21.8123 H   0  0  0  0  0  0  0  0  0  0  0  0
  1  2  1  0
  2  3  1  0
  2  4  1  0
  4  5  1  0
  5  6  2  0
  6  7  1  0
  7  8  2  0
  8  9  1  0
  9 10  2  0
 10 11  1  0
 11 12  1  0
 12 13  2  0
 13 14  1  0
 14 15  1  0
 15 16  1  0
 16 17  1  0
 17 18  1  0
 18 19  1  0
 19 20  1  0
 19 21  1  0
 17 22  1  0
 17 23  1  0
 16 24  1  0
 16 25  1  0
 15 26  1  0
 14 27  2  0
 27 28  1  0
 28 29  1  0
 29 30  2  0
 30 31  1  0
 31 32  2  0
 32 33  1  0
 33 34  2  0
 34 35  1  0
 32 36  1  0
 31 37  1  0
 30 38  1  0
 11 39  1  0
 11 40  1  0
  9 41  1  0
  8 42  1  0
  7 43  1  0
  6 44  1  0
  2 45  1  0
 10  5  1  0
 28 12  1  0
 34 29  1  0
 19 15  1  0
M  END
>  <cnnaffinity>  (1) 
-6.81184

>  <filename>  (1) 
FC(F)Oc1ccccc1Cc1nc(C2CCOC2)nn1-c1cccnc1

$$$$
