
     RDKit          3D

 33 36  0  0  0  0  0  0  0  0999 V2000
    4.9258    1.7838   16.9948 H   0  0  0  0  0  0  0  0  0  0  0  0
    5.4036    1.2907   17.8371 C   0  0  0  0  0  0  0  0  0  0  0  0
    6.5665    0.6738   17.5727 N   0  0  0  0  0  0  0  0  0  0  0  0
    7.1683    0.0532   18.5873 C   0  0  0  0  0  0  0  0  0  0  0  0
    8.1169   -0.4319   18.3662 H   0  0  0  0  0  0  0  0  0  0  0  0
    6.6440    0.0130   19.8944 C   0  0  0  0  0  0  0  0  0  0  0  0
    7.4060   -0.6907   20.9243 C   0  0  0  0  0  0  0  0  0  0  0  0
    8.3281   -1.5952   20.7032 N   0  0  0  0  0  0  0  0  0  0  0  0
    8.8334   -2.0346   21.9062 N   0  0  0  0  0  0  0  0  0  0  0  0
    8.2104   -1.3514   22.8276 C   0  0  0  0  0  0  0  0  0  0  0  0
    8.2552   -1.0983   24.5470 S   0  0  0  0  0  0  0  0  0  0  0  0
    7.0279    0.1714   24.3310 C   0  0  0  0  0  0  0  0  0  0  0  0
    6.5201    0.9721   25.4687 C   0  0  0  0  0  0  0  0  0  0  0  0
    6.9943    0.7571   26.7747 C   0  0  0  0  0  0  0  0  0  0  0  0
    7.7492   -0.0020   26.9869 H   0  0  0  0  0  0  0  0  0  0  0  0
    6.4903    1.5325   27.8204 C   0  0  0  0  0  0  0  0  0  0  0  0
    6.8640    1.3553   28.8224 H   0  0  0  0  0  0  0  0  0  0  0  0
    5.5240    2.5175   27.5905 C   0  0  0  0  0  0  0  0  0  0  0  0
    5.1311    3.1201   28.4046 H   0  0  0  0  0  0  0  0  0  0  0  0
    5.0598    2.7239   26.2893 C   0  0  0  0  0  0  0  0  0  0  0  0
    4.0972    3.7247   26.1584 O   0  0  0  0  0  0  0  0  0  0  0  0
    3.5466    4.0502   24.9638 C   0  0  0  0  0  0  0  0  0  0  0  0
    2.6811    5.0275   25.1989 F   0  0  0  0  0  0  0  0  0  0  0  0
    4.4440    4.4803   24.0628 F   0  0  0  0  0  0  0  0  0  0  0  0
    2.8921    3.0294   24.3833 F   0  0  0  0  0  0  0  0  0  0  0  0
    5.5459    1.9642   25.2242 C   0  0  0  0  0  0  0  0  0  0  0  0
    5.1872    2.1295   24.2126 H   0  0  0  0  0  0  0  0  0  0  0  0
    6.6204    0.3468   23.1117 N   0  0  0  0  0  0  0  0  0  0  0  0
    7.2821   -0.5080   22.2875 N   0  0  0  0  0  0  0  0  0  0  0  0
    5.4263    0.6535   20.1630 C   0  0  0  0  0  0  0  0  0  0  0  0
    5.0080    0.6431   21.1719 H   0  0  0  0  0  0  0  0  0  0  0  0
    4.8043    1.3062   19.1034 C   0  0  0  0  0  0  0  0  0  0  0  0
    3.8748    1.8426   19.2522 H   0  0  0  0  0  0  0  0  0  0  0  0
  1  2  1  0
  2  3  2  0
  3  4  1  0
  4  5  1  0
  4  6  2  0
  6  7  1  0
  7  8  2  0
  8  9  1  0
  9 10  2  0
 10 11  1  0
 11 12  1  0
 12 13  1  0
 13 14  2  0
 14 15  1  0
 14 16  1  0
 16 17  1  0
 16 18  2  0
 18 19  1  0
 18 20  1  0
 20 21  1  0
 21 22  1  0
 22 23  1  0
 22 24  1  0
 22 25  1  0
 20 26  2  0
 26 27  1  0
 12 28  2  0
 28 29  1  0
  6 30  1  0
 30 31  1  0
 30 32  2  0
 32 33  1  0
 32  2  1  0
 29  7  1  0
 29 10  1  0
 26 13  1  0
M  END
>  <cnnaffinity>  (1) 
-5.53481

>  <filename>  (1) 
FC(F)(F)Oc1cccc(-c2nn3c(-c4cccnc4)nnc3s2)c1

$$$$
