
     RDKit          3D

 29 31  0  0  0  0  0  0  0  0999 V2000
    4.9216    1.7970   16.9860 H   0  0  0  0  0  0  0  0  0  0  0  0
    5.3870    1.2812   17.8273 C   0  0  0  0  0  0  0  0  0  0  0  0
    6.5450    0.6484   17.5774 N   0  0  0  0  0  0  0  0  0  0  0  0
    7.1297    0.0234   18.6064 C   0  0  0  0  0  0  0  0  0  0  0  0
    8.0750   -0.4710   18.3819 H   0  0  0  0  0  0  0  0  0  0  0  0
    6.6277   -0.0180   19.9242 C   0  0  0  0  0  0  0  0  0  0  0  0
    7.3821   -0.6775   21.0186 C   0  0  0  0  0  0  0  0  0  0  0  0
    7.3696   -0.3635   22.4371 C   0  0  0  0  0  0  0  0  0  0  0  0
    6.8462    0.8544   23.1720 C   0  0  0  0  0  0  0  0  0  0  0  0
    5.8957    0.6319   24.0860 N   0  0  0  0  0  0  0  0  0  0  0  0
    5.3185    1.6749   24.6874 C   0  0  0  0  0  0  0  0  0  0  0  0
    4.5307    1.4293   25.3980 H   0  0  0  0  0  0  0  0  0  0  0  0
    5.6686    2.9976   24.4164 C   0  0  0  0  0  0  0  0  0  0  0  0
    5.1243    3.7956   24.9030 H   0  0  0  0  0  0  0  0  0  0  0  0
    6.7072    3.2503   23.5235 C   0  0  0  0  0  0  0  0  0  0  0  0
    7.0118    4.2824   23.3312 H   0  0  0  0  0  0  0  0  0  0  0  0
    7.3412    2.1525   22.9284 C   0  0  0  0  0  0  0  0  0  0  0  0
    8.5431    2.3266   22.0360 C   0  0  0  0  0  0  0  0  0  0  0  0
    8.2192    2.2187   20.7336 F   0  0  0  0  0  0  0  0  0  0  0  0
    9.4874    1.3878   22.2590 F   0  0  0  0  0  0  0  0  0  0  0  0
    9.1161    3.5238   22.2101 F   0  0  0  0  0  0  0  0  0  0  0  0
    8.0870   -1.2080   23.1219 N   0  0  0  0  0  0  0  0  0  0  0  0
    8.6497   -2.0525   22.2190 O   0  0  0  0  0  0  0  0  0  0  0  0
    8.2654   -1.7149   20.9875 C   0  0  0  0  0  0  0  0  0  0  0  0
    8.7613   -2.3110   20.2431 H   0  0  0  0  0  0  0  0  0  0  0  0
    5.4041    0.6292   20.1550 C   0  0  0  0  0  0  0  0  0  0  0  0
    4.9612    0.6268   21.1538 H   0  0  0  0  0  0  0  0  0  0  0  0
    4.7824    1.2858   19.0886 C   0  0  0  0  0  0  0  0  0  0  0  0
    3.8482    1.8176   19.2238 H   0  0  0  0  0  0  0  0  0  0  0  0
  1  2  1  0
  2  3  2  0
  3  4  1  0
  4  5  1  0
  4  6  2  0
  6  7  1  0
  7  8  1  0
  8  9  1  0
  9 10  2  0
 10 11  1  0
 11 12  1  0
 11 13  2  0
 13 14  1  0
 13 15  1  0
 15 16  1  0
 15 17  2  0
 17 18  1  0
 18 19  1  0
 18 20  1  0
 18 21  1  0
  8 22  2  0
 22 23  1  0
 23 24  1  0
 24 25  1  0
  6 26  1  0
 26 27  1  0
 26 28  2  0
 28 29  1  0
 28  2  1  0
 24  7  2  0
 17  9  1  0
M  END
>  <cnnaffinity>  (1) 
-5.40614

>  <filename>  (1) 
FC(F)(F)c1cccnc1-c1nocc1-c1cccnc1

$$$$
