
     RDKit          3D

 34 36  0  0  0  0  0  0  0  0999 V2000
    6.6325   -1.3025   21.6642 H   0  0  0  0  0  0  0  0  0  0  0  0
    7.2531   -0.6774   21.0187 C   0  0  0  0  0  0  0  0  0  0  0  0
    8.5514   -0.4868   21.3470 C   0  0  0  0  0  0  0  0  0  0  0  0
    9.3738   -1.1745   22.3485 C   0  0  0  0  0  0  0  0  0  0  0  0
    8.8644   -2.3468   23.1716 C   0  0  0  0  0  0  0  0  0  0  0  0
    8.2805   -3.3209   22.4530 N   0  0  0  0  0  0  0  0  0  0  0  0
    7.8729   -4.4309   23.0710 C   0  0  0  0  0  0  0  0  0  0  0  0
    7.4163   -5.1786   22.4289 H   0  0  0  0  0  0  0  0  0  0  0  0
    7.9975   -4.6349   24.4474 C   0  0  0  0  0  0  0  0  0  0  0  0
    7.6572   -5.5713   24.8773 H   0  0  0  0  0  0  0  0  0  0  0  0
    8.5546   -3.6201   25.2215 C   0  0  0  0  0  0  0  0  0  0  0  0
    8.6234   -3.7340   26.3076 H   0  0  0  0  0  0  0  0  0  0  0  0
    8.9883   -2.4459   24.5809 C   0  0  0  0  0  0  0  0  0  0  0  0
    9.4098   -1.2476   25.4047 C   0  0  0  0  0  0  0  0  0  0  0  0
   10.6501   -0.8296   25.1263 F   0  0  0  0  0  0  0  0  0  0  0  0
    8.5689   -0.2204   25.1741 F   0  0  0  0  0  0  0  0  0  0  0  0
    9.3806   -1.4790   26.7301 F   0  0  0  0  0  0  0  0  0  0  0  0
   10.5765   -0.7327   22.4307 N   0  0  0  0  0  0  0  0  0  0  0  0
   10.7013    0.4825   21.6316 C   0  0  0  0  0  0  0  0  0  0  0  0
   10.7596    1.3404   22.3124 H   0  0  0  0  0  0  0  0  0  0  0  0
   11.6392    0.4496   21.0716 H   0  0  0  0  0  0  0  0  0  0  0  0
    9.4393    0.5708   20.7394 C   0  0  0  0  0  0  0  0  0  0  0  0
    9.6613    0.3035   19.7043 H   0  0  0  0  0  0  0  0  0  0  0  0
    8.9456    1.5479   20.7398 H   0  0  0  0  0  0  0  0  0  0  0  0
    6.5703   -0.0263   19.8850 C   0  0  0  0  0  0  0  0  0  0  0  0
    7.1109    0.0349   18.5784 C   0  0  0  0  0  0  0  0  0  0  0  0
    8.0483   -0.4739   18.3591 H   0  0  0  0  0  0  0  0  0  0  0  0
    6.5433    0.6824   17.5520 N   0  0  0  0  0  0  0  0  0  0  0  0
    5.3926    1.3249   17.7980 C   0  0  0  0  0  0  0  0  0  0  0  0
    4.9620    1.8687   16.9609 H   0  0  0  0  0  0  0  0  0  0  0  0
    4.7503    1.3145   19.0420 C   0  0  0  0  0  0  0  0  0  0  0  0
    3.8241    1.8636   19.1726 H   0  0  0  0  0  0  0  0  0  0  0  0
    5.3364    0.6145   20.0945 C   0  0  0  0  0  0  0  0  0  0  0  0
    4.8865    0.6060   21.0897 H   0  0  0  0  0  0  0  0  0  0  0  0
  1  2  1  0
  2  3  2  3
  3  4  1  0
  4  5  1  0
  5  6  2  0
  6  7  1  0
  7  8  1  0
  7  9  2  0
  9 10  1  0
  9 11  1  0
 11 12  1  0
 11 13  2  0
 13 14  1  0
 14 15  1  0
 14 16  1  0
 14 17  1  0
  4 18  2  0
 18 19  1  0
 19 20  1  0
 19 21  1  0
 19 22  1  0
 22 23  1  0
 22 24  1  0
  2 25  1  0
 25 26  2  0
 26 27  1  0
 26 28  1  0
 28 29  2  0
 29 30  1  0
 29 31  1  0
 31 32  1  0
 31 33  2  0
 33 34  1  0
 22  3  1  0
 33 25  1  0
 13  5  1  0
M  END
>  <cnnaffinity>  (1) 
-5.78977

>  <filename>  (1) 
FC(F)(F)c1cccnc1C1=NCCC1=Cc1cccnc1

$$$$
