
     RDKit          3D

 24 25  0  0  0  0  0  0  0  0999 V2000
    4.9142    1.7856   16.9912 H   0  0  0  0  0  0  0  0  0  0  0  0
    5.4018    1.2957   17.8317 C   0  0  0  0  0  0  0  0  0  0  0  0
    6.5647    0.6775   17.5701 N   0  0  0  0  0  0  0  0  0  0  0  0
    7.1709    0.0594   18.5919 C   0  0  0  0  0  0  0  0  0  0  0  0
    8.1191   -0.4276   18.3739 H   0  0  0  0  0  0  0  0  0  0  0  0
    6.6690    0.0155   19.9153 C   0  0  0  0  0  0  0  0  0  0  0  0
    7.3436   -0.6649   20.9559 N   0  0  0  0  0  0  0  0  0  0  0  0
    7.5446   -0.2780   22.2827 C   0  0  0  0  0  0  0  0  0  0  0  0
    7.2033    1.3466   22.8562 S   0  0  0  0  0  0  0  0  0  0  0  0
    8.8407    2.0426   22.3733 C   0  0  0  0  0  0  0  0  0  0  0  0
    9.0337    1.9611   21.0538 F   0  0  0  0  0  0  0  0  0  0  0  0
    9.8425    1.4200   22.9883 F   0  0  0  0  0  0  0  0  0  0  0  0
    8.8750    3.3335   22.7229 F   0  0  0  0  0  0  0  0  0  0  0  0
    8.1059   -1.1370   23.0372 N   0  0  0  0  0  0  0  0  0  0  0  0
    8.3142   -2.3413   22.2486 C   0  0  0  0  0  0  0  0  0  0  0  0
    7.7474   -3.1780   22.6658 H   0  0  0  0  0  0  0  0  0  0  0  0
    9.3655   -2.6353   22.2774 H   0  0  0  0  0  0  0  0  0  0  0  0
    7.8641   -2.0164   20.8101 C   0  0  0  0  0  0  0  0  0  0  0  0
    7.0953   -2.7060   20.4297 H   0  0  0  0  0  0  0  0  0  0  0  0
    8.7098   -2.0267   20.1123 H   0  0  0  0  0  0  0  0  0  0  0  0
    5.4423    0.6499   20.1646 C   0  0  0  0  0  0  0  0  0  0  0  0
    5.0165    0.6236   21.1689 H   0  0  0  0  0  0  0  0  0  0  0  0
    4.8124    1.3064   19.1026 C   0  0  0  0  0  0  0  0  0  0  0  0
    3.8806    1.8373   19.2607 H   0  0  0  0  0  0  0  0  0  0  0  0
  1  2  1  0
  2  3  2  0
  3  4  1  0
  4  5  1  0
  4  6  2  0
  6  7  1  0
  7  8  1  0
  8  9  1  0
  9 10  1  0
 10 11  1  0
 10 12  1  0
 10 13  1  0
  8 14  2  0
 14 15  1  0
 15 16  1  0
 15 17  1  0
 15 18  1  0
 18 19  1  0
 18 20  1  0
  6 21  1  0
 21 22  1  0
 21 23  2  0
 23 24  1  0
 23  2  1  0
 18  7  1  0
M  END
>  <cnnaffinity>  (1) 
-4.6207

>  <filename>  (1) 
FC(F)(F)SC1=NCCN1c1cccnc1

$$$$
