
     RDKit          3D

 31 32  0  0  0  0  0  0  0  0999 V2000
    4.9745    1.7902   16.9110 H   0  0  0  0  0  0  0  0  0  0  0  0
    5.4114    1.2852   17.7699 C   0  0  0  0  0  0  0  0  0  0  0  0
    6.5828    0.6571   17.5728 N   0  0  0  0  0  0  0  0  0  0  0  0
    7.1575    0.0735   18.6374 C   0  0  0  0  0  0  0  0  0  0  0  0
    8.1051   -0.4281   18.4441 H   0  0  0  0  0  0  0  0  0  0  0  0
    6.6105    0.0614   19.9517 C   0  0  0  0  0  0  0  0  0  0  0  0
    7.2529   -0.4734   21.1005 N   0  0  0  0  0  0  0  0  0  0  0  0
    6.6199   -1.6081   21.7876 C   0  0  0  0  0  0  0  0  0  0  0  0
    5.5374   -1.5020   21.6762 H   0  0  0  0  0  0  0  0  0  0  0  0
    6.8578   -1.5831   22.8631 H   0  0  0  0  0  0  0  0  0  0  0  0
    6.9736   -3.0094   21.2299 C   0  0  0  0  0  0  0  0  0  0  0  0
    6.9317   -2.9368   20.1368 H   0  0  0  0  0  0  0  0  0  0  0  0
    6.1673   -3.6951   21.5202 H   0  0  0  0  0  0  0  0  0  0  0  0
    8.2845   -3.5883   21.6418 N   0  0  0  0  0  0  0  0  0  0  0  0
    8.2053   -4.6823   22.5308 C   0  0  0  0  0  0  0  0  0  0  0  0
    9.1927   -5.0635   22.8085 H   0  0  0  0  0  0  0  0  0  0  0  0
    7.5034   -5.6979   21.9692 F   0  0  0  0  0  0  0  0  0  0  0  0
    7.5440   -4.3234   23.6803 F   0  0  0  0  0  0  0  0  0  0  0  0
    9.3266   -2.6268   22.0556 C   0  0  0  0  0  0  0  0  0  0  0  0
    9.0848   -2.1866   23.0436 H   0  0  0  0  0  0  0  0  0  0  0  0
   10.2598   -3.1792   22.2182 H   0  0  0  0  0  0  0  0  0  0  0  0
    9.5468   -1.5171   21.0261 C   0  0  0  0  0  0  0  0  0  0  0  0
    9.3140   -1.9109   20.0308 H   0  0  0  0  0  0  0  0  0  0  0  0
   10.6005   -1.2162   21.0026 H   0  0  0  0  0  0  0  0  0  0  0  0
    8.6867   -0.2764   21.2994 C   0  0  0  0  0  0  0  0  0  0  0  0
    9.0144    0.5626   20.6684 H   0  0  0  0  0  0  0  0  0  0  0  0
    8.8517    0.0478   22.3431 H   0  0  0  0  0  0  0  0  0  0  0  0
    5.3544    0.6774   20.1059 C   0  0  0  0  0  0  0  0  0  0  0  0
    4.8961    0.6850   21.0956 H   0  0  0  0  0  0  0  0  0  0  0  0
    4.7604    1.3085   19.0102 C   0  0  0  0  0  0  0  0  0  0  0  0
    3.8131    1.8272   19.1148 H   0  0  0  0  0  0  0  0  0  0  0  0
  1  2  1  0
  2  3  2  0
  3  4  1  0
  4  5  1  0
  4  6  2  0
  6  7  1  0
  7  8  1  0
  8  9  1  0
  8 10  1  0
  8 11  1  0
 11 12  1  0
 11 13  1  0
 11 14  1  0
 14 15  1  0
 15 16  1  0
 15 17  1  0
 15 18  1  0
 14 19  1  0
 19 20  1  0
 19 21  1  0
 19 22  1  0
 22 23  1  0
 22 24  1  0
 22 25  1  0
 25 26  1  0
 25 27  1  0
  6 28  1  0
 28 29  1  0
 28 30  2  0
 30 31  1  0
 30  2  1  0
 25  7  1  0
M  END
>  <cnnaffinity>  (1) 
-4.61786

>  <filename>  (1) 
FC(F)N1CCCN(c2cccnc2)CC1

$$$$
