
     RDKit          3D

 31 33  0  0  0  0  0  0  0  0999 V2000
    5.4704    2.7656   15.6829 H   0  0  0  0  0  0  0  0  0  0  0  0
    5.6814    2.2857   16.6308 C   0  0  0  0  0  0  0  0  0  0  0  0
    6.7911    1.5331   16.6965 N   0  0  0  0  0  0  0  0  0  0  0  0
    7.0454    0.9309   17.8606 C   0  0  0  0  0  0  0  0  0  0  0  0
    7.9693    0.3548   17.9242 H   0  0  0  0  0  0  0  0  0  0  0  0
    6.1955    1.0147   18.9772 C   0  0  0  0  0  0  0  0  0  0  0  0
    6.5207    0.2133   20.1527 C   0  0  0  0  0  0  0  0  0  0  0  0
    7.8154   -0.2175   20.3300 N   0  0  0  0  0  0  0  0  0  0  0  0
    7.9050   -0.9590   21.3942 C   0  0  0  0  0  0  0  0  0  0  0  0
    9.1292   -1.5816   21.9229 C   0  0  0  0  0  0  0  0  0  0  0  0
    9.0408   -2.6344   22.8553 C   0  0  0  0  0  0  0  0  0  0  0  0
    8.0803   -2.9717   23.2451 H   0  0  0  0  0  0  0  0  0  0  0  0
   10.1949   -3.2629   23.2995 C   0  0  0  0  0  0  0  0  0  0  0  0
   10.1289   -4.1041   23.9811 H   0  0  0  0  0  0  0  0  0  0  0  0
   11.4445   -2.8043   22.8847 C   0  0  0  0  0  0  0  0  0  0  0  0
   12.3400   -3.3488   23.1226 H   0  0  0  0  0  0  0  0  0  0  0  0
   11.5226   -1.6694   22.0838 C   0  0  0  0  0  0  0  0  0  0  0  0
   12.7401   -1.0518   21.8090 O   0  0  0  0  0  0  0  0  0  0  0  0
   13.6624   -1.7513   21.1227 C   0  0  0  0  0  0  0  0  0  0  0  0
   14.6122   -0.9125   20.7617 F   0  0  0  0  0  0  0  0  0  0  0  0
   14.2158   -2.7215   21.8635 F   0  0  0  0  0  0  0  0  0  0  0  0
   13.1812   -2.3290   20.0176 F   0  0  0  0  0  0  0  0  0  0  0  0
   10.3871   -1.0933   21.5324 C   0  0  0  0  0  0  0  0  0  0  0  0
   10.4865   -0.3011   20.7966 H   0  0  0  0  0  0  0  0  0  0  0  0
    6.4082   -1.1884   22.2339 S   0  0  0  0  0  0  0  0  0  0  0  0
    5.6179   -0.2220   21.0714 C   0  0  0  0  0  0  0  0  0  0  0  0
    4.5539   -0.0411   21.0927 H   0  0  0  0  0  0  0  0  0  0  0  0
    5.0504    1.8283   18.9036 C   0  0  0  0  0  0  0  0  0  0  0  0
    4.3879    1.9953   19.7600 H   0  0  0  0  0  0  0  0  0  0  0  0
    4.7973    2.4683   17.6987 C   0  0  0  0  0  0  0  0  0  0  0  0
    3.9413    3.1243   17.5797 H   0  0  0  0  0  0  0  0  0  0  0  0
  1  2  1  0
  2  3  2  0
  3  4  1  0
  4  5  1  0
  4  6  2  0
  6  7  1  0
  7  8  1  0
  8  9  2  0
  9 10  1  0
 10 11  2  0
 11 12  1  0
 11 13  1  0
 13 14  1  0
 13 15  2  0
 15 16  1  0
 15 17  1  0
 17 18  1  0
 18 19  1  0
 19 20  1  0
 19 21  1  0
 19 22  1  0
 17 23  2  0
 23 24  1  0
  9 25  1  0
 25 26  1  0
 26 27  1  0
  6 28  1  0
 28 29  1  0
 28 30  2  0
 30 31  1  0
 30  2  1  0
 26  7  2  0
 23 10  1  0
M  END
>  <cnnaffinity>  (1) 
-5.597

>  <filename>  (1) 
FC(F)(F)Oc1cccc(-c2nc(-c3cccnc3)cs2)c1

$$$$
