
     RDKit          3D

 41 45  0  0  0  0  0  0  0  0999 V2000
   11.9406    3.5024   22.7608 F   0  0  0  0  0  0  0  0  0  0  0  0
   11.3605    2.4779   22.0911 C   0  0  0  0  0  0  0  0  0  0  0  0
   11.9609    1.3369   22.5232 F   0  0  0  0  0  0  0  0  0  0  0  0
    9.9414    2.4285   22.3112 N   0  0  0  0  0  0  0  0  0  0  0  0
    9.1996    1.8670   23.3206 C   0  0  0  0  0  0  0  0  0  0  0  0
    7.8823    1.9267   22.9284 C   0  0  0  0  0  0  0  0  0  0  0  0
    6.7232    1.0785   23.4421 C   0  0  0  0  0  0  0  0  0  0  0  0
    6.8100   -0.3200   22.8749 C   0  0  0  0  0  0  0  0  0  0  0  0
    7.3244   -1.3526   23.5114 N   0  0  0  0  0  0  0  0  0  0  0  0
    7.5909   -2.2331   22.5077 C   0  0  0  0  0  0  0  0  0  0  0  0
    8.2705   -3.5205   22.6480 C   0  0  0  0  0  0  0  0  0  0  0  0
    9.0319   -3.9033   23.9189 C   0  0  0  0  0  0  0  0  0  0  0  0
    7.7412   -4.5693   23.5587 C   0  0  0  0  0  0  0  0  0  0  0  0
    6.4436   -4.9963   24.1474 C   0  0  0  0  0  0  0  0  0  0  0  0
    7.2524   -5.9232   23.2347 C   0  0  0  0  0  0  0  0  0  0  0  0
    6.8623   -6.0585   22.2264 H   0  0  0  0  0  0  0  0  0  0  0  0
    7.8433   -6.7409   23.6302 H   0  0  0  0  0  0  0  0  0  0  0  0
    6.3803   -5.2093   25.2137 H   0  0  0  0  0  0  0  0  0  0  0  0
    5.5748   -4.5039   23.7107 H   0  0  0  0  0  0  0  0  0  0  0  0
    9.9298   -4.5115   23.8127 H   0  0  0  0  0  0  0  0  0  0  0  0
    9.0438   -3.1786   24.7347 H   0  0  0  0  0  0  0  0  0  0  0  0
    8.6190   -3.8848   21.6816 H   0  0  0  0  0  0  0  0  0  0  0  0
    7.2594   -1.8160   21.3047 N   0  0  0  0  0  0  0  0  0  0  0  0
    6.7121   -0.5991   21.5342 N   0  0  0  0  0  0  0  0  0  0  0  0
    6.2447    0.1370   20.4177 C   0  0  0  0  0  0  0  0  0  0  0  0
    5.1111    0.9478   20.4731 C   0  0  0  0  0  0  0  0  0  0  0  0
    4.7606    1.6632   19.3268 C   0  0  0  0  0  0  0  0  0  0  0  0
    5.5330    1.5306   18.1690 C   0  0  0  0  0  0  0  0  0  0  0  0
    6.6138    0.7318   18.1022 N   0  0  0  0  0  0  0  0  0  0  0  0
    6.9522    0.0534   19.2011 C   0  0  0  0  0  0  0  0  0  0  0  0
    7.8368   -0.5759   19.1431 H   0  0  0  0  0  0  0  0  0  0  0  0
    5.2664    2.0639   17.2591 H   0  0  0  0  0  0  0  0  0  0  0  0
    3.8950    2.3158   19.3255 H   0  0  0  0  0  0  0  0  0  0  0  0
    4.5157    0.9987   21.3820 H   0  0  0  0  0  0  0  0  0  0  0  0
    5.7577    1.5151   23.1737 H   0  0  0  0  0  0  0  0  0  0  0  0
    6.7625    0.9881   24.5291 H   0  0  0  0  0  0  0  0  0  0  0  0
    7.9188    2.6088   21.6926 C   0  0  0  0  0  0  0  0  0  0  0  0
    9.1495    2.8658   21.3103 N   0  0  0  0  0  0  0  0  0  0  0  0
    7.0822    2.8745   21.0622 H   0  0  0  0  0  0  0  0  0  0  0  0
    9.6635    1.4790   24.2226 H   0  0  0  0  0  0  0  0  0  0  0  0
   11.5005    2.6076   21.0190 H   0  0  0  0  0  0  0  0  0  0  0  0
  1  2  1  0
  2  3  1  0
  2  4  1  0
  4  5  1  0
  5  6  2  0
  6  7  1  0
  7  8  1  0
  8  9  2  0
  9 10  1  0
 10 11  1  0
 11 12  1  0
 12 13  1  0
 13 14  1  0
 14 15  1  0
 15 16  1  0
 15 17  1  0
 14 18  1  0
 14 19  1  0
 12 20  1  0
 12 21  1  0
 11 22  1  0
 10 23  2  0
 23 24  1  0
 24 25  1  0
 25 26  2  0
 26 27  1  0
 27 28  2  0
 28 29  1  0
 29 30  2  0
 30 31  1  0
 28 32  1  0
 27 33  1  0
 26 34  1  0
  7 35  1  0
  7 36  1  0
  6 37  1  0
 37 38  2  0
 37 39  1  0
  5 40  1  0
  2 41  1  0
 38  4  1  0
 24  8  1  0
 30 25  1  0
 13 11  1  0
 15 13  1  0
M  END
>  <cnnaffinity>  (1) 
-6.39526

>  <filename>  (1) 
FC(F)n1cc(Cc2nc(C3CC34CC4)nn2-c2cccnc2)cn1

$$$$
