
     RDKit          3D

 26 27  0  0  0  0  0  0  0  0999 V2000
    4.9172    1.8420   17.0151 H   0  0  0  0  0  0  0  0  0  0  0  0
    5.4048    1.3058   17.8261 C   0  0  0  0  0  0  0  0  0  0  0  0
    6.5576    0.6884   17.5229 N   0  0  0  0  0  0  0  0  0  0  0  0
    7.1924    0.0417   18.5154 C   0  0  0  0  0  0  0  0  0  0  0  0
    8.1191   -0.4638   18.2513 H   0  0  0  0  0  0  0  0  0  0  0  0
    6.7116   -0.0259   19.8527 C   0  0  0  0  0  0  0  0  0  0  0  0
    7.3337   -0.6639   20.9291 N   0  0  0  0  0  0  0  0  0  0  0  0
    6.7071   -1.0306   21.6277 H   0  0  0  0  0  0  0  0  0  0  0  0
    8.6912   -0.7976   21.2015 C   0  0  0  0  0  0  0  0  0  0  0  0
    9.5901    0.2536   21.0053 C   0  0  0  0  0  0  0  0  0  0  0  0
    9.1929    1.2065   20.6731 H   0  0  0  0  0  0  0  0  0  0  0  0
   10.9518    0.0672   21.2556 C   0  0  0  0  0  0  0  0  0  0  0  0
   11.6412    0.8982   21.1177 H   0  0  0  0  0  0  0  0  0  0  0  0
   11.4192   -1.1789   21.6806 C   0  0  0  0  0  0  0  0  0  0  0  0
   12.4758   -1.3434   21.8609 H   0  0  0  0  0  0  0  0  0  0  0  0
   10.5192   -2.2176   21.9254 C   0  0  0  0  0  0  0  0  0  0  0  0
   10.8792   -3.1657   22.3207 H   0  0  0  0  0  0  0  0  0  0  0  0
    9.1484   -2.0224   21.7176 C   0  0  0  0  0  0  0  0  0  0  0  0
    8.1149   -3.0591   22.0607 C   0  0  0  0  0  0  0  0  0  0  0  0
    7.2462   -2.6008   23.0067 F   0  0  0  0  0  0  0  0  0  0  0  0
    7.3507   -3.4139   21.0103 F   0  0  0  0  0  0  0  0  0  0  0  0
    8.6461   -4.1904   22.5517 F   0  0  0  0  0  0  0  0  0  0  0  0
    5.4836    0.5821   20.1298 C   0  0  0  0  0  0  0  0  0  0  0  0
    5.0987    0.5290   21.1518 H   0  0  0  0  0  0  0  0  0  0  0  0
    4.8329    1.2702   19.1052 C   0  0  0  0  0  0  0  0  0  0  0  0
    3.9015    1.7841   19.2973 H   0  0  0  0  0  0  0  0  0  0  0  0
  1  2  1  0
  2  3  2  0
  3  4  1  0
  4  5  1  0
  4  6  2  0
  6  7  1  0
  7  8  1  0
  7  9  1  0
  9 10  2  0
 10 11  1  0
 10 12  1  0
 12 13  1  0
 12 14  2  0
 14 15  1  0
 14 16  1  0
 16 17  1  0
 16 18  2  0
 18 19  1  0
 19 20  1  0
 19 21  1  0
 19 22  1  0
  6 23  1  0
 23 24  1  0
 23 25  2  0
 25 26  1  0
 25  2  1  0
 18  9  1  0
M  END
>  <cnnaffinity>  (1) 
-4.74409

>  <filename>  (1) 
FC(F)(F)c1ccccc1Nc1cccnc1

$$$$
