
     RDKit          3D

 34 36  0  0  0  0  0  0  0  0999 V2000
    8.1840    0.9331   20.5834 H   0  0  0  0  0  0  0  0  0  0  0  0
    8.5863    0.0381   21.0547 C   0  0  0  0  0  0  0  0  0  0  0  0
    7.7867   -1.0221   21.2857 C   0  0  0  0  0  0  0  0  0  0  0  0
    6.3694   -1.1645   20.8045 C   0  0  0  0  0  0  0  0  0  0  0  0
    5.8210   -0.3577   19.6867 C   0  0  0  0  0  0  0  0  0  0  0  0
    6.5126   -0.3563   18.4698 C   0  0  0  0  0  0  0  0  0  0  0  0
    7.3497   -1.0398   18.3297 H   0  0  0  0  0  0  0  0  0  0  0  0
    6.2259    0.4562   17.4466 N   0  0  0  0  0  0  0  0  0  0  0  0
    5.1979    1.3014   17.6111 C   0  0  0  0  0  0  0  0  0  0  0  0
    5.0177    1.9939   16.7896 H   0  0  0  0  0  0  0  0  0  0  0  0
    4.3901    1.3228   18.7547 C   0  0  0  0  0  0  0  0  0  0  0  0
    3.5606    2.0212   18.8013 H   0  0  0  0  0  0  0  0  0  0  0  0
    4.6869    0.4597   19.8126 C   0  0  0  0  0  0  0  0  0  0  0  0
    4.0639    0.4283   20.7085 H   0  0  0  0  0  0  0  0  0  0  0  0
    5.6970   -2.0432   21.4376 N   0  0  0  0  0  0  0  0  0  0  0  0
    6.5201   -2.5557   22.5486 C   0  0  0  0  0  0  0  0  0  0  0  0
    6.1795   -2.0674   23.4738 H   0  0  0  0  0  0  0  0  0  0  0  0
    6.3499   -3.6264   22.6641 H   0  0  0  0  0  0  0  0  0  0  0  0
    7.9930   -2.1769   22.2533 C   0  0  0  0  0  0  0  0  0  0  0  0
    8.5132   -3.0112   21.7624 H   0  0  0  0  0  0  0  0  0  0  0  0
    8.5571   -1.9071   23.1532 H   0  0  0  0  0  0  0  0  0  0  0  0
    9.9709    0.2012   21.4967 C   0  0  0  0  0  0  0  0  0  0  0  0
   10.3487    1.4810   21.7004 N   0  0  0  0  0  0  0  0  0  0  0  0
   11.5441    1.6981   22.2206 C   0  0  0  0  0  0  0  0  0  0  0  0
   11.8162    2.7388   22.3933 H   0  0  0  0  0  0  0  0  0  0  0  0
   12.4376    0.6713   22.5225 C   0  0  0  0  0  0  0  0  0  0  0  0
   13.6975    0.9957   23.2309 C   0  0  0  0  0  0  0  0  0  0  0  0
   13.7446    0.4220   24.4497 F   0  0  0  0  0  0  0  0  0  0  0  0
   14.7669    0.5534   22.5492 F   0  0  0  0  0  0  0  0  0  0  0  0
   13.8467    2.3185   23.4064 F   0  0  0  0  0  0  0  0  0  0  0  0
   12.1260   -0.6463   22.1656 C   0  0  0  0  0  0  0  0  0  0  0  0
   12.8469   -1.4533   22.2905 H   0  0  0  0  0  0  0  0  0  0  0  0
   10.8508   -0.8829   21.6870 C   0  0  0  0  0  0  0  0  0  0  0  0
   10.5258   -1.8883   21.4565 H   0  0  0  0  0  0  0  0  0  0  0  0
  1  2  1  0
  2  3  2  3
  3  4  1  0
  4  5  1  0
  5  6  2  0
  6  7  1  0
  6  8  1  0
  8  9  2  0
  9 10  1  0
  9 11  1  0
 11 12  1  0
 11 13  2  0
 13 14  1  0
  4 15  2  0
 15 16  1  0
 16 17  1  0
 16 18  1  0
 16 19  1  0
 19 20  1  0
 19 21  1  0
  2 22  1  0
 22 23  2  0
 23 24  1  0
 24 25  1  0
 24 26  2  0
 26 27  1  0
 27 28  1  0
 27 29  1  0
 27 30  1  0
 26 31  1  0
 31 32  1  0
 31 33  2  0
 33 34  1  0
 19  3  1  0
 33 22  1  0
 13  5  1  0
M  END
>  <cnnaffinity>  (1) 
-5.65676

>  <filename>  (1) 
FC(F)(F)c1ccc(C=C2CCN=C2c2cccnc2)nc1

$$$$
