
     RDKit          3D

 18 18  0  0  0  0  0  0  0  0999 V2000
    8.5639    0.6348   21.2973 H   0  0  0  0  0  0  0  0  0  0  0  0
    8.0809   -0.3251   21.5151 C   0  0  0  0  0  0  0  0  0  0  0  0
    7.0654   -0.7396   20.8562 N   0  0  0  0  0  0  0  0  0  0  0  0
    6.5806    0.0646   19.7960 C   0  0  0  0  0  0  0  0  0  0  0  0
    7.1878    0.0803   18.5206 C   0  0  0  0  0  0  0  0  0  0  0  0
    8.1235   -0.4537   18.3647 H   0  0  0  0  0  0  0  0  0  0  0  0
    6.6754    0.7108   17.4550 N   0  0  0  0  0  0  0  0  0  0  0  0
    5.5194    1.3774   17.6255 C   0  0  0  0  0  0  0  0  0  0  0  0
    5.1049    1.8487   16.7363 H   0  0  0  0  0  0  0  0  0  0  0  0
    4.8601    1.4716   18.8558 C   0  0  0  0  0  0  0  0  0  0  0  0
    3.9371    2.0431   18.9414 H   0  0  0  0  0  0  0  0  0  0  0  0
    5.4029    0.8136   19.9667 C   0  0  0  0  0  0  0  0  0  0  0  0
    4.9506    0.8674   20.9561 H   0  0  0  0  0  0  0  0  0  0  0  0
    8.8531   -1.1876   22.8065 S   0  0  0  0  0  0  0  0  0  0  0  0
    8.0347   -2.8146   22.5938 C   0  0  0  0  0  0  0  0  0  0  0  0
    8.4724   -3.4026   21.4829 F   0  0  0  0  0  0  0  0  0  0  0  0
    6.7210   -2.7313   22.5581 F   0  0  0  0  0  0  0  0  0  0  0  0
    8.3805   -3.5810   23.6365 F   0  0  0  0  0  0  0  0  0  0  0  0
  1  2  1  0
  2  3  2  3
  3  4  1  0
  4  5  2  0
  5  6  1  0
  5  7  1  0
  7  8  2  0
  8  9  1  0
  8 10  1  0
 10 11  1  0
 10 12  2  0
 12 13  1  0
  2 14  1  0
 14 15  1  0
 15 16  1  0
 15 17  1  0
 15 18  1  0
 12  4  1  0
M  END
>  <cnnaffinity>  (1) 
-4.01796

>  <filename>  (1) 
FC(F)(F)SC=Nc1cccnc1

$$$$
