
     RDKit          3D

 21 22  0  0  0  0  0  0  0  0999 V2000
    4.9071    1.7723   17.0051 H   0  0  0  0  0  0  0  0  0  0  0  0
    5.4009    1.2904   17.8466 C   0  0  0  0  0  0  0  0  0  0  0  0
    6.5708    0.6787   17.5960 N   0  0  0  0  0  0  0  0  0  0  0  0
    7.1874    0.0542   18.6022 C   0  0  0  0  0  0  0  0  0  0  0  0
    8.1329   -0.4377   18.3803 H   0  0  0  0  0  0  0  0  0  0  0  0
    6.6670    0.0010   19.9067 C   0  0  0  0  0  0  0  0  0  0  0  0
    7.3670   -0.6885   20.9387 N   0  0  0  0  0  0  0  0  0  0  0  0
    8.2901   -1.6386   20.6744 N   0  0  0  0  0  0  0  0  0  0  0  0
    8.7235   -2.0541   21.8460 C   0  0  0  0  0  0  0  0  0  0  0  0
    9.4625   -2.8367   21.9511 H   0  0  0  0  0  0  0  0  0  0  0  0
    8.0951   -1.3626   22.8891 C   0  0  0  0  0  0  0  0  0  0  0  0
    8.2477   -1.5912   24.3372 C   0  0  0  0  0  0  0  0  0  0  0  0
    7.3811   -2.5217   24.7814 F   0  0  0  0  0  0  0  0  0  0  0  0
    9.4845   -2.0156   24.6474 F   0  0  0  0  0  0  0  0  0  0  0  0
    8.0158   -0.4644   25.0374 F   0  0  0  0  0  0  0  0  0  0  0  0
    7.2267   -0.4993   22.2758 C   0  0  0  0  0  0  0  0  0  0  0  0
    6.5492    0.2193   22.7219 H   0  0  0  0  0  0  0  0  0  0  0  0
    5.4490    0.6485   20.1646 C   0  0  0  0  0  0  0  0  0  0  0  0
    5.0032    0.6276   21.1559 H   0  0  0  0  0  0  0  0  0  0  0  0
    4.8092    1.3084   19.1128 C   0  0  0  0  0  0  0  0  0  0  0  0
    3.8737    1.8439   19.2693 H   0  0  0  0  0  0  0  0  0  0  0  0
  1  2  1  0
  2  3  2  0
  3  4  1  0
  4  5  1  0
  4  6  2  0
  6  7  1  0
  7  8  1  0
  8  9  2  0
  9 10  1  0
  9 11  1  0
 11 12  1  0
 12 13  1  0
 12 14  1  0
 12 15  1  0
 11 16  2  0
 16 17  1  0
  6 18  1  0
 18 19  1  0
 18 20  2  0
 20 21  1  0
 20  2  1  0
 16  7  1  0
M  END
>  <cnnaffinity>  (1) 
-4.39998

>  <filename>  (1) 
FC(F)(F)c1cnn(-c2cccnc2)c1

$$$$
