
     RDKit          3D

 43 46  0  0  0  0  0  0  0  0999 V2000
    5.7110   -1.5338   27.6628 F   0  0  0  0  0  0  0  0  0  0  0  0
    5.3896   -1.3208   26.3673 C   0  0  0  0  0  0  0  0  0  0  0  0
    5.7454   -2.4190   25.6793 F   0  0  0  0  0  0  0  0  0  0  0  0
    4.0504   -1.2356   26.3096 F   0  0  0  0  0  0  0  0  0  0  0  0
    6.0749   -0.0712   25.8515 C   0  0  0  0  0  0  0  0  0  0  0  0
    5.9799    0.2803   24.5679 N   0  0  0  0  0  0  0  0  0  0  0  0
    6.6826    1.4033   24.4520 N   0  0  0  0  0  0  0  0  0  0  0  0
    7.0122    1.8941   23.1208 C   0  0  0  0  0  0  0  0  0  0  0  0
    8.0400    1.0023   22.5172 C   0  0  0  0  0  0  0  0  0  0  0  0
    9.3325    1.1556   22.6606 N   0  0  0  0  0  0  0  0  0  0  0  0
    9.8431    0.0452   22.0563 C   0  0  0  0  0  0  0  0  0  0  0  0
   11.2895   -0.2129   21.9786 C   0  0  0  0  0  0  0  0  0  0  0  0
   12.1710    0.7477   22.5104 C   0  0  0  0  0  0  0  0  0  0  0  0
   13.5248    0.4539   22.6427 C   0  0  0  0  0  0  0  0  0  0  0  0
   14.0083   -0.7753   22.1878 C   0  0  0  0  0  0  0  0  0  0  0  0
   13.1548   -1.6894   21.5631 C   0  0  0  0  0  0  0  0  0  0  0  0
   11.7932   -1.4159   21.4459 C   0  0  0  0  0  0  0  0  0  0  0  0
   11.1118   -2.1256   20.9767 H   0  0  0  0  0  0  0  0  0  0  0  0
   13.5757   -2.6117   21.1851 H   0  0  0  0  0  0  0  0  0  0  0  0
   15.0379   -1.0512   22.3505 H   0  0  0  0  0  0  0  0  0  0  0  0
   14.1935    1.1771   23.1011 H   0  0  0  0  0  0  0  0  0  0  0  0
   11.7622    1.6988   22.8493 H   0  0  0  0  0  0  0  0  0  0  0  0
    8.9247   -0.7636   21.5554 N   0  0  0  0  0  0  0  0  0  0  0  0
    7.7646   -0.1585   21.8868 N   0  0  0  0  0  0  0  0  0  0  0  0
    6.4890   -0.6556   21.3836 C   0  0  0  0  0  0  0  0  0  0  0  0
    6.0748    0.0054   20.0810 C   0  0  0  0  0  0  0  0  0  0  0  0
    4.9107    0.7710   19.9607 C   0  0  0  0  0  0  0  0  0  0  0  0
    4.6812    1.4743   18.7749 C   0  0  0  0  0  0  0  0  0  0  0  0
    5.6282    1.3898   17.7527 C   0  0  0  0  0  0  0  0  0  0  0  0
    6.7259    0.6225   17.8251 N   0  0  0  0  0  0  0  0  0  0  0  0
    6.9318   -0.0436   18.9658 C   0  0  0  0  0  0  0  0  0  0  0  0
    7.8473   -0.6308   19.0184 H   0  0  0  0  0  0  0  0  0  0  0  0
    5.5174    1.9818   16.8463 H   0  0  0  0  0  0  0  0  0  0  0  0
    3.8112    2.1092   18.6465 H   0  0  0  0  0  0  0  0  0  0  0  0
    4.2086    0.8447   20.7937 H   0  0  0  0  0  0  0  0  0  0  0  0
    6.6122   -1.7408   21.2964 H   0  0  0  0  0  0  0  0  0  0  0  0
    5.7515   -0.4508   22.1625 H   0  0  0  0  0  0  0  0  0  0  0  0
    6.1071    1.9141   22.5116 H   0  0  0  0  0  0  0  0  0  0  0  0
    7.4158    2.9030   23.2205 H   0  0  0  0  0  0  0  0  0  0  0  0
    7.2658    1.7593   25.6208 C   0  0  0  0  0  0  0  0  0  0  0  0
    6.8874    0.8359   26.5677 C   0  0  0  0  0  0  0  0  0  0  0  0
    7.1639    0.7882   27.6144 H   0  0  0  0  0  0  0  0  0  0  0  0
    7.8827    2.6483   25.6671 H   0  0  0  0  0  0  0  0  0  0  0  0
  1  2  1  0
  2  3  1  0
  2  4  1  0
  2  5  1  0
  5  6  2  0
  6  7  1  0
  7  8  1  0
  8  9  1  0
  9 10  2  0
 10 11  1  0
 11 12  1  0
 12 13  2  0
 13 14  1  0
 14 15  2  0
 15 16  1  0
 16 17  2  0
 17 18  1  0
 16 19  1  0
 15 20  1  0
 14 21  1  0
 13 22  1  0
 11 23  2  0
 23 24  1  0
 24 25  1  0
 25 26  1  0
 26 27  2  0
 27 28  1  0
 28 29  2  0
 29 30  1  0
 30 31  2  0
 31 32  1  0
 29 33  1  0
 28 34  1  0
 27 35  1  0
 25 36  1  0
 25 37  1  0
  8 38  1  0
  8 39  1  0
  7 40  1  0
 40 41  2  0
 41 42  1  0
 40 43  1  0
 41  5  1  0
 24  9  1  0
 31 26  1  0
 17 12  1  0
M  END
>  <cnnaffinity>  (1) 
-6.4866

>  <filename>  (1) 
FC(F)(F)c1ccn(Cc2nc(-c3ccccc3)nn2Cc2cccnc2)n1

$$$$
