
     RDKit          3D

 32 34  0  0  0  0  0  0  0  0999 V2000
    4.9198    1.7827   16.9968 H   0  0  0  0  0  0  0  0  0  0  0  0
    5.4010    1.2941   17.8397 C   0  0  0  0  0  0  0  0  0  0  0  0
    6.5637    0.6801   17.5788 N   0  0  0  0  0  0  0  0  0  0  0  0
    7.1663    0.0554   18.5920 C   0  0  0  0  0  0  0  0  0  0  0  0
    8.1132   -0.4347   18.3749 H   0  0  0  0  0  0  0  0  0  0  0  0
    6.6467    0.0184   19.8933 C   0  0  0  0  0  0  0  0  0  0  0  0
    7.4072   -0.7035   20.9102 C   0  0  0  0  0  0  0  0  0  0  0  0
    7.8409   -1.9407   20.8357 N   0  0  0  0  0  0  0  0  0  0  0  0
    8.4753   -2.1864   21.9986 N   0  0  0  0  0  0  0  0  0  0  0  0
    8.4633   -1.1492   22.7585 N   0  0  0  0  0  0  0  0  0  0  0  0
    7.7935   -0.1861   22.0972 N   0  0  0  0  0  0  0  0  0  0  0  0
    7.6186    1.1620   22.6425 C   0  0  0  0  0  0  0  0  0  0  0  0
    8.4491    1.3468   23.3255 H   0  0  0  0  0  0  0  0  0  0  0  0
    7.7124    1.8599   21.8114 H   0  0  0  0  0  0  0  0  0  0  0  0
    6.2933    1.3803   23.3854 C   0  0  0  0  0  0  0  0  0  0  0  0
    5.7795    0.3419   24.1695 C   0  0  0  0  0  0  0  0  0  0  0  0
    6.3212   -0.5986   24.2039 H   0  0  0  0  0  0  0  0  0  0  0  0
    4.5652    0.4755   24.8484 C   0  0  0  0  0  0  0  0  0  0  0  0
    4.1710   -0.3723   25.4015 H   0  0  0  0  0  0  0  0  0  0  0  0
    3.8430    1.6641   24.7606 C   0  0  0  0  0  0  0  0  0  0  0  0
    2.8896    1.7677   25.2690 H   0  0  0  0  0  0  0  0  0  0  0  0
    4.3570    2.7299   24.0214 C   0  0  0  0  0  0  0  0  0  0  0  0
    3.8102    3.6712   23.9778 H   0  0  0  0  0  0  0  0  0  0  0  0
    5.5923    2.6089   23.3590 C   0  0  0  0  0  0  0  0  0  0  0  0
    6.1454    3.8145   22.6075 C   0  0  0  0  0  0  0  0  0  0  0  0
    6.1154    3.6303   21.2719 F   0  0  0  0  0  0  0  0  0  0  0  0
    5.4634    4.9478   22.8561 F   0  0  0  0  0  0  0  0  0  0  0  0
    7.4368    4.0641   22.9188 F   0  0  0  0  0  0  0  0  0  0  0  0
    5.4296    0.6583   20.1579 C   0  0  0  0  0  0  0  0  0  0  0  0
    5.0061    0.6419   21.1669 H   0  0  0  0  0  0  0  0  0  0  0  0
    4.7969    1.3115   19.1029 C   0  0  0  0  0  0  0  0  0  0  0  0
    3.8647    1.8441   19.2506 H   0  0  0  0  0  0  0  0  0  0  0  0
  1  2  1  0
  2  3  2  0
  3  4  1  0
  4  5  1  0
  4  6  2  0
  6  7  1  0
  7  8  2  0
  8  9  1  0
  9 10  2  0
 10 11  1  0
 11 12  1  0
 12 13  1  0
 12 14  1  0
 12 15  1  0
 15 16  2  0
 16 17  1  0
 16 18  1  0
 18 19  1  0
 18 20  2  0
 20 21  1  0
 20 22  1  0
 22 23  1  0
 22 24  2  0
 24 25  1  0
 25 26  1  0
 25 27  1  0
 25 28  1  0
  6 29  1  0
 29 30  1  0
 29 31  2  0
 31 32  1  0
 31  2  1  0
 11  7  1  0
 24 15  1  0
M  END
>  <cnnaffinity>  (1) 
-5.47797

>  <filename>  (1) 
FC(F)(F)c1ccccc1Cn1nnnc1-c1cccnc1

$$$$
