
     RDKit          3D

 30 32  0  0  0  0  0  0  0  0999 V2000
    4.9192    1.7866   16.9935 H   0  0  0  0  0  0  0  0  0  0  0  0
    5.3999    1.2957   17.8375 C   0  0  0  0  0  0  0  0  0  0  0  0
    6.5649    0.6791   17.5758 N   0  0  0  0  0  0  0  0  0  0  0  0
    7.1687    0.0609   18.5935 C   0  0  0  0  0  0  0  0  0  0  0  0
    8.1143   -0.4273   18.3703 H   0  0  0  0  0  0  0  0  0  0  0  0
    6.6635    0.0027   19.9084 C   0  0  0  0  0  0  0  0  0  0  0  0
    7.3782   -0.7052   20.9908 C   0  0  0  0  0  0  0  0  0  0  0  0
    8.1220   -2.2374   20.8056 S   0  0  0  0  0  0  0  0  0  0  0  0
    8.5715   -2.4319   22.3816 N   0  0  0  0  0  0  0  0  0  0  0  0
    8.1941   -1.3780   23.0469 C   0  0  0  0  0  0  0  0  0  0  0  0
    8.4424   -1.3298   24.1039 H   0  0  0  0  0  0  0  0  0  0  0  0
    7.5209   -0.3470   22.3144 C   0  0  0  0  0  0  0  0  0  0  0  0
    7.1184    0.9256   22.9171 C   0  0  0  0  0  0  0  0  0  0  0  0
    6.4711    0.9352   24.1609 C   0  0  0  0  0  0  0  0  0  0  0  0
    6.2634   -0.0119   24.6518 H   0  0  0  0  0  0  0  0  0  0  0  0
    6.0878    2.1318   24.7484 C   0  0  0  0  0  0  0  0  0  0  0  0
    5.5854    2.1176   25.7133 H   0  0  0  0  0  0  0  0  0  0  0  0
    6.3660    3.3468   24.0958 C   0  0  0  0  0  0  0  0  0  0  0  0
    5.9079    4.6524   24.7064 C   0  0  0  0  0  0  0  0  0  0  0  0
    5.8854    4.6085   26.0542 F   0  0  0  0  0  0  0  0  0  0  0  0
    6.6986    5.6874   24.3603 F   0  0  0  0  0  0  0  0  0  0  0  0
    4.6582    4.9700   24.3121 F   0  0  0  0  0  0  0  0  0  0  0  0
    7.0083    3.3459   22.8455 C   0  0  0  0  0  0  0  0  0  0  0  0
    7.2048    4.2765   22.3169 H   0  0  0  0  0  0  0  0  0  0  0  0
    7.3908    2.1424   22.2696 C   0  0  0  0  0  0  0  0  0  0  0  0
    7.8806    2.1221   21.3006 H   0  0  0  0  0  0  0  0  0  0  0  0
    5.4348    0.6421   20.1535 C   0  0  0  0  0  0  0  0  0  0  0  0
    5.0174    0.6336   21.1628 H   0  0  0  0  0  0  0  0  0  0  0  0
    4.8024    1.3055   19.1021 C   0  0  0  0  0  0  0  0  0  0  0  0
    3.8736    1.8422   19.2540 H   0  0  0  0  0  0  0  0  0  0  0  0
  1  2  1  0
  2  3  2  0
  3  4  1  0
  4  5  1  0
  4  6  2  0
  6  7  1  0
  7  8  1  0
  8  9  1  0
  9 10  2  0
 10 11  1  0
 10 12  1  0
 12 13  1  0
 13 14  2  0
 14 15  1  0
 14 16  1  0
 16 17  1  0
 16 18  2  0
 18 19  1  0
 19 20  1  0
 19 21  1  0
 19 22  1  0
 18 23  1  0
 23 24  1  0
 23 25  2  0
 25 26  1  0
  6 27  1  0
 27 28  1  0
 27 29  2  0
 29 30  1  0
 29  2  1  0
 12  7  2  0
 25 13  1  0
M  END
>  <cnnaffinity>  (1) 
-4.82305

>  <filename>  (1) 
FC(F)(F)c1ccc(-c2cnsc2-c2cccnc2)cc1

$$$$
