
     RDKit          3D

 30 31  0  0  0  0  0  0  0  0999 V2000
    4.9748    1.7687   16.8955 H   0  0  0  0  0  0  0  0  0  0  0  0
    5.4212    1.3249   17.7785 C   0  0  0  0  0  0  0  0  0  0  0  0
    6.6015    0.6938   17.6565 N   0  0  0  0  0  0  0  0  0  0  0  0
    7.1446    0.1596   18.7641 C   0  0  0  0  0  0  0  0  0  0  0  0
    8.0852   -0.3757   18.6771 H   0  0  0  0  0  0  0  0  0  0  0  0
    6.5427    0.2346   20.0318 C   0  0  0  0  0  0  0  0  0  0  0  0
    7.2207   -0.3916   21.2235 C   0  0  2  0  0  0  0  0  0  0  0  0
    6.6668   -0.1844   22.1466 H   0  0  0  0  0  0  0  0  0  0  0  0
    9.0461    0.3764   21.3957 Br  0  0  0  0  0  0  0  0  0  0  0  0
    7.2847   -1.9010   20.9971 C   0  0  0  0  0  0  0  0  0  0  0  0
    7.9757   -2.0879   20.1768 H   0  0  0  0  0  0  0  0  0  0  0  0
    6.3010   -2.2764   20.6971 H   0  0  0  0  0  0  0  0  0  0  0  0
    7.7455   -2.6382   22.2225 C   0  0  0  0  0  0  0  0  0  0  0  0
    9.1127   -2.8398   22.4140 C   0  0  0  0  0  0  0  0  0  0  0  0
    9.8100   -2.3914   21.7130 H   0  0  0  0  0  0  0  0  0  0  0  0
    9.5657   -3.5879   23.4999 C   0  0  0  0  0  0  0  0  0  0  0  0
   10.6265   -3.7750   23.6248 H   0  0  0  0  0  0  0  0  0  0  0  0
    8.6614   -4.0726   24.4462 C   0  0  0  0  0  0  0  0  0  0  0  0
    9.0638   -4.6253   25.2928 H   0  0  0  0  0  0  0  0  0  0  0  0
    7.2760   -3.8242   24.3145 C   0  0  0  0  0  0  0  0  0  0  0  0
    6.2988   -4.2965   25.3897 C   0  0  0  0  0  0  0  0  0  0  0  0
    5.3187   -3.3737   25.5984 F   0  0  0  0  0  0  0  0  0  0  0  0
    5.7265   -5.4736   25.0104 F   0  0  0  0  0  0  0  0  0  0  0  0
    6.9346   -4.4738   26.5821 F   0  0  0  0  0  0  0  0  0  0  0  0
    6.8276   -3.1341   23.1628 C   0  0  0  0  0  0  0  0  0  0  0  0
    5.7648   -2.9910   22.9708 H   0  0  0  0  0  0  0  0  0  0  0  0
    5.3036    0.8623   20.1489 C   0  0  0  0  0  0  0  0  0  0  0  0
    4.7915    0.9176   21.1090 H   0  0  0  0  0  0  0  0  0  0  0  0
    4.7421    1.4119   18.9996 C   0  0  0  0  0  0  0  0  0  0  0  0
    3.7857    1.9167   19.0377 H   0  0  0  0  0  0  0  0  0  0  0  0
  1  2  1  0
  2  3  2  0
  3  4  1  0
  4  5  1  0
  4  6  2  0
  6  7  1  0
  7  8  1  1
  7  9  1  0
  7 10  1  0
 10 11  1  0
 10 12  1  0
 10 13  1  0
 13 14  2  0
 14 15  1  0
 14 16  1  0
 16 17  1  0
 16 18  2  0
 18 19  1  0
 18 20  1  0
 20 21  1  0
 21 22  1  0
 21 23  1  0
 21 24  1  0
 20 25  2  0
 25 26  1  0
  6 27  1  0
 27 28  1  0
 27 29  2  0
 29 30  1  0
 29  2  1  0
 25 13  1  0
M  END
>  <cnnaffinity>  (1) 
-4.86884

>  <filename>  (1) 
FC(F)(F)c1cccc(C[C@@H](Br)c2cccnc2)c1

$$$$
