
     RDKit          3D

 33 35  0  0  0  0  0  0  0  0999 V2000
    4.9303    1.7921   16.9953 H   0  0  0  0  0  0  0  0  0  0  0  0
    5.3981    1.2903   17.8396 C   0  0  0  0  0  0  0  0  0  0  0  0
    6.5538    0.6621   17.5784 N   0  0  0  0  0  0  0  0  0  0  0  0
    7.1708    0.0430   18.5889 C   0  0  0  0  0  0  0  0  0  0  0  0
    8.1242   -0.4296   18.3608 H   0  0  0  0  0  0  0  0  0  0  0  0
    6.6512   -0.0043   19.8975 C   0  0  0  0  0  0  0  0  0  0  0  0
    7.3320   -0.6909   20.9465 N   0  0  0  0  0  0  0  0  0  0  0  0
    6.7327   -1.6030   21.8024 C   0  0  0  0  0  0  0  0  0  0  0  0
    5.6866   -1.8492   21.7203 H   0  0  0  0  0  0  0  0  0  0  0  0
    7.6733   -2.0620   22.6639 C   0  0  0  0  0  0  0  0  0  0  0  0
    7.5465   -3.0041   23.7797 C   0  0  0  0  0  0  0  0  0  0  0  0
    8.6441   -3.6957   24.3143 C   0  0  0  0  0  0  0  0  0  0  0  0
    9.6389   -3.5341   23.9071 H   0  0  0  0  0  0  0  0  0  0  0  0
    8.4589   -4.6085   25.3577 C   0  0  0  0  0  0  0  0  0  0  0  0
    9.3189   -5.1370   25.7679 H   0  0  0  0  0  0  0  0  0  0  0  0
    7.1788   -4.8422   25.8755 C   0  0  0  0  0  0  0  0  0  0  0  0
    6.9967   -5.5432   26.6839 H   0  0  0  0  0  0  0  0  0  0  0  0
    6.0953   -4.1470   25.3341 C   0  0  0  0  0  0  0  0  0  0  0  0
    4.8650   -4.4482   25.9076 O   0  0  0  0  0  0  0  0  0  0  0  0
    3.7172   -3.8704   25.5030 C   0  0  0  0  0  0  0  0  0  0  0  0
    2.7581   -4.3913   26.2558 F   0  0  0  0  0  0  0  0  0  0  0  0
    3.4314   -4.1018   24.2091 F   0  0  0  0  0  0  0  0  0  0  0  0
    3.7082   -2.5350   25.6512 F   0  0  0  0  0  0  0  0  0  0  0  0
    6.2611   -3.2319   24.3021 C   0  0  0  0  0  0  0  0  0  0  0  0
    5.4079   -2.6930   23.9119 H   0  0  0  0  0  0  0  0  0  0  0  0
    8.8488   -1.4183   22.3010 N   0  0  0  0  0  0  0  0  0  0  0  0
    9.7496   -1.4172   22.7450 H   0  0  0  0  0  0  0  0  0  0  0  0
    8.6535   -0.5287   21.2995 C   0  0  0  0  0  0  0  0  0  0  0  0
    9.8146    0.5169   20.7550 S   0  0  0  0  0  0  0  0  0  0  0  0
    5.4421    0.6434   20.1616 C   0  0  0  0  0  0  0  0  0  0  0  0
    5.0334    0.6303   21.1742 H   0  0  0  0  0  0  0  0  0  0  0  0
    4.8110    1.3089   19.1084 C   0  0  0  0  0  0  0  0  0  0  0  0
    3.8820    1.8401   19.2584 H   0  0  0  0  0  0  0  0  0  0  0  0
  1  2  1  0
  2  3  2  0
  3  4  1  0
  4  5  1  0
  4  6  2  0
  6  7  1  0
  7  8  1  0
  8  9  1  0
  8 10  2  0
 10 11  1  0
 11 12  2  0
 12 13  1  0
 12 14  1  0
 14 15  1  0
 14 16  2  0
 16 17  1  0
 16 18  1  0
 18 19  1  0
 19 20  1  0
 20 21  1  0
 20 22  1  0
 20 23  1  0
 18 24  2  0
 24 25  1  0
 10 26  1  0
 26 27  1  0
 26 28  1  0
 28 29  2  0
  6 30  1  0
 30 31  1  0
 30 32  2  0
 32 33  1  0
 32  2  1  0
 28  7  1  0
 24 11  1  0
M  END
>  <cnnaffinity>  (1) 
-5.99592

>  <filename>  (1) 
FC(F)(F)Oc1cccc(-c2cn(-c3cccnc3)c(=S)[nH]2)c1

$$$$
