
     RDKit          3D

 46 49  0  0  0  0  0  0  0  0999 V2000
    8.4848    3.2225   24.1500 F   0  0  0  0  0  0  0  0  0  0  0  0
    9.5319    4.0371   23.9317 C   0  0  0  0  0  0  0  0  0  0  0  0
    9.4265    4.5480   22.6950 F   0  0  0  0  0  0  0  0  0  0  0  0
   10.7287    3.3733   24.1021 O   0  0  0  0  0  0  0  0  0  0  0  0
   11.0521    2.2898   23.3434 C   0  0  0  0  0  0  0  0  0  0  0  0
   12.2942    1.7244   23.6547 C   0  0  0  0  0  0  0  0  0  0  0  0
   12.7070    0.6142   22.9359 C   0  0  0  0  0  0  0  0  0  0  0  0
   11.8475    0.1248   21.9405 C   0  0  0  0  0  0  0  0  0  0  0  0
   10.6313    0.7677   21.7274 C   0  0  0  0  0  0  0  0  0  0  0  0
    9.6626    0.2574   20.7161 C   0  0  0  0  0  0  0  0  0  0  0  0
    8.6334   -0.5703   21.3740 C   0  0  0  0  0  0  0  0  0  0  0  0
    8.8706   -1.4331   22.3402 N   0  0  0  0  0  0  0  0  0  0  0  0
    7.6589   -1.9972   22.5458 C   0  0  0  0  0  0  0  0  0  0  0  0
    7.4046   -2.9879   23.6412 C   0  0  0  0  0  0  0  0  0  0  0  0
    6.4166   -2.4681   24.7176 C   0  0  0  0  0  0  0  0  0  0  0  0
    5.7854   -3.7247   25.3486 C   0  0  0  0  0  0  0  0  0  0  0  0
    6.0234   -4.8944   24.3561 C   0  0  0  0  0  0  0  0  0  0  0  0
    6.7719   -4.3078   23.1431 C   0  0  0  0  0  0  0  0  0  0  0  0
    6.0730   -4.0883   22.3240 H   0  0  0  0  0  0  0  0  0  0  0  0
    7.5329   -4.9889   22.7410 H   0  0  0  0  0  0  0  0  0  0  0  0
    6.6126   -5.6847   24.8371 H   0  0  0  0  0  0  0  0  0  0  0  0
    5.0834   -5.3625   24.0424 H   0  0  0  0  0  0  0  0  0  0  0  0
    4.7186   -3.5652   25.5429 H   0  0  0  0  0  0  0  0  0  0  0  0
    6.2415   -3.9498   26.3203 H   0  0  0  0  0  0  0  0  0  0  0  0
    6.9176   -1.8243   25.4520 H   0  0  0  0  0  0  0  0  0  0  0  0
    5.6467   -1.8521   24.2399 H   0  0  0  0  0  0  0  0  0  0  0  0
    8.3838   -3.1812   24.1012 H   0  0  0  0  0  0  0  0  0  0  0  0
    6.6993   -1.5702   21.7379 N   0  0  0  0  0  0  0  0  0  0  0  0
    7.3404   -0.6686   20.9547 N   0  0  0  0  0  0  0  0  0  0  0  0
    6.6556    0.0002   19.9047 C   0  0  0  0  0  0  0  0  0  0  0  0
    5.4386    0.6364   20.1626 C   0  0  0  0  0  0  0  0  0  0  0  0
    4.8084    1.3060   19.1106 C   0  0  0  0  0  0  0  0  0  0  0  0
    5.3980    1.2913   17.8408 C   0  0  0  0  0  0  0  0  0  0  0  0
    6.5542    0.6627   17.5813 N   0  0  0  0  0  0  0  0  0  0  0  0
    7.1664    0.0401   18.5945 C   0  0  0  0  0  0  0  0  0  0  0  0
    8.1153   -0.4389   18.3571 H   0  0  0  0  0  0  0  0  0  0  0  0
    4.9296    1.7953   16.9990 H   0  0  0  0  0  0  0  0  0  0  0  0
    3.8784    1.8428   19.2590 H   0  0  0  0  0  0  0  0  0  0  0  0
    5.0188    0.6050   21.1682 H   0  0  0  0  0  0  0  0  0  0  0  0
    9.1987    1.1061   20.2121 H   0  0  0  0  0  0  0  0  0  0  0  0
   10.1479   -0.4140   20.0018 H   0  0  0  0  0  0  0  0  0  0  0  0
   10.2291    1.8380   22.4183 N   0  0  0  0  0  0  0  0  0  0  0  0
   12.0939   -0.7476   21.3491 H   0  0  0  0  0  0  0  0  0  0  0  0
   13.6636    0.1340   23.1456 H   0  0  0  0  0  0  0  0  0  0  0  0
   12.8654    2.1776   24.4479 H   0  0  0  0  0  0  0  0  0  0  0  0
    9.5448    4.8431   24.6707 H   0  0  0  0  0  0  0  0  0  0  0  0
  1  2  1  0
  2  3  1  0
  2  4  1  0
  4  5  1  0
  5  6  2  0
  6  7  1  0
  7  8  2  0
  8  9  1  0
  9 10  1  0
 10 11  1  0
 11 12  2  0
 12 13  1  0
 13 14  1  0
 14 15  1  0
 15 16  1  0
 16 17  1  0
 17 18  1  0
 18 19  1  0
 18 20  1  0
 17 21  1  0
 17 22  1  0
 16 23  1  0
 16 24  1  0
 15 25  1  0
 15 26  1  0
 14 27  1  0
 13 28  2  0
 28 29  1  0
 29 30  1  0
 30 31  2  0
 31 32  1  0
 32 33  2  0
 33 34  1  0
 34 35  2  0
 35 36  1  0
 33 37  1  0
 32 38  1  0
 31 39  1  0
 10 40  1  0
 10 41  1  0
  9 42  2  0
  8 43  1  0
  7 44  1  0
  6 45  1  0
  2 46  1  0
 42  5  1  0
 29 11  1  0
 35 30  1  0
 18 14  1  0
M  END
>  <cnnaffinity>  (1) 
-6.85996

>  <filename>  (1) 
FC(F)Oc1cccc(Cc2nc(C3CCCC3)nn2-c2cccnc2)n1

$$$$
