
     RDKit          3D

 43 46  0  0  0  0  0  0  0  0999 V2000
    5.8863    6.0908   22.6900 F   0  0  0  0  0  0  0  0  0  0  0  0
    6.8906    5.7464   21.8459 C   0  0  0  0  0  0  0  0  0  0  0  0
    8.0423    6.1660   22.4192 F   0  0  0  0  0  0  0  0  0  0  0  0
    6.9026    4.4130   21.6088 O   0  0  0  0  0  0  0  0  0  0  0  0
    7.1117    3.4976   22.5857 C   0  0  0  0  0  0  0  0  0  0  0  0
    7.1399    3.7879   23.9552 C   0  0  0  0  0  0  0  0  0  0  0  0
    7.3009    2.7133   24.8316 C   0  0  0  0  0  0  0  0  0  0  0  0
    7.4444    1.4310   24.3011 C   0  0  0  0  0  0  0  0  0  0  0  0
    7.3937    1.2585   22.9057 C   0  0  0  0  0  0  0  0  0  0  0  0
    7.5319   -0.1156   22.3276 C   0  0  0  0  0  0  0  0  0  0  0  0
    8.0317   -1.1479   22.9964 N   0  0  0  0  0  0  0  0  0  0  0  0
    8.0130   -2.1573   22.1056 C   0  0  0  0  0  0  0  0  0  0  0  0
    8.4824   -3.5404   22.4661 C   0  0  0  0  0  0  0  0  0  0  0  0
    7.7261   -4.6785   21.7627 C   0  0  0  0  0  0  0  0  0  0  0  0
    8.1240   -5.9281   22.5499 C   0  0  0  0  0  0  0  0  0  0  0  0
    8.2762   -5.4558   24.0137 C   0  0  0  0  0  0  0  0  0  0  0  0
    8.3493   -3.9104   23.9639 C   0  0  0  0  0  0  0  0  0  0  0  0
    9.1765   -3.5059   24.5538 H   0  0  0  0  0  0  0  0  0  0  0  0
    7.4340   -3.4698   24.3771 H   0  0  0  0  0  0  0  0  0  0  0  0
    7.4200   -5.7807   24.6174 H   0  0  0  0  0  0  0  0  0  0  0  0
    9.1805   -5.8825   24.4648 H   0  0  0  0  0  0  0  0  0  0  0  0
    7.3995   -6.7434   22.4444 H   0  0  0  0  0  0  0  0  0  0  0  0
    9.0788   -6.3105   22.1745 H   0  0  0  0  0  0  0  0  0  0  0  0
    6.6539   -4.4768   21.8828 H   0  0  0  0  0  0  0  0  0  0  0  0
    7.9436   -4.7523   20.6934 H   0  0  0  0  0  0  0  0  0  0  0  0
    9.5458   -3.5673   22.1995 H   0  0  0  0  0  0  0  0  0  0  0  0
    7.5606   -1.8197   20.9120 N   0  0  0  0  0  0  0  0  0  0  0  0
    7.2033   -0.5188   21.0578 N   0  0  0  0  0  0  0  0  0  0  0  0
    6.5529    0.0985   19.9463 C   0  0  0  0  0  0  0  0  0  0  0  0
    5.3139    0.7368   20.0543 C   0  0  0  0  0  0  0  0  0  0  0  0
    4.7638    1.3084   18.9027 C   0  0  0  0  0  0  0  0  0  0  0  0
    5.4694    1.2298   17.6984 C   0  0  0  0  0  0  0  0  0  0  0  0
    6.6380    0.5750   17.5781 N   0  0  0  0  0  0  0  0  0  0  0  0
    7.1457    0.0023   18.6734 C   0  0  0  0  0  0  0  0  0  0  0  0
    8.0697   -0.5548   18.5513 H   0  0  0  0  0  0  0  0  0  0  0  0
    5.0854    1.7062   16.7990 H   0  0  0  0  0  0  0  0  0  0  0  0
    3.8131    1.8305   18.9430 H   0  0  0  0  0  0  0  0  0  0  0  0
    4.8243    0.8251   21.0229 H   0  0  0  0  0  0  0  0  0  0  0  0
    7.2334    2.2927   22.0640 N   0  0  0  0  0  0  0  0  0  0  0  0
    7.6029    0.5581   24.9286 H   0  0  0  0  0  0  0  0  0  0  0  0
    7.3226    2.8593   25.9147 H   0  0  0  0  0  0  0  0  0  0  0  0
    7.0191    4.8048   24.2909 H   0  0  0  0  0  0  0  0  0  0  0  0
    6.7510    6.2203   20.8770 H   0  0  0  0  0  0  0  0  0  0  0  0
  1  2  1  0
  2  3  1  0
  2  4  1  0
  4  5  1  0
  5  6  2  0
  6  7  1  0
  7  8  2  0
  8  9  1  0
  9 10  1  0
 10 11  2  0
 11 12  1  0
 12 13  1  0
 13 14  1  0
 14 15  1  0
 15 16  1  0
 16 17  1  0
 17 18  1  0
 17 19  1  0
 16 20  1  0
 16 21  1  0
 15 22  1  0
 15 23  1  0
 14 24  1  0
 14 25  1  0
 13 26  1  0
 12 27  2  0
 27 28  1  0
 28 29  1  0
 29 30  2  0
 30 31  1  0
 31 32  2  0
 32 33  1  0
 33 34  2  0
 34 35  1  0
 32 36  1  0
 31 37  1  0
 30 38  1  0
  9 39  2  0
  8 40  1  0
  7 41  1  0
  6 42  1  0
  2 43  1  0
 39  5  1  0
 28 10  1  0
 34 29  1  0
 17 13  1  0
M  END
>  <cnnaffinity>  (1) 
-6.01533

>  <filename>  (1) 
FC(F)Oc1cccc(-c2nc(C3CCCC3)nn2-c2cccnc2)n1

$$$$
