
     RDKit          3D

 28 30  0  0  0  0  0  0  0  0999 V2000
    4.9268    1.8020   16.9820 H   0  0  0  0  0  0  0  0  0  0  0  0
    5.3911    1.2974   17.8263 C   0  0  0  0  0  0  0  0  0  0  0  0
    6.5597    0.6837   17.5644 N   0  0  0  0  0  0  0  0  0  0  0  0
    7.1643    0.0661   18.5820 C   0  0  0  0  0  0  0  0  0  0  0  0
    8.1183   -0.4056   18.3476 H   0  0  0  0  0  0  0  0  0  0  0  0
    6.6534    0.0036   19.8987 C   0  0  0  0  0  0  0  0  0  0  0  0
    7.3585   -0.7025   20.9852 C   0  0  0  0  0  0  0  0  0  0  0  0
    7.9374   -2.3012   20.8711 S   0  0  0  0  0  0  0  0  0  0  0  0
    8.4327   -2.3629   22.4746 N   0  0  0  0  0  0  0  0  0  0  0  0
    8.1950   -1.2679   23.0718 N   0  0  0  0  0  0  0  0  0  0  0  0
    7.6173   -0.3019   22.2931 C   0  0  0  0  0  0  0  0  0  0  0  0
    7.3435    1.0199   22.8906 C   0  0  0  0  0  0  0  0  0  0  0  0
    7.2991    2.0794   22.0636 N   0  0  0  0  0  0  0  0  0  0  0  0
    7.0382    3.2726   22.5822 C   0  0  0  0  0  0  0  0  0  0  0  0
    7.0012    4.0913   21.8701 H   0  0  0  0  0  0  0  0  0  0  0  0
    6.8237    3.4818   23.9462 C   0  0  0  0  0  0  0  0  0  0  0  0
    6.6174    4.8671   24.4564 C   0  0  0  0  0  0  0  0  0  0  0  0
    5.8714    4.8628   25.5786 F   0  0  0  0  0  0  0  0  0  0  0  0
    7.7856    5.4656   24.7635 F   0  0  0  0  0  0  0  0  0  0  0  0
    5.9987    5.6581   23.5597 F   0  0  0  0  0  0  0  0  0  0  0  0
    6.8864    2.3861   24.8261 C   0  0  0  0  0  0  0  0  0  0  0  0
    6.7513    2.5146   25.9042 H   0  0  0  0  0  0  0  0  0  0  0  0
    7.1436    1.1421   24.2789 C   0  0  0  0  0  0  0  0  0  0  0  0
    7.2120    0.2475   24.8838 H   0  0  0  0  0  0  0  0  0  0  0  0
    5.4194    0.6308   20.1384 C   0  0  0  0  0  0  0  0  0  0  0  0
    5.0106    0.6458   21.1505 H   0  0  0  0  0  0  0  0  0  0  0  0
    4.7918    1.2948   19.0857 C   0  0  0  0  0  0  0  0  0  0  0  0
    3.8730    1.8390   19.2469 H   0  0  0  0  0  0  0  0  0  0  0  0
  1  2  1  0
  2  3  2  0
  3  4  1  0
  4  5  1  0
  4  6  2  0
  6  7  1  0
  7  8  1  0
  8  9  1  0
  9 10  2  0
 10 11  1  0
 11 12  1  0
 12 13  2  0
 13 14  1  0
 14 15  1  0
 14 16  2  0
 16 17  1  0
 17 18  1  0
 17 19  1  0
 17 20  1  0
 16 21  1  0
 21 22  1  0
 21 23  2  0
 23 24  1  0
  6 25  1  0
 25 26  1  0
 25 27  2  0
 27 28  1  0
 27  2  1  0
 11  7  2  0
 23 12  1  0
M  END
>  <cnnaffinity>  (1) 
-5.15888

>  <filename>  (1) 
FC(F)(F)c1ccc(-c2nnsc2-c2cccnc2)nc1

$$$$
