
     RDKit          3D

 34 36  0  0  0  0  0  0  0  0999 V2000
    6.6039   -1.2512   21.7110 H   0  0  0  0  0  0  0  0  0  0  0  0
    7.2390   -0.6502   21.0538 C   0  0  0  0  0  0  0  0  0  0  0  0
    8.5394   -0.4548   21.3505 C   0  0  0  0  0  0  0  0  0  0  0  0
    9.3865   -1.1173   22.3598 C   0  0  0  0  0  0  0  0  0  0  0  0
    8.9500   -2.2868   23.2081 C   0  0  0  0  0  0  0  0  0  0  0  0
    8.0105   -3.1244   22.7314 N   0  0  0  0  0  0  0  0  0  0  0  0
    7.6108   -4.1328   23.4902 C   0  0  0  0  0  0  0  0  0  0  0  0
    6.8609   -4.7774   23.0440 H   0  0  0  0  0  0  0  0  0  0  0  0
    8.0946   -4.3511   24.7778 C   0  0  0  0  0  0  0  0  0  0  0  0
    7.5969   -5.5532   25.4944 C   0  0  0  0  0  0  0  0  0  0  0  0
    8.4728   -6.5728   25.4351 F   0  0  0  0  0  0  0  0  0  0  0  0
    6.4358   -5.9932   24.9652 F   0  0  0  0  0  0  0  0  0  0  0  0
    7.3790   -5.3083   26.7958 F   0  0  0  0  0  0  0  0  0  0  0  0
    9.0697   -3.4883   25.2993 C   0  0  0  0  0  0  0  0  0  0  0  0
    9.4584   -3.5964   26.3135 H   0  0  0  0  0  0  0  0  0  0  0  0
    9.5229   -2.4655   24.4857 C   0  0  0  0  0  0  0  0  0  0  0  0
   10.3032   -1.7903   24.8095 H   0  0  0  0  0  0  0  0  0  0  0  0
   10.5528   -0.5914   22.4940 N   0  0  0  0  0  0  0  0  0  0  0  0
   10.6659    0.5879   21.6440 C   0  0  0  0  0  0  0  0  0  0  0  0
   10.7235    1.4651   22.3012 H   0  0  0  0  0  0  0  0  0  0  0  0
   11.5962    0.5416   21.0774 H   0  0  0  0  0  0  0  0  0  0  0  0
    9.4162    0.6165   20.7377 C   0  0  0  0  0  0  0  0  0  0  0  0
    8.9207    1.5884   20.7131 H   0  0  0  0  0  0  0  0  0  0  0  0
    9.6450    0.3319   19.7092 H   0  0  0  0  0  0  0  0  0  0  0  0
    6.5400   -0.0303   19.9079 C   0  0  0  0  0  0  0  0  0  0  0  0
    7.0938    0.0118   18.6093 C   0  0  0  0  0  0  0  0  0  0  0  0
    8.0077   -0.5417   18.4147 H   0  0  0  0  0  0  0  0  0  0  0  0
    6.5650    0.6732   17.5720 N   0  0  0  0  0  0  0  0  0  0  0  0
    5.4157    1.3294   17.7890 C   0  0  0  0  0  0  0  0  0  0  0  0
    5.0172    1.8926   16.9477 H   0  0  0  0  0  0  0  0  0  0  0  0
    4.7333    1.3043   19.0129 C   0  0  0  0  0  0  0  0  0  0  0  0
    3.8018    1.8538   19.1174 H   0  0  0  0  0  0  0  0  0  0  0  0
    5.2934    0.5995   20.0797 C   0  0  0  0  0  0  0  0  0  0  0  0
    4.7936    0.5532   21.0474 H   0  0  0  0  0  0  0  0  0  0  0  0
  1  2  1  0
  2  3  2  3
  3  4  1  0
  4  5  1  0
  5  6  2  0
  6  7  1  0
  7  8  1  0
  7  9  2  0
  9 10  1  0
 10 11  1  0
 10 12  1  0
 10 13  1  0
  9 14  1  0
 14 15  1  0
 14 16  2  0
 16 17  1  0
  4 18  2  0
 18 19  1  0
 19 20  1  0
 19 21  1  0
 19 22  1  0
 22 23  1  0
 22 24  1  0
  2 25  1  0
 25 26  2  0
 26 27  1  0
 26 28  1  0
 28 29  2  0
 29 30  1  0
 29 31  1  0
 31 32  1  0
 31 33  2  0
 33 34  1  0
 22  3  1  0
 33 25  1  0
 16  5  1  0
M  END
>  <cnnaffinity>  (1) 
-5.53833

>  <filename>  (1) 
FC(F)(F)c1ccc(C2=NCCC2=Cc2cccnc2)nc1

$$$$
