
     RDKit          3D

 43 46  0  0  0  0  0  0  0  0999 V2000
    2.8900    0.6918   26.4426 F   0  0  0  0  0  0  0  0  0  0  0  0
    4.1983    0.4204   26.3630 C   0  0  0  0  0  0  0  0  0  0  0  0
    4.7776    0.9102   27.4784 F   0  0  0  0  0  0  0  0  0  0  0  0
    4.3387   -0.9231   26.4196 F   0  0  0  0  0  0  0  0  0  0  0  0
    4.8500    0.9731   25.1091 C   0  0  0  0  0  0  0  0  0  0  0  0
    6.0379    0.5361   24.5813 C   0  0  0  0  0  0  0  0  0  0  0  0
    6.3159    1.3768   23.5282 N   0  0  0  0  0  0  0  0  0  0  0  0
    7.5153    1.3012   22.6876 C   0  0  0  0  0  0  0  0  0  0  0  0
    7.7338   -0.0909   22.1583 C   0  0  0  0  0  0  0  0  0  0  0  0
    8.3055   -1.0600   22.8517 N   0  0  0  0  0  0  0  0  0  0  0  0
    8.2252   -2.1323   22.0202 C   0  0  0  0  0  0  0  0  0  0  0  0
    8.7337   -3.4996   22.3952 C   0  0  0  0  0  0  0  0  0  0  0  0
    7.9272   -4.6711   21.8015 C   0  0  0  0  0  0  0  0  0  0  0  0
    8.3175   -5.9008   22.6242 C   0  0  0  0  0  0  0  0  0  0  0  0
    8.6753   -5.3631   24.0258 C   0  0  0  0  0  0  0  0  0  0  0  0
    8.7503   -3.8265   23.9003 C   0  0  0  0  0  0  0  0  0  0  0  0
    7.8597   -3.3951   24.3599 H   0  0  0  0  0  0  0  0  0  0  0  0
    9.6313   -3.4152   24.4015 H   0  0  0  0  0  0  0  0  0  0  0  0
    7.9248   -5.6480   24.7715 H   0  0  0  0  0  0  0  0  0  0  0  0
    9.6207   -5.7882   24.3768 H   0  0  0  0  0  0  0  0  0  0  0  0
    9.1803   -6.4022   22.1750 H   0  0  0  0  0  0  0  0  0  0  0  0
    7.5049   -6.6361   22.6524 H   0  0  0  0  0  0  0  0  0  0  0  0
    6.8622   -4.4625   21.9530 H   0  0  0  0  0  0  0  0  0  0  0  0
    8.0874   -4.8093   20.7300 H   0  0  0  0  0  0  0  0  0  0  0  0
    9.7660   -3.4934   22.0455 H   0  0  0  0  0  0  0  0  0  0  0  0
    7.6914   -1.8666   20.8390 N   0  0  0  0  0  0  0  0  0  0  0  0
    7.3378   -0.5590   20.9437 N   0  0  0  0  0  0  0  0  0  0  0  0
    6.6237    0.0702   19.8868 C   0  0  0  0  0  0  0  0  0  0  0  0
    5.4125    0.7332   20.1135 C   0  0  0  0  0  0  0  0  0  0  0  0
    4.7951    1.3654   19.0296 C   0  0  0  0  0  0  0  0  0  0  0  0
    5.4120    1.3150   17.7759 C   0  0  0  0  0  0  0  0  0  0  0  0
    6.5452    0.6265   17.5419 N   0  0  0  0  0  0  0  0  0  0  0  0
    7.1197   -0.0013   18.5736 C   0  0  0  0  0  0  0  0  0  0  0  0
    8.0155   -0.5841   18.3666 H   0  0  0  0  0  0  0  0  0  0  0  0
    4.9775    1.8421   16.9280 H   0  0  0  0  0  0  0  0  0  0  0  0
    3.8556    1.8942   19.1495 H   0  0  0  0  0  0  0  0  0  0  0  0
    4.9631    0.7318   21.1069 H   0  0  0  0  0  0  0  0  0  0  0  0
    8.3936    1.5706   23.2876 H   0  0  0  0  0  0  0  0  0  0  0  0
    7.4461    2.0383   21.8817 H   0  0  0  0  0  0  0  0  0  0  0  0
    5.2694    2.2577   23.4535 C   0  0  0  0  0  0  0  0  0  0  0  0
    4.3771    2.0455   24.3812 N   0  0  0  0  0  0  0  0  0  0  0  0
    5.2109    3.0113   22.6768 H   0  0  0  0  0  0  0  0  0  0  0  0
    6.6522   -0.3371   24.7727 H   0  0  0  0  0  0  0  0  0  0  0  0
  1  2  1  0
  2  3  1  0
  2  4  1  0
  2  5  1  0
  5  6  2  0
  6  7  1  0
  7  8  1  0
  8  9  1  0
  9 10  2  0
 10 11  1  0
 11 12  1  0
 12 13  1  0
 13 14  1  0
 14 15  1  0
 15 16  1  0
 16 17  1  0
 16 18  1  0
 15 19  1  0
 15 20  1  0
 14 21  1  0
 14 22  1  0
 13 23  1  0
 13 24  1  0
 12 25  1  0
 11 26  2  0
 26 27  1  0
 27 28  1  0
 28 29  2  0
 29 30  1  0
 30 31  2  0
 31 32  1  0
 32 33  2  0
 33 34  1  0
 31 35  1  0
 30 36  1  0
 29 37  1  0
  8 38  1  0
  8 39  1  0
  7 40  1  0
 40 41  2  0
 40 42  1  0
  6 43  1  0
 41  5  1  0
 27  9  1  0
 33 28  1  0
 16 12  1  0
M  END
>  <cnnaffinity>  (1) 
-5.91566

>  <filename>  (1) 
FC(F)(F)c1cn(Cc2nc(C3CCCC3)nn2-c2cccnc2)cn1

$$$$
