
     RDKit          3D

 39 43  0  0  0  0  0  0  0  0999 V2000
    7.5987    5.2425   25.2690 F   0  0  0  0  0  0  0  0  0  0  0  0
    6.4835    4.8020   24.6522 C   0  0  0  0  0  0  0  0  0  0  0  0
    6.1157    5.7533   23.7792 F   0  0  0  0  0  0  0  0  0  0  0  0
    5.5181    4.7381   25.5834 F   0  0  0  0  0  0  0  0  0  0  0  0
    6.7479    3.4293   23.9705 C   0  0  0  0  0  0  0  0  0  0  0  0
    7.2186    3.4363   22.7125 N   0  0  0  0  0  0  0  0  0  0  0  0
    7.4592    2.2705   22.1370 C   0  0  0  0  0  0  0  0  0  0  0  0
    7.2393    1.0605   22.7982 C   0  0  0  0  0  0  0  0  0  0  0  0
    7.4718   -0.2459   22.2456 C   0  0  0  0  0  0  0  0  0  0  0  0
    7.9963   -1.2289   22.9525 N   0  0  0  0  0  0  0  0  0  0  0  0
    8.1579   -2.1988   22.0242 C   0  0  0  0  0  0  0  0  0  0  0  0
    8.8744   -3.4859   22.2143 C   0  0  0  0  0  0  0  0  0  0  0  0
    8.1536   -4.7558   21.8820 C   0  0  0  0  0  0  0  0  0  0  0  0
    8.7833   -4.6190   23.2851 C   0  0  0  0  0  0  0  0  0  0  0  0
    9.7559   -4.6171   24.4386 C   0  0  0  0  0  0  0  0  0  0  0  0
    8.8420   -5.7931   24.2653 C   0  0  0  0  0  0  0  0  0  0  0  0
    8.0438   -5.9022   24.9947 H   0  0  0  0  0  0  0  0  0  0  0  0
    9.2614   -6.7267   23.8830 H   0  0  0  0  0  0  0  0  0  0  0  0
    9.4951   -3.9517   25.2600 H   0  0  0  0  0  0  0  0  0  0  0  0
   10.8261   -4.7107   24.2388 H   0  0  0  0  0  0  0  0  0  0  0  0
    8.5427   -5.4922   21.1743 H   0  0  0  0  0  0  0  0  0  0  0  0
    7.0632   -4.6678   21.8541 H   0  0  0  0  0  0  0  0  0  0  0  0
    9.9043   -3.2855   21.9122 H   0  0  0  0  0  0  0  0  0  0  0  0
    7.7485   -1.8982   20.8028 N   0  0  0  0  0  0  0  0  0  0  0  0
    7.2749   -0.6350   20.9484 N   0  0  0  0  0  0  0  0  0  0  0  0
    6.5905    0.0201   19.8838 C   0  0  0  0  0  0  0  0  0  0  0  0
    5.3771    0.6829   20.1130 C   0  0  0  0  0  0  0  0  0  0  0  0
    4.7792    1.3379   19.0352 C   0  0  0  0  0  0  0  0  0  0  0  0
    5.4085    1.3119   17.7878 C   0  0  0  0  0  0  0  0  0  0  0  0
    6.5618    0.6574   17.5597 N   0  0  0  0  0  0  0  0  0  0  0  0
    7.1306    0.0178   18.5851 C   0  0  0  0  0  0  0  0  0  0  0  0
    8.0645   -0.5016   18.3800 H   0  0  0  0  0  0  0  0  0  0  0  0
    4.9709    1.8290   16.9372 H   0  0  0  0  0  0  0  0  0  0  0  0
    3.8431    1.8734   19.1552 H   0  0  0  0  0  0  0  0  0  0  0  0
    4.9292    0.6962   21.1082 H   0  0  0  0  0  0  0  0  0  0  0  0
    6.8276    1.1510   24.1293 C   0  0  0  0  0  0  0  0  0  0  0  0
    6.5614    2.3133   24.7007 N   0  0  0  0  0  0  0  0  0  0  0  0
    6.6917    0.2549   24.7417 H   0  0  0  0  0  0  0  0  0  0  0  0
    7.8373    2.3030   21.1092 H   0  0  0  0  0  0  0  0  0  0  0  0
  1  2  1  0
  2  3  1  0
  2  4  1  0
  2  5  1  0
  5  6  2  0
  6  7  1  0
  7  8  2  0
  8  9  1  0
  9 10  2  0
 10 11  1  0
 11 12  1  0
 12 13  1  0
 13 14  1  0
 14 15  1  0
 15 16  1  0
 16 17  1  0
 16 18  1  0
 15 19  1  0
 15 20  1  0
 13 21  1  0
 13 22  1  0
 12 23  1  0
 11 24  2  0
 24 25  1  0
 25 26  1  0
 26 27  2  0
 27 28  1  0
 28 29  2  0
 29 30  1  0
 30 31  2  0
 31 32  1  0
 29 33  1  0
 28 34  1  0
 27 35  1  0
  8 36  1  0
 36 37  2  0
 36 38  1  0
  7 39  1  0
 37  5  1  0
 25  9  1  0
 31 26  1  0
 14 12  1  0
 16 14  1  0
M  END
>  <cnnaffinity>  (1) 
-6.14129

>  <filename>  (1) 
FC(F)(F)c1ncc(-c2nc(C3CC34CC4)nn2-c2cccnc2)cn1

$$$$
