
     RDKit          3D

 29 31  0  0  0  0  0  0  0  0999 V2000
    8.8843   -3.1647   22.0308 H   0  0  0  0  0  0  0  0  0  0  0  0
    8.3921   -2.2115   21.8843 C   0  0  0  0  0  0  0  0  0  0  0  0
    8.2366   -1.2944   22.8639 N   0  0  0  0  0  0  0  0  0  0  0  0
    7.6058   -0.3114   22.2516 C   0  0  0  0  0  0  0  0  0  0  0  0
    7.2379    1.0148   22.8463 C   0  0  0  0  0  0  0  0  0  0  0  0
    7.4784    2.0733   22.0501 N   0  0  0  0  0  0  0  0  0  0  0  0
    7.2485    3.3006   22.5020 C   0  0  0  0  0  0  0  0  0  0  0  0
    7.4896    4.1034   21.8024 H   0  0  0  0  0  0  0  0  0  0  0  0
    6.7404    3.5554   23.7806 C   0  0  0  0  0  0  0  0  0  0  0  0
    6.5937    4.5856   24.0852 H   0  0  0  0  0  0  0  0  0  0  0  0
    6.4471    2.4747   24.6082 C   0  0  0  0  0  0  0  0  0  0  0  0
    6.0382    2.6365   25.6079 H   0  0  0  0  0  0  0  0  0  0  0  0
    6.6905    1.1749   24.1364 C   0  0  0  0  0  0  0  0  0  0  0  0
    6.4474   -0.0110   25.0343 C   0  0  0  0  0  0  0  0  0  0  0  0
    5.9351   -1.0695   24.3932 F   0  0  0  0  0  0  0  0  0  0  0  0
    5.5832    0.2988   26.0198 F   0  0  0  0  0  0  0  0  0  0  0  0
    7.5921   -0.4104   25.6096 F   0  0  0  0  0  0  0  0  0  0  0  0
    7.3902   -0.6440   20.9353 N   0  0  0  0  0  0  0  0  0  0  0  0
    6.6448   -0.0077   19.9028 C   0  0  0  0  0  0  0  0  0  0  0  0
    7.1669    0.0197   18.5972 C   0  0  0  0  0  0  0  0  0  0  0  0
    8.1155   -0.4591   18.3682 H   0  0  0  0  0  0  0  0  0  0  0  0
    6.5700    0.6545   17.5874 N   0  0  0  0  0  0  0  0  0  0  0  0
    5.4057    1.2804   17.8341 C   0  0  0  0  0  0  0  0  0  0  0  0
    4.9619    1.8027   16.9917 H   0  0  0  0  0  0  0  0  0  0  0  0
    4.7943    1.2772   19.0895 C   0  0  0  0  0  0  0  0  0  0  0  0
    3.8761    1.8305   19.2402 H   0  0  0  0  0  0  0  0  0  0  0  0
    5.4133    0.6101   20.1495 C   0  0  0  0  0  0  0  0  0  0  0  0
    4.9968    0.6344   21.1564 H   0  0  0  0  0  0  0  0  0  0  0  0
    7.9117   -1.8683   20.7078 N   0  0  0  0  0  0  0  0  0  0  0  0
  1  2  1  0
  2  3  1  0
  3  4  2  0
  4  5  1  0
  5  6  2  0
  6  7  1  0
  7  8  1  0
  7  9  2  0
  9 10  1  0
  9 11  1  0
 11 12  1  0
 11 13  2  0
 13 14  1  0
 14 15  1  0
 14 16  1  0
 14 17  1  0
  4 18  1  0
 18 19  1  0
 19 20  2  0
 20 21  1  0
 20 22  1  0
 22 23  2  0
 23 24  1  0
 23 25  1  0
 25 26  1  0
 25 27  2  0
 27 28  1  0
 18 29  1  0
 29  2  2  0
 13  5  1  0
 27 19  1  0
M  END
>  <cnnaffinity>  (1) 
-5.16812

>  <filename>  (1) 
FC(F)(F)c1cccnc1-c1ncnn1-c1cccnc1

$$$$
