
     RDKit          3D

 38 42  0  0  0  0  0  0  0  0999 V2000
    8.5114    5.3001   22.8334 F   0  0  0  0  0  0  0  0  0  0  0  0
    7.2598    4.8154   22.9473 C   0  0  0  0  0  0  0  0  0  0  0  0
    6.6032    5.1651   21.8202 F   0  0  0  0  0  0  0  0  0  0  0  0
    6.6734    5.4339   23.9783 F   0  0  0  0  0  0  0  0  0  0  0  0
    7.2630    3.3164   23.0948 C   0  0  0  0  0  0  0  0  0  0  0  0
    7.2343    2.7214   24.2834 N   0  0  0  0  0  0  0  0  0  0  0  0
    7.2845    1.4263   24.0194 N   0  0  0  0  0  0  0  0  0  0  0  0
    7.3474    1.1455   22.6938 C   0  0  0  0  0  0  0  0  0  0  0  0
    7.4742   -0.2262   22.2569 C   0  0  0  0  0  0  0  0  0  0  0  0
    7.9999   -1.2102   22.9734 N   0  0  0  0  0  0  0  0  0  0  0  0
    8.0427   -2.2204   22.0814 C   0  0  0  0  0  0  0  0  0  0  0  0
    8.7308   -3.5208   22.2808 C   0  0  0  0  0  0  0  0  0  0  0  0
    8.0471   -4.8077   21.9352 C   0  0  0  0  0  0  0  0  0  0  0  0
    8.6527   -4.6432   23.3429 C   0  0  0  0  0  0  0  0  0  0  0  0
    9.5922   -4.6205   24.5278 C   0  0  0  0  0  0  0  0  0  0  0  0
    8.6524   -5.7827   24.3594 C   0  0  0  0  0  0  0  0  0  0  0  0
    7.7982   -5.9259   25.0141 H   0  0  0  0  0  0  0  0  0  0  0  0
    9.1035   -6.7067   23.9952 H   0  0  0  0  0  0  0  0  0  0  0  0
    9.3651   -3.8384   25.2531 H   0  0  0  0  0  0  0  0  0  0  0  0
   10.6567   -4.7751   24.3407 H   0  0  0  0  0  0  0  0  0  0  0  0
    8.4735   -5.5217   21.2291 H   0  0  0  0  0  0  0  0  0  0  0  0
    6.9561   -4.8168   21.9461 H   0  0  0  0  0  0  0  0  0  0  0  0
    9.7637   -3.3666   21.9837 H   0  0  0  0  0  0  0  0  0  0  0  0
    7.6119   -1.9314   20.8617 N   0  0  0  0  0  0  0  0  0  0  0  0
    7.2001   -0.6494   20.9905 N   0  0  0  0  0  0  0  0  0  0  0  0
    6.5605    0.0241   19.9173 C   0  0  0  0  0  0  0  0  0  0  0  0
    5.3702    0.7228   20.1259 C   0  0  0  0  0  0  0  0  0  0  0  0
    4.7941    1.3676   19.0309 C   0  0  0  0  0  0  0  0  0  0  0  0
    5.4379    1.3073   17.7900 C   0  0  0  0  0  0  0  0  0  0  0  0
    6.5789    0.6237   17.5875 N   0  0  0  0  0  0  0  0  0  0  0  0
    7.1171   -0.0229   18.6243 C   0  0  0  0  0  0  0  0  0  0  0  0
    8.0336   -0.5800   18.4360 H   0  0  0  0  0  0  0  0  0  0  0  0
    5.0151    1.8174   16.9278 H   0  0  0  0  0  0  0  0  0  0  0  0
    3.8752    1.9306   19.1384 H   0  0  0  0  0  0  0  0  0  0  0  0
    4.9328    0.7776   21.1255 H   0  0  0  0  0  0  0  0  0  0  0  0
    7.3475    2.3750   22.0568 C   0  0  0  0  0  0  0  0  0  0  0  0
    7.4226    2.5626   20.9985 H   0  0  0  0  0  0  0  0  0  0  0  0
    7.3272    0.7602   24.7789 H   0  0  0  0  0  0  0  0  0  0  0  0
  1  2  1  0
  2  3  1  0
  2  4  1  0
  2  5  1  0
  5  6  2  0
  6  7  1  0
  7  8  1  0
  8  9  1  0
  9 10  2  0
 10 11  1  0
 11 12  1  0
 12 13  1  0
 13 14  1  0
 14 15  1  0
 15 16  1  0
 16 17  1  0
 16 18  1  0
 15 19  1  0
 15 20  1  0
 13 21  1  0
 13 22  1  0
 12 23  1  0
 11 24  2  0
 24 25  1  0
 25 26  1  0
 26 27  2  0
 27 28  1  0
 28 29  2  0
 29 30  1  0
 30 31  2  0
 31 32  1  0
 29 33  1  0
 28 34  1  0
 27 35  1  0
  8 36  2  0
 36 37  1  0
  7 38  1  0
 36  5  1  0
 25  9  1  0
 31 26  1  0
 14 12  1  0
 16 14  1  0
M  END
>  <cnnaffinity>  (1) 
-6.09617

>  <filename>  (1) 
FC(F)(F)c1cc(-c2nc(C3CC34CC4)nn2-c2cccnc2)[nH]n1

$$$$
