
     RDKit          3D

 40 44  0  0  0  0  0  0  0  0999 V2000
   13.5206    2.6186   22.7613 F   0  0  0  0  0  0  0  0  0  0  0  0
   12.5781    1.9973   23.4894 C   0  0  0  0  0  0  0  0  0  0  0  0
   11.7834    2.9556   23.9871 F   0  0  0  0  0  0  0  0  0  0  0  0
   13.1859    1.3869   24.5156 F   0  0  0  0  0  0  0  0  0  0  0  0
   11.7835    1.0307   22.6224 C   0  0  0  0  0  0  0  0  0  0  0  0
   12.1673   -0.1651   22.2865 N   0  0  0  0  0  0  0  0  0  0  0  0
   11.2744   -0.7207   21.4033 C   0  0  0  0  0  0  0  0  0  0  0  0
   10.1883    0.0414   21.0780 C   0  0  0  0  0  0  0  0  0  0  0  0
    8.9924   -0.3266   20.2437 C   0  0  0  0  0  0  0  0  0  0  0  0
    7.8306   -0.8602   21.0448 C   0  0  0  0  0  0  0  0  0  0  0  0
    7.8944   -1.5092   22.1898 N   0  0  0  0  0  0  0  0  0  0  0  0
    6.6402   -2.0086   22.3378 C   0  0  0  0  0  0  0  0  0  0  0  0
    6.3528   -2.9276   23.4539 C   0  0  0  0  0  0  0  0  0  0  0  0
    5.2423   -3.9678   23.3152 C   0  0  0  0  0  0  0  0  0  0  0  0
    6.6837   -4.3563   23.1686 C   0  0  0  0  0  0  0  0  0  0  0  0
    7.6548   -4.9531   22.2211 C   0  0  0  0  0  0  0  0  0  0  0  0
    7.5856   -5.4025   23.6860 C   0  0  0  0  0  0  0  0  0  0  0  0
    8.3567   -5.1407   24.4063 H   0  0  0  0  0  0  0  0  0  0  0  0
    7.1245   -6.3672   23.8374 H   0  0  0  0  0  0  0  0  0  0  0  0
    8.4663   -4.2918   21.9088 H   0  0  0  0  0  0  0  0  0  0  0  0
    7.2485   -5.6182   21.4669 H   0  0  0  0  0  0  0  0  0  0  0  0
    4.7509   -4.3262   24.2225 H   0  0  0  0  0  0  0  0  0  0  0  0
    4.6371   -3.9301   22.4081 H   0  0  0  0  0  0  0  0  0  0  0  0
    6.6615   -2.5278   24.4160 H   0  0  0  0  0  0  0  0  0  0  0  0
    5.8017   -1.6976   21.3712 N   0  0  0  0  0  0  0  0  0  0  0  0
    6.5651   -0.9532   20.5342 N   0  0  0  0  0  0  0  0  0  0  0  0
    5.9594   -0.2253   19.4746 C   0  0  0  0  0  0  0  0  0  0  0  0
    4.9598    0.7167   19.7519 C   0  0  0  0  0  0  0  0  0  0  0  0
    4.5113    1.5211   18.7026 C   0  0  0  0  0  0  0  0  0  0  0  0
    5.0616    1.3377   17.4279 C   0  0  0  0  0  0  0  0  0  0  0  0
    5.9648    0.3892   17.1439 N   0  0  0  0  0  0  0  0  0  0  0  0
    6.3904   -0.3797   18.1490 C   0  0  0  0  0  0  0  0  0  0  0  0
    7.1394   -1.1326   17.9049 H   0  0  0  0  0  0  0  0  0  0  0  0
    4.7802    1.9763   16.5967 H   0  0  0  0  0  0  0  0  0  0  0  0
    3.7642    2.2936   18.8612 H   0  0  0  0  0  0  0  0  0  0  0  0
    4.5747    0.8161   20.7678 H   0  0  0  0  0  0  0  0  0  0  0  0
    8.6482    0.5247   19.6409 H   0  0  0  0  0  0  0  0  0  0  0  0
    9.2556   -1.1328   19.5422 H   0  0  0  0  0  0  0  0  0  0  0  0
   10.2884    1.5523   21.9082 S   0  0  0  0  0  0  0  0  0  0  0  0
   11.4497   -1.7173   21.0176 H   0  0  0  0  0  0  0  0  0  0  0  0
  1  2  1  0
  2  3  1  0
  2  4  1  0
  2  5  1  0
  5  6  2  0
  6  7  1  0
  7  8  2  0
  8  9  1  0
  9 10  1  0
 10 11  2  0
 11 12  1  0
 12 13  1  0
 13 14  1  0
 14 15  1  0
 15 16  1  0
 16 17  1  0
 17 18  1  0
 17 19  1  0
 16 20  1  0
 16 21  1  0
 14 22  1  0
 14 23  1  0
 13 24  1  0
 12 25  2  0
 25 26  1  0
 26 27  1  0
 27 28  2  0
 28 29  1  0
 29 30  2  0
 30 31  1  0
 31 32  2  0
 32 33  1  0
 30 34  1  0
 29 35  1  0
 28 36  1  0
  9 37  1  0
  9 38  1  0
  8 39  1  0
  7 40  1  0
 39  5  1  0
 26 10  1  0
 32 27  1  0
 15 13  1  0
 17 15  1  0
M  END
>  <cnnaffinity>  (1) 
-6.18383

>  <filename>  (1) 
FC(F)(F)c1ncc(Cc2nc(C3CC34CC4)nn2-c2cccnc2)s1

$$$$
