
     RDKit          3D

 32 35  0  0  0  0  0  0  0  0999 V2000
    4.9117    1.8089   16.9843 H   0  0  0  0  0  0  0  0  0  0  0  0
    5.3770    1.3038   17.8321 C   0  0  0  0  0  0  0  0  0  0  0  0
    6.5384    0.6819   17.5756 N   0  0  0  0  0  0  0  0  0  0  0  0
    7.1544    0.0766   18.5933 C   0  0  0  0  0  0  0  0  0  0  0  0
    8.1027   -0.3931   18.3385 H   0  0  0  0  0  0  0  0  0  0  0  0
    6.6712    0.0299   19.9224 C   0  0  0  0  0  0  0  0  0  0  0  0
    7.4280   -0.6761   20.9744 C   0  0  0  0  0  0  0  0  0  0  0  0
    8.3316   -1.7111   20.9257 C   0  0  0  0  0  0  0  0  0  0  0  0
    8.7315   -2.1345   20.0266 H   0  0  0  0  0  0  0  0  0  0  0  0
    8.7875   -2.1136   22.1511 N   0  0  0  0  0  0  0  0  0  0  0  0
    8.1931   -1.2841   22.9681 C   0  0  0  0  0  0  0  0  0  0  0  0
    8.3064   -0.8480   24.6369 S   0  0  0  0  0  0  0  0  0  0  0  0
    7.1960    0.4796   24.2778 C   0  0  0  0  0  0  0  0  0  0  0  0
    6.8091    1.4179   25.3716 C   0  0  0  0  0  0  0  0  0  0  0  0
    7.6526    1.4058   26.4162 N   0  0  0  0  0  0  0  0  0  0  0  0
    7.4675    2.2434   27.4310 C   0  0  0  0  0  0  0  0  0  0  0  0
    8.2201    2.2002   28.2148 H   0  0  0  0  0  0  0  0  0  0  0  0
    6.3827    3.1250   27.4895 C   0  0  0  0  0  0  0  0  0  0  0  0
    6.2749    3.7845   28.3380 H   0  0  0  0  0  0  0  0  0  0  0  0
    5.4606    3.1180   26.4525 C   0  0  0  0  0  0  0  0  0  0  0  0
    4.5756    3.7558   26.4726 H   0  0  0  0  0  0  0  0  0  0  0  0
    5.6714    2.2526   25.3769 C   0  0  0  0  0  0  0  0  0  0  0  0
    4.6493    2.1655   24.2899 C   0  0  0  0  0  0  0  0  0  0  0  0
    5.0903    2.6742   23.1281 F   0  0  0  0  0  0  0  0  0  0  0  0
    3.5063    2.8133   24.5817 F   0  0  0  0  0  0  0  0  0  0  0  0
    4.3094    0.8857   24.0911 F   0  0  0  0  0  0  0  0  0  0  0  0
    6.7940    0.5861   23.0453 N   0  0  0  0  0  0  0  0  0  0  0  0
    7.3577   -0.4085   22.3304 N   0  0  0  0  0  0  0  0  0  0  0  0
    5.4427    0.6733   20.1602 C   0  0  0  0  0  0  0  0  0  0  0  0
    5.0277    0.6642   21.1674 H   0  0  0  0  0  0  0  0  0  0  0  0
    4.7913    1.3181   19.1033 C   0  0  0  0  0  0  0  0  0  0  0  0
    3.8573    1.8525   19.2435 H   0  0  0  0  0  0  0  0  0  0  0  0
  1  2  1  0
  2  3  2  0
  3  4  1  0
  4  5  1  0
  4  6  2  0
  6  7  1  0
  7  8  2  0
  8  9  1  0
  8 10  1  0
 10 11  2  0
 11 12  1  0
 12 13  1  0
 13 14  1  0
 14 15  2  0
 15 16  1  0
 16 17  1  0
 16 18  2  0
 18 19  1  0
 18 20  1  0
 20 21  1  0
 20 22  2  0
 22 23  1  0
 23 24  1  0
 23 25  1  0
 23 26  1  0
 13 27  2  0
 27 28  1  0
  6 29  1  0
 29 30  1  0
 29 31  2  0
 31 32  1  0
 31  2  1  0
 28  7  1  0
 28 11  1  0
 22 14  1  0
M  END
>  <cnnaffinity>  (1) 
-5.21294

>  <filename>  (1) 
FC(F)(F)c1cccnc1-c1nn2c(-c3cccnc3)cnc2s1

$$$$
