
     RDKit          3D

 44 47  0  0  0  0  0  0  0  0999 V2000
    4.8788    0.8080   27.5736 F   0  0  0  0  0  0  0  0  0  0  0  0
    4.3302    0.2494   26.4751 C   0  0  0  0  0  0  0  0  0  0  0  0
    3.0020    0.3090   26.6194 F   0  0  0  0  0  0  0  0  0  0  0  0
    4.6803   -1.0598   26.4991 F   0  0  0  0  0  0  0  0  0  0  0  0
    4.8307    0.9161   25.2077 C   0  0  0  0  0  0  0  0  0  0  0  0
    6.0518    0.6573   24.6537 C   0  0  0  0  0  0  0  0  0  0  0  0
    6.1603    1.4792   23.5636 N   0  0  0  0  0  0  0  0  0  0  0  0
    7.3225    1.4506   22.6848 C   0  0  0  0  0  0  0  0  0  0  0  0
    7.5987    0.0543   22.2072 C   0  0  0  0  0  0  0  0  0  0  0  0
    8.1855   -0.8620   22.9575 N   0  0  0  0  0  0  0  0  0  0  0  0
    8.0927   -1.9867   22.2031 C   0  0  0  0  0  0  0  0  0  0  0  0
    8.5627   -3.3603   22.6322 C   0  0  0  0  0  0  0  0  0  0  0  0
    9.6709   -3.3059   23.7215 C   0  0  0  0  0  0  0  0  0  0  0  0
    9.1140   -3.1950   25.1287 C   0  0  0  0  0  0  0  0  0  0  0  0
    7.8261   -3.3848   25.4403 C   0  0  0  0  0  0  0  0  0  0  0  0
    6.7864   -3.8390   24.4406 C   0  0  0  0  0  0  0  0  0  0  0  0
    7.4256   -4.3095   23.1196 C   0  0  0  0  0  0  0  0  0  0  0  0
    6.6725   -4.4423   22.3347 H   0  0  0  0  0  0  0  0  0  0  0  0
    7.8908   -5.2972   23.2698 H   0  0  0  0  0  0  0  0  0  0  0  0
    6.0924   -2.9993   24.2777 H   0  0  0  0  0  0  0  0  0  0  0  0
    6.1736   -4.6534   24.8595 H   0  0  0  0  0  0  0  0  0  0  0  0
    7.4779   -3.1722   26.4532 H   0  0  0  0  0  0  0  0  0  0  0  0
    9.8168   -2.9311   25.9172 H   0  0  0  0  0  0  0  0  0  0  0  0
   10.3036   -4.2059   23.6749 H   0  0  0  0  0  0  0  0  0  0  0  0
   10.3487   -2.4631   23.5354 H   0  0  0  0  0  0  0  0  0  0  0  0
    8.9500   -3.7669   21.6942 H   0  0  0  0  0  0  0  0  0  0  0  0
    7.5424   -1.8044   21.0150 N   0  0  0  0  0  0  0  0  0  0  0  0
    7.1978   -0.4850   21.0272 N   0  0  0  0  0  0  0  0  0  0  0  0
    6.5353    0.1199   19.9220 C   0  0  0  0  0  0  0  0  0  0  0  0
    5.3677    0.8801   20.0779 C   0  0  0  0  0  0  0  0  0  0  0  0
    4.8145    1.4779   18.9382 C   0  0  0  0  0  0  0  0  0  0  0  0
    5.4449    1.2962   17.7035 C   0  0  0  0  0  0  0  0  0  0  0  0
    6.5414    0.5335   17.5448 N   0  0  0  0  0  0  0  0  0  0  0  0
    7.0525   -0.0574   18.6282 C   0  0  0  0  0  0  0  0  0  0  0  0
    7.9062   -0.7129   18.4789 H   0  0  0  0  0  0  0  0  0  0  0  0
    5.0638    1.7706   16.8006 H   0  0  0  0  0  0  0  0  0  0  0  0
    3.9144    2.0819   18.9970 H   0  0  0  0  0  0  0  0  0  0  0  0
    4.8907    0.9749   21.0545 H   0  0  0  0  0  0  0  0  0  0  0  0
    8.1902    1.7858   23.2612 H   0  0  0  0  0  0  0  0  0  0  0  0
    7.1884    2.1475   21.8587 H   0  0  0  0  0  0  0  0  0  0  0  0
    5.0170    2.2284   23.5286 C   0  0  0  0  0  0  0  0  0  0  0  0
    4.1923    1.9075   24.4889 N   0  0  0  0  0  0  0  0  0  0  0  0
    4.8466    3.0102   22.7982 H   0  0  0  0  0  0  0  0  0  0  0  0
    6.8517   -0.0346   24.8853 H   0  0  0  0  0  0  0  0  0  0  0  0
  1  2  1  0
  2  3  1  0
  2  4  1  0
  2  5  1  0
  5  6  2  0
  6  7  1  0
  7  8  1  0
  8  9  1  0
  9 10  2  0
 10 11  1  0
 11 12  1  0
 12 13  1  0
 13 14  1  0
 14 15  2  0
 15 16  1  0
 16 17  1  0
 17 18  1  0
 17 19  1  0
 16 20  1  0
 16 21  1  0
 15 22  1  0
 14 23  1  0
 13 24  1  0
 13 25  1  0
 12 26  1  0
 11 27  2  0
 27 28  1  0
 28 29  1  0
 29 30  2  0
 30 31  1  0
 31 32  2  0
 32 33  1  0
 33 34  2  0
 34 35  1  0
 32 36  1  0
 31 37  1  0
 30 38  1  0
  8 39  1  0
  8 40  1  0
  7 41  1  0
 41 42  2  0
 41 43  1  0
  6 44  1  0
 42  5  1  0
 28  9  1  0
 34 29  1  0
 17 12  1  0
M  END
>  <cnnaffinity>  (1) 
-6.18105

>  <filename>  (1) 
FC(F)(F)c1cn(Cc2nc(C3CC=CCC3)nn2-c2cccnc2)cn1

$$$$
