
     RDKit          3D

 35 38  0  0  0  0  0  0  0  0999 V2000
    4.9934    1.8648   16.8841 H   0  0  0  0  0  0  0  0  0  0  0  0
    5.4195    1.3044   17.7149 C   0  0  0  0  0  0  0  0  0  0  0  0
    6.5625    0.6441   17.4696 N   0  0  0  0  0  0  0  0  0  0  0  0
    7.1302   -0.0076   18.4909 C   0  0  0  0  0  0  0  0  0  0  0  0
    8.0601   -0.5286   18.2697 H   0  0  0  0  0  0  0  0  0  0  0  0
    6.5975   -0.0361   19.7941 C   0  0  0  0  0  0  0  0  0  0  0  0
    7.3562   -0.6394   20.9045 C   0  0  0  0  0  0  0  0  0  0  0  0
    8.4941   -1.3147   20.6799 N   0  0  0  0  0  0  0  0  0  0  0  0
    8.9382   -1.5823   21.9262 N   0  0  0  0  0  0  0  0  0  0  0  0
   10.0481   -2.2147   22.4671 C   0  0  0  0  0  0  0  0  0  0  0  0
   10.7887   -2.6833   21.8413 H   0  0  0  0  0  0  0  0  0  0  0  0
    9.9245   -2.0920   23.8121 C   0  0  0  0  0  0  0  0  0  0  0  0
   10.5483   -2.4743   24.6042 H   0  0  0  0  0  0  0  0  0  0  0  0
    8.7627   -1.3800   24.1158 N   0  0  0  0  0  0  0  0  0  0  0  0
    8.2774   -1.0051   25.3969 C   0  0  0  0  0  0  0  0  0  0  0  0
    9.1632   -0.6634   26.4362 C   0  0  0  0  0  0  0  0  0  0  0  0
   10.2386   -0.7065   26.2934 H   0  0  0  0  0  0  0  0  0  0  0  0
    8.6562   -0.2113   27.6562 C   0  0  0  0  0  0  0  0  0  0  0  0
    9.3350    0.0253   28.4708 H   0  0  0  0  0  0  0  0  0  0  0  0
    7.2812   -0.0713   27.8469 C   0  0  0  0  0  0  0  0  0  0  0  0
    6.9132    0.3611   28.7719 H   0  0  0  0  0  0  0  0  0  0  0  0
    6.3921   -0.4615   26.8358 C   0  0  0  0  0  0  0  0  0  0  0  0
    4.9011   -0.3820   27.0859 C   0  0  0  0  0  0  0  0  0  0  0  0
    4.4371   -1.4854   27.7048 F   0  0  0  0  0  0  0  0  0  0  0  0
    4.5769    0.6637   27.8739 F   0  0  0  0  0  0  0  0  0  0  0  0
    4.2045   -0.2478   25.9424 F   0  0  0  0  0  0  0  0  0  0  0  0
    6.8899   -0.9393   25.6140 C   0  0  0  0  0  0  0  0  0  0  0  0
    6.2297   -1.2282   24.7973 H   0  0  0  0  0  0  0  0  0  0  0  0
    8.1503   -1.0895   22.9037 C   0  0  0  0  0  0  0  0  0  0  0  0
    7.0663   -0.4916   22.2823 C   0  0  0  0  0  0  0  0  0  0  0  0
    6.1878   -0.0459   22.7065 H   0  0  0  0  0  0  0  0  0  0  0  0
    5.3757    0.6191   20.0178 C   0  0  0  0  0  0  0  0  0  0  0  0
    4.9056    0.6113   21.0037 H   0  0  0  0  0  0  0  0  0  0  0  0
    4.7849    1.3043   18.9614 C   0  0  0  0  0  0  0  0  0  0  0  0
    3.8700    1.8662   19.1053 H   0  0  0  0  0  0  0  0  0  0  0  0
  1  2  1  0
  2  3  2  0
  3  4  1  0
  4  5  1  0
  4  6  2  0
  6  7  1  0
  7  8  2  0
  8  9  1  0
  9 10  1  0
 10 11  1  0
 10 12  2  0
 12 13  1  0
 12 14  1  0
 14 15  1  0
 15 16  2  0
 16 17  1  0
 16 18  1  0
 18 19  1  0
 18 20  2  0
 20 21  1  0
 20 22  1  0
 22 23  1  0
 23 24  1  0
 23 25  1  0
 23 26  1  0
 22 27  2  0
 27 28  1  0
 14 29  1  0
 29 30  2  0
 30 31  1  0
  6 32  1  0
 32 33  1  0
 32 34  2  0
 34 35  1  0
 34  2  1  0
 30  7  1  0
 29  9  1  0
 27 15  1  0
M  END
>  <cnnaffinity>  (1) 
-5.59886

>  <filename>  (1) 
FC(F)(F)c1cccc(-n2ccn3nc(-c4cccnc4)cc23)c1

$$$$
