
     RDKit          3D

 43 46  0  0  0  0  0  0  0  0999 V2000
   11.8996    4.2755   24.6466 F   0  0  0  0  0  0  0  0  0  0  0  0
   10.8794    3.6357   24.0700 C   0  0  0  0  0  0  0  0  0  0  0  0
   10.2794    4.5132   23.2315 F   0  0  0  0  0  0  0  0  0  0  0  0
    9.9544    3.3666   25.0159 F   0  0  0  0  0  0  0  0  0  0  0  0
   11.2853    2.3463   23.3282 C   0  0  0  0  0  0  0  0  0  0  0  0
   10.3601    1.8661   22.3898 C   0  0  0  0  0  0  0  0  0  0  0  0
   10.6715    0.7426   21.6349 C   0  0  0  0  0  0  0  0  0  0  0  0
    9.6527    0.1866   20.6765 C   0  0  0  0  0  0  0  0  0  0  0  0
    8.6013   -0.6164   21.3576 C   0  0  0  0  0  0  0  0  0  0  0  0
    8.8056   -1.4346   22.3698 N   0  0  0  0  0  0  0  0  0  0  0  0
    7.5943   -1.9989   22.5561 C   0  0  0  0  0  0  0  0  0  0  0  0
    7.3765   -3.0087   23.6284 C   0  0  0  0  0  0  0  0  0  0  0  0
    6.7634   -4.3450   23.1582 C   0  0  0  0  0  0  0  0  0  0  0  0
    5.9780   -4.8197   24.3851 C   0  0  0  0  0  0  0  0  0  0  0  0
    5.7692   -3.6895   25.2161 O   0  0  0  0  0  0  0  0  0  0  0  0
    6.3748   -2.5295   24.6901 C   0  0  0  0  0  0  0  0  0  0  0  0
    5.6143   -1.8734   24.2475 H   0  0  0  0  0  0  0  0  0  0  0  0
    6.8580   -1.9816   25.5093 H   0  0  0  0  0  0  0  0  0  0  0  0
    5.0016   -5.2400   24.1104 H   0  0  0  0  0  0  0  0  0  0  0  0
    6.5288   -5.5778   24.9577 H   0  0  0  0  0  0  0  0  0  0  0  0
    7.5189   -5.0660   22.8273 H   0  0  0  0  0  0  0  0  0  0  0  0
    6.0816   -4.1639   22.3197 H   0  0  0  0  0  0  0  0  0  0  0  0
    8.3547   -3.1699   24.0942 H   0  0  0  0  0  0  0  0  0  0  0  0
    6.6460   -1.5860   21.7319 N   0  0  0  0  0  0  0  0  0  0  0  0
    7.3058   -0.7060   20.9357 N   0  0  0  0  0  0  0  0  0  0  0  0
    6.6302   -0.0284   19.8876 C   0  0  0  0  0  0  0  0  0  0  0  0
    5.4207    0.6224   20.1484 C   0  0  0  0  0  0  0  0  0  0  0  0
    4.7990    1.3061   19.1023 C   0  0  0  0  0  0  0  0  0  0  0  0
    5.3976    1.2946   17.8354 C   0  0  0  0  0  0  0  0  0  0  0  0
    6.5433    0.6478   17.5704 N   0  0  0  0  0  0  0  0  0  0  0  0
    7.1454    0.0091   18.5783 C   0  0  0  0  0  0  0  0  0  0  0  0
    8.0888   -0.4849   18.3430 H   0  0  0  0  0  0  0  0  0  0  0  0
    4.9402    1.8246   17.0046 H   0  0  0  0  0  0  0  0  0  0  0  0
    3.8734    1.8518   19.2579 H   0  0  0  0  0  0  0  0  0  0  0  0
    5.0021    0.5889   21.1543 H   0  0  0  0  0  0  0  0  0  0  0  0
    9.1721    0.9969   20.1253 H   0  0  0  0  0  0  0  0  0  0  0  0
   10.1177   -0.4850   19.9493 H   0  0  0  0  0  0  0  0  0  0  0  0
   11.8818    0.1025   21.8971 C   0  0  0  0  0  0  0  0  0  0  0  0
   12.7226    0.6067   22.8972 C   0  0  0  0  0  0  0  0  0  0  0  0
   12.4428    1.7104   23.6015 N   0  0  0  0  0  0  0  0  0  0  0  0
   13.6497    0.0887   23.1426 H   0  0  0  0  0  0  0  0  0  0  0  0
   12.1680   -0.7774   21.3373 H   0  0  0  0  0  0  0  0  0  0  0  0
    9.4070    2.3641   22.2590 H   0  0  0  0  0  0  0  0  0  0  0  0
  1  2  1  0
  2  3  1  0
  2  4  1  0
  2  5  1  0
  5  6  2  0
  6  7  1  0
  7  8  1  0
  8  9  1  0
  9 10  2  0
 10 11  1  0
 11 12  1  0
 12 13  1  0
 13 14  1  0
 14 15  1  0
 15 16  1  0
 16 17  1  0
 16 18  1  0
 14 19  1  0
 14 20  1  0
 13 21  1  0
 13 22  1  0
 12 23  1  0
 11 24  2  0
 24 25  1  0
 25 26  1  0
 26 27  2  0
 27 28  1  0
 28 29  2  0
 29 30  1  0
 30 31  2  0
 31 32  1  0
 29 33  1  0
 28 34  1  0
 27 35  1  0
  8 36  1  0
  8 37  1  0
  7 38  2  0
 38 39  1  0
 39 40  2  0
 39 41  1  0
 38 42  1  0
  6 43  1  0
 40  5  1  0
 25  9  1  0
 31 26  1  0
 16 12  1  0
M  END
>  <cnnaffinity>  (1) 
-6.30865

>  <filename>  (1) 
FC(F)(F)c1cc(Cc2nc(C3CCOC3)nn2-c2cccnc2)ccn1

$$$$
