
     RDKit          3D

 44 47  0  0  0  0  0  0  0  0999 V2000
   14.4334    0.0021   23.2212 F   0  0  0  0  0  0  0  0  0  0  0  0
   13.4889    0.7644   23.8249 C   0  0  0  0  0  0  0  0  0  0  0  0
   13.0689    0.0954   24.9307 F   0  0  0  0  0  0  0  0  0  0  0  0
   12.3961    1.0027   22.9368 N   0  0  0  0  0  0  0  0  0  0  0  0
   11.8460    0.1961   21.9771 C   0  0  0  0  0  0  0  0  0  0  0  0
   10.6631    0.7722   21.5932 C   0  0  0  0  0  0  0  0  0  0  0  0
    9.6282    0.1850   20.6658 C   0  0  0  0  0  0  0  0  0  0  0  0
    8.5965   -0.6678   21.3326 C   0  0  0  0  0  0  0  0  0  0  0  0
    8.8083   -1.5140   22.3167 N   0  0  0  0  0  0  0  0  0  0  0  0
    7.5713   -2.0250   22.5574 C   0  0  0  0  0  0  0  0  0  0  0  0
    7.3605   -3.0194   23.6513 C   0  0  0  0  0  0  0  0  0  0  0  0
    8.0938   -4.3512   23.3321 C   0  0  0  0  0  0  0  0  0  0  0  0
    8.0991   -5.2913   24.5097 C   0  0  0  0  0  0  0  0  0  0  0  0
    7.8469   -4.9014   25.7633 C   0  0  0  0  0  0  0  0  0  0  0  0
    7.5085   -3.4779   26.1418 C   0  0  0  0  0  0  0  0  0  0  0  0
    7.8411   -2.4774   25.0228 C   0  0  0  0  0  0  0  0  0  0  0  0
    8.9267   -2.3089   24.9706 H   0  0  0  0  0  0  0  0  0  0  0  0
    7.3867   -1.5026   25.2390 H   0  0  0  0  0  0  0  0  0  0  0  0
    6.4339   -3.4201   26.3729 H   0  0  0  0  0  0  0  0  0  0  0  0
    8.0233   -3.2091   27.0740 H   0  0  0  0  0  0  0  0  0  0  0  0
    7.8626   -5.6362   26.5667 H   0  0  0  0  0  0  0  0  0  0  0  0
    8.3336   -6.3338   24.3046 H   0  0  0  0  0  0  0  0  0  0  0  0
    7.6406   -4.8462   22.4632 H   0  0  0  0  0  0  0  0  0  0  0  0
    9.1333   -4.1307   23.0430 H   0  0  0  0  0  0  0  0  0  0  0  0
    6.2799   -3.2022   23.6959 H   0  0  0  0  0  0  0  0  0  0  0  0
    6.6254   -1.5797   21.7575 N   0  0  0  0  0  0  0  0  0  0  0  0
    7.2897   -0.7183   20.9419 N   0  0  0  0  0  0  0  0  0  0  0  0
    6.6207   -0.0306   19.8909 C   0  0  0  0  0  0  0  0  0  0  0  0
    5.4147    0.6310   20.1460 C   0  0  0  0  0  0  0  0  0  0  0  0
    4.7984    1.3145   19.0962 C   0  0  0  0  0  0  0  0  0  0  0  0
    5.3973    1.2993   17.8312 C   0  0  0  0  0  0  0  0  0  0  0  0
    6.5457    0.6555   17.5738 N   0  0  0  0  0  0  0  0  0  0  0  0
    7.1426    0.0150   18.5842 C   0  0  0  0  0  0  0  0  0  0  0  0
    8.0919   -0.4659   18.3478 H   0  0  0  0  0  0  0  0  0  0  0  0
    4.9386    1.8180   16.9933 H   0  0  0  0  0  0  0  0  0  0  0  0
    3.8718    1.8578   19.2474 H   0  0  0  0  0  0  0  0  0  0  0  0
    4.9963    0.6004   21.1516 H   0  0  0  0  0  0  0  0  0  0  0  0
   10.1007   -0.4738   19.9255 H   0  0  0  0  0  0  0  0  0  0  0  0
    9.1154    0.9856   20.1224 H   0  0  0  0  0  0  0  0  0  0  0  0
   10.5649    1.9387   22.4025 C   0  0  0  0  0  0  0  0  0  0  0  0
   11.6088    2.0684   23.1929 N   0  0  0  0  0  0  0  0  0  0  0  0
    9.7240    2.6176   22.5209 H   0  0  0  0  0  0  0  0  0  0  0  0
   12.3607   -0.6938   21.6425 H   0  0  0  0  0  0  0  0  0  0  0  0
   13.8832    1.7408   24.1007 H   0  0  0  0  0  0  0  0  0  0  0  0
  1  2  1  0
  2  3  1  0
  2  4  1  0
  4  5  1  0
  5  6  2  0
  6  7  1  0
  7  8  1  0
  8  9  2  0
  9 10  1  0
 10 11  1  0
 11 12  1  0
 12 13  1  0
 13 14  2  0
 14 15  1  0
 15 16  1  0
 16 17  1  0
 16 18  1  0
 15 19  1  0
 15 20  1  0
 14 21  1  0
 13 22  1  0
 12 23  1  0
 12 24  1  0
 11 25  1  0
 10 26  2  0
 26 27  1  0
 27 28  1  0
 28 29  2  0
 29 30  1  0
 30 31  2  0
 31 32  1  0
 32 33  2  0
 33 34  1  0
 31 35  1  0
 30 36  1  0
 29 37  1  0
  7 38  1  0
  7 39  1  0
  6 40  1  0
 40 41  2  0
 40 42  1  0
  5 43  1  0
  2 44  1  0
 41  4  1  0
 27  8  1  0
 33 28  1  0
 16 11  1  0
M  END
>  <cnnaffinity>  (1) 
-6.68243

>  <filename>  (1) 
FC(F)n1cc(Cc2nc(C3CC=CCC3)nn2-c2cccnc2)cn1

$$$$
