
     RDKit          3D

 47 50  0  0  0  0  0  0  0  0999 V2000
    5.5030    2.9207   22.9657 F   0  0  0  0  0  0  0  0  0  0  0  0
    6.3675    2.2067   23.6994 C   0  0  0  0  0  0  0  0  0  0  0  0
    6.1398    2.5073   24.9985 F   0  0  0  0  0  0  0  0  0  0  0  0
    6.0549    0.9079   23.5297 F   0  0  0  0  0  0  0  0  0  0  0  0
    7.8361    2.5010   23.3681 C   0  0  0  0  0  0  0  0  0  0  0  0
    8.8373    1.6952   24.2096 C   0  0  0  0  0  0  0  0  0  0  0  0
   10.0498    1.5914   23.2768 C   0  0  0  0  0  0  0  0  0  0  0  0
    9.4814    1.8107   21.8611 C   0  0  0  0  0  0  0  0  0  0  0  0
    9.5534    0.5747   20.9556 C   0  0  0  0  0  0  0  0  0  0  0  0
    8.6256   -0.4958   21.4075 C   0  0  0  0  0  0  0  0  0  0  0  0
    8.8723   -1.3530   22.3824 N   0  0  0  0  0  0  0  0  0  0  0  0
    7.6938   -2.0179   22.5143 C   0  0  0  0  0  0  0  0  0  0  0  0
    7.4368   -3.0259   23.5956 C   0  0  0  0  0  0  0  0  0  0  0  0
    6.7675   -4.3255   23.1035 C   0  0  0  0  0  0  0  0  0  0  0  0
    6.0363   -4.9058   24.3282 C   0  0  0  0  0  0  0  0  0  0  0  0
    5.8560   -3.7454   25.3403 C   0  0  0  0  0  0  0  0  0  0  0  0
    6.4898   -2.4968   24.7014 C   0  0  0  0  0  0  0  0  0  0  0  0
    5.7198   -1.8639   24.2501 H   0  0  0  0  0  0  0  0  0  0  0  0
    7.0232   -1.8675   25.4260 H   0  0  0  0  0  0  0  0  0  0  0  0
    6.3411   -3.9898   26.2913 H   0  0  0  0  0  0  0  0  0  0  0  0
    4.8010   -3.5694   25.5743 H   0  0  0  0  0  0  0  0  0  0  0  0
    6.6140   -5.7184   24.7827 H   0  0  0  0  0  0  0  0  0  0  0  0
    5.0761   -5.3430   24.0361 H   0  0  0  0  0  0  0  0  0  0  0  0
    6.0572   -4.0857   22.3041 H   0  0  0  0  0  0  0  0  0  0  0  0
    7.4998   -5.0229   22.6809 H   0  0  0  0  0  0  0  0  0  0  0  0
    8.4083   -3.2576   24.0405 H   0  0  0  0  0  0  0  0  0  0  0  0
    6.7542   -1.6424   21.6633 N   0  0  0  0  0  0  0  0  0  0  0  0
    7.3609   -0.6719   20.9360 N   0  0  0  0  0  0  0  0  0  0  0  0
    6.6567    0.0071   19.9034 C   0  0  0  0  0  0  0  0  0  0  0  0
    5.4418    0.6427   20.1714 C   0  0  0  0  0  0  0  0  0  0  0  0
    4.8102    1.3104   19.1146 C   0  0  0  0  0  0  0  0  0  0  0  0
    5.3966    1.2942   17.8421 C   0  0  0  0  0  0  0  0  0  0  0  0
    6.5529    0.6663   17.5760 N   0  0  0  0  0  0  0  0  0  0  0  0
    7.1639    0.0475   18.5919 C   0  0  0  0  0  0  0  0  0  0  0  0
    8.1112   -0.4364   18.3629 H   0  0  0  0  0  0  0  0  0  0  0  0
    4.9204    1.7850   16.9968 H   0  0  0  0  0  0  0  0  0  0  0  0
    3.8797    1.8418   19.2636 H   0  0  0  0  0  0  0  0  0  0  0  0
    5.0304    0.6240   21.1865 H   0  0  0  0  0  0  0  0  0  0  0  0
   10.5673    0.1740   20.9759 H   0  0  0  0  0  0  0  0  0  0  0  0
    9.3215    0.8629   19.9311 H   0  0  0  0  0  0  0  0  0  0  0  0
    8.1048    2.1447   22.0248 O   0  0  0  0  0  0  0  0  0  0  0  0
    9.9814    2.6491   21.3503 H   0  0  0  0  0  0  0  0  0  0  0  0
   10.7924    2.3618   23.4952 H   0  0  0  0  0  0  0  0  0  0  0  0
   10.5352    0.6157   23.3622 H   0  0  0  0  0  0  0  0  0  0  0  0
    8.4364    0.6980   24.4265 H   0  0  0  0  0  0  0  0  0  0  0  0
    9.0628    2.1896   25.1588 H   0  0  0  0  0  0  0  0  0  0  0  0
    7.9632    3.5849   23.5195 H   0  0  0  0  0  0  0  0  0  0  0  0
  1  2  1  0
  2  3  1  0
  2  4  1  0
  2  5  1  0
  5  6  1  0
  6  7  1  0
  7  8  1  0
  8  9  1  0
  9 10  1  0
 10 11  2  0
 11 12  1  0
 12 13  1  0
 13 14  1  0
 14 15  1  0
 15 16  1  0
 16 17  1  0
 17 18  1  0
 17 19  1  0
 16 20  1  0
 16 21  1  0
 15 22  1  0
 15 23  1  0
 14 24  1  0
 14 25  1  0
 13 26  1  0
 12 27  2  0
 27 28  1  0
 28 29  1  0
 29 30  2  0
 30 31  1  0
 31 32  2  0
 32 33  1  0
 33 34  2  0
 34 35  1  0
 32 36  1  0
 31 37  1  0
 30 38  1  0
  9 39  1  0
  9 40  1  0
  8 41  1  0
  8 42  1  0
  7 43  1  0
  7 44  1  0
  6 45  1  0
  6 46  1  0
  5 47  1  0
 41  5  1  0
 28 10  1  0
 34 29  1  0
 17 13  1  0
M  END
>  <cnnaffinity>  (1) 
-6.00582

>  <filename>  (1) 
FC(F)(F)C1CCC(Cc2nc(C3CCCC3)nn2-c2cccnc2)O1

$$$$
