
     RDKit          3D

 33 35  0  0  0  0  0  0  0  0999 V2000
    4.9380    1.8345   16.9634 H   0  0  0  0  0  0  0  0  0  0  0  0
    5.3930    1.2889   17.7885 C   0  0  0  0  0  0  0  0  0  0  0  0
    6.5457    0.6544   17.5292 N   0  0  0  0  0  0  0  0  0  0  0  0
    7.1454    0.0149   18.5420 C   0  0  0  0  0  0  0  0  0  0  0  0
    8.0871   -0.4745   18.2935 H   0  0  0  0  0  0  0  0  0  0  0  0
    6.6334   -0.0345   19.8523 C   0  0  0  0  0  0  0  0  0  0  0  0
    7.3618   -0.7494   20.9867 C   0  0  0  0  0  0  0  0  0  0  0  0
    7.4023   -1.8267   20.8111 H   0  0  0  0  0  0  0  0  0  0  0  0
    6.8039   -0.6012   21.9169 H   0  0  0  0  0  0  0  0  0  0  0  0
    8.7535   -0.3434   21.2200 N   0  0  0  0  0  0  0  0  0  0  0  0
    9.7367   -1.1887   20.8779 N   0  0  0  0  0  0  0  0  0  0  0  0
   10.8668   -0.5122   21.0147 C   0  0  0  0  0  0  0  0  0  0  0  0
   11.8116   -0.9970   20.7913 H   0  0  0  0  0  0  0  0  0  0  0  0
   10.6290    0.8053   21.4271 C   0  0  0  0  0  0  0  0  0  0  0  0
   11.3750    1.5840   21.5534 H   0  0  0  0  0  0  0  0  0  0  0  0
    9.2474    0.8717   21.6051 C   0  0  0  0  0  0  0  0  0  0  0  0
    8.4029    1.9890   22.0982 C   0  0  0  0  0  0  0  0  0  0  0  0
    7.1860    1.7777   22.6362 N   0  0  0  0  0  0  0  0  0  0  0  0
    6.4266    2.8411   22.9593 C   0  0  0  0  0  0  0  0  0  0  0  0
    5.0350    2.6247   23.6104 C   0  0  0  0  0  0  0  0  0  0  0  0
    4.0226    3.0041   22.7961 F   0  0  0  0  0  0  0  0  0  0  0  0
    4.9096    3.3770   24.7258 F   0  0  0  0  0  0  0  0  0  0  0  0
    4.7870    1.3575   23.9532 F   0  0  0  0  0  0  0  0  0  0  0  0
    6.8329    4.1632   22.7116 C   0  0  0  0  0  0  0  0  0  0  0  0
    6.1836    4.9981   22.9281 H   0  0  0  0  0  0  0  0  0  0  0  0
    8.1116    4.3796   22.1977 C   0  0  0  0  0  0  0  0  0  0  0  0
    8.4739    5.3770   21.9698 H   0  0  0  0  0  0  0  0  0  0  0  0
    8.9215    3.2770   21.9651 C   0  0  0  0  0  0  0  0  0  0  0  0
    9.9579    3.3612   21.6946 H   0  0  0  0  0  0  0  0  0  0  0  0
    5.4105    0.6072   20.0846 C   0  0  0  0  0  0  0  0  0  0  0  0
    4.9880    0.6209   21.0927 H   0  0  0  0  0  0  0  0  0  0  0  0
    4.7775    1.2842   19.0419 C   0  0  0  0  0  0  0  0  0  0  0  0
    3.8473    1.8215   19.1962 H   0  0  0  0  0  0  0  0  0  0  0  0
  1  2  1  0
  2  3  2  0
  3  4  1  0
  4  5  1  0
  4  6  2  0
  6  7  1  0
  7  8  1  0
  7  9  1  0
  7 10  1  0
 10 11  1  0
 11 12  2  0
 12 13  1  0
 12 14  1  0
 14 15  1  0
 14 16  2  0
 16 17  1  0
 17 18  2  0
 18 19  1  0
 19 20  1  0
 20 21  1  0
 20 22  1  0
 20 23  1  0
 19 24  2  0
 24 25  1  0
 24 26  1  0
 26 27  1  0
 26 28  2  0
 28 29  1  0
  6 30  1  0
 30 31  1  0
 30 32  2  0
 32 33  1  0
 32  2  1  0
 16 10  1  0
 28 17  1  0
M  END
>  <cnnaffinity>  (1) 
-4.96561

>  <filename>  (1) 
FC(F)(F)c1cccc(-c2ccnn2Cc2cccnc2)n1

$$$$
