
     RDKit          3D

 44 47  0  0  0  0  0  0  0  0999 V2000
   13.6434    0.6828   24.5496 F   0  0  0  0  0  0  0  0  0  0  0  0
   13.6720    0.8299   23.2161 C   0  0  0  0  0  0  0  0  0  0  0  0
   14.3839    1.9214   22.9108 F   0  0  0  0  0  0  0  0  0  0  0  0
   14.3274   -0.2397   22.7181 F   0  0  0  0  0  0  0  0  0  0  0  0
   12.3013    0.9475   22.6166 C   0  0  0  0  0  0  0  0  0  0  0  0
   11.5129    1.9718   22.9225 N   0  0  0  0  0  0  0  0  0  0  0  0
   10.4303    1.7969   22.1672 N   0  0  0  0  0  0  0  0  0  0  0  0
   10.5069    0.6913   21.3829 C   0  0  0  0  0  0  0  0  0  0  0  0
    9.4004    0.1822   20.5335 C   0  0  0  0  0  0  0  0  0  0  0  0
    8.4189   -0.6862   21.2722 C   0  0  0  0  0  0  0  0  0  0  0  0
    8.6656   -1.4771   22.2939 N   0  0  0  0  0  0  0  0  0  0  0  0
    7.4598   -2.0622   22.5405 C   0  0  0  0  0  0  0  0  0  0  0  0
    7.2876   -3.0670   23.6470 C   0  0  0  0  0  0  0  0  0  0  0  0
    8.0399   -4.3916   23.3244 C   0  0  0  0  0  0  0  0  0  0  0  0
    8.1075   -5.3345   24.5048 C   0  0  0  0  0  0  0  0  0  0  0  0
    7.8402   -4.9617   25.7582 C   0  0  0  0  0  0  0  0  0  0  0  0
    7.5115   -3.5365   26.1441 C   0  0  0  0  0  0  0  0  0  0  0  0
    7.7907   -2.5320   25.0099 C   0  0  0  0  0  0  0  0  0  0  0  0
    8.8712   -2.3494   24.9224 H   0  0  0  0  0  0  0  0  0  0  0  0
    7.3330   -1.5642   25.2427 H   0  0  0  0  0  0  0  0  0  0  0  0
    6.4536   -3.4904   26.4439 H   0  0  0  0  0  0  0  0  0  0  0  0
    8.0759   -3.2475   27.0407 H   0  0  0  0  0  0  0  0  0  0  0  0
    7.8310   -5.7037   26.5593 H   0  0  0  0  0  0  0  0  0  0  0  0
    8.4338   -6.3541   24.2981 H   0  0  0  0  0  0  0  0  0  0  0  0
    9.0657   -4.1448   23.0112 H   0  0  0  0  0  0  0  0  0  0  0  0
    7.5779   -4.8941   22.4655 H   0  0  0  0  0  0  0  0  0  0  0  0
    6.2099   -3.2620   23.7106 H   0  0  0  0  0  0  0  0  0  0  0  0
    6.4979   -1.6959   21.7159 N   0  0  0  0  0  0  0  0  0  0  0  0
    7.1192   -0.8195   20.8832 N   0  0  0  0  0  0  0  0  0  0  0  0
    6.4347   -0.1355   19.8402 C   0  0  0  0  0  0  0  0  0  0  0  0
    5.2579    0.5809   20.0852 C   0  0  0  0  0  0  0  0  0  0  0  0
    4.7222    1.3384   19.0377 C   0  0  0  0  0  0  0  0  0  0  0  0
    5.3559    1.3260   17.7892 C   0  0  0  0  0  0  0  0  0  0  0  0
    6.4554    0.6002   17.5358 N   0  0  0  0  0  0  0  0  0  0  0  0
    6.9715   -0.1152   18.5400 C   0  0  0  0  0  0  0  0  0  0  0  0
    7.8730   -0.6849   18.3157 H   0  0  0  0  0  0  0  0  0  0  0  0
    4.9662    1.9152   16.9617 H   0  0  0  0  0  0  0  0  0  0  0  0
    3.8365    1.9482   19.1795 H   0  0  0  0  0  0  0  0  0  0  0  0
    4.7978    0.5435   21.0727 H   0  0  0  0  0  0  0  0  0  0  0  0
    9.8386   -0.4415   19.7451 H   0  0  0  0  0  0  0  0  0  0  0  0
    8.8982    1.0325   20.0632 H   0  0  0  0  0  0  0  0  0  0  0  0
   11.7165    0.1124   21.6513 C   0  0  0  0  0  0  0  0  0  0  0  0
   12.1283   -0.7819   21.2001 H   0  0  0  0  0  0  0  0  0  0  0  0
    9.7018    2.4969   22.2320 H   0  0  0  0  0  0  0  0  0  0  0  0
  1  2  1  0
  2  3  1  0
  2  4  1  0
  2  5  1  0
  5  6  2  0
  6  7  1  0
  7  8  1  0
  8  9  1  0
  9 10  1  0
 10 11  2  0
 11 12  1  0
 12 13  1  0
 13 14  1  0
 14 15  1  0
 15 16  2  0
 16 17  1  0
 17 18  1  0
 18 19  1  0
 18 20  1  0
 17 21  1  0
 17 22  1  0
 16 23  1  0
 15 24  1  0
 14 25  1  0
 14 26  1  0
 13 27  1  0
 12 28  2  0
 28 29  1  0
 29 30  1  0
 30 31  2  0
 31 32  1  0
 32 33  2  0
 33 34  1  0
 34 35  2  0
 35 36  1  0
 33 37  1  0
 32 38  1  0
 31 39  1  0
  9 40  1  0
  9 41  1  0
  8 42  2  0
 42 43  1  0
  7 44  1  0
 42  5  1  0
 29 10  1  0
 35 30  1  0
 18 13  1  0
M  END
>  <cnnaffinity>  (1) 
-6.7419

>  <filename>  (1) 
FC(F)(F)c1cc(Cc2nc(C3CC=CCC3)nn2-c2cccnc2)[nH]n1

$$$$
