
     RDKit          3D

 30 32  0  0  0  0  0  0  0  0999 V2000
    4.9307    1.8184   16.9651 H   0  0  0  0  0  0  0  0  0  0  0  0
    5.3820    1.3094   17.8116 C   0  0  0  0  0  0  0  0  0  0  0  0
    6.5480    0.6918   17.5666 N   0  0  0  0  0  0  0  0  0  0  0  0
    7.1550    0.1008   18.6018 C   0  0  0  0  0  0  0  0  0  0  0  0
    8.1028   -0.3880   18.3735 H   0  0  0  0  0  0  0  0  0  0  0  0
    6.6494    0.0786   19.9213 C   0  0  0  0  0  0  0  0  0  0  0  0
    7.3485   -0.6332   21.0281 C   0  0  0  0  0  0  0  0  0  0  0  0
    7.7056   -2.0168   20.9674 C   0  0  0  0  0  0  0  0  0  0  0  0
    7.4151   -2.6515   20.1464 H   0  0  0  0  0  0  0  0  0  0  0  0
    8.2956   -2.5501   21.9976 N   0  0  0  0  0  0  0  0  0  0  0  0
    8.4262   -1.3962   23.1850 S   0  0  0  0  0  0  0  0  0  0  0  0
    7.6561   -0.1510   22.2826 C   0  0  0  0  0  0  0  0  0  0  0  0
    7.3753    1.1661   22.8651 C   0  0  0  0  0  0  0  0  0  0  0  0
    6.9199    1.3019   24.1869 C   0  0  0  0  0  0  0  0  0  0  0  0
    6.7608    0.4112   24.7833 H   0  0  0  0  0  0  0  0  0  0  0  0
    6.6346    2.5566   24.7062 C   0  0  0  0  0  0  0  0  0  0  0  0
    6.2619    2.6409   25.7276 H   0  0  0  0  0  0  0  0  0  0  0  0
    6.8117    3.6978   23.9007 C   0  0  0  0  0  0  0  0  0  0  0  0
    6.5734    5.0691   24.4846 C   0  0  0  0  0  0  0  0  0  0  0  0
    5.6297    5.0541   25.4467 F   0  0  0  0  0  0  0  0  0  0  0  0
    6.1753    5.9628   23.5596 F   0  0  0  0  0  0  0  0  0  0  0  0
    7.6901    5.5715   25.0505 F   0  0  0  0  0  0  0  0  0  0  0  0
    7.2616    3.5695   22.5751 C   0  0  0  0  0  0  0  0  0  0  0  0
    7.3776    4.4313   21.9197 H   0  0  0  0  0  0  0  0  0  0  0  0
    7.5402    2.3075   22.0703 C   0  0  0  0  0  0  0  0  0  0  0  0
    7.8457    2.1676   21.0416 H   0  0  0  0  0  0  0  0  0  0  0  0
    5.4105    0.7046   20.1361 C   0  0  0  0  0  0  0  0  0  0  0  0
    4.9810    0.6919   21.1387 H   0  0  0  0  0  0  0  0  0  0  0  0
    4.7681    1.3311   19.0672 C   0  0  0  0  0  0  0  0  0  0  0  0
    3.8232    1.8508   19.1934 H   0  0  0  0  0  0  0  0  0  0  0  0
  1  2  1  0
  2  3  2  0
  3  4  1  0
  4  5  1  0
  4  6  2  0
  6  7  1  0
  7  8  1  0
  8  9  1  0
  8 10  2  0
 10 11  1  0
 11 12  1  0
 12 13  1  0
 13 14  2  0
 14 15  1  0
 14 16  1  0
 16 17  1  0
 16 18  2  0
 18 19  1  0
 19 20  1  0
 19 21  1  0
 19 22  1  0
 18 23  1  0
 23 24  1  0
 23 25  2  0
 25 26  1  0
  6 27  1  0
 27 28  1  0
 27 29  2  0
 29 30  1  0
 29  2  1  0
 12  7  2  0
 25 13  1  0
M  END
>  <cnnaffinity>  (1) 
-5.04124

>  <filename>  (1) 
FC(F)(F)c1ccc(-c2sncc2-c2cccnc2)cc1

$$$$
