
     RDKit          3D

 33 35  0  0  0  0  0  0  0  0999 V2000
    4.9398    1.8264   16.9599 H   0  0  0  0  0  0  0  0  0  0  0  0
    5.3919    1.3086   17.8039 C   0  0  0  0  0  0  0  0  0  0  0  0
    6.5472    0.6705   17.5647 N   0  0  0  0  0  0  0  0  0  0  0  0
    7.1311    0.0478   18.6007 C   0  0  0  0  0  0  0  0  0  0  0  0
    8.0790   -0.4399   18.3751 H   0  0  0  0  0  0  0  0  0  0  0  0
    6.5998   -0.0075   19.9097 C   0  0  0  0  0  0  0  0  0  0  0  0
    7.3122   -0.7358   20.9833 C   0  0  0  0  0  0  0  0  0  0  0  0
    8.6560   -0.7564   21.3168 C   0  0  0  0  0  0  0  0  0  0  0  0
    9.7712    0.0315   20.6685 C   0  0  0  0  0  0  0  0  0  0  0  0
    9.3516    0.8391   20.0634 H   0  0  0  0  0  0  0  0  0  0  0  0
   10.3311   -0.6321   20.0086 H   0  0  0  0  0  0  0  0  0  0  0  0
   10.7177    0.6900   21.6406 C   0  0  0  0  0  0  0  0  0  0  0  0
   10.2792    1.8325   22.1618 N   0  0  0  0  0  0  0  0  0  0  0  0
   11.0041    2.4602   23.0997 C   0  0  0  0  0  0  0  0  0  0  0  0
   10.3964    3.7416   23.7116 C   0  0  0  0  0  0  0  0  0  0  0  0
   11.3411    4.6772   23.9456 F   0  0  0  0  0  0  0  0  0  0  0  0
    9.4643    4.3010   22.9367 F   0  0  0  0  0  0  0  0  0  0  0  0
    9.8232    3.4876   24.9042 F   0  0  0  0  0  0  0  0  0  0  0  0
   12.2177    1.9376   23.5695 C   0  0  0  0  0  0  0  0  0  0  0  0
   12.7678    2.4347   24.3518 H   0  0  0  0  0  0  0  0  0  0  0  0
   12.6943    0.7504   23.0083 C   0  0  0  0  0  0  0  0  0  0  0  0
   13.6395    0.3245   23.3399 H   0  0  0  0  0  0  0  0  0  0  0  0
   11.9471    0.1229   22.0124 C   0  0  0  0  0  0  0  0  0  0  0  0
   12.2832   -0.7923   21.5334 H   0  0  0  0  0  0  0  0  0  0  0  0
    8.7450   -1.6575   22.4021 C   0  0  0  0  0  0  0  0  0  0  0  0
    9.6307   -1.9482   22.9503 H   0  0  0  0  0  0  0  0  0  0  0  0
    7.5650   -2.1610   22.7342 N   0  0  0  0  0  0  0  0  0  0  0  0
    6.7164   -1.5794   21.8704 N   0  0  0  0  0  0  0  0  0  0  0  0
    5.7306   -1.7906   21.9369 H   0  0  0  0  0  0  0  0  0  0  0  0
    5.3816    0.6662   20.1221 C   0  0  0  0  0  0  0  0  0  0  0  0
    4.9385    0.6948   21.1175 H   0  0  0  0  0  0  0  0  0  0  0  0
    4.7717    1.3333   19.0572 C   0  0  0  0  0  0  0  0  0  0  0  0
    3.8439    1.8818   19.1879 H   0  0  0  0  0  0  0  0  0  0  0  0
  1  2  1  0
  2  3  2  0
  3  4  1  0
  4  5  1  0
  4  6  2  0
  6  7  1  0
  7  8  2  0
  8  9  1  0
  9 10  1  0
  9 11  1  0
  9 12  1  0
 12 13  2  0
 13 14  1  0
 14 15  1  0
 15 16  1  0
 15 17  1  0
 15 18  1  0
 14 19  2  0
 19 20  1  0
 19 21  1  0
 21 22  1  0
 21 23  2  0
 23 24  1  0
  8 25  1  0
 25 26  1  0
 25 27  2  0
 27 28  1  0
 28 29  1  0
  6 30  1  0
 30 31  1  0
 30 32  2  0
 32 33  1  0
 32  2  1  0
 28  7  1  0
 23 12  1  0
M  END
>  <cnnaffinity>  (1) 
-5.81928

>  <filename>  (1) 
FC(F)(F)c1cccc(Cc2cn[nH]c2-c2cccnc2)n1

$$$$
