
     RDKit          3D

 41 43  0  0  0  0  0  0  0  0999 V2000
    5.4949    1.9407   16.4110 H   0  0  0  0  0  0  0  0  0  0  0  0
    5.7718    1.5450   17.3853 C   0  0  0  0  0  0  0  0  0  0  0  0
    6.9752    0.9550   17.4695 N   0  0  0  0  0  0  0  0  0  0  0  0
    7.3509    0.4821   18.6710 C   0  0  0  0  0  0  0  0  0  0  0  0
    8.3309    0.0084   18.7098 H   0  0  0  0  0  0  0  0  0  0  0  0
    6.5553    0.5460   19.8422 C   0  0  0  0  0  0  0  0  0  0  0  0
    6.9230    0.0054   21.1109 N   0  0  0  0  0  0  0  0  0  0  0  0
    6.3851   -1.3461   21.3479 C   0  0  0  0  0  0  0  0  0  0  0  0
    5.3061   -1.2528   21.5130 H   0  0  0  0  0  0  0  0  0  0  0  0
    6.4753   -1.9663   20.4390 H   0  0  0  0  0  0  0  0  0  0  0  0
    7.0530   -2.1342   22.4876 C   0  0  0  0  0  0  0  0  0  0  0  0
    6.3677   -2.9188   22.8077 H   0  0  0  0  0  0  0  0  0  0  0  0
    7.1813   -1.4719   23.3589 H   0  0  0  0  0  0  0  0  0  0  0  0
    8.3045   -2.7590   22.0499 N   0  0  0  0  0  0  0  0  0  0  0  0
    8.9323   -3.6749   22.9881 C   0  0  0  0  0  0  0  0  0  0  0  0
   10.0312   -3.2336   23.7021 C   0  0  0  0  0  0  0  0  0  0  0  0
   10.4723   -2.2672   23.4589 H   0  0  0  0  0  0  0  0  0  0  0  0
   10.7476   -4.1790   24.5601 C   0  0  0  0  0  0  0  0  0  0  0  0
   11.1045   -3.7804   25.4719 H   0  0  0  0  0  0  0  0  0  0  0  0
   10.1218   -5.1145   25.2361 C   0  0  0  0  0  0  0  0  0  0  0  0
    9.3110   -5.3856   26.0654 H   0  0  0  0  0  0  0  0  0  0  0  0
    9.9887   -5.3934   25.0431 C   0  0  0  0  0  0  0  0  0  0  0  0
    9.3246   -5.9275   24.1573 H   0  0  0  0  0  0  0  0  0  0  0  0
    8.4086   -4.9623   23.0398 C   0  0  0  0  0  0  0  0  0  0  0  0
    7.2782   -5.4188   22.0777 C   0  0  0  0  0  0  0  0  0  0  0  0
    6.0469   -4.9712   22.4488 F   0  0  0  0  0  0  0  0  0  0  0  0
    7.4186   -5.0418   20.7905 F   0  0  0  0  0  0  0  0  0  0  0  0
    7.1478   -6.7730   22.0418 F   0  0  0  0  0  0  0  0  0  0  0  0
    9.1250   -2.0106   21.0976 C   0  0  0  0  0  0  0  0  0  0  0  0
   10.0680   -2.5454   20.9405 H   0  0  0  0  0  0  0  0  0  0  0  0
    8.6103   -2.0448   20.1340 H   0  0  0  0  0  0  0  0  0  0  0  0
    9.4234   -0.5275   21.3563 C   0  0  0  0  0  0  0  0  0  0  0  0
   10.1778   -0.4076   22.1408 H   0  0  0  0  0  0  0  0  0  0  0  0
    9.8855   -0.1551   20.4347 H   0  0  0  0  0  0  0  0  0  0  0  0
    8.2128    0.3650   21.7035 C   0  0  0  0  0  0  0  0  0  0  0  0
    8.0765    0.3896   22.7933 H   0  0  0  0  0  0  0  0  0  0  0  0
    8.4228    1.3999   21.4077 H   0  0  0  0  0  0  0  0  0  0  0  0
    5.2916    1.1426   19.7104 C   0  0  0  0  0  0  0  0  0  0  0  0
    4.6612    1.1964   20.5966 H   0  0  0  0  0  0  0  0  0  0  0  0
    4.8995    1.6617   18.4729 C   0  0  0  0  0  0  0  0  0  0  0  0
    3.9394    2.1519   18.3461 H   0  0  0  0  0  0  0  0  0  0  0  0
  1  2  1  0
  2  3  2  0
  3  4  1  0
  4  5  1  0
  4  6  2  0
  6  7  1  0
  7  8  1  0
  8  9  1  0
  8 10  1  0
  8 11  1  0
 11 12  1  0
 11 13  1  0
 11 14  1  0
 14 15  1  0
 15 16  2  0
 16 17  1  0
 16 18  1  0
 18 19  1  0
 18 20  2  0
 20 21  1  0
 20 22  1  0
 22 23  1  0
 22 24  2  0
 24 25  1  0
 25 26  1  0
 25 27  1  0
 25 28  1  0
 14 29  1  0
 29 30  1  0
 29 31  1  0
 29 32  1  0
 32 33  1  0
 32 34  1  0
 32 35  1  0
 35 36  1  0
 35 37  1  0
  6 38  1  0
 38 39  1  0
 38 40  2  0
 40 41  1  0
 40  2  1  0
 35  7  1  0
 24 15  1  0
M  END
>  <cnnaffinity>  (1) 
-6.02485

>  <filename>  (1) 
FC(F)(F)c1ccccc1N1CCCN(c2cccnc2)CC1

$$$$
