
     RDKit          3D

 45 48  0  0  0  0  0  0  0  0999 V2000
   13.2410   -2.2525   19.9587 F   0  0  0  0  0  0  0  0  0  0  0  0
   13.1442   -1.9280   21.2529 C   0  0  0  0  0  0  0  0  0  0  0  0
   14.2934   -1.2996   21.5885 F   0  0  0  0  0  0  0  0  0  0  0  0
   12.0170   -1.1637   21.3887 O   0  0  0  0  0  0  0  0  0  0  0  0
   11.8773    0.0292   22.0361 C   0  0  0  0  0  0  0  0  0  0  0  0
   12.7580    0.4868   23.0233 C   0  0  0  0  0  0  0  0  0  0  0  0
   12.4934    1.6922   23.6700 C   0  0  0  0  0  0  0  0  0  0  0  0
   11.3581    2.4441   23.3513 C   0  0  0  0  0  0  0  0  0  0  0  0
   10.4846    1.9727   22.3636 C   0  0  0  0  0  0  0  0  0  0  0  0
   10.7209    0.7666   21.6952 C   0  0  0  0  0  0  0  0  0  0  0  0
    9.7000    0.2123   20.7176 C   0  0  0  0  0  0  0  0  0  0  0  0
    8.6341   -0.6024   21.3688 C   0  0  0  0  0  0  0  0  0  0  0  0
    8.8177   -1.4304   22.3735 N   0  0  0  0  0  0  0  0  0  0  0  0
    7.5864   -1.9696   22.5694 C   0  0  0  0  0  0  0  0  0  0  0  0
    7.4089   -3.0609   23.5941 C   0  0  0  0  0  0  0  0  0  0  0  0
    7.4937   -4.4910   22.9867 C   0  0  0  0  0  0  0  0  0  0  0  0
    6.5300   -5.2931   23.8667 C   0  0  0  0  0  0  0  0  0  0  0  0
    5.5064   -4.2418   24.3042 C   0  0  0  0  0  0  0  0  0  0  0  0
    6.1751   -2.9897   24.2899 O   0  0  0  0  0  0  0  0  0  0  0  0
    4.6476   -4.1928   23.6214 H   0  0  0  0  0  0  0  0  0  0  0  0
    5.1377   -4.4036   25.3217 H   0  0  0  0  0  0  0  0  0  0  0  0
    7.0477   -5.7074   24.7384 H   0  0  0  0  0  0  0  0  0  0  0  0
    6.0550   -6.1191   23.3301 H   0  0  0  0  0  0  0  0  0  0  0  0
    7.1520   -4.4794   21.9438 H   0  0  0  0  0  0  0  0  0  0  0  0
    8.5187   -4.8767   23.0034 H   0  0  0  0  0  0  0  0  0  0  0  0
    8.2210   -2.8961   24.3125 H   0  0  0  0  0  0  0  0  0  0  0  0
    6.6615   -1.5592   21.7225 N   0  0  0  0  0  0  0  0  0  0  0  0
    7.3361   -0.6855   20.9339 N   0  0  0  0  0  0  0  0  0  0  0  0
    6.6581   -0.0041   19.8818 C   0  0  0  0  0  0  0  0  0  0  0  0
    5.4415    0.6343   20.1431 C   0  0  0  0  0  0  0  0  0  0  0  0
    4.8114    1.3100   19.0965 C   0  0  0  0  0  0  0  0  0  0  0  0
    5.4026    1.3001   17.8272 C   0  0  0  0  0  0  0  0  0  0  0  0
    6.5531    0.6634   17.5589 N   0  0  0  0  0  0  0  0  0  0  0  0
    7.1632    0.0319   18.5696 C   0  0  0  0  0  0  0  0  0  0  0  0
    8.1009   -0.4676   18.3270 H   0  0  0  0  0  0  0  0  0  0  0  0
    4.9308    1.8180   16.9950 H   0  0  0  0  0  0  0  0  0  0  0  0
    3.8816    1.8445   19.2550 H   0  0  0  0  0  0  0  0  0  0  0  0
    5.0160    0.5890   21.1465 H   0  0  0  0  0  0  0  0  0  0  0  0
   10.1868   -0.4816   20.0262 H   0  0  0  0  0  0  0  0  0  0  0  0
    9.2379    1.0148   20.1377 H   0  0  0  0  0  0  0  0  0  0  0  0
    9.5940    2.5484   22.1192 H   0  0  0  0  0  0  0  0  0  0  0  0
   11.1521    3.3748   23.8728 H   0  0  0  0  0  0  0  0  0  0  0  0
   13.1807    2.0260   24.4368 H   0  0  0  0  0  0  0  0  0  0  0  0
   13.6280   -0.0975   23.2942 H   0  0  0  0  0  0  0  0  0  0  0  0
   13.0221   -2.8159   21.8756 H   0  0  0  0  0  0  0  0  0  0  0  0
  1  2  1  0
  2  3  1  0
  2  4  1  0
  4  5  1  0
  5  6  2  0
  6  7  1  0
  7  8  2  0
  8  9  1  0
  9 10  2  0
 10 11  1  0
 11 12  1  0
 12 13  2  0
 13 14  1  0
 14 15  1  0
 15 16  1  0
 16 17  1  0
 17 18  1  0
 18 19  1  0
 18 20  1  0
 18 21  1  0
 17 22  1  0
 17 23  1  0
 16 24  1  0
 16 25  1  0
 15 26  1  0
 14 27  2  0
 27 28  1  0
 28 29  1  0
 29 30  2  0
 30 31  1  0
 31 32  2  0
 32 33  1  0
 33 34  2  0
 34 35  1  0
 32 36  1  0
 31 37  1  0
 30 38  1  0
 11 39  1  0
 11 40  1  0
  9 41  1  0
  8 42  1  0
  7 43  1  0
  6 44  1  0
  2 45  1  0
 10  5  1  0
 28 12  1  0
 34 29  1  0
 19 15  1  0
M  END
>  <cnnaffinity>  (1) 
-6.76857

>  <filename>  (1) 
FC(F)Oc1ccccc1Cc1nc(C2CCCO2)nn1-c1cccnc1

$$$$
