
     RDKit          3D

 35 37  0  0  0  0  0  0  0  0999 V2000
    5.6498   -1.6686   21.7078 H   0  0  0  0  0  0  0  0  0  0  0  0
    6.7179   -1.5436   21.7871 C   0  0  0  0  0  0  0  0  0  0  0  0
    7.3832   -0.7205   20.9530 C   0  0  0  0  0  0  0  0  0  0  0  0
    6.7038    0.0455   19.9067 C   0  0  0  0  0  0  0  0  0  0  0  0
    7.2027    0.0850   18.5953 C   0  0  0  0  0  0  0  0  0  0  0  0
    8.1331   -0.4246   18.3401 H   0  0  0  0  0  0  0  0  0  0  0  0
    6.5718    0.6754   17.5757 N   0  0  0  0  0  0  0  0  0  0  0  0
    5.4078    1.2895   17.8401 C   0  0  0  0  0  0  0  0  0  0  0  0
    4.9269    1.7820   16.9977 H   0  0  0  0  0  0  0  0  0  0  0  0
    4.8202    1.3122   19.1091 C   0  0  0  0  0  0  0  0  0  0  0  0
    3.8816    1.8318   19.2559 H   0  0  0  0  0  0  0  0  0  0  0  0
    5.4649    0.6638   20.1593 C   0  0  0  0  0  0  0  0  0  0  0  0
    5.0293    0.6301   21.1606 H   0  0  0  0  0  0  0  0  0  0  0  0
    8.7663   -0.6060   21.0826 N   0  0  0  0  0  0  0  0  0  0  0  0
    9.3314    0.0500   20.5748 H   0  0  0  0  0  0  0  0  0  0  0  0
    9.5104   -1.3251   21.9558 C   0  0  0  0  0  0  0  0  0  0  0  0
   11.1572   -1.1537   22.0457 S   0  0  0  0  0  0  0  0  0  0  0  0
    8.8453   -2.1948   22.7329 N   0  0  0  0  0  0  0  0  0  0  0  0
    9.4614   -2.6171   23.4088 H   0  0  0  0  0  0  0  0  0  0  0  0
    7.3882   -2.1834   22.9469 C   0  0  1  0  0  0  0  0  0  0  0  0
    7.0764   -3.2372   23.0143 H   0  0  0  0  0  0  0  0  0  0  0  0
    6.9839   -1.5237   24.2819 C   0  0  0  0  0  0  0  0  0  0  0  0
    6.1673   -2.2069   25.1929 C   0  0  0  0  0  0  0  0  0  0  0  0
    5.8361   -3.2194   24.9638 H   0  0  0  0  0  0  0  0  0  0  0  0
    5.7660   -1.5984   26.3826 C   0  0  0  0  0  0  0  0  0  0  0  0
    5.1331   -2.1461   27.0760 H   0  0  0  0  0  0  0  0  0  0  0  0
    6.1831   -0.2890   26.6761 C   0  0  0  0  0  0  0  0  0  0  0  0
    5.7165    0.3943   27.9415 C   0  0  0  0  0  0  0  0  0  0  0  0
    5.5149   -0.4793   28.9467 F   0  0  0  0  0  0  0  0  0  0  0  0
    4.5496    1.0425   27.7488 F   0  0  0  0  0  0  0  0  0  0  0  0
    6.5997    1.3106   28.3838 F   0  0  0  0  0  0  0  0  0  0  0  0
    6.9826    0.4062   25.7531 C   0  0  0  0  0  0  0  0  0  0  0  0
    7.3034    1.4256   25.9510 H   0  0  0  0  0  0  0  0  0  0  0  0
    7.3770   -0.2072   24.5667 C   0  0  0  0  0  0  0  0  0  0  0  0
    7.9905    0.3391   23.8530 H   0  0  0  0  0  0  0  0  0  0  0  0
  1  2  1  0
  2  3  2  0
  3  4  1  0
  4  5  2  0
  5  6  1  0
  5  7  1  0
  7  8  2  0
  8  9  1  0
  8 10  1  0
 10 11  1  0
 10 12  2  0
 12 13  1  0
  3 14  1  0
 14 15  1  0
 14 16  1  0
 16 17  2  0
 16 18  1  0
 18 19  1  0
 18 20  1  0
 20 21  1  1
 20 22  1  0
 22 23  2  0
 23 24  1  0
 23 25  1  0
 25 26  1  0
 25 27  2  0
 27 28  1  0
 28 29  1  0
 28 30  1  0
 28 31  1  0
 27 32  1  0
 32 33  1  0
 32 34  2  0
 34 35  1  0
 20  2  1  0
 34 22  1  0
 12  4  1  0
M  END
>  <cnnaffinity>  (1) 
-5.11608

>  <filename>  (1) 
FC(F)(F)c1ccc([C@H]2C=C(c3cccnc3)NC(=S)N2)cc1

$$$$
