
     RDKit          3D

 41 45  0  0  0  0  0  0  0  0999 V2000
    2.5573    1.8547   25.9087 F   0  0  0  0  0  0  0  0  0  0  0  0
    3.2608    2.6229   25.0712 C   0  0  0  0  0  0  0  0  0  0  0  0
    3.4916    3.8024   25.6802 F   0  0  0  0  0  0  0  0  0  0  0  0
    2.4834    2.8892   23.9964 F   0  0  0  0  0  0  0  0  0  0  0  0
    4.5448    1.9742   24.6207 C   0  0  0  0  0  0  0  0  0  0  0  0
    5.1117    0.9780   25.2927 N   0  0  0  0  0  0  0  0  0  0  0  0
    6.2223    0.7069   24.6124 N   0  0  0  0  0  0  0  0  0  0  0  0
    6.3910    1.4900   23.5150 C   0  0  0  0  0  0  0  0  0  0  0  0
    7.5954    1.3389   22.6311 C   0  0  0  0  0  0  0  0  0  0  0  0
    7.7717   -0.0578   22.1422 C   0  0  0  0  0  0  0  0  0  0  0  0
    8.3863   -0.9881   22.8475 N   0  0  0  0  0  0  0  0  0  0  0  0
    8.2326   -2.0922   22.0755 C   0  0  0  0  0  0  0  0  0  0  0  0
    8.9230   -3.3785   22.3273 C   0  0  0  0  0  0  0  0  0  0  0  0
    8.2275   -4.6894   22.1321 C   0  0  0  0  0  0  0  0  0  0  0  0
    8.9587   -4.4435   23.4596 C   0  0  0  0  0  0  0  0  0  0  0  0
   10.0002   -4.3435   24.5391 C   0  0  0  0  0  0  0  0  0  0  0  0
    9.0112   -5.4789   24.5809 C   0  0  0  0  0  0  0  0  0  0  0  0
    9.4070   -6.4538   24.2886 H   0  0  0  0  0  0  0  0  0  0  0  0
    8.2162   -5.5173   25.3221 H   0  0  0  0  0  0  0  0  0  0  0  0
   11.0360   -4.5699   24.2871 H   0  0  0  0  0  0  0  0  0  0  0  0
    9.8647   -3.4904   25.2064 H   0  0  0  0  0  0  0  0  0  0  0  0
    8.5760   -5.4431   21.4258 H   0  0  0  0  0  0  0  0  0  0  0  0
    7.1456   -4.6926   22.2606 H   0  0  0  0  0  0  0  0  0  0  0  0
    9.9307   -3.2435   21.9428 H   0  0  0  0  0  0  0  0  0  0  0  0
    7.6074   -1.8964   20.9273 N   0  0  0  0  0  0  0  0  0  0  0  0
    7.2665   -0.5822   20.9948 N   0  0  0  0  0  0  0  0  0  0  0  0
    6.5824    0.0630   19.9245 C   0  0  0  0  0  0  0  0  0  0  0  0
    5.3958    0.7737   20.1355 C   0  0  0  0  0  0  0  0  0  0  0  0
    4.7930    1.3906   19.0344 C   0  0  0  0  0  0  0  0  0  0  0  0
    5.4098    1.2957   17.7840 C   0  0  0  0  0  0  0  0  0  0  0  0
    6.5424    0.5990   17.5755 N   0  0  0  0  0  0  0  0  0  0  0  0
    7.1016   -0.0166   18.6211 C   0  0  0  0  0  0  0  0  0  0  0  0
    8.0044   -0.5930   18.4240 H   0  0  0  0  0  0  0  0  0  0  0  0
    4.9791    1.7928   16.9164 H   0  0  0  0  0  0  0  0  0  0  0  0
    3.8708    1.9514   19.1434 H   0  0  0  0  0  0  0  0  0  0  0  0
    4.9634    0.8357   21.1351 H   0  0  0  0  0  0  0  0  0  0  0  0
    8.4914    1.5739   23.2111 H   0  0  0  0  0  0  0  0  0  0  0  0
    7.5385    2.0437   21.8019 H   0  0  0  0  0  0  0  0  0  0  0  0
    5.3061    2.3312   23.4826 C   0  0  0  0  0  0  0  0  0  0  0  0
    5.0862    3.0892   22.7436 H   0  0  0  0  0  0  0  0  0  0  0  0
    6.7667   -0.1173   24.8364 H   0  0  0  0  0  0  0  0  0  0  0  0
  1  2  1  0
  2  3  1  0
  2  4  1  0
  2  5  1  0
  5  6  2  0
  6  7  1  0
  7  8  1  0
  8  9  1  0
  9 10  1  0
 10 11  2  0
 11 12  1  0
 12 13  1  0
 13 14  1  0
 14 15  1  0
 15 16  1  0
 16 17  1  0
 17 18  1  0
 17 19  1  0
 16 20  1  0
 16 21  1  0
 14 22  1  0
 14 23  1  0
 13 24  1  0
 12 25  2  0
 25 26  1  0
 26 27  1  0
 27 28  2  0
 28 29  1  0
 29 30  2  0
 30 31  1  0
 31 32  2  0
 32 33  1  0
 30 34  1  0
 29 35  1  0
 28 36  1  0
  9 37  1  0
  9 38  1  0
  8 39  2  0
 39 40  1  0
  7 41  1  0
 39  5  1  0
 26 10  1  0
 32 27  1  0
 15 13  1  0
 17 15  1  0
M  END
>  <cnnaffinity>  (1) 
-6.24439

>  <filename>  (1) 
FC(F)(F)c1cc(Cc2nc(C3CC34CC4)nn2-c2cccnc2)[nH]n1

$$$$
