
     RDKit          3D

 31 34  0  0  0  0  0  0  0  0999 V2000
    4.9227    1.7811   16.9972 H   0  0  0  0  0  0  0  0  0  0  0  0
    5.4031    1.2905   17.8395 C   0  0  0  0  0  0  0  0  0  0  0  0
    6.5672    0.6754   17.5752 N   0  0  0  0  0  0  0  0  0  0  0  0
    7.1711    0.0534   18.5902 C   0  0  0  0  0  0  0  0  0  0  0  0
    8.1194   -0.4327   18.3689 H   0  0  0  0  0  0  0  0  0  0  0  0
    6.6465    0.0118   19.8968 C   0  0  0  0  0  0  0  0  0  0  0  0
    7.4039   -0.6930   20.9302 C   0  0  0  0  0  0  0  0  0  0  0  0
    8.3255   -1.5981   20.7122 N   0  0  0  0  0  0  0  0  0  0  0  0
    8.8305   -2.0377   21.9150 N   0  0  0  0  0  0  0  0  0  0  0  0
    8.2081   -1.3550   22.8394 C   0  0  0  0  0  0  0  0  0  0  0  0
    8.2536   -1.0917   24.5645 S   0  0  0  0  0  0  0  0  0  0  0  0
    7.0372    0.1647   24.3402 C   0  0  0  0  0  0  0  0  0  0  0  0
    6.5402    0.9542   25.5051 C   0  0  0  0  0  0  0  0  0  0  0  0
    7.0524    0.6780   26.7260 N   0  0  0  0  0  0  0  0  0  0  0  0
    6.6233    1.3873   27.7676 C   0  0  0  0  0  0  0  0  0  0  0  0
    7.0508    1.1341   28.7374 H   0  0  0  0  0  0  0  0  0  0  0  0
    5.6690    2.4048   27.6528 C   0  0  0  0  0  0  0  0  0  0  0  0
    5.1836    3.1264   28.8687 C   0  0  0  0  0  0  0  0  0  0  0  0
    4.7852    4.3797   28.5740 F   0  0  0  0  0  0  0  0  0  0  0  0
    6.1267    3.2236   29.8246 F   0  0  0  0  0  0  0  0  0  0  0  0
    4.1249    2.5074   29.4264 F   0  0  0  0  0  0  0  0  0  0  0  0
    5.1166    2.6812   26.3928 C   0  0  0  0  0  0  0  0  0  0  0  0
    4.3556    3.4526   26.2653 H   0  0  0  0  0  0  0  0  0  0  0  0
    5.5653    1.9474   25.3088 C   0  0  0  0  0  0  0  0  0  0  0  0
    5.1885    2.1218   24.3126 H   0  0  0  0  0  0  0  0  0  0  0  0
    6.6243    0.3479   23.1201 N   0  0  0  0  0  0  0  0  0  0  0  0
    7.2799   -0.5099   22.2954 N   0  0  0  0  0  0  0  0  0  0  0  0
    5.4288    0.6528   20.1629 C   0  0  0  0  0  0  0  0  0  0  0  0
    5.0101    0.6403   21.1714 H   0  0  0  0  0  0  0  0  0  0  0  0
    4.8048    1.3070   19.1049 C   0  0  0  0  0  0  0  0  0  0  0  0
    3.8751    1.8424   19.2553 H   0  0  0  0  0  0  0  0  0  0  0  0
  1  2  1  0
  2  3  2  0
  3  4  1  0
  4  5  1  0
  4  6  2  0
  6  7  1  0
  7  8  2  0
  8  9  1  0
  9 10  2  0
 10 11  1  0
 11 12  1  0
 12 13  1  0
 13 14  2  0
 14 15  1  0
 15 16  1  0
 15 17  2  0
 17 18  1  0
 18 19  1  0
 18 20  1  0
 18 21  1  0
 17 22  1  0
 22 23  1  0
 22 24  2  0
 24 25  1  0
 12 26  2  0
 26 27  1  0
  6 28  1  0
 28 29  1  0
 28 30  2  0
 30 31  1  0
 30  2  1  0
 27  7  1  0
 27 10  1  0
 24 13  1  0
M  END
>  <cnnaffinity>  (1) 
-5.49525

>  <filename>  (1) 
FC(F)(F)c1ccc(-c2nn3c(-c4cccnc4)nnc3s2)nc1

$$$$
