
     RDKit          3D

 38 40  0  0  0  0  0  0  0  0999 V2000
    4.9431    1.9427   16.9577 H   0  0  0  0  0  0  0  0  0  0  0  0
    5.4254    1.3801   17.7508 C   0  0  0  0  0  0  0  0  0  0  0  0
    6.5832    0.7785   17.4222 N   0  0  0  0  0  0  0  0  0  0  0  0
    7.2024    0.0682   18.3758 C   0  0  0  0  0  0  0  0  0  0  0  0
    8.1498   -0.4048   18.1069 H   0  0  0  0  0  0  0  0  0  0  0  0
    6.6985   -0.1192   19.6808 C   0  0  0  0  0  0  0  0  0  0  0  0
    7.4105   -0.9127   20.6119 N   0  0  0  0  0  0  0  0  0  0  0  0
    8.6835   -0.3051   21.0557 C   0  0  0  0  0  0  0  0  0  0  0  0
    9.4128   -0.3998   20.2375 H   0  0  0  0  0  0  0  0  0  0  0  0
    8.5478    0.7689   21.2458 H   0  0  0  0  0  0  0  0  0  0  0  0
    9.2091   -0.9476   22.3426 C   0  0  0  0  0  0  0  0  0  0  0  0
    9.4413   -2.0053   22.1400 H   0  0  0  0  0  0  0  0  0  0  0  0
   10.1384   -0.4530   22.6337 H   0  0  0  0  0  0  0  0  0  0  0  0
    8.1956   -0.8129   23.3896 N   0  0  0  0  0  0  0  0  0  0  0  0
    8.5062   -0.6336   24.7478 C   0  0  0  0  0  0  0  0  0  0  0  0
    8.6709   -1.7454   25.5709 C   0  0  0  0  0  0  0  0  0  0  0  0
    8.5937   -2.7198   25.1007 H   0  0  0  0  0  0  0  0  0  0  0  0
    8.8905   -1.5842   26.9350 C   0  0  0  0  0  0  0  0  0  0  0  0
    9.0245   -2.4764   27.5282 H   0  0  0  0  0  0  0  0  0  0  0  0
    8.9023   -0.3068   27.5002 C   0  0  0  0  0  0  0  0  0  0  0  0
    9.0761   -0.1905   28.5655 H   0  0  0  0  0  0  0  0  0  0  0  0
    8.7230    0.8191   26.6871 C   0  0  0  0  0  0  0  0  0  0  0  0
    8.7084    1.8114   27.1320 H   0  0  0  0  0  0  0  0  0  0  0  0
    8.5703    0.6590   25.2978 C   0  0  0  0  0  0  0  0  0  0  0  0
    8.5133    1.7954   24.3031 C   0  0  0  0  0  0  0  0  0  0  0  0
    8.6421    3.0069   24.8755 F   0  0  0  0  0  0  0  0  0  0  0  0
    9.5136    1.7048   23.3916 F   0  0  0  0  0  0  0  0  0  0  0  0
    7.3690    1.8223   23.5930 F   0  0  0  0  0  0  0  0  0  0  0  0
    6.8103   -1.1512   23.0534 C   0  0  0  0  0  0  0  0  0  0  0  0
    6.4178   -1.9173   23.7406 H   0  0  0  0  0  0  0  0  0  0  0  0
    6.1730   -0.2652   23.1758 H   0  0  0  0  0  0  0  0  0  0  0  0
    6.6733   -1.6897   21.6185 C   0  0  0  0  0  0  0  0  0  0  0  0
    7.0639   -2.7156   21.6033 H   0  0  0  0  0  0  0  0  0  0  0  0
    5.6162   -1.7521   21.3337 H   0  0  0  0  0  0  0  0  0  0  0  0
    5.4940    0.5334   20.0038 C   0  0  0  0  0  0  0  0  0  0  0  0
    5.1048    0.4471   21.0168 H   0  0  0  0  0  0  0  0  0  0  0  0
    4.8443    1.2927   19.0218 C   0  0  0  0  0  0  0  0  0  0  0  0
    3.9109    1.8090   19.2335 H   0  0  0  0  0  0  0  0  0  0  0  0
  1  2  1  0
  2  3  2  0
  3  4  1  0
  4  5  1  0
  4  6  2  0
  6  7  1  0
  7  8  1  0
  8  9  1  0
  8 10  1  0
  8 11  1  0
 11 12  1  0
 11 13  1  0
 11 14  1  0
 14 15  1  0
 15 16  2  0
 16 17  1  0
 16 18  1  0
 18 19  1  0
 18 20  2  0
 20 21  1  0
 20 22  1  0
 22 23  1  0
 22 24  2  0
 24 25  1  0
 25 26  1  0
 25 27  1  0
 25 28  1  0
 14 29  1  0
 29 30  1  0
 29 31  1  0
 29 32  1  0
 32 33  1  0
 32 34  1  0
  6 35  1  0
 35 36  1  0
 35 37  2  0
 37 38  1  0
 37  2  1  0
 32  7  1  0
 24 15  1  0
M  END
>  <cnnaffinity>  (1) 
-5.01636

>  <filename>  (1) 
FC(F)(F)c1ccccc1N1CCN(c2cccnc2)CC1

$$$$
