
     RDKit          3D

 33 35  0  0  0  0  0  0  0  0999 V2000
    5.1038    1.6960   16.9483 H   0  0  0  0  0  0  0  0  0  0  0  0
    5.5168    1.3242   17.8846 C   0  0  0  0  0  0  0  0  0  0  0  0
    6.7183    0.7367   17.7988 N   0  0  0  0  0  0  0  0  0  0  0  0
    7.2324    0.2513   18.9324 C   0  0  0  0  0  0  0  0  0  0  0  0
    8.2099   -0.2247   18.8438 H   0  0  0  0  0  0  0  0  0  0  0  0
    6.6053    0.2847   20.1875 C   0  0  0  0  0  0  0  0  0  0  0  0
    7.2910   -0.3689   21.3531 C   0  0  0  0  0  0  0  0  0  0  0  0
    7.8599    0.4983   22.3162 N   0  0  0  0  0  0  0  0  0  0  0  0
    7.2177    1.0028   22.8965 H   0  0  0  0  0  0  0  0  0  0  0  0
    9.1651    0.9581   22.3687 C   0  0  0  0  0  0  0  0  0  0  0  0
    9.9640    1.1161   21.2364 C   0  0  0  0  0  0  0  0  0  0  0  0
    9.5298    0.8599   20.2802 H   0  0  0  0  0  0  0  0  0  0  0  0
   11.2599    1.6307   21.3612 C   0  0  0  0  0  0  0  0  0  0  0  0
   11.8743    1.7929   20.4831 H   0  0  0  0  0  0  0  0  0  0  0  0
   11.7717    1.9505   22.6202 C   0  0  0  0  0  0  0  0  0  0  0  0
   12.7596    2.3936   22.7081 H   0  0  0  0  0  0  0  0  0  0  0  0
   10.9965    1.7358   23.7606 C   0  0  0  0  0  0  0  0  0  0  0  0
   11.4198    1.9130   24.7471 H   0  0  0  0  0  0  0  0  0  0  0  0
    9.6780    1.2818   23.6363 C   0  0  0  0  0  0  0  0  0  0  0  0
    8.7678    1.1075   24.8219 C   0  0  0  0  0  0  0  0  0  0  0  0
    9.3049    1.5694   25.9623 F   0  0  0  0  0  0  0  0  0  0  0  0
    8.4262   -0.1761   25.0423 F   0  0  0  0  0  0  0  0  0  0  0  0
    7.5931    1.7895   24.6767 F   0  0  0  0  0  0  0  0  0  0  0  0
    6.7223   -1.6347   21.9450 C   0  0  0  0  0  0  0  0  0  0  0  0
    6.8220   -1.7481   23.0208 H   0  0  0  0  0  0  0  0  0  0  0  0
    5.8087   -2.0250   21.5186 H   0  0  0  0  0  0  0  0  0  0  0  0
    7.9770   -1.6877   21.1207 C   0  0  0  0  0  0  0  0  0  0  0  0
    8.9207   -1.8635   21.6269 H   0  0  0  0  0  0  0  0  0  0  0  0
    7.8861   -2.0920   20.1207 H   0  0  0  0  0  0  0  0  0  0  0  0
    5.3695    0.9480   20.2637 C   0  0  0  0  0  0  0  0  0  0  0  0
    4.8466    1.0691   21.2167 H   0  0  0  0  0  0  0  0  0  0  0  0
    4.8118    1.4578   19.0871 C   0  0  0  0  0  0  0  0  0  0  0  0
    3.8511    1.9608   19.0781 H   0  0  0  0  0  0  0  0  0  0  0  0
  1  2  1  0
  2  3  2  0
  3  4  1  0
  4  5  1  0
  4  6  2  0
  6  7  1  0
  7  8  1  0
  8  9  1  0
  8 10  1  0
 10 11  2  0
 11 12  1  0
 11 13  1  0
 13 14  1  0
 13 15  2  0
 15 16  1  0
 15 17  1  0
 17 18  1  0
 17 19  2  0
 19 20  1  0
 20 21  1  0
 20 22  1  0
 20 23  1  0
  7 24  1  0
 24 25  1  0
 24 26  1  0
 24 27  1  0
 27 28  1  0
 27 29  1  0
  6 30  1  0
 30 31  1  0
 30 32  2  0
 32 33  1  0
 32  2  1  0
 27  7  1  0
 19 10  1  0
M  END
>  <cnnaffinity>  (1) 
-5.3986

>  <filename>  (1) 
FC(F)(F)c1ccccc1NC1(c2cccnc2)CC1

$$$$
