
     RDKit          3D

 35 38  0  0  0  0  0  0  0  0999 V2000
    5.0005    1.8564   16.8707 H   0  0  0  0  0  0  0  0  0  0  0  0
    5.4250    1.2988   17.7047 C   0  0  0  0  0  0  0  0  0  0  0  0
    6.5619    0.6303   17.4569 N   0  0  0  0  0  0  0  0  0  0  0  0
    7.1385   -0.0207   18.4718 C   0  0  0  0  0  0  0  0  0  0  0  0
    8.0581   -0.5537   18.2383 H   0  0  0  0  0  0  0  0  0  0  0  0
    6.6257   -0.0352   19.7801 C   0  0  0  0  0  0  0  0  0  0  0  0
    7.4051   -0.6358   20.8772 C   0  0  0  0  0  0  0  0  0  0  0  0
    8.5565   -1.2855   20.6256 N   0  0  0  0  0  0  0  0  0  0  0  0
    8.9929   -1.6107   21.8625 N   0  0  0  0  0  0  0  0  0  0  0  0
   10.1043   -2.2556   22.3952 C   0  0  0  0  0  0  0  0  0  0  0  0
   10.8466   -2.6855   21.7459 H   0  0  0  0  0  0  0  0  0  0  0  0
    9.9741   -2.1610   23.7438 C   0  0  0  0  0  0  0  0  0  0  0  0
   10.6318   -2.5028   24.5244 H   0  0  0  0  0  0  0  0  0  0  0  0
    8.7967   -1.4671   24.0545 N   0  0  0  0  0  0  0  0  0  0  0  0
    8.3622   -0.8644   25.2754 C   0  0  0  0  0  0  0  0  0  0  0  0
    8.3256    0.5368   25.3463 C   0  0  0  0  0  0  0  0  0  0  0  0
    8.6711    1.1030   24.4860 H   0  0  0  0  0  0  0  0  0  0  0  0
    7.8215    1.1784   26.4789 C   0  0  0  0  0  0  0  0  0  0  0  0
    7.8562    2.2620   26.5381 H   0  0  0  0  0  0  0  0  0  0  0  0
    7.2715    0.4246   27.5170 C   0  0  0  0  0  0  0  0  0  0  0  0
    6.8451    0.9205   28.3820 H   0  0  0  0  0  0  0  0  0  0  0  0
    7.2849   -0.9672   27.4506 C   0  0  0  0  0  0  0  0  0  0  0  0
    6.8203   -1.5295   28.2544 H   0  0  0  0  0  0  0  0  0  0  0  0
    7.8883   -1.6282   26.3619 C   0  0  0  0  0  0  0  0  0  0  0  0
    8.1069   -3.1277   26.3714 C   0  0  0  0  0  0  0  0  0  0  0  0
    7.5840   -3.7126   27.4624 F   0  0  0  0  0  0  0  0  0  0  0  0
    7.5686   -3.7491   25.3079 F   0  0  0  0  0  0  0  0  0  0  0  0
    9.4324   -3.4195   26.3846 F   0  0  0  0  0  0  0  0  0  0  0  0
    8.1908   -1.1691   22.8459 C   0  0  0  0  0  0  0  0  0  0  0  0
    7.1071   -0.5432   22.2597 C   0  0  0  0  0  0  0  0  0  0  0  0
    6.2635   -0.0867   22.7505 H   0  0  0  0  0  0  0  0  0  0  0  0
    5.4000    0.6137   20.0038 C   0  0  0  0  0  0  0  0  0  0  0  0
    4.9239    0.5815   20.9822 H   0  0  0  0  0  0  0  0  0  0  0  0
    4.7990    1.3023   18.9538 C   0  0  0  0  0  0  0  0  0  0  0  0
    3.8770    1.8560   19.0936 H   0  0  0  0  0  0  0  0  0  0  0  0
  1  2  1  0
  2  3  2  0
  3  4  1  0
  4  5  1  0
  4  6  2  0
  6  7  1  0
  7  8  2  0
  8  9  1  0
  9 10  1  0
 10 11  1  0
 10 12  2  0
 12 13  1  0
 12 14  1  0
 14 15  1  0
 15 16  2  0
 16 17  1  0
 16 18  1  0
 18 19  1  0
 18 20  2  0
 20 21  1  0
 20 22  1  0
 22 23  1  0
 22 24  2  0
 24 25  1  0
 25 26  1  0
 25 27  1  0
 25 28  1  0
 14 29  1  0
 29 30  2  0
 30 31  1  0
  6 32  1  0
 32 33  1  0
 32 34  2  0
 34 35  1  0
 34  2  1  0
 30  7  1  0
 29  9  1  0
 24 15  1  0
M  END
>  <cnnaffinity>  (1) 
-5.8

>  <filename>  (1) 
FC(F)(F)c1ccccc1-n1ccn2nc(-c3cccnc3)cc12

$$$$
