
     RDKit          3D

 21 22  0  0  0  0  0  0  0  0999 V2000
    4.9576    1.8433   16.9510 H   0  0  0  0  0  0  0  0  0  0  0  0
    5.4247    1.3165   17.7827 C   0  0  0  0  0  0  0  0  0  0  0  0
    6.5696    0.6626   17.5272 N   0  0  0  0  0  0  0  0  0  0  0  0
    7.1663    0.0231   18.5400 C   0  0  0  0  0  0  0  0  0  0  0  0
    8.0834   -0.5085   18.2948 H   0  0  0  0  0  0  0  0  0  0  0  0
    6.6675   -0.0058   19.8597 C   0  0  0  0  0  0  0  0  0  0  0  0
    7.3709   -0.6831   20.9056 N   0  0  0  0  0  0  0  0  0  0  0  0
    6.8209   -1.3759   21.9677 C   0  0  0  0  0  0  0  0  0  0  0  0
    5.7631   -1.6008   22.0344 H   0  0  0  0  0  0  0  0  0  0  0  0
    7.7223   -1.8046   22.8014 N   0  0  0  0  0  0  0  0  0  0  0  0
    8.9410   -1.3985   22.2908 C   0  0  0  0  0  0  0  0  0  0  0  0
   10.2776   -1.6769   22.9752 C   0  0  0  0  0  0  0  0  0  0  0  0
   10.9431   -2.7109   22.4265 F   0  0  0  0  0  0  0  0  0  0  0  0
   10.1382   -1.9451   24.2803 F   0  0  0  0  0  0  0  0  0  0  0  0
   11.1020   -0.6125   22.8556 F   0  0  0  0  0  0  0  0  0  0  0  0
    8.7428   -0.7280   21.1074 C   0  0  0  0  0  0  0  0  0  0  0  0
    9.4350   -0.2785   20.4087 H   0  0  0  0  0  0  0  0  0  0  0  0
    5.4615    0.6705   20.1110 C   0  0  0  0  0  0  0  0  0  0  0  0
    5.0497    0.7277   21.1197 H   0  0  0  0  0  0  0  0  0  0  0  0
    4.8346    1.3298   19.0503 C   0  0  0  0  0  0  0  0  0  0  0  0
    3.8991    1.8574   19.1952 H   0  0  0  0  0  0  0  0  0  0  0  0
  1  2  1  0
  2  3  2  0
  3  4  1  0
  4  5  1  0
  4  6  2  0
  6  7  1  0
  7  8  1  0
  8  9  1  0
  8 10  2  0
 10 11  1  0
 11 12  1  0
 12 13  1  0
 12 14  1  0
 12 15  1  0
 11 16  2  0
 16 17  1  0
  6 18  1  0
 18 19  1  0
 18 20  2  0
 20 21  1  0
 20  2  1  0
 16  7  1  0
M  END
>  <cnnaffinity>  (1) 
-4.65354

>  <filename>  (1) 
FC(F)(F)c1cn(-c2cccnc2)cn1

$$$$
