
     RDKit          3D

 23 24  0  0  0  0  0  0  0  0999 V2000
    4.9228    1.7848   16.9914 H   0  0  0  0  0  0  0  0  0  0  0  0
    5.4013    1.2936   17.8368 C   0  0  0  0  0  0  0  0  0  0  0  0
    6.5642    0.6726   17.5828 N   0  0  0  0  0  0  0  0  0  0  0  0
    7.1767    0.0610   18.6016 C   0  0  0  0  0  0  0  0  0  0  0  0
    8.1134   -0.4322   18.3607 H   0  0  0  0  0  0  0  0  0  0  0  0
    6.6650    0.0041   19.9117 C   0  0  0  0  0  0  0  0  0  0  0  0
    7.3742   -0.6795   20.9346 N   0  0  0  0  0  0  0  0  0  0  0  0
    8.7486   -0.8065   21.0497 C   0  0  0  0  0  0  0  0  0  0  0  0
    9.3971   -0.3362   20.3189 H   0  0  0  0  0  0  0  0  0  0  0  0
    9.0273   -1.5001   22.1949 C   0  0  0  0  0  0  0  0  0  0  0  0
   10.0005   -1.8079   22.5608 H   0  0  0  0  0  0  0  0  0  0  0  0
    7.7771   -1.8119   22.8125 C   0  0  0  0  0  0  0  0  0  0  0  0
    7.5330   -2.8020   24.2511 S   0  0  0  0  0  0  0  0  0  0  0  0
    7.4538   -4.4471   23.4252 C   0  0  0  0  0  0  0  0  0  0  0  0
    7.2690   -5.3683   24.3663 F   0  0  0  0  0  0  0  0  0  0  0  0
    8.5791   -4.7200   22.7667 F   0  0  0  0  0  0  0  0  0  0  0  0
    6.4406   -4.4952   22.5592 F   0  0  0  0  0  0  0  0  0  0  0  0
    6.7925   -1.3080   22.0120 C   0  0  0  0  0  0  0  0  0  0  0  0
    5.7190   -1.4128   22.0758 H   0  0  0  0  0  0  0  0  0  0  0  0
    5.4415    0.6439   20.1666 C   0  0  0  0  0  0  0  0  0  0  0  0
    5.0111    0.6441   21.1722 H   0  0  0  0  0  0  0  0  0  0  0  0
    4.8120    1.3062   19.1071 C   0  0  0  0  0  0  0  0  0  0  0  0
    3.8797    1.8382   19.2591 H   0  0  0  0  0  0  0  0  0  0  0  0
  1  2  1  0
  2  3  2  0
  3  4  1  0
  4  5  1  0
  4  6  2  0
  6  7  1  0
  7  8  1  0
  8  9  1  0
  8 10  2  0
 10 11  1  0
 10 12  1  0
 12 13  1  0
 13 14  1  0
 14 15  1  0
 14 16  1  0
 14 17  1  0
 12 18  2  0
 18 19  1  0
  6 20  1  0
 20 21  1  0
 20 22  2  0
 22 23  1  0
 22  2  1  0
 18  7  1  0
M  END
>  <cnnaffinity>  (1) 
-5.10225

>  <filename>  (1) 
FC(F)(F)Sc1ccn(-c2cccnc2)c1

$$$$
