
     RDKit          3D

 40 42  0  0  0  0  0  0  0  0999 V2000
    5.0774    2.1062   16.7394 H   0  0  0  0  0  0  0  0  0  0  0  0
    5.5458    1.5296   17.5301 C   0  0  0  0  0  0  0  0  0  0  0  0
    6.7497    1.0053   17.2460 N   0  0  0  0  0  0  0  0  0  0  0  0
    7.3667    0.3199   18.2149 C   0  0  0  0  0  0  0  0  0  0  0  0
    8.3358   -0.1109   17.9578 H   0  0  0  0  0  0  0  0  0  0  0  0
    6.8395    0.0872   19.5157 C   0  0  0  0  0  0  0  0  0  0  0  0
    7.5644   -0.6606   20.4674 N   0  0  0  0  0  0  0  0  0  0  0  0
    6.8984   -1.5652   21.3952 C   0  0  0  0  0  0  0  0  0  0  0  0
    5.9242   -1.8593   20.9797 H   0  0  0  0  0  0  0  0  0  0  0  0
    7.4882   -2.4930   21.4681 H   0  0  0  0  0  0  0  0  0  0  0  0
    6.6401   -1.0285   22.8252 C   0  0  0  0  0  0  0  0  0  0  0  0
    5.9530   -0.1719   22.7207 H   0  0  0  0  0  0  0  0  0  0  0  0
    6.1087   -1.8141   23.3749 H   0  0  0  0  0  0  0  0  0  0  0  0
    7.8111   -0.5803   23.6035 N   0  0  0  0  0  0  0  0  0  0  0  0
    8.3685   -1.3779   24.6081 C   0  0  0  0  0  0  0  0  0  0  0  0
    8.2083   -2.6820   24.2954 N   0  0  0  0  0  0  0  0  0  0  0  0
    8.6963   -3.5078   25.3202 C   0  0  0  0  0  0  0  0  0  0  0  0
    8.5394   -5.0477   25.1981 C   0  0  0  0  0  0  0  0  0  0  0  0
    9.5653   -5.6169   24.5387 F   0  0  0  0  0  0  0  0  0  0  0  0
    7.4125   -5.4041   24.5664 F   0  0  0  0  0  0  0  0  0  0  0  0
    8.5015   -5.6274   26.4207 F   0  0  0  0  0  0  0  0  0  0  0  0
    9.2643   -2.9340   26.4062 C   0  0  0  0  0  0  0  0  0  0  0  0
    9.6347   -3.4611   27.2740 H   0  0  0  0  0  0  0  0  0  0  0  0
    8.9228   -1.1000   25.9238 C   0  0  0  0  0  0  0  0  0  0  0  0
   10.2265   -0.8913   26.3053 H   0  0  0  0  0  0  0  0  0  0  0  0
    9.1358   -0.7148   25.9751 C   0  0  0  0  0  0  0  0  0  0  0  0
    9.1962    0.4075   25.7782 H   0  0  0  0  0  0  0  0  0  0  0  0
    8.3224    0.7246   23.1589 C   0  0  0  0  0  0  0  0  0  0  0  0
    8.8591    1.2277   23.9713 H   0  0  0  0  0  0  0  0  0  0  0  0
    7.4491    1.3617   22.9621 H   0  0  0  0  0  0  0  0  0  0  0  0
    9.2123    0.7052   21.8998 C   0  0  0  0  0  0  0  0  0  0  0  0
   10.2600    0.5831   22.1959 H   0  0  0  0  0  0  0  0  0  0  0  0
    9.1330    1.7010   21.4475 H   0  0  0  0  0  0  0  0  0  0  0  0
    8.9504   -0.3386   20.7824 C   0  0  0  0  0  0  0  0  0  0  0  0
    9.4261    0.0396   19.8681 H   0  0  0  0  0  0  0  0  0  0  0  0
    9.4545   -1.2871   21.0064 H   0  0  0  0  0  0  0  0  0  0  0  0
    5.5529    0.6105   19.7634 C   0  0  0  0  0  0  0  0  0  0  0  0
    5.0841    0.4400   20.7314 H   0  0  0  0  0  0  0  0  0  0  0  0
    4.9154    1.3586   18.7640 C   0  0  0  0  0  0  0  0  0  0  0  0
    3.9411    1.8027   18.9364 H   0  0  0  0  0  0  0  0  0  0  0  0
  1  2  1  0
  2  3  2  0
  3  4  1  0
  4  5  1  0
  4  6  2  0
  6  7  1  0
  7  8  1  0
  8  9  1  0
  8 10  1  0
  8 11  1  0
 11 12  1  0
 11 13  1  0
 11 14  1  0
 14 15  1  0
 15 16  2  0
 16 17  1  0
 17 18  1  0
 18 19  1  0
 18 20  1  0
 18 21  1  0
 17 22  2  0
 22 23  1  0
 22 24  1  0
 24 25  1  0
 24 26  2  0
 26 27  1  0
 14 28  1  0
 28 29  1  0
 28 30  1  0
 28 31  1  0
 31 32  1  0
 31 33  1  0
 31 34  1  0
 34 35  1  0
 34 36  1  0
  6 37  1  0
 37 38  1  0
 37 39  2  0
 39 40  1  0
 39  2  1  0
 34  7  1  0
 26 15  1  0
M  END
>  <cnnaffinity>  (1) 
-5.52224

>  <filename>  (1) 
FC(F)(F)c1cccc(N2CCCN(c3cccnc3)CC2)n1

$$$$
