
     RDKit          3D

 33 35  0  0  0  0  0  0  0  0999 V2000
    5.7573   -3.2400   27.5267 F   0  0  0  0  0  0  0  0  0  0  0  0
    6.3154   -4.4490   27.3159 C   0  0  0  0  0  0  0  0  0  0  0  0
    5.5253   -5.0722   26.4155 F   0  0  0  0  0  0  0  0  0  0  0  0
    6.2243   -5.1451   28.4667 F   0  0  0  0  0  0  0  0  0  0  0  0
    7.7451   -4.3017   26.8324 C   0  0  0  0  0  0  0  0  0  0  0  0
    8.7927   -4.9589   27.5007 C   0  0  0  0  0  0  0  0  0  0  0  0
   10.0746   -4.9544   26.9445 C   0  0  0  0  0  0  0  0  0  0  0  0
   10.3252   -4.2901   25.7460 C   0  0  0  0  0  0  0  0  0  0  0  0
    9.3029   -3.5391   25.1303 C   0  0  0  0  0  0  0  0  0  0  0  0
    9.5493   -2.7669   23.8890 C   0  0  0  0  0  0  0  0  0  0  0  0
   10.7286   -2.6160   23.3408 N   0  0  0  0  0  0  0  0  0  0  0  0
   10.4694   -1.8760   22.2059 O   0  0  0  0  0  0  0  0  0  0  0  0
    9.1547   -1.6509   22.1754 C   0  0  0  0  0  0  0  0  0  0  0  0
    8.6132   -0.9255   21.0391 C   0  0  0  0  0  0  0  0  0  0  0  0
    7.3105   -0.6234   20.9687 C   0  0  0  0  0  0  0  0  0  0  0  0
    6.6315    0.0368   19.8571 C   0  0  0  0  0  0  0  0  0  0  0  0
    5.3876    0.6590   20.0752 C   0  0  0  0  0  0  0  0  0  0  0  0
    4.7830    1.3269   19.0151 C   0  0  0  0  0  0  0  0  0  0  0  0
    5.4139    1.3387   17.7659 C   0  0  0  0  0  0  0  0  0  0  0  0
    6.5779    0.7161   17.5234 N   0  0  0  0  0  0  0  0  0  0  0  0
    7.1624    0.0915   18.5505 C   0  0  0  0  0  0  0  0  0  0  0  0
    8.0933   -0.4228   18.3275 H   0  0  0  0  0  0  0  0  0  0  0  0
    4.9603    1.8605   16.9251 H   0  0  0  0  0  0  0  0  0  0  0  0
    3.8421    1.8449   19.1456 H   0  0  0  0  0  0  0  0  0  0  0  0
    4.9316    0.6337   21.0671 H   0  0  0  0  0  0  0  0  0  0  0  0
    6.6633   -0.8717   21.8184 H   0  0  0  0  0  0  0  0  0  0  0  0
    9.3316   -0.6315   20.2763 H   0  0  0  0  0  0  0  0  0  0  0  0
    8.5282   -2.1613   23.1956 N   0  0  0  0  0  0  0  0  0  0  0  0
    8.0127   -3.5250   25.6927 C   0  0  0  0  0  0  0  0  0  0  0  0
    7.2317   -2.9191   25.2206 H   0  0  0  0  0  0  0  0  0  0  0  0
   11.3196   -4.3523   25.3039 H   0  0  0  0  0  0  0  0  0  0  0  0
   10.8875   -5.4735   27.4448 H   0  0  0  0  0  0  0  0  0  0  0  0
    8.6033   -5.4925   28.4319 H   0  0  0  0  0  0  0  0  0  0  0  0
  1  2  1  0
  2  3  1  0
  2  4  1  0
  2  5  1  0
  5  6  2  0
  6  7  1  0
  7  8  2  0
  8  9  1  0
  9 10  1  0
 10 11  2  0
 11 12  1  0
 12 13  1  0
 13 14  1  0
 14 15  2  3
 15 16  1  0
 16 17  2  0
 17 18  1  0
 18 19  2  0
 19 20  1  0
 20 21  2  0
 21 22  1  0
 19 23  1  0
 18 24  1  0
 17 25  1  0
 15 26  1  0
 14 27  1  0
 13 28  2  0
  9 29  2  0
 29 30  1  0
  8 31  1  0
  7 32  1  0
  6 33  1  0
 29  5  1  0
 28 10  1  0
 21 16  1  0
M  END
>  <cnnaffinity>  (1) 
-5.50634

>  <filename>  (1) 
FC(F)(F)c1cccc(-c2noc(C=Cc3cccnc3)n2)c1

$$$$
