
     RDKit          3D

 43 47  0  0  0  0  0  0  0  0999 V2000
    7.6527    1.4726   28.0828 F   0  0  0  0  0  0  0  0  0  0  0  0
    7.9689    0.4857   27.2213 C   0  0  0  0  0  0  0  0  0  0  0  0
    6.8727   -0.2715   27.0772 F   0  0  0  0  0  0  0  0  0  0  0  0
    8.8941   -0.2858   27.8311 F   0  0  0  0  0  0  0  0  0  0  0  0
    8.5231    1.0613   25.8941 C   0  0  0  0  0  0  0  0  0  0  0  0
    9.8626    1.4707   25.7849 C   0  0  0  0  0  0  0  0  0  0  0  0
   10.2900    2.0721   24.5988 C   0  0  0  0  0  0  0  0  0  0  0  0
    9.3864    2.1728   23.5375 C   0  0  0  0  0  0  0  0  0  0  0  0
    8.0965    1.6309   23.7001 C   0  0  0  0  0  0  0  0  0  0  0  0
    7.1332    1.4614   22.5539 C   0  0  0  0  0  0  0  0  0  0  0  0
    7.2365    0.0642   22.0193 C   0  0  0  0  0  0  0  0  0  0  0  0
    7.6593   -0.9660   22.7115 N   0  0  0  0  0  0  0  0  0  0  0  0
    7.6976   -1.9791   21.8119 C   0  0  0  0  0  0  0  0  0  0  0  0
    8.2173   -3.3183   22.1376 C   0  0  0  0  0  0  0  0  0  0  0  0
    9.1175   -3.4946   23.3636 C   0  0  0  0  0  0  0  0  0  0  0  0
    7.7624   -4.1271   23.3156 C   0  0  0  0  0  0  0  0  0  0  0  0
    7.0687   -5.4356   23.4185 C   0  0  0  0  0  0  0  0  0  0  0  0
    6.5706   -4.2092   24.1947 C   0  0  0  0  0  0  0  0  0  0  0  0
    5.6697   -3.6838   23.8800 H   0  0  0  0  0  0  0  0  0  0  0  0
    6.7683   -4.1910   25.2666 H   0  0  0  0  0  0  0  0  0  0  0  0
    6.5028   -5.7554   22.5392 H   0  0  0  0  0  0  0  0  0  0  0  0
    7.5516   -6.2365   23.9729 H   0  0  0  0  0  0  0  0  0  0  0  0
    9.1873   -2.6278   24.0248 H   0  0  0  0  0  0  0  0  0  0  0  0
   10.0185   -4.0936   23.2946 H   0  0  0  0  0  0  0  0  0  0  0  0
    8.4292   -3.9084   21.2510 H   0  0  0  0  0  0  0  0  0  0  0  0
    7.3110   -1.6470   20.5964 N   0  0  0  0  0  0  0  0  0  0  0  0
    6.9801   -0.3333   20.7352 N   0  0  0  0  0  0  0  0  0  0  0  0
    6.4388    0.3637   19.6318 C   0  0  0  0  0  0  0  0  0  0  0  0
    5.3090    1.1849   19.7375 C   0  0  0  0  0  0  0  0  0  0  0  0
    4.7849    1.7143   18.5541 C   0  0  0  0  0  0  0  0  0  0  0  0
    5.4223    1.4489   17.3405 C   0  0  0  0  0  0  0  0  0  0  0  0
    6.5413    0.7050   17.2497 N   0  0  0  0  0  0  0  0  0  0  0  0
    7.0267    0.1702   18.3697 C   0  0  0  0  0  0  0  0  0  0  0  0
    7.9230   -0.4455   18.2794 H   0  0  0  0  0  0  0  0  0  0  0  0
    5.0262    1.8426   16.4059 H   0  0  0  0  0  0  0  0  0  0  0  0
    3.8899    2.3260   18.5644 H   0  0  0  0  0  0  0  0  0  0  0  0
    4.8332    1.3853   20.6987 H   0  0  0  0  0  0  0  0  0  0  0  0
    6.1270    1.6022   22.9567 H   0  0  0  0  0  0  0  0  0  0  0  0
    7.3038    2.1907   21.7556 H   0  0  0  0  0  0  0  0  0  0  0  0
    7.6630    1.1608   24.8680 N   0  0  0  0  0  0  0  0  0  0  0  0
    9.6642    2.6627   22.6106 H   0  0  0  0  0  0  0  0  0  0  0  0
   11.3164    2.4274   24.5022 H   0  0  0  0  0  0  0  0  0  0  0  0
   10.5635    1.2801   26.5833 H   0  0  0  0  0  0  0  0  0  0  0  0
  1  2  1  0
  2  3  1  0
  2  4  1  0
  2  5  1  0
  5  6  2  0
  6  7  1  0
  7  8  2  0
  8  9  1  0
  9 10  1  0
 10 11  1  0
 11 12  2  0
 12 13  1  0
 13 14  1  0
 14 15  1  0
 15 16  1  0
 16 17  1  0
 17 18  1  0
 18 19  1  0
 18 20  1  0
 17 21  1  0
 17 22  1  0
 15 23  1  0
 15 24  1  0
 14 25  1  0
 13 26  2  0
 26 27  1  0
 27 28  1  0
 28 29  2  0
 29 30  1  0
 30 31  2  0
 31 32  1  0
 32 33  2  0
 33 34  1  0
 31 35  1  0
 30 36  1  0
 29 37  1  0
 10 38  1  0
 10 39  1  0
  9 40  2  0
  8 41  1  0
  7 42  1  0
  6 43  1  0
 40  5  1  0
 27 11  1  0
 33 28  1  0
 16 14  1  0
 18 16  1  0
M  END
>  <cnnaffinity>  (1) 
-6.42809

>  <filename>  (1) 
FC(F)(F)c1cccc(Cc2nc(C3CC34CC4)nn2-c2cccnc2)n1

$$$$
