
     RDKit          3D

 28 29  0  0  0  0  0  0  0  0999 V2000
    4.9102    1.8565   16.8742 H   0  0  0  0  0  0  0  0  0  0  0  0
    5.3715    1.3158   17.6945 C   0  0  0  0  0  0  0  0  0  0  0  0
    6.4959    0.6412   17.4071 N   0  0  0  0  0  0  0  0  0  0  0  0
    7.0952   -0.0338   18.3893 C   0  0  0  0  0  0  0  0  0  0  0  0
    7.9793   -0.6023   18.0907 H   0  0  0  0  0  0  0  0  0  0  0  0
    6.6124   -0.0578   19.7020 C   0  0  0  0  0  0  0  0  0  0  0  0
    7.4199   -0.7074   20.7598 C   0  0  0  0  0  0  0  0  0  0  0  0
    9.0584   -0.8467   20.6778 S   0  0  0  0  0  0  0  0  0  0  0  0
    6.6647   -1.1478   21.7886 N   0  0  0  0  0  0  0  0  0  0  0  0
    5.6716   -1.1174   21.6280 H   0  0  0  0  0  0  0  0  0  0  0  0
    7.0682   -1.4087   23.1179 C   0  0  0  0  0  0  0  0  0  0  0  0
    7.8885   -0.4993   23.7912 C   0  0  0  0  0  0  0  0  0  0  0  0
    8.2642    0.3514   23.2399 H   0  0  0  0  0  0  0  0  0  0  0  0
    8.2192   -0.7141   25.1232 C   0  0  0  0  0  0  0  0  0  0  0  0
    8.8946   -0.0265   25.6342 H   0  0  0  0  0  0  0  0  0  0  0  0
    7.7084   -1.8381   25.7853 C   0  0  0  0  0  0  0  0  0  0  0  0
    7.9019   -1.9978   27.2596 C   0  0  0  0  0  0  0  0  0  0  0  0
    8.1082   -3.2846   27.6052 F   0  0  0  0  0  0  0  0  0  0  0  0
    8.9525   -1.2953   27.7231 F   0  0  0  0  0  0  0  0  0  0  0  0
    6.8053   -1.5729   27.9265 F   0  0  0  0  0  0  0  0  0  0  0  0
    6.9396   -2.7847   25.0884 C   0  0  0  0  0  0  0  0  0  0  0  0
    6.6246   -3.6986   25.5859 H   0  0  0  0  0  0  0  0  0  0  0  0
    6.6081   -2.5612   23.7548 C   0  0  0  0  0  0  0  0  0  0  0  0
    6.0233   -3.2860   23.2013 H   0  0  0  0  0  0  0  0  0  0  0  0
    5.4125    0.6316   19.9804 C   0  0  0  0  0  0  0  0  0  0  0  0
    4.9898    0.6566   20.9849 H   0  0  0  0  0  0  0  0  0  0  0  0
    4.7844    1.3315   18.9604 C   0  0  0  0  0  0  0  0  0  0  0  0
    3.8650    1.8813   19.1394 H   0  0  0  0  0  0  0  0  0  0  0  0
  1  2  1  0
  2  3  2  0
  3  4  1  0
  4  5  1  0
  4  6  2  0
  6  7  1  0
  7  8  2  0
  7  9  1  0
  9 10  1  0
  9 11  1  0
 11 12  2  0
 12 13  1  0
 12 14  1  0
 14 15  1  0
 14 16  2  0
 16 17  1  0
 17 18  1  0
 17 19  1  0
 17 20  1  0
 16 21  1  0
 21 22  1  0
 21 23  2  0
 23 24  1  0
  6 25  1  0
 25 26  1  0
 25 27  2  0
 27 28  1  0
 27  2  1  0
 23 11  1  0
M  END
>  <cnnaffinity>  (1) 
-4.79656

>  <filename>  (1) 
FC(F)(F)c1ccc(NC(=S)c2cccnc2)cc1

$$$$
