
     RDKit          3D

 41 45  0  0  0  0  0  0  0  0999 V2000
   14.7263    1.4048   22.8531 F   0  0  0  0  0  0  0  0  0  0  0  0
   13.8473    0.4827   23.2707 C   0  0  0  0  0  0  0  0  0  0  0  0
   13.9339    0.4140   24.6099 F   0  0  0  0  0  0  0  0  0  0  0  0
   14.2842   -0.6995   22.7809 F   0  0  0  0  0  0  0  0  0  0  0  0
   12.4490    0.7711   22.7564 C   0  0  0  0  0  0  0  0  0  0  0  0
   11.8148    0.0665   21.7725 C   0  0  0  0  0  0  0  0  0  0  0  0
   10.6245    0.7046   21.5421 N   0  0  0  0  0  0  0  0  0  0  0  0
    9.5839    0.2124   20.6562 C   0  0  0  0  0  0  0  0  0  0  0  0
    8.5573   -0.6278   21.3415 C   0  0  0  0  0  0  0  0  0  0  0  0
    8.7767   -1.4443   22.3415 N   0  0  0  0  0  0  0  0  0  0  0  0
    7.5575   -2.0071   22.5514 C   0  0  0  0  0  0  0  0  0  0  0  0
    7.4944   -3.0287   23.6288 C   0  0  0  0  0  0  0  0  0  0  0  0
    7.8423   -2.5492   25.0014 C   0  0  0  0  0  0  0  0  0  0  0  0
    6.4293   -3.1296   24.7355 C   0  0  0  0  0  0  0  0  0  0  0  0
    5.2159   -4.0148   24.5085 C   0  0  0  0  0  0  0  0  0  0  0  0
    5.4995   -3.5022   25.8850 C   0  0  0  0  0  0  0  0  0  0  0  0
    5.9044   -4.1860   26.6341 H   0  0  0  0  0  0  0  0  0  0  0  0
    4.8365   -2.7251   26.2624 H   0  0  0  0  0  0  0  0  0  0  0  0
    4.3720   -3.5613   23.9874 H   0  0  0  0  0  0  0  0  0  0  0  0
    5.4089   -5.0644   24.2692 H   0  0  0  0  0  0  0  0  0  0  0  0
    7.9470   -1.4656   25.1085 H   0  0  0  0  0  0  0  0  0  0  0  0
    8.5154   -3.1284   25.6437 H   0  0  0  0  0  0  0  0  0  0  0  0
    7.9236   -3.9802   23.3079 H   0  0  0  0  0  0  0  0  0  0  0  0
    6.6052   -1.5982   21.7376 N   0  0  0  0  0  0  0  0  0  0  0  0
    7.2627   -0.7226   20.9250 N   0  0  0  0  0  0  0  0  0  0  0  0
    6.6008   -0.0340   19.8704 C   0  0  0  0  0  0  0  0  0  0  0  0
    5.4006    0.6336   20.1269 C   0  0  0  0  0  0  0  0  0  0  0  0
    4.7916    1.3266   19.0790 C   0  0  0  0  0  0  0  0  0  0  0  0
    5.3927    1.3174   17.8143 C   0  0  0  0  0  0  0  0  0  0  0  0
    6.5389    0.6699   17.5571 N   0  0  0  0  0  0  0  0  0  0  0  0
    7.1275    0.0175   18.5658 C   0  0  0  0  0  0  0  0  0  0  0  0
    8.0691   -0.4743   18.3247 H   0  0  0  0  0  0  0  0  0  0  0  0
    4.9361    1.8403   16.9764 H   0  0  0  0  0  0  0  0  0  0  0  0
    3.8651    1.8691   19.2308 H   0  0  0  0  0  0  0  0  0  0  0  0
    4.9801    0.5993   21.1323 H   0  0  0  0  0  0  0  0  0  0  0  0
    9.1219    1.0442   20.1246 H   0  0  0  0  0  0  0  0  0  0  0  0
   10.0587   -0.4376   19.9138 H   0  0  0  0  0  0  0  0  0  0  0  0
   10.5786    1.7538   22.4332 C   0  0  0  0  0  0  0  0  0  0  0  0
   11.6588    1.8318   23.1596 N   0  0  0  0  0  0  0  0  0  0  0  0
    9.7058    2.3922   22.5116 H   0  0  0  0  0  0  0  0  0  0  0  0
   12.1085   -0.8278   21.2323 H   0  0  0  0  0  0  0  0  0  0  0  0
  1  2  1  0
  2  3  1  0
  2  4  1  0
  2  5  1  0
  5  6  2  0
  6  7  1  0
  7  8  1  0
  8  9  1  0
  9 10  2  0
 10 11  1  0
 11 12  1  0
 12 13  1  0
 13 14  1  0
 14 15  1  0
 15 16  1  0
 16 17  1  0
 16 18  1  0
 15 19  1  0
 15 20  1  0
 13 21  1  0
 13 22  1  0
 12 23  1  0
 11 24  2  0
 24 25  1  0
 25 26  1  0
 26 27  2  0
 27 28  1  0
 28 29  2  0
 29 30  1  0
 30 31  2  0
 31 32  1  0
 29 33  1  0
 28 34  1  0
 27 35  1  0
  8 36  1  0
  8 37  1  0
  7 38  1  0
 38 39  2  0
 38 40  1  0
  6 41  1  0
 39  5  1  0
 25  9  1  0
 31 26  1  0
 14 12  1  0
 16 14  1  0
M  END
>  <cnnaffinity>  (1) 
-6.57115

>  <filename>  (1) 
FC(F)(F)c1cn(Cc2nc(C3CC34CC4)nn2-c2cccnc2)cn1

$$$$
