
     RDKit          3D

 27 28  0  0  0  0  0  0  0  0999 V2000
    4.9972    1.8807   16.9306 H   0  0  0  0  0  0  0  0  0  0  0  0
    5.4421    1.3395   17.7584 C   0  0  0  0  0  0  0  0  0  0  0  0
    6.5966    0.6789   17.5562 N   0  0  0  0  0  0  0  0  0  0  0  0
    7.1481    0.0389   18.5928 C   0  0  0  0  0  0  0  0  0  0  0  0
    8.0882   -0.4843   18.4368 H   0  0  0  0  0  0  0  0  0  0  0  0
    6.5667    0.0212   19.8625 C   0  0  0  0  0  0  0  0  0  0  0  0
    7.2688   -0.7106   20.9609 C   0  0  0  0  0  0  0  0  0  0  0  0
    7.1914    0.0031   22.1134 F   0  0  0  0  0  0  0  0  0  0  0  0
    8.5887   -0.8565   20.6560 F   0  0  0  0  0  0  0  0  0  0  0  0
    6.6235   -2.0857   21.1389 C   0  0  0  0  0  0  0  0  0  0  0  0
    5.5579   -1.9576   21.3492 H   0  0  0  0  0  0  0  0  0  0  0  0
    6.6928   -2.6621   20.2154 H   0  0  0  0  0  0  0  0  0  0  0  0
    7.2897   -2.8255   22.2709 C   0  0  0  0  0  0  0  0  0  0  0  0
    8.6636   -3.0884   22.2207 C   0  0  0  0  0  0  0  0  0  0  0  0
    9.2536   -2.7619   21.3713 H   0  0  0  0  0  0  0  0  0  0  0  0
    9.2964   -3.7379   23.2779 C   0  0  0  0  0  0  0  0  0  0  0  0
   10.3638   -3.9237   23.2097 H   0  0  0  0  0  0  0  0  0  0  0  0
    8.5747   -4.0950   24.4239 C   0  0  0  0  0  0  0  0  0  0  0  0
    9.4703   -4.9551   25.8818 Br  0  0  0  0  0  0  0  0  0  0  0  0
    7.2046   -3.7941   24.4952 C   0  0  0  0  0  0  0  0  0  0  0  0
    6.6462   -4.0065   25.4033 H   0  0  0  0  0  0  0  0  0  0  0  0
    6.5614   -3.1839   23.4081 C   0  0  0  0  0  0  0  0  0  0  0  0
    5.5032   -2.9427   23.4540 H   0  0  0  0  0  0  0  0  0  0  0  0
    5.3622    0.6914   20.0804 C   0  0  0  0  0  0  0  0  0  0  0  0
    4.8864    0.7058   21.0626 H   0  0  0  0  0  0  0  0  0  0  0  0
    4.8076    1.3632   19.0007 C   0  0  0  0  0  0  0  0  0  0  0  0
    3.8866    1.9171   19.1150 H   0  0  0  0  0  0  0  0  0  0  0  0
  1  2  1  0
  2  3  2  0
  3  4  1  0
  4  5  1  0
  4  6  2  0
  6  7  1  0
  7  8  1  0
  7  9  1  0
  7 10  1  0
 10 11  1  0
 10 12  1  0
 10 13  1  0
 13 14  2  0
 14 15  1  0
 14 16  1  0
 16 17  1  0
 16 18  2  0
 18 19  1  0
 18 20  1  0
 20 21  1  0
 20 22  2  0
 22 23  1  0
  6 24  1  0
 24 25  1  0
 24 26  2  0
 26 27  1  0
 26  2  1  0
 22 13  1  0
M  END
>  <cnnaffinity>  (1) 
-4.56403

>  <filename>  (1) 
FC(F)(Cc1ccc(Br)cc1)c1cccnc1

$$$$
