
     RDKit          3D

 28 29  0  0  0  0  0  0  0  0999 V2000
    4.9340    1.8764   16.9607 H   0  0  0  0  0  0  0  0  0  0  0  0
    5.3716    1.3084   17.7780 C   0  0  0  0  0  0  0  0  0  0  0  0
    6.5164    0.6579   17.5049 N   0  0  0  0  0  0  0  0  0  0  0  0
    7.1124    0.0019   18.5081 C   0  0  0  0  0  0  0  0  0  0  0  0
    8.0544   -0.4946   18.2704 H   0  0  0  0  0  0  0  0  0  0  0  0
    6.6006   -0.0487   19.8163 C   0  0  0  0  0  0  0  0  0  0  0  0
    7.5233   -0.8110   21.1227 S   0  0  0  0  0  0  0  0  0  0  0  0
    8.3725    0.7021   21.7033 C   0  0  0  0  0  0  0  0  0  0  0  0
    8.9817    1.0917   20.8770 H   0  0  0  0  0  0  0  0  0  0  0  0
    7.6409    1.4670   21.9690 H   0  0  0  0  0  0  0  0  0  0  0  0
    9.2612    0.3570   22.8674 C   0  0  0  0  0  0  0  0  0  0  0  0
   10.5476   -0.0939   22.5601 C   0  0  0  0  0  0  0  0  0  0  0  0
   10.7958   -0.2723   21.5203 H   0  0  0  0  0  0  0  0  0  0  0  0
   11.4976   -0.3068   23.5592 C   0  0  0  0  0  0  0  0  0  0  0  0
   12.5269   -0.5481   23.3009 H   0  0  0  0  0  0  0  0  0  0  0  0
   11.1129   -0.2161   24.8982 C   0  0  0  0  0  0  0  0  0  0  0  0
   11.8371   -0.4304   25.6782 H   0  0  0  0  0  0  0  0  0  0  0  0
    9.8042    0.1488   25.2292 C   0  0  0  0  0  0  0  0  0  0  0  0
    9.4955    0.1725   26.2715 H   0  0  0  0  0  0  0  0  0  0  0  0
    8.8860    0.4913   24.2191 C   0  0  0  0  0  0  0  0  0  0  0  0
    7.5312    1.0910   24.5583 C   0  0  0  0  0  0  0  0  0  0  0  0
    7.2455    1.0760   25.8694 F   0  0  0  0  0  0  0  0  0  0  0  0
    6.5051    0.4730   23.9400 F   0  0  0  0  0  0  0  0  0  0  0  0
    7.4757    2.3836   24.1573 F   0  0  0  0  0  0  0  0  0  0  0  0
    5.3899    0.6106   20.0775 C   0  0  0  0  0  0  0  0  0  0  0  0
    4.9802    0.6098   21.0871 H   0  0  0  0  0  0  0  0  0  0  0  0
    4.7630    1.2970   19.0382 C   0  0  0  0  0  0  0  0  0  0  0  0
    3.8457    1.8565   19.1999 H   0  0  0  0  0  0  0  0  0  0  0  0
  1  2  1  0
  2  3  2  0
  3  4  1  0
  4  5  1  0
  4  6  2  0
  6  7  1  0
  7  8  1  0
  8  9  1  0
  8 10  1  0
  8 11  1  0
 11 12  2  0
 12 13  1  0
 12 14  1  0
 14 15  1  0
 14 16  2  0
 16 17  1  0
 16 18  1  0
 18 19  1  0
 18 20  2  0
 20 21  1  0
 21 22  1  0
 21 23  1  0
 21 24  1  0
  6 25  1  0
 25 26  1  0
 25 27  2  0
 27 28  1  0
 27  2  1  0
 20 11  1  0
M  END
>  <cnnaffinity>  (1) 
-4.86791

>  <filename>  (1) 
FC(F)(F)c1ccccc1CSc1cccnc1

$$$$
