
     RDKit          3D

 30 31  0  0  0  0  0  0  0  0999 V2000
    5.0532    1.9665   16.6048 H   0  0  0  0  0  0  0  0  0  0  0  0
    5.3886    1.4206   17.4846 C   0  0  0  0  0  0  0  0  0  0  0  0
    6.5585    0.7738   17.3662 N   0  0  0  0  0  0  0  0  0  0  0  0
    7.0136    0.1326   18.4479 C   0  0  0  0  0  0  0  0  0  0  0  0
    7.9636   -0.3961   18.3286 H   0  0  0  0  0  0  0  0  0  0  0  0
    6.3517    0.0999   19.6837 C   0  0  0  0  0  0  0  0  0  0  0  0
    7.0231   -0.5255   20.8813 C   0  0  2  0  0  0  0  0  0  0  0  0
    7.9829   -0.9492   20.5715 H   0  0  0  0  0  0  0  0  0  0  0  0
    6.0715   -1.9495   21.4351 Cl  0  0  0  0  0  0  0  0  0  0  0  0
    7.2502    0.4654   22.0529 C   0  0  0  0  0  0  0  0  0  0  0  0
    6.3039    0.6258   22.5829 H   0  0  0  0  0  0  0  0  0  0  0  0
    7.5615    1.4246   21.6356 H   0  0  0  0  0  0  0  0  0  0  0  0
    8.3057   -0.0408   23.0170 C   0  0  0  0  0  0  0  0  0  0  0  0
    7.9213   -0.7814   24.1382 C   0  0  0  0  0  0  0  0  0  0  0  0
    6.8873   -0.7586   24.4699 H   0  0  0  0  0  0  0  0  0  0  0  0
    8.8203   -1.6348   24.7798 C   0  0  0  0  0  0  0  0  0  0  0  0
    8.4647   -2.2796   25.5802 H   0  0  0  0  0  0  0  0  0  0  0  0
   10.1447   -1.7040   24.3458 C   0  0  0  0  0  0  0  0  0  0  0  0
   10.8200   -2.4260   24.7941 H   0  0  0  0  0  0  0  0  0  0  0  0
   10.5847   -0.8679   23.3162 C   0  0  0  0  0  0  0  0  0  0  0  0
   11.6164   -0.9258   22.9725 H   0  0  0  0  0  0  0  0  0  0  0  0
    9.6792    0.0206   22.7001 C   0  0  0  0  0  0  0  0  0  0  0  0
   10.1631    1.0300   21.6747 C   0  0  0  0  0  0  0  0  0  0  0  0
   11.4972    1.0535   21.5411 F   0  0  0  0  0  0  0  0  0  0  0  0
    9.7880    2.2916   21.9780 F   0  0  0  0  0  0  0  0  0  0  0  0
    9.6606    0.7691   20.4411 F   0  0  0  0  0  0  0  0  0  0  0  0
    5.0955    0.7182   19.7635 C   0  0  0  0  0  0  0  0  0  0  0  0
    4.5147    0.6605   20.6854 H   0  0  0  0  0  0  0  0  0  0  0  0
    4.6097    1.3975   18.6464 C   0  0  0  0  0  0  0  0  0  0  0  0
    3.6672    1.9369   18.6689 H   0  0  0  0  0  0  0  0  0  0  0  0
  1  2  1  0
  2  3  2  0
  3  4  1  0
  4  5  1  0
  4  6  2  0
  6  7  1  0
  7  8  1  6
  7  9  1  0
  7 10  1  0
 10 11  1  0
 10 12  1  0
 10 13  1  0
 13 14  2  0
 14 15  1  0
 14 16  1  0
 16 17  1  0
 16 18  2  0
 18 19  1  0
 18 20  1  0
 20 21  1  0
 20 22  2  0
 22 23  1  0
 23 24  1  0
 23 25  1  0
 23 26  1  0
  6 27  1  0
 27 28  1  0
 27 29  2  0
 29 30  1  0
 29  2  1  0
 22 13  1  0
M  END
>  <cnnaffinity>  (1) 
-5.20281

>  <filename>  (1) 
FC(F)(F)c1ccccc1C[C@@H](Cl)c1cccnc1

$$$$
