
     RDKit          3D

 38 41  0  0  0  0  0  0  0  0999 V2000
   12.0154    3.3341   22.9912 F   0  0  0  0  0  0  0  0  0  0  0  0
   11.5711    2.4626   22.0617 C   0  0  0  0  0  0  0  0  0  0  0  0
   12.2336    1.3066   22.2933 F   0  0  0  0  0  0  0  0  0  0  0  0
   11.9414    2.8956   20.8523 F   0  0  0  0  0  0  0  0  0  0  0  0
   10.0729    2.2640   22.1756 C   0  0  0  0  0  0  0  0  0  0  0  0
    9.2415    2.7063   21.2343 N   0  0  0  0  0  0  0  0  0  0  0  0
    8.0305    2.3655   21.6588 N   0  0  0  0  0  0  0  0  0  0  0  0
    8.0383    1.6909   22.8347 C   0  0  0  0  0  0  0  0  0  0  0  0
    6.8839    0.8611   23.3434 C   0  0  0  0  0  0  0  0  0  0  0  0
    6.9927   -0.5300   22.7581 C   0  0  0  0  0  0  0  0  0  0  0  0
    7.5535   -1.5241   23.4112 N   0  0  0  0  0  0  0  0  0  0  0  0
    7.9363   -2.3675   22.4202 C   0  0  0  0  0  0  0  0  0  0  0  0
    8.9114   -3.4620   22.6642 C   0  0  0  0  0  0  0  0  0  0  0  0
   10.3073   -2.8716   23.0422 C   0  0  0  0  0  0  0  0  0  0  0  0
   10.2689   -3.6930   24.6653 S   0  0  0  0  0  0  0  0  0  0  0  0
    8.6928   -4.2811   23.9571 C   0  0  0  0  0  0  0  0  0  0  0  0
    8.6902   -5.3657   23.8140 H   0  0  0  0  0  0  0  0  0  0  0  0
    7.8124   -3.9888   24.5410 H   0  0  0  0  0  0  0  0  0  0  0  0
   11.1478   -3.1570   22.4077 H   0  0  0  0  0  0  0  0  0  0  0  0
   10.3178   -1.7789   23.1402 H   0  0  0  0  0  0  0  0  0  0  0  0
    8.9073   -4.0631   21.7575 H   0  0  0  0  0  0  0  0  0  0  0  0
    7.5859   -2.0069   21.2084 N   0  0  0  0  0  0  0  0  0  0  0  0
    6.9468   -0.8174   21.4206 N   0  0  0  0  0  0  0  0  0  0  0  0
    6.4565   -0.0749   20.3172 C   0  0  0  0  0  0  0  0  0  0  0  0
    5.3108    0.7215   20.4003 C   0  0  0  0  0  0  0  0  0  0  0  0
    4.8893    1.3864   19.2462 C   0  0  0  0  0  0  0  0  0  0  0  0
    5.6304    1.2481   18.0677 C   0  0  0  0  0  0  0  0  0  0  0  0
    6.7554    0.5171   17.9931 N   0  0  0  0  0  0  0  0  0  0  0  0
    7.1575   -0.1230   19.0947 C   0  0  0  0  0  0  0  0  0  0  0  0
    8.0761   -0.7035   19.0329 H   0  0  0  0  0  0  0  0  0  0  0  0
    5.3138    1.7379   17.1493 H   0  0  0  0  0  0  0  0  0  0  0  0
    4.0006    2.0076   19.2529 H   0  0  0  0  0  0  0  0  0  0  0  0
    4.7603    0.8201   21.3369 H   0  0  0  0  0  0  0  0  0  0  0  0
    5.9120    1.3212   23.1514 H   0  0  0  0  0  0  0  0  0  0  0  0
    7.0085    0.7429   24.4211 H   0  0  0  0  0  0  0  0  0  0  0  0
    9.3631    1.6209   23.2111 C   0  0  0  0  0  0  0  0  0  0  0  0
    9.7704    1.1391   24.0926 H   0  0  0  0  0  0  0  0  0  0  0  0
    7.2325    2.5869   21.0780 H   0  0  0  0  0  0  0  0  0  0  0  0
  1  2  1  0
  2  3  1  0
  2  4  1  0
  2  5  1  0
  5  6  2  0
  6  7  1  0
  7  8  1  0
  8  9  1  0
  9 10  1  0
 10 11  2  0
 11 12  1  0
 12 13  1  0
 13 14  1  0
 14 15  1  0
 15 16  1  0
 16 17  1  0
 16 18  1  0
 14 19  1  0
 14 20  1  0
 13 21  1  0
 12 22  2  0
 22 23  1  0
 23 24  1  0
 24 25  2  0
 25 26  1  0
 26 27  2  0
 27 28  1  0
 28 29  2  0
 29 30  1  0
 27 31  1  0
 26 32  1  0
 25 33  1  0
  9 34  1  0
  9 35  1  0
  8 36  2  0
 36 37  1  0
  7 38  1  0
 36  5  1  0
 23 10  1  0
 29 24  1  0
 16 13  1  0
M  END
>  <cnnaffinity>  (1) 
-6.22196

>  <filename>  (1) 
FC(F)(F)c1cc(Cc2nc(C3CSC3)nn2-c2cccnc2)[nH]n1

$$$$
