
     RDKit          3D

 35 36  0  0  0  0  0  0  0  0999 V2000
    5.0041    1.8092   16.9388 H   0  0  0  0  0  0  0  0  0  0  0  0
    5.4335    1.3264   17.8181 C   0  0  0  0  0  0  0  0  0  0  0  0
    6.5848    0.6626   17.6413 N   0  0  0  0  0  0  0  0  0  0  0  0
    7.1230    0.0553   18.7127 C   0  0  0  0  0  0  0  0  0  0  0  0
    8.0458   -0.4890   18.5232 H   0  0  0  0  0  0  0  0  0  0  0  0
    6.5698    0.0737   20.0301 C   0  0  0  0  0  0  0  0  0  0  0  0
    7.1097   -0.6098   21.1470 N   0  0  0  0  0  0  0  0  0  0  0  0
    7.4212    0.1265   22.3851 C   0  0  0  0  0  0  0  0  0  0  0  0
    7.7281    1.1603   22.1484 H   0  0  0  0  0  0  0  0  0  0  0  0
    6.5144    0.1911   23.0061 H   0  0  0  0  0  0  0  0  0  0  0  0
    8.5450   -0.5123   23.2447 C   0  0  0  0  0  0  0  0  0  0  0  0
    8.5590   -0.0481   24.2341 H   0  0  0  0  0  0  0  0  0  0  0  0
    8.3313   -1.5718   23.4117 H   0  0  0  0  0  0  0  0  0  0  0  0
    9.9218   -0.4500   22.7044 N   0  0  0  0  0  0  0  0  0  0  0  0
   10.4257    0.8628   22.9326 O   0  0  0  0  0  0  0  0  0  0  0  0
   11.5133    0.8115   23.8340 C   0  0  0  0  0  0  0  0  0  0  0  0
   11.6551    1.8248   24.2176 H   0  0  0  0  0  0  0  0  0  0  0  0
   11.3215    0.1206   24.6599 H   0  0  0  0  0  0  0  0  0  0  0  0
   12.8212    0.4071   23.1760 C   0  0  0  0  0  0  0  0  0  0  0  0
   12.7680   -0.7880   22.5670 F   0  0  0  0  0  0  0  0  0  0  0  0
   13.7846    0.3306   24.1154 F   0  0  0  0  0  0  0  0  0  0  0  0
   13.2197    1.3065   22.2682 F   0  0  0  0  0  0  0  0  0  0  0  0
   10.0159   -0.6780   21.2470 C   0  0  0  0  0  0  0  0  0  0  0  0
   11.0728   -0.8409   21.0143 H   0  0  0  0  0  0  0  0  0  0  0  0
    9.7200    0.2389   20.7189 H   0  0  0  0  0  0  0  0  0  0  0  0
    9.2281   -1.8656   20.6773 C   0  0  0  0  0  0  0  0  0  0  0  0
    9.6780   -2.8039   21.0123 H   0  0  0  0  0  0  0  0  0  0  0  0
    9.3550   -1.7974   19.5951 H   0  0  0  0  0  0  0  0  0  0  0  0
    7.7136   -1.9178   20.9657 C   0  0  0  0  0  0  0  0  0  0  0  0
    7.5196   -2.5177   21.8656 H   0  0  0  0  0  0  0  0  0  0  0  0
    7.1605   -2.4070   20.1559 H   0  0  0  0  0  0  0  0  0  0  0  0
    5.3724    0.7930   20.1728 C   0  0  0  0  0  0  0  0  0  0  0  0
    4.9053    0.8375   21.1573 H   0  0  0  0  0  0  0  0  0  0  0  0
    4.7863    1.4060   19.0578 C   0  0  0  0  0  0  0  0  0  0  0  0
    3.8497    1.9482   19.1402 H   0  0  0  0  0  0  0  0  0  0  0  0
  1  2  1  0
  2  3  2  0
  3  4  1  0
  4  5  1  0
  4  6  2  0
  6  7  1  0
  7  8  1  0
  8  9  1  0
  8 10  1  0
  8 11  1  0
 11 12  1  0
 11 13  1  0
 11 14  1  0
 14 15  1  0
 15 16  1  0
 16 17  1  0
 16 18  1  0
 16 19  1  0
 19 20  1  0
 19 21  1  0
 19 22  1  0
 14 23  1  0
 23 24  1  0
 23 25  1  0
 23 26  1  0
 26 27  1  0
 26 28  1  0
 26 29  1  0
 29 30  1  0
 29 31  1  0
  6 32  1  0
 32 33  1  0
 32 34  2  0
 34 35  1  0
 34  2  1  0
 29  7  1  0
M  END
>  <cnnaffinity>  (1) 
-4.73114

>  <filename>  (1) 
FC(F)(F)CON1CCCN(c2cccnc2)CC1

$$$$
