
     RDKit          3D

 41 44  0  0  0  0  0  0  0  0999 V2000
   12.1238    3.1528   22.9077 F   0  0  0  0  0  0  0  0  0  0  0  0
   11.6089    2.3455   21.9556 C   0  0  0  0  0  0  0  0  0  0  0  0
   12.0036    2.8056   20.7667 F   0  0  0  0  0  0  0  0  0  0  0  0
   12.1777    1.1274   22.1241 F   0  0  0  0  0  0  0  0  0  0  0  0
   10.0991    2.2660   22.0805 C   0  0  0  0  0  0  0  0  0  0  0  0
    9.2964    2.5973   21.0711 N   0  0  0  0  0  0  0  0  0  0  0  0
    8.0712    2.3369   21.5060 N   0  0  0  0  0  0  0  0  0  0  0  0
    8.0412    1.7959   22.7515 C   0  0  0  0  0  0  0  0  0  0  0  0
    6.8750    0.9629   23.2353 C   0  0  0  0  0  0  0  0  0  0  0  0
    7.0299   -0.4302   22.6633 C   0  0  0  0  0  0  0  0  0  0  0  0
    7.5627   -1.4049   23.3617 N   0  0  0  0  0  0  0  0  0  0  0  0
    7.9641   -2.2886   22.4110 C   0  0  0  0  0  0  0  0  0  0  0  0
    8.7980   -3.4576   22.8093 C   0  0  0  0  0  0  0  0  0  0  0  0
    8.3272   -4.1956   24.0821 C   0  0  0  0  0  0  0  0  0  0  0  0
    9.6383   -4.6545   24.7440 C   0  0  0  0  0  0  0  0  0  0  0  0
   10.7045   -3.9988   24.0795 O   0  0  0  0  0  0  0  0  0  0  0  0
   10.2172   -2.9993   23.2136 C   0  0  0  0  0  0  0  0  0  0  0  0
   10.1920   -2.0209   23.7304 H   0  0  0  0  0  0  0  0  0  0  0  0
   10.9097   -2.9290   22.3659 H   0  0  0  0  0  0  0  0  0  0  0  0
    9.7936   -5.7364   24.6620 H   0  0  0  0  0  0  0  0  0  0  0  0
    9.6615   -4.4170   25.8162 H   0  0  0  0  0  0  0  0  0  0  0  0
    7.6558   -5.0356   23.8727 H   0  0  0  0  0  0  0  0  0  0  0  0
    7.7978   -3.4945   24.7381 H   0  0  0  0  0  0  0  0  0  0  0  0
    8.8384   -4.1432   21.9622 H   0  0  0  0  0  0  0  0  0  0  0  0
    7.6914   -1.9461   21.1722 N   0  0  0  0  0  0  0  0  0  0  0  0
    7.0496   -0.7485   21.3318 N   0  0  0  0  0  0  0  0  0  0  0  0
    6.5135   -0.0641   20.2075 C   0  0  0  0  0  0  0  0  0  0  0  0
    5.3423    0.6970   20.3161 C   0  0  0  0  0  0  0  0  0  0  0  0
    4.8839    1.3680   19.1821 C   0  0  0  0  0  0  0  0  0  0  0  0
    5.5965    1.2542   17.9857 C   0  0  0  0  0  0  0  0  0  0  0  0
    6.7196    0.5240   17.8717 N   0  0  0  0  0  0  0  0  0  0  0  0
    7.1666   -0.1163   18.9585 C   0  0  0  0  0  0  0  0  0  0  0  0
    8.0854   -0.6896   18.8445 H   0  0  0  0  0  0  0  0  0  0  0  0
    5.2545    1.7627   17.0863 H   0  0  0  0  0  0  0  0  0  0  0  0
    3.9901    1.9806   19.2221 H   0  0  0  0  0  0  0  0  0  0  0  0
    4.8010    0.7596   21.2581 H   0  0  0  0  0  0  0  0  0  0  0  0
    6.9465    0.8432   24.3172 H   0  0  0  0  0  0  0  0  0  0  0  0
    5.9007    1.3992   23.0057 H   0  0  0  0  0  0  0  0  0  0  0  0
    9.3513    1.7790   23.1789 C   0  0  0  0  0  0  0  0  0  0  0  0
    9.6979    1.4308   24.1478 H   0  0  0  0  0  0  0  0  0  0  0  0
    7.3001    2.5115   20.8795 H   0  0  0  0  0  0  0  0  0  0  0  0
  1  2  1  0
  2  3  1  0
  2  4  1  0
  2  5  1  0
  5  6  2  0
  6  7  1  0
  7  8  1  0
  8  9  1  0
  9 10  1  0
 10 11  2  0
 11 12  1  0
 12 13  1  0
 13 14  1  0
 14 15  1  0
 15 16  1  0
 16 17  1  0
 17 18  1  0
 17 19  1  0
 15 20  1  0
 15 21  1  0
 14 22  1  0
 14 23  1  0
 13 24  1  0
 12 25  2  0
 25 26  1  0
 26 27  1  0
 27 28  2  0
 28 29  1  0
 29 30  2  0
 30 31  1  0
 31 32  2  0
 32 33  1  0
 30 34  1  0
 29 35  1  0
 28 36  1  0
  9 37  1  0
  9 38  1  0
  8 39  2  0
 39 40  1  0
  7 41  1  0
 39  5  1  0
 26 10  1  0
 32 27  1  0
 17 13  1  0
M  END
>  <cnnaffinity>  (1) 
-6.26913

>  <filename>  (1) 
FC(F)(F)c1cc(Cc2nc(C3CCOC3)nn2-c2cccnc2)[nH]n1

$$$$
