
     RDKit          3D

 41 44  0  0  0  0  0  0  0  0999 V2000
    3.2776    1.2774   26.9198 F   0  0  0  0  0  0  0  0  0  0  0  0
    4.1663    0.4184   26.4055 C   0  0  0  0  0  0  0  0  0  0  0  0
    3.5059   -0.7212   26.1191 F   0  0  0  0  0  0  0  0  0  0  0  0
    5.0472    0.1072   27.3821 F   0  0  0  0  0  0  0  0  0  0  0  0
    4.8969    0.9753   25.1967 C   0  0  0  0  0  0  0  0  0  0  0  0
    4.4010    1.9585   24.4449 N   0  0  0  0  0  0  0  0  0  0  0  0
    5.3300    2.1592   23.5081 N   0  0  0  0  0  0  0  0  0  0  0  0
    6.4059    1.3404   23.6083 C   0  0  0  0  0  0  0  0  0  0  0  0
    7.5593    1.2754   22.6389 C   0  0  0  0  0  0  0  0  0  0  0  0
    7.7747   -0.1224   22.1315 C   0  0  0  0  0  0  0  0  0  0  0  0
    8.3723   -1.0674   22.8337 N   0  0  0  0  0  0  0  0  0  0  0  0
    8.3559   -2.1353   21.9948 C   0  0  0  0  0  0  0  0  0  0  0  0
    8.8014   -3.5410   22.3326 C   0  0  0  0  0  0  0  0  0  0  0  0
    7.8163   -4.4061   23.1762 C   0  0  0  0  0  0  0  0  0  0  0  0
    8.7595   -5.2893   24.0084 C   0  0  0  0  0  0  0  0  0  0  0  0
    9.9730   -4.3778   24.1850 C   0  0  0  0  0  0  0  0  0  0  0  0
   10.0514   -3.5964   23.0024 O   0  0  0  0  0  0  0  0  0  0  0  0
    9.8539   -3.6973   25.0399 H   0  0  0  0  0  0  0  0  0  0  0  0
   10.9236   -4.9137   24.2881 H   0  0  0  0  0  0  0  0  0  0  0  0
    8.3469   -5.6029   24.9727 H   0  0  0  0  0  0  0  0  0  0  0  0
    9.0283   -6.2047   23.4686 H   0  0  0  0  0  0  0  0  0  0  0  0
    7.1230   -4.9782   22.5500 H   0  0  0  0  0  0  0  0  0  0  0  0
    7.2153   -3.7613   23.8264 H   0  0  0  0  0  0  0  0  0  0  0  0
    8.9009   -3.9756   21.3377 H   0  0  0  0  0  0  0  0  0  0  0  0
    7.7919   -1.8962   20.8221 N   0  0  0  0  0  0  0  0  0  0  0  0
    7.3901   -0.6040   20.9198 N   0  0  0  0  0  0  0  0  0  0  0  0
    6.6474    0.0177   19.8739 C   0  0  0  0  0  0  0  0  0  0  0  0
    5.4196    0.6435   20.1153 C   0  0  0  0  0  0  0  0  0  0  0  0
    4.7973    1.3098   19.0554 C   0  0  0  0  0  0  0  0  0  0  0  0
    5.4124    1.3004   17.7992 C   0  0  0  0  0  0  0  0  0  0  0  0
    6.5587    0.6420   17.5487 N   0  0  0  0  0  0  0  0  0  0  0  0
    7.1524    0.0053   18.5624 C   0  0  0  0  0  0  0  0  0  0  0  0
    8.0817   -0.5174   18.3433 H   0  0  0  0  0  0  0  0  0  0  0  0
    4.9678    1.8376   16.9626 H   0  0  0  0  0  0  0  0  0  0  0  0
    3.8692    1.8522   19.2009 H   0  0  0  0  0  0  0  0  0  0  0  0
    4.9692    0.5913   21.1054 H   0  0  0  0  0  0  0  0  0  0  0  0
    8.4858    1.5296   23.1630 H   0  0  0  0  0  0  0  0  0  0  0  0
    7.4329    1.9893   21.8170 H   0  0  0  0  0  0  0  0  0  0  0  0
    6.1472    0.5456   24.6977 C   0  0  0  0  0  0  0  0  0  0  0  0
    6.7791   -0.2712   25.0138 H   0  0  0  0  0  0  0  0  0  0  0  0
    5.1617    2.8528   22.7979 H   0  0  0  0  0  0  0  0  0  0  0  0
  1  2  1  0
  2  3  1  0
  2  4  1  0
  2  5  1  0
  5  6  2  0
  6  7  1  0
  7  8  1  0
  8  9  1  0
  9 10  1  0
 10 11  2  0
 11 12  1  0
 12 13  1  0
 13 14  1  0
 14 15  1  0
 15 16  1  0
 16 17  1  0
 16 18  1  0
 16 19  1  0
 15 20  1  0
 15 21  1  0
 14 22  1  0
 14 23  1  0
 13 24  1  0
 12 25  2  0
 25 26  1  0
 26 27  1  0
 27 28  2  0
 28 29  1  0
 29 30  2  0
 30 31  1  0
 31 32  2  0
 32 33  1  0
 30 34  1  0
 29 35  1  0
 28 36  1  0
  9 37  1  0
  9 38  1  0
  8 39  2  0
 39 40  1  0
  7 41  1  0
 39  5  1  0
 26 10  1  0
 32 27  1  0
 17 13  1  0
M  END
>  <cnnaffinity>  (1) 
-6.09631

>  <filename>  (1) 
FC(F)(F)c1cc(Cc2nc(C3CCCO3)nn2-c2cccnc2)[nH]n1

$$$$
