
     RDKit          3D

 43 46  0  0  0  0  0  0  0  0999 V2000
   11.6453    3.8749   24.1896 F   0  0  0  0  0  0  0  0  0  0  0  0
   11.7539    2.5382   24.3782 C   0  0  0  0  0  0  0  0  0  0  0  0
   10.7582    2.1632   25.2278 F   0  0  0  0  0  0  0  0  0  0  0  0
   11.6303    1.8403   23.1363 N   0  0  0  0  0  0  0  0  0  0  0  0
   10.5304    1.7570   22.3236 C   0  0  0  0  0  0  0  0  0  0  0  0
   10.7119    0.6859   21.4941 C   0  0  0  0  0  0  0  0  0  0  0  0
    9.6288    0.1289   20.6007 C   0  0  0  0  0  0  0  0  0  0  0  0
    8.5816   -0.6567   21.3262 C   0  0  0  0  0  0  0  0  0  0  0  0
    8.7805   -1.4553   22.3516 N   0  0  0  0  0  0  0  0  0  0  0  0
    7.5513   -1.9772   22.5869 C   0  0  0  0  0  0  0  0  0  0  0  0
    7.3290   -2.9525   23.7070 C   0  0  0  0  0  0  0  0  0  0  0  0
    6.2126   -3.9731   23.4301 C   0  0  0  0  0  0  0  0  0  0  0  0
    6.4879   -5.1558   24.3727 C   0  0  0  0  0  0  0  0  0  0  0  0
    7.9800   -5.0595   24.7792 C   0  0  0  0  0  0  0  0  0  0  0  0
    8.5539   -3.8267   24.0580 C   0  0  0  0  0  0  0  0  0  0  0  0
    9.2778   -3.2789   24.6710 H   0  0  0  0  0  0  0  0  0  0  0  0
    9.0751   -4.1216   23.1402 H   0  0  0  0  0  0  0  0  0  0  0  0
    8.0634   -4.9383   25.8647 H   0  0  0  0  0  0  0  0  0  0  0  0
    8.5374   -5.9678   24.5247 H   0  0  0  0  0  0  0  0  0  0  0  0
    5.8518   -5.0930   25.2617 H   0  0  0  0  0  0  0  0  0  0  0  0
    6.2545   -6.1072   23.8836 H   0  0  0  0  0  0  0  0  0  0  0  0
    6.2820   -4.2946   22.3853 H   0  0  0  0  0  0  0  0  0  0  0  0
    5.2218   -3.5287   23.5667 H   0  0  0  0  0  0  0  0  0  0  0  0
    7.0769   -2.3448   24.5888 H   0  0  0  0  0  0  0  0  0  0  0  0
    6.6062   -1.5540   21.7613 N   0  0  0  0  0  0  0  0  0  0  0  0
    7.2776   -0.7149   20.9326 N   0  0  0  0  0  0  0  0  0  0  0  0
    6.6081   -0.0341   19.8824 C   0  0  0  0  0  0  0  0  0  0  0  0
    5.4044    0.6303   20.1374 C   0  0  0  0  0  0  0  0  0  0  0  0
    4.7919    1.3165   19.0875 C   0  0  0  0  0  0  0  0  0  0  0  0
    5.3931    1.3028   17.8232 C   0  0  0  0  0  0  0  0  0  0  0  0
    6.5377    0.6522   17.5636 N   0  0  0  0  0  0  0  0  0  0  0  0
    7.1303    0.0080   18.5745 C   0  0  0  0  0  0  0  0  0  0  0  0
    8.0767   -0.4791   18.3360 H   0  0  0  0  0  0  0  0  0  0  0  0
    4.9385    1.8312   16.9894 H   0  0  0  0  0  0  0  0  0  0  0  0
    3.8674    1.8624   19.2424 H   0  0  0  0  0  0  0  0  0  0  0  0
    4.9860    0.6035   21.1430 H   0  0  0  0  0  0  0  0  0  0  0  0
   10.0339   -0.5349   19.8306 H   0  0  0  0  0  0  0  0  0  0  0  0
    9.1265    0.9510   20.0818 H   0  0  0  0  0  0  0  0  0  0  0  0
   11.9751    0.1547   21.8871 C   0  0  0  0  0  0  0  0  0  0  0  0
   12.5087    0.8461   22.8736 N   0  0  0  0  0  0  0  0  0  0  0  0
   12.4580   -0.7553   21.5475 H   0  0  0  0  0  0  0  0  0  0  0  0
    9.7012    2.4498   22.4166 H   0  0  0  0  0  0  0  0  0  0  0  0
   12.7154    2.2762   24.8091 H   0  0  0  0  0  0  0  0  0  0  0  0
  1  2  1  0
  2  3  1  0
  2  4  1  0
  4  5  1  0
  5  6  2  0
  6  7  1  0
  7  8  1  0
  8  9  2  0
  9 10  1  0
 10 11  1  0
 11 12  1  0
 12 13  1  0
 13 14  1  0
 14 15  1  0
 15 16  1  0
 15 17  1  0
 14 18  1  0
 14 19  1  0
 13 20  1  0
 13 21  1  0
 12 22  1  0
 12 23  1  0
 11 24  1  0
 10 25  2  0
 25 26  1  0
 26 27  1  0
 27 28  2  0
 28 29  1  0
 29 30  2  0
 30 31  1  0
 31 32  2  0
 32 33  1  0
 30 34  1  0
 29 35  1  0
 28 36  1  0
  7 37  1  0
  7 38  1  0
  6 39  1  0
 39 40  2  0
 39 41  1  0
  5 42  1  0
  2 43  1  0
 40  4  1  0
 26  8  1  0
 32 27  1  0
 15 11  1  0
M  END
>  <cnnaffinity>  (1) 
-6.28311

>  <filename>  (1) 
FC(F)n1cc(Cc2nc(C3CCCC3)nn2-c2cccnc2)cn1

$$$$
