
     RDKit          3D

 22 24  0  0  0  0  0  0  0  0999 V2000
    4.9162    1.7755   17.0019 H   0  0  0  0  0  0  0  0  0  0  0  0
    5.4047    1.2901   17.8426 C   0  0  0  0  0  0  0  0  0  0  0  0
    6.5700    0.6780   17.5777 N   0  0  0  0  0  0  0  0  0  0  0  0
    7.1748    0.0564   18.5902 C   0  0  0  0  0  0  0  0  0  0  0  0
    8.1247   -0.4346   18.3745 H   0  0  0  0  0  0  0  0  0  0  0  0
    6.6467    0.0102   19.8900 C   0  0  0  0  0  0  0  0  0  0  0  0
    7.4023   -0.7005   20.9174 C   0  0  0  0  0  0  0  0  0  0  0  0
    8.3262   -1.6023   20.7001 N   0  0  0  0  0  0  0  0  0  0  0  0
    8.8329   -2.0283   21.9065 N   0  0  0  0  0  0  0  0  0  0  0  0
    8.2056   -1.3371   22.8164 C   0  0  0  0  0  0  0  0  0  0  0  0
    8.3189   -1.0461   24.5281 S   0  0  0  0  0  0  0  0  0  0  0  0
    7.1150    0.2114   24.3016 C   0  0  0  0  0  0  0  0  0  0  0  0
    6.6802    1.0906   25.4402 C   0  0  0  0  0  0  0  0  0  0  0  0
    5.7504    1.6107   25.1949 H   0  0  0  0  0  0  0  0  0  0  0  0
    6.5058    0.3607   26.5687 F   0  0  0  0  0  0  0  0  0  0  0  0
    7.6495    2.0058   25.7062 F   0  0  0  0  0  0  0  0  0  0  0  0
    6.6575    0.3874   23.1094 N   0  0  0  0  0  0  0  0  0  0  0  0
    7.2686   -0.5096   22.2766 N   0  0  0  0  0  0  0  0  0  0  0  0
    5.4326    0.6514   20.1599 C   0  0  0  0  0  0  0  0  0  0  0  0
    5.0064    0.6349   21.1654 H   0  0  0  0  0  0  0  0  0  0  0  0
    4.8043    1.3088   19.1080 C   0  0  0  0  0  0  0  0  0  0  0  0
    3.8737    1.8439   19.2617 H   0  0  0  0  0  0  0  0  0  0  0  0
  1  2  1  0
  2  3  2  0
  3  4  1  0
  4  5  1  0
  4  6  2  0
  6  7  1  0
  7  8  2  0
  8  9  1  0
  9 10  2  0
 10 11  1  0
 11 12  1  0
 12 13  1  0
 13 14  1  0
 13 15  1  0
 13 16  1  0
 12 17  2  0
 17 18  1  0
  6 19  1  0
 19 20  1  0
 19 21  2  0
 21 22  1  0
 21  2  1  0
 18  7  1  0
 18 10  1  0
M  END
>  <cnnaffinity>  (1) 
-4.6684

>  <filename>  (1) 
FC(F)c1nn2c(-c3cccnc3)nnc2s1

$$$$
