
     RDKit          3D

 46 49  0  0  0  0  0  0  0  0999 V2000
    2.9247    2.3684   26.4205 F   0  0  0  0  0  0  0  0  0  0  0  0
    3.1911    2.6659   25.1456 C   0  0  0  0  0  0  0  0  0  0  0  0
    3.2434    4.0134   25.0425 F   0  0  0  0  0  0  0  0  0  0  0  0
    2.1335    2.2558   24.4151 F   0  0  0  0  0  0  0  0  0  0  0  0
    4.4825    2.0511   24.6444 C   0  0  0  0  0  0  0  0  0  0  0  0
    5.0321    0.9906   25.2342 N   0  0  0  0  0  0  0  0  0  0  0  0
    6.1251    0.7399   24.5165 N   0  0  0  0  0  0  0  0  0  0  0  0
    6.3128    1.5971   23.4788 C   0  0  0  0  0  0  0  0  0  0  0  0
    7.5494    1.5195   22.6194 C   0  0  0  0  0  0  0  0  0  0  0  0
    7.8049    0.1764   22.0189 C   0  0  0  0  0  0  0  0  0  0  0  0
    8.4767   -0.7829   22.6346 N   0  0  0  0  0  0  0  0  0  0  0  0
    8.3893   -1.8285   21.7694 C   0  0  0  0  0  0  0  0  0  0  0  0
    8.8100   -3.2327   22.0737 C   0  0  0  0  0  0  0  0  0  0  0  0
    7.7587   -3.9920   22.9216 C   0  0  0  0  0  0  0  0  0  0  0  0
    7.2927   -3.2441   24.1826 C   0  0  0  0  0  0  0  0  0  0  0  0
    6.6175   -4.3065   25.0719 C   0  0  0  0  0  0  0  0  0  0  0  0
    7.1384   -5.6758   24.5600 C   0  0  0  0  0  0  0  0  0  0  0  0
    8.2068   -5.3410   23.4949 C   0  0  0  0  0  0  0  0  0  0  0  0
    8.2874   -6.1250   22.7330 H   0  0  0  0  0  0  0  0  0  0  0  0
    9.1982   -5.2250   23.9602 H   0  0  0  0  0  0  0  0  0  0  0  0
    7.5534   -6.2824   25.3763 H   0  0  0  0  0  0  0  0  0  0  0  0
    6.3128   -6.2378   24.0974 H   0  0  0  0  0  0  0  0  0  0  0  0
    6.8618   -4.1481   26.1281 H   0  0  0  0  0  0  0  0  0  0  0  0
    5.5247   -4.2498   24.9983 H   0  0  0  0  0  0  0  0  0  0  0  0
    8.1741   -2.8313   24.6947 H   0  0  0  0  0  0  0  0  0  0  0  0
    6.6413   -2.3981   23.9332 H   0  0  0  0  0  0  0  0  0  0  0  0
    6.8763   -4.1781   22.2866 H   0  0  0  0  0  0  0  0  0  0  0  0
    9.7782   -3.2190   22.5878 H   0  0  0  0  0  0  0  0  0  0  0  0
    8.9167   -3.7132   21.0985 H   0  0  0  0  0  0  0  0  0  0  0  0
    7.7602   -1.5573   20.6469 N   0  0  0  0  0  0  0  0  0  0  0  0
    7.3590   -0.2685   20.8096 N   0  0  0  0  0  0  0  0  0  0  0  0
    6.5970    0.3437   19.7808 C   0  0  0  0  0  0  0  0  0  0  0  0
    5.4017    1.0355   20.0141 C   0  0  0  0  0  0  0  0  0  0  0  0
    4.7329    1.5653   18.9017 C   0  0  0  0  0  0  0  0  0  0  0  0
    5.2888    1.4054   17.6310 C   0  0  0  0  0  0  0  0  0  0  0  0
    6.4215    0.7196   17.4028 N   0  0  0  0  0  0  0  0  0  0  0  0
    7.0438    0.1899   18.4557 C   0  0  0  0  0  0  0  0  0  0  0  0
    7.9518   -0.3758   18.2633 H   0  0  0  0  0  0  0  0  0  0  0  0
    4.8157    1.8384   16.7525 H   0  0  0  0  0  0  0  0  0  0  0  0
    3.7969    2.1032   19.0120 H   0  0  0  0  0  0  0  0  0  0  0  0
    5.0074    1.1522   21.0260 H   0  0  0  0  0  0  0  0  0  0  0  0
    7.5244    2.2834   21.8405 H   0  0  0  0  0  0  0  0  0  0  0  0
    8.4200    1.7354   23.2467 H   0  0  0  0  0  0  0  0  0  0  0  0
    5.2405    2.4586   23.5164 C   0  0  0  0  0  0  0  0  0  0  0  0
    5.0475    3.2886   22.8508 H   0  0  0  0  0  0  0  0  0  0  0  0
    6.7137   -0.0548   24.7309 H   0  0  0  0  0  0  0  0  0  0  0  0
  1  2  1  0
  2  3  1  0
  2  4  1  0
  2  5  1  0
  5  6  2  0
  6  7  1  0
  7  8  1  0
  8  9  1  0
  9 10  1  0
 10 11  2  0
 11 12  1  0
 12 13  1  0
 13 14  1  0
 14 15  1  0
 15 16  1  0
 16 17  1  0
 17 18  1  0
 18 19  1  0
 18 20  1  0
 17 21  1  0
 17 22  1  0
 16 23  1  0
 16 24  1  0
 15 25  1  0
 15 26  1  0
 14 27  1  0
 13 28  1  0
 13 29  1  0
 12 30  2  0
 30 31  1  0
 31 32  1  0
 32 33  2  0
 33 34  1  0
 34 35  2  0
 35 36  1  0
 36 37  2  0
 37 38  1  0
 35 39  1  0
 34 40  1  0
 33 41  1  0
  9 42  1  0
  9 43  1  0
  8 44  2  0
 44 45  1  0
  7 46  1  0
 44  5  1  0
 31 10  1  0
 37 32  1  0
 18 14  1  0
M  END
>  <cnnaffinity>  (1) 
-6.16763

>  <filename>  (1) 
FC(F)(F)c1cc(Cc2nc(CC3CCCC3)nn2-c2cccnc2)[nH]n1

$$$$
