
     RDKit          3D

 37 41  0  0  0  0  0  0  0  0999 V2000
    6.8948    5.1810   24.9658 F   0  0  0  0  0  0  0  0  0  0  0  0
    7.6257    4.0825   25.1540 C   0  0  0  0  0  0  0  0  0  0  0  0
    7.2640    3.5388   26.3344 F   0  0  0  0  0  0  0  0  0  0  0  0
    8.9107    4.4586   25.2744 F   0  0  0  0  0  0  0  0  0  0  0  0
    7.4605    3.0475   24.0471 C   0  0  0  0  0  0  0  0  0  0  0  0
    7.1409    3.4059   22.8277 N   0  0  0  0  0  0  0  0  0  0  0  0
    7.1175    2.2578   22.0902 O   0  0  0  0  0  0  0  0  0  0  0  0
    7.4276    1.2048   22.8782 C   0  0  0  0  0  0  0  0  0  0  0  0
    7.4936   -0.1429   22.3438 C   0  0  0  0  0  0  0  0  0  0  0  0
    8.0580   -1.1486   22.9997 N   0  0  0  0  0  0  0  0  0  0  0  0
    8.0034   -2.1638   22.1117 C   0  0  0  0  0  0  0  0  0  0  0  0
    8.7638   -3.4346   22.2569 C   0  0  0  0  0  0  0  0  0  0  0  0
    8.1643   -4.7755   21.9556 C   0  0  0  0  0  0  0  0  0  0  0  0
    8.7420   -4.5029   23.3657 C   0  0  0  0  0  0  0  0  0  0  0  0
    9.6737   -4.3773   24.5597 C   0  0  0  0  0  0  0  0  0  0  0  0
    8.7045   -5.5241   24.4974 C   0  0  0  0  0  0  0  0  0  0  0  0
    9.1214   -6.5085   24.2658 H   0  0  0  0  0  0  0  0  0  0  0  0
    7.8377   -5.5385   25.1562 H   0  0  0  0  0  0  0  0  0  0  0  0
    9.4179   -3.5507   25.2308 H   0  0  0  0  0  0  0  0  0  0  0  0
   10.7463   -4.5597   24.4341 H   0  0  0  0  0  0  0  0  0  0  0  0
    8.6357   -5.5218   21.3078 H   0  0  0  0  0  0  0  0  0  0  0  0
    7.0754   -4.8469   21.9071 H   0  0  0  0  0  0  0  0  0  0  0  0
    9.7921   -3.2201   21.9526 H   0  0  0  0  0  0  0  0  0  0  0  0
    7.4462   -1.8626   20.9540 N   0  0  0  0  0  0  0  0  0  0  0  0
    7.0777   -0.5691   21.1118 N   0  0  0  0  0  0  0  0  0  0  0  0
    6.4858    0.1148   20.0139 C   0  0  0  0  0  0  0  0  0  0  0  0
    5.3251    0.8866   20.1292 C   0  0  0  0  0  0  0  0  0  0  0  0
    4.8082    1.4625   18.9618 C   0  0  0  0  0  0  0  0  0  0  0  0
    5.4649    1.2636   17.7472 C   0  0  0  0  0  0  0  0  0  0  0  0
    6.5696    0.5072   17.6322 N   0  0  0  0  0  0  0  0  0  0  0  0
    7.0552   -0.0588   18.7375 C   0  0  0  0  0  0  0  0  0  0  0  0
    7.9433   -0.6743   18.6124 H   0  0  0  0  0  0  0  0  0  0  0  0
    5.0875    1.7156   16.8298 H   0  0  0  0  0  0  0  0  0  0  0  0
    3.9132    2.0740   18.9916 H   0  0  0  0  0  0  0  0  0  0  0  0
    4.8437    1.0501   21.0914 H   0  0  0  0  0  0  0  0  0  0  0  0
    7.6653    1.6445   24.1419 C   0  0  0  0  0  0  0  0  0  0  0  0
    7.9356    1.0219   24.9845 H   0  0  0  0  0  0  0  0  0  0  0  0
  1  2  1  0
  2  3  1  0
  2  4  1  0
  2  5  1  0
  5  6  2  0
  6  7  1  0
  7  8  1  0
  8  9  1  0
  9 10  2  0
 10 11  1  0
 11 12  1  0
 12 13  1  0
 13 14  1  0
 14 15  1  0
 15 16  1  0
 16 17  1  0
 16 18  1  0
 15 19  1  0
 15 20  1  0
 13 21  1  0
 13 22  1  0
 12 23  1  0
 11 24  2  0
 24 25  1  0
 25 26  1  0
 26 27  2  0
 27 28  1  0
 28 29  2  0
 29 30  1  0
 30 31  2  0
 31 32  1  0
 29 33  1  0
 28 34  1  0
 27 35  1  0
  8 36  2  0
 36 37  1  0
 36  5  1  0
 25  9  1  0
 31 26  1  0
 14 12  1  0
 16 14  1  0
M  END
>  <cnnaffinity>  (1) 
-6.03366

>  <filename>  (1) 
FC(F)(F)c1cc(-c2nc(C3CC34CC4)nn2-c2cccnc2)on1

$$$$
