
     RDKit          3D

 32 35  0  0  0  0  0  0  0  0999 V2000
    4.9156    1.7752   17.0026 H   0  0  0  0  0  0  0  0  0  0  0  0
    5.4043    1.2899   17.8434 C   0  0  0  0  0  0  0  0  0  0  0  0
    6.5701    0.6782   17.5784 N   0  0  0  0  0  0  0  0  0  0  0  0
    7.1755    0.0568   18.5913 C   0  0  0  0  0  0  0  0  0  0  0  0
    8.1252   -0.4349   18.3746 H   0  0  0  0  0  0  0  0  0  0  0  0
    6.6484    0.0110   19.8920 C   0  0  0  0  0  0  0  0  0  0  0  0
    7.4024   -0.7042   20.9165 C   0  0  0  0  0  0  0  0  0  0  0  0
    8.3346   -1.5984   20.6963 N   0  0  0  0  0  0  0  0  0  0  0  0
    8.8299   -2.0394   21.9030 N   0  0  0  0  0  0  0  0  0  0  0  0
    8.1857   -1.3703   22.8168 C   0  0  0  0  0  0  0  0  0  0  0  0
    8.2351   -1.1348   24.5354 S   0  0  0  0  0  0  0  0  0  0  0  0
    6.9979    0.1282   24.3284 C   0  0  0  0  0  0  0  0  0  0  0  0
    6.4843    0.8976   25.4822 C   0  0  0  0  0  0  0  0  0  0  0  0
    5.5096    1.8933   25.2717 C   0  0  0  0  0  0  0  0  0  0  0  0
    5.1517    2.0883   24.2670 H   0  0  0  0  0  0  0  0  0  0  0  0
    5.0062    2.6292   26.3376 C   0  0  0  0  0  0  0  0  0  0  0  0
    4.2635    3.3981   26.1458 H   0  0  0  0  0  0  0  0  0  0  0  0
    5.4594    2.3781   27.6417 C   0  0  0  0  0  0  0  0  0  0  0  0
    4.9454    3.2118   28.7915 C   0  0  0  0  0  0  0  0  0  0  0  0
    4.9582    2.5466   29.9618 F   0  0  0  0  0  0  0  0  0  0  0  0
    5.6960    4.3168   28.9703 F   0  0  0  0  0  0  0  0  0  0  0  0
    3.6811    3.6347   28.5998 F   0  0  0  0  0  0  0  0  0  0  0  0
    6.4468    1.4047   27.8617 C   0  0  0  0  0  0  0  0  0  0  0  0
    6.8262    1.2195   28.8633 H   0  0  0  0  0  0  0  0  0  0  0  0
    6.9506    0.6681   26.7944 C   0  0  0  0  0  0  0  0  0  0  0  0
    7.7095   -0.0819   27.0012 H   0  0  0  0  0  0  0  0  0  0  0  0
    6.5986    0.3244   23.1083 N   0  0  0  0  0  0  0  0  0  0  0  0
    7.2601   -0.5341   22.2786 N   0  0  0  0  0  0  0  0  0  0  0  0
    5.4336    0.6524   20.1615 C   0  0  0  0  0  0  0  0  0  0  0  0
    5.0090    0.6342   21.1676 H   0  0  0  0  0  0  0  0  0  0  0  0
    4.8050    1.3087   19.1092 C   0  0  0  0  0  0  0  0  0  0  0  0
    3.8742    1.8435   19.2621 H   0  0  0  0  0  0  0  0  0  0  0  0
  1  2  1  0
  2  3  2  0
  3  4  1  0
  4  5  1  0
  4  6  2  0
  6  7  1  0
  7  8  2  0
  8  9  1  0
  9 10  2  0
 10 11  1  0
 11 12  1  0
 12 13  1  0
 13 14  2  0
 14 15  1  0
 14 16  1  0
 16 17  1  0
 16 18  2  0
 18 19  1  0
 19 20  1  0
 19 21  1  0
 19 22  1  0
 18 23  1  0
 23 24  1  0
 23 25  2  0
 25 26  1  0
 12 27  2  0
 27 28  1  0
  6 29  1  0
 29 30  1  0
 29 31  2  0
 31 32  1  0
 31  2  1  0
 28  7  1  0
 28 10  1  0
 25 13  1  0
M  END
>  <cnnaffinity>  (1) 
-5.36672

>  <filename>  (1) 
FC(F)(F)c1ccc(-c2nn3c(-c4cccnc4)nnc3s2)cc1

$$$$
