
     RDKit          3D

 43 46  0  0  0  0  0  0  0  0999 V2000
    7.8176    0.5156   28.4819 F   0  0  0  0  0  0  0  0  0  0  0  0
    8.1287   -0.1489   27.3435 C   0  0  0  0  0  0  0  0  0  0  0  0
    7.8585   -1.4609   27.5166 F   0  0  0  0  0  0  0  0  0  0  0  0
    7.4067    0.3857   26.2166 N   0  0  0  0  0  0  0  0  0  0  0  0
    7.9980    1.1043   25.2172 C   0  0  0  0  0  0  0  0  0  0  0  0
    7.0701    1.3098   24.2321 C   0  0  0  0  0  0  0  0  0  0  0  0
    7.4304    1.8802   22.8701 C   0  0  0  0  0  0  0  0  0  0  0  0
    8.4544    1.0075   22.1963 C   0  0  0  0  0  0  0  0  0  0  0  0
    9.7682    1.1159   22.3186 N   0  0  0  0  0  0  0  0  0  0  0  0
   10.2213   -0.0773   21.8592 C   0  0  0  0  0  0  0  0  0  0  0  0
   11.6305   -0.4966   21.7706 C   0  0  0  0  0  0  0  0  0  0  0  0
   12.7181    0.2562   22.2587 C   0  0  0  0  0  0  0  0  0  0  0  0
   14.0263   -0.1595   21.9730 C   0  0  0  0  0  0  0  0  0  0  0  0
   14.2310   -1.2724   21.1452 C   0  0  0  0  0  0  0  0  0  0  0  0
   13.1614   -2.0227   20.6834 C   0  0  0  0  0  0  0  0  0  0  0  0
   11.8733   -1.6869   21.0675 C   0  0  0  0  0  0  0  0  0  0  0  0
   11.0170   -2.2880   20.7772 H   0  0  0  0  0  0  0  0  0  0  0  0
   13.3485   -2.8454   19.9987 H   0  0  0  0  0  0  0  0  0  0  0  0
   15.1904   -1.5748   20.7673 H   0  0  0  0  0  0  0  0  0  0  0  0
   14.8725    0.4205   22.3313 H   0  0  0  0  0  0  0  0  0  0  0  0
   12.5414    1.1716   22.8199 H   0  0  0  0  0  0  0  0  0  0  0  0
    9.2566   -0.8810   21.4265 N   0  0  0  0  0  0  0  0  0  0  0  0
    8.1330   -0.1864   21.6571 N   0  0  0  0  0  0  0  0  0  0  0  0
    6.8633   -0.7019   21.1580 C   0  0  0  0  0  0  0  0  0  0  0  0
    6.3248    0.0659   19.9706 C   0  0  0  0  0  0  0  0  0  0  0  0
    5.1099    0.7548   20.0155 C   0  0  0  0  0  0  0  0  0  0  0  0
    4.6835    1.4388   18.8742 C   0  0  0  0  0  0  0  0  0  0  0  0
    5.4917    1.4067   17.7341 C   0  0  0  0  0  0  0  0  0  0  0  0
    6.6655    0.7586   17.6722 N   0  0  0  0  0  0  0  0  0  0  0  0
    7.0651    0.1167   18.7764 C   0  0  0  0  0  0  0  0  0  0  0  0
    8.0276   -0.3908   18.7130 H   0  0  0  0  0  0  0  0  0  0  0  0
    5.1900    1.9302   16.8298 H   0  0  0  0  0  0  0  0  0  0  0  0
    3.7538    1.9970   18.8619 H   0  0  0  0  0  0  0  0  0  0  0  0
    4.5149    0.7643   20.9317 H   0  0  0  0  0  0  0  0  0  0  0  0
    6.1455   -0.7078   21.9814 H   0  0  0  0  0  0  0  0  0  0  0  0
    7.0606   -1.7472   20.8987 H   0  0  0  0  0  0  0  0  0  0  0  0
    6.5521    1.9895   22.2267 H   0  0  0  0  0  0  0  0  0  0  0  0
    7.8800    2.8728   22.9642 H   0  0  0  0  0  0  0  0  0  0  0  0
    5.8982    0.6847   24.7426 C   0  0  0  0  0  0  0  0  0  0  0  0
    6.1054    0.1344   25.9232 N   0  0  0  0  0  0  0  0  0  0  0  0
    4.9109    0.6060   24.2919 H   0  0  0  0  0  0  0  0  0  0  0  0
    9.0484    1.3828   25.2300 H   0  0  0  0  0  0  0  0  0  0  0  0
    9.1969   -0.0337   27.1557 H   0  0  0  0  0  0  0  0  0  0  0  0
  1  2  1  0
  2  3  1  0
  2  4  1  0
  4  5  1  0
  5  6  2  0
  6  7  1  0
  7  8  1  0
  8  9  2  0
  9 10  1  0
 10 11  1  0
 11 12  2  0
 12 13  1  0
 13 14  2  0
 14 15  1  0
 15 16  2  0
 16 17  1  0
 15 18  1  0
 14 19  1  0
 13 20  1  0
 12 21  1  0
 10 22  2  0
 22 23  1  0
 23 24  1  0
 24 25  1  0
 25 26  2  0
 26 27  1  0
 27 28  2  0
 28 29  1  0
 29 30  2  0
 30 31  1  0
 28 32  1  0
 27 33  1  0
 26 34  1  0
 24 35  1  0
 24 36  1  0
  7 37  1  0
  7 38  1  0
  6 39  1  0
 39 40  2  0
 39 41  1  0
  5 42  1  0
  2 43  1  0
 40  4  1  0
 23  8  1  0
 30 25  1  0
 16 11  1  0
M  END
>  <cnnaffinity>  (1) 
-6.56129

>  <filename>  (1) 
FC(F)n1cc(Cc2nc(-c3ccccc3)nn2Cc2cccnc2)cn1

$$$$
