
     RDKit          3D

 38 41  0  0  0  0  0  0  0  0999 V2000
    5.0704    1.7923   16.8416 H   0  0  0  0  0  0  0  0  0  0  0  0
    5.5248    1.3198   17.7101 C   0  0  0  0  0  0  0  0  0  0  0  0
    6.6948    0.6997   17.4990 N   0  0  0  0  0  0  0  0  0  0  0  0
    7.2785    0.1135   18.5498 C   0  0  0  0  0  0  0  0  0  0  0  0
    8.2337   -0.3671   18.3506 H   0  0  0  0  0  0  0  0  0  0  0  0
    6.7208    0.0899   19.8462 C   0  0  0  0  0  0  0  0  0  0  0  0
    7.3724   -0.6803   20.9239 C   0  0  0  0  0  0  0  0  0  0  0  0
    8.5789   -1.2292   20.7150 N   0  0  0  0  0  0  0  0  0  0  0  0
    8.7990   -1.9069   21.8572 N   0  0  0  0  0  0  0  0  0  0  0  0
    9.8496   -2.6530   22.3642 C   0  0  0  0  0  0  0  0  0  0  0  0
   10.7673   -2.7316   21.8172 H   0  0  0  0  0  0  0  0  0  0  0  0
    9.4179   -3.1297   23.5620 C   0  0  0  0  0  0  0  0  0  0  0  0
    9.9144   -3.7391   24.3040 H   0  0  0  0  0  0  0  0  0  0  0  0
    8.1231   -2.6781   23.7957 N   0  0  0  0  0  0  0  0  0  0  0  0
    7.2124   -3.1796   24.8157 C   0  0  0  0  0  0  0  0  0  0  0  0
    7.8104   -3.6936   25.5754 H   0  0  0  0  0  0  0  0  0  0  0  0
    6.7563   -2.3123   25.3084 H   0  0  0  0  0  0  0  0  0  0  0  0
    6.1199   -4.1268   24.3150 C   0  0  0  0  0  0  0  0  0  0  0  0
    6.3885   -5.4464   23.9050 C   0  0  0  0  0  0  0  0  0  0  0  0
    7.4024   -5.8383   23.9817 H   0  0  0  0  0  0  0  0  0  0  0  0
    5.3556   -6.2886   23.4719 C   0  0  0  0  0  0  0  0  0  0  0  0
    5.5902   -7.3035   23.1526 H   0  0  0  0  0  0  0  0  0  0  0  0
    4.0178   -5.8414   23.4901 C   0  0  0  0  0  0  0  0  0  0  0  0
    2.8826   -6.7514   23.0511 C   0  0  0  0  0  0  0  0  0  0  0  0
    3.0305   -7.1583   21.7774 F   0  0  0  0  0  0  0  0  0  0  0  0
    2.8194   -7.8653   23.8073 F   0  0  0  0  0  0  0  0  0  0  0  0
    1.6682   -6.1668   23.1265 F   0  0  0  0  0  0  0  0  0  0  0  0
    3.7469   -4.5383   23.9297 C   0  0  0  0  0  0  0  0  0  0  0  0
    2.7182   -4.1916   23.9993 H   0  0  0  0  0  0  0  0  0  0  0  0
    4.7891   -3.6912   24.3052 C   0  0  0  0  0  0  0  0  0  0  0  0
    4.5529   -2.6782   24.6191 H   0  0  0  0  0  0  0  0  0  0  0  0
    7.7780   -1.8631   22.7375 C   0  0  0  0  0  0  0  0  0  0  0  0
    6.8357   -0.9974   22.2002 C   0  0  0  0  0  0  0  0  0  0  0  0
    5.9789   -0.5758   22.6852 H   0  0  0  0  0  0  0  0  0  0  0  0
    5.5011    0.7573   20.0489 C   0  0  0  0  0  0  0  0  0  0  0  0
    5.0283    0.7870   21.0346 H   0  0  0  0  0  0  0  0  0  0  0  0
    4.8961    1.3792   18.9589 C   0  0  0  0  0  0  0  0  0  0  0  0
    3.9575    1.9114   19.0638 H   0  0  0  0  0  0  0  0  0  0  0  0
  1  2  1  0
  2  3  2  0
  3  4  1  0
  4  5  1  0
  4  6  2  0
  6  7  1  0
  7  8  2  0
  8  9  1  0
  9 10  1  0
 10 11  1  0
 10 12  2  0
 12 13  1  0
 12 14  1  0
 14 15  1  0
 15 16  1  0
 15 17  1  0
 15 18  1  0
 18 19  2  0
 19 20  1  0
 19 21  1  0
 21 22  1  0
 21 23  2  0
 23 24  1  0
 24 25  1  0
 24 26  1  0
 24 27  1  0
 23 28  1  0
 28 29  1  0
 28 30  2  0
 30 31  1  0
 14 32  1  0
 32 33  2  0
 33 34  1  0
  6 35  1  0
 35 36  1  0
 35 37  2  0
 37 38  1  0
 37  2  1  0
 33  7  1  0
 32  9  1  0
 30 18  1  0
M  END
>  <cnnaffinity>  (1) 
-5.94122

>  <filename>  (1) 
FC(F)(F)c1ccc(Cn2ccn3nc(-c4cccnc4)cc23)cc1

$$$$
