
     RDKit          3D

 32 35  0  0  0  0  0  0  0  0999 V2000
    4.9505    1.7940   17.0049 H   0  0  0  0  0  0  0  0  0  0  0  0
    5.4137    1.2860   17.8489 C   0  0  0  0  0  0  0  0  0  0  0  0
    6.5751    0.6582   17.6027 N   0  0  0  0  0  0  0  0  0  0  0  0
    7.1755    0.0399   18.6250 C   0  0  0  0  0  0  0  0  0  0  0  0
    8.1251   -0.4460   18.3930 H   0  0  0  0  0  0  0  0  0  0  0  0
    6.6504    0.0007   19.9279 C   0  0  0  0  0  0  0  0  0  0  0  0
    7.3553   -0.6951   21.0172 C   0  0  0  0  0  0  0  0  0  0  0  0
    6.8770   -0.7521   22.2202 N   0  0  0  0  0  0  0  0  0  0  0  0
    7.7192   -1.4557   23.0065 N   0  0  0  0  0  0  0  0  0  0  0  0
    7.7362   -1.8398   24.3461 C   0  0  0  0  0  0  0  0  0  0  0  0
    6.7400   -1.5114   25.3680 C   0  0  0  0  0  0  0  0  0  0  0  0
    5.7120   -0.7300   25.0164 N   0  0  0  0  0  0  0  0  0  0  0  0
    4.7953   -0.3875   25.9212 C   0  0  0  0  0  0  0  0  0  0  0  0
    3.6777    0.5835   25.4794 C   0  0  0  0  0  0  0  0  0  0  0  0
    3.3635    1.4275   26.4867 F   0  0  0  0  0  0  0  0  0  0  0  0
    2.5442   -0.0735   25.1719 F   0  0  0  0  0  0  0  0  0  0  0  0
    4.0011    1.3423   24.4217 F   0  0  0  0  0  0  0  0  0  0  0  0
    4.8162   -0.8580   27.2410 C   0  0  0  0  0  0  0  0  0  0  0  0
    4.0246   -0.6235   27.9447 H   0  0  0  0  0  0  0  0  0  0  0  0
    5.8907   -1.6533   27.6294 C   0  0  0  0  0  0  0  0  0  0  0  0
    5.9341   -1.9852   28.6620 H   0  0  0  0  0  0  0  0  0  0  0  0
    6.8735   -1.9804   26.6964 C   0  0  0  0  0  0  0  0  0  0  0  0
    7.7325   -2.5609   26.9998 H   0  0  0  0  0  0  0  0  0  0  0  0
    8.9042   -2.5487   24.4521 C   0  0  0  0  0  0  0  0  0  0  0  0
    9.3183   -3.0268   25.3346 H   0  0  0  0  0  0  0  0  0  0  0  0
    9.5934   -2.6269   23.2758 N   0  0  0  0  0  0  0  0  0  0  0  0
    8.8518   -1.9550   22.4354 C   0  0  0  0  0  0  0  0  0  0  0  0
    8.9104   -1.5111   20.7671 S   0  0  0  0  0  0  0  0  0  0  0  0
    5.4279    0.6551   20.1652 C   0  0  0  0  0  0  0  0  0  0  0  0
    5.0030    0.6435   21.1698 H   0  0  0  0  0  0  0  0  0  0  0  0
    4.8014    1.3079   19.1058 C   0  0  0  0  0  0  0  0  0  0  0  0
    3.8669    1.8434   19.2406 H   0  0  0  0  0  0  0  0  0  0  0  0
  1  2  1  0
  2  3  2  0
  3  4  1  0
  4  5  1  0
  4  6  2  0
  6  7  1  0
  7  8  2  0
  8  9  1  0
  9 10  1  0
 10 11  1  0
 11 12  2  0
 12 13  1  0
 13 14  1  0
 14 15  1  0
 14 16  1  0
 14 17  1  0
 13 18  2  0
 18 19  1  0
 18 20  1  0
 20 21  1  0
 20 22  2  0
 22 23  1  0
 10 24  2  0
 24 25  1  0
 24 26  1  0
 26 27  2  0
 27 28  1  0
  6 29  1  0
 29 30  1  0
 29 31  2  0
 31 32  1  0
 31  2  1  0
 28  7  1  0
 27  9  1  0
 22 11  1  0
M  END
>  <cnnaffinity>  (1) 
-5.35545

>  <filename>  (1) 
FC(F)(F)c1cccc(-c2cnc3sc(-c4cccnc4)nn23)n1

$$$$
