
     RDKit          3D

 28 30  0  0  0  0  0  0  0  0999 V2000
    4.9254    1.7896   16.9908 H   0  0  0  0  0  0  0  0  0  0  0  0
    5.4016    1.2924   17.8309 C   0  0  0  0  0  0  0  0  0  0  0  0
    6.5633    0.6780   17.5632 N   0  0  0  0  0  0  0  0  0  0  0  0
    7.1724    0.0505   18.5759 C   0  0  0  0  0  0  0  0  0  0  0  0
    8.1237   -0.4285   18.3496 H   0  0  0  0  0  0  0  0  0  0  0  0
    6.6488   -0.0070   19.8817 C   0  0  0  0  0  0  0  0  0  0  0  0
    7.3707   -0.7068   20.9511 C   0  0  0  0  0  0  0  0  0  0  0  0
    8.4586   -1.4463   20.6952 N   0  0  0  0  0  0  0  0  0  0  0  0
    8.8717   -1.8098   21.9338 N   0  0  0  0  0  0  0  0  0  0  0  0
   10.0714   -2.2630   22.4866 C   0  0  0  0  0  0  0  0  0  0  0  0
   10.8599   -2.6065   21.8440 H   0  0  0  0  0  0  0  0  0  0  0  0
    9.9566   -2.0936   23.8262 C   0  0  0  0  0  0  0  0  0  0  0  0
   10.6851   -2.2146   24.6153 H   0  0  0  0  0  0  0  0  0  0  0  0
    8.6808   -1.5983   24.1217 N   0  0  0  0  0  0  0  0  0  0  0  0
    8.2800   -0.9056   25.3217 C   0  0  0  0  0  0  0  0  0  0  0  0
    8.5900   -1.4643   26.2081 H   0  0  0  0  0  0  0  0  0  0  0  0
    7.1893   -0.8209   25.3326 H   0  0  0  0  0  0  0  0  0  0  0  0
    8.8242    0.5203   25.4457 C   0  0  0  0  0  0  0  0  0  0  0  0
    8.4220    1.3064   24.4310 F   0  0  0  0  0  0  0  0  0  0  0  0
   10.1677    0.5412   25.4948 F   0  0  0  0  0  0  0  0  0  0  0  0
    8.3616    1.0631   26.5864 F   0  0  0  0  0  0  0  0  0  0  0  0
    8.0674   -1.3505   22.9163 C   0  0  0  0  0  0  0  0  0  0  0  0
    7.0642   -0.6080   22.3311 C   0  0  0  0  0  0  0  0  0  0  0  0
    6.3409    0.0208   22.8162 H   0  0  0  0  0  0  0  0  0  0  0  0
    5.4358    0.6477   20.1428 C   0  0  0  0  0  0  0  0  0  0  0  0
    5.0003    0.6373   21.1451 H   0  0  0  0  0  0  0  0  0  0  0  0
    4.8050    1.3096   19.0956 C   0  0  0  0  0  0  0  0  0  0  0  0
    3.8774    1.8406   19.2524 H   0  0  0  0  0  0  0  0  0  0  0  0
  1  2  1  0
  2  3  2  0
  3  4  1  0
  4  5  1  0
  4  6  2  0
  6  7  1  0
  7  8  2  0
  8  9  1  0
  9 10  1  0
 10 11  1  0
 10 12  2  0
 12 13  1  0
 12 14  1  0
 14 15  1  0
 15 16  1  0
 15 17  1  0
 15 18  1  0
 18 19  1  0
 18 20  1  0
 18 21  1  0
 14 22  1  0
 22 23  2  0
 23 24  1  0
  6 25  1  0
 25 26  1  0
 25 27  2  0
 27 28  1  0
 27  2  1  0
 23  7  1  0
 22  9  1  0
M  END
>  <cnnaffinity>  (1) 
-5.26066

>  <filename>  (1) 
FC(F)(F)Cn1ccn2nc(-c3cccnc3)cc12

$$$$
