
     RDKit          3D

 33 35  0  0  0  0  0  0  0  0999 V2000
    4.9194    1.7959   16.9773 H   0  0  0  0  0  0  0  0  0  0  0  0
    5.3918    1.3012   17.8219 C   0  0  0  0  0  0  0  0  0  0  0  0
    6.5553    0.6832   17.5585 N   0  0  0  0  0  0  0  0  0  0  0  0
    7.1580    0.0722   18.5869 C   0  0  0  0  0  0  0  0  0  0  0  0
    8.1001   -0.4192   18.3566 H   0  0  0  0  0  0  0  0  0  0  0  0
    6.6560    0.0107   19.9030 C   0  0  0  0  0  0  0  0  0  0  0  0
    7.3880   -0.7068   20.9644 C   0  0  0  0  0  0  0  0  0  0  0  0
    8.7890   -1.0161   21.0239 C   0  0  0  0  0  0  0  0  0  0  0  0
    9.5102   -0.7205   20.2729 H   0  0  0  0  0  0  0  0  0  0  0  0
    9.0282   -1.6821   22.1928 C   0  0  0  0  0  0  0  0  0  0  0  0
    9.9375   -2.0618   22.6423 H   0  0  0  0  0  0  0  0  0  0  0  0
    7.8272   -1.8144   22.8835 N   0  0  0  0  0  0  0  0  0  0  0  0
    7.6288   -2.4514   24.1461 C   0  0  0  0  0  0  0  0  0  0  0  0
    6.6023   -2.0361   25.0118 C   0  0  0  0  0  0  0  0  0  0  0  0
    5.9426   -1.2181   24.7358 H   0  0  0  0  0  0  0  0  0  0  0  0
    6.4421   -2.6719   26.2472 C   0  0  0  0  0  0  0  0  0  0  0  0
    5.6474   -2.3512   26.9119 H   0  0  0  0  0  0  0  0  0  0  0  0
    7.2848   -3.7114   26.6359 C   0  0  0  0  0  0  0  0  0  0  0  0
    7.1887   -4.2272   27.5864 H   0  0  0  0  0  0  0  0  0  0  0  0
    8.2977   -4.1028   25.7609 C   0  0  0  0  0  0  0  0  0  0  0  0
    9.1020   -5.1214   26.2611 O   0  0  0  0  0  0  0  0  0  0  0  0
   10.0981   -5.6569   25.5312 C   0  0  0  0  0  0  0  0  0  0  0  0
   11.0490   -4.7662   25.1947 F   0  0  0  0  0  0  0  0  0  0  0  0
   10.6488   -6.6001   26.2701 F   0  0  0  0  0  0  0  0  0  0  0  0
    9.6509   -6.2076   24.3920 F   0  0  0  0  0  0  0  0  0  0  0  0
    8.4815   -3.5022   24.5182 C   0  0  0  0  0  0  0  0  0  0  0  0
    9.2652   -3.8365   23.8465 H   0  0  0  0  0  0  0  0  0  0  0  0
    6.8538   -1.2194   22.1113 C   0  0  0  0  0  0  0  0  0  0  0  0
    5.8311   -1.2455   22.4189 H   0  0  0  0  0  0  0  0  0  0  0  0
    5.4304    0.6572   20.1446 C   0  0  0  0  0  0  0  0  0  0  0  0
    5.0000    0.6568   21.1504 H   0  0  0  0  0  0  0  0  0  0  0  0
    4.7982    1.3166   19.0901 C   0  0  0  0  0  0  0  0  0  0  0  0
    3.8678    1.8477   19.2425 H   0  0  0  0  0  0  0  0  0  0  0  0
  1  2  1  0
  2  3  2  0
  3  4  1  0
  4  5  1  0
  4  6  2  0
  6  7  1  0
  7  8  1  0
  8  9  1  0
  8 10  2  0
 10 11  1  0
 10 12  1  0
 12 13  1  0
 13 14  2  0
 14 15  1  0
 14 16  1  0
 16 17  1  0
 16 18  2  0
 18 19  1  0
 18 20  1  0
 20 21  1  0
 21 22  1  0
 22 23  1  0
 22 24  1  0
 22 25  1  0
 20 26  2  0
 26 27  1  0
 12 28  1  0
 28 29  1  0
  6 30  1  0
 30 31  1  0
 30 32  2  0
 32 33  1  0
 32  2  1  0
 28  7  2  0
 26 13  1  0
M  END
>  <cnnaffinity>  (1) 
-5.17704

>  <filename>  (1) 
FC(F)(F)Oc1cccc(-n2ccc(-c3cccnc3)c2)c1

$$$$
