
     RDKit          3D

 33 35  0  0  0  0  0  0  0  0999 V2000
    4.9108    1.7845   16.9931 H   0  0  0  0  0  0  0  0  0  0  0  0
    5.4005    1.2974   17.8338 C   0  0  0  0  0  0  0  0  0  0  0  0
    6.5658    0.6813   17.5737 N   0  0  0  0  0  0  0  0  0  0  0  0
    7.1718    0.0590   18.5945 C   0  0  0  0  0  0  0  0  0  0  0  0
    8.1204   -0.4266   18.3771 H   0  0  0  0  0  0  0  0  0  0  0  0
    6.6640    0.0035   19.9142 C   0  0  0  0  0  0  0  0  0  0  0  0
    7.3445   -0.6869   20.9511 N   0  0  0  0  0  0  0  0  0  0  0  0
    7.4069   -0.3759   22.3185 C   0  0  0  0  0  0  0  0  0  0  0  0
    7.2143    1.0111   22.8340 C   0  0  0  0  0  0  0  0  0  0  0  0
    7.6100    2.1455   22.0980 C   0  0  0  0  0  0  0  0  0  0  0  0
    8.0395    2.0358   21.1066 H   0  0  0  0  0  0  0  0  0  0  0  0
    7.4404    3.4221   22.6176 C   0  0  0  0  0  0  0  0  0  0  0  0
    7.7281    4.2847   22.0197 H   0  0  0  0  0  0  0  0  0  0  0  0
    6.8943    3.5896   23.9009 C   0  0  0  0  0  0  0  0  0  0  0  0
    6.6651    4.9812   24.4487 C   0  0  0  0  0  0  0  0  0  0  0  0
    6.7301    5.0258   25.7953 F   0  0  0  0  0  0  0  0  0  0  0  0
    7.5636    5.8750   23.9886 F   0  0  0  0  0  0  0  0  0  0  0  0
    5.4474    5.4513   24.1105 F   0  0  0  0  0  0  0  0  0  0  0  0
    6.4972    2.4645   24.6437 C   0  0  0  0  0  0  0  0  0  0  0  0
    6.0648    2.5833   25.6346 H   0  0  0  0  0  0  0  0  0  0  0  0
    6.6633    1.1901   24.1162 C   0  0  0  0  0  0  0  0  0  0  0  0
    6.3751    0.3261   24.7082 H   0  0  0  0  0  0  0  0  0  0  0  0
    7.6963   -1.3559   23.0872 N   0  0  0  0  0  0  0  0  0  0  0  0
    7.9070   -2.5351   22.2574 C   0  0  0  0  0  0  0  0  0  0  0  0
    8.9083   -2.9449   22.4278 H   0  0  0  0  0  0  0  0  0  0  0  0
    7.1853   -3.3106   22.5309 H   0  0  0  0  0  0  0  0  0  0  0  0
    7.7270   -2.0867   20.7997 C   0  0  0  0  0  0  0  0  0  0  0  0
    8.6630   -2.1620   20.2345 H   0  0  0  0  0  0  0  0  0  0  0  0
    6.9412   -2.6509   20.2768 H   0  0  0  0  0  0  0  0  0  0  0  0
    5.4382    0.6437   20.1595 C   0  0  0  0  0  0  0  0  0  0  0  0
    5.0234    0.6277   21.1705 H   0  0  0  0  0  0  0  0  0  0  0  0
    4.8084    1.3083   19.1036 C   0  0  0  0  0  0  0  0  0  0  0  0
    3.8763    1.8416   19.2612 H   0  0  0  0  0  0  0  0  0  0  0  0
  1  2  1  0
  2  3  2  0
  3  4  1  0
  4  5  1  0
  4  6  2  0
  6  7  1  0
  7  8  1  0
  8  9  1  0
  9 10  2  0
 10 11  1  0
 10 12  1  0
 12 13  1  0
 12 14  2  0
 14 15  1  0
 15 16  1  0
 15 17  1  0
 15 18  1  0
 14 19  1  0
 19 20  1  0
 19 21  2  0
 21 22  1  0
  8 23  2  0
 23 24  1  0
 24 25  1  0
 24 26  1  0
 24 27  1  0
 27 28  1  0
 27 29  1  0
  6 30  1  0
 30 31  1  0
 30 32  2  0
 32 33  1  0
 32  2  1  0
 27  7  1  0
 21  9  1  0
M  END
>  <cnnaffinity>  (1) 
-4.83607

>  <filename>  (1) 
FC(F)(F)c1ccc(C2=NCCN2c2cccnc2)cc1

$$$$
