
     RDKit          3D

 43 46  0  0  0  0  0  0  0  0999 V2000
    6.6125   -4.4343   24.2140 F   0  0  0  0  0  0  0  0  0  0  0  0
    5.6030   -5.0210   23.5477 C   0  0  0  0  0  0  0  0  0  0  0  0
    5.5200   -6.2849   23.9942 F   0  0  0  0  0  0  0  0  0  0  0  0
    4.4706   -4.3901   23.9330 F   0  0  0  0  0  0  0  0  0  0  0  0
    5.7604   -4.9576   22.0196 C   0  0  0  0  0  0  0  0  0  0  0  0
    5.7719   -6.1277   21.2410 C   0  0  0  0  0  0  0  0  0  0  0  0
    5.6669   -6.0233   19.8529 C   0  0  0  0  0  0  0  0  0  0  0  0
    5.6045   -4.8545   19.2004 N   0  0  0  0  0  0  0  0  0  0  0  0
    5.6806   -3.7413   19.9286 C   0  0  0  0  0  0  0  0  0  0  0  0
    5.7808   -3.7265   21.3337 C   0  0  0  0  0  0  0  0  0  0  0  0
    5.8706   -2.3816   22.0314 C   0  0  0  0  0  0  0  0  0  0  0  0
    7.1940   -1.6920   21.9443 C   0  0  0  0  0  0  0  0  0  0  0  0
    8.2139   -1.9396   22.7375 N   0  0  0  0  0  0  0  0  0  0  0  0
    9.2082   -1.1586   22.2323 C   0  0  0  0  0  0  0  0  0  0  0  0
   10.5057   -1.0653   22.9950 C   0  0  0  0  0  0  0  0  0  0  0  0
   10.5182    0.0944   24.0362 C   0  0  0  0  0  0  0  0  0  0  0  0
   12.0020    0.4749   24.0896 C   0  0  0  0  0  0  0  0  0  0  0  0
   12.4407    0.2103   22.6466 C   0  0  0  0  0  0  0  0  0  0  0  0
   11.6579   -0.8860   22.1852 O   0  0  0  0  0  0  0  0  0  0  0  0
   13.4930   -0.0711   22.5404 H   0  0  0  0  0  0  0  0  0  0  0  0
   12.2468    1.0795   22.0019 H   0  0  0  0  0  0  0  0  0  0  0  0
   12.1666    1.5135   24.3938 H   0  0  0  0  0  0  0  0  0  0  0  0
   12.5555   -0.1576   24.7935 H   0  0  0  0  0  0  0  0  0  0  0  0
   10.0923   -0.2089   25.0009 H   0  0  0  0  0  0  0  0  0  0  0  0
    9.9174    0.9341   23.6563 H   0  0  0  0  0  0  0  0  0  0  0  0
   10.5693   -2.0413   23.4926 H   0  0  0  0  0  0  0  0  0  0  0  0
    8.8700   -0.4417   21.1792 N   0  0  0  0  0  0  0  0  0  0  0  0
    7.5596   -0.7620   21.0080 N   0  0  0  0  0  0  0  0  0  0  0  0
    6.8073   -0.1190   19.9834 C   0  0  0  0  0  0  0  0  0  0  0  0
    5.5609    0.4808   20.2114 C   0  0  0  0  0  0  0  0  0  0  0  0
    4.9515    1.1508   19.1447 C   0  0  0  0  0  0  0  0  0  0  0  0
    5.5868    1.1683   17.8997 C   0  0  0  0  0  0  0  0  0  0  0  0
    6.7722    0.5754   17.6728 N   0  0  0  0  0  0  0  0  0  0  0  0
    7.3708   -0.0347   18.6991 C   0  0  0  0  0  0  0  0  0  0  0  0
    8.3442   -0.4860   18.5179 H   0  0  0  0  0  0  0  0  0  0  0  0
    5.1377    1.6819   17.0529 H   0  0  0  0  0  0  0  0  0  0  0  0
    4.0085    1.6696   19.2769 H   0  0  0  0  0  0  0  0  0  0  0  0
    5.0987    0.4639   21.1994 H   0  0  0  0  0  0  0  0  0  0  0  0
    5.6257   -2.4701   23.0928 H   0  0  0  0  0  0  0  0  0  0  0  0
    5.1338   -1.7285   21.5589 H   0  0  0  0  0  0  0  0  0  0  0  0
    5.6338   -2.7849   19.3972 H   0  0  0  0  0  0  0  0  0  0  0  0
    5.6108   -6.9137   19.2383 H   0  0  0  0  0  0  0  0  0  0  0  0
    5.8308   -7.1099   21.7053 H   0  0  0  0  0  0  0  0  0  0  0  0
  1  2  1  0
  2  3  1  0
  2  4  1  0
  2  5  1  0
  5  6  2  0
  6  7  1  0
  7  8  2  0
  8  9  1  0
  9 10  2  0
 10 11  1  0
 11 12  1  0
 12 13  2  0
 13 14  1  0
 14 15  1  0
 15 16  1  0
 16 17  1  0
 17 18  1  0
 18 19  1  0
 18 20  1  0
 18 21  1  0
 17 22  1  0
 17 23  1  0
 16 24  1  0
 16 25  1  0
 15 26  1  0
 14 27  2  0
 27 28  1  0
 28 29  1  0
 29 30  2  0
 30 31  1  0
 31 32  2  0
 32 33  1  0
 33 34  2  0
 34 35  1  0
 32 36  1  0
 31 37  1  0
 30 38  1  0
 11 39  1  0
 11 40  1  0
  9 41  1  0
  7 42  1  0
  6 43  1  0
 10  5  1  0
 28 12  1  0
 34 29  1  0
 19 15  1  0
M  END
>  <cnnaffinity>  (1) 
-6.17034

>  <filename>  (1) 
FC(F)(F)c1ccncc1Cc1nc(C2CCCO2)nn1-c1cccnc1

$$$$
