
     RDKit          3D

 43 46  0  0  0  0  0  0  0  0999 V2000
   13.5049    0.4589   24.8373 F   0  0  0  0  0  0  0  0  0  0  0  0
   13.5307    0.3575   23.4797 C   0  0  0  0  0  0  0  0  0  0  0  0
   14.5633    1.1126   23.0304 F   0  0  0  0  0  0  0  0  0  0  0  0
   12.2796    0.8137   22.9507 N   0  0  0  0  0  0  0  0  0  0  0  0
   11.5079    1.8876   23.3028 C   0  0  0  0  0  0  0  0  0  0  0  0
   10.4043    1.8579   22.4831 C   0  0  0  0  0  0  0  0  0  0  0  0
   10.5791    0.7124   21.6696 C   0  0  0  0  0  0  0  0  0  0  0  0
    9.6414    0.1264   20.6633 C   0  0  0  0  0  0  0  0  0  0  0  0
    8.5733   -0.6816   21.3084 C   0  0  0  0  0  0  0  0  0  0  0  0
    8.7778   -1.4991   22.3127 N   0  0  0  0  0  0  0  0  0  0  0  0
    7.5610   -2.0628   22.5194 C   0  0  0  0  0  0  0  0  0  0  0  0
    7.3407   -3.0803   23.6083 C   0  0  0  0  0  0  0  0  0  0  0  0
    8.3176   -2.9551   24.7989 C   0  0  0  0  0  0  0  0  0  0  0  0
    7.6230   -3.6676   25.9733 C   0  0  0  0  0  0  0  0  0  0  0  0
    6.1117   -3.7029   25.6342 C   0  0  0  0  0  0  0  0  0  0  0  0
    5.9561   -2.9938   24.2782 C   0  0  0  0  0  0  0  0  0  0  0  0
    5.1656   -3.4237   23.6533 H   0  0  0  0  0  0  0  0  0  0  0  0
    5.7183   -1.9339   24.4367 H   0  0  0  0  0  0  0  0  0  0  0  0
    5.5057   -3.2071   26.4001 H   0  0  0  0  0  0  0  0  0  0  0  0
    5.7612   -4.7404   25.5814 H   0  0  0  0  0  0  0  0  0  0  0  0
    7.8205   -3.1518   26.9196 H   0  0  0  0  0  0  0  0  0  0  0  0
    8.0070   -4.6884   26.0896 H   0  0  0  0  0  0  0  0  0  0  0  0
    8.4668   -1.8899   25.0220 H   0  0  0  0  0  0  0  0  0  0  0  0
    9.3027   -3.3811   24.5761 H   0  0  0  0  0  0  0  0  0  0  0  0
    7.4712   -4.0720   23.1467 H   0  0  0  0  0  0  0  0  0  0  0  0
    6.6195   -1.6524   21.6823 N   0  0  0  0  0  0  0  0  0  0  0  0
    7.2797   -0.7731   20.8858 N   0  0  0  0  0  0  0  0  0  0  0  0
    6.5993   -0.0706   19.8552 C   0  0  0  0  0  0  0  0  0  0  0  0
    5.4044    0.5996   20.1299 C   0  0  0  0  0  0  0  0  0  0  0  0
    4.8034    1.3098   19.0847 C   0  0  0  0  0  0  0  0  0  0  0  0
    5.4020    1.3141   17.8193 C   0  0  0  0  0  0  0  0  0  0  0  0
    6.5390    0.6594   17.5470 N   0  0  0  0  0  0  0  0  0  0  0  0
    7.1183   -0.0106   18.5500 C   0  0  0  0  0  0  0  0  0  0  0  0
    8.0535   -0.5115   18.3134 H   0  0  0  0  0  0  0  0  0  0  0  0
    4.9493    1.8544   16.9886 H   0  0  0  0  0  0  0  0  0  0  0  0
    3.8825    1.8577   19.2412 H   0  0  0  0  0  0  0  0  0  0  0  0
    4.9787    0.5700   21.1336 H   0  0  0  0  0  0  0  0  0  0  0  0
   10.2116   -0.5722   20.0484 H   0  0  0  0  0  0  0  0  0  0  0  0
    9.2070    0.8985   20.0272 H   0  0  0  0  0  0  0  0  0  0  0  0
   11.7060    0.1044   21.9544 N   0  0  0  0  0  0  0  0  0  0  0  0
    9.5717    2.5424   22.4645 H   0  0  0  0  0  0  0  0  0  0  0  0
   11.8006    2.5586   24.0982 H   0  0  0  0  0  0  0  0  0  0  0  0
   13.6632   -0.6777   23.1648 H   0  0  0  0  0  0  0  0  0  0  0  0
  1  2  1  0
  2  3  1  0
  2  4  1  0
  4  5  1  0
  5  6  2  0
  6  7  1  0
  7  8  1  0
  8  9  1  0
  9 10  2  0
 10 11  1  0
 11 12  1  0
 12 13  1  0
 13 14  1  0
 14 15  1  0
 15 16  1  0
 16 17  1  0
 16 18  1  0
 15 19  1  0
 15 20  1  0
 14 21  1  0
 14 22  1  0
 13 23  1  0
 13 24  1  0
 12 25  1  0
 11 26  2  0
 26 27  1  0
 27 28  1  0
 28 29  2  0
 29 30  1  0
 30 31  2  0
 31 32  1  0
 32 33  2  0
 33 34  1  0
 31 35  1  0
 30 36  1  0
 29 37  1  0
  8 38  1  0
  8 39  1  0
  7 40  2  0
  6 41  1  0
  5 42  1  0
  2 43  1  0
 40  4  1  0
 27  9  1  0
 33 28  1  0
 16 12  1  0
M  END
>  <cnnaffinity>  (1) 
-6.37847

>  <filename>  (1) 
FC(F)n1ccc(Cc2nc(C3CCCC3)nn2-c2cccnc2)n1

$$$$
