
     RDKit          3D

 34 35  0  0  0  0  0  0  0  0999 V2000
    4.9188    1.7786   16.9947 H   0  0  0  0  0  0  0  0  0  0  0  0
    5.4034    1.2907   17.8376 C   0  0  0  0  0  0  0  0  0  0  0  0
    6.5640    0.6767   17.5799 N   0  0  0  0  0  0  0  0  0  0  0  0
    7.1716    0.0630   18.6032 C   0  0  0  0  0  0  0  0  0  0  0  0
    8.1183   -0.4200   18.3645 H   0  0  0  0  0  0  0  0  0  0  0  0
    6.6669   -0.0020   19.8997 C   0  0  0  0  0  0  0  0  0  0  0  0
    7.3533   -0.7592   21.0304 C   0  0  0  0  0  0  0  0  0  0  0  0
    7.3331    0.0773   22.2019 O   0  0  0  0  0  0  0  0  0  0  0  0
    8.1082    1.2560   22.1380 C   0  0  0  0  0  0  0  0  0  0  0  0
    9.1529    1.0661   22.4198 H   0  0  0  0  0  0  0  0  0  0  0  0
    8.0827    1.7230   21.1421 H   0  0  0  0  0  0  0  0  0  0  0  0
    7.5580    2.2820   23.1169 C   0  0  0  0  0  0  0  0  0  0  0  0
    6.2968    2.6393   22.8232 F   0  0  0  0  0  0  0  0  0  0  0  0
    7.5833    1.8444   24.3821 F   0  0  0  0  0  0  0  0  0  0  0  0
    8.3155    3.3968   23.0661 F   0  0  0  0  0  0  0  0  0  0  0  0
    8.8087   -1.2015   20.7545 C   0  0  0  0  0  0  0  0  0  0  0  0
    8.8029   -1.8378   19.8736 H   0  0  0  0  0  0  0  0  0  0  0  0
    9.4365   -0.3436   20.4870 H   0  0  0  0  0  0  0  0  0  0  0  0
    9.4122   -1.9932   21.9213 C   0  0  0  0  0  0  0  0  0  0  0  0
   10.4320   -2.3056   21.6708 H   0  0  0  0  0  0  0  0  0  0  0  0
    9.4818   -1.3424   22.8029 H   0  0  0  0  0  0  0  0  0  0  0  0
    8.5453   -3.2130   22.2587 C   0  0  0  0  0  0  0  0  0  0  0  0
    8.5782   -3.9155   21.4154 H   0  0  0  0  0  0  0  0  0  0  0  0
    8.9548   -3.7414   23.1262 H   0  0  0  0  0  0  0  0  0  0  0  0
    7.0853   -2.8275   22.5176 C   0  0  0  0  0  0  0  0  0  0  0  0
    6.4707   -3.7224   22.6684 H   0  0  0  0  0  0  0  0  0  0  0  0
    7.0194   -2.2304   23.4349 H   0  0  0  0  0  0  0  0  0  0  0  0
    6.5103   -2.0039   21.3644 C   0  0  0  0  0  0  0  0  0  0  0  0
    5.4817   -1.6983   21.5808 H   0  0  0  0  0  0  0  0  0  0  0  0
    6.4563   -2.6103   20.4529 H   0  0  0  0  0  0  0  0  0  0  0  0
    5.4440    0.6566   20.1550 C   0  0  0  0  0  0  0  0  0  0  0  0
    5.0195    0.6498   21.1616 H   0  0  0  0  0  0  0  0  0  0  0  0
    4.8073    1.3138   19.1042 C   0  0  0  0  0  0  0  0  0  0  0  0
    3.8720    1.8452   19.2585 H   0  0  0  0  0  0  0  0  0  0  0  0
  1  2  1  0
  2  3  2  0
  3  4  1  0
  4  5  1  0
  4  6  2  0
  6  7  1  0
  7  8  1  0
  8  9  1  0
  9 10  1  0
  9 11  1  0
  9 12  1  0
 12 13  1  0
 12 14  1  0
 12 15  1  0
  7 16  1  0
 16 17  1  0
 16 18  1  0
 16 19  1  0
 19 20  1  0
 19 21  1  0
 19 22  1  0
 22 23  1  0
 22 24  1  0
 22 25  1  0
 25 26  1  0
 25 27  1  0
 25 28  1  0
 28 29  1  0
 28 30  1  0
  6 31  1  0
 31 32  1  0
 31 33  2  0
 33 34  1  0
 33  2  1  0
 28  7  1  0
M  END
>  <cnnaffinity>  (1) 
-4.48775

>  <filename>  (1) 
FC(F)(F)COC1(c2cccnc2)CCCCC1

$$$$
