
     RDKit          3D

 30 31  0  0  0  0  0  0  0  0999 V2000
    4.9390    1.7467   16.8505 H   0  0  0  0  0  0  0  0  0  0  0  0
    5.3712    1.3398   17.7617 C   0  0  0  0  0  0  0  0  0  0  0  0
    6.5635    0.7390   17.6295 N   0  0  0  0  0  0  0  0  0  0  0  0
    7.1162    0.2216   18.7328 C   0  0  0  0  0  0  0  0  0  0  0  0
    8.0816   -0.2648   18.5892 H   0  0  0  0  0  0  0  0  0  0  0  0
    6.5346    0.2796   20.0122 C   0  0  0  0  0  0  0  0  0  0  0  0
    7.2268   -0.3559   21.1980 C   0  0  2  0  0  0  0  0  0  0  0  0
    6.7384   -0.0858   22.1436 H   0  0  0  0  0  0  0  0  0  0  0  0
    8.9004    0.3200   21.2991 Cl  0  0  0  0  0  0  0  0  0  0  0  0
    7.2681   -1.8899   21.0529 C   0  0  0  0  0  0  0  0  0  0  0  0
    7.9086   -2.0964   20.1946 H   0  0  0  0  0  0  0  0  0  0  0  0
    6.2589   -2.1981   20.7668 H   0  0  0  0  0  0  0  0  0  0  0  0
    7.7479   -2.6810   22.2437 C   0  0  0  0  0  0  0  0  0  0  0  0
    9.1192   -2.9054   22.4178 C   0  0  0  0  0  0  0  0  0  0  0  0
    9.8038   -2.4892   21.6852 H   0  0  0  0  0  0  0  0  0  0  0  0
    9.5901   -3.6209   23.5218 C   0  0  0  0  0  0  0  0  0  0  0  0
   10.6459   -3.8467   23.6211 H   0  0  0  0  0  0  0  0  0  0  0  0
    8.7014   -4.0877   24.4883 C   0  0  0  0  0  0  0  0  0  0  0  0
    9.0814   -4.6246   25.3584 H   0  0  0  0  0  0  0  0  0  0  0  0
    7.3282   -3.8444   24.3449 C   0  0  0  0  0  0  0  0  0  0  0  0
    6.3581   -4.3147   25.4080 C   0  0  0  0  0  0  0  0  0  0  0  0
    6.9618   -4.5532   26.5886 F   0  0  0  0  0  0  0  0  0  0  0  0
    5.3789   -3.4191   25.6441 F   0  0  0  0  0  0  0  0  0  0  0  0
    5.7517   -5.4609   25.0430 F   0  0  0  0  0  0  0  0  0  0  0  0
    6.8518   -3.1880   23.1947 C   0  0  0  0  0  0  0  0  0  0  0  0
    5.7820   -3.0845   23.0288 H   0  0  0  0  0  0  0  0  0  0  0  0
    5.2825    0.8950   20.1237 C   0  0  0  0  0  0  0  0  0  0  0  0
    4.7927    0.9571   21.0960 H   0  0  0  0  0  0  0  0  0  0  0  0
    4.6872    1.4342   18.9775 C   0  0  0  0  0  0  0  0  0  0  0  0
    3.7221    1.9261   19.0157 H   0  0  0  0  0  0  0  0  0  0  0  0
  1  2  1  0
  2  3  2  0
  3  4  1  0
  4  5  1  0
  4  6  2  0
  6  7  1  0
  7  8  1  1
  7  9  1  0
  7 10  1  0
 10 11  1  0
 10 12  1  0
 10 13  1  0
 13 14  2  0
 14 15  1  0
 14 16  1  0
 16 17  1  0
 16 18  2  0
 18 19  1  0
 18 20  1  0
 20 21  1  0
 21 22  1  0
 21 23  1  0
 21 24  1  0
 20 25  2  0
 25 26  1  0
  6 27  1  0
 27 28  1  0
 27 29  2  0
 29 30  1  0
 29  2  1  0
 25 13  1  0
M  END
>  <cnnaffinity>  (1) 
-4.90662

>  <filename>  (1) 
FC(F)(F)c1cccc(C[C@@H](Cl)c2cccnc2)c1

$$$$
