
     RDKit          3D

 42 44  0  0  0  0  0  0  0  0999 V2000
    4.9108    1.8397   16.9286 H   0  0  0  0  0  0  0  0  0  0  0  0
    5.3685    1.3237   17.7679 C   0  0  0  0  0  0  0  0  0  0  0  0
    6.5323    0.7008   17.5219 N   0  0  0  0  0  0  0  0  0  0  0  0
    7.1374    0.0986   18.5566 C   0  0  0  0  0  0  0  0  0  0  0  0
    8.0904   -0.3791   18.3290 H   0  0  0  0  0  0  0  0  0  0  0  0
    6.6123    0.0412   19.8803 C   0  0  0  0  0  0  0  0  0  0  0  0
    7.2876   -0.5502   20.9722 N   0  0  0  0  0  0  0  0  0  0  0  0
    6.6584   -1.5517   21.8241 C   0  0  0  0  0  0  0  0  0  0  0  0
    5.6224   -1.6884   21.4952 H   0  0  0  0  0  0  0  0  0  0  0  0
    6.6110   -1.2036   22.8683 H   0  0  0  0  0  0  0  0  0  0  0  0
    7.3307   -2.9469   21.8164 C   0  0  0  0  0  0  0  0  0  0  0  0
    7.4874   -3.2340   20.7700 H   0  0  0  0  0  0  0  0  0  0  0  0
    6.6124   -3.6734   22.2159 H   0  0  0  0  0  0  0  0  0  0  0  0
    8.5791   -3.0881   22.5684 N   0  0  0  0  0  0  0  0  0  0  0  0
    8.5694   -3.6154   23.8666 C   0  0  0  0  0  0  0  0  0  0  0  0
    9.7054   -4.2851   24.3576 C   0  0  0  0  0  0  0  0  0  0  0  0
   10.6039   -4.3045   23.7496 H   0  0  0  0  0  0  0  0  0  0  0  0
    9.6786   -4.8988   25.6114 C   0  0  0  0  0  0  0  0  0  0  0  0
   10.5353   -5.4730   25.9556 H   0  0  0  0  0  0  0  0  0  0  0  0
    8.5506   -4.7741   26.4251 C   0  0  0  0  0  0  0  0  0  0  0  0
    8.4761   -5.2069   27.4163 H   0  0  0  0  0  0  0  0  0  0  0  0
    7.4631   -4.0399   25.9621 C   0  0  0  0  0  0  0  0  0  0  0  0
    6.4199   -3.9466   26.8814 O   0  0  0  0  0  0  0  0  0  0  0  0
    5.2929   -3.2640   26.6053 C   0  0  0  0  0  0  0  0  0  0  0  0
    4.6367   -3.7548   25.5382 F   0  0  0  0  0  0  0  0  0  0  0  0
    5.5140   -1.9612   26.3613 F   0  0  0  0  0  0  0  0  0  0  0  0
    4.5027   -3.3627   27.6668 F   0  0  0  0  0  0  0  0  0  0  0  0
    7.4358   -3.4755   24.6929 C   0  0  0  0  0  0  0  0  0  0  0  0
    6.5756   -2.9170   24.3472 H   0  0  0  0  0  0  0  0  0  0  0  0
    9.7802   -2.3457   22.1926 C   0  0  0  0  0  0  0  0  0  0  0  0
   10.1284   -1.7617   23.0613 H   0  0  0  0  0  0  0  0  0  0  0  0
   10.6078   -3.0467   22.0122 H   0  0  0  0  0  0  0  0  0  0  0  0
    9.6415   -1.3907   21.0140 C   0  0  0  0  0  0  0  0  0  0  0  0
    9.3181   -1.9298   20.1217 H   0  0  0  0  0  0  0  0  0  0  0  0
   10.6360   -0.9975   20.7764 H   0  0  0  0  0  0  0  0  0  0  0  0
    8.6768   -0.2234   21.2531 C   0  0  0  0  0  0  0  0  0  0  0  0
    8.7785    0.1368   22.2927 H   0  0  0  0  0  0  0  0  0  0  0  0
    8.9621    0.6271   20.6242 H   0  0  0  0  0  0  0  0  0  0  0  0
    5.3691    0.6649   20.0889 C   0  0  0  0  0  0  0  0  0  0  0  0
    4.9562    0.6586   21.0984 H   0  0  0  0  0  0  0  0  0  0  0  0
    4.7547    1.3279   19.0257 C   0  0  0  0  0  0  0  0  0  0  0  0
    3.8210    1.8565   19.1691 H   0  0  0  0  0  0  0  0  0  0  0  0
  1  2  1  0
  2  3  2  0
  3  4  1  0
  4  5  1  0
  4  6  2  0
  6  7  1  0
  7  8  1  0
  8  9  1  0
  8 10  1  0
  8 11  1  0
 11 12  1  0
 11 13  1  0
 11 14  1  0
 14 15  1  0
 15 16  2  0
 16 17  1  0
 16 18  1  0
 18 19  1  0
 18 20  2  0
 20 21  1  0
 20 22  1  0
 22 23  1  0
 23 24  1  0
 24 25  1  0
 24 26  1  0
 24 27  1  0
 22 28  2  0
 28 29  1  0
 14 30  1  0
 30 31  1  0
 30 32  1  0
 30 33  1  0
 33 34  1  0
 33 35  1  0
 33 36  1  0
 36 37  1  0
 36 38  1  0
  6 39  1  0
 39 40  1  0
 39 41  2  0
 41 42  1  0
 41  2  1  0
 36  7  1  0
 28 15  1  0
M  END
>  <cnnaffinity>  (1) 
-5.56515

>  <filename>  (1) 
FC(F)(F)Oc1cccc(N2CCCN(c3cccnc3)CC2)c1

$$$$
