
     RDKit          3D

 43 47  0  0  0  0  0  0  0  0999 V2000
    9.9603    3.3427   24.9422 F   0  0  0  0  0  0  0  0  0  0  0  0
   10.8760    3.6314   23.9939 C   0  0  0  0  0  0  0  0  0  0  0  0
   10.2795    4.5162   23.1619 F   0  0  0  0  0  0  0  0  0  0  0  0
   11.8892    4.2667   24.5852 F   0  0  0  0  0  0  0  0  0  0  0  0
   11.2809    2.3478   23.2482 C   0  0  0  0  0  0  0  0  0  0  0  0
   10.3663    1.8448   22.3186 C   0  0  0  0  0  0  0  0  0  0  0  0
   10.6697    0.6835   21.6209 C   0  0  0  0  0  0  0  0  0  0  0  0
    9.6497    0.1272   20.6730 C   0  0  0  0  0  0  0  0  0  0  0  0
    8.5840   -0.6556   21.3623 C   0  0  0  0  0  0  0  0  0  0  0  0
    8.7593   -1.4144   22.4265 N   0  0  0  0  0  0  0  0  0  0  0  0
    7.5469   -1.9960   22.5858 C   0  0  0  0  0  0  0  0  0  0  0  0
    7.1681   -2.9809   23.6397 C   0  0  0  0  0  0  0  0  0  0  0  0
    6.7328   -4.3418   23.2017 C   0  0  0  0  0  0  0  0  0  0  0  0
    7.9619   -4.2371   24.1315 C   0  0  0  0  0  0  0  0  0  0  0  0
    8.5759   -5.4697   24.7966 C   0  0  0  0  0  0  0  0  0  0  0  0
    8.9727   -4.0894   25.2372 C   0  0  0  0  0  0  0  0  0  0  0  0
    8.6087   -3.7217   26.2005 H   0  0  0  0  0  0  0  0  0  0  0  0
    9.9471   -3.6936   24.9445 H   0  0  0  0  0  0  0  0  0  0  0  0
    9.2718   -6.0657   24.2077 H   0  0  0  0  0  0  0  0  0  0  0  0
    7.9189   -6.0578   25.4431 H   0  0  0  0  0  0  0  0  0  0  0  0
    5.8043   -4.7665   23.5903 H   0  0  0  0  0  0  0  0  0  0  0  0
    6.9665   -4.6635   22.1854 H   0  0  0  0  0  0  0  0  0  0  0  0
    6.5933   -2.5068   24.4390 H   0  0  0  0  0  0  0  0  0  0  0  0
    6.6273   -1.6241   21.7070 N   0  0  0  0  0  0  0  0  0  0  0  0
    7.2999   -0.7715   20.8950 N   0  0  0  0  0  0  0  0  0  0  0  0
    6.6200   -0.0634   19.8579 C   0  0  0  0  0  0  0  0  0  0  0  0
    5.4163    0.6077   20.1227 C   0  0  0  0  0  0  0  0  0  0  0  0
    4.8085    1.3141   19.0807 C   0  0  0  0  0  0  0  0  0  0  0  0
    5.4049    1.3137   17.8131 C   0  0  0  0  0  0  0  0  0  0  0  0
    6.5440    0.6567   17.5453 N   0  0  0  0  0  0  0  0  0  0  0  0
    7.1281   -0.0097   18.5467 C   0  0  0  0  0  0  0  0  0  0  0  0
    8.0538   -0.5265   18.2999 H   0  0  0  0  0  0  0  0  0  0  0  0
    4.9487    1.8462   16.9814 H   0  0  0  0  0  0  0  0  0  0  0  0
    3.8854    1.8651   19.2336 H   0  0  0  0  0  0  0  0  0  0  0  0
    4.9825    0.5706   21.1230 H   0  0  0  0  0  0  0  0  0  0  0  0
   10.1168   -0.5466   19.9511 H   0  0  0  0  0  0  0  0  0  0  0  0
    9.1943    0.9615   20.1337 H   0  0  0  0  0  0  0  0  0  0  0  0
   11.8765    0.0403   21.9030 C   0  0  0  0  0  0  0  0  0  0  0  0
   12.7210    0.5976   22.8735 C   0  0  0  0  0  0  0  0  0  0  0  0
   12.4365    1.7214   23.5371 N   0  0  0  0  0  0  0  0  0  0  0  0
   13.6642    0.1230   23.1336 H   0  0  0  0  0  0  0  0  0  0  0  0
   12.1730   -0.8593   21.3804 H   0  0  0  0  0  0  0  0  0  0  0  0
    9.4303    2.3667   22.1519 H   0  0  0  0  0  0  0  0  0  0  0  0
  1  2  1  0
  2  3  1  0
  2  4  1  0
  2  5  1  0
  5  6  2  0
  6  7  1  0
  7  8  1  0
  8  9  1  0
  9 10  2  0
 10 11  1  0
 11 12  1  0
 12 13  1  0
 13 14  1  0
 14 15  1  0
 15 16  1  0
 16 17  1  0
 16 18  1  0
 15 19  1  0
 15 20  1  0
 13 21  1  0
 13 22  1  0
 12 23  1  0
 11 24  2  0
 24 25  1  0
 25 26  1  0
 26 27  2  0
 27 28  1  0
 28 29  2  0
 29 30  1  0
 30 31  2  0
 31 32  1  0
 29 33  1  0
 28 34  1  0
 27 35  1  0
  8 36  1  0
  8 37  1  0
  7 38  2  0
 38 39  1  0
 39 40  2  0
 39 41  1  0
 38 42  1  0
  6 43  1  0
 40  5  1  0
 25  9  1  0
 31 26  1  0
 14 12  1  0
 16 14  1  0
M  END
>  <cnnaffinity>  (1) 
-6.7754

>  <filename>  (1) 
FC(F)(F)c1cc(Cc2nc(C3CC34CC4)nn2-c2cccnc2)ccn1

$$$$
