
     RDKit          3D

 28 29  0  0  0  0  0  0  0  0999 V2000
    7.9721   -1.6256   20.6366 H   0  0  0  0  0  0  0  0  0  0  0  0
    7.5248   -0.6731   20.8951 C   0  0  0  0  0  0  0  0  0  0  0  0
    7.6387   -0.2164   22.2005 C   0  0  0  0  0  0  0  0  0  0  0  0
    6.9153    1.4863   22.7067 Br  0  0  0  0  0  0  0  0  0  0  0  0
    8.3258   -1.0476   23.2000 C   0  0  0  0  0  0  0  0  0  0  0  0
    7.6813   -1.3558   24.4094 C   0  0  0  0  0  0  0  0  0  0  0  0
    6.7249   -0.8957   24.6511 H   0  0  0  0  0  0  0  0  0  0  0  0
    8.2476   -2.2888   25.2839 C   0  0  0  0  0  0  0  0  0  0  0  0
    7.7360   -2.5543   26.2031 H   0  0  0  0  0  0  0  0  0  0  0  0
    9.4746   -2.8826   24.9788 C   0  0  0  0  0  0  0  0  0  0  0  0
    9.9015   -3.6181   25.6527 H   0  0  0  0  0  0  0  0  0  0  0  0
   10.1606   -2.5257   23.8150 C   0  0  0  0  0  0  0  0  0  0  0  0
   11.1296   -2.9801   23.6175 H   0  0  0  0  0  0  0  0  0  0  0  0
    9.5943   -1.6011   22.9148 C   0  0  0  0  0  0  0  0  0  0  0  0
   10.3127   -1.2061   21.6351 C   0  0  0  0  0  0  0  0  0  0  0  0
   11.6481   -1.4464   21.7092 F   0  0  0  0  0  0  0  0  0  0  0  0
    9.8059   -1.9520   20.6220 F   0  0  0  0  0  0  0  0  0  0  0  0
   10.1471    0.1230   21.3715 F   0  0  0  0  0  0  0  0  0  0  0  0
    6.7853    0.0184   19.8265 C   0  0  0  0  0  0  0  0  0  0  0  0
    7.2045   -0.0385   18.4814 C   0  0  0  0  0  0  0  0  0  0  0  0
    8.0913   -0.6100   18.2310 H   0  0  0  0  0  0  0  0  0  0  0  0
    6.5645    0.5989   17.4802 N   0  0  0  0  0  0  0  0  0  0  0  0
    5.4600    1.2983   17.7909 C   0  0  0  0  0  0  0  0  0  0  0  0
    4.9392    1.8343   17.0059 H   0  0  0  0  0  0  0  0  0  0  0  0
    4.9412    1.3552   19.0921 C   0  0  0  0  0  0  0  0  0  0  0  0
    4.0278    1.9053   19.2896 H   0  0  0  0  0  0  0  0  0  0  0  0
    5.6152    0.7112   20.1260 C   0  0  0  0  0  0  0  0  0  0  0  0
    5.2329    0.7275   21.1440 H   0  0  0  0  0  0  0  0  0  0  0  0
  1  2  1  0
  2  3  2  3
  3  4  1  0
  3  5  1  0
  5  6  2  0
  6  7  1  0
  6  8  1  0
  8  9  1  0
  8 10  2  0
 10 11  1  0
 10 12  1  0
 12 13  1  0
 12 14  2  0
 14 15  1  0
 15 16  1  0
 15 17  1  0
 15 18  1  0
  2 19  1  0
 19 20  2  0
 20 21  1  0
 20 22  1  0
 22 23  2  0
 23 24  1  0
 23 25  1  0
 25 26  1  0
 25 27  2  0
 27 28  1  0
 14  5  1  0
 27 19  1  0
M  END
>  <cnnaffinity>  (1) 
-4.66194

>  <filename>  (1) 
FC(F)(F)c1ccccc1C(Br)=Cc1cccnc1

$$$$
