
     RDKit          3D

 24 25  0  0  0  0  0  0  0  0999 V2000
    4.9313    1.7854   16.9940 H   0  0  0  0  0  0  0  0  0  0  0  0
    5.3987    1.2871   17.8413 C   0  0  0  0  0  0  0  0  0  0  0  0
    6.5604    0.6646   17.5943 N   0  0  0  0  0  0  0  0  0  0  0  0
    7.1747    0.0619   18.6211 C   0  0  0  0  0  0  0  0  0  0  0  0
    8.1148   -0.4297   18.3823 H   0  0  0  0  0  0  0  0  0  0  0  0
    6.6774    0.0419   19.9527 C   0  0  0  0  0  0  0  0  0  0  0  0
    7.3669   -0.6135   21.0046 N   0  0  0  0  0  0  0  0  0  0  0  0
    7.4197   -0.3477   22.3585 C   0  0  0  0  0  0  0  0  0  0  0  0
    6.9056    0.8224   22.7466 O   0  0  0  0  0  0  0  0  0  0  0  0
    6.9872    1.1112   24.1037 C   0  0  0  0  0  0  0  0  0  0  0  0
    6.5319    0.3393   24.7363 H   0  0  0  0  0  0  0  0  0  0  0  0
    6.3243    2.2674   24.2229 F   0  0  0  0  0  0  0  0  0  0  0  0
    8.2638    1.3019   24.4695 F   0  0  0  0  0  0  0  0  0  0  0  0
    7.9573   -1.2146   23.1161 N   0  0  0  0  0  0  0  0  0  0  0  0
    8.4074   -2.3005   22.2496 C   0  0  0  0  0  0  0  0  0  0  0  0
    9.4918   -2.4533   22.3457 H   0  0  0  0  0  0  0  0  0  0  0  0
    7.9132   -3.2370   22.5432 H   0  0  0  0  0  0  0  0  0  0  0  0
    8.0273   -1.8981   20.8096 C   0  0  0  0  0  0  0  0  0  0  0  0
    7.3309   -2.6120   20.3559 H   0  0  0  0  0  0  0  0  0  0  0  0
    8.9010   -1.7897   20.1538 H   0  0  0  0  0  0  0  0  0  0  0  0
    5.4464    0.6752   20.1806 C   0  0  0  0  0  0  0  0  0  0  0  0
    5.0233    0.6555   21.1798 H   0  0  0  0  0  0  0  0  0  0  0  0
    4.8046    1.3088   19.1089 C   0  0  0  0  0  0  0  0  0  0  0  0
    3.8688    1.8377   19.2497 H   0  0  0  0  0  0  0  0  0  0  0  0
  1  2  1  0
  2  3  2  0
  3  4  1  0
  4  5  1  0
  4  6  2  0
  6  7  1  0
  7  8  1  0
  8  9  1  0
  9 10  1  0
 10 11  1  0
 10 12  1  0
 10 13  1  0
  8 14  2  0
 14 15  1  0
 15 16  1  0
 15 17  1  0
 15 18  1  0
 18 19  1  0
 18 20  1  0
  6 21  1  0
 21 22  1  0
 21 23  2  0
 23 24  1  0
 23  2  1  0
 18  7  1  0
M  END
>  <cnnaffinity>  (1) 
-4.1034

>  <filename>  (1) 
FC(F)OC1=NCCN1c1cccnc1

$$$$
