
     RDKit          3D

 31 33  0  0  0  0  0  0  0  0999 V2000
    8.4489   -1.9949   19.8816 H   0  0  0  0  0  0  0  0  0  0  0  0
    8.2173   -1.6603   20.8691 C   0  0  0  0  0  0  0  0  0  0  0  0
    8.7631   -2.3415   21.8699 N   0  0  0  0  0  0  0  0  0  0  0  0
    8.5483   -1.8969   23.1108 N   0  0  0  0  0  0  0  0  0  0  0  0
    7.8236   -0.7843   23.3098 C   0  0  0  0  0  0  0  0  0  0  0  0
    7.7317   -0.2888   24.7019 C   0  0  0  0  0  0  0  0  0  0  0  0
    8.4079   -0.9247   25.7620 C   0  0  0  0  0  0  0  0  0  0  0  0
    9.0078   -1.8082   25.5555 H   0  0  0  0  0  0  0  0  0  0  0  0
    8.2981   -0.4182   27.0542 C   0  0  0  0  0  0  0  0  0  0  0  0
    8.8229   -0.9063   27.8730 H   0  0  0  0  0  0  0  0  0  0  0  0
    7.5163    0.7161   27.2979 C   0  0  0  0  0  0  0  0  0  0  0  0
    7.4189    1.0871   28.3150 H   0  0  0  0  0  0  0  0  0  0  0  0
    6.8480    1.3562   26.2411 C   0  0  0  0  0  0  0  0  0  0  0  0
    6.0310    2.6095   26.4763 C   0  0  0  0  0  0  0  0  0  0  0  0
    4.9894    2.7053   25.6258 F   0  0  0  0  0  0  0  0  0  0  0  0
    5.5241    2.6541   27.7226 F   0  0  0  0  0  0  0  0  0  0  0  0
    6.7650    3.7277   26.3077 F   0  0  0  0  0  0  0  0  0  0  0  0
    6.9613    0.8511   24.9456 C   0  0  0  0  0  0  0  0  0  0  0  0
    6.4557    1.3000   24.0907 H   0  0  0  0  0  0  0  0  0  0  0  0
    7.1858   -0.0985   22.3297 N   0  0  0  0  0  0  0  0  0  0  0  0
    7.3652   -0.5505   21.0912 C   0  0  0  0  0  0  0  0  0  0  0  0
    6.6345    0.1012   19.9808 C   0  0  0  0  0  0  0  0  0  0  0  0
    7.1691    0.0927   18.6829 C   0  0  0  0  0  0  0  0  0  0  0  0
    8.1238   -0.3954   18.4689 H   0  0  0  0  0  0  0  0  0  0  0  0
    6.5771    0.6627   17.6341 N   0  0  0  0  0  0  0  0  0  0  0  0
    5.4061    1.2817   17.8479 C   0  0  0  0  0  0  0  0  0  0  0  0
    4.9722    1.7739   16.9850 H   0  0  0  0  0  0  0  0  0  0  0  0
    4.7680    1.3239   19.0921 C   0  0  0  0  0  0  0  0  0  0  0  0
    3.8217    1.8478   19.1941 H   0  0  0  0  0  0  0  0  0  0  0  0
    5.3902    0.7206   20.1815 C   0  0  0  0  0  0  0  0  0  0  0  0
    4.9313    0.7208   21.1721 H   0  0  0  0  0  0  0  0  0  0  0  0
  1  2  1  0
  2  3  2  0
  3  4  1  0
  4  5  2  0
  5  6  1  0
  6  7  2  0
  7  8  1  0
  7  9  1  0
  9 10  1  0
  9 11  2  0
 11 12  1  0
 11 13  1  0
 13 14  1  0
 14 15  1  0
 14 16  1  0
 14 17  1  0
 13 18  2  0
 18 19  1  0
  5 20  1  0
 20 21  2  0
 21 22  1  0
 22 23  2  0
 23 24  1  0
 23 25  1  0
 25 26  2  0
 26 27  1  0
 26 28  1  0
 28 29  1  0
 28 30  2  0
 30 31  1  0
 21  2  1  0
 30 22  1  0
 18  6  1  0
M  END
>  <cnnaffinity>  (1) 
-5.14537

>  <filename>  (1) 
FC(F)(F)c1cccc(-c2nncc(-c3cccnc3)n2)c1

$$$$
