
     RDKit          3D

 43 46  0  0  0  0  0  0  0  0999 V2000
   12.7825    2.3744   23.7251 F   0  0  0  0  0  0  0  0  0  0  0  0
   11.6417    3.0471   23.4560 C   0  0  0  0  0  0  0  0  0  0  0  0
   11.6407    3.3022   22.1482 F   0  0  0  0  0  0  0  0  0  0  0  0
   11.7516    4.2271   24.1111 F   0  0  0  0  0  0  0  0  0  0  0  0
   10.4081    2.2654   23.9679 C   0  0  0  0  0  0  0  0  0  0  0  0
   10.4378    1.7972   25.2902 C   0  0  0  0  0  0  0  0  0  0  0  0
    9.2693    1.2966   25.8618 C   0  0  0  0  0  0  0  0  0  0  0  0
    8.1199    1.2545   25.0758 C   0  0  0  0  0  0  0  0  0  0  0  0
    8.2328    1.5660   23.7114 C   0  0  0  0  0  0  0  0  0  0  0  0
    7.1509    1.2161   22.7392 C   0  0  0  0  0  0  0  0  0  0  0  0
    7.4783   -0.1341   22.1887 C   0  0  0  0  0  0  0  0  0  0  0  0
    8.0393   -1.0748   22.9121 N   0  0  0  0  0  0  0  0  0  0  0  0
    8.2542   -2.0710   22.0255 C   0  0  0  0  0  0  0  0  0  0  0  0
    8.8928   -3.3322   22.4824 C   0  0  0  0  0  0  0  0  0  0  0  0
    8.1368   -4.0873   23.5981 C   0  0  0  0  0  0  0  0  0  0  0  0
    9.2513   -4.8410   24.3276 C   0  0  0  0  0  0  0  0  0  0  0  0
   10.4468   -4.1114   24.0983 O   0  0  0  0  0  0  0  0  0  0  0  0
   10.2630   -3.0787   23.1462 C   0  0  0  0  0  0  0  0  0  0  0  0
   10.2717   -2.0998   23.6578 H   0  0  0  0  0  0  0  0  0  0  0  0
   11.1014   -3.1070   22.4358 H   0  0  0  0  0  0  0  0  0  0  0  0
    9.0649   -4.9028   25.4070 H   0  0  0  0  0  0  0  0  0  0  0  0
    9.3745   -5.8774   23.9732 H   0  0  0  0  0  0  0  0  0  0  0  0
    7.6495   -3.3734   24.2750 H   0  0  0  0  0  0  0  0  0  0  0  0
    7.3708   -4.7615   23.2084 H   0  0  0  0  0  0  0  0  0  0  0  0
    8.9677   -3.9639   21.6002 H   0  0  0  0  0  0  0  0  0  0  0  0
    7.8536   -1.8242   20.7947 N   0  0  0  0  0  0  0  0  0  0  0  0
    7.3055   -0.5811   20.9107 N   0  0  0  0  0  0  0  0  0  0  0  0
    6.6087    0.0330   19.8493 C   0  0  0  0  0  0  0  0  0  0  0  0
    5.3965    0.6952   20.0825 C   0  0  0  0  0  0  0  0  0  0  0  0
    4.7917    1.3447   19.0082 C   0  0  0  0  0  0  0  0  0  0  0  0
    5.4118    1.3088   17.7552 C   0  0  0  0  0  0  0  0  0  0  0  0
    6.5580    0.6439   17.5222 N   0  0  0  0  0  0  0  0  0  0  0  0
    7.1340    0.0090   18.5461 C   0  0  0  0  0  0  0  0  0  0  0  0
    8.0562   -0.5296   18.3415 H   0  0  0  0  0  0  0  0  0  0  0  0
    4.9686    1.8212   16.9053 H   0  0  0  0  0  0  0  0  0  0  0  0
    3.8618    1.8845   19.1406 H   0  0  0  0  0  0  0  0  0  0  0  0
    4.9452    0.7001   21.0756 H   0  0  0  0  0  0  0  0  0  0  0  0
    6.1873    1.1641   23.2559 H   0  0  0  0  0  0  0  0  0  0  0  0
    7.1107    1.9669   21.9471 H   0  0  0  0  0  0  0  0  0  0  0  0
    9.3385    2.0863   23.1730 N   0  0  0  0  0  0  0  0  0  0  0  0
    7.1630    0.9448   25.4782 H   0  0  0  0  0  0  0  0  0  0  0  0
    9.2769    0.9104   26.8801 H   0  0  0  0  0  0  0  0  0  0  0  0
   11.3555    1.8367   25.8502 H   0  0  0  0  0  0  0  0  0  0  0  0
  1  2  1  0
  2  3  1  0
  2  4  1  0
  2  5  1  0
  5  6  2  0
  6  7  1  0
  7  8  2  0
  8  9  1  0
  9 10  1  0
 10 11  1  0
 11 12  2  0
 12 13  1  0
 13 14  1  0
 14 15  1  0
 15 16  1  0
 16 17  1  0
 17 18  1  0
 18 19  1  0
 18 20  1  0
 16 21  1  0
 16 22  1  0
 15 23  1  0
 15 24  1  0
 14 25  1  0
 13 26  2  0
 26 27  1  0
 27 28  1  0
 28 29  2  0
 29 30  1  0
 30 31  2  0
 31 32  1  0
 32 33  2  0
 33 34  1  0
 31 35  1  0
 30 36  1  0
 29 37  1  0
 10 38  1  0
 10 39  1  0
  9 40  2  0
  8 41  1  0
  7 42  1  0
  6 43  1  0
 40  5  1  0
 27 11  1  0
 33 28  1  0
 18 14  1  0
M  END
>  <cnnaffinity>  (1) 
-6.29383

>  <filename>  (1) 
FC(F)(F)c1cccc(Cc2nc(C3CCOC3)nn2-c2cccnc2)n1

$$$$
