
     RDKit          3D

 36 38  0  0  0  0  0  0  0  0999 V2000
    5.1529    1.6427   16.8882 H   0  0  0  0  0  0  0  0  0  0  0  0
    5.5133    1.2088   17.8180 C   0  0  0  0  0  0  0  0  0  0  0  0
    6.6070    0.4400   17.7377 N   0  0  0  0  0  0  0  0  0  0  0  0
    7.0747   -0.0929   18.8749 C   0  0  0  0  0  0  0  0  0  0  0  0
    7.9990   -0.6605   18.7509 H   0  0  0  0  0  0  0  0  0  0  0  0
    6.4901    0.0792   20.1440 C   0  0  0  0  0  0  0  0  0  0  0  0
    7.1516   -0.5455   21.3617 C   0  0  0  0  0  0  0  0  0  0  0  0
    6.4954   -0.2082   22.6034 N   0  0  0  0  0  0  0  0  0  0  0  0
    6.0112   -0.9591   23.0666 H   0  0  0  0  0  0  0  0  0  0  0  0
    6.8622    0.8546   23.4142 C   0  0  0  0  0  0  0  0  0  0  0  0
    7.2385    2.0891   22.8669 C   0  0  0  0  0  0  0  0  0  0  0  0
    7.2972    2.1783   21.7866 H   0  0  0  0  0  0  0  0  0  0  0  0
    7.5323    3.1748   23.6950 C   0  0  0  0  0  0  0  0  0  0  0  0
    7.8368    4.1247   23.2549 H   0  0  0  0  0  0  0  0  0  0  0  0
    7.4383    3.0287   25.0830 C   0  0  0  0  0  0  0  0  0  0  0  0
    7.6282    3.8786   25.7298 H   0  0  0  0  0  0  0  0  0  0  0  0
    7.1192    1.7879   25.6400 C   0  0  0  0  0  0  0  0  0  0  0  0
    7.0756    1.6842   26.7246 H   0  0  0  0  0  0  0  0  0  0  0  0
    6.8722    0.6829   24.8114 C   0  0  0  0  0  0  0  0  0  0  0  0
    6.6545   -0.6912   25.3817 C   0  0  0  0  0  0  0  0  0  0  0  0
    6.9483   -0.7591   26.6931 F   0  0  0  0  0  0  0  0  0  0  0  0
    7.4001   -1.6432   24.7731 F   0  0  0  0  0  0  0  0  0  0  0  0
    5.3634   -1.0852   25.2627 F   0  0  0  0  0  0  0  0  0  0  0  0
    8.7022   -0.3484   21.3975 C   0  0  0  0  0  0  0  0  0  0  0  0
    9.0808    0.3922   20.6902 H   0  0  0  0  0  0  0  0  0  0  0  0
    9.0318   -0.0499   22.3941 H   0  0  0  0  0  0  0  0  0  0  0  0
    8.9415   -1.8484   21.1220 C   0  0  0  0  0  0  0  0  0  0  0  0
    9.3946   -2.0792   20.1507 H   0  0  0  0  0  0  0  0  0  0  0  0
    9.5255   -2.3505   21.9008 H   0  0  0  0  0  0  0  0  0  0  0  0
    7.4097   -2.0805   21.2427 C   0  0  0  0  0  0  0  0  0  0  0  0
    7.1361   -2.6104   22.1620 H   0  0  0  0  0  0  0  0  0  0  0  0
    6.9184   -2.5905   20.4137 H   0  0  0  0  0  0  0  0  0  0  0  0
    5.3412    0.8884   20.1927 C   0  0  0  0  0  0  0  0  0  0  0  0
    4.8666    1.0799   21.1536 H   0  0  0  0  0  0  0  0  0  0  0  0
    4.8504    1.4631   19.0213 C   0  0  0  0  0  0  0  0  0  0  0  0
    3.9846    2.1169   19.0371 H   0  0  0  0  0  0  0  0  0  0  0  0
  1  2  1  0
  2  3  2  0
  3  4  1  0
  4  5  1  0
  4  6  2  0
  6  7  1  0
  7  8  1  0
  8  9  1  0
  8 10  1  0
 10 11  2  0
 11 12  1  0
 11 13  1  0
 13 14  1  0
 13 15  2  0
 15 16  1  0
 15 17  1  0
 17 18  1  0
 17 19  2  0
 19 20  1  0
 20 21  1  0
 20 22  1  0
 20 23  1  0
  7 24  1  0
 24 25  1  0
 24 26  1  0
 24 27  1  0
 27 28  1  0
 27 29  1  0
 27 30  1  0
 30 31  1  0
 30 32  1  0
  6 33  1  0
 33 34  1  0
 33 35  2  0
 35 36  1  0
 35  2  1  0
 30  7  1  0
 19 10  1  0
M  END
>  <cnnaffinity>  (1) 
-5.55662

>  <filename>  (1) 
FC(F)(F)c1ccccc1NC1(c2cccnc2)CCC1

$$$$
