
     RDKit          3D

 44 47  0  0  0  0  0  0  0  0999 V2000
    8.0144    1.8763   22.7042 F   0  0  0  0  0  0  0  0  0  0  0  0
    9.0335    2.6611   22.3015 C   0  0  0  0  0  0  0  0  0  0  0  0
    8.9373    3.8150   22.9837 F   0  0  0  0  0  0  0  0  0  0  0  0
    8.7881    2.9711   21.0078 F   0  0  0  0  0  0  0  0  0  0  0  0
   10.3676    1.9539   22.4819 C   0  0  0  0  0  0  0  0  0  0  0  0
   11.2972    2.4066   23.4290 C   0  0  0  0  0  0  0  0  0  0  0  0
   12.4653    1.6783   23.6645 C   0  0  0  0  0  0  0  0  0  0  0  0
   12.7255    0.5092   22.9539 C   0  0  0  0  0  0  0  0  0  0  0  0
   11.8083    0.0723   21.9933 C   0  0  0  0  0  0  0  0  0  0  0  0
   10.6319    0.7874   21.7432 C   0  0  0  0  0  0  0  0  0  0  0  0
    9.6389    0.2287   20.7464 C   0  0  0  0  0  0  0  0  0  0  0  0
    8.5793   -0.5978   21.3891 C   0  0  0  0  0  0  0  0  0  0  0  0
    8.7876   -1.4395   22.3775 N   0  0  0  0  0  0  0  0  0  0  0  0
    7.5678   -2.0035   22.5670 C   0  0  0  0  0  0  0  0  0  0  0  0
    7.3641   -2.9957   23.6542 C   0  0  0  0  0  0  0  0  0  0  0  0
    8.2884   -4.2350   23.5900 C   0  0  0  0  0  0  0  0  0  0  0  0
    8.4042   -4.6534   25.0601 C   0  0  0  0  0  0  0  0  0  0  0  0
    8.0776   -3.5131   25.8399 O   0  0  0  0  0  0  0  0  0  0  0  0
    7.7240   -2.4108   25.0308 C   0  0  0  0  0  0  0  0  0  0  0  0
    6.8840   -1.8864   25.5036 H   0  0  0  0  0  0  0  0  0  0  0  0
    8.5689   -1.7057   24.9585 H   0  0  0  0  0  0  0  0  0  0  0  0
    9.4165   -4.9854   25.3307 H   0  0  0  0  0  0  0  0  0  0  0  0
    7.7044   -5.4633   25.3094 H   0  0  0  0  0  0  0  0  0  0  0  0
    9.2736   -3.9453   23.2062 H   0  0  0  0  0  0  0  0  0  0  0  0
    7.9007   -5.0290   22.9428 H   0  0  0  0  0  0  0  0  0  0  0  0
    6.3079   -3.2817   23.6341 H   0  0  0  0  0  0  0  0  0  0  0  0
    6.6286   -1.5894   21.7467 N   0  0  0  0  0  0  0  0  0  0  0  0
    7.2858   -0.6929   20.9608 N   0  0  0  0  0  0  0  0  0  0  0  0
    6.6199   -0.0210   19.8921 C   0  0  0  0  0  0  0  0  0  0  0  0
    5.4111    0.6353   20.1405 C   0  0  0  0  0  0  0  0  0  0  0  0
    4.7921    1.3181   19.0917 C   0  0  0  0  0  0  0  0  0  0  0  0
    5.3954    1.3011   17.8283 C   0  0  0  0  0  0  0  0  0  0  0  0
    6.5440    0.6545   17.5717 N   0  0  0  0  0  0  0  0  0  0  0  0
    7.1426    0.0168   18.5854 C   0  0  0  0  0  0  0  0  0  0  0  0
    8.0911   -0.4681   18.3479 H   0  0  0  0  0  0  0  0  0  0  0  0
    4.9373    1.8216   16.9917 H   0  0  0  0  0  0  0  0  0  0  0  0
    3.8651    1.8648   19.2449 H   0  0  0  0  0  0  0  0  0  0  0  0
    4.9923    0.5970   21.1465 H   0  0  0  0  0  0  0  0  0  0  0  0
    9.1720    1.0383   20.1932 H   0  0  0  0  0  0  0  0  0  0  0  0
   10.1434   -0.4415   20.0436 H   0  0  0  0  0  0  0  0  0  0  0  0
   12.0042   -0.8380   21.4321 H   0  0  0  0  0  0  0  0  0  0  0  0
   13.6227   -0.0648   23.1618 H   0  0  0  0  0  0  0  0  0  0  0  0
   13.1639    2.0151   24.4202 H   0  0  0  0  0  0  0  0  0  0  0  0
   11.0971    3.3207   23.9846 H   0  0  0  0  0  0  0  0  0  0  0  0
  1  2  1  0
  2  3  1  0
  2  4  1  0
  2  5  1  0
  5  6  2  0
  6  7  1  0
  7  8  2  0
  8  9  1  0
  9 10  2  0
 10 11  1  0
 11 12  1  0
 12 13  2  0
 13 14  1  0
 14 15  1  0
 15 16  1  0
 16 17  1  0
 17 18  1  0
 18 19  1  0
 19 20  1  0
 19 21  1  0
 17 22  1  0
 17 23  1  0
 16 24  1  0
 16 25  1  0
 15 26  1  0
 14 27  2  0
 27 28  1  0
 28 29  1  0
 29 30  2  0
 30 31  1  0
 31 32  2  0
 32 33  1  0
 33 34  2  0
 34 35  1  0
 32 36  1  0
 31 37  1  0
 30 38  1  0
 11 39  1  0
 11 40  1  0
  9 41  1  0
  8 42  1  0
  7 43  1  0
  6 44  1  0
 10  5  1  0
 28 12  1  0
 34 29  1  0
 19 15  1  0
M  END
>  <cnnaffinity>  (1) 
-6.35094

>  <filename>  (1) 
FC(F)(F)c1ccccc1Cc1nc(C2CCOC2)nn1-c1cccnc1

$$$$
