
     RDKit          3D

 34 36  0  0  0  0  0  0  0  0999 V2000
    5.0161    1.8089   16.9571 H   0  0  0  0  0  0  0  0  0  0  0  0
    5.4504    1.3109   17.8213 C   0  0  0  0  0  0  0  0  0  0  0  0
    6.6245    0.6955   17.6111 N   0  0  0  0  0  0  0  0  0  0  0  0
    7.1932    0.0778   18.6535 C   0  0  0  0  0  0  0  0  0  0  0  0
    8.1397   -0.4274   18.4442 H   0  0  0  0  0  0  0  0  0  0  0  0
    6.6380    0.0383   19.9432 C   0  0  0  0  0  0  0  0  0  0  0  0
    7.3468   -0.6848   21.0762 C   0  0  0  0  0  0  0  0  0  0  0  0
    7.5027   -1.7417   20.8242 H   0  0  0  0  0  0  0  0  0  0  0  0
    6.7268   -0.6476   21.9807 H   0  0  0  0  0  0  0  0  0  0  0  0
    8.6540   -0.1250   21.4083 N   0  0  0  0  0  0  0  0  0  0  0  0
    9.8946   -0.6312   21.1363 C   0  0  0  0  0  0  0  0  0  0  0  0
   10.0607   -1.6204   20.7301 H   0  0  0  0  0  0  0  0  0  0  0  0
   10.8278    0.2241   21.4479 N   0  0  0  0  0  0  0  0  0  0  0  0
   10.2021    1.3412   21.9290 N   0  0  0  0  0  0  0  0  0  0  0  0
    8.9109    1.1209   21.9203 C   0  0  0  0  0  0  0  0  0  0  0  0
    7.8890    2.1231   22.3322 C   0  0  0  0  0  0  0  0  0  0  0  0
    8.0219    3.3877   21.7559 C   0  0  0  0  0  0  0  0  0  0  0  0
    8.8497    3.5367   21.0779 H   0  0  0  0  0  0  0  0  0  0  0  0
    7.0937    4.3941   22.0034 C   0  0  0  0  0  0  0  0  0  0  0  0
    7.1962    5.3603   21.5186 H   0  0  0  0  0  0  0  0  0  0  0  0
    6.0339    4.1562   22.8771 C   0  0  0  0  0  0  0  0  0  0  0  0
    5.2625    4.9002   23.0433 H   0  0  0  0  0  0  0  0  0  0  0  0
    5.9474    2.9219   23.5246 C   0  0  0  0  0  0  0  0  0  0  0  0
    4.8897    2.8441   24.4248 O   0  0  0  0  0  0  0  0  0  0  0  0
    4.7263    1.8384   25.3023 C   0  0  0  0  0  0  0  0  0  0  0  0
    5.7831    1.6389   26.1017 F   0  0  0  0  0  0  0  0  0  0  0  0
    3.6814    2.1692   26.0600 F   0  0  0  0  0  0  0  0  0  0  0  0
    4.4639    0.6695   24.6984 F   0  0  0  0  0  0  0  0  0  0  0  0
    6.8350    1.8830   23.2395 C   0  0  0  0  0  0  0  0  0  0  0  0
    6.7139    0.9294   23.7385 H   0  0  0  0  0  0  0  0  0  0  0  0
    5.4004    0.6708   20.1290 C   0  0  0  0  0  0  0  0  0  0  0  0
    4.9326    0.6601   21.1153 H   0  0  0  0  0  0  0  0  0  0  0  0
    4.7910    1.3226   19.0536 C   0  0  0  0  0  0  0  0  0  0  0  0
    3.8372    1.8333   19.1557 H   0  0  0  0  0  0  0  0  0  0  0  0
  1  2  1  0
  2  3  2  0
  3  4  1  0
  4  5  1  0
  4  6  2  0
  6  7  1  0
  7  8  1  0
  7  9  1  0
  7 10  1  0
 10 11  1  0
 11 12  1  0
 11 13  2  0
 13 14  1  0
 14 15  2  0
 15 16  1  0
 16 17  2  0
 17 18  1  0
 17 19  1  0
 19 20  1  0
 19 21  2  0
 21 22  1  0
 21 23  1  0
 23 24  1  0
 24 25  1  0
 25 26  1  0
 25 27  1  0
 25 28  1  0
 23 29  2  0
 29 30  1  0
  6 31  1  0
 31 32  1  0
 31 33  2  0
 33 34  1  0
 33  2  1  0
 15 10  1  0
 29 16  1  0
M  END
>  <cnnaffinity>  (1) 
-5.16537

>  <filename>  (1) 
FC(F)(F)Oc1cccc(-c2nncn2Cc2cccnc2)c1

$$$$
