
     RDKit          3D

 25 26  0  0  0  0  0  0  0  0999 V2000
    4.9237    1.7842   16.9925 H   0  0  0  0  0  0  0  0  0  0  0  0
    5.4007    1.2959   17.8381 C   0  0  0  0  0  0  0  0  0  0  0  0
    6.5640    0.6803   17.5781 N   0  0  0  0  0  0  0  0  0  0  0  0
    7.1648    0.0547   18.5931 C   0  0  0  0  0  0  0  0  0  0  0  0
    8.1121   -0.4355   18.3767 H   0  0  0  0  0  0  0  0  0  0  0  0
    6.6452    0.0181   19.8942 C   0  0  0  0  0  0  0  0  0  0  0  0
    7.3958   -0.7238   20.9059 C   0  0  0  0  0  0  0  0  0  0  0  0
    7.9334   -1.9149   20.7760 N   0  0  0  0  0  0  0  0  0  0  0  0
    8.4838   -2.2132   21.9697 N   0  0  0  0  0  0  0  0  0  0  0  0
    8.3217   -1.2502   22.8065 N   0  0  0  0  0  0  0  0  0  0  0  0
    7.6359   -0.2889   22.1618 N   0  0  0  0  0  0  0  0  0  0  0  0
    7.3563    0.9796   22.8205 C   0  0  0  0  0  0  0  0  0  0  0  0
    7.0355    1.6947   22.0614 H   0  0  0  0  0  0  0  0  0  0  0  0
    8.2849    1.3553   23.2561 H   0  0  0  0  0  0  0  0  0  0  0  0
    6.2892    0.8301   23.9101 C   0  0  0  0  0  0  0  0  0  0  0  0
    6.6513    0.1786   24.7083 H   0  0  0  0  0  0  0  0  0  0  0  0
    5.3803    0.3938   23.5032 H   0  0  0  0  0  0  0  0  0  0  0  0
    5.8719    2.1426   24.5273 C   0  0  0  0  0  0  0  0  0  0  0  0
    6.9177    2.7860   25.0805 F   0  0  0  0  0  0  0  0  0  0  0  0
    4.9495    1.9568   25.4894 F   0  0  0  0  0  0  0  0  0  0  0  0
    5.3234    2.9729   23.6142 F   0  0  0  0  0  0  0  0  0  0  0  0
    5.4276    0.6622   20.1546 C   0  0  0  0  0  0  0  0  0  0  0  0
    4.9818    0.6402   21.1544 H   0  0  0  0  0  0  0  0  0  0  0  0
    4.7947    1.3154   19.0994 C   0  0  0  0  0  0  0  0  0  0  0  0
    3.8661    1.8491   19.2539 H   0  0  0  0  0  0  0  0  0  0  0  0
  1  2  1  0
  2  3  2  0
  3  4  1  0
  4  5  1  0
  4  6  2  0
  6  7  1  0
  7  8  2  0
  8  9  1  0
  9 10  2  0
 10 11  1  0
 11 12  1  0
 12 13  1  0
 12 14  1  0
 12 15  1  0
 15 16  1  0
 15 17  1  0
 15 18  1  0
 18 19  1  0
 18 20  1  0
 18 21  1  0
  6 22  1  0
 22 23  1  0
 22 24  2  0
 24 25  1  0
 24  2  1  0
 11  7  1  0
M  END
>  <cnnaffinity>  (1) 
-4.64432

>  <filename>  (1) 
FC(F)(F)CCn1nnnc1-c1cccnc1

$$$$
