
     RDKit          3D

 40 43  0  0  0  0  0  0  0  0999 V2000
    4.9402    1.8030   16.9676 H   0  0  0  0  0  0  0  0  0  0  0  0
    5.4008    1.3077   17.8195 C   0  0  0  0  0  0  0  0  0  0  0  0
    6.5555    0.6693   17.5818 N   0  0  0  0  0  0  0  0  0  0  0  0
    7.1465    0.0622   18.6209 C   0  0  0  0  0  0  0  0  0  0  0  0
    8.0862   -0.4323   18.3688 H   0  0  0  0  0  0  0  0  0  0  0  0
    6.6534    0.0584   19.9523 C   0  0  0  0  0  0  0  0  0  0  0  0
    7.4488   -0.5354   21.1685 C   0  0  2  0  0  0  0  0  0  0  0  0
    8.3053    0.5918   21.7513 C   0  0  0  0  0  0  0  0  0  0  0  0
    7.9704    1.1693   22.9155 N   0  0  0  0  0  0  0  0  0  0  0  0
    8.7257    2.1765   23.3391 C   0  0  0  0  0  0  0  0  0  0  0  0
    8.4427    2.6342   24.2763 H   0  0  0  0  0  0  0  0  0  0  0  0
    9.8476    2.6455   22.6629 C   0  0  0  0  0  0  0  0  0  0  0  0
   10.5666    3.8020   23.2687 C   0  0  0  0  0  0  0  0  0  0  0  0
   11.8811    3.7850   22.9896 F   0  0  0  0  0  0  0  0  0  0  0  0
   10.4499    3.8116   24.6119 F   0  0  0  0  0  0  0  0  0  0  0  0
   10.0850    4.9847   22.8463 F   0  0  0  0  0  0  0  0  0  0  0  0
   10.2175    2.0511   21.4499 C   0  0  0  0  0  0  0  0  0  0  0  0
   11.1031    2.3689   20.8994 H   0  0  0  0  0  0  0  0  0  0  0  0
    9.4204    1.0205   20.9924 C   0  0  0  0  0  0  0  0  0  0  0  0
    9.6345    0.5330   20.0457 H   0  0  0  0  0  0  0  0  0  0  0  0
    8.3746   -1.7441   20.7493 C   0  0  0  0  0  0  0  0  0  0  0  0
    9.4482   -1.5517   20.8591 H   0  0  0  0  0  0  0  0  0  0  0  0
    8.1628   -1.8912   19.7036 H   0  0  0  0  0  0  0  0  0  0  0  0
    7.9658   -2.9391   21.6289 C   0  0  2  0  0  0  0  0  0  0  0  0
    8.7419   -3.7051   21.7070 H   0  0  0  0  0  0  0  0  0  0  0  0
    6.6035   -3.4862   21.1670 C   0  0  0  0  0  0  0  0  0  0  0  0
    6.5863   -3.7578   20.1051 H   0  0  0  0  0  0  0  0  0  0  0  0
    6.3246   -4.3795   21.7390 H   0  0  0  0  0  0  0  0  0  0  0  0
    5.6503   -2.3045   21.4975 C   0  0  0  0  0  0  0  0  0  0  0  0
    4.7839   -2.6343   22.0796 H   0  0  0  0  0  0  0  0  0  0  0  0
    5.2851   -1.8478   20.5758 H   0  0  0  0  0  0  0  0  0  0  0  0
    6.5701   -1.2914   22.2410 C   0  0  1  0  0  0  0  0  0  0  0  0
    6.0865   -0.5909   22.9220 H   0  0  0  0  0  0  0  0  0  0  0  0
    7.5760   -2.2303   22.9312 C   0  0  0  0  0  0  0  0  0  0  0  0
    8.4060   -1.7036   23.4175 H   0  0  0  0  0  0  0  0  0  0  0  0
    7.1073   -2.8855   23.6812 H   0  0  0  0  0  0  0  0  0  0  0  0
    5.4358    0.7261   20.1558 C   0  0  0  0  0  0  0  0  0  0  0  0
    4.9739    0.7369   21.1438 H   0  0  0  0  0  0  0  0  0  0  0  0
    4.7968    1.3521   19.0780 C   0  0  0  0  0  0  0  0  0  0  0  0
    3.8501    1.8671   19.2042 H   0  0  0  0  0  0  0  0  0  0  0  0
  1  2  1  0
  2  3  2  0
  3  4  1  0
  4  5  1  0
  4  6  2  0
  7  6  1  6
  7  8  1  0
  8  9  2  0
  9 10  1  0
 10 11  1  0
 10 12  2  0
 12 13  1  0
 13 14  1  0
 13 15  1  0
 13 16  1  0
 12 17  1  0
 17 18  1  0
 17 19  2  0
 19 20  1  0
  7 21  1  0
 21 22  1  0
 21 23  1  0
 21 24  1  0
 24 25  1  1
 24 26  1  0
 26 27  1  0
 26 28  1  0
 26 29  1  0
 29 30  1  0
 29 31  1  0
 29 32  1  0
 32 33  1  1
 32 34  1  0
 34 35  1  0
 34 36  1  0
  6 37  1  0
 37 38  1  0
 37 39  2  0
 39 40  1  0
 39  2  1  0
 32  7  1  0
 19  8  1  0
 34 24  1  0
M  END
>  <cnnaffinity>  (1) 
-5.1248

>  <filename>  (1) 
FC(F)(F)c1ccc([C@@]2(c3cccnc3)C[C@@H]3CC[C@H]2C3)nc1

$$$$
