
     RDKit          3D

 37 40  0  0  0  0  0  0  0  0999 V2000
   14.4025    1.9139   22.8883 F   0  0  0  0  0  0  0  0  0  0  0  0
   13.6992    0.8023   23.1406 C   0  0  0  0  0  0  0  0  0  0  0  0
   14.3732   -0.2333   22.5949 F   0  0  0  0  0  0  0  0  0  0  0  0
   13.6924    0.6056   24.4703 F   0  0  0  0  0  0  0  0  0  0  0  0
   12.3103    0.9073   22.5647 C   0  0  0  0  0  0  0  0  0  0  0  0
   11.5296    1.9296   22.8947 N   0  0  0  0  0  0  0  0  0  0  0  0
   10.4141    1.7377   22.1834 N   0  0  0  0  0  0  0  0  0  0  0  0
   10.4648    0.6326   21.3977 C   0  0  0  0  0  0  0  0  0  0  0  0
    9.3384    0.1487   20.5498 C   0  0  0  0  0  0  0  0  0  0  0  0
    8.3456   -0.7202   21.2732 C   0  0  0  0  0  0  0  0  0  0  0  0
    8.5638   -1.5288   22.2809 N   0  0  0  0  0  0  0  0  0  0  0  0
    7.3433   -2.1208   22.4999 C   0  0  0  0  0  0  0  0  0  0  0  0
    7.1778   -3.0978   23.6155 C   0  0  0  0  0  0  0  0  0  0  0  0
    6.0283   -3.6983   23.9552 N   0  0  0  0  0  0  0  0  0  0  0  0
    6.3442   -4.4692   24.9928 N   0  0  0  0  0  0  0  0  0  0  0  0
    7.6509   -4.4077   25.3465 C   0  0  0  0  0  0  0  0  0  0  0  0
    8.2294   -3.5225   24.4758 C   0  0  0  0  0  0  0  0  0  0  0  0
    9.2552   -3.1900   24.4281 H   0  0  0  0  0  0  0  0  0  0  0  0
    8.0454   -4.9961   26.1658 H   0  0  0  0  0  0  0  0  0  0  0  0
    5.6192   -5.0252   25.4201 H   0  0  0  0  0  0  0  0  0  0  0  0
    6.4022   -1.7240   21.6513 N   0  0  0  0  0  0  0  0  0  0  0  0
    7.0514   -0.8468   20.8527 N   0  0  0  0  0  0  0  0  0  0  0  0
    6.3909   -0.1577   19.7995 C   0  0  0  0  0  0  0  0  0  0  0  0
    5.2248    0.5718   20.0446 C   0  0  0  0  0  0  0  0  0  0  0  0
    4.7086    1.3572   19.0087 C   0  0  0  0  0  0  0  0  0  0  0  0
    5.3487    1.3473   17.7625 C   0  0  0  0  0  0  0  0  0  0  0  0
    6.4320    0.5974   17.5057 N   0  0  0  0  0  0  0  0  0  0  0  0
    6.9306   -0.1417   18.5022 C   0  0  0  0  0  0  0  0  0  0  0  0
    7.8206   -0.7276   18.2740 H   0  0  0  0  0  0  0  0  0  0  0  0
    4.9748    1.9507   16.9377 H   0  0  0  0  0  0  0  0  0  0  0  0
    3.8227    1.9695   19.1463 H   0  0  0  0  0  0  0  0  0  0  0  0
    4.7541    0.5109   21.0249 H   0  0  0  0  0  0  0  0  0  0  0  0
    8.8273    1.0015   20.0936 H   0  0  0  0  0  0  0  0  0  0  0  0
    9.7496   -0.4500   19.7259 H   0  0  0  0  0  0  0  0  0  0  0  0
   11.6877    0.0545   21.6291 C   0  0  0  0  0  0  0  0  0  0  0  0
   12.0942   -0.8469   21.1968 H   0  0  0  0  0  0  0  0  0  0  0  0
    9.7187    2.4699   22.1434 H   0  0  0  0  0  0  0  0  0  0  0  0
  1  2  1  0
  2  3  1  0
  2  4  1  0
  2  5  1  0
  5  6  2  0
  6  7  1  0
  7  8  1  0
  8  9  1  0
  9 10  1  0
 10 11  2  0
 11 12  1  0
 12 13  1  0
 13 14  2  0
 14 15  1  0
 15 16  1  0
 16 17  2  0
 17 18  1  0
 16 19  1  0
 15 20  1  0
 12 21  2  0
 21 22  1  0
 22 23  1  0
 23 24  2  0
 24 25  1  0
 25 26  2  0
 26 27  1  0
 27 28  2  0
 28 29  1  0
 26 30  1  0
 25 31  1  0
 24 32  1  0
  9 33  1  0
  9 34  1  0
  8 35  2  0
 35 36  1  0
  7 37  1  0
 35  5  1  0
 22 10  1  0
 28 23  1  0
 17 13  1  0
M  END
>  <cnnaffinity>  (1) 
-6.08994

>  <filename>  (1) 
FC(F)(F)c1cc(Cc2nc(-c3cc[nH]n3)nn2-c2cccnc2)[nH]n1

$$$$
