
     RDKit          3D

 30 32  0  0  0  0  0  0  0  0999 V2000
    5.0047    1.7643   16.9904 H   0  0  0  0  0  0  0  0  0  0  0  0
    5.4643    1.2797   17.8499 C   0  0  0  0  0  0  0  0  0  0  0  0
    6.6411    0.6717   17.6205 N   0  0  0  0  0  0  0  0  0  0  0  0
    7.2405    0.0712   18.6531 C   0  0  0  0  0  0  0  0  0  0  0  0
    8.1819   -0.4239   18.4145 H   0  0  0  0  0  0  0  0  0  0  0  0
    6.7229    0.0421   19.9729 C   0  0  0  0  0  0  0  0  0  0  0  0
    7.4206   -0.6219   21.0924 C   0  0  0  0  0  0  0  0  0  0  0  0
    8.6909   -1.7663   20.8090 S   0  0  0  0  0  0  0  0  0  0  0  0
    8.9191   -2.0331   22.4833 C   0  0  0  0  0  0  0  0  0  0  0  0
    9.6894   -2.7170   22.8199 H   0  0  0  0  0  0  0  0  0  0  0  0
    8.0989   -1.2604   23.2640 C   0  0  0  0  0  0  0  0  0  0  0  0
    8.2863   -1.1855   24.7566 C   0  0  0  0  0  0  0  0  0  0  0  0
    9.5423   -0.8999   25.1326 N   0  0  0  0  0  0  0  0  0  0  0  0
    9.8200   -0.6894   26.4167 C   0  0  0  0  0  0  0  0  0  0  0  0
   10.8568   -0.4372   26.6372 H   0  0  0  0  0  0  0  0  0  0  0  0
    8.8695   -0.8101   27.4345 C   0  0  0  0  0  0  0  0  0  0  0  0
    9.1567   -0.5746   28.4537 H   0  0  0  0  0  0  0  0  0  0  0  0
    7.5846   -1.2079   27.0895 C   0  0  0  0  0  0  0  0  0  0  0  0
    6.8064   -1.3903   27.8369 H   0  0  0  0  0  0  0  0  0  0  0  0
    7.2921   -1.4051   25.7349 C   0  0  0  0  0  0  0  0  0  0  0  0
    5.8904   -1.7088   25.3220 C   0  0  0  0  0  0  0  0  0  0  0  0
    5.8064   -2.6159   24.3362 F   0  0  0  0  0  0  0  0  0  0  0  0
    5.3099   -0.5704   24.8836 F   0  0  0  0  0  0  0  0  0  0  0  0
    5.1333   -2.1572   26.3444 F   0  0  0  0  0  0  0  0  0  0  0  0
    7.2241   -0.4666   22.4422 C   0  0  0  0  0  0  0  0  0  0  0  0
    6.4946    0.2164   22.8571 H   0  0  0  0  0  0  0  0  0  0  0  0
    5.4802    0.6686   20.1761 C   0  0  0  0  0  0  0  0  0  0  0  0
    5.0215    0.6506   21.1649 H   0  0  0  0  0  0  0  0  0  0  0  0
    4.8448    1.2915   19.1012 C   0  0  0  0  0  0  0  0  0  0  0  0
    3.8896    1.7930   19.2160 H   0  0  0  0  0  0  0  0  0  0  0  0
  1  2  1  0
  2  3  2  0
  3  4  1  0
  4  5  1  0
  4  6  2  0
  6  7  1  0
  7  8  1  0
  8  9  1  0
  9 10  1  0
  9 11  2  0
 11 12  1  0
 12 13  2  0
 13 14  1  0
 14 15  1  0
 14 16  2  0
 16 17  1  0
 16 18  1  0
 18 19  1  0
 18 20  2  0
 20 21  1  0
 21 22  1  0
 21 23  1  0
 21 24  1  0
 11 25  1  0
 25 26  1  0
  6 27  1  0
 27 28  1  0
 27 29  2  0
 29 30  1  0
 29  2  1  0
 25  7  2  0
 20 12  1  0
M  END
>  <cnnaffinity>  (1) 
-5.65785

>  <filename>  (1) 
FC(F)(F)c1cccnc1-c1csc(-c2cccnc2)c1

$$$$
