
     RDKit          3D

 44 47  0  0  0  0  0  0  0  0999 V2000
   14.5439    1.1563   23.0686 F   0  0  0  0  0  0  0  0  0  0  0  0
   13.5292    0.3648   23.4852 C   0  0  0  0  0  0  0  0  0  0  0  0
   13.4832    0.4302   24.8422 F   0  0  0  0  0  0  0  0  0  0  0  0
   12.2740    0.8075   22.9535 N   0  0  0  0  0  0  0  0  0  0  0  0
   11.5063    1.8843   23.3049 C   0  0  0  0  0  0  0  0  0  0  0  0
   10.4037    1.8617   22.4888 C   0  0  0  0  0  0  0  0  0  0  0  0
   10.5707    0.7175   21.6726 C   0  0  0  0  0  0  0  0  0  0  0  0
    9.6260    0.1339   20.6730 C   0  0  0  0  0  0  0  0  0  0  0  0
    8.5557   -0.6571   21.3349 C   0  0  0  0  0  0  0  0  0  0  0  0
    8.7549   -1.4507   22.3607 N   0  0  0  0  0  0  0  0  0  0  0  0
    7.5358   -2.0139   22.5655 C   0  0  0  0  0  0  0  0  0  0  0  0
    7.3326   -2.9937   23.6789 C   0  0  0  0  0  0  0  0  0  0  0  0
    7.5230   -2.2934   25.0527 C   0  0  0  0  0  0  0  0  0  0  0  0
    7.5583   -3.2779   26.1977 C   0  0  0  0  0  0  0  0  0  0  0  0
    7.7553   -4.5860   26.0376 C   0  0  0  0  0  0  0  0  0  0  0  0
    7.9777   -5.2333   24.6870 C   0  0  0  0  0  0  0  0  0  0  0  0
    8.2974   -4.2051   23.5845 C   0  0  0  0  0  0  0  0  0  0  0  0
    8.2349   -4.6809   22.5981 H   0  0  0  0  0  0  0  0  0  0  0  0
    9.3313   -3.8422   23.6966 H   0  0  0  0  0  0  0  0  0  0  0  0
    8.7825   -5.9747   24.7619 H   0  0  0  0  0  0  0  0  0  0  0  0
    7.0782   -5.8088   24.4164 H   0  0  0  0  0  0  0  0  0  0  0  0
    7.7238   -5.2489   26.9055 H   0  0  0  0  0  0  0  0  0  0  0  0
    7.4434   -2.8623   27.1997 H   0  0  0  0  0  0  0  0  0  0  0  0
    6.7223   -1.5612   25.2190 H   0  0  0  0  0  0  0  0  0  0  0  0
    8.4617   -1.7146   25.0309 H   0  0  0  0  0  0  0  0  0  0  0  0
    6.2981   -3.3504   23.5981 H   0  0  0  0  0  0  0  0  0  0  0  0
    6.5960   -1.6107   21.7358 N   0  0  0  0  0  0  0  0  0  0  0  0
    7.2610   -0.7513   20.9155 N   0  0  0  0  0  0  0  0  0  0  0  0
    6.5931   -0.0592   19.8733 C   0  0  0  0  0  0  0  0  0  0  0  0
    5.3945    0.6092   20.1337 C   0  0  0  0  0  0  0  0  0  0  0  0
    4.8004    1.3106   19.0838 C   0  0  0  0  0  0  0  0  0  0  0  0
    5.4051    1.3078   17.8203 C   0  0  0  0  0  0  0  0  0  0  0  0
    6.5446    0.6509   17.5604 N   0  0  0  0  0  0  0  0  0  0  0  0
    7.1211   -0.0089   18.5697 C   0  0  0  0  0  0  0  0  0  0  0  0
    8.0593   -0.5095   18.3410 H   0  0  0  0  0  0  0  0  0  0  0  0
    4.9606    1.8451   16.9860 H   0  0  0  0  0  0  0  0  0  0  0  0
    3.8809    1.8607   19.2322 H   0  0  0  0  0  0  0  0  0  0  0  0
    4.9650    0.5783   21.1376 H   0  0  0  0  0  0  0  0  0  0  0  0
    9.1931    0.9105   20.0424 H   0  0  0  0  0  0  0  0  0  0  0  0
   10.1870   -0.5643   20.0484 H   0  0  0  0  0  0  0  0  0  0  0  0
   11.6992    0.1065   21.9511 N   0  0  0  0  0  0  0  0  0  0  0  0
    9.5632    2.5381   22.4714 H   0  0  0  0  0  0  0  0  0  0  0  0
   11.8038    2.5516   24.1015 H   0  0  0  0  0  0  0  0  0  0  0  0
   13.6891   -0.6577   23.1403 H   0  0  0  0  0  0  0  0  0  0  0  0
  1  2  1  0
  2  3  1  0
  2  4  1  0
  4  5  1  0
  5  6  2  0
  6  7  1  0
  7  8  1  0
  8  9  1  0
  9 10  2  0
 10 11  1  0
 11 12  1  0
 12 13  1  0
 13 14  1  0
 14 15  2  0
 15 16  1  0
 16 17  1  0
 17 18  1  0
 17 19  1  0
 16 20  1  0
 16 21  1  0
 15 22  1  0
 14 23  1  0
 13 24  1  0
 13 25  1  0
 12 26  1  0
 11 27  2  0
 27 28  1  0
 28 29  1  0
 29 30  2  0
 30 31  1  0
 31 32  2  0
 32 33  1  0
 33 34  2  0
 34 35  1  0
 32 36  1  0
 31 37  1  0
 30 38  1  0
  8 39  1  0
  8 40  1  0
  7 41  2  0
  6 42  1  0
  5 43  1  0
  2 44  1  0
 41  4  1  0
 28  9  1  0
 34 29  1  0
 17 12  1  0
M  END
>  <cnnaffinity>  (1) 
-6.57955

>  <filename>  (1) 
FC(F)n1ccc(Cc2nc(C3CC=CCC3)nn2-c2cccnc2)n1

$$$$
