
     RDKit          3D

 24 25  0  0  0  0  0  0  0  0999 V2000
    4.9630    1.7864   16.9959 H   0  0  0  0  0  0  0  0  0  0  0  0
    5.4218    1.2801   17.8450 C   0  0  0  0  0  0  0  0  0  0  0  0
    6.5808    0.6516   17.6036 N   0  0  0  0  0  0  0  0  0  0  0  0
    7.1766    0.0300   18.6256 C   0  0  0  0  0  0  0  0  0  0  0  0
    8.1256   -0.4531   18.3939 H   0  0  0  0  0  0  0  0  0  0  0  0
    6.6474   -0.0054   19.9240 C   0  0  0  0  0  0  0  0  0  0  0  0
    7.4076   -0.7158   20.9459 C   0  0  0  0  0  0  0  0  0  0  0  0
    8.4362   -1.5117   20.7267 N   0  0  0  0  0  0  0  0  0  0  0  0
    8.7763   -1.8903   21.9716 C   0  0  0  0  0  0  0  0  0  0  0  0
    9.7956   -2.7462   22.1578 O   0  0  0  0  0  0  0  0  0  0  0  0
   10.0147   -3.2973   23.4515 C   0  0  0  0  0  0  0  0  0  0  0  0
   11.0273   -3.7035   23.4092 H   0  0  0  0  0  0  0  0  0  0  0  0
    9.9607   -2.5398   24.2417 H   0  0  0  0  0  0  0  0  0  0  0  0
    9.0719   -4.4251   23.9180 C   0  0  0  0  0  0  0  0  0  0  0  0
    7.8441   -3.9821   24.2097 F   0  0  0  0  0  0  0  0  0  0  0  0
    8.9303   -5.4242   23.0407 F   0  0  0  0  0  0  0  0  0  0  0  0
    9.6090   -4.9221   25.0475 F   0  0  0  0  0  0  0  0  0  0  0  0
    8.0552   -1.3899   22.9571 N   0  0  0  0  0  0  0  0  0  0  0  0
    7.1607   -0.6306   22.2647 N   0  0  0  0  0  0  0  0  0  0  0  0
    6.4878   -0.0418   22.7322 H   0  0  0  0  0  0  0  0  0  0  0  0
    5.4301    0.6503   20.1606 C   0  0  0  0  0  0  0  0  0  0  0  0
    4.9498    0.6615   21.1418 H   0  0  0  0  0  0  0  0  0  0  0  0
    4.8107    1.3044   19.1013 C   0  0  0  0  0  0  0  0  0  0  0  0
    3.8790    1.8387   19.2379 H   0  0  0  0  0  0  0  0  0  0  0  0
  1  2  1  0
  2  3  2  0
  3  4  1  0
  4  5  1  0
  4  6  2  0
  6  7  1  0
  7  8  2  0
  8  9  1  0
  9 10  1  0
 10 11  1  0
 11 12  1  0
 11 13  1  0
 11 14  1  0
 14 15  1  0
 14 16  1  0
 14 17  1  0
  9 18  2  0
 18 19  1  0
 19 20  1  0
  6 21  1  0
 21 22  1  0
 21 23  2  0
 23 24  1  0
 23  2  1  0
 19  7  1  0
M  END
>  <cnnaffinity>  (1) 
-4.89959

>  <filename>  (1) 
FC(F)(F)COc1n[nH]c(-c2cccnc2)n1

$$$$
