
     RDKit          3D

 32 34  0  0  0  0  0  0  0  0999 V2000
    4.9320    1.7783   17.0014 H   0  0  0  0  0  0  0  0  0  0  0  0
    5.4110    1.2857   17.8468 C   0  0  0  0  0  0  0  0  0  0  0  0
    6.5768    0.6691   17.5979 N   0  0  0  0  0  0  0  0  0  0  0  0
    7.1697    0.0368   18.6172 C   0  0  0  0  0  0  0  0  0  0  0  0
    8.1163   -0.4434   18.3768 H   0  0  0  0  0  0  0  0  0  0  0  0
    6.6475   -0.0001   19.9173 C   0  0  0  0  0  0  0  0  0  0  0  0
    7.3855   -0.7180   20.9804 C   0  0  0  0  0  0  0  0  0  0  0  0
    7.7539   -1.9684   20.6720 N   0  0  0  0  0  0  0  0  0  0  0  0
    8.3103   -2.7208   21.6209 C   0  0  0  0  0  0  0  0  0  0  0  0
    8.5571   -3.7436   21.3390 H   0  0  0  0  0  0  0  0  0  0  0  0
    8.5842   -2.2589   22.9109 C   0  0  0  0  0  0  0  0  0  0  0  0
    9.0551   -2.9116   23.6362 H   0  0  0  0  0  0  0  0  0  0  0  0
    8.2542   -0.9496   23.2297 C   0  0  0  0  0  0  0  0  0  0  0  0
    8.4519   -0.5295   24.2199 H   0  0  0  0  0  0  0  0  0  0  0  0
    7.6632   -0.1470   22.2410 C   0  0  0  0  0  0  0  0  0  0  0  0
    7.3951    1.2952   22.5255 C   0  0  0  0  0  0  0  0  0  0  0  0
    6.7801    1.5532   23.6840 N   0  0  0  0  0  0  0  0  0  0  0  0
    6.5178    2.8259   24.0198 C   0  0  0  0  0  0  0  0  0  0  0  0
    5.8008    3.1236   25.3674 C   0  0  0  0  0  0  0  0  0  0  0  0
    5.4944    2.0434   26.0878 F   0  0  0  0  0  0  0  0  0  0  0  0
    6.5591    3.9252   26.1486 F   0  0  0  0  0  0  0  0  0  0  0  0
    4.6543    3.8067   25.1563 F   0  0  0  0  0  0  0  0  0  0  0  0
    6.8904    3.9144   23.2107 C   0  0  0  0  0  0  0  0  0  0  0  0
    6.6692    4.9345   23.5127 H   0  0  0  0  0  0  0  0  0  0  0  0
    7.5609    3.6547   22.0143 C   0  0  0  0  0  0  0  0  0  0  0  0
    7.8692    4.4857   21.3760 H   0  0  0  0  0  0  0  0  0  0  0  0
    7.8135    2.3252   21.6640 C   0  0  0  0  0  0  0  0  0  0  0  0
    8.3135    2.0518   20.7451 H   0  0  0  0  0  0  0  0  0  0  0  0
    5.4267    0.6414   20.1661 C   0  0  0  0  0  0  0  0  0  0  0  0
    4.9994    0.6444   21.1747 H   0  0  0  0  0  0  0  0  0  0  0  0
    4.8041    1.2996   19.1080 C   0  0  0  0  0  0  0  0  0  0  0  0
    3.8778    1.8386   19.2517 H   0  0  0  0  0  0  0  0  0  0  0  0
  1  2  1  0
  2  3  2  0
  3  4  1  0
  4  5  1  0
  4  6  2  0
  6  7  1  0
  7  8  2  0
  8  9  1  0
  9 10  1  0
  9 11  2  0
 11 12  1  0
 11 13  1  0
 13 14  1  0
 13 15  2  0
 15 16  1  0
 16 17  2  0
 17 18  1  0
 18 19  1  0
 19 20  1  0
 19 21  1  0
 19 22  1  0
 18 23  2  0
 23 24  1  0
 23 25  1  0
 25 26  1  0
 25 27  2  0
 27 28  1  0
  6 29  1  0
 29 30  1  0
 29 31  2  0
 31 32  1  0
 31  2  1  0
 15  7  1  0
 27 16  1  0
M  END
>  <cnnaffinity>  (1) 
-5.27896

>  <filename>  (1) 
FC(F)(F)c1cccc(-c2cccnc2-c2cccnc2)n1

$$$$
