
     RDKit          3D

 25 26  0  0  0  0  0  0  0  0999 V2000
    4.9316    1.7743   17.0001 H   0  0  0  0  0  0  0  0  0  0  0  0
    5.4082    1.2837   17.8464 C   0  0  0  0  0  0  0  0  0  0  0  0
    6.5719    0.6663   17.5956 N   0  0  0  0  0  0  0  0  0  0  0  0
    7.1708    0.0459   18.6166 C   0  0  0  0  0  0  0  0  0  0  0  0
    8.1203   -0.4297   18.3813 H   0  0  0  0  0  0  0  0  0  0  0  0
    6.6398   -0.0116   19.9071 C   0  0  0  0  0  0  0  0  0  0  0  0
    7.3381   -0.8240   20.9557 C   0  0  0  0  0  0  0  0  0  0  0  0
    7.1275   -0.2762   22.1912 F   0  0  0  0  0  0  0  0  0  0  0  0
    8.6950   -0.7435   20.8005 F   0  0  0  0  0  0  0  0  0  0  0  0
    6.9064   -2.1373   20.9026 O   0  0  0  0  0  0  0  0  0  0  0  0
    7.3539   -3.1276   21.7791 C   0  0  0  0  0  0  0  0  0  0  0  0
    8.2922   -2.9264   22.7934 C   0  0  0  0  0  0  0  0  0  0  0  0
    8.7291   -1.9496   22.9634 H   0  0  0  0  0  0  0  0  0  0  0  0
    8.6590   -4.0133   23.5948 C   0  0  0  0  0  0  0  0  0  0  0  0
    9.3855   -3.8585   24.3841 H   0  0  0  0  0  0  0  0  0  0  0  0
    8.1121   -5.2826   23.4060 C   0  0  0  0  0  0  0  0  0  0  0  0
    8.3977   -6.1225   24.0360 H   0  0  0  0  0  0  0  0  0  0  0  0
    7.1750   -5.4486   22.3835 C   0  0  0  0  0  0  0  0  0  0  0  0
    6.4894   -7.0236   22.1422 Cl  0  0  0  0  0  0  0  0  0  0  0  0
    6.7831   -4.3905   21.5619 C   0  0  0  0  0  0  0  0  0  0  0  0
    6.0543   -4.5451   20.7761 H   0  0  0  0  0  0  0  0  0  0  0  0
    5.4293    0.6485   20.1654 C   0  0  0  0  0  0  0  0  0  0  0  0
    4.9946    0.6408   21.1678 H   0  0  0  0  0  0  0  0  0  0  0  0
    4.8072    1.3062   19.1076 C   0  0  0  0  0  0  0  0  0  0  0  0
    3.8775    1.8416   19.2568 H   0  0  0  0  0  0  0  0  0  0  0  0
  1  2  1  0
  2  3  2  0
  3  4  1  0
  4  5  1  0
  4  6  2  0
  6  7  1  0
  7  8  1  0
  7  9  1  0
  7 10  1  0
 10 11  1  0
 11 12  2  0
 12 13  1  0
 12 14  1  0
 14 15  1  0
 14 16  2  0
 16 17  1  0
 16 18  1  0
 18 19  1  0
 18 20  2  0
 20 21  1  0
  6 22  1  0
 22 23  1  0
 22 24  2  0
 24 25  1  0
 24  2  1  0
 20 11  1  0
M  END
>  <cnnaffinity>  (1) 
-4.66827

>  <filename>  (1) 
FC(F)(Oc1cccc(Cl)c1)c1cccnc1

$$$$
