
     RDKit          3D

 37 39  0  0  0  0  0  0  0  0999 V2000
    7.1852   -4.7685   28.8138 F   0  0  0  0  0  0  0  0  0  0  0  0
    7.6860   -5.3379   27.7113 C   0  0  0  0  0  0  0  0  0  0  0  0
    8.8391   -5.9424   28.0402 F   0  0  0  0  0  0  0  0  0  0  0  0
    6.5327   -6.6132   27.2079 Cl  0  0  0  0  0  0  0  0  0  0  0  0
    7.9000   -4.3548   26.6167 C   0  0  0  0  0  0  0  0  0  0  0  0
    7.4870   -3.0153   26.6546 C   0  0  0  0  0  0  0  0  0  0  0  0
    7.6522   -2.2678   25.5060 C   0  0  0  0  0  0  0  0  0  0  0  0
    8.1958   -2.8759   24.3550 C   0  0  0  0  0  0  0  0  0  0  0  0
    8.3168   -2.1723   23.1778 N   0  0  0  0  0  0  0  0  0  0  0  0
    8.6043   -0.7330   23.1014 C   0  0  0  0  0  0  0  0  0  0  0  0
    7.5392    0.0306   22.2841 C   0  0  0  0  0  0  0  0  0  0  0  0
    7.3556   -0.5760   20.9642 N   0  0  0  0  0  0  0  0  0  0  0  0
    6.6811    0.0772   19.9263 C   0  0  0  0  0  0  0  0  0  0  0  0
    5.4625    0.7399   20.1536 C   0  0  0  0  0  0  0  0  0  0  0  0
    4.8161    1.3543   19.0770 C   0  0  0  0  0  0  0  0  0  0  0  0
    5.4014    1.3171   17.8067 C   0  0  0  0  0  0  0  0  0  0  0  0
    6.5593    0.6829   17.5571 N   0  0  0  0  0  0  0  0  0  0  0  0
    7.1619    0.0733   18.5874 C   0  0  0  0  0  0  0  0  0  0  0  0
    8.0882   -0.4545   18.3595 H   0  0  0  0  0  0  0  0  0  0  0  0
    4.9201    1.8023   16.9597 H   0  0  0  0  0  0  0  0  0  0  0  0
    3.8704    1.8644   19.2176 H   0  0  0  0  0  0  0  0  0  0  0  0
    5.0365    0.7362   21.1570 H   0  0  0  0  0  0  0  0  0  0  0  0
    7.9135   -1.8986   20.7166 C   0  0  0  0  0  0  0  0  0  0  0  0
    7.8934   -2.8340   21.9392 C   0  0  0  0  0  0  0  0  0  0  0  0
    8.5514   -3.6878   21.7335 H   0  0  0  0  0  0  0  0  0  0  0  0
    6.8788   -3.2474   22.0590 H   0  0  0  0  0  0  0  0  0  0  0  0
    7.2734   -2.3563   19.9611 H   0  0  0  0  0  0  0  0  0  0  0  0
    8.9453   -1.8427   20.3282 H   0  0  0  0  0  0  0  0  0  0  0  0
    7.8703    1.0715   22.1701 H   0  0  0  0  0  0  0  0  0  0  0  0
    6.5916    0.0492   22.8449 H   0  0  0  0  0  0  0  0  0  0  0  0
    8.6788   -0.2976   24.1018 H   0  0  0  0  0  0  0  0  0  0  0  0
    9.5846   -0.5724   22.6237 H   0  0  0  0  0  0  0  0  0  0  0  0
    8.5914   -4.1602   24.3324 N   0  0  0  0  0  0  0  0  0  0  0  0
    8.4869   -4.8501   25.4588 C   0  0  0  0  0  0  0  0  0  0  0  0
    8.8746   -5.8671   25.4599 H   0  0  0  0  0  0  0  0  0  0  0  0
    7.3378   -1.2365   25.4465 H   0  0  0  0  0  0  0  0  0  0  0  0
    7.0744   -2.5663   27.5587 H   0  0  0  0  0  0  0  0  0  0  0  0
  1  2  1  0
  2  3  1  0
  2  4  1  0
  2  5  1  0
  5  6  2  0
  6  7  1  0
  7  8  2  0
  8  9  1  0
  9 10  1  0
 10 11  1  0
 11 12  1  0
 12 13  1  0
 13 14  2  0
 14 15  1  0
 15 16  2  0
 16 17  1  0
 17 18  2  0
 18 19  1  0
 16 20  1  0
 15 21  1  0
 14 22  1  0
 12 23  1  0
 23 24  1  0
 24 25  1  0
 24 26  1  0
 23 27  1  0
 23 28  1  0
 11 29  1  0
 11 30  1  0
 10 31  1  0
 10 32  1  0
  8 33  1  0
 33 34  2  0
 34 35  1  0
  7 36  1  0
  6 37  1  0
 34  5  1  0
 24  9  1  0
 18 13  1  0
M  END
>  <cnnaffinity>  (1) 
-5.21734

>  <filename>  (1) 
FC(F)(Cl)c1ccc(N2CCN(c3cccnc3)CC2)nc1

$$$$
