
     RDKit          3D

 32 34  0  0  0  0  0  0  0  0999 V2000
    9.0316   -0.3801   20.2194 H   0  0  0  0  0  0  0  0  0  0  0  0
    8.3575   -0.8463   20.9361 C   0  0  0  0  0  0  0  0  0  0  0  0
    8.9299   -1.5663   21.9022 N   0  0  0  0  0  0  0  0  0  0  0  0
    8.1184   -2.1995   22.7951 C   0  0  0  0  0  0  0  0  0  0  0  0
    8.7890   -3.1205   23.7778 C   0  0  0  0  0  0  0  0  0  0  0  0
   10.1984   -3.1815   23.7840 C   0  0  0  0  0  0  0  0  0  0  0  0
   10.7470   -2.5318   23.1129 H   0  0  0  0  0  0  0  0  0  0  0  0
   10.8872   -4.0640   24.6059 C   0  0  0  0  0  0  0  0  0  0  0  0
   11.9649   -4.1265   24.5316 H   0  0  0  0  0  0  0  0  0  0  0  0
   10.2005   -4.9116   25.4660 C   0  0  0  0  0  0  0  0  0  0  0  0
   10.7370   -5.6232   26.0914 H   0  0  0  0  0  0  0  0  0  0  0  0
    8.7974   -4.8569   25.4958 C   0  0  0  0  0  0  0  0  0  0  0  0
    8.0921   -5.8038   26.4385 C   0  0  0  0  0  0  0  0  0  0  0  0
    8.6099   -7.0348   26.2960 F   0  0  0  0  0  0  0  0  0  0  0  0
    8.2695   -5.4697   27.7317 F   0  0  0  0  0  0  0  0  0  0  0  0
    6.7663   -5.8895   26.2291 F   0  0  0  0  0  0  0  0  0  0  0  0
    8.0946   -3.9860   24.6479 C   0  0  0  0  0  0  0  0  0  0  0  0
    7.0063   -3.9937   24.6935 H   0  0  0  0  0  0  0  0  0  0  0  0
    6.7161   -2.0000   22.6991 C   0  0  0  0  0  0  0  0  0  0  0  0
    6.0462   -2.4281   23.4376 H   0  0  0  0  0  0  0  0  0  0  0  0
    6.1379   -1.2612   21.7329 N   0  0  0  0  0  0  0  0  0  0  0  0
    6.9500   -0.6808   20.8233 C   0  0  0  0  0  0  0  0  0  0  0  0
    6.3330    0.1155   19.7237 C   0  0  0  0  0  0  0  0  0  0  0  0
    6.9577    0.1314   18.4630 C   0  0  0  0  0  0  0  0  0  0  0  0
    7.8874   -0.4134   18.3049 H   0  0  0  0  0  0  0  0  0  0  0  0
    6.4943    0.7762   17.3907 N   0  0  0  0  0  0  0  0  0  0  0  0
    5.3638    1.4819   17.5404 C   0  0  0  0  0  0  0  0  0  0  0  0
    5.0105    2.0123   16.6574 H   0  0  0  0  0  0  0  0  0  0  0  0
    4.6647    1.5568   18.7488 C   0  0  0  0  0  0  0  0  0  0  0  0
    3.7674    2.1658   18.8010 H   0  0  0  0  0  0  0  0  0  0  0  0
    5.1497    0.8666   19.8623 C   0  0  0  0  0  0  0  0  0  0  0  0
    4.6266    0.9221   20.8184 H   0  0  0  0  0  0  0  0  0  0  0  0
  1  2  1  0
  2  3  2  0
  3  4  1  0
  4  5  1  0
  5  6  2  0
  6  7  1  0
  6  8  1  0
  8  9  1  0
  8 10  2  0
 10 11  1  0
 10 12  1  0
 12 13  1  0
 13 14  1  0
 13 15  1  0
 13 16  1  0
 12 17  2  0
 17 18  1  0
  4 19  2  0
 19 20  1  0
 19 21  1  0
 21 22  2  0
 22 23  1  0
 23 24  2  0
 24 25  1  0
 24 26  1  0
 26 27  2  0
 27 28  1  0
 27 29  1  0
 29 30  1  0
 29 31  2  0
 31 32  1  0
 22  2  1  0
 31 23  1  0
 17  5  1  0
M  END
>  <cnnaffinity>  (1) 
-4.98151

>  <filename>  (1) 
FC(F)(F)c1cccc(-c2cnc(-c3cccnc3)cn2)c1

$$$$
