
     RDKit          3D

 43 46  0  0  0  0  0  0  0  0999 V2000
   12.6340    3.6378   23.7868 F   0  0  0  0  0  0  0  0  0  0  0  0
   11.7044    2.6900   24.0203 C   0  0  0  0  0  0  0  0  0  0  0  0
   12.0512    2.0625   25.1616 F   0  0  0  0  0  0  0  0  0  0  0  0
   10.5365    3.3031   24.2377 F   0  0  0  0  0  0  0  0  0  0  0  0
   11.6367    1.6610   22.9112 C   0  0  0  0  0  0  0  0  0  0  0  0
   10.5813    1.5963   22.1154 N   0  0  0  0  0  0  0  0  0  0  0  0
   10.7488    0.5131   21.3676 N   0  0  0  0  0  0  0  0  0  0  0  0
    9.6275    0.0790   20.5592 C   0  0  0  0  0  0  0  0  0  0  0  0
    8.5981   -0.6559   21.3417 C   0  0  0  0  0  0  0  0  0  0  0  0
    8.7973   -1.4573   22.3624 N   0  0  0  0  0  0  0  0  0  0  0  0
    7.5722   -1.9868   22.5790 C   0  0  0  0  0  0  0  0  0  0  0  0
    7.3392   -2.9788   23.6759 C   0  0  0  0  0  0  0  0  0  0  0  0
    6.3864   -2.4579   24.7693 C   0  0  0  0  0  0  0  0  0  0  0  0
    5.7701   -3.7014   25.4283 C   0  0  0  0  0  0  0  0  0  0  0  0
    5.9977   -4.8818   24.4532 C   0  0  0  0  0  0  0  0  0  0  0  0
    6.7036   -4.3057   23.2137 C   0  0  0  0  0  0  0  0  0  0  0  0
    5.9707   -4.0951   22.4276 H   0  0  0  0  0  0  0  0  0  0  0  0
    7.4519   -4.9885   22.7933 H   0  0  0  0  0  0  0  0  0  0  0  0
    6.6135   -5.6501   24.9331 H   0  0  0  0  0  0  0  0  0  0  0  0
    5.0555   -5.3647   24.1732 H   0  0  0  0  0  0  0  0  0  0  0  0
    6.2455   -3.9087   26.3919 H   0  0  0  0  0  0  0  0  0  0  0  0
    4.7061   -3.5371   25.6301 H   0  0  0  0  0  0  0  0  0  0  0  0
    6.9100   -1.8031   25.4747 H   0  0  0  0  0  0  0  0  0  0  0  0
    5.6025   -1.8594   24.3018 H   0  0  0  0  0  0  0  0  0  0  0  0
    8.3282   -3.1695   24.1085 H   0  0  0  0  0  0  0  0  0  0  0  0
    6.6274   -1.5648   21.7536 N   0  0  0  0  0  0  0  0  0  0  0  0
    7.2977   -0.7161   20.9367 N   0  0  0  0  0  0  0  0  0  0  0  0
    6.6342   -0.0249   19.8948 C   0  0  0  0  0  0  0  0  0  0  0  0
    5.4258    0.6278   20.1527 C   0  0  0  0  0  0  0  0  0  0  0  0
    4.8123    1.3087   19.1023 C   0  0  0  0  0  0  0  0  0  0  0  0
    5.4166    1.3002   17.8382 C   0  0  0  0  0  0  0  0  0  0  0  0
    6.5616    0.6488   17.5765 N   0  0  0  0  0  0  0  0  0  0  0  0
    7.1549    0.0060   18.5865 C   0  0  0  0  0  0  0  0  0  0  0  0
    8.0879   -0.5065   18.3482 H   0  0  0  0  0  0  0  0  0  0  0  0
    4.9659    1.8350   17.0090 H   0  0  0  0  0  0  0  0  0  0  0  0
    3.8809    1.8419   19.2549 H   0  0  0  0  0  0  0  0  0  0  0  0
    5.0000    0.5856   21.1563 H   0  0  0  0  0  0  0  0  0  0  0  0
    9.1939    0.9804   20.1295 H   0  0  0  0  0  0  0  0  0  0  0  0
    9.9732   -0.5601   19.7468 H   0  0  0  0  0  0  0  0  0  0  0  0
   11.9045   -0.1310   21.6721 C   0  0  0  0  0  0  0  0  0  0  0  0
   12.5233    0.5821   22.6743 C   0  0  0  0  0  0  0  0  0  0  0  0
   13.4450    0.3530   23.2016 H   0  0  0  0  0  0  0  0  0  0  0  0
   12.1762   -1.0348   21.1408 H   0  0  0  0  0  0  0  0  0  0  0  0
  1  2  1  0
  2  3  1  0
  2  4  1  0
  2  5  1  0
  5  6  2  0
  6  7  1  0
  7  8  1  0
  8  9  1  0
  9 10  2  0
 10 11  1  0
 11 12  1  0
 12 13  1  0
 13 14  1  0
 14 15  1  0
 15 16  1  0
 16 17  1  0
 16 18  1  0
 15 19  1  0
 15 20  1  0
 14 21  1  0
 14 22  1  0
 13 23  1  0
 13 24  1  0
 12 25  1  0
 11 26  2  0
 26 27  1  0
 27 28  1  0
 28 29  2  0
 29 30  1  0
 30 31  2  0
 31 32  1  0
 32 33  2  0
 33 34  1  0
 31 35  1  0
 30 36  1  0
 29 37  1  0
  8 38  1  0
  8 39  1  0
  7 40  1  0
 40 41  2  0
 41 42  1  0
 40 43  1  0
 41  5  1  0
 27  9  1  0
 33 28  1  0
 16 12  1  0
M  END
>  <cnnaffinity>  (1) 
-6.37681

>  <filename>  (1) 
FC(F)(F)c1ccn(Cc2nc(C3CCCC3)nn2-c2cccnc2)n1

$$$$
