
     RDKit          3D

 40 42  0  0  0  0  0  0  0  0999 V2000
   12.5293    1.3360   24.6128 F   0  0  0  0  0  0  0  0  0  0  0  0
   11.2965    0.8535   24.7250 C   0  0  0  0  0  0  0  0  0  0  0  0
   11.1455   -0.0681   23.7209 F   0  0  0  0  0  0  0  0  0  0  0  0
   11.2431    0.1432   25.8730 F   0  0  0  0  0  0  0  0  0  0  0  0
   10.1565    1.9052   24.6414 C   0  0  0  0  0  0  0  0  0  0  0  0
   10.4865    3.1910   24.4741 N   0  0  0  0  0  0  0  0  0  0  0  0
    9.5246    4.1202   24.4065 C   0  0  0  0  0  0  0  0  0  0  0  0
    8.1669    3.8115   24.5039 C   0  0  0  0  0  0  0  0  0  0  0  0
    7.8102    2.4693   24.6576 C   0  0  0  0  0  0  0  0  0  0  0  0
    8.8068    1.4827   24.7205 C   0  0  0  0  0  0  0  0  0  0  0  0
    8.4414    0.0144   24.7445 C   0  0  0  0  0  0  0  0  0  0  0  0
    8.5202   -0.5551   23.3520 N   0  0  0  0  0  4  0  0  0  0  0  0
    8.4796   -2.0568   23.2788 C   0  0  0  0  0  0  0  0  0  0  0  0
    8.6977   -2.5074   21.8342 C   0  0  0  0  0  0  0  0  0  0  0  0
    7.6865   -1.8746   20.8973 C   0  0  0  0  0  0  0  0  0  0  0  0
    7.2710   -0.6166   21.0883 C   0  0  0  0  0  0  0  0  0  0  0  0
    6.5974    0.1433   19.9891 C   0  0  0  0  0  0  0  0  0  0  0  0
    5.3875    0.8354   20.1611 C   0  0  0  0  0  0  0  0  0  0  0  0
    4.7759    1.4234   19.0510 C   0  0  0  0  0  0  0  0  0  0  0  0
    5.4156    1.3463   17.8092 C   0  0  0  0  0  0  0  0  0  0  0  0
    6.5881    0.7202   17.6196 N   0  0  0  0  0  0  0  0  0  0  0  0
    7.1438    0.1334   18.6837 C   0  0  0  0  0  0  0  0  0  0  0  0
    8.0839   -0.3908   18.5074 H   0  0  0  0  0  0  0  0  0  0  0  0
    4.9766    1.8018   16.9263 H   0  0  0  0  0  0  0  0  0  0  0  0
    3.8273    1.9435   19.1234 H   0  0  0  0  0  0  0  0  0  0  0  0
    4.9169    0.8950   21.1442 H   0  0  0  0  0  0  0  0  0  0  0  0
    7.3933    0.0422   22.4483 C   0  0  0  0  0  0  0  0  0  0  0  0
    6.4456   -0.0932   22.9838 H   0  0  0  0  0  0  0  0  0  0  0  0
    7.5680    1.1088   22.3262 H   0  0  0  0  0  0  0  0  0  0  0  0
    7.2657   -2.4312   20.0625 H   0  0  0  0  0  0  0  0  0  0  0  0
    8.6469   -3.5988   21.7857 H   0  0  0  0  0  0  0  0  0  0  0  0
    9.7151   -2.2076   21.5303 H   0  0  0  0  0  0  0  0  0  0  0  0
    9.2285   -2.5015   23.9446 H   0  0  0  0  0  0  0  0  0  0  0  0
    7.5048   -2.4079   23.6329 H   0  0  0  0  0  0  0  0  0  0  0  0
    9.4235   -0.2490   22.9405 H   0  0  0  0  0  0  0  0  0  0  0  0
    9.1077   -0.5499   25.3995 H   0  0  0  0  0  0  0  0  0  0  0  0
    7.4217   -0.1120   25.1302 H   0  0  0  0  0  0  0  0  0  0  0  0
    6.7613    2.1715   24.6524 H   0  0  0  0  0  0  0  0  0  0  0  0
    7.4242    4.5991   24.4396 H   0  0  0  0  0  0  0  0  0  0  0  0
    9.8648    5.1435   24.2678 H   0  0  0  0  0  0  0  0  0  0  0  0
  1  2  1  0
  2  3  1  0
  2  4  1  0
  2  5  1  0
  5  6  2  0
  6  7  1  0
  7  8  2  0
  8  9  1  0
  9 10  2  0
 10 11  1  0
 11 12  1  0
 12 13  1  0
 13 14  1  0
 14 15  1  0
 15 16  2  0
 16 17  1  0
 17 18  2  0
 18 19  1  0
 19 20  2  0
 20 21  1  0
 21 22  2  0
 22 23  1  0
 20 24  1  0
 19 25  1  0
 18 26  1  0
 16 27  1  0
 27 28  1  0
 27 29  1  0
 15 30  1  0
 14 31  1  0
 14 32  1  0
 13 33  1  0
 13 34  1  0
 12 35  1  0
 11 36  1  0
 11 37  1  0
  9 38  1  0
  8 39  1  0
  7 40  1  0
 10  5  1  0
 27 12  1  0
 22 17  1  0
M  CHG  1  12   1
M  END
>  <cnnaffinity>  (1) 
-5.55459

>  <filename>  (1) 
FC(F)(F)c1ncccc1C[NH+]1CCC=C(c2cccnc2)C1

$$$$
