
     RDKit          3D

 28 29  0  0  0  0  0  0  0  0999 V2000
    4.9313    1.7959   16.9835 H   0  0  0  0  0  0  0  0  0  0  0  0
    5.3959    1.2907   17.8283 C   0  0  0  0  0  0  0  0  0  0  0  0
    6.5513    0.6582   17.5711 N   0  0  0  0  0  0  0  0  0  0  0  0
    7.1533    0.0521   18.6023 C   0  0  0  0  0  0  0  0  0  0  0  0
    8.0991   -0.4393   18.3728 H   0  0  0  0  0  0  0  0  0  0  0  0
    6.6618    0.0390   19.9146 C   0  0  0  0  0  0  0  0  0  0  0  0
    7.4028   -0.7482   20.9682 C   0  0  0  0  0  0  0  0  0  0  0  0
    7.1646   -2.1463   20.8090 O   0  0  0  0  0  0  0  0  0  0  0  0
    5.8239   -2.5640   20.9316 C   0  0  0  0  0  0  0  0  0  0  0  0
    5.2957   -2.4569   19.9770 H   0  0  0  0  0  0  0  0  0  0  0  0
    5.2671   -1.9974   21.6916 H   0  0  0  0  0  0  0  0  0  0  0  0
    5.7791   -4.0328   21.3361 C   0  0  0  0  0  0  0  0  0  0  0  0
    6.5602   -4.2894   22.3900 F   0  0  0  0  0  0  0  0  0  0  0  0
    6.1316   -4.8465   20.3260 F   0  0  0  0  0  0  0  0  0  0  0  0
    4.5177   -4.3467   21.6958 F   0  0  0  0  0  0  0  0  0  0  0  0
    7.2661   -0.2887   22.4421 C   0  0  0  0  0  0  0  0  0  0  0  0
    6.6588    0.6105   22.5608 H   0  0  0  0  0  0  0  0  0  0  0  0
    6.8626   -1.0662   23.0983 H   0  0  0  0  0  0  0  0  0  0  0  0
    8.8041   -0.0800   22.5180 C   0  0  0  0  0  0  0  0  0  0  0  0
    9.3272   -0.7172   23.2408 H   0  0  0  0  0  0  0  0  0  0  0  0
    9.1147    0.9513   22.7218 H   0  0  0  0  0  0  0  0  0  0  0  0
    8.9236   -0.5129   21.0316 C   0  0  0  0  0  0  0  0  0  0  0  0
    9.2579    0.2766   20.3552 H   0  0  0  0  0  0  0  0  0  0  0  0
    9.5034   -1.4163   20.8170 H   0  0  0  0  0  0  0  0  0  0  0  0
    5.4307    0.6670   20.1518 C   0  0  0  0  0  0  0  0  0  0  0  0
    4.9890    0.6541   21.1502 H   0  0  0  0  0  0  0  0  0  0  0  0
    4.7965    1.3152   19.0914 C   0  0  0  0  0  0  0  0  0  0  0  0
    3.8665    1.8512   19.2371 H   0  0  0  0  0  0  0  0  0  0  0  0
  1  2  1  0
  2  3  2  0
  3  4  1  0
  4  5  1  0
  4  6  2  0
  6  7  1  0
  7  8  1  0
  8  9  1  0
  9 10  1  0
  9 11  1  0
  9 12  1  0
 12 13  1  0
 12 14  1  0
 12 15  1  0
  7 16  1  0
 16 17  1  0
 16 18  1  0
 16 19  1  0
 19 20  1  0
 19 21  1  0
 19 22  1  0
 22 23  1  0
 22 24  1  0
  6 25  1  0
 25 26  1  0
 25 27  2  0
 27 28  1  0
 27  2  1  0
 22  7  1  0
M  END
>  <cnnaffinity>  (1) 
-4.28093

>  <filename>  (1) 
FC(F)(F)COC1(c2cccnc2)CCC1

$$$$
