
     RDKit          3D

 28 29  0  0  0  0  0  0  0  0999 V2000
    4.9135    1.7848   16.9916 H   0  0  0  0  0  0  0  0  0  0  0  0
    5.4009    1.2964   17.8347 C   0  0  0  0  0  0  0  0  0  0  0  0
    6.5616    0.6775   17.5757 N   0  0  0  0  0  0  0  0  0  0  0  0
    7.1762    0.0641   18.5943 C   0  0  0  0  0  0  0  0  0  0  0  0
    8.1164   -0.4308   18.3678 H   0  0  0  0  0  0  0  0  0  0  0  0
    6.6662    0.0098   19.9076 C   0  0  0  0  0  0  0  0  0  0  0  0
    7.3513   -0.6851   20.9516 N   0  0  0  0  0  0  0  0  0  0  0  0
    6.7970   -1.7083   21.6963 C   0  0  0  0  0  0  0  0  0  0  0  0
    5.7874   -2.0440   21.4785 H   0  0  0  0  0  0  0  0  0  0  0  0
    7.7199   -2.1315   22.6182 C   0  0  0  0  0  0  0  0  0  0  0  0
    7.5811   -2.9090   23.3626 H   0  0  0  0  0  0  0  0  0  0  0  0
    8.8785   -1.3335   22.4430 C   0  0  0  0  0  0  0  0  0  0  0  0
    9.7858   -1.3326   23.0382 H   0  0  0  0  0  0  0  0  0  0  0  0
    8.6341   -0.4447   21.4256 C   0  0  0  0  0  0  0  0  0  0  0  0
    9.4920    0.6821   20.9543 C   0  0  0  0  0  0  0  0  0  0  0  0
    9.5923    0.6669   19.8639 H   0  0  0  0  0  0  0  0  0  0  0  0
   10.4977    0.5254   21.3589 H   0  0  0  0  0  0  0  0  0  0  0  0
    8.9803    2.0681   21.3813 C   0  0  0  0  0  0  0  0  0  0  0  0
    7.9695    2.2421   21.0063 H   0  0  0  0  0  0  0  0  0  0  0  0
    9.6314    2.8459   20.9818 H   0  0  0  0  0  0  0  0  0  0  0  0
    8.9461    2.2851   22.8817 C   0  0  0  0  0  0  0  0  0  0  0  0
    8.0262    1.5253   23.4969 F   0  0  0  0  0  0  0  0  0  0  0  0
   10.1349    2.0051   23.4553 F   0  0  0  0  0  0  0  0  0  0  0  0
    8.6535    3.5641   23.1847 F   0  0  0  0  0  0  0  0  0  0  0  0
    5.4395    0.6450   20.1619 C   0  0  0  0  0  0  0  0  0  0  0  0
    5.0127    0.6282   21.1687 H   0  0  0  0  0  0  0  0  0  0  0  0
    4.8087    1.3108   19.1050 C   0  0  0  0  0  0  0  0  0  0  0  0
    3.8741    1.8430   19.2592 H   0  0  0  0  0  0  0  0  0  0  0  0
  1  2  1  0
  2  3  2  0
  3  4  1  0
  4  5  1  0
  4  6  2  0
  6  7  1  0
  7  8  1  0
  8  9  1  0
  8 10  2  0
 10 11  1  0
 10 12  1  0
 12 13  1  0
 12 14  2  0
 14 15  1  0
 15 16  1  0
 15 17  1  0
 15 18  1  0
 18 19  1  0
 18 20  1  0
 18 21  1  0
 21 22  1  0
 21 23  1  0
 21 24  1  0
  6 25  1  0
 25 26  1  0
 25 27  2  0
 27 28  1  0
 27  2  1  0
 14  7  1  0
M  END
>  <cnnaffinity>  (1) 
-4.7789

>  <filename>  (1) 
FC(F)(F)CCc1cccn1-c1cccnc1

$$$$
