
     RDKit          3D

 47 50  0  0  0  0  0  0  0  0999 V2000
    4.5165   -4.6413   25.9009 F   0  0  0  0  0  0  0  0  0  0  0  0
    4.8031   -3.4697   25.2390 C   0  0  0  0  0  0  0  0  0  0  0  0
    3.6900   -2.6754   25.3626 F   0  0  0  0  0  0  0  0  0  0  0  0
    5.9920   -2.8051   25.9441 C   0  0  0  0  0  0  0  0  0  0  0  0
    6.8105   -1.9508   24.9654 C   0  0  0  0  0  0  0  0  0  0  0  0
    7.3922   -2.8082   23.7821 C   0  0  0  0  0  0  0  0  0  0  0  0
    7.6511   -1.9267   22.5899 C   0  0  0  0  0  0  0  0  0  0  0  0
    6.7143   -1.5553   21.7346 N   0  0  0  0  0  0  0  0  0  0  0  0
    7.3645   -0.6680   20.9383 N   0  0  0  0  0  0  0  0  0  0  0  0
    6.6634    0.0042   19.8992 C   0  0  0  0  0  0  0  0  0  0  0  0
    5.4466    0.6403   20.1629 C   0  0  0  0  0  0  0  0  0  0  0  0
    4.8136    1.3082   19.1100 C   0  0  0  0  0  0  0  0  0  0  0  0
    5.3995    1.2952   17.8392 C   0  0  0  0  0  0  0  0  0  0  0  0
    6.5546    0.6655   17.5766 N   0  0  0  0  0  0  0  0  0  0  0  0
    7.1673    0.0431   18.5893 C   0  0  0  0  0  0  0  0  0  0  0  0
    8.1095   -0.4473   18.3532 H   0  0  0  0  0  0  0  0  0  0  0  0
    4.9307    1.7999   16.9965 H   0  0  0  0  0  0  0  0  0  0  0  0
    3.8800    1.8382   19.2604 H   0  0  0  0  0  0  0  0  0  0  0  0
    5.0189    0.6022   21.1669 H   0  0  0  0  0  0  0  0  0  0  0  0
    8.6426   -0.5179   21.3913 C   0  0  0  0  0  0  0  0  0  0  0  0
    9.5301    0.6013   20.9621 C   0  0  0  0  0  0  0  0  0  0  0  0
    9.0483    1.9859   21.4706 C   0  0  0  0  0  0  0  0  0  0  0  0
    8.8526    2.0420   22.9133 N   0  0  0  0  0  0  0  0  0  0  0  0
    9.8538    2.0631   23.8503 C   0  0  0  0  0  0  0  0  0  0  0  0
    9.3019    1.9021   25.0991 C   0  0  0  0  0  0  0  0  0  0  0  0
    7.8962    1.7629   24.9140 C   0  0  0  0  0  0  0  0  0  0  0  0
    7.6631    1.8392   23.5654 C   0  0  0  0  0  0  0  0  0  0  0  0
    6.7675    1.6987   22.9756 H   0  0  0  0  0  0  0  0  0  0  0  0
    7.1520    1.5871   25.6846 H   0  0  0  0  0  0  0  0  0  0  0  0
    9.8463    1.8739   26.0349 H   0  0  0  0  0  0  0  0  0  0  0  0
   10.8790    2.1652   23.5260 H   0  0  0  0  0  0  0  0  0  0  0  0
    8.0992    2.2587   20.9932 H   0  0  0  0  0  0  0  0  0  0  0  0
    9.7791    2.7570   21.2021 H   0  0  0  0  0  0  0  0  0  0  0  0
    9.5665    0.6188   19.8730 H   0  0  0  0  0  0  0  0  0  0  0  0
   10.5367    0.3833   21.3280 H   0  0  0  0  0  0  0  0  0  0  0  0
    8.8648   -1.3477   22.3952 N   0  0  0  0  0  0  0  0  0  0  0  0
    6.5021   -4.0431   23.4321 C   0  0  0  0  0  0  0  0  0  0  0  0
    5.0206   -3.7775   23.7519 C   0  0  0  0  0  0  0  0  0  0  0  0
    4.3703   -4.6157   23.4835 H   0  0  0  0  0  0  0  0  0  0  0  0
    4.6982   -2.9223   23.1552 H   0  0  0  0  0  0  0  0  0  0  0  0
    6.8547   -4.9173   23.9974 H   0  0  0  0  0  0  0  0  0  0  0  0
    6.6145   -4.2928   22.3701 H   0  0  0  0  0  0  0  0  0  0  0  0
    8.3885   -3.1583   24.0707 H   0  0  0  0  0  0  0  0  0  0  0  0
    6.1580   -1.1544   24.5701 H   0  0  0  0  0  0  0  0  0  0  0  0
    7.6403   -1.4630   25.4898 H   0  0  0  0  0  0  0  0  0  0  0  0
    5.6143   -2.2196   26.7900 H   0  0  0  0  0  0  0  0  0  0  0  0
    6.6172   -3.6058   26.3586 H   0  0  0  0  0  0  0  0  0  0  0  0
  1  2  1  0
  2  3  1  0
  2  4  1  0
  4  5  1  0
  5  6  1  0
  6  7  1  0
  7  8  2  0
  8  9  1  0
  9 10  1  0
 10 11  2  0
 11 12  1  0
 12 13  2  0
 13 14  1  0
 14 15  2  0
 15 16  1  0
 13 17  1  0
 12 18  1  0
 11 19  1  0
  9 20  1  0
 20 21  1  0
 21 22  1  0
 22 23  1  0
 23 24  1  0
 24 25  2  0
 25 26  1  0
 26 27  2  0
 27 28  1  0
 26 29  1  0
 25 30  1  0
 24 31  1  0
 22 32  1  0
 22 33  1  0
 21 34  1  0
 21 35  1  0
 20 36  2  0
  6 37  1  0
 37 38  1  0
 38 39  1  0
 38 40  1  0
 37 41  1  0
 37 42  1  0
  6 43  1  0
  5 44  1  0
  5 45  1  0
  4 46  1  0
  4 47  1  0
 38  2  1  0
 36  7  1  0
 15 10  1  0
 27 23  1  0
M  END
>  <cnnaffinity>  (1) 
-5.9914

>  <filename>  (1) 
FC1(F)CCC(c2nc(CCn3cccc3)n(-c3cccnc3)n2)CC1

$$$$
