
     RDKit          3D

 44 47  0  0  0  0  0  0  0  0999 V2000
    5.5191   -6.0283   26.4539 F   0  0  0  0  0  0  0  0  0  0  0  0
    5.6166   -5.1262   25.4264 C   0  0  0  0  0  0  0  0  0  0  0  0
    4.3361   -4.9521   24.9538 F   0  0  0  0  0  0  0  0  0  0  0  0
    6.1314   -3.7975   25.9590 C   0  0  0  0  0  0  0  0  0  0  0  0
    6.3931   -2.7933   24.8232 C   0  0  0  0  0  0  0  0  0  0  0  0
    7.3664   -3.3840   23.7585 C   0  0  0  0  0  0  0  0  0  0  0  0
    7.6424   -2.4055   22.6485 C   0  0  0  0  0  0  0  0  0  0  0  0
    6.7643   -2.1309   21.6999 N   0  0  0  0  0  0  0  0  0  0  0  0
    7.3752   -1.1534   20.9856 N   0  0  0  0  0  0  0  0  0  0  0  0
    6.7157   -0.5959   19.8509 C   0  0  0  0  0  0  0  0  0  0  0  0
    5.4465   -0.0220   20.0023 C   0  0  0  0  0  0  0  0  0  0  0  0
    4.8809    0.6189   18.8979 C   0  0  0  0  0  0  0  0  0  0  0  0
    5.5741    0.6209   17.6813 C   0  0  0  0  0  0  0  0  0  0  0  0
    6.7564    0.0090   17.5128 N   0  0  0  0  0  0  0  0  0  0  0  0
    7.3063   -0.5898   18.5762 C   0  0  0  0  0  0  0  0  0  0  0  0
    8.2649   -1.0817   18.4112 H   0  0  0  0  0  0  0  0  0  0  0  0
    5.1635    1.1244   16.8079 H   0  0  0  0  0  0  0  0  0  0  0  0
    3.9195    1.1173   18.9677 H   0  0  0  0  0  0  0  0  0  0  0  0
    4.9448   -0.0643   20.9707 H   0  0  0  0  0  0  0  0  0  0  0  0
    8.5642   -0.8493   21.5802 C   0  0  0  0  0  0  0  0  0  0  0  0
    9.4320    0.2993   21.1622 C   0  0  0  0  0  0  0  0  0  0  0  0
    8.8532    1.6361   21.5816 C   0  0  0  0  0  0  0  0  0  0  0  0
    9.4362    2.0634   22.9678 C   0  0  0  0  0  0  0  0  0  0  0  0
    8.8590    3.1884   23.2898 C   0  0  0  0  0  0  0  0  0  0  0  0
    9.0028    3.5055   23.1588 C   0  0  0  0  0  0  0  0  0  0  0  0
    7.8446    2.1804   21.0500 N   0  0  0  0  0  0  0  0  0  0  0  0
    7.5694    1.7338   20.1683 H   0  0  0  0  0  0  0  0  0  0  0  0
    9.3955    4.3168   22.4544 H   0  0  0  0  0  0  0  0  0  0  0  0
    8.2336    3.9134   24.0271 H   0  0  0  0  0  0  0  0  0  0  0  0
    8.7604    1.6486   23.6872 H   0  0  0  0  0  0  0  0  0  0  0  0
   10.3867    0.1471   21.6667 H   0  0  0  0  0  0  0  0  0  0  0  0
    9.5926    0.2454   20.0784 H   0  0  0  0  0  0  0  0  0  0  0  0
    8.7818   -1.6689   22.5933 N   0  0  0  0  0  0  0  0  0  0  0  0
    6.8219   -4.7238   23.2072 C   0  0  0  0  0  0  0  0  0  0  0  0
    6.4767   -5.7211   24.3211 C   0  0  0  0  0  0  0  0  0  0  0  0
    7.3948   -6.0873   24.7963 H   0  0  0  0  0  0  0  0  0  0  0  0
    5.9353   -6.5789   23.9102 H   0  0  0  0  0  0  0  0  0  0  0  0
    5.9310   -4.5125   22.6013 H   0  0  0  0  0  0  0  0  0  0  0  0
    7.5622   -5.1756   22.5350 H   0  0  0  0  0  0  0  0  0  0  0  0
    8.3381   -3.5485   24.2424 H   0  0  0  0  0  0  0  0  0  0  0  0
    5.4401   -2.5388   24.3393 H   0  0  0  0  0  0  0  0  0  0  0  0
    6.7988   -1.8612   25.2380 H   0  0  0  0  0  0  0  0  0  0  0  0
    7.0562   -4.0031   26.5124 H   0  0  0  0  0  0  0  0  0  0  0  0
    5.3989   -3.4134   26.6766 H   0  0  0  0  0  0  0  0  0  0  0  0
  1  2  1  0
  2  3  1  0
  2  4  1  0
  4  5  1  0
  5  6  1  0
  6  7  1  0
  7  8  2  0
  8  9  1  0
  9 10  1  0
 10 11  2  0
 11 12  1  0
 12 13  2  0
 13 14  1  0
 14 15  2  0
 15 16  1  0
 13 17  1  0
 12 18  1  0
 11 19  1  0
  9 20  1  0
 20 21  1  0
 21 22  1  0
 22 23  2  0
 23 24  1  0
 24 25  2  0
 25 26  1  0
 26 27  1  0
 25 28  1  0
 24 29  1  0
 23 30  1  0
 21 31  1  0
 21 32  1  0
 20 33  2  0
  6 34  1  0
 34 35  1  0
 35 36  1  0
 35 37  1  0
 34 38  1  0
 34 39  1  0
  6 40  1  0
  5 41  1  0
  5 42  1  0
  4 43  1  0
  4 44  1  0
 35  2  1  0
 33  7  1  0
 15 10  1  0
 26 22  1  0
M  END
>  <cnnaffinity>  (1) 
-5.87509

>  <filename>  (1) 
FC1(F)CCC(c2nc(Cc3ccc[nH]3)n(-c3cccnc3)n2)CC1

$$$$
