
     RDKit          3D

 46 49  0  0  0  0  0  0  0  0999 V2000
    7.7473   -4.8351   27.4367 F   0  0  0  0  0  0  0  0  0  0  0  0
    8.0522   -3.9962   26.3982 C   0  0  0  0  0  0  0  0  0  0  0  0
    9.2421   -3.3969   26.7390 F   0  0  0  0  0  0  0  0  0  0  0  0
    8.2538   -4.8003   25.1194 C   0  0  0  0  0  0  0  0  0  0  0  0
    8.5164   -3.8892   23.9101 C   0  0  0  0  0  0  0  0  0  0  0  0
    7.4039   -2.8273   23.7577 C   0  0  0  0  0  0  0  0  0  0  0  0
    7.6568   -1.9165   22.5940 C   0  0  0  0  0  0  0  0  0  0  0  0
    6.7263   -1.5750   21.7311 N   0  0  0  0  0  0  0  0  0  0  0  0
    7.3584   -0.6640   20.9396 N   0  0  0  0  0  0  0  0  0  0  0  0
    6.6577    0.0054   19.9002 C   0  0  0  0  0  0  0  0  0  0  0  0
    5.4393    0.6441   20.1614 C   0  0  0  0  0  0  0  0  0  0  0  0
    4.8113    1.3115   19.1075 C   0  0  0  0  0  0  0  0  0  0  0  0
    5.4002    1.2962   17.8370 C   0  0  0  0  0  0  0  0  0  0  0  0
    6.5596    0.6730   17.5772 N   0  0  0  0  0  0  0  0  0  0  0  0
    7.1697    0.0523   18.5925 C   0  0  0  0  0  0  0  0  0  0  0  0
    8.1154   -0.4346   18.3687 H   0  0  0  0  0  0  0  0  0  0  0  0
    4.9189    1.7851   16.9930 H   0  0  0  0  0  0  0  0  0  0  0  0
    3.8792    1.8402   19.2606 H   0  0  0  0  0  0  0  0  0  0  0  0
    5.0106    0.6064   21.1654 H   0  0  0  0  0  0  0  0  0  0  0  0
    8.6299   -0.4880   21.4059 C   0  0  0  0  0  0  0  0  0  0  0  0
    9.5098    0.6305   20.9488 C   0  0  0  0  0  0  0  0  0  0  0  0
    9.0340    2.0098   21.4708 C   0  0  0  0  0  0  0  0  0  0  0  0
    8.9270    2.0231   22.9714 C   0  0  0  0  0  0  0  0  0  0  0  0
    7.8185    1.7409   23.7321 C   0  0  0  0  0  0  0  0  0  0  0  0
    8.2313    1.7390   25.0193 N   0  0  0  0  0  0  0  0  0  0  0  0
    9.5402    1.9879   25.1654 N   0  0  0  0  0  0  0  0  0  0  0  0
    9.9687    2.1525   23.9202 C   0  0  0  0  0  0  0  0  0  0  0  0
   11.0133    2.3637   23.7338 H   0  0  0  0  0  0  0  0  0  0  0  0
    7.6826    1.5595   25.8440 H   0  0  0  0  0  0  0  0  0  0  0  0
    6.8005    1.5022   23.4477 H   0  0  0  0  0  0  0  0  0  0  0  0
    8.0616    2.2526   21.0241 H   0  0  0  0  0  0  0  0  0  0  0  0
    9.7317    2.7838   21.1369 H   0  0  0  0  0  0  0  0  0  0  0  0
    9.5649    0.6493   19.8586 H   0  0  0  0  0  0  0  0  0  0  0  0
   10.5167    0.4193   21.3166 H   0  0  0  0  0  0  0  0  0  0  0  0
    8.8571   -1.2969   22.4188 N   0  0  0  0  0  0  0  0  0  0  0  0
    7.2344   -2.0093   25.0644 C   0  0  0  0  0  0  0  0  0  0  0  0
    6.9789   -2.9229   26.2704 C   0  0  0  0  0  0  0  0  0  0  0  0
    6.0197   -3.4399   26.1590 H   0  0  0  0  0  0  0  0  0  0  0  0
    6.9397   -2.3538   27.2043 H   0  0  0  0  0  0  0  0  0  0  0  0
    6.4113   -1.2901   24.9597 H   0  0  0  0  0  0  0  0  0  0  0  0
    8.1580   -1.4452   25.2356 H   0  0  0  0  0  0  0  0  0  0  0  0
    6.4573   -3.3328   23.5451 H   0  0  0  0  0  0  0  0  0  0  0  0
    9.4842   -3.3852   24.0302 H   0  0  0  0  0  0  0  0  0  0  0  0
    8.5888   -4.4941   22.9994 H   0  0  0  0  0  0  0  0  0  0  0  0
    9.0743   -5.5074   25.2751 H   0  0  0  0  0  0  0  0  0  0  0  0
    7.3409   -5.3872   24.9643 H   0  0  0  0  0  0  0  0  0  0  0  0
  1  2  1  0
  2  3  1  0
  2  4  1  0
  4  5  1  0
  5  6  1  0
  6  7  1  0
  7  8  2  0
  8  9  1  0
  9 10  1  0
 10 11  2  0
 11 12  1  0
 12 13  2  0
 13 14  1  0
 14 15  2  0
 15 16  1  0
 13 17  1  0
 12 18  1  0
 11 19  1  0
  9 20  1  0
 20 21  1  0
 21 22  1  0
 22 23  1  0
 23 24  2  0
 24 25  1  0
 25 26  1  0
 26 27  2  0
 27 28  1  0
 25 29  1  0
 24 30  1  0
 22 31  1  0
 22 32  1  0
 21 33  1  0
 21 34  1  0
 20 35  2  0
  6 36  1  0
 36 37  1  0
 37 38  1  0
 37 39  1  0
 36 40  1  0
 36 41  1  0
  6 42  1  0
  5 43  1  0
  5 44  1  0
  4 45  1  0
  4 46  1  0
 37  2  1  0
 35  7  1  0
 15 10  1  0
 27 23  1  0
M  END
>  <cnnaffinity>  (1) 
-6.08326

>  <filename>  (1) 
FC1(F)CCC(c2nc(CCc3cn[nH]c3)n(-c3cccnc3)n2)CC1

$$$$
