
     RDKit          3D

 43 46  0  0  0  0  0  0  0  0999 V2000
    8.1134   -3.0285   27.2753 F   0  0  0  0  0  0  0  0  0  0  0  0
    8.5590   -2.1808   26.2853 C   0  0  0  0  0  0  0  0  0  0  0  0
    9.3604   -1.2622   26.9121 F   0  0  0  0  0  0  0  0  0  0  0  0
    9.3752   -2.9900   25.2887 C   0  0  0  0  0  0  0  0  0  0  0  0
    8.4963   -3.9281   24.4327 C   0  0  0  0  0  0  0  0  0  0  0  0
    7.2887   -3.2071   23.7910 C   0  0  0  0  0  0  0  0  0  0  0  0
    7.6987   -2.2606   22.6936 C   0  0  0  0  0  0  0  0  0  0  0  0
    6.8296   -1.9021   21.7693 N   0  0  0  0  0  0  0  0  0  0  0  0
    7.5014   -0.9514   21.0627 N   0  0  0  0  0  0  0  0  0  0  0  0
    6.8458   -0.2196   20.0291 C   0  0  0  0  0  0  0  0  0  0  0  0
    5.6440    0.4596   20.2818 C   0  0  0  0  0  0  0  0  0  0  0  0
    5.0648    1.1782   19.2317 C   0  0  0  0  0  0  0  0  0  0  0  0
    5.6769    1.1487   17.9715 C   0  0  0  0  0  0  0  0  0  0  0  0
    6.8168    0.4847   17.7172 N   0  0  0  0  0  0  0  0  0  0  0  0
    7.3922   -0.1634   18.7370 C   0  0  0  0  0  0  0  0  0  0  0  0
    8.3337   -0.6774   18.5324 H   0  0  0  0  0  0  0  0  0  0  0  0
    5.2302    1.6719   17.1303 H   0  0  0  0  0  0  0  0  0  0  0  0
    4.1580    1.7605   19.3780 H   0  0  0  0  0  0  0  0  0  0  0  0
    5.1874    0.4187   21.2731 H   0  0  0  0  0  0  0  0  0  0  0  0
    8.7347   -0.7834   21.6173 C   0  0  0  0  0  0  0  0  0  0  0  0
    9.6643    0.3321   21.2504 C   0  0  0  0  0  0  0  0  0  0  0  0
    9.1963    1.6395   21.8295 C   0  0  0  0  0  0  0  0  0  0  0  0
    8.2676    2.5487   21.4031 C   0  0  0  0  0  0  0  0  0  0  0  0
    8.0029    3.4815   22.3759 N   0  0  0  0  0  0  0  0  0  0  0  0
    8.7636    3.1463   23.3809 C   0  0  0  0  0  0  0  0  0  0  0  0
    9.5020    2.0348   23.1126 N   0  0  0  0  0  0  0  0  0  0  0  0
   10.1773    1.6332   23.7448 H   0  0  0  0  0  0  0  0  0  0  0  0
    8.8289    3.6634   24.3316 H   0  0  0  0  0  0  0  0  0  0  0  0
    7.7248    2.5001   20.4688 H   0  0  0  0  0  0  0  0  0  0  0  0
    9.6935    0.4218   20.1652 H   0  0  0  0  0  0  0  0  0  0  0  0
   10.6685    0.0674   21.5964 H   0  0  0  0  0  0  0  0  0  0  0  0
    8.8940   -1.6076   22.6263 N   0  0  0  0  0  0  0  0  0  0  0  0
    6.4719   -2.4502   24.8799 C   0  0  0  0  0  0  0  0  0  0  0  0
    7.3645   -1.4733   25.6622 C   0  0  0  0  0  0  0  0  0  0  0  0
    7.7572   -0.6970   24.9937 H   0  0  0  0  0  0  0  0  0  0  0  0
    6.8085   -0.9697   26.4585 H   0  0  0  0  0  0  0  0  0  0  0  0
    5.6370   -1.9093   24.4199 H   0  0  0  0  0  0  0  0  0  0  0  0
    6.0323   -3.1828   25.5683 H   0  0  0  0  0  0  0  0  0  0  0  0
    6.6292   -3.9339   23.3030 H   0  0  0  0  0  0  0  0  0  0  0  0
    8.1164   -4.7340   25.0749 H   0  0  0  0  0  0  0  0  0  0  0  0
    9.1113   -4.4040   23.6587 H   0  0  0  0  0  0  0  0  0  0  0  0
   10.1152   -3.5660   25.8513 H   0  0  0  0  0  0  0  0  0  0  0  0
    9.9095   -2.2809   24.6543 H   0  0  0  0  0  0  0  0  0  0  0  0
  1  2  1  0
  2  3  1  0
  2  4  1  0
  4  5  1  0
  5  6  1  0
  6  7  1  0
  7  8  2  0
  8  9  1  0
  9 10  1  0
 10 11  2  0
 11 12  1  0
 12 13  2  0
 13 14  1  0
 14 15  2  0
 15 16  1  0
 13 17  1  0
 12 18  1  0
 11 19  1  0
  9 20  1  0
 20 21  1  0
 21 22  1  0
 22 23  2  0
 23 24  1  0
 24 25  2  0
 25 26  1  0
 26 27  1  0
 25 28  1  0
 23 29  1  0
 21 30  1  0
 21 31  1  0
 20 32  2  0
  6 33  1  0
 33 34  1  0
 34 35  1  0
 34 36  1  0
 33 37  1  0
 33 38  1  0
  6 39  1  0
  5 40  1  0
  5 41  1  0
  4 42  1  0
  4 43  1  0
 34  2  1  0
 32  7  1  0
 15 10  1  0
 26 22  1  0
M  END
>  <cnnaffinity>  (1) 
-6.2514

>  <filename>  (1) 
FC1(F)CCC(c2nc(Cc3cnc[nH]3)n(-c3cccnc3)n2)CC1

$$$$
