
     RDKit          3D

 47 50  0  0  0  0  0  0  0  0999 V2000
    6.4027   -5.2079   25.4670 F   0  0  0  0  0  0  0  0  0  0  0  0
    7.4331   -4.4992   26.0399 C   0  0  0  0  0  0  0  0  0  0  0  0
    7.6597   -5.0916   27.2532 F   0  0  0  0  0  0  0  0  0  0  0  0
    6.9917   -3.0443   26.2436 C   0  0  0  0  0  0  0  0  0  0  0  0
    7.3768   -2.1204   25.0689 C   0  0  0  0  0  0  0  0  0  0  0  0
    7.4115   -2.8817   23.7238 C   0  0  0  0  0  0  0  0  0  0  0  0
    7.6533   -1.9435   22.5807 C   0  0  0  0  0  0  0  0  0  0  0  0
    6.7249   -1.5942   21.7181 N   0  0  0  0  0  0  0  0  0  0  0  0
    7.3558   -0.6770   20.9351 N   0  0  0  0  0  0  0  0  0  0  0  0
    6.6546    0.0014   19.8983 C   0  0  0  0  0  0  0  0  0  0  0  0
    5.4387    0.6434   20.1647 C   0  0  0  0  0  0  0  0  0  0  0  0
    4.8118    1.3107   19.1087 C   0  0  0  0  0  0  0  0  0  0  0  0
    5.4005    1.2956   17.8376 C   0  0  0  0  0  0  0  0  0  0  0  0
    6.5603    0.6731   17.5763 N   0  0  0  0  0  0  0  0  0  0  0  0
    7.1680    0.0501   18.5915 C   0  0  0  0  0  0  0  0  0  0  0  0
    8.1145   -0.4356   18.3681 H   0  0  0  0  0  0  0  0  0  0  0  0
    4.9183    1.7846   16.9941 H   0  0  0  0  0  0  0  0  0  0  0  0
    3.8797    1.8408   19.2605 H   0  0  0  0  0  0  0  0  0  0  0  0
    5.0206    0.6126   21.1756 H   0  0  0  0  0  0  0  0  0  0  0  0
    8.6260   -0.5046   21.4027 C   0  0  0  0  0  0  0  0  0  0  0  0
    9.5058    0.6305   20.9752 C   0  0  0  0  0  0  0  0  0  0  0  0
    9.0446    2.0046   21.5513 C   0  0  0  0  0  0  0  0  0  0  0  0
    8.9716    2.0016   23.0590 C   0  0  0  0  0  0  0  0  0  0  0  0
   10.1404    2.1031   23.8033 C   0  0  0  0  0  0  0  0  0  0  0  0
   10.0079    1.9952   25.1743 C   0  0  0  0  0  0  0  0  0  0  0  0
    8.8316    1.8200   25.7730 N   0  0  0  0  0  0  0  0  0  0  0  0
    7.7864    1.6852   24.9600 C   0  0  0  0  0  0  0  0  0  0  0  0
    7.7846    1.7736   23.6350 N   0  0  0  0  0  0  0  0  0  0  0  0
    6.8259    1.4916   25.4436 H   0  0  0  0  0  0  0  0  0  0  0  0
   10.8748    2.0461   25.8288 H   0  0  0  0  0  0  0  0  0  0  0  0
   11.0997    2.2507   23.3321 H   0  0  0  0  0  0  0  0  0  0  0  0
    8.0620    2.2622   21.1496 H   0  0  0  0  0  0  0  0  0  0  0  0
    9.7422    2.7787   21.2205 H   0  0  0  0  0  0  0  0  0  0  0  0
   10.5231    0.3984   21.3057 H   0  0  0  0  0  0  0  0  0  0  0  0
    9.5401    0.6848   19.8843 H   0  0  0  0  0  0  0  0  0  0  0  0
    8.8527   -1.3211   22.4117 N   0  0  0  0  0  0  0  0  0  0  0  0
    8.4525   -4.0387   23.7489 C   0  0  0  0  0  0  0  0  0  0  0  0
    8.6652   -4.6397   25.1584 C   0  0  0  0  0  0  0  0  0  0  0  0
    8.9421   -5.6956   25.1060 H   0  0  0  0  0  0  0  0  0  0  0  0
    9.4776   -4.1228   25.6808 H   0  0  0  0  0  0  0  0  0  0  0  0
    9.4205   -3.6869   23.3719 H   0  0  0  0  0  0  0  0  0  0  0  0
    8.1119   -4.8216   23.0614 H   0  0  0  0  0  0  0  0  0  0  0  0
    6.4191   -3.3044   23.5509 H   0  0  0  0  0  0  0  0  0  0  0  0
    8.3729   -1.6955   25.2455 H   0  0  0  0  0  0  0  0  0  0  0  0
    6.6765   -1.2769   25.0154 H   0  0  0  0  0  0  0  0  0  0  0  0
    5.9090   -3.0539   26.4031 H   0  0  0  0  0  0  0  0  0  0  0  0
    7.4495   -2.6813   27.1696 H   0  0  0  0  0  0  0  0  0  0  0  0
  1  2  1  0
  2  3  1  0
  2  4  1  0
  4  5  1  0
  5  6  1  0
  6  7  1  0
  7  8  2  0
  8  9  1  0
  9 10  1  0
 10 11  2  0
 11 12  1  0
 12 13  2  0
 13 14  1  0
 14 15  2  0
 15 16  1  0
 13 17  1  0
 12 18  1  0
 11 19  1  0
  9 20  1  0
 20 21  1  0
 21 22  1  0
 22 23  1  0
 23 24  2  0
 24 25  1  0
 25 26  2  0
 26 27  1  0
 27 28  2  0
 27 29  1  0
 25 30  1  0
 24 31  1  0
 22 32  1  0
 22 33  1  0
 21 34  1  0
 21 35  1  0
 20 36  2  0
  6 37  1  0
 37 38  1  0
 38 39  1  0
 38 40  1  0
 37 41  1  0
 37 42  1  0
  6 43  1  0
  5 44  1  0
  5 45  1  0
  4 46  1  0
  4 47  1  0
 38  2  1  0
 36  7  1  0
 15 10  1  0
 28 23  1  0
M  END
>  <cnnaffinity>  (1) 
-6.27255

>  <filename>  (1) 
FC1(F)CCC(c2nc(CCc3ccncn3)n(-c3cccnc3)n2)CC1

$$$$
