
     RDKit          3D

 45 48  0  0  0  0  0  0  0  0999 V2000
    4.5600   -5.1972   25.4655 F   0  0  0  0  0  0  0  0  0  0  0  0
    4.7674   -3.9622   24.8989 C   0  0  0  0  0  0  0  0  0  0  0  0
    3.5710   -3.2973   24.9946 F   0  0  0  0  0  0  0  0  0  0  0  0
    5.1082   -4.1363   23.4130 C   0  0  0  0  0  0  0  0  0  0  0  0
    6.6202   -4.2810   23.2001 C   0  0  0  0  0  0  0  0  0  0  0  0
    7.3654   -2.9921   23.6601 C   0  0  0  0  0  0  0  0  0  0  0  0
    7.6070   -2.0211   22.5324 C   0  0  0  0  0  0  0  0  0  0  0  0
    6.6758   -1.5976   21.6956 N   0  0  0  0  0  0  0  0  0  0  0  0
    7.3382   -0.6686   20.9510 N   0  0  0  0  0  0  0  0  0  0  0  0
    6.6622   -0.0131   19.8872 C   0  0  0  0  0  0  0  0  0  0  0  0
    5.4381    0.6081   20.1390 C   0  0  0  0  0  0  0  0  0  0  0  0
    4.8258    1.3061   19.0952 C   0  0  0  0  0  0  0  0  0  0  0  0
    5.4278    1.3129   17.8309 C   0  0  0  0  0  0  0  0  0  0  0  0
    6.5726    0.6650   17.5658 N   0  0  0  0  0  0  0  0  0  0  0  0
    7.1697    0.0159   18.5744 C   0  0  0  0  0  0  0  0  0  0  0  0
    8.0774   -0.5286   18.3181 H   0  0  0  0  0  0  0  0  0  0  0  0
    4.9536    1.8361   17.0008 H   0  0  0  0  0  0  0  0  0  0  0  0
    3.8880    1.8272   19.2488 H   0  0  0  0  0  0  0  0  0  0  0  0
    4.9825    0.5198   21.1262 H   0  0  0  0  0  0  0  0  0  0  0  0
    8.6164   -0.5547   21.4110 C   0  0  0  0  0  0  0  0  0  0  0  0
    9.6180    0.5003   21.0549 C   0  0  0  0  0  0  0  0  0  0  0  0
    9.7174    1.6534   22.0917 C   0  0  0  0  0  0  0  0  0  0  0  0
    8.4534    2.4406   22.2608 C   0  0  0  0  0  0  0  0  0  0  0  0
    8.2181    3.6517   21.8342 N   0  0  0  0  0  0  0  0  0  0  0  0
    6.9092    3.9528   22.1217 N   0  0  0  0  0  0  0  0  0  0  0  0
    6.4036    2.9247   22.7336 C   0  0  0  0  0  0  0  0  0  0  0  0
    7.3292    1.9372   22.8443 N   0  0  0  0  0  0  0  0  0  0  0  0
    7.2365    1.0956   23.3889 H   0  0  0  0  0  0  0  0  0  0  0  0
    5.3928    2.8521   23.1078 H   0  0  0  0  0  0  0  0  0  0  0  0
   10.4933    2.3550   21.7726 H   0  0  0  0  0  0  0  0  0  0  0  0
   10.0015    1.2416   23.0701 H   0  0  0  0  0  0  0  0  0  0  0  0
    9.4048    0.9080   20.0651 H   0  0  0  0  0  0  0  0  0  0  0  0
   10.5835   -0.0086   21.0147 H   0  0  0  0  0  0  0  0  0  0  0  0
    8.8126   -1.4232   22.3856 N   0  0  0  0  0  0  0  0  0  0  0  0
    6.6510   -2.2562   24.8493 C   0  0  0  0  0  0  0  0  0  0  0  0
    5.8412   -3.2269   25.7183 C   0  0  0  0  0  0  0  0  0  0  0  0
    6.5153   -3.9769   26.1483 H   0  0  0  0  0  0  0  0  0  0  0  0
    5.3632   -2.7073   26.5542 H   0  0  0  0  0  0  0  0  0  0  0  0
    5.9712   -1.4801   24.4653 H   0  0  0  0  0  0  0  0  0  0  0  0
    7.4042   -1.7446   25.4610 H   0  0  0  0  0  0  0  0  0  0  0  0
    8.3606   -3.2897   24.0001 H   0  0  0  0  0  0  0  0  0  0  0  0
    6.8372   -4.4889   22.1461 H   0  0  0  0  0  0  0  0  0  0  0  0
    7.0009   -5.1435   23.7681 H   0  0  0  0  0  0  0  0  0  0  0  0
    4.5579   -4.9939   23.0163 H   0  0  0  0  0  0  0  0  0  0  0  0
    4.7750   -3.2411   22.8744 H   0  0  0  0  0  0  0  0  0  0  0  0
  1  2  1  0
  2  3  1  0
  2  4  1  0
  4  5  1  0
  5  6  1  0
  6  7  1  0
  7  8  2  0
  8  9  1  0
  9 10  1  0
 10 11  2  0
 11 12  1  0
 12 13  2  0
 13 14  1  0
 14 15  2  0
 15 16  1  0
 13 17  1  0
 12 18  1  0
 11 19  1  0
  9 20  1  0
 20 21  1  0
 21 22  1  0
 22 23  1  0
 23 24  2  0
 24 25  1  0
 25 26  2  0
 26 27  1  0
 27 28  1  0
 26 29  1  0
 22 30  1  0
 22 31  1  0
 21 32  1  0
 21 33  1  0
 20 34  2  0
  6 35  1  0
 35 36  1  0
 36 37  1  0
 36 38  1  0
 35 39  1  0
 35 40  1  0
  6 41  1  0
  5 42  1  0
  5 43  1  0
  4 44  1  0
  4 45  1  0
 36  2  1  0
 34  7  1  0
 15 10  1  0
 27 23  1  0
M  END
>  <cnnaffinity>  (1) 
-6.08476

>  <filename>  (1) 
FC1(F)CCC(c2nc(CCc3nnc[nH]3)n(-c3cccnc3)n2)CC1

$$$$
