
     RDKit          3D

 50 53  0  0  0  0  0  0  0  0999 V2000
    5.1509   -7.3034   26.3394 F   0  0  0  0  0  0  0  0  0  0  0  0
    5.4371   -5.9674   26.2670 C   0  0  0  0  0  0  0  0  0  0  0  0
    4.8165   -5.4023   27.3552 F   0  0  0  0  0  0  0  0  0  0  0  0
    6.9357   -5.7499   26.3955 C   0  0  0  0  0  0  0  0  0  0  0  0
    7.3153   -4.2510   26.3748 C   0  0  0  0  0  0  0  0  0  0  0  0
    6.3069   -3.3655   25.5806 C   0  0  0  0  0  0  0  0  0  0  0  0
    6.9471   -2.1066   25.0698 C   0  0  0  0  0  0  0  0  0  0  0  0
    6.6056   -0.8969   25.4569 N   0  0  0  0  0  0  0  0  0  0  0  0
    7.4448   -0.1007   24.7424 N   0  0  0  0  0  0  0  0  0  0  0  0
    7.4064    1.3099   24.8642 C   0  0  0  0  0  0  0  0  0  0  0  0
    8.5516    2.0686   25.0637 C   0  0  0  0  0  0  0  0  0  0  0  0
    8.3864    3.4541   25.1533 C   0  0  0  0  0  0  0  0  0  0  0  0
    7.1994    4.0645   25.0532 N   0  0  0  0  0  0  0  0  0  0  0  0
    6.1040    3.3246   24.8594 N   0  0  0  0  0  0  0  0  0  0  0  0
    6.1820    1.9958   24.7794 C   0  0  0  0  0  0  0  0  0  0  0  0
    5.2419    1.4825   24.6298 H   0  0  0  0  0  0  0  0  0  0  0  0
    9.2343    4.1063   25.3110 H   0  0  0  0  0  0  0  0  0  0  0  0
    9.5306    1.6113   25.1869 H   0  0  0  0  0  0  0  0  0  0  0  0
    8.2198   -0.8777   23.9349 C   0  0  0  0  0  0  0  0  0  0  0  0
    9.1139   -0.3320   22.8656 C   0  0  0  0  0  0  0  0  0  0  0  0
    8.3266    0.3219   21.7194 C   0  0  0  0  0  0  0  0  0  0  0  0
    7.4062   -0.6743   21.0010 C   0  0  0  0  0  0  0  0  0  0  0  0
    6.6438   -0.0088   19.8896 C   0  0  0  0  0  0  0  0  0  0  0  0
    5.4344    0.6481   20.1487 C   0  0  0  0  0  0  0  0  0  0  0  0
    4.8011    1.3138   19.0980 C   0  0  0  0  0  0  0  0  0  0  0  0
    5.3983    1.2978   17.8317 C   0  0  0  0  0  0  0  0  0  0  0  0
    6.5612    0.6870   17.5664 N   0  0  0  0  0  0  0  0  0  0  0  0
    7.1613    0.0628   18.5865 C   0  0  0  0  0  0  0  0  0  0  0  0
    8.1115   -0.4197   18.3607 H   0  0  0  0  0  0  0  0  0  0  0  0
    4.9135    1.7867   16.9904 H   0  0  0  0  0  0  0  0  0  0  0  0
    3.8696    1.8477   19.2540 H   0  0  0  0  0  0  0  0  0  0  0  0
    5.0119    0.6371   21.1589 H   0  0  0  0  0  0  0  0  0  0  0  0
    8.0055   -1.5052   20.6029 H   0  0  0  0  0  0  0  0  0  0  0  0
    6.7036   -1.1209   21.7194 H   0  0  0  0  0  0  0  0  0  0  0  0
    7.7320    1.1619   22.0984 H   0  0  0  0  0  0  0  0  0  0  0  0
    9.0268    0.7524   20.9930 H   0  0  0  0  0  0  0  0  0  0  0  0
    9.7006   -1.1691   22.4760 H   0  0  0  0  0  0  0  0  0  0  0  0
    9.8238    0.3859   23.2865 H   0  0  0  0  0  0  0  0  0  0  0  0
    7.9295   -2.1483   24.1257 N   0  0  0  0  0  0  0  0  0  0  0  0
    5.6327   -4.1641   24.4410 C   0  0  0  0  0  0  0  0  0  0  0  0
    4.8428   -5.3760   24.9827 C   0  0  0  0  0  0  0  0  0  0  0  0
    3.8029   -5.1086   25.2028 H   0  0  0  0  0  0  0  0  0  0  0  0
    4.8134   -6.1717   24.2310 H   0  0  0  0  0  0  0  0  0  0  0  0
    4.9631   -3.5183   23.8635 H   0  0  0  0  0  0  0  0  0  0  0  0
    6.4075   -4.5067   23.7428 H   0  0  0  0  0  0  0  0  0  0  0  0
    5.5262   -3.0357   26.2709 H   0  0  0  0  0  0  0  0  0  0  0  0
    8.3202   -4.1567   25.9464 H   0  0  0  0  0  0  0  0  0  0  0  0
    7.3756   -3.8734   27.4025 H   0  0  0  0  0  0  0  0  0  0  0  0
    7.3975   -6.2753   25.5541 H   0  0  0  0  0  0  0  0  0  0  0  0
    7.2898   -6.2430   27.3060 H   0  0  0  0  0  0  0  0  0  0  0  0
  1  2  1  0
  2  3  1  0
  2  4  1  0
  4  5  1  0
  5  6  1  0
  6  7  1  0
  7  8  2  0
  8  9  1  0
  9 10  1  0
 10 11  2  0
 11 12  1  0
 12 13  2  0
 13 14  1  0
 14 15  2  0
 15 16  1  0
 12 17  1  0
 11 18  1  0
  9 19  1  0
 19 20  1  0
 20 21  1  0
 21 22  1  0
 22 23  1  0
 23 24  2  0
 24 25  1  0
 25 26  2  0
 26 27  1  0
 27 28  2  0
 28 29  1  0
 26 30  1  0
 25 31  1  0
 24 32  1  0
 22 33  1  0
 22 34  1  0
 21 35  1  0
 21 36  1  0
 20 37  1  0
 20 38  1  0
 19 39  2  0
  6 40  1  0
 40 41  1  0
 41 42  1  0
 41 43  1  0
 40 44  1  0
 40 45  1  0
  6 46  1  0
  5 47  1  0
  5 48  1  0
  4 49  1  0
  4 50  1  0
 41  2  1  0
 39  7  1  0
 15 10  1  0
 28 23  1  0
M  END
>  <cnnaffinity>  (1) 
-5.97546

>  <filename>  (1) 
FC1(F)CCC(c2nc(CCCc3cccnc3)n(-c3ccnnc3)n2)CC1

$$$$
