
     RDKit          3D

 47 50  0  0  0  0  0  0  0  0999 V2000
    7.7003   -5.0031   25.9326 F   0  0  0  0  0  0  0  0  0  0  0  0
    6.3980   -4.6136   25.7109 C   0  0  0  0  0  0  0  0  0  0  0  0
    5.6254   -5.3316   26.5854 F   0  0  0  0  0  0  0  0  0  0  0  0
    6.0157   -4.9843   24.2864 C   0  0  0  0  0  0  0  0  0  0  0  0
    6.8804   -4.2497   23.2357 C   0  0  0  0  0  0  0  0  0  0  0  0
    7.4083   -2.8668   23.7283 C   0  0  0  0  0  0  0  0  0  0  0  0
    7.6728   -1.9463   22.5753 C   0  0  0  0  0  0  0  0  0  0  0  0
    6.7316   -1.5780   21.7213 N   0  0  0  0  0  0  0  0  0  0  0  0
    7.3716   -0.6782   20.9327 N   0  0  0  0  0  0  0  0  0  0  0  0
    6.6619   -0.0024   19.8980 C   0  0  0  0  0  0  0  0  0  0  0  0
    5.4460    0.6355   20.1640 C   0  0  0  0  0  0  0  0  0  0  0  0
    4.8138    1.3061   19.1118 C   0  0  0  0  0  0  0  0  0  0  0  0
    5.3998    1.2943   17.8401 C   0  0  0  0  0  0  0  0  0  0  0  0
    6.5560    0.6683   17.5771 N   0  0  0  0  0  0  0  0  0  0  0  0
    7.1681    0.0440   18.5882 C   0  0  0  0  0  0  0  0  0  0  0  0
    8.1126   -0.4430   18.3544 H   0  0  0  0  0  0  0  0  0  0  0  0
    4.9274    1.7951   16.9976 H   0  0  0  0  0  0  0  0  0  0  0  0
    3.8813    1.8392   19.2596 H   0  0  0  0  0  0  0  0  0  0  0  0
    5.0247    0.6016   21.1709 H   0  0  0  0  0  0  0  0  0  0  0  0
    8.6472   -0.5203   21.3871 C   0  0  0  0  0  0  0  0  0  0  0  0
    9.5295    0.6123   20.9669 C   0  0  0  0  0  0  0  0  0  0  0  0
    9.0404    2.0119   21.4705 C   0  0  0  0  0  0  0  0  0  0  0  0
    8.8739    2.0814   22.9676 C   0  0  0  0  0  0  0  0  0  0  0  0
    9.9910    2.2429   23.6889 N   0  0  0  0  0  0  0  0  0  0  0  0
    9.8627    2.1665   25.0072 C   0  0  0  0  0  0  0  0  0  0  0  0
    8.6411    1.9708   25.6417 C   0  0  0  0  0  0  0  0  0  0  0  0
    7.5511    1.8265   24.7957 C   0  0  0  0  0  0  0  0  0  0  0  0
    7.6485    1.8983   23.4694 N   0  0  0  0  0  0  0  0  0  0  0  0
    6.5485    1.6284   25.1842 H   0  0  0  0  0  0  0  0  0  0  0  0
    8.5481    1.9401   26.7170 H   0  0  0  0  0  0  0  0  0  0  0  0
   10.7937    2.2391   25.5665 H   0  0  0  0  0  0  0  0  0  0  0  0
    9.7703    2.7746   21.1897 H   0  0  0  0  0  0  0  0  0  0  0  0
    8.0715    2.2613   21.0292 H   0  0  0  0  0  0  0  0  0  0  0  0
    9.5776    0.6220   19.8764 H   0  0  0  0  0  0  0  0  0  0  0  0
   10.5360    0.3974   21.3437 H   0  0  0  0  0  0  0  0  0  0  0  0
    8.8794   -1.3522   22.3877 N   0  0  0  0  0  0  0  0  0  0  0  0
    6.4543   -2.2189   24.7705 C   0  0  0  0  0  0  0  0  0  0  0  0
    6.2635   -3.1171   26.0150 C   0  0  0  0  0  0  0  0  0  0  0  0
    5.2694   -2.9475   26.4455 H   0  0  0  0  0  0  0  0  0  0  0  0
    6.9987   -2.8920   26.7950 H   0  0  0  0  0  0  0  0  0  0  0  0
    5.4832   -2.0492   24.2899 H   0  0  0  0  0  0  0  0  0  0  0  0
    6.8275   -1.2315   25.0712 H   0  0  0  0  0  0  0  0  0  0  0  0
    8.3852   -3.0059   24.2062 H   0  0  0  0  0  0  0  0  0  0  0  0
    7.7488   -4.8625   22.9613 H   0  0  0  0  0  0  0  0  0  0  0  0
    6.2886   -4.1140   22.3200 H   0  0  0  0  0  0  0  0  0  0  0  0
    4.9580   -4.7164   24.1687 H   0  0  0  0  0  0  0  0  0  0  0  0
    6.0914   -6.0705   24.1844 H   0  0  0  0  0  0  0  0  0  0  0  0
  1  2  1  0
  2  3  1  0
  2  4  1  0
  4  5  1  0
  5  6  1  0
  6  7  1  0
  7  8  2  0
  8  9  1  0
  9 10  1  0
 10 11  2  0
 11 12  1  0
 12 13  2  0
 13 14  1  0
 14 15  2  0
 15 16  1  0
 13 17  1  0
 12 18  1  0
 11 19  1  0
  9 20  1  0
 20 21  1  0
 21 22  1  0
 22 23  1  0
 23 24  2  0
 24 25  1  0
 25 26  2  0
 26 27  1  0
 27 28  2  0
 27 29  1  0
 26 30  1  0
 25 31  1  0
 22 32  1  0
 22 33  1  0
 21 34  1  0
 21 35  1  0
 20 36  2  0
  6 37  1  0
 37 38  1  0
 38 39  1  0
 38 40  1  0
 37 41  1  0
 37 42  1  0
  6 43  1  0
  5 44  1  0
  5 45  1  0
  4 46  1  0
  4 47  1  0
 38  2  1  0
 36  7  1  0
 15 10  1  0
 28 23  1  0
M  END
>  <cnnaffinity>  (1) 
-6.14182

>  <filename>  (1) 
FC1(F)CCC(c2nc(CCc3ncccn3)n(-c3cccnc3)n2)CC1

$$$$
