
     RDKit          3D

 47 50  0  0  0  0  0  0  0  0999 V2000
    7.7479   -4.8306   27.4398 F   0  0  0  0  0  0  0  0  0  0  0  0
    8.0502   -3.9936   26.3992 C   0  0  0  0  0  0  0  0  0  0  0  0
    9.2402   -3.3961   26.7389 F   0  0  0  0  0  0  0  0  0  0  0  0
    8.2505   -4.7996   25.1207 C   0  0  0  0  0  0  0  0  0  0  0  0
    8.5124   -3.8890   23.9119 C   0  0  0  0  0  0  0  0  0  0  0  0
    7.4019   -2.8249   23.7597 C   0  0  0  0  0  0  0  0  0  0  0  0
    7.6515   -1.9142   22.5976 C   0  0  0  0  0  0  0  0  0  0  0  0
    6.7247   -1.5785   21.7261 N   0  0  0  0  0  0  0  0  0  0  0  0
    7.3580   -0.6675   20.9378 N   0  0  0  0  0  0  0  0  0  0  0  0
    6.6585    0.0061   19.9009 C   0  0  0  0  0  0  0  0  0  0  0  0
    5.4416    0.6462   20.1630 C   0  0  0  0  0  0  0  0  0  0  0  0
    4.8109    1.3120   19.1097 C   0  0  0  0  0  0  0  0  0  0  0  0
    5.4011    1.2954   17.8390 C   0  0  0  0  0  0  0  0  0  0  0  0
    6.5624    0.6750   17.5798 N   0  0  0  0  0  0  0  0  0  0  0  0
    7.1724    0.0540   18.5942 C   0  0  0  0  0  0  0  0  0  0  0  0
    8.1178   -0.4347   18.3727 H   0  0  0  0  0  0  0  0  0  0  0  0
    4.9149    1.7814   16.9959 H   0  0  0  0  0  0  0  0  0  0  0  0
    3.8774    1.8414   19.2637 H   0  0  0  0  0  0  0  0  0  0  0  0
    5.0111    0.6109   21.1678 H   0  0  0  0  0  0  0  0  0  0  0  0
    8.6269   -0.4849   21.4081 C   0  0  0  0  0  0  0  0  0  0  0  0
    9.5110    0.6339   20.9590 C   0  0  0  0  0  0  0  0  0  0  0  0
    9.0433    2.0078   21.5004 C   0  0  0  0  0  0  0  0  0  0  0  0
    8.9350    2.0049   23.0056 C   0  0  0  0  0  0  0  0  0  0  0  0
    7.7497    1.7639   23.6869 C   0  0  0  0  0  0  0  0  0  0  0  0
    7.6569    1.6557   25.0162 N   0  0  0  0  0  0  0  0  0  0  0  0
    8.7895    1.8237   25.6905 C   0  0  0  0  0  0  0  0  0  0  0  0
    9.9952    2.0478   25.1690 N   0  0  0  0  0  0  0  0  0  0  0  0
   10.0483    2.1050   23.8376 C   0  0  0  0  0  0  0  0  0  0  0  0
   11.0369    2.2607   23.4059 H   0  0  0  0  0  0  0  0  0  0  0  0
    8.7251    1.7792   26.7747 H   0  0  0  0  0  0  0  0  0  0  0  0
    6.8248    1.6365   23.1240 H   0  0  0  0  0  0  0  0  0  0  0  0
    8.0757    2.2603   21.0481 H   0  0  0  0  0  0  0  0  0  0  0  0
    9.7518    2.7758   21.1722 H   0  0  0  0  0  0  0  0  0  0  0  0
    9.5609    0.6650   19.8674 H   0  0  0  0  0  0  0  0  0  0  0  0
   10.5201    0.4118   21.3165 H   0  0  0  0  0  0  0  0  0  0  0  0
    8.8483   -1.2844   22.4305 N   0  0  0  0  0  0  0  0  0  0  0  0
    7.2337   -2.0032   25.0631 C   0  0  0  0  0  0  0  0  0  0  0  0
    6.9787   -2.9168   26.2692 C   0  0  0  0  0  0  0  0  0  0  0  0
    6.0187   -3.4333   26.1563 H   0  0  0  0  0  0  0  0  0  0  0  0
    6.9361   -2.3418   27.1995 H   0  0  0  0  0  0  0  0  0  0  0  0
    6.4127   -1.2827   24.9585 H   0  0  0  0  0  0  0  0  0  0  0  0
    8.1408   -1.4096   25.2349 H   0  0  0  0  0  0  0  0  0  0  0  0
    6.4559   -3.3353   23.5513 H   0  0  0  0  0  0  0  0  0  0  0  0
    9.4812   -3.3885   24.0337 H   0  0  0  0  0  0  0  0  0  0  0  0
    8.5813   -4.4973   23.0031 H   0  0  0  0  0  0  0  0  0  0  0  0
    7.3376   -5.3855   24.9641 H   0  0  0  0  0  0  0  0  0  0  0  0
    9.0716   -5.5079   25.2708 H   0  0  0  0  0  0  0  0  0  0  0  0
  1  2  1  0
  2  3  1  0
  2  4  1  0
  4  5  1  0
  5  6  1  0
  6  7  1  0
  7  8  2  0
  8  9  1  0
  9 10  1  0
 10 11  2  0
 11 12  1  0
 12 13  2  0
 13 14  1  0
 14 15  2  0
 15 16  1  0
 13 17  1  0
 12 18  1  0
 11 19  1  0
  9 20  1  0
 20 21  1  0
 21 22  1  0
 22 23  1  0
 23 24  2  0
 24 25  1  0
 25 26  2  0
 26 27  1  0
 27 28  2  0
 28 29  1  0
 26 30  1  0
 24 31  1  0
 22 32  1  0
 22 33  1  0
 21 34  1  0
 21 35  1  0
 20 36  2  0
  6 37  1  0
 37 38  1  0
 38 39  1  0
 38 40  1  0
 37 41  1  0
 37 42  1  0
  6 43  1  0
  5 44  1  0
  5 45  1  0
  4 46  1  0
  4 47  1  0
 38  2  1  0
 36  7  1  0
 15 10  1  0
 28 23  1  0
M  END
>  <cnnaffinity>  (1) 
-6.34476

>  <filename>  (1) 
FC1(F)CCC(c2nc(CCc3cncnc3)n(-c3cccnc3)n2)CC1

$$$$
