
     RDKit          3D

 50 53  0  0  0  0  0  0  0  0999 V2000
    7.9171   -5.2814   27.1287 F   0  0  0  0  0  0  0  0  0  0  0  0
    8.1937   -4.3618   26.1531 C   0  0  0  0  0  0  0  0  0  0  0  0
    9.4124   -3.8178   26.4857 F   0  0  0  0  0  0  0  0  0  0  0  0
    7.1426   -3.2582   26.1670 C   0  0  0  0  0  0  0  0  0  0  0  0
    7.3649   -2.2474   25.0344 C   0  0  0  0  0  0  0  0  0  0  0  0
    7.4527   -2.9531   23.6573 C   0  0  0  0  0  0  0  0  0  0  0  0
    7.6701   -1.9575   22.5581 C   0  0  0  0  0  0  0  0  0  0  0  0
    6.7444   -1.6144   21.6920 N   0  0  0  0  0  0  0  0  0  0  0  0
    7.3611   -0.6669   20.9384 N   0  0  0  0  0  0  0  0  0  0  0  0
    6.6598    0.0098   19.9013 C   0  0  0  0  0  0  0  0  0  0  0  0
    5.4405    0.6462   20.1650 C   0  0  0  0  0  0  0  0  0  0  0  0
    4.8110    1.3112   19.1098 C   0  0  0  0  0  0  0  0  0  0  0  0
    5.4015    1.2946   17.8395 C   0  0  0  0  0  0  0  0  0  0  0  0
    6.5630    0.6764   17.5792 N   0  0  0  0  0  0  0  0  0  0  0  0
    7.1730    0.0571   18.5943 C   0  0  0  0  0  0  0  0  0  0  0  0
    8.1185   -0.4352   18.3742 H   0  0  0  0  0  0  0  0  0  0  0  0
    4.9139    1.7810   16.9967 H   0  0  0  0  0  0  0  0  0  0  0  0
    3.8777    1.8412   19.2635 H   0  0  0  0  0  0  0  0  0  0  0  0
    5.0144    0.6123   21.1694 H   0  0  0  0  0  0  0  0  0  0  0  0
    8.6222   -0.4708   21.4227 C   0  0  0  0  0  0  0  0  0  0  0  0
    9.5222    0.6228   20.9491 C   0  0  0  0  0  0  0  0  0  0  0  0
    9.0406    2.0160   21.3878 C   0  0  0  0  0  0  0  0  0  0  0  0
    9.0051    2.1792   22.9175 C   0  0  0  0  0  0  0  0  0  0  0  0
    8.5453    3.5547   23.3186 C   0  0  0  0  0  0  0  0  0  0  0  0
    9.4576    4.6313   23.4266 C   0  0  0  0  0  0  0  0  0  0  0  0
    9.0870    5.8880   23.7397 N   0  0  0  0  0  0  0  0  0  0  0  0
    7.7634    6.0593   23.9235 C   0  0  0  0  0  0  0  0  0  0  0  0
    6.8452    5.0041   23.8043 C   0  0  0  0  0  0  0  0  0  0  0  0
    7.2228    3.7467   23.5046 N   0  0  0  0  0  0  0  0  0  0  0  0
    5.7838    5.1756   23.9573 H   0  0  0  0  0  0  0  0  0  0  0  0
    7.4263    7.0589   24.1780 H   0  0  0  0  0  0  0  0  0  0  0  0
   10.5176    4.4627   23.2612 H   0  0  0  0  0  0  0  0  0  0  0  0
   10.0072    1.9765   23.3197 H   0  0  0  0  0  0  0  0  0  0  0  0
    8.3373    1.4342   23.3624 H   0  0  0  0  0  0  0  0  0  0  0  0
    8.0416    2.2075   20.9743 H   0  0  0  0  0  0  0  0  0  0  0  0
    9.7136    2.7658   20.9576 H   0  0  0  0  0  0  0  0  0  0  0  0
   10.5225    0.4213   21.3454 H   0  0  0  0  0  0  0  0  0  0  0  0
    9.5984    0.5908   19.8586 H   0  0  0  0  0  0  0  0  0  0  0  0
    8.8487   -1.2850   22.4307 N   0  0  0  0  0  0  0  0  0  0  0  0
    8.5436   -4.0492   23.6648 C   0  0  0  0  0  0  0  0  0  0  0  0
    8.3151   -5.0559   24.8009 C   0  0  0  0  0  0  0  0  0  0  0  0
    7.3819   -5.6069   24.6361 H   0  0  0  0  0  0  0  0  0  0  0  0
    9.1265   -5.7897   24.8479 H   0  0  0  0  0  0  0  0  0  0  0  0
    8.5540   -4.5761   22.7041 H   0  0  0  0  0  0  0  0  0  0  0  0
    9.5287   -3.5799   23.7831 H   0  0  0  0  0  0  0  0  0  0  0  0
    6.4850   -3.4258   23.4545 H   0  0  0  0  0  0  0  0  0  0  0  0
    6.5493   -1.5145   25.0311 H   0  0  0  0  0  0  0  0  0  0  0  0
    8.2951   -1.6931   25.2151 H   0  0  0  0  0  0  0  0  0  0  0  0
    7.1548   -2.7649   27.1443 H   0  0  0  0  0  0  0  0  0  0  0  0
    6.1652   -3.7410   26.0544 H   0  0  0  0  0  0  0  0  0  0  0  0
  1  2  1  0
  2  3  1  0
  2  4  1  0
  4  5  1  0
  5  6  1  0
  6  7  1  0
  7  8  2  0
  8  9  1  0
  9 10  1  0
 10 11  2  0
 11 12  1  0
 12 13  2  0
 13 14  1  0
 14 15  2  0
 15 16  1  0
 13 17  1  0
 12 18  1  0
 11 19  1  0
  9 20  1  0
 20 21  1  0
 21 22  1  0
 22 23  1  0
 23 24  1  0
 24 25  2  0
 25 26  1  0
 26 27  2  0
 27 28  1  0
 28 29  2  0
 28 30  1  0
 27 31  1  0
 25 32  1  0
 23 33  1  0
 23 34  1  0
 22 35  1  0
 22 36  1  0
 21 37  1  0
 21 38  1  0
 20 39  2  0
  6 40  1  0
 40 41  1  0
 41 42  1  0
 41 43  1  0
 40 44  1  0
 40 45  1  0
  6 46  1  0
  5 47  1  0
  5 48  1  0
  4 49  1  0
  4 50  1  0
 41  2  1  0
 39  7  1  0
 15 10  1  0
 29 24  1  0
M  END
>  <cnnaffinity>  (1) 
-6.62599

>  <filename>  (1) 
FC1(F)CCC(c2nc(CCCc3cnccn3)n(-c3cccnc3)n2)CC1

$$$$
