
     RDKit          3D

 46 49  0  0  0  0  0  0  0  0999 V2000
    9.2387   -3.3847   26.7451 F   0  0  0  0  0  0  0  0  0  0  0  0
    8.0492   -3.9843   26.4053 C   0  0  0  0  0  0  0  0  0  0  0  0
    7.7450   -4.8194   27.4469 F   0  0  0  0  0  0  0  0  0  0  0  0
    8.2510   -4.7922   25.1286 C   0  0  0  0  0  0  0  0  0  0  0  0
    8.5139   -3.8845   23.9177 C   0  0  0  0  0  0  0  0  0  0  0  0
    7.4021   -2.8233   23.7615 C   0  0  0  0  0  0  0  0  0  0  0  0
    7.6530   -1.9173   22.5946 C   0  0  0  0  0  0  0  0  0  0  0  0
    6.7232   -1.5785   21.7279 N   0  0  0  0  0  0  0  0  0  0  0  0
    7.3580   -0.6715   20.9341 N   0  0  0  0  0  0  0  0  0  0  0  0
    6.6571    0.0043   19.8984 C   0  0  0  0  0  0  0  0  0  0  0  0
    5.4403    0.6447   20.1618 C   0  0  0  0  0  0  0  0  0  0  0  0
    4.8110    1.3116   19.1081 C   0  0  0  0  0  0  0  0  0  0  0  0
    5.4006    1.2957   17.8381 C   0  0  0  0  0  0  0  0  0  0  0  0
    6.5610    0.6740   17.5784 N   0  0  0  0  0  0  0  0  0  0  0  0
    7.1706    0.0529   18.5928 C   0  0  0  0  0  0  0  0  0  0  0  0
    8.1165   -0.4347   18.3708 H   0  0  0  0  0  0  0  0  0  0  0  0
    4.9164    1.7830   16.9945 H   0  0  0  0  0  0  0  0  0  0  0  0
    3.8780    1.8408   19.2624 H   0  0  0  0  0  0  0  0  0  0  0  0
    5.0112    0.6094   21.1663 H   0  0  0  0  0  0  0  0  0  0  0  0
    8.6310   -0.4999   21.3945 C   0  0  0  0  0  0  0  0  0  0  0  0
    9.5137    0.6286   20.9553 C   0  0  0  0  0  0  0  0  0  0  0  0
    9.0434    2.0092   21.4999 C   0  0  0  0  0  0  0  0  0  0  0  0
    8.9150    2.0275   22.9981 C   0  0  0  0  0  0  0  0  0  0  0  0
    7.7869    1.7515   23.7136 C   0  0  0  0  0  0  0  0  0  0  0  0
    8.1838    1.7369   25.0305 N   0  0  0  0  0  0  0  0  0  0  0  0
    9.5234    1.9843   25.0521 C   0  0  0  0  0  0  0  0  0  0  0  0
    9.9936    2.1623   23.8451 N   0  0  0  0  0  0  0  0  0  0  0  0
   10.0965    2.0390   25.9728 H   0  0  0  0  0  0  0  0  0  0  0  0
    7.6126    1.5510   25.8337 H   0  0  0  0  0  0  0  0  0  0  0  0
    6.7863    1.5140   23.3791 H   0  0  0  0  0  0  0  0  0  0  0  0
    9.7457    2.7837   21.1838 H   0  0  0  0  0  0  0  0  0  0  0  0
    8.0693    2.2508   21.0592 H   0  0  0  0  0  0  0  0  0  0  0  0
    9.5649    0.6635   19.8636 H   0  0  0  0  0  0  0  0  0  0  0  0
   10.5219    0.4182   21.3215 H   0  0  0  0  0  0  0  0  0  0  0  0
    8.8536   -1.2986   22.4182 N   0  0  0  0  0  0  0  0  0  0  0  0
    7.2333   -2.0002   25.0645 C   0  0  0  0  0  0  0  0  0  0  0  0
    6.9770   -2.9100   26.2733 C   0  0  0  0  0  0  0  0  0  0  0  0
    6.0173   -3.4259   26.1611 H   0  0  0  0  0  0  0  0  0  0  0  0
    6.9344   -2.3361   27.2044 H   0  0  0  0  0  0  0  0  0  0  0  0
    8.1519   -1.4256   25.2353 H   0  0  0  0  0  0  0  0  0  0  0  0
    6.4078   -1.2848   24.9570 H   0  0  0  0  0  0  0  0  0  0  0  0
    6.4559   -3.3310   23.5527 H   0  0  0  0  0  0  0  0  0  0  0  0
    9.4820   -3.3815   24.0383 H   0  0  0  0  0  0  0  0  0  0  0  0
    8.5852   -4.4929   23.0093 H   0  0  0  0  0  0  0  0  0  0  0  0
    7.3381   -5.3786   24.9730 H   0  0  0  0  0  0  0  0  0  0  0  0
    9.0719   -5.4997   25.2829 H   0  0  0  0  0  0  0  0  0  0  0  0
  1  2  1  0
  2  3  1  0
  2  4  1  0
  4  5  1  0
  5  6  1  0
  6  7  1  0
  7  8  2  0
  8  9  1  0
  9 10  1  0
 10 11  2  0
 11 12  1  0
 12 13  2  0
 13 14  1  0
 14 15  2  0
 15 16  1  0
 13 17  1  0
 12 18  1  0
 11 19  1  0
  9 20  1  0
 20 21  1  0
 21 22  1  0
 22 23  1  0
 23 24  2  0
 24 25  1  0
 25 26  1  0
 26 27  2  0
 26 28  1  0
 25 29  1  0
 24 30  1  0
 22 31  1  0
 22 32  1  0
 21 33  1  0
 21 34  1  0
 20 35  2  0
  6 36  1  0
 36 37  1  0
 37 38  1  0
 37 39  1  0
 36 40  1  0
 36 41  1  0
  6 42  1  0
  5 43  1  0
  5 44  1  0
  4 45  1  0
  4 46  1  0
 37  2  1  0
 35  7  1  0
 15 10  1  0
 27 23  1  0
M  END
>  <cnnaffinity>  (1) 
-6.2296

>  <filename>  (1) 
FC1(F)CCC(c2nc(CCc3c[nH]cn3)n(-c3cccnc3)n2)CC1

$$$$
