
     RDKit          3D

 45 48  0  0  0  0  0  0  0  0999 V2000
    7.7139   -5.0483   25.8921 F   0  0  0  0  0  0  0  0  0  0  0  0
    6.4085   -4.6827   25.6528 C   0  0  0  0  0  0  0  0  0  0  0  0
    5.6390   -5.4260   26.5090 F   0  0  0  0  0  0  0  0  0  0  0  0
    6.2396   -3.1920   25.9689 C   0  0  0  0  0  0  0  0  0  0  0  0
    6.4308   -2.2774   24.7373 C   0  0  0  0  0  0  0  0  0  0  0  0
    7.4123   -2.8960   23.7062 C   0  0  0  0  0  0  0  0  0  0  0  0
    7.6773   -1.9536   22.5718 C   0  0  0  0  0  0  0  0  0  0  0  0
    6.7398   -1.5946   21.7114 N   0  0  0  0  0  0  0  0  0  0  0  0
    7.3688   -0.6739   20.9368 N   0  0  0  0  0  0  0  0  0  0  0  0
    6.6580    0.0008   19.9021 C   0  0  0  0  0  0  0  0  0  0  0  0
    5.4416    0.6382   20.1687 C   0  0  0  0  0  0  0  0  0  0  0  0
    4.8149    1.3075   19.1117 C   0  0  0  0  0  0  0  0  0  0  0  0
    5.3983    1.2958   17.8392 C   0  0  0  0  0  0  0  0  0  0  0  0
    6.5552    0.6696   17.5769 N   0  0  0  0  0  0  0  0  0  0  0  0
    7.1643    0.0464   18.5914 C   0  0  0  0  0  0  0  0  0  0  0  0
    8.1106   -0.4375   18.3594 H   0  0  0  0  0  0  0  0  0  0  0  0
    4.9262    1.7912   16.9939 H   0  0  0  0  0  0  0  0  0  0  0  0
    3.8849    1.8372   19.2579 H   0  0  0  0  0  0  0  0  0  0  0  0
    5.0238    0.6071   21.1791 H   0  0  0  0  0  0  0  0  0  0  0  0
    8.6371   -0.5035   21.4053 C   0  0  0  0  0  0  0  0  0  0  0  0
    9.5161    0.6094   20.9480 C   0  0  0  0  0  0  0  0  0  0  0  0
    9.0369    2.0054   21.4503 C   0  0  0  0  0  0  0  0  0  0  0  0
    9.0209    2.0997   22.9452 C   0  0  0  0  0  0  0  0  0  0  0  0
   10.0064    2.2735   23.8543 C   0  0  0  0  0  0  0  0  0  0  0  0
    9.5088    2.1101   25.1411 N   0  0  0  0  0  0  0  0  0  0  0  0
    8.2617    1.8360   24.9523 C   0  0  0  0  0  0  0  0  0  0  0  0
    7.8813    1.8102   23.6513 O   0  0  0  0  0  0  0  0  0  0  0  0
    7.4859    1.6521   25.6849 H   0  0  0  0  0  0  0  0  0  0  0  0
   11.0517    2.4816   23.6625 H   0  0  0  0  0  0  0  0  0  0  0  0
    8.0532    2.2449   21.0302 H   0  0  0  0  0  0  0  0  0  0  0  0
    9.7371    2.7644   21.0912 H   0  0  0  0  0  0  0  0  0  0  0  0
    9.5642    0.6095   19.8566 H   0  0  0  0  0  0  0  0  0  0  0  0
   10.5219    0.3820   21.3097 H   0  0  0  0  0  0  0  0  0  0  0  0
    8.8717   -1.3323   22.4065 N   0  0  0  0  0  0  0  0  0  0  0  0
    6.9242   -4.2830   23.1900 C   0  0  0  0  0  0  0  0  0  0  0  0
    6.0584   -5.0458   24.2184 C   0  0  0  0  0  0  0  0  0  0  0  0
    4.9974   -4.8004   24.0904 H   0  0  0  0  0  0  0  0  0  0  0  0
    6.1552   -6.1275   24.1060 H   0  0  0  0  0  0  0  0  0  0  0  0
    7.8077   -4.8761   22.9218 H   0  0  0  0  0  0  0  0  0  0  0  0
    6.3434   -4.1497   22.2687 H   0  0  0  0  0  0  0  0  0  0  0  0
    8.3822   -3.0184   24.1964 H   0  0  0  0  0  0  0  0  0  0  0  0
    6.7735   -1.2827   25.0490 H   0  0  0  0  0  0  0  0  0  0  0  0
    5.4675   -2.1266   24.2402 H   0  0  0  0  0  0  0  0  0  0  0  0
    5.2371   -3.0497   26.3872 H   0  0  0  0  0  0  0  0  0  0  0  0
    6.9577   -2.9598   26.7611 H   0  0  0  0  0  0  0  0  0  0  0  0
  1  2  1  0
  2  3  1  0
  2  4  1  0
  4  5  1  0
  5  6  1  0
  6  7  1  0
  7  8  2  0
  8  9  1  0
  9 10  1  0
 10 11  2  0
 11 12  1  0
 12 13  2  0
 13 14  1  0
 14 15  2  0
 15 16  1  0
 13 17  1  0
 12 18  1  0
 11 19  1  0
  9 20  1  0
 20 21  1  0
 21 22  1  0
 22 23  1  0
 23 24  2  0
 24 25  1  0
 25 26  2  0
 26 27  1  0
 26 28  1  0
 24 29  1  0
 22 30  1  0
 22 31  1  0
 21 32  1  0
 21 33  1  0
 20 34  2  0
  6 35  1  0
 35 36  1  0
 36 37  1  0
 36 38  1  0
 35 39  1  0
 35 40  1  0
  6 41  1  0
  5 42  1  0
  5 43  1  0
  4 44  1  0
  4 45  1  0
 36  2  1  0
 34  7  1  0
 15 10  1  0
 27 23  1  0
M  END
>  <cnnaffinity>  (1) 
-5.93496

>  <filename>  (1) 
FC1(F)CCC(c2nc(CCc3cnco3)n(-c3cccnc3)n2)CC1

$$$$
