
     RDKit          3D

 44 47  0  0  0  0  0  0  0  0999 V2000
    5.6059   -5.8645   26.3361 F   0  0  0  0  0  0  0  0  0  0  0  0
    5.7071   -4.9688   25.3056 C   0  0  0  0  0  0  0  0  0  0  0  0
    4.4442   -4.8694   24.7714 F   0  0  0  0  0  0  0  0  0  0  0  0
    6.1278   -3.6135   25.8491 C   0  0  0  0  0  0  0  0  0  0  0  0
    6.3659   -2.6025   24.7168 C   0  0  0  0  0  0  0  0  0  0  0  0
    7.3793   -3.1597   23.6751 C   0  0  0  0  0  0  0  0  0  0  0  0
    7.7002   -2.1529   22.6124 C   0  0  0  0  0  0  0  0  0  0  0  0
    6.8563   -1.7666   21.6761 N   0  0  0  0  0  0  0  0  0  0  0  0
    7.5397   -0.7805   21.0276 N   0  0  0  0  0  0  0  0  0  0  0  0
    6.8691   -0.0712   19.9735 C   0  0  0  0  0  0  0  0  0  0  0  0
    5.6508    0.5743   20.2253 C   0  0  0  0  0  0  0  0  0  0  0  0
    5.0147    1.2355   19.1732 C   0  0  0  0  0  0  0  0  0  0  0  0
    5.5912    1.2081   17.9002 C   0  0  0  0  0  0  0  0  0  0  0  0
    6.7346    0.5610   17.6366 N   0  0  0  0  0  0  0  0  0  0  0  0
    7.3546   -0.0551   18.6532 C   0  0  0  0  0  0  0  0  0  0  0  0
    8.2722   -0.5806   18.3980 H   0  0  0  0  0  0  0  0  0  0  0  0
    5.1236    1.7312   17.0691 H   0  0  0  0  0  0  0  0  0  0  0  0
    4.0891    1.7758   19.3246 H   0  0  0  0  0  0  0  0  0  0  0  0
    5.2123    0.5434   21.2224 H   0  0  0  0  0  0  0  0  0  0  0  0
    8.7566   -0.6271   21.6395 C   0  0  0  0  0  0  0  0  0  0  0  0
    9.7518    0.4516   21.3529 C   0  0  0  0  0  0  0  0  0  0  0  0
    9.2803    1.7511   21.9498 C   0  0  0  0  0  0  0  0  0  0  0  0
    9.4979    2.1942   23.2216 C   0  0  0  0  0  0  0  0  0  0  0  0
    8.7168    3.3049   23.4181 N   0  0  0  0  0  0  0  0  0  0  0  0
    7.9842    3.5617   22.2879 C   0  0  0  0  0  0  0  0  0  0  0  0
    8.3172    2.6061   21.3610 C   0  0  0  0  0  0  0  0  0  0  0  0
    7.9397    2.4350   20.3645 H   0  0  0  0  0  0  0  0  0  0  0  0
    7.3082    4.4072   22.2482 H   0  0  0  0  0  0  0  0  0  0  0  0
    8.6602    3.8223   24.2816 H   0  0  0  0  0  0  0  0  0  0  0  0
   10.1160    1.7696   24.0027 H   0  0  0  0  0  0  0  0  0  0  0  0
   10.7230    0.1304   21.7445 H   0  0  0  0  0  0  0  0  0  0  0  0
    9.8546    0.5342   20.2732 H   0  0  0  0  0  0  0  0  0  0  0  0
    8.8858   -1.4911   22.6208 N   0  0  0  0  0  0  0  0  0  0  0  0
    6.8966   -4.5157   23.1104 C   0  0  0  0  0  0  0  0  0  0  0  0
    6.6464   -5.5202   24.2453 C   0  0  0  0  0  0  0  0  0  0  0  0
    7.5867   -5.7567   24.7591 H   0  0  0  0  0  0  0  0  0  0  0  0
    6.2140   -6.4515   23.8679 H   0  0  0  0  0  0  0  0  0  0  0  0
    5.9745   -4.3619   22.5348 H   0  0  0  0  0  0  0  0  0  0  0  0
    7.6394   -4.9294   22.4188 H   0  0  0  0  0  0  0  0  0  0  0  0
    8.3386   -3.3127   24.1859 H   0  0  0  0  0  0  0  0  0  0  0  0
    5.4153   -2.3819   24.2152 H   0  0  0  0  0  0  0  0  0  0  0  0
    6.7329   -1.6584   25.1359 H   0  0  0  0  0  0  0  0  0  0  0  0
    7.0533   -3.7790   26.4144 H   0  0  0  0  0  0  0  0  0  0  0  0
    5.3611   -3.2735   26.5548 H   0  0  0  0  0  0  0  0  0  0  0  0
  1  2  1  0
  2  3  1  0
  2  4  1  0
  4  5  1  0
  5  6  1  0
  6  7  1  0
  7  8  2  0
  8  9  1  0
  9 10  1  0
 10 11  2  0
 11 12  1  0
 12 13  2  0
 13 14  1  0
 14 15  2  0
 15 16  1  0
 13 17  1  0
 12 18  1  0
 11 19  1  0
  9 20  1  0
 20 21  1  0
 21 22  1  0
 22 23  2  0
 23 24  1  0
 24 25  1  0
 25 26  2  0
 26 27  1  0
 25 28  1  0
 24 29  1  0
 23 30  1  0
 21 31  1  0
 21 32  1  0
 20 33  2  0
  6 34  1  0
 34 35  1  0
 35 36  1  0
 35 37  1  0
 34 38  1  0
 34 39  1  0
  6 40  1  0
  5 41  1  0
  5 42  1  0
  4 43  1  0
  4 44  1  0
 35  2  1  0
 33  7  1  0
 15 10  1  0
 26 22  1  0
M  END
>  <cnnaffinity>  (1) 
-6.09635

>  <filename>  (1) 
FC1(F)CCC(c2nc(Cc3cc[nH]c3)n(-c3cccnc3)n2)CC1

$$$$
