
     RDKit          3D

 49 52  0  0  0  0  0  0  0  0999 V2000
    4.4641   -4.5447   24.7088 F   0  0  0  0  0  0  0  0  0  0  0  0
    5.7070   -4.7183   25.2687 C   0  0  0  0  0  0  0  0  0  0  0  0
    5.5294   -5.6202   26.2824 F   0  0  0  0  0  0  0  0  0  0  0  0
    6.1837   -3.3870   25.8327 C   0  0  0  0  0  0  0  0  0  0  0  0
    6.4703   -2.3730   24.7213 C   0  0  0  0  0  0  0  0  0  0  0  0
    7.4375   -2.9472   23.6580 C   0  0  0  0  0  0  0  0  0  0  0  0
    7.6869   -1.9504   22.5666 C   0  0  0  0  0  0  0  0  0  0  0  0
    6.7545   -1.6064   21.6940 N   0  0  0  0  0  0  0  0  0  0  0  0
    7.3707   -0.6661   20.9380 N   0  0  0  0  0  0  0  0  0  0  0  0
    6.6607    0.0071   19.9018 C   0  0  0  0  0  0  0  0  0  0  0  0
    5.4418    0.6427   20.1692 C   0  0  0  0  0  0  0  0  0  0  0  0
    4.8128    1.3092   19.1109 C   0  0  0  0  0  0  0  0  0  0  0  0
    5.4023    1.2950   17.8393 C   0  0  0  0  0  0  0  0  0  0  0  0
    6.5635    0.6757   17.5783 N   0  0  0  0  0  0  0  0  0  0  0  0
    7.1710    0.0566   18.5947 C   0  0  0  0  0  0  0  0  0  0  0  0
    8.1152   -0.4342   18.3735 H   0  0  0  0  0  0  0  0  0  0  0  0
    4.9145    1.7820   16.9960 H   0  0  0  0  0  0  0  0  0  0  0  0
    3.8782    1.8407   19.2636 H   0  0  0  0  0  0  0  0  0  0  0  0
    5.0143    0.6158   21.1746 H   0  0  0  0  0  0  0  0  0  0  0  0
    8.6318   -0.4773   21.4180 C   0  0  0  0  0  0  0  0  0  0  0  0
    9.5336    0.6071   20.9351 C   0  0  0  0  0  0  0  0  0  0  0  0
    9.0466    2.0109   21.3256 C   0  0  0  0  0  0  0  0  0  0  0  0
    8.9702    2.2105   22.8400 C   0  0  0  0  0  0  0  0  0  0  0  0
    8.5366    3.5474   23.1971 N   0  0  0  0  0  0  0  0  0  0  0  0
    9.3402    4.6550   23.3579 C   0  0  0  0  0  0  0  0  0  0  0  0
    8.4881    5.7022   23.5469 C   0  0  0  0  0  0  0  0  0  0  0  0
    7.1834    5.2811   23.4990 N   0  0  0  0  0  0  0  0  0  0  0  0
    7.2495    3.9937   23.2708 C   0  0  0  0  0  0  0  0  0  0  0  0
    6.3921    3.3332   23.1523 H   0  0  0  0  0  0  0  0  0  0  0  0
    8.7551    6.7383   23.7212 H   0  0  0  0  0  0  0  0  0  0  0  0
   10.4225    4.6136   23.3023 H   0  0  0  0  0  0  0  0  0  0  0  0
    8.2924    1.4836   23.2971 H   0  0  0  0  0  0  0  0  0  0  0  0
    9.9492    2.0333   23.2971 H   0  0  0  0  0  0  0  0  0  0  0  0
    8.0611    2.1992   20.8828 H   0  0  0  0  0  0  0  0  0  0  0  0
    9.7339    2.7512   20.9094 H   0  0  0  0  0  0  0  0  0  0  0  0
   10.5233    0.4098   21.3576 H   0  0  0  0  0  0  0  0  0  0  0  0
    9.6231    0.5428   19.8480 H   0  0  0  0  0  0  0  0  0  0  0  0
    8.8613   -1.2843   22.4371 N   0  0  0  0  0  0  0  0  0  0  0  0
    6.9235   -4.2904   23.0949 C   0  0  0  0  0  0  0  0  0  0  0  0
    6.6409   -5.2972   24.2148 C   0  0  0  0  0  0  0  0  0  0  0  0
    6.2022   -6.2169   23.8151 H   0  0  0  0  0  0  0  0  0  0  0  0
    7.5710   -5.5687   24.7252 H   0  0  0  0  0  0  0  0  0  0  0  0
    7.6561   -4.7111   22.3969 H   0  0  0  0  0  0  0  0  0  0  0  0
    6.0066   -4.1041   22.5233 H   0  0  0  0  0  0  0  0  0  0  0  0
    8.4038   -3.1192   24.1411 H   0  0  0  0  0  0  0  0  0  0  0  0
    6.8816   -1.4534   25.1539 H   0  0  0  0  0  0  0  0  0  0  0  0
    5.5319   -2.1015   24.2315 H   0  0  0  0  0  0  0  0  0  0  0  0
    5.4331   -3.0049   26.5328 H   0  0  0  0  0  0  0  0  0  0  0  0
    7.0953   -3.5876   26.4040 H   0  0  0  0  0  0  0  0  0  0  0  0
  1  2  1  0
  2  3  1  0
  2  4  1  0
  4  5  1  0
  5  6  1  0
  6  7  1  0
  7  8  2  0
  8  9  1  0
  9 10  1  0
 10 11  2  0
 11 12  1  0
 12 13  2  0
 13 14  1  0
 14 15  2  0
 15 16  1  0
 13 17  1  0
 12 18  1  0
 11 19  1  0
  9 20  1  0
 20 21  1  0
 21 22  1  0
 22 23  1  0
 23 24  1  0
 24 25  1  0
 25 26  2  0
 26 27  1  0
 27 28  2  0
 28 29  1  0
 26 30  1  0
 25 31  1  0
 23 32  1  0
 23 33  1  0
 22 34  1  0
 22 35  1  0
 21 36  1  0
 21 37  1  0
 20 38  2  0
  6 39  1  0
 39 40  1  0
 40 41  1  0
 40 42  1  0
 39 43  1  0
 39 44  1  0
  6 45  1  0
  5 46  1  0
  5 47  1  0
  4 48  1  0
  4 49  1  0
 40  2  1  0
 38  7  1  0
 15 10  1  0
 28 24  1  0
M  END
>  <cnnaffinity>  (1) 
-6.59155

>  <filename>  (1) 
FC1(F)CCC(c2nc(CCCn3ccnc3)n(-c3cccnc3)n2)CC1

$$$$
