
     RDKit          3D

 45 48  0  0  0  0  0  0  0  0999 V2000
    4.5910    5.5794   21.8489 F   0  0  0  0  0  0  0  0  0  0  0  0
    5.7978    5.1473   22.2431 C   0  0  0  0  0  0  0  0  0  0  0  0
    6.4648    5.8811   23.2216 C   0  0  0  0  0  0  0  0  0  0  0  0
    7.7132    5.4179   23.6228 C   0  0  0  0  0  0  0  0  0  0  0  0
    8.2793    4.2598   23.0677 C   0  0  0  0  0  0  0  0  0  0  0  0
    7.5793    3.5389   22.0841 C   0  0  0  0  0  0  0  0  0  0  0  0
    8.0294    2.3966   21.4843 O   0  0  0  0  0  0  0  0  0  0  0  0
    9.3165    1.8695   21.7961 C   0  0  0  0  0  0  0  0  0  0  0  0
    9.5189    0.5856   20.9902 C   0  0  0  0  0  0  0  0  0  0  0  0
    8.6015   -0.5032   21.4119 C   0  0  0  0  0  0  0  0  0  0  0  0
    8.8382   -1.3608   22.3834 N   0  0  0  0  0  0  0  0  0  0  0  0
    7.6625   -2.0304   22.4961 C   0  0  0  0  0  0  0  0  0  0  0  0
    7.4528   -3.1156   23.5081 C   0  0  0  0  0  0  0  0  0  0  0  0
    8.2338   -2.9504   24.8319 C   0  0  0  0  0  0  0  0  0  0  0  0
    7.3650   -3.7006   25.8502 C   0  0  0  0  0  0  0  0  0  0  0  0
    6.0687   -3.8121   25.2819 O   0  0  0  0  0  0  0  0  0  0  0  0
    5.9996   -3.2260   23.9970 C   0  0  0  0  0  0  0  0  0  0  0  0
    5.3742   -3.8664   23.3640 H   0  0  0  0  0  0  0  0  0  0  0  0
    5.5278   -2.2356   24.0512 H   0  0  0  0  0  0  0  0  0  0  0  0
    7.3007   -3.1763   26.8148 H   0  0  0  0  0  0  0  0  0  0  0  0
    7.7394   -4.7144   26.0521 H   0  0  0  0  0  0  0  0  0  0  0  0
    9.2491   -3.3508   24.7835 H   0  0  0  0  0  0  0  0  0  0  0  0
    8.3099   -1.8888   25.0913 H   0  0  0  0  0  0  0  0  0  0  0  0
    7.7411   -4.0575   23.0308 H   0  0  0  0  0  0  0  0  0  0  0  0
    6.7242   -1.6471   21.6479 N   0  0  0  0  0  0  0  0  0  0  0  0
    7.3430   -0.6754   20.9284 N   0  0  0  0  0  0  0  0  0  0  0  0
    6.6545    0.0105   19.8977 C   0  0  0  0  0  0  0  0  0  0  0  0
    5.4355    0.6405   20.1645 C   0  0  0  0  0  0  0  0  0  0  0  0
    4.8087    1.3063   19.1085 C   0  0  0  0  0  0  0  0  0  0  0  0
    5.3985    1.2948   17.8384 C   0  0  0  0  0  0  0  0  0  0  0  0
    6.5563    0.6704   17.5736 N   0  0  0  0  0  0  0  0  0  0  0  0
    7.1668    0.0543   18.5908 C   0  0  0  0  0  0  0  0  0  0  0  0
    8.1125   -0.4321   18.3636 H   0  0  0  0  0  0  0  0  0  0  0  0
    4.9196    1.7863   16.9961 H   0  0  0  0  0  0  0  0  0  0  0  0
    3.8789    1.8414   19.2570 H   0  0  0  0  0  0  0  0  0  0  0  0
    5.0185    0.6154   21.1762 H   0  0  0  0  0  0  0  0  0  0  0  0
   10.5360    0.2199   21.1397 H   0  0  0  0  0  0  0  0  0  0  0  0
    9.4087    0.7942   19.9272 H   0  0  0  0  0  0  0  0  0  0  0  0
   10.1084    2.5909   21.5529 H   0  0  0  0  0  0  0  0  0  0  0  0
    9.3809    1.6262   22.8643 H   0  0  0  0  0  0  0  0  0  0  0  0
    6.3158    3.9923   21.6663 C   0  0  0  0  0  0  0  0  0  0  0  0
    5.7521    3.4756   20.8989 H   0  0  0  0  0  0  0  0  0  0  0  0
    9.2553    3.9243   23.3933 H   0  0  0  0  0  0  0  0  0  0  0  0
    8.2600    5.9682   24.3835 H   0  0  0  0  0  0  0  0  0  0  0  0
    6.0009    6.7758   23.6327 H   0  0  0  0  0  0  0  0  0  0  0  0
  1  2  1  0
  2  3  2  0
  3  4  1  0
  4  5  2  0
  5  6  1  0
  6  7  1  0
  7  8  1  0
  8  9  1  0
  9 10  1  0
 10 11  2  0
 11 12  1  0
 12 13  1  0
 13 14  1  0
 14 15  1  0
 15 16  1  0
 16 17  1  0
 17 18  1  0
 17 19  1  0
 15 20  1  0
 15 21  1  0
 14 22  1  0
 14 23  1  0
 13 24  1  0
 12 25  2  0
 25 26  1  0
 26 27  1  0
 27 28  2  0
 28 29  1  0
 29 30  2  0
 30 31  1  0
 31 32  2  0
 32 33  1  0
 30 34  1  0
 29 35  1  0
 28 36  1  0
  9 37  1  0
  9 38  1  0
  8 39  1  0
  8 40  1  0
  6 41  2  0
 41 42  1  0
  5 43  1  0
  4 44  1  0
  3 45  1  0
 41  2  1  0
 26 10  1  0
 32 27  1  0
 17 13  1  0
M  END
>  <cnnaffinity>  (1) 
-6.1838

>  <filename>  (1) 
Fc1cccc(OCCc2nc(C3CCOC3)nn2-c2cccnc2)c1

$$$$
