
     RDKit          3D

 38 41  0  0  0  0  0  0  0  0999 V2000
    6.1337   -4.6592   21.5464 F   0  0  0  0  0  0  0  0  0  0  0  0
    5.8922   -3.8990   20.4667 C   0  0  0  0  0  0  0  0  0  0  0  0
    5.6306   -4.4187   19.2469 C   0  0  0  0  0  0  0  0  0  0  0  0
    5.3963   -3.1558   18.0967 S   0  0  0  0  0  0  0  0  0  0  0  0
    5.5983   -1.9731   19.2990 C   0  0  0  0  0  0  0  0  0  0  0  0
    5.8615   -2.4707   20.5345 C   0  0  0  0  0  0  0  0  0  0  0  0
    6.0478   -1.5906   21.7464 C   0  0  0  0  0  0  0  0  0  0  0  0
    7.3964   -0.9730   21.9092 C   0  0  0  0  0  0  0  0  0  0  0  0
    8.3049   -1.2993   22.7971 N   0  0  0  0  0  0  0  0  0  0  0  0
    9.3683   -0.5181   22.4524 C   0  0  0  0  0  0  0  0  0  0  0  0
   10.7039   -0.6952   23.0844 C   0  0  0  0  0  0  0  0  0  0  0  0
   11.2762   -2.0862   22.7001 C   0  0  0  0  0  0  0  0  0  0  0  0
   10.6539   -3.0064   23.7749 C   0  0  0  0  0  0  0  0  0  0  0  0
   10.1557   -2.1650   24.8016 O   0  0  0  0  0  0  0  0  0  0  0  0
   10.5404   -0.8242   24.5986 C   0  0  0  0  0  0  0  0  0  0  0  0
   11.4731   -0.5881   25.1329 H   0  0  0  0  0  0  0  0  0  0  0  0
    9.7550   -0.1846   25.0136 H   0  0  0  0  0  0  0  0  0  0  0  0
   11.3716   -3.7140   24.2125 H   0  0  0  0  0  0  0  0  0  0  0  0
    9.8107   -3.5700   23.3627 H   0  0  0  0  0  0  0  0  0  0  0  0
   10.9897   -2.3824   21.6874 H   0  0  0  0  0  0  0  0  0  0  0  0
   12.3692   -2.0976   22.7140 H   0  0  0  0  0  0  0  0  0  0  0  0
   11.3207    0.1453   22.7699 H   0  0  0  0  0  0  0  0  0  0  0  0
    9.1738    0.2715   21.4229 N   0  0  0  0  0  0  0  0  0  0  0  0
    7.8713    0.0260   21.1150 N   0  0  0  0  0  0  0  0  0  0  0  0
    7.2380    0.6775   20.0408 C   0  0  0  0  0  0  0  0  0  0  0  0
    5.9771    1.2746   20.1587 C   0  0  0  0  0  0  0  0  0  0  0  0
    5.3443    1.6898   18.9848 C   0  0  0  0  0  0  0  0  0  0  0  0
    5.9926    1.4898   17.7644 C   0  0  0  0  0  0  0  0  0  0  0  0
    7.2428    0.9959   17.6598 N   0  0  0  0  0  0  0  0  0  0  0  0
    7.8572    0.6356   18.7856 C   0  0  0  0  0  0  0  0  0  0  0  0
    8.8700    0.2490   18.7081 H   0  0  0  0  0  0  0  0  0  0  0  0
    5.4990    1.7388   16.8320 H   0  0  0  0  0  0  0  0  0  0  0  0
    4.3639    2.1550   19.0094 H   0  0  0  0  0  0  0  0  0  0  0  0
    5.5075    1.3954   21.1341 H   0  0  0  0  0  0  0  0  0  0  0  0
    5.8454   -2.1351   22.6747 H   0  0  0  0  0  0  0  0  0  0  0  0
    5.3469   -0.7510   21.6440 H   0  0  0  0  0  0  0  0  0  0  0  0
    5.4794   -0.9422   19.0165 H   0  0  0  0  0  0  0  0  0  0  0  0
    5.5130   -5.4626   18.9992 H   0  0  0  0  0  0  0  0  0  0  0  0
  1  2  1  0
  2  3  2  0
  3  4  1  0
  4  5  1  0
  5  6  2  0
  6  7  1  0
  7  8  1  0
  8  9  2  0
  9 10  1  0
 10 11  1  0
 11 12  1  0
 12 13  1  0
 13 14  1  0
 14 15  1  0
 15 16  1  0
 15 17  1  0
 13 18  1  0
 13 19  1  0
 12 20  1  0
 12 21  1  0
 11 22  1  0
 10 23  2  0
 23 24  1  0
 24 25  1  0
 25 26  2  0
 26 27  1  0
 27 28  2  0
 28 29  1  0
 29 30  2  0
 30 31  1  0
 28 32  1  0
 27 33  1  0
 26 34  1  0
  7 35  1  0
  7 36  1  0
  5 37  1  0
  3 38  1  0
  6  2  1  0
 24  8  1  0
 30 25  1  0
 15 11  1  0
M  END
>  <cnnaffinity>  (1) 
-5.79986

>  <filename>  (1) 
Fc1cscc1Cc1nc(C2CCOC2)nn1-c1cccnc1

$$$$
