
     RDKit          3D

 38 42  0  0  0  0  0  0  0  0999 V2000
    6.4006    4.7564   24.5697 F   0  0  0  0  0  0  0  0  0  0  0  0
    6.6570    3.5674   24.0097 C   0  0  0  0  0  0  0  0  0  0  0  0
    7.1844    3.5254   22.7207 C   0  0  0  0  0  0  0  0  0  0  0  0
    7.4328    2.2818   22.1494 C   0  0  0  0  0  0  0  0  0  0  0  0
    7.1587    1.0896   22.8482 C   0  0  0  0  0  0  0  0  0  0  0  0
    7.4300   -0.2430   22.2943 C   0  0  0  0  0  0  0  0  0  0  0  0
    8.0168   -1.2226   22.9604 N   0  0  0  0  0  0  0  0  0  0  0  0
    8.1584   -2.1798   22.0224 C   0  0  0  0  0  0  0  0  0  0  0  0
    8.8928   -3.4578   22.2138 C   0  0  0  0  0  0  0  0  0  0  0  0
    8.2185   -4.7544   21.8763 C   0  0  0  0  0  0  0  0  0  0  0  0
    8.8307   -4.5830   23.2746 C   0  0  0  0  0  0  0  0  0  0  0  0
    9.7812   -4.5643   24.4539 C   0  0  0  0  0  0  0  0  0  0  0  0
    8.8220   -5.7132   24.3033 C   0  0  0  0  0  0  0  0  0  0  0  0
    7.9663   -5.8405   24.9581 H   0  0  0  0  0  0  0  0  0  0  0  0
    9.2594   -6.6517   23.9540 H   0  0  0  0  0  0  0  0  0  0  0  0
   10.8419   -4.7354   24.2581 H   0  0  0  0  0  0  0  0  0  0  0  0
    9.5803   -3.7742   25.1783 H   0  0  0  0  0  0  0  0  0  0  0  0
    8.6027   -5.5116   21.1894 H   0  0  0  0  0  0  0  0  0  0  0  0
    7.1301   -4.7451   21.8934 H   0  0  0  0  0  0  0  0  0  0  0  0
    9.9296   -3.2567   21.9508 H   0  0  0  0  0  0  0  0  0  0  0  0
    7.7297   -1.8642   20.8109 N   0  0  0  0  0  0  0  0  0  0  0  0
    7.2264   -0.6181   20.9909 N   0  0  0  0  0  0  0  0  0  0  0  0
    6.5716    0.0380   19.9165 C   0  0  0  0  0  0  0  0  0  0  0  0
    5.3624    0.7100   20.1142 C   0  0  0  0  0  0  0  0  0  0  0  0
    4.7854    1.3510   19.0161 C   0  0  0  0  0  0  0  0  0  0  0  0
    5.4323    1.2953   17.7791 C   0  0  0  0  0  0  0  0  0  0  0  0
    6.5786    0.6216   17.5803 N   0  0  0  0  0  0  0  0  0  0  0  0
    7.1258   -0.0073   18.6245 C   0  0  0  0  0  0  0  0  0  0  0  0
    8.0432   -0.5628   18.4383 H   0  0  0  0  0  0  0  0  0  0  0  0
    5.0101    1.8064   16.9148 H   0  0  0  0  0  0  0  0  0  0  0  0
    3.8609    1.9054   19.1237 H   0  0  0  0  0  0  0  0  0  0  0  0
    4.9129    0.7465   21.1059 H   0  0  0  0  0  0  0  0  0  0  0  0
    6.6523    1.1962   24.1523 C   0  0  0  0  0  0  0  0  0  0  0  0
    6.3928    0.0976   24.8614 F   0  0  0  0  0  0  0  0  0  0  0  0
    6.3843    2.4235   24.7453 C   0  0  0  0  0  0  0  0  0  0  0  0
    5.9826    2.4724   25.7502 H   0  0  0  0  0  0  0  0  0  0  0  0
    7.8468    2.2338   21.1426 H   0  0  0  0  0  0  0  0  0  0  0  0
    7.3888    4.4479   22.1910 H   0  0  0  0  0  0  0  0  0  0  0  0
  1  2  1  0
  2  3  2  0
  3  4  1  0
  4  5  2  0
  5  6  1  0
  6  7  2  0
  7  8  1  0
  8  9  1  0
  9 10  1  0
 10 11  1  0
 11 12  1  0
 12 13  1  0
 13 14  1  0
 13 15  1  0
 12 16  1  0
 12 17  1  0
 10 18  1  0
 10 19  1  0
  9 20  1  0
  8 21  2  0
 21 22  1  0
 22 23  1  0
 23 24  2  0
 24 25  1  0
 25 26  2  0
 26 27  1  0
 27 28  2  0
 28 29  1  0
 26 30  1  0
 25 31  1  0
 24 32  1  0
  5 33  1  0
 33 34  1  0
 33 35  2  0
 35 36  1  0
  4 37  1  0
  3 38  1  0
 35  2  1  0
 22  6  1  0
 28 23  1  0
 11  9  1  0
 13 11  1  0
M  END
>  <cnnaffinity>  (1) 
-6.24194

>  <filename>  (1) 
Fc1ccc(-c2nc(C3CC34CC4)nn2-c2cccnc2)c(F)c1

$$$$
