
     RDKit          3D

 41 44  0  0  0  0  0  0  0  0999 V2000
   13.2571    1.7191   24.5471 F   0  0  0  0  0  0  0  0  0  0  0  0
   12.4237    1.4221   23.5395 C   0  0  0  0  0  0  0  0  0  0  0  0
   12.7402    0.3446   22.7215 C   0  0  0  0  0  0  0  0  0  0  0  0
   11.8197   -0.0202   21.7345 C   0  0  0  0  0  0  0  0  0  0  0  0
   10.6206    0.6889   21.5686 C   0  0  0  0  0  0  0  0  0  0  0  0
    9.5736    0.1526   20.6218 C   0  0  0  0  0  0  0  0  0  0  0  0
    8.5317   -0.6805   21.2984 C   0  0  0  0  0  0  0  0  0  0  0  0
    8.7285   -1.5123   22.2966 N   0  0  0  0  0  0  0  0  0  0  0  0
    7.5003   -2.0627   22.5007 C   0  0  0  0  0  0  0  0  0  0  0  0
    7.3334   -2.9924   23.6853 C   0  0  0  0  0  0  0  0  0  0  0  0
    6.8514   -2.2428   24.9653 C   0  0  0  0  0  0  0  0  0  0  0  0
    5.9818   -3.2861   25.6716 C   0  0  0  0  0  0  0  0  0  0  0  0
    5.4280   -4.0821   24.4915 C   0  0  0  0  0  0  0  0  0  0  0  0
    6.4566   -4.0991   23.5059 O   0  0  0  0  0  0  0  0  0  0  0  0
    4.5333   -3.6003   24.0703 H   0  0  0  0  0  0  0  0  0  0  0  0
    5.1832   -5.1164   24.7509 H   0  0  0  0  0  0  0  0  0  0  0  0
    6.5850   -3.9262   26.3285 H   0  0  0  0  0  0  0  0  0  0  0  0
    5.1833   -2.8338   26.2689 H   0  0  0  0  0  0  0  0  0  0  0  0
    6.2477   -1.3686   24.6831 H   0  0  0  0  0  0  0  0  0  0  0  0
    7.6961   -1.8916   25.5692 H   0  0  0  0  0  0  0  0  0  0  0  0
    8.3445   -3.3901   23.8316 H   0  0  0  0  0  0  0  0  0  0  0  0
    6.5540   -1.6142   21.6943 N   0  0  0  0  0  0  0  0  0  0  0  0
    7.2314   -0.7626   20.8834 N   0  0  0  0  0  0  0  0  0  0  0  0
    6.5707   -0.0578   19.8418 C   0  0  0  0  0  0  0  0  0  0  0  0
    5.3797    0.6202   20.1087 C   0  0  0  0  0  0  0  0  0  0  0  0
    4.7859    1.3297   19.0624 C   0  0  0  0  0  0  0  0  0  0  0  0
    5.3878    1.3284   17.7968 C   0  0  0  0  0  0  0  0  0  0  0  0
    6.5235    0.6654   17.5308 N   0  0  0  0  0  0  0  0  0  0  0  0
    7.0950   -0.0056   18.5367 C   0  0  0  0  0  0  0  0  0  0  0  0
    8.0301   -0.5123   18.3066 H   0  0  0  0  0  0  0  0  0  0  0  0
    4.9439    1.8693   16.9640 H   0  0  0  0  0  0  0  0  0  0  0  0
    3.8644    1.8785   19.2140 H   0  0  0  0  0  0  0  0  0  0  0  0
    4.9540    0.5901   21.1140 H   0  0  0  0  0  0  0  0  0  0  0  0
   10.0331   -0.5084   19.8775 H   0  0  0  0  0  0  0  0  0  0  0  0
    9.0937    0.9758   20.0871 H   0  0  0  0  0  0  0  0  0  0  0  0
   10.3641    1.8192   22.3627 C   0  0  0  0  0  0  0  0  0  0  0  0
   11.2717    2.1878   23.3659 C   0  0  0  0  0  0  0  0  0  0  0  0
   11.0964    3.0297   24.0276 H   0  0  0  0  0  0  0  0  0  0  0  0
    9.4446    2.4006   22.2193 H   0  0  0  0  0  0  0  0  0  0  0  0
   12.0292   -0.8798   21.0933 H   0  0  0  0  0  0  0  0  0  0  0  0
   13.6697   -0.1967   22.8755 H   0  0  0  0  0  0  0  0  0  0  0  0
  1  2  1  0
  2  3  2  0
  3  4  1  0
  4  5  2  0
  5  6  1  0
  6  7  1  0
  7  8  2  0
  8  9  1  0
  9 10  1  0
 10 11  1  0
 11 12  1  0
 12 13  1  0
 13 14  1  0
 13 15  1  0
 13 16  1  0
 12 17  1  0
 12 18  1  0
 11 19  1  0
 11 20  1  0
 10 21  1  0
  9 22  2  0
 22 23  1  0
 23 24  1  0
 24 25  2  0
 25 26  1  0
 26 27  2  0
 27 28  1  0
 28 29  2  0
 29 30  1  0
 27 31  1  0
 26 32  1  0
 25 33  1  0
  6 34  1  0
  6 35  1  0
  5 36  1  0
 36 37  2  0
 37 38  1  0
 36 39  1  0
  4 40  1  0
  3 41  1  0
 37  2  1  0
 23  7  1  0
 29 24  1  0
 14 10  1  0
M  END
>  <cnnaffinity>  (1) 
-6.18912

>  <filename>  (1) 
Fc1ccc(Cc2nc(C3CCCO3)nn2-c2cccnc2)cc1

$$$$
