
     RDKit          3D

 41 44  0  0  0  0  0  0  0  0999 V2000
   14.0417   -2.1302   21.3613 F   0  0  0  0  0  0  0  0  0  0  0  0
   13.3182   -1.1290   21.8830 C   0  0  0  0  0  0  0  0  0  0  0  0
   13.9703   -0.1212   22.5930 C   0  0  0  0  0  0  0  0  0  0  0  0
   13.2099    0.9003   23.1614 C   0  0  0  0  0  0  0  0  0  0  0  0
   11.8253    0.9100   23.0169 C   0  0  0  0  0  0  0  0  0  0  0  0
   11.1782   -0.0798   22.2470 C   0  0  0  0  0  0  0  0  0  0  0  0
    9.7086    0.0354   22.0790 C   0  0  0  0  0  0  0  0  0  0  0  0
    8.8941   -0.9069   21.6360 N   0  0  0  0  0  0  0  0  0  0  0  0
    7.6624   -0.3473   21.7870 N   0  0  0  0  0  0  0  0  0  0  0  0
    6.5039   -0.9232   21.0973 C   0  0  0  0  0  0  0  0  0  0  0  0
    6.0838   -0.1034   19.8903 C   0  0  0  0  0  0  0  0  0  0  0  0
    4.8853    0.6161   19.8292 C   0  0  0  0  0  0  0  0  0  0  0  0
    4.6398    1.4234   18.7145 C   0  0  0  0  0  0  0  0  0  0  0  0
    5.5845    1.4534   17.6864 C   0  0  0  0  0  0  0  0  0  0  0  0
    6.7312    0.7587   17.7166 N   0  0  0  0  0  0  0  0  0  0  0  0
    6.9686    0.0149   18.8041 C   0  0  0  0  0  0  0  0  0  0  0  0
    7.9098   -0.5365   18.8103 H   0  0  0  0  0  0  0  0  0  0  0  0
    5.4102    2.0537   16.7951 H   0  0  0  0  0  0  0  0  0  0  0  0
    3.7433    2.0273   18.6362 H   0  0  0  0  0  0  0  0  0  0  0  0
    4.1487    0.5515   20.6338 H   0  0  0  0  0  0  0  0  0  0  0  0
    5.6757   -1.0198   21.8040 H   0  0  0  0  0  0  0  0  0  0  0  0
    6.8121   -1.9336   20.8134 H   0  0  0  0  0  0  0  0  0  0  0  0
    7.7962    0.8833   22.3282 C   0  0  0  0  0  0  0  0  0  0  0  0
    6.7025    1.6616   23.0048 C   0  0  0  0  0  0  0  0  0  0  0  0
    6.5000    1.1594   24.4225 C   0  0  0  0  0  0  0  0  0  0  0  0
    5.4655    0.4142   24.9128 C   0  0  0  0  0  0  0  0  0  0  0  0
    5.7777    0.0277   26.1916 N   0  0  0  0  0  0  0  0  0  0  0  0
    7.0004    0.5352   26.5384 C   0  0  0  0  0  0  0  0  0  0  0  0
    7.4691    1.2464   25.4686 C   0  0  0  0  0  0  0  0  0  0  0  0
    8.4179    1.7648   25.3991 H   0  0  0  0  0  0  0  0  0  0  0  0
    7.4410    0.3494   27.5124 H   0  0  0  0  0  0  0  0  0  0  0  0
    5.2350   -0.6190   26.7415 H   0  0  0  0  0  0  0  0  0  0  0  0
    4.5143    0.1725   24.4708 H   0  0  0  0  0  0  0  0  0  0  0  0
    7.0430    2.7021   23.0178 H   0  0  0  0  0  0  0  0  0  0  0  0
    5.7799    1.6214   22.4159 H   0  0  0  0  0  0  0  0  0  0  0  0
    9.0709    1.1755   22.4650 N   0  0  0  0  0  0  0  0  0  0  0  0
   11.9387   -1.1220   21.6818 C   0  0  0  0  0  0  0  0  0  0  0  0
   11.4819   -1.9060   21.0847 H   0  0  0  0  0  0  0  0  0  0  0  0
   11.2322    1.7015   23.4621 H   0  0  0  0  0  0  0  0  0  0  0  0
   13.7187    1.6897   23.7075 H   0  0  0  0  0  0  0  0  0  0  0  0
   15.0488   -0.1073   22.6704 H   0  0  0  0  0  0  0  0  0  0  0  0
  1  2  1  0
  2  3  2  0
  3  4  1  0
  4  5  2  0
  5  6  1  0
  6  7  1  0
  7  8  2  0
  8  9  1  0
  9 10  1  0
 10 11  1  0
 11 12  2  0
 12 13  1  0
 13 14  2  0
 14 15  1  0
 15 16  2  0
 16 17  1  0
 14 18  1  0
 13 19  1  0
 12 20  1  0
 10 21  1  0
 10 22  1  0
  9 23  1  0
 23 24  1  0
 24 25  1  0
 25 26  2  0
 26 27  1  0
 27 28  1  0
 28 29  2  0
 29 30  1  0
 28 31  1  0
 27 32  1  0
 26 33  1  0
 24 34  1  0
 24 35  1  0
 23 36  2  0
  6 37  2  0
 37 38  1  0
  5 39  1  0
  4 40  1  0
  3 41  1  0
 37  2  1  0
 36  7  1  0
 16 11  1  0
 29 25  1  0
M  END
>  <cnnaffinity>  (1) 
-6.14389

>  <filename>  (1) 
Fc1cccc(-c2nc(Cc3cc[nH]c3)n(Cc3cccnc3)n2)c1

$$$$
