
     RDKit          3D

 45 48  0  0  0  0  0  0  0  0999 V2000
    9.3634    3.8266   25.7437 F   0  0  0  0  0  0  0  0  0  0  0  0
    9.6645    3.0721   24.6736 C   0  0  0  0  0  0  0  0  0  0  0  0
    8.7097    2.8666   23.6877 C   0  0  0  0  0  0  0  0  0  0  0  0
    9.0270    2.0542   22.5929 C   0  0  0  0  0  0  0  0  0  0  0  0
   10.2897    1.4549   22.4679 C   0  0  0  0  0  0  0  0  0  0  0  0
   10.6576    0.6274   21.4490 O   0  0  0  0  0  0  0  0  0  0  0  0
    9.6419    0.0830   20.6220 C   0  0  0  0  0  0  0  0  0  0  0  0
    8.5958   -0.7296   21.3291 C   0  0  0  0  0  0  0  0  0  0  0  0
    8.7711   -1.5142   22.3709 N   0  0  0  0  0  0  0  0  0  0  0  0
    7.5211   -1.9807   22.6253 C   0  0  0  0  0  0  0  0  0  0  0  0
    7.2838   -2.8934   23.8076 C   0  0  0  0  0  0  0  0  0  0  0  0
    7.6367   -2.1692   25.1535 C   0  0  0  0  0  0  0  0  0  0  0  0
    9.0398   -2.5467   25.6434 C   0  0  0  0  0  0  0  0  0  0  0  0
    9.1860   -3.9425   25.8820 O   0  0  0  0  0  0  0  0  0  0  0  0
    8.4367   -4.8217   25.0467 C   0  0  0  0  0  0  0  0  0  0  0  0
    8.1232   -4.2070   23.6781 C   0  0  0  0  0  0  0  0  0  0  0  0
    9.0849   -3.9739   23.1971 H   0  0  0  0  0  0  0  0  0  0  0  0
    7.6092   -4.9394   23.0461 H   0  0  0  0  0  0  0  0  0  0  0  0
    9.0418   -5.7274   24.9325 H   0  0  0  0  0  0  0  0  0  0  0  0
    7.5119   -5.1177   25.5710 H   0  0  0  0  0  0  0  0  0  0  0  0
    9.7808   -2.2134   24.8967 H   0  0  0  0  0  0  0  0  0  0  0  0
    9.2627   -2.0522   26.5935 H   0  0  0  0  0  0  0  0  0  0  0  0
    7.5737   -1.0804   25.0363 H   0  0  0  0  0  0  0  0  0  0  0  0
    6.9135   -2.4429   25.9338 H   0  0  0  0  0  0  0  0  0  0  0  0
    6.2150   -3.1278   23.8026 H   0  0  0  0  0  0  0  0  0  0  0  0
    6.5940   -1.5480   21.7977 N   0  0  0  0  0  0  0  0  0  0  0  0
    7.2935   -0.7704   20.9246 N   0  0  0  0  0  0  0  0  0  0  0  0
    6.6241   -0.0697   19.8838 C   0  0  0  0  0  0  0  0  0  0  0  0
    5.4277    0.6092   20.1465 C   0  0  0  0  0  0  0  0  0  0  0  0
    4.8325    1.3105   19.0929 C   0  0  0  0  0  0  0  0  0  0  0  0
    5.4329    1.3052   17.8279 C   0  0  0  0  0  0  0  0  0  0  0  0
    6.5619    0.6354   17.5635 N   0  0  0  0  0  0  0  0  0  0  0  0
    7.1332   -0.0365   18.5703 C   0  0  0  0  0  0  0  0  0  0  0  0
    8.0472   -0.5704   18.3272 H   0  0  0  0  0  0  0  0  0  0  0  0
    4.9865    1.8433   16.9922 H   0  0  0  0  0  0  0  0  0  0  0  0
    3.9077    1.8532   19.2382 H   0  0  0  0  0  0  0  0  0  0  0  0
    4.9915    0.5816   21.1477 H   0  0  0  0  0  0  0  0  0  0  0  0
   10.1628   -0.5720   19.9260 H   0  0  0  0  0  0  0  0  0  0  0  0
    9.1969    0.9015   20.0519 H   0  0  0  0  0  0  0  0  0  0  0  0
   11.2312    1.7042   23.4781 C   0  0  0  0  0  0  0  0  0  0  0  0
   12.4622    1.1659   23.4136 F   0  0  0  0  0  0  0  0  0  0  0  0
   10.9276    2.4848   24.5766 C   0  0  0  0  0  0  0  0  0  0  0  0
   11.7165    2.5444   25.3065 H   0  0  0  0  0  0  0  0  0  0  0  0
    8.2624    1.8652   21.8450 H   0  0  0  0  0  0  0  0  0  0  0  0
    7.7240    3.3059   23.7826 H   0  0  0  0  0  0  0  0  0  0  0  0
  1  2  1  0
  2  3  2  0
  3  4  1  0
  4  5  2  0
  5  6  1  0
  6  7  1  0
  7  8  1  0
  8  9  2  0
  9 10  1  0
 10 11  1  0
 11 12  1  0
 12 13  1  0
 13 14  1  0
 14 15  1  0
 15 16  1  0
 16 17  1  0
 16 18  1  0
 15 19  1  0
 15 20  1  0
 13 21  1  0
 13 22  1  0
 12 23  1  0
 12 24  1  0
 11 25  1  0
 10 26  2  0
 26 27  1  0
 27 28  1  0
 28 29  2  0
 29 30  1  0
 30 31  2  0
 31 32  1  0
 32 33  2  0
 33 34  1  0
 31 35  1  0
 30 36  1  0
 29 37  1  0
  7 38  1  0
  7 39  1  0
  5 40  1  0
 40 41  1  0
 40 42  2  0
 42 43  1  0
  4 44  1  0
  3 45  1  0
 42  2  1  0
 27  8  1  0
 33 28  1  0
 16 11  1  0
M  END
>  <cnnaffinity>  (1) 
-6.26054

>  <filename>  (1) 
Fc1ccc(OCc2nc(C3CCOCC3)nn2-c2cccnc2)c(F)c1

$$$$
