
     RDKit          3D

 45 48  0  0  0  0  0  0  0  0999 V2000
    6.4939    1.4759   25.6253 F   0  0  0  0  0  0  0  0  0  0  0  0
    7.6543    1.7289   24.9933 C   0  0  0  0  0  0  0  0  0  0  0  0
    8.8279    1.8994   25.7343 C   0  0  0  0  0  0  0  0  0  0  0  0
   10.0162    2.1164   25.1553 N   0  0  0  0  0  0  0  0  0  0  0  0
   10.0508    2.1634   23.8153 C   0  0  0  0  0  0  0  0  0  0  0  0
    8.9219    2.0293   22.9877 C   0  0  0  0  0  0  0  0  0  0  0  0
    9.0454    2.0091   21.4815 C   0  0  0  0  0  0  0  0  0  0  0  0
    9.5142    0.6273   20.9564 C   0  0  0  0  0  0  0  0  0  0  0  0
    8.6271   -0.4915   21.4070 C   0  0  0  0  0  0  0  0  0  0  0  0
    8.8439   -1.2949   22.4272 N   0  0  0  0  0  0  0  0  0  0  0  0
    7.6427   -1.9198   22.5916 C   0  0  0  0  0  0  0  0  0  0  0  0
    7.3986   -2.8453   23.7421 C   0  0  0  0  0  0  0  0  0  0  0  0
    8.4822   -3.9231   23.9279 C   0  0  0  0  0  0  0  0  0  0  0  0
    8.4098   -4.3257   25.4116 C   0  0  0  0  0  0  0  0  0  0  0  0
    7.6973   -3.1718   26.1575 C   0  0  0  0  0  0  0  0  0  0  0  0
    7.3495   -2.1106   25.1002 C   0  0  0  0  0  0  0  0  0  0  0  0
    6.3742   -1.6378   25.2752 H   0  0  0  0  0  0  0  0  0  0  0  0
    8.1016   -1.3116   25.1090 H   0  0  0  0  0  0  0  0  0  0  0  0
    6.7939   -3.5406   26.6552 H   0  0  0  0  0  0  0  0  0  0  0  0
    8.3293   -2.7441   26.9435 H   0  0  0  0  0  0  0  0  0  0  0  0
    9.4100   -4.5140   25.8154 H   0  0  0  0  0  0  0  0  0  0  0  0
    7.8504   -5.2599   25.5370 H   0  0  0  0  0  0  0  0  0  0  0  0
    8.3238   -4.7769   23.2587 H   0  0  0  0  0  0  0  0  0  0  0  0
    9.4678   -3.5060   23.6895 H   0  0  0  0  0  0  0  0  0  0  0  0
    6.4322   -3.3227   23.5566 H   0  0  0  0  0  0  0  0  0  0  0  0
    6.7201   -1.5779   21.7199 N   0  0  0  0  0  0  0  0  0  0  0  0
    7.3580   -0.6688   20.9353 N   0  0  0  0  0  0  0  0  0  0  0  0
    6.6592    0.0072   19.8992 C   0  0  0  0  0  0  0  0  0  0  0  0
    5.4419    0.6462   20.1637 C   0  0  0  0  0  0  0  0  0  0  0  0
    4.8117    1.3118   19.1093 C   0  0  0  0  0  0  0  0  0  0  0  0
    5.4017    1.2956   17.8379 C   0  0  0  0  0  0  0  0  0  0  0  0
    6.5611    0.6746   17.5782 N   0  0  0  0  0  0  0  0  0  0  0  0
    7.1711    0.0545   18.5918 C   0  0  0  0  0  0  0  0  0  0  0  0
    8.1161   -0.4341   18.3709 H   0  0  0  0  0  0  0  0  0  0  0  0
    4.9162    1.7830   16.9943 H   0  0  0  0  0  0  0  0  0  0  0  0
    3.8776    1.8409   19.2631 H   0  0  0  0  0  0  0  0  0  0  0  0
    5.0134    0.6101   21.1695 H   0  0  0  0  0  0  0  0  0  0  0  0
   10.5202    0.4096   21.3228 H   0  0  0  0  0  0  0  0  0  0  0  0
    9.5696    0.6466   19.8646 H   0  0  0  0  0  0  0  0  0  0  0  0
    9.7529    2.7745   21.1442 H   0  0  0  0  0  0  0  0  0  0  0  0
    8.0795    2.2559   21.0238 H   0  0  0  0  0  0  0  0  0  0  0  0
    7.6848    1.7843   23.6070 C   0  0  0  0  0  0  0  0  0  0  0  0
    6.7798    1.6052   23.0287 H   0  0  0  0  0  0  0  0  0  0  0  0
   11.0281    2.3327   23.3718 H   0  0  0  0  0  0  0  0  0  0  0  0
    8.7941    1.8592   26.8189 H   0  0  0  0  0  0  0  0  0  0  0  0
  1  2  1  0
  2  3  2  0
  3  4  1  0
  4  5  2  0
  5  6  1  0
  6  7  1  0
  7  8  1  0
  8  9  1  0
  9 10  2  0
 10 11  1  0
 11 12  1  0
 12 13  1  0
 13 14  1  0
 14 15  1  0
 15 16  1  0
 16 17  1  0
 16 18  1  0
 15 19  1  0
 15 20  1  0
 14 21  1  0
 14 22  1  0
 13 23  1  0
 13 24  1  0
 12 25  1  0
 11 26  2  0
 26 27  1  0
 27 28  1  0
 28 29  2  0
 29 30  1  0
 30 31  2  0
 31 32  1  0
 32 33  2  0
 33 34  1  0
 31 35  1  0
 30 36  1  0
 29 37  1  0
  8 38  1  0
  8 39  1  0
  7 40  1  0
  7 41  1  0
  6 42  2  0
 42 43  1  0
  5 44  1  0
  3 45  1  0
 42  2  1  0
 27  9  1  0
 33 28  1  0
 16 12  1  0
M  END
>  <cnnaffinity>  (1) 
-6.29174

>  <filename>  (1) 
Fc1cncc(CCc2nc(C3CCCC3)nn2-c2cccnc2)c1

$$$$
