
     RDKit          3D

 44 47  0  0  0  0  0  0  0  0999 V2000
    4.7489    2.2583   27.3446 F   0  0  0  0  0  0  0  0  0  0  0  0
    5.9131    2.4969   26.7267 C   0  0  0  0  0  0  0  0  0  0  0  0
    6.8235    3.4020   27.2862 C   0  0  0  0  0  0  0  0  0  0  0  0
    8.0028    3.6814   26.7168 N   0  0  0  0  0  0  0  0  0  0  0  0
    8.3191    3.0715   25.5665 C   0  0  0  0  0  0  0  0  0  0  0  0
    7.4529    2.1627   24.9412 C   0  0  0  0  0  0  0  0  0  0  0  0
    7.8578    1.5459   23.6828 C   0  0  0  0  0  0  0  0  0  0  0  0
    7.1720    0.5626   23.1300 N   0  0  0  0  0  0  0  0  0  0  0  0
    7.9035    0.2598   22.0387 N   0  0  0  0  0  0  0  0  0  0  0  0
    7.3945   -0.6711   21.0385 C   0  0  0  0  0  0  0  0  0  0  0  0
    6.6588    0.0046   19.8906 C   0  0  0  0  0  0  0  0  0  0  0  0
    5.4430    0.6527   20.1392 C   0  0  0  0  0  0  0  0  0  0  0  0
    4.7986    1.3077   19.0853 C   0  0  0  0  0  0  0  0  0  0  0  0
    5.3944    1.2969   17.8208 C   0  0  0  0  0  0  0  0  0  0  0  0
    6.5524    0.6726   17.5597 N   0  0  0  0  0  0  0  0  0  0  0  0
    7.1606    0.0536   18.5798 C   0  0  0  0  0  0  0  0  0  0  0  0
    8.1041   -0.4329   18.3259 H   0  0  0  0  0  0  0  0  0  0  0  0
    4.9270    1.8095   16.9794 H   0  0  0  0  0  0  0  0  0  0  0  0
    3.8670    1.8454   19.2327 H   0  0  0  0  0  0  0  0  0  0  0  0
    5.0292    0.6483   21.1493 H   0  0  0  0  0  0  0  0  0  0  0  0
    8.2332   -1.2666   20.6633 H   0  0  0  0  0  0  0  0  0  0  0  0
    6.7315   -1.3407   21.5936 H   0  0  0  0  0  0  0  0  0  0  0  0
    8.9843    1.0653   21.9859 C   0  0  0  0  0  0  0  0  0  0  0  0
   10.0758    0.8520   20.9877 C   0  0  0  0  0  0  0  0  0  0  0  0
   11.0358   -0.3213   21.3408 C   0  0  0  0  0  0  0  0  0  0  0  0
   11.7549   -0.0500   22.6397 C   0  0  0  0  0  0  0  0  0  0  0  0
   12.8664    0.7985   22.6838 C   0  0  0  0  0  0  0  0  0  0  0  0
   13.4381    1.1068   23.9121 C   0  0  0  0  0  0  0  0  0  0  0  0
   12.9880    0.6443   25.0853 N   0  0  0  0  0  0  0  0  0  0  0  0
   11.8996   -0.1346   25.0510 C   0  0  0  0  0  0  0  0  0  0  0  0
   11.2530   -0.5047   23.8674 C   0  0  0  0  0  0  0  0  0  0  0  0
   10.3848   -1.1556   23.9071 H   0  0  0  0  0  0  0  0  0  0  0  0
   11.5366   -0.5010   26.0102 H   0  0  0  0  0  0  0  0  0  0  0  0
   14.2797    1.7837   23.9360 H   0  0  0  0  0  0  0  0  0  0  0  0
   13.2699    1.2681   21.7953 H   0  0  0  0  0  0  0  0  0  0  0  0
   10.4849   -1.2701   21.4045 H   0  0  0  0  0  0  0  0  0  0  0  0
   11.7635   -0.4734   20.5379 H   0  0  0  0  0  0  0  0  0  0  0  0
   10.6365    1.7893   20.9287 H   0  0  0  0  0  0  0  0  0  0  0  0
    9.6044    0.6954   20.0128 H   0  0  0  0  0  0  0  0  0  0  0  0
    8.9701    1.9143   22.9974 N   0  0  0  0  0  0  0  0  0  0  0  0
    6.2129    1.8518   25.5389 C   0  0  0  0  0  0  0  0  0  0  0  0
    5.5123    1.1396   25.0983 H   0  0  0  0  0  0  0  0  0  0  0  0
    9.2918    3.3328   25.1493 H   0  0  0  0  0  0  0  0  0  0  0  0
    6.5811    3.9059   28.2169 H   0  0  0  0  0  0  0  0  0  0  0  0
  1  2  1  0
  2  3  2  0
  3  4  1  0
  4  5  2  0
  5  6  1  0
  6  7  1  0
  7  8  2  0
  8  9  1  0
  9 10  1  0
 10 11  1  0
 11 12  2  0
 12 13  1  0
 13 14  2  0
 14 15  1  0
 15 16  2  0
 16 17  1  0
 14 18  1  0
 13 19  1  0
 12 20  1  0
 10 21  1  0
 10 22  1  0
  9 23  1  0
 23 24  1  0
 24 25  1  0
 25 26  1  0
 26 27  2  0
 27 28  1  0
 28 29  2  0
 29 30  1  0
 30 31  2  0
 31 32  1  0
 30 33  1  0
 28 34  1  0
 27 35  1  0
 25 36  1  0
 25 37  1  0
 24 38  1  0
 24 39  1  0
 23 40  2  0
  6 41  2  0
 41 42  1  0
  5 43  1  0
  3 44  1  0
 41  2  1  0
 40  7  1  0
 16 11  1  0
 31 26  1  0
M  END
>  <cnnaffinity>  (1) 
-6.52153

>  <filename>  (1) 
Fc1cncc(-c2nc(CCc3ccncc3)n(Cc3cccnc3)n2)c1

$$$$
