
     RDKit          3D

 44 48  0  0  0  0  0  0  0  0999 V2000
    6.6199    1.1143   25.9664 F   0  0  0  0  0  0  0  0  0  0  0  0
    7.7571    1.4142   25.3194 C   0  0  0  0  0  0  0  0  0  0  0  0
    8.9553    1.4566   26.0186 C   0  0  0  0  0  0  0  0  0  0  0  0
   10.1340    1.7761   25.3346 C   0  0  0  0  0  0  0  0  0  0  0  0
   10.1044    2.0435   23.9643 C   0  0  0  0  0  0  0  0  0  0  0  0
    8.9004    1.9744   23.2376 C   0  0  0  0  0  0  0  0  0  0  0  0
    8.9110    2.0470   21.7234 C   0  0  0  0  0  0  0  0  0  0  0  0
    9.4036    0.7057   21.1075 C   0  0  0  0  0  0  0  0  0  0  0  0
    8.5639   -0.4846   21.4608 C   0  0  0  0  0  0  0  0  0  0  0  0
    8.8365   -1.3650   22.4015 N   0  0  0  0  0  0  0  0  0  0  0  0
    7.7196   -2.1457   22.4308 C   0  0  0  0  0  0  0  0  0  0  0  0
    7.6752   -3.3082   23.3438 C   0  0  0  0  0  0  0  0  0  0  0  0
    7.7569   -4.7204   22.7326 C   0  0  0  0  0  0  0  0  0  0  0  0
    6.5150   -4.2466   23.4191 C   0  0  0  0  0  0  0  0  0  0  0  0
    5.5714   -4.8814   24.3863 C   0  0  0  0  0  0  0  0  0  0  0  0
    5.0551   -4.0522   23.2130 C   0  0  0  0  0  0  0  0  0  0  0  0
    4.7399   -3.0356   23.4300 H   0  0  0  0  0  0  0  0  0  0  0  0
    4.5730   -4.5307   22.3597 H   0  0  0  0  0  0  0  0  0  0  0  0
    5.4686   -4.5048   25.4057 H   0  0  0  0  0  0  0  0  0  0  0  0
    5.4684   -5.9627   24.2787 H   0  0  0  0  0  0  0  0  0  0  0  0
    7.7220   -4.8571   21.6497 H   0  0  0  0  0  0  0  0  0  0  0  0
    8.3704   -5.4487   23.2637 H   0  0  0  0  0  0  0  0  0  0  0  0
    8.2226   -3.1151   24.2663 H   0  0  0  0  0  0  0  0  0  0  0  0
    6.7942   -1.8225   21.5460 N   0  0  0  0  0  0  0  0  0  0  0  0
    7.3438   -0.7578   20.9029 N   0  0  0  0  0  0  0  0  0  0  0  0
    6.6416   -0.0655   19.8614 C   0  0  0  0  0  0  0  0  0  0  0  0
    5.4472    0.6087   20.1331 C   0  0  0  0  0  0  0  0  0  0  0  0
    4.8273    1.3129   19.0919 C   0  0  0  0  0  0  0  0  0  0  0  0
    5.4143    1.3182   17.8212 C   0  0  0  0  0  0  0  0  0  0  0  0
    6.5528    0.6622   17.5497 N   0  0  0  0  0  0  0  0  0  0  0  0
    7.1424   -0.0085   18.5468 C   0  0  0  0  0  0  0  0  0  0  0  0
    8.0563   -0.5348   18.2875 H   0  0  0  0  0  0  0  0  0  0  0  0
    4.9549    1.8556   16.9922 H   0  0  0  0  0  0  0  0  0  0  0  0
    3.9009    1.8504   19.2531 H   0  0  0  0  0  0  0  0  0  0  0  0
    5.0292    0.5805   21.1397 H   0  0  0  0  0  0  0  0  0  0  0  0
    9.4848    0.7950   20.0206 H   0  0  0  0  0  0  0  0  0  0  0  0
   10.4095    0.4840   21.4820 H   0  0  0  0  0  0  0  0  0  0  0  0
    9.5856    2.8496   21.4043 H   0  0  0  0  0  0  0  0  0  0  0  0
    7.9105    2.2928   21.3462 H   0  0  0  0  0  0  0  0  0  0  0  0
    7.7282    1.6699   23.9428 C   0  0  0  0  0  0  0  0  0  0  0  0
    6.5427    1.6104   23.2995 F   0  0  0  0  0  0  0  0  0  0  0  0
   11.0289    2.2922   23.4411 H   0  0  0  0  0  0  0  0  0  0  0  0
   11.0770    1.7744   25.8672 H   0  0  0  0  0  0  0  0  0  0  0  0
    8.9299    1.2316   27.0805 H   0  0  0  0  0  0  0  0  0  0  0  0
  1  2  1  0
  2  3  2  0
  3  4  1  0
  4  5  2  0
  5  6  1  0
  6  7  1  0
  7  8  1  0
  8  9  1  0
  9 10  2  0
 10 11  1  0
 11 12  1  0
 12 13  1  0
 13 14  1  0
 14 15  1  0
 15 16  1  0
 16 17  1  0
 16 18  1  0
 15 19  1  0
 15 20  1  0
 13 21  1  0
 13 22  1  0
 12 23  1  0
 11 24  2  0
 24 25  1  0
 25 26  1  0
 26 27  2  0
 27 28  1  0
 28 29  2  0
 29 30  1  0
 30 31  2  0
 31 32  1  0
 29 33  1  0
 28 34  1  0
 27 35  1  0
  8 36  1  0
  8 37  1  0
  7 38  1  0
  7 39  1  0
  6 40  2  0
 40 41  1  0
  5 42  1  0
  4 43  1  0
  3 44  1  0
 40  2  1  0
 25  9  1  0
 31 26  1  0
 14 12  1  0
 16 14  1  0
M  END
>  <cnnaffinity>  (1) 
-6.28924

>  <filename>  (1) 
Fc1cccc(CCc2nc(C3CC34CC4)nn2-c2cccnc2)c1F

$$$$
