
     RDKit          3D

 36 39  0  0  0  0  0  0  0  0999 V2000
   12.2176   -0.3010   21.8919 F   0  0  0  0  0  0  0  0  0  0  0  0
   11.5629    0.7574   22.4005 C   0  0  0  0  0  0  0  0  0  0  0  0
   12.1292    1.4528   23.4721 C   0  0  0  0  0  0  0  0  0  0  0  0
   11.5245    2.5045   24.0411 N   0  0  0  0  0  0  0  0  0  0  0  0
   10.3411    2.8979   23.5493 C   0  0  0  0  0  0  0  0  0  0  0  0
    9.7164    2.2384   22.4788 C   0  0  0  0  0  0  0  0  0  0  0  0
    8.1466    2.7695   21.9557 Cl  0  0  0  0  0  0  0  0  0  0  0  0
   10.3229    1.1251   21.8712 C   0  0  0  0  0  0  0  0  0  0  0  0
    9.6300    0.2953   20.8103 C   0  0  0  0  0  0  0  0  0  0  0  0
    8.5764   -0.5923   21.3739 C   0  0  0  0  0  0  0  0  0  0  0  0
    8.7842   -1.4492   22.3406 N   0  0  0  0  0  0  0  0  0  0  0  0
    7.5708   -2.0497   22.5103 C   0  0  0  0  0  0  0  0  0  0  0  0
    7.3881   -3.0796   23.5556 C   0  0  0  0  0  0  0  0  0  0  0  0
    6.2140   -3.6785   23.7687 N   0  0  0  0  0  0  0  0  0  0  0  0
    6.4322   -4.5084   24.7769 N   0  0  0  0  0  0  0  0  0  0  0  0
    7.7092   -4.4820   25.2357 C   0  0  0  0  0  0  0  0  0  0  0  0
    8.3756   -3.5617   24.4652 C   0  0  0  0  0  0  0  0  0  0  0  0
    9.4127   -3.2423   24.5100 H   0  0  0  0  0  0  0  0  0  0  0  0
    8.0146   -5.1173   26.0563 H   0  0  0  0  0  0  0  0  0  0  0  0
    5.6502   -5.0530   25.1115 H   0  0  0  0  0  0  0  0  0  0  0  0
    6.6324   -1.6086   21.6819 N   0  0  0  0  0  0  0  0  0  0  0  0
    7.2906   -0.6941   20.9306 N   0  0  0  0  0  0  0  0  0  0  0  0
    6.6359   -0.0007   19.8792 C   0  0  0  0  0  0  0  0  0  0  0  0
    5.4272    0.6443   20.1437 C   0  0  0  0  0  0  0  0  0  0  0  0
    4.7999    1.3222   19.0952 C   0  0  0  0  0  0  0  0  0  0  0  0
    5.3889    1.3033   17.8252 C   0  0  0  0  0  0  0  0  0  0  0  0
    6.5396    0.6644   17.5593 N   0  0  0  0  0  0  0  0  0  0  0  0
    7.1504    0.0392   18.5720 C   0  0  0  0  0  0  0  0  0  0  0  0
    8.0967   -0.4467   18.3329 H   0  0  0  0  0  0  0  0  0  0  0  0
    4.9271    1.8150   16.9851 H   0  0  0  0  0  0  0  0  0  0  0  0
    3.8682    1.8546   19.2484 H   0  0  0  0  0  0  0  0  0  0  0  0
    5.0179    0.5802   21.1527 H   0  0  0  0  0  0  0  0  0  0  0  0
    9.1832    0.9488   20.0636 H   0  0  0  0  0  0  0  0  0  0  0  0
   10.3415   -0.3766   20.3238 H   0  0  0  0  0  0  0  0  0  0  0  0
    9.8560    3.7505   24.0283 H   0  0  0  0  0  0  0  0  0  0  0  0
   13.0879    1.1230   23.8713 H   0  0  0  0  0  0  0  0  0  0  0  0
  1  2  1  0
  2  3  2  0
  3  4  1  0
  4  5  2  0
  5  6  1  0
  6  7  1  0
  6  8  2  0
  8  9  1  0
  9 10  1  0
 10 11  2  0
 11 12  1  0
 12 13  1  0
 13 14  2  0
 14 15  1  0
 15 16  1  0
 16 17  2  0
 17 18  1  0
 16 19  1  0
 15 20  1  0
 12 21  2  0
 21 22  1  0
 22 23  1  0
 23 24  2  0
 24 25  1  0
 25 26  2  0
 26 27  1  0
 27 28  2  0
 28 29  1  0
 26 30  1  0
 25 31  1  0
 24 32  1  0
  9 33  1  0
  9 34  1  0
  5 35  1  0
  3 36  1  0
  8  2  1  0
 22 10  1  0
 28 23  1  0
 17 13  1  0
M  END
>  <cnnaffinity>  (1) 
-6.33387

>  <filename>  (1) 
Fc1cncc(Cl)c1Cc1nc(-c2cc[nH]n2)nn1-c1cccnc1

$$$$
