
     RDKit          3D

 40 43  0  0  0  0  0  0  0  0999 V2000
   14.1914    1.0603   23.5353 F   0  0  0  0  0  0  0  0  0  0  0  0
   13.3193    0.2852   22.8769 C   0  0  0  0  0  0  0  0  0  0  0  0
   13.8006   -0.8642   22.2546 C   0  0  0  0  0  0  0  0  0  0  0  0
   12.8952   -1.6587   21.5499 C   0  0  0  0  0  0  0  0  0  0  0  0
   11.5371   -1.3357   21.4841 C   0  0  0  0  0  0  0  0  0  0  0  0
   11.0538   -0.1819   22.1485 C   0  0  0  0  0  0  0  0  0  0  0  0
    9.5914    0.1333   22.1492 C   0  0  0  0  0  0  0  0  0  0  0  0
    8.6947   -0.6340   21.5388 N   0  0  0  0  0  0  0  0  0  0  0  0
    7.5146   -0.0508   21.8347 N   0  0  0  0  0  0  0  0  0  0  0  0
    6.2694   -0.5291   21.2337 C   0  0  0  0  0  0  0  0  0  0  0  0
    5.9329    0.1247   19.9057 C   0  0  0  0  0  0  0  0  0  0  0  0
    4.7936    0.9144   19.7282 C   0  0  0  0  0  0  0  0  0  0  0  0
    4.6192    1.5930   18.5189 C   0  0  0  0  0  0  0  0  0  0  0  0
    5.5864    1.4350   17.5235 C   0  0  0  0  0  0  0  0  0  0  0  0
    6.6549    0.6364   17.6444 N   0  0  0  0  0  0  0  0  0  0  0  0
    6.8107    0.0016   18.8130 C   0  0  0  0  0  0  0  0  0  0  0  0
    7.6858   -0.6400   18.8924 H   0  0  0  0  0  0  0  0  0  0  0  0
    5.5036    1.9821   16.5868 H   0  0  0  0  0  0  0  0  0  0  0  0
    3.7701    2.2452   18.3452 H   0  0  0  0  0  0  0  0  0  0  0  0
    4.0503    1.0073   20.5242 H   0  0  0  0  0  0  0  0  0  0  0  0
    6.3515   -1.6186   21.1456 H   0  0  0  0  0  0  0  0  0  0  0  0
    5.4820   -0.3172   21.9547 H   0  0  0  0  0  0  0  0  0  0  0  0
    7.7471    1.0511   22.5824 C   0  0  0  0  0  0  0  0  0  0  0  0
    6.6732    1.8791   23.2219 C   0  0  0  0  0  0  0  0  0  0  0  0
    6.3548    1.3284   24.5327 N   0  0  0  0  0  0  0  0  0  0  0  0
    6.9275    1.6203   25.7289 C   0  0  0  0  0  0  0  0  0  0  0  0
    6.6078    0.5963   26.5898 C   0  0  0  0  0  0  0  0  0  0  0  0
    5.8403   -0.2957   25.8042 C   0  0  0  0  0  0  0  0  0  0  0  0
    5.7122    0.1572   24.5618 N   0  0  0  0  0  0  0  0  0  0  0  0
    5.4300   -1.2629   26.0705 H   0  0  0  0  0  0  0  0  0  0  0  0
    6.9157    0.4894   27.6216 H   0  0  0  0  0  0  0  0  0  0  0  0
    7.5161    2.5205   25.8553 H   0  0  0  0  0  0  0  0  0  0  0  0
    5.7519    1.8925   22.6320 H   0  0  0  0  0  0  0  0  0  0  0  0
    7.0302    2.9020   23.3463 H   0  0  0  0  0  0  0  0  0  0  0  0
    9.0378    1.1985   22.7949 N   0  0  0  0  0  0  0  0  0  0  0  0
   11.9741    0.6500   22.8272 C   0  0  0  0  0  0  0  0  0  0  0  0
   11.6706    1.5688   23.3231 H   0  0  0  0  0  0  0  0  0  0  0  0
   10.8365   -1.9797   20.9569 H   0  0  0  0  0  0  0  0  0  0  0  0
   13.2795   -2.5206   21.0198 H   0  0  0  0  0  0  0  0  0  0  0  0
   14.8433   -1.1425   22.3438 H   0  0  0  0  0  0  0  0  0  0  0  0
  1  2  1  0
  2  3  2  0
  3  4  1  0
  4  5  2  0
  5  6  1  0
  6  7  1  0
  7  8  2  0
  8  9  1  0
  9 10  1  0
 10 11  1  0
 11 12  2  0
 12 13  1  0
 13 14  2  0
 14 15  1  0
 15 16  2  0
 16 17  1  0
 14 18  1  0
 13 19  1  0
 12 20  1  0
 10 21  1  0
 10 22  1  0
  9 23  1  0
 23 24  1  0
 24 25  1  0
 25 26  1  0
 26 27  2  0
 27 28  1  0
 28 29  2  0
 28 30  1  0
 27 31  1  0
 26 32  1  0
 24 33  1  0
 24 34  1  0
 23 35  2  0
  6 36  2  0
 36 37  1  0
  5 38  1  0
  4 39  1  0
  3 40  1  0
 36  2  1  0
 35  7  1  0
 16 11  1  0
 29 25  1  0
M  END
>  <cnnaffinity>  (1) 
-5.91725

>  <filename>  (1) 
Fc1cccc(-c2nc(Cn3cccn3)n(Cc3cccnc3)n2)c1

$$$$
