
     RDKit          3D

 40 43  0  0  0  0  0  0  0  0999 V2000
    3.9262    1.2186   26.9157 F   0  0  0  0  0  0  0  0  0  0  0  0
    4.8392    1.1742   25.9358 C   0  0  0  0  0  0  0  0  0  0  0  0
    6.1409    0.7688   26.2144 C   0  0  0  0  0  0  0  0  0  0  0  0
    7.0408    0.7696   25.1456 C   0  0  0  0  0  0  0  0  0  0  0  0
    6.6096    1.1964   23.8817 C   0  0  0  0  0  0  0  0  0  0  0  0
    7.5387    1.2546   22.7120 C   0  0  0  0  0  0  0  0  0  0  0  0
    7.6584   -0.1247   22.1721 C   0  0  0  0  0  0  0  0  0  0  0  0
    8.2063   -1.0823   22.8942 N   0  0  0  0  0  0  0  0  0  0  0  0
    8.2881   -2.1165   22.0270 C   0  0  0  0  0  0  0  0  0  0  0  0
    8.7744   -3.5161   22.3434 C   0  0  0  0  0  0  0  0  0  0  0  0
    7.8017   -4.4179   23.1593 C   0  0  0  0  0  0  0  0  0  0  0  0
    8.7549   -5.3067   23.9698 C   0  0  0  0  0  0  0  0  0  0  0  0
    9.9389   -4.3663   24.1884 C   0  0  0  0  0  0  0  0  0  0  0  0
   10.0234   -3.5602   23.0210 O   0  0  0  0  0  0  0  0  0  0  0  0
   10.8950   -4.8878   24.3127 H   0  0  0  0  0  0  0  0  0  0  0  0
    9.7741   -3.7011   25.0486 H   0  0  0  0  0  0  0  0  0  0  0  0
    8.3372   -5.6492   24.9224 H   0  0  0  0  0  0  0  0  0  0  0  0
    9.0455   -6.2034   23.4061 H   0  0  0  0  0  0  0  0  0  0  0  0
    7.1922   -3.7942   23.8239 H   0  0  0  0  0  0  0  0  0  0  0  0
    7.1250   -4.9867   22.5114 H   0  0  0  0  0  0  0  0  0  0  0  0
    8.8933   -3.9217   21.3385 H   0  0  0  0  0  0  0  0  0  0  0  0
    7.8113   -1.8607   20.8193 N   0  0  0  0  0  0  0  0  0  0  0  0
    7.3685   -0.5805   20.9207 N   0  0  0  0  0  0  0  0  0  0  0  0
    6.6276    0.0378   19.8758 C   0  0  0  0  0  0  0  0  0  0  0  0
    5.4130    0.6935   20.1210 C   0  0  0  0  0  0  0  0  0  0  0  0
    4.7861    1.3264   19.0409 C   0  0  0  0  0  0  0  0  0  0  0  0
    5.3969    1.2952   17.7849 C   0  0  0  0  0  0  0  0  0  0  0  0
    6.5393    0.6283   17.5426 N   0  0  0  0  0  0  0  0  0  0  0  0
    7.1290    0.0023   18.5647 C   0  0  0  0  0  0  0  0  0  0  0  0
    8.0532   -0.5319   18.3533 H   0  0  0  0  0  0  0  0  0  0  0  0
    4.9632    1.8325   16.9430 H   0  0  0  0  0  0  0  0  0  0  0  0
    3.8544    1.8629   19.1721 H   0  0  0  0  0  0  0  0  0  0  0  0
    4.9837    0.7181   21.1238 H   0  0  0  0  0  0  0  0  0  0  0  0
    7.1608    1.9758   21.9897 H   0  0  0  0  0  0  0  0  0  0  0  0
    8.5362    1.5842   23.0208 H   0  0  0  0  0  0  0  0  0  0  0  0
    5.3390    1.5173   23.6129 N   0  0  0  0  0  0  0  0  0  0  0  0
    4.4723    1.5335   24.6356 C   0  0  0  0  0  0  0  0  0  0  0  0
    3.4553    1.8585   24.4290 H   0  0  0  0  0  0  0  0  0  0  0  0
    8.0569    0.4075   25.2435 H   0  0  0  0  0  0  0  0  0  0  0  0
    6.4166    0.4719   27.2248 H   0  0  0  0  0  0  0  0  0  0  0  0
  1  2  1  0
  2  3  2  0
  3  4  1  0
  4  5  2  0
  5  6  1  0
  6  7  1  0
  7  8  2  0
  8  9  1  0
  9 10  1  0
 10 11  1  0
 11 12  1  0
 12 13  1  0
 13 14  1  0
 13 15  1  0
 13 16  1  0
 12 17  1  0
 12 18  1  0
 11 19  1  0
 11 20  1  0
 10 21  1  0
  9 22  2  0
 22 23  1  0
 23 24  1  0
 24 25  2  0
 25 26  1  0
 26 27  2  0
 27 28  1  0
 28 29  2  0
 29 30  1  0
 27 31  1  0
 26 32  1  0
 25 33  1  0
  6 34  1  0
  6 35  1  0
  5 36  1  0
 36 37  2  0
 37 38  1  0
  4 39  1  0
  3 40  1  0
 37  2  1  0
 23  7  1  0
 29 24  1  0
 14 10  1  0
M  END
>  <cnnaffinity>  (1) 
-6.19661

>  <filename>  (1) 
Fc1ccc(Cc2nc(C3CCCO3)nn2-c2cccnc2)nc1

$$$$
