
     RDKit          3D

 47 51  0  0  0  0  0  0  0  0999 V2000
   13.7905    2.0007   23.6279 F   0  0  0  0  0  0  0  0  0  0  0  0
   13.2416    0.9623   22.9943 C   0  0  0  0  0  0  0  0  0  0  0  0
   14.0512   -0.0501   22.5002 C   0  0  0  0  0  0  0  0  0  0  0  0
   13.4113   -1.0878   21.8270 C   0  0  0  0  0  0  0  0  0  0  0  0
   14.1713   -2.0552   21.3027 F   0  0  0  0  0  0  0  0  0  0  0  0
   12.0303   -1.1431   21.6405 C   0  0  0  0  0  0  0  0  0  0  0  0
   11.2443   -0.0816   22.1296 C   0  0  0  0  0  0  0  0  0  0  0  0
    9.7755    0.0238   21.9133 C   0  0  0  0  0  0  0  0  0  0  0  0
    8.9599   -0.9146   21.4595 N   0  0  0  0  0  0  0  0  0  0  0  0
    7.7326   -0.3449   21.5875 N   0  0  0  0  0  0  0  0  0  0  0  0
    6.5514   -0.9627   20.9850 C   0  0  0  0  0  0  0  0  0  0  0  0
    6.0458   -0.1718   19.7979 C   0  0  0  0  0  0  0  0  0  0  0  0
    4.8709    0.5879   19.8345 C   0  0  0  0  0  0  0  0  0  0  0  0
    4.5832    1.4234   18.7505 C   0  0  0  0  0  0  0  0  0  0  0  0
    5.4640    1.4434   17.6650 C   0  0  0  0  0  0  0  0  0  0  0  0
    6.5690    0.6858   17.5897 N   0  0  0  0  0  0  0  0  0  0  0  0
    6.8457   -0.0900   18.6442 C   0  0  0  0  0  0  0  0  0  0  0  0
    7.7609   -0.6813   18.5823 H   0  0  0  0  0  0  0  0  0  0  0  0
    5.2680    2.0807   16.8061 H   0  0  0  0  0  0  0  0  0  0  0  0
    3.7158    2.0729   18.7504 H   0  0  0  0  0  0  0  0  0  0  0  0
    4.2050    0.5497   20.7025 H   0  0  0  0  0  0  0  0  0  0  0  0
    6.8556   -1.9759   20.7083 H   0  0  0  0  0  0  0  0  0  0  0  0
    5.7878   -1.0504   21.7620 H   0  0  0  0  0  0  0  0  0  0  0  0
    7.8720    0.9027   22.0874 C   0  0  0  0  0  0  0  0  0  0  0  0
    6.8126    1.7259   22.7488 C   0  0  0  0  0  0  0  0  0  0  0  0
    6.5341    1.1478   24.0575 N   0  0  0  0  0  0  0  0  0  0  0  0
    7.3504    1.1398   25.1394 C   0  0  0  0  0  0  0  0  0  0  0  0
    6.9536    0.0859   25.9502 C   0  0  0  0  0  0  0  0  0  0  0  0
    7.6355   -0.4780   27.1365 C   0  0  0  0  0  0  0  0  0  0  0  0
    8.4000    0.4283   28.0492 C   0  0  0  0  0  0  0  0  0  0  0  0
    9.1476   -0.5089   27.1557 C   0  0  0  0  0  0  0  0  0  0  0  0
    9.6558   -0.0759   26.2966 H   0  0  0  0  0  0  0  0  0  0  0  0
    9.6470   -1.3757   27.5711 H   0  0  0  0  0  0  0  0  0  0  0  0
    8.4072    1.4792   27.7797 H   0  0  0  0  0  0  0  0  0  0  0  0
    8.3840    0.2489   29.1154 H   0  0  0  0  0  0  0  0  0  0  0  0
    7.1274   -1.3226   27.6031 H   0  0  0  0  0  0  0  0  0  0  0  0
    5.8376   -0.4443   25.2705 C   0  0  0  0  0  0  0  0  0  0  0  0
    5.6295    0.1807   24.1195 N   0  0  0  0  0  0  0  0  0  0  0  0
    5.1931   -1.2616   25.5709 H   0  0  0  0  0  0  0  0  0  0  0  0
    8.1476    1.8742   25.1893 H   0  0  0  0  0  0  0  0  0  0  0  0
    7.1945    2.7372   22.8966 H   0  0  0  0  0  0  0  0  0  0  0  0
    5.8890    1.7521   22.1762 H   0  0  0  0  0  0  0  0  0  0  0  0
    9.1419    1.1759   22.2657 N   0  0  0  0  0  0  0  0  0  0  0  0
   11.8663    0.9682   22.8319 C   0  0  0  0  0  0  0  0  0  0  0  0
   11.2836    1.7865   23.2429 H   0  0  0  0  0  0  0  0  0  0  0  0
   11.5948   -2.0084   21.1491 H   0  0  0  0  0  0  0  0  0  0  0  0
   15.1213   -0.0105   22.6207 H   0  0  0  0  0  0  0  0  0  0  0  0
  1  2  1  0
  2  3  2  0
  3  4  1  0
  4  5  1  0
  4  6  2  0
  6  7  1  0
  7  8  1  0
  8  9  2  0
  9 10  1  0
 10 11  1  0
 11 12  1  0
 12 13  2  0
 13 14  1  0
 14 15  2  0
 15 16  1  0
 16 17  2  0
 17 18  1  0
 15 19  1  0
 14 20  1  0
 13 21  1  0
 11 22  1  0
 11 23  1  0
 10 24  1  0
 24 25  1  0
 25 26  1  0
 26 27  1  0
 27 28  2  0
 28 29  1  0
 29 30  1  0
 30 31  1  0
 31 32  1  0
 31 33  1  0
 30 34  1  0
 30 35  1  0
 29 36  1  0
 28 37  1  0
 37 38  2  0
 37 39  1  0
 27 40  1  0
 25 41  1  0
 25 42  1  0
 24 43  2  0
  7 44  2  0
 44 45  1  0
  6 46  1  0
  3 47  1  0
 44  2  1  0
 43  8  1  0
 17 12  1  0
 38 26  1  0
 31 29  1  0
M  END
>  <cnnaffinity>  (1) 
-6.31115

>  <filename>  (1) 
Fc1cc(F)cc(-c2nc(Cn3cc(C4CC4)cn3)n(Cc3cccnc3)n2)c1

$$$$
