
     RDKit          3D

 39 42  0  0  0  0  0  0  0  0999 V2000
   14.4327   -1.9495   21.3445 F   0  0  0  0  0  0  0  0  0  0  0  0
   13.6233   -1.0193   21.8642 C   0  0  0  0  0  0  0  0  0  0  0  0
   14.1531   -0.0656   22.7343 C   0  0  0  0  0  0  0  0  0  0  0  0
   13.4210    0.8927   23.3090 N   0  0  0  0  0  0  0  0  0  0  0  0
   12.1203    0.9396   23.0067 C   0  0  0  0  0  0  0  0  0  0  0  0
   11.5135    0.0429   22.1107 C   0  0  0  0  0  0  0  0  0  0  0  0
   10.0760    0.1889   21.9025 C   0  0  0  0  0  0  0  0  0  0  0  0
    9.2828   -0.7540   21.4293 N   0  0  0  0  0  0  0  0  0  0  0  0
    8.0446   -0.2383   21.6298 N   0  0  0  0  0  0  0  0  0  0  0  0
    6.8508   -0.8935   21.0944 C   0  0  0  0  0  0  0  0  0  0  0  0
    6.2907   -0.1315   19.9085 C   0  0  0  0  0  0  0  0  0  0  0  0
    5.0702    0.5546   19.9391 C   0  0  0  0  0  0  0  0  0  0  0  0
    4.7062    1.3349   18.8371 C   0  0  0  0  0  0  0  0  0  0  0  0
    5.5693    1.3922   17.7397 C   0  0  0  0  0  0  0  0  0  0  0  0
    6.7309    0.7219   17.6817 N   0  0  0  0  0  0  0  0  0  0  0  0
    7.0771   -0.0018   18.7516 C   0  0  0  0  0  0  0  0  0  0  0  0
    8.0498   -0.4937   18.7040 H   0  0  0  0  0  0  0  0  0  0  0  0
    5.3276    2.0082   16.8737 H   0  0  0  0  0  0  0  0  0  0  0  0
    3.7978    1.9278   18.8340 H   0  0  0  0  0  0  0  0  0  0  0  0
    4.4190    0.4962   20.8149 H   0  0  0  0  0  0  0  0  0  0  0  0
    7.1495   -1.9160   20.8304 H   0  0  0  0  0  0  0  0  0  0  0  0
    6.0993   -0.9608   21.8910 H   0  0  0  0  0  0  0  0  0  0  0  0
    8.1548    0.9886   22.1837 C   0  0  0  0  0  0  0  0  0  0  0  0
    7.0268    1.7103   22.8690 C   0  0  0  0  0  0  0  0  0  0  0  0
    6.8003    1.1497   24.2730 C   0  0  0  0  0  0  0  0  0  0  0  0
    7.7881    1.0456   25.2274 C   0  0  0  0  0  0  0  0  0  0  0  0
    7.2447    0.4335   26.2985 N   0  0  0  0  0  0  0  0  0  0  0  0
    5.9533    0.1310   26.1248 N   0  0  0  0  0  0  0  0  0  0  0  0
    5.6758    0.5586   24.8956 C   0  0  0  0  0  0  0  0  0  0  0  0
    4.6754    0.4228   24.5101 H   0  0  0  0  0  0  0  0  0  0  0  0
    7.7068    0.1849   27.1644 H   0  0  0  0  0  0  0  0  0  0  0  0
    8.8291    1.3339   25.1683 H   0  0  0  0  0  0  0  0  0  0  0  0
    7.3355    2.7621   22.9203 H   0  0  0  0  0  0  0  0  0  0  0  0
    6.1168    1.6609   22.2616 H   0  0  0  0  0  0  0  0  0  0  0  0
    9.4286    1.2987   22.3432 N   0  0  0  0  0  0  0  0  0  0  0  0
   12.2821   -0.9861   21.5281 C   0  0  0  0  0  0  0  0  0  0  0  0
   11.8678   -1.7249   20.8451 H   0  0  0  0  0  0  0  0  0  0  0  0
   11.5432    1.7160   23.5014 H   0  0  0  0  0  0  0  0  0  0  0  0
   15.2071   -0.0770   22.9325 H   0  0  0  0  0  0  0  0  0  0  0  0
  1  2  1  0
  2  3  2  0
  3  4  1  0
  4  5  2  0
  5  6  1  0
  6  7  1  0
  7  8  2  0
  8  9  1  0
  9 10  1  0
 10 11  1  0
 11 12  2  0
 12 13  1  0
 13 14  2  0
 14 15  1  0
 15 16  2  0
 16 17  1  0
 14 18  1  0
 13 19  1  0
 12 20  1  0
 10 21  1  0
 10 22  1  0
  9 23  1  0
 23 24  1  0
 24 25  1  0
 25 26  2  0
 26 27  1  0
 27 28  1  0
 28 29  2  0
 29 30  1  0
 27 31  1  0
 26 32  1  0
 24 33  1  0
 24 34  1  0
 23 35  2  0
  6 36  2  0
 36 37  1  0
  5 38  1  0
  3 39  1  0
 36  2  1  0
 35  7  1  0
 16 11  1  0
 29 25  1  0
M  END
>  <cnnaffinity>  (1) 
-6.40109

>  <filename>  (1) 
Fc1cncc(-c2nc(Cc3cn[nH]c3)n(Cc3cccnc3)n2)c1

$$$$
