
     RDKit          3D

 37 40  0  0  0  0  0  0  0  0999 V2000
    7.9673    1.1324   25.7346 F   0  0  0  0  0  0  0  0  0  0  0  0
    8.8963    1.6047   24.8850 C   0  0  0  0  0  0  0  0  0  0  0  0
   10.1464    1.9396   25.3978 C   0  0  0  0  0  0  0  0  0  0  0  0
   11.1019    2.4847   24.5353 C   0  0  0  0  0  0  0  0  0  0  0  0
   10.8040    2.6923   23.1910 C   0  0  0  0  0  0  0  0  0  0  0  0
    9.5505    2.3038   22.7095 C   0  0  0  0  0  0  0  0  0  0  0  0
    9.2106    2.5149   21.0201 Cl  0  0  0  0  0  0  0  0  0  0  0  0
    8.5646    1.7249   23.5273 C   0  0  0  0  0  0  0  0  0  0  0  0
    7.2944    1.1300   22.9230 C   0  0  0  0  0  0  0  0  0  0  0  0
    7.5703   -0.1891   22.2564 C   0  0  0  0  0  0  0  0  0  0  0  0
    8.1774   -1.1623   22.9054 N   0  0  0  0  0  0  0  0  0  0  0  0
    8.2230   -2.1695   22.0057 C   0  0  0  0  0  0  0  0  0  0  0  0
    8.8428   -3.4676   22.3667 C   0  0  0  0  0  0  0  0  0  0  0  0
    8.3307   -4.3356   23.4950 C   0  0  0  0  0  0  0  0  0  0  0  0
    8.1795   -4.7931   22.0771 C   0  0  0  0  0  0  0  0  0  0  0  0
    8.7731   -5.6300   21.7136 H   0  0  0  0  0  0  0  0  0  0  0  0
    7.1807   -4.7569   21.6452 H   0  0  0  0  0  0  0  0  0  0  0  0
    7.4360   -4.0406   24.0406 H   0  0  0  0  0  0  0  0  0  0  0  0
    9.0866   -4.8232   24.1093 H   0  0  0  0  0  0  0  0  0  0  0  0
    9.9264   -3.3643   22.3321 H   0  0  0  0  0  0  0  0  0  0  0  0
    7.7173   -1.8831   20.8237 N   0  0  0  0  0  0  0  0  0  0  0  0
    7.2704   -0.6079   20.9816 N   0  0  0  0  0  0  0  0  0  0  0  0
    6.6016    0.0398   19.9039 C   0  0  0  0  0  0  0  0  0  0  0  0
    5.3889    0.7139   20.1030 C   0  0  0  0  0  0  0  0  0  0  0  0
    4.7998    1.3553   19.0092 C   0  0  0  0  0  0  0  0  0  0  0  0
    5.4394    1.3088   17.7688 C   0  0  0  0  0  0  0  0  0  0  0  0
    6.5817    0.6304   17.5595 N   0  0  0  0  0  0  0  0  0  0  0  0
    7.1345   -0.0028   18.5993 C   0  0  0  0  0  0  0  0  0  0  0  0
    8.0415   -0.5663   18.3913 H   0  0  0  0  0  0  0  0  0  0  0  0
    5.0157    1.8233   16.9085 H   0  0  0  0  0  0  0  0  0  0  0  0
    3.8585    1.8839   19.1108 H   0  0  0  0  0  0  0  0  0  0  0  0
    4.9117    0.7190   21.0817 H   0  0  0  0  0  0  0  0  0  0  0  0
    6.8625    1.8400   22.2127 H   0  0  0  0  0  0  0  0  0  0  0  0
    6.5631    0.9391   23.7145 H   0  0  0  0  0  0  0  0  0  0  0  0
   11.5254    3.1336   22.5085 H   0  0  0  0  0  0  0  0  0  0  0  0
   12.0725    2.7680   24.9205 H   0  0  0  0  0  0  0  0  0  0  0  0
   10.3593    1.7494   26.4404 H   0  0  0  0  0  0  0  0  0  0  0  0
  1  2  1  0
  2  3  2  0
  3  4  1  0
  4  5  2  0
  5  6  1  0
  6  7  1  0
  6  8  2  0
  8  9  1  0
  9 10  1  0
 10 11  2  0
 11 12  1  0
 12 13  1  0
 13 14  1  0
 14 15  1  0
 15 16  1  0
 15 17  1  0
 14 18  1  0
 14 19  1  0
 13 20  1  0
 12 21  2  0
 21 22  1  0
 22 23  1  0
 23 24  2  0
 24 25  1  0
 25 26  2  0
 26 27  1  0
 27 28  2  0
 28 29  1  0
 26 30  1  0
 25 31  1  0
 24 32  1  0
  9 33  1  0
  9 34  1  0
  5 35  1  0
  4 36  1  0
  3 37  1  0
  8  2  1  0
 22 10  1  0
 28 23  1  0
 15 13  1  0
M  END
>  <cnnaffinity>  (1) 
-5.85951

>  <filename>  (1) 
Fc1cccc(Cl)c1Cc1nc(C2CC2)nn1-c1cccnc1

$$$$
