
     RDKit          3D

 40 43  0  0  0  0  0  0  0  0999 V2000
    6.1141    3.4829   28.9733 F   0  0  0  0  0  0  0  0  0  0  0  0
    6.4326    2.9931   27.7641 C   0  0  0  0  0  0  0  0  0  0  0  0
    7.5657    3.4834   27.1196 C   0  0  0  0  0  0  0  0  0  0  0  0
    7.8989    2.9645   25.8718 C   0  0  0  0  0  0  0  0  0  0  0  0
    7.1140    1.9637   25.2603 C   0  0  0  0  0  0  0  0  0  0  0  0
    7.5469    1.4450   23.9414 C   0  0  0  0  0  0  0  0  0  0  0  0
    6.9398    0.4919   23.2501 N   0  0  0  0  0  0  0  0  0  0  0  0
    7.7297    0.3430   22.1596 N   0  0  0  0  0  0  0  0  0  0  0  0
    7.3812   -0.6066   21.1045 C   0  0  0  0  0  0  0  0  0  0  0  0
    6.6826    0.0417   19.9245 C   0  0  0  0  0  0  0  0  0  0  0  0
    5.4729    0.7201   20.1186 C   0  0  0  0  0  0  0  0  0  0  0  0
    4.8721    1.3354   19.0200 C   0  0  0  0  0  0  0  0  0  0  0  0
    5.4972    1.2572   17.7737 C   0  0  0  0  0  0  0  0  0  0  0  0
    6.6505    0.6068   17.5646 N   0  0  0  0  0  0  0  0  0  0  0  0
    7.2167    0.0206   18.6280 C   0  0  0  0  0  0  0  0  0  0  0  0
    8.1494   -0.5076   18.4278 H   0  0  0  0  0  0  0  0  0  0  0  0
    5.0547    1.7449   16.9072 H   0  0  0  0  0  0  0  0  0  0  0  0
    3.9452    1.8862   19.1184 H   0  0  0  0  0  0  0  0  0  0  0  0
    5.0226    0.7675   21.1124 H   0  0  0  0  0  0  0  0  0  0  0  0
    8.2895   -1.1279   20.7763 H   0  0  0  0  0  0  0  0  0  0  0  0
    6.7381   -1.3512   21.5828 H   0  0  0  0  0  0  0  0  0  0  0  0
    8.7615    1.2066   22.2375 C   0  0  0  0  0  0  0  0  0  0  0  0
    9.9158    1.2624   21.2830 C   0  0  0  0  0  0  0  0  0  0  0  0
   11.0680    0.3499   21.6324 C   0  0  0  0  0  0  0  0  0  0  0  0
   12.0149    0.4080   22.6247 C   0  0  0  0  0  0  0  0  0  0  0  0
   12.8518   -0.6783   22.5710 N   0  0  0  0  0  0  0  0  0  0  0  0
   12.4265   -1.3874   21.5635 C   0  0  0  0  0  0  0  0  0  0  0  0
   11.3323   -0.8280   20.9770 N   0  0  0  0  0  0  0  0  0  0  0  0
   10.9166   -1.1609   20.1201 H   0  0  0  0  0  0  0  0  0  0  0  0
   12.8604   -2.3069   21.2017 H   0  0  0  0  0  0  0  0  0  0  0  0
   12.1711    1.1853   23.3637 H   0  0  0  0  0  0  0  0  0  0  0  0
    9.5521    1.0746   20.2704 H   0  0  0  0  0  0  0  0  0  0  0  0
   10.2646    2.2960   21.3060 H   0  0  0  0  0  0  0  0  0  0  0  0
    8.6778    1.9150   23.3382 N   0  0  0  0  0  0  0  0  0  0  0  0
    5.9734    1.4850   25.9417 C   0  0  0  0  0  0  0  0  0  0  0  0
    5.6331    2.0014   27.1964 C   0  0  0  0  0  0  0  0  0  0  0  0
    4.7809    1.6343   27.7589 H   0  0  0  0  0  0  0  0  0  0  0  0
    5.3636    0.7014   25.4921 H   0  0  0  0  0  0  0  0  0  0  0  0
    8.7850    3.3197   25.3490 H   0  0  0  0  0  0  0  0  0  0  0  0
    8.1770    4.2333   27.6066 H   0  0  0  0  0  0  0  0  0  0  0  0
  1  2  1  0
  2  3  2  0
  3  4  1  0
  4  5  2  0
  5  6  1  0
  6  7  2  0
  7  8  1  0
  8  9  1  0
  9 10  1  0
 10 11  2  0
 11 12  1  0
 12 13  2  0
 13 14  1  0
 14 15  2  0
 15 16  1  0
 13 17  1  0
 12 18  1  0
 11 19  1  0
  9 20  1  0
  9 21  1  0
  8 22  1  0
 22 23  1  0
 23 24  1  0
 24 25  2  0
 25 26  1  0
 26 27  2  0
 27 28  1  0
 28 29  1  0
 27 30  1  0
 25 31  1  0
 23 32  1  0
 23 33  1  0
 22 34  2  0
  5 35  1  0
 35 36  2  0
 36 37  1  0
 35 38  1  0
  4 39  1  0
  3 40  1  0
 36  2  1  0
 34  6  1  0
 15 10  1  0
 28 24  1  0
M  END
>  <cnnaffinity>  (1) 
-5.78853

>  <filename>  (1) 
Fc1ccc(-c2nc(Cc3cnc[nH]3)n(Cc3cccnc3)n2)cc1

$$$$
