
     RDKit          3D

 44 47  0  0  0  0  0  0  0  0999 V2000
   14.5728    0.7037   22.7191 F   0  0  0  0  0  0  0  0  0  0  0  0
   13.5856   -0.0568   22.2201 C   0  0  0  0  0  0  0  0  0  0  0  0
   13.9246   -1.1585   21.4378 C   0  0  0  0  0  0  0  0  0  0  0  0
   12.9148   -1.9032   20.8434 C   0  0  0  0  0  0  0  0  0  0  0  0
   11.5856   -1.6434   21.1581 C   0  0  0  0  0  0  0  0  0  0  0  0
   11.2413   -0.5159   21.9235 C   0  0  0  0  0  0  0  0  0  0  0  0
    9.8017   -0.2085   22.0656 C   0  0  0  0  0  0  0  0  0  0  0  0
    8.8887   -0.9565   21.4573 N   0  0  0  0  0  0  0  0  0  0  0  0
    7.7277   -0.3466   21.7547 N   0  0  0  0  0  0  0  0  0  0  0  0
    6.4980   -0.7902   21.1096 C   0  0  0  0  0  0  0  0  0  0  0  0
    6.1052    0.0254   19.8895 C   0  0  0  0  0  0  0  0  0  0  0  0
    4.9020    0.7346   19.8007 C   0  0  0  0  0  0  0  0  0  0  0  0
    4.6402    1.4762   18.6469 C   0  0  0  0  0  0  0  0  0  0  0  0
    5.5887    1.4810   17.6231 C   0  0  0  0  0  0  0  0  0  0  0  0
    6.7371    0.7890   17.6734 N   0  0  0  0  0  0  0  0  0  0  0  0
    6.9791    0.0921   18.7893 C   0  0  0  0  0  0  0  0  0  0  0  0
    7.9297   -0.4396   18.8274 H   0  0  0  0  0  0  0  0  0  0  0  0
    5.4267    2.0730   16.7259 H   0  0  0  0  0  0  0  0  0  0  0  0
    3.7386    2.0683   18.5394 H   0  0  0  0  0  0  0  0  0  0  0  0
    4.1799    0.7193   20.6189 H   0  0  0  0  0  0  0  0  0  0  0  0
    5.7090   -0.7741   21.8615 H   0  0  0  0  0  0  0  0  0  0  0  0
    6.6775   -1.8390   20.8518 H   0  0  0  0  0  0  0  0  0  0  0  0
    7.9797    0.7337   22.5293 C   0  0  0  0  0  0  0  0  0  0  0  0
    6.9556    1.6000   23.1971 C   0  0  0  0  0  0  0  0  0  0  0  0
    6.7937    1.2536   24.7064 C   0  0  0  0  0  0  0  0  0  0  0  0
    5.8395    2.1091   25.4944 C   0  0  0  0  0  0  0  0  0  0  0  0
    6.2901    3.1441   26.3109 C   0  0  0  0  0  0  0  0  0  0  0  0
    5.3288    3.8097   27.0545 C   0  0  0  0  0  0  0  0  0  0  0  0
    4.0299    3.5095   26.9904 N   0  0  0  0  0  0  0  0  0  0  0  0
    3.7023    2.5256   26.1522 C   0  0  0  0  0  0  0  0  0  0  0  0
    4.5385    1.8106   25.4043 N   0  0  0  0  0  0  0  0  0  0  0  0
    2.6438    2.2731   26.0785 H   0  0  0  0  0  0  0  0  0  0  0  0
    5.6059    4.6113   27.7422 H   0  0  0  0  0  0  0  0  0  0  0  0
    7.3382    3.4079   26.3683 H   0  0  0  0  0  0  0  0  0  0  0  0
    6.4484    0.2176   24.8061 H   0  0  0  0  0  0  0  0  0  0  0  0
    7.7902    1.3091   25.1586 H   0  0  0  0  0  0  0  0  0  0  0  0
    7.3048    2.6318   23.0772 H   0  0  0  0  0  0  0  0  0  0  0  0
    5.9984    1.5207   22.6722 H   0  0  0  0  0  0  0  0  0  0  0  0
    9.2818    0.8509   22.7287 N   0  0  0  0  0  0  0  0  0  0  0  0
   12.2603    0.2932   22.4662 C   0  0  0  0  0  0  0  0  0  0  0  0
   12.0645    1.1697   23.0757 H   0  0  0  0  0  0  0  0  0  0  0  0
   10.7904   -2.2916   20.8039 H   0  0  0  0  0  0  0  0  0  0  0  0
   13.1552   -2.6829   20.1229 H   0  0  0  0  0  0  0  0  0  0  0  0
   14.9536   -1.4387   21.3058 H   0  0  0  0  0  0  0  0  0  0  0  0
  1  2  1  0
  2  3  2  0
  3  4  1  0
  4  5  2  0
  5  6  1  0
  6  7  1  0
  7  8  2  0
  8  9  1  0
  9 10  1  0
 10 11  1  0
 11 12  2  0
 12 13  1  0
 13 14  2  0
 14 15  1  0
 15 16  2  0
 16 17  1  0
 14 18  1  0
 13 19  1  0
 12 20  1  0
 10 21  1  0
 10 22  1  0
  9 23  1  0
 23 24  1  0
 24 25  1  0
 25 26  1  0
 26 27  2  0
 27 28  1  0
 28 29  2  0
 29 30  1  0
 30 31  2  0
 30 32  1  0
 28 33  1  0
 27 34  1  0
 25 35  1  0
 25 36  1  0
 24 37  1  0
 24 38  1  0
 23 39  2  0
  6 40  2  0
 40 41  1  0
  5 42  1  0
  4 43  1  0
  3 44  1  0
 40  2  1  0
 39  7  1  0
 16 11  1  0
 31 26  1  0
M  END
>  <cnnaffinity>  (1) 
-6.53373

>  <filename>  (1) 
Fc1cccc(-c2nc(CCc3ccncn3)n(Cc3cccnc3)n2)c1

$$$$
