
     RDKit          3D

 41 44  0  0  0  0  0  0  0  0999 V2000
    8.4897    6.5133   23.5109 F   0  0  0  0  0  0  0  0  0  0  0  0
    8.0771    5.4150   24.1631 C   0  0  0  0  0  0  0  0  0  0  0  0
    7.2627    5.5730   25.2809 C   0  0  0  0  0  0  0  0  0  0  0  0
    6.8491    4.4152   25.9340 C   0  0  0  0  0  0  0  0  0  0  0  0
    6.0506    4.5344   27.0061 F   0  0  0  0  0  0  0  0  0  0  0  0
    7.2197    3.1457   25.5098 C   0  0  0  0  0  0  0  0  0  0  0  0
    8.0280    3.0183   24.3693 C   0  0  0  0  0  0  0  0  0  0  0  0
    8.3002    1.6604   23.7872 C   0  0  0  0  0  0  0  0  0  0  0  0
    7.1690    1.2478   22.8137 C   0  0  0  0  0  0  0  0  0  0  0  0
    7.3516   -0.1369   22.2882 C   0  0  0  0  0  0  0  0  0  0  0  0
    7.8658   -1.1042   23.0208 N   0  0  0  0  0  0  0  0  0  0  0  0
    8.1448   -2.0636   22.1158 C   0  0  0  0  0  0  0  0  0  0  0  0
    8.9425   -3.2641   22.4659 C   0  0  0  0  0  0  0  0  0  0  0  0
   10.3136   -2.9315   23.1342 C   0  0  0  0  0  0  0  0  0  0  0  0
   10.0437   -4.1804   24.4343 S   0  0  0  0  0  0  0  0  0  0  0  0
    8.4217   -4.1947   23.5993 C   0  0  0  0  0  0  0  0  0  0  0  0
    7.6383   -3.7672   24.2358 H   0  0  0  0  0  0  0  0  0  0  0  0
    8.1175   -5.1979   23.2816 H   0  0  0  0  0  0  0  0  0  0  0  0
   11.2145   -3.0897   22.5316 H   0  0  0  0  0  0  0  0  0  0  0  0
   10.3543   -1.9223   23.5630 H   0  0  0  0  0  0  0  0  0  0  0  0
    9.0185   -3.8023   21.5259 H   0  0  0  0  0  0  0  0  0  0  0  0
    7.7743   -1.7946   20.8796 N   0  0  0  0  0  0  0  0  0  0  0  0
    7.2057   -0.5645   20.9952 N   0  0  0  0  0  0  0  0  0  0  0  0
    6.5562    0.0410   19.8811 C   0  0  0  0  0  0  0  0  0  0  0  0
    5.3496    0.7273   20.0536 C   0  0  0  0  0  0  0  0  0  0  0  0
    4.7914    1.3740   18.9486 C   0  0  0  0  0  0  0  0  0  0  0  0
    5.4537    1.3043   17.7189 C   0  0  0  0  0  0  0  0  0  0  0  0
    6.5841    0.5986   17.5348 N   0  0  0  0  0  0  0  0  0  0  0  0
    7.1094   -0.0384   18.5872 C   0  0  0  0  0  0  0  0  0  0  0  0
    8.0070   -0.6242   18.3957 H   0  0  0  0  0  0  0  0  0  0  0  0
    5.0495    1.8095   16.8441 H   0  0  0  0  0  0  0  0  0  0  0  0
    3.8600    1.9222   19.0360 H   0  0  0  0  0  0  0  0  0  0  0  0
    4.8586    0.7412   21.0280 H   0  0  0  0  0  0  0  0  0  0  0  0
    6.2083    1.2893   23.3433 H   0  0  0  0  0  0  0  0  0  0  0  0
    7.1064    1.9636   21.9865 H   0  0  0  0  0  0  0  0  0  0  0  0
    9.2668    1.6705   23.2685 H   0  0  0  0  0  0  0  0  0  0  0  0
    8.3979    0.9107   24.5810 H   0  0  0  0  0  0  0  0  0  0  0  0
    8.4696    4.1676   23.6946 C   0  0  0  0  0  0  0  0  0  0  0  0
    9.0919    4.1084   22.8052 H   0  0  0  0  0  0  0  0  0  0  0  0
    6.8589    2.2782   26.0564 H   0  0  0  0  0  0  0  0  0  0  0  0
    6.9452    6.5511   25.6128 H   0  0  0  0  0  0  0  0  0  0  0  0
  1  2  1  0
  2  3  2  0
  3  4  1  0
  4  5  1  0
  4  6  2  0
  6  7  1  0
  7  8  1  0
  8  9  1  0
  9 10  1  0
 10 11  2  0
 11 12  1  0
 12 13  1  0
 13 14  1  0
 14 15  1  0
 15 16  1  0
 16 17  1  0
 16 18  1  0
 14 19  1  0
 14 20  1  0
 13 21  1  0
 12 22  2  0
 22 23  1  0
 23 24  1  0
 24 25  2  0
 25 26  1  0
 26 27  2  0
 27 28  1  0
 28 29  2  0
 29 30  1  0
 27 31  1  0
 26 32  1  0
 25 33  1  0
  9 34  1  0
  9 35  1  0
  8 36  1  0
  8 37  1  0
  7 38  2  0
 38 39  1  0
  6 40  1  0
  3 41  1  0
 38  2  1  0
 23 10  1  0
 29 24  1  0
 16 13  1  0
M  END
>  <cnnaffinity>  (1) 
-6.0397

>  <filename>  (1) 
Fc1cc(F)cc(CCc2nc(C3CSC3)nn2-c2cccnc2)c1

$$$$
