
     RDKit          3D

 41 45  0  0  0  0  0  0  0  0999 V2000
   10.6773    3.2416   24.0563 F   0  0  0  0  0  0  0  0  0  0  0  0
   11.0251    2.1711   23.3273 C   0  0  0  0  0  0  0  0  0  0  0  0
   12.2271    1.5164   23.5737 C   0  0  0  0  0  0  0  0  0  0  0  0
   12.5640    0.3913   22.8144 C   0  0  0  0  0  0  0  0  0  0  0  0
   11.7012   -0.0552   21.8064 C   0  0  0  0  0  0  0  0  0  0  0  0
   10.4980    0.6104   21.5346 C   0  0  0  0  0  0  0  0  0  0  0  0
    9.4884    0.0618   20.5458 C   0  0  0  0  0  0  0  0  0  0  0  0
    8.4293   -0.7657   21.2059 C   0  0  0  0  0  0  0  0  0  0  0  0
    8.6379   -1.5346   22.2463 N   0  0  0  0  0  0  0  0  0  0  0  0
    7.4084   -2.0384   22.5186 C   0  0  0  0  0  0  0  0  0  0  0  0
    7.2861   -2.8630   23.7293 C   0  0  0  0  0  0  0  0  0  0  0  0
    5.9905   -3.5100   24.1946 C   0  0  0  0  0  0  0  0  0  0  0  0
    6.5756   -2.3429   24.9420 C   0  0  0  0  0  0  0  0  0  0  0  0
    6.2342   -0.9849   25.4232 C   0  0  0  0  0  0  0  0  0  0  0  0
    7.1068   -1.9309   26.2597 C   0  0  0  0  0  0  0  0  0  0  0  0
    6.6612   -2.3730   27.1490 H   0  0  0  0  0  0  0  0  0  0  0  0
    8.1823   -1.7411   26.3233 H   0  0  0  0  0  0  0  0  0  0  0  0
    5.2269   -0.7958   25.7899 H   0  0  0  0  0  0  0  0  0  0  0  0
    6.6956   -0.1669   24.8670 H   0  0  0  0  0  0  0  0  0  0  0  0
    6.0714   -4.4730   24.6993 H   0  0  0  0  0  0  0  0  0  0  0  0
    5.0931   -3.3548   23.5910 H   0  0  0  0  0  0  0  0  0  0  0  0
    8.2421   -3.3299   23.9647 H   0  0  0  0  0  0  0  0  0  0  0  0
    6.4556   -1.6686   21.6821 N   0  0  0  0  0  0  0  0  0  0  0  0
    7.1231   -0.8687   20.8033 N   0  0  0  0  0  0  0  0  0  0  0  0
    6.4706   -0.1956   19.7285 C   0  0  0  0  0  0  0  0  0  0  0  0
    5.3158    0.5687   19.9430 C   0  0  0  0  0  0  0  0  0  0  0  0
    4.8413    1.3493   18.8814 C   0  0  0  0  0  0  0  0  0  0  0  0
    5.5063    1.3088   17.6463 C   0  0  0  0  0  0  0  0  0  0  0  0
    6.5711    0.5237   17.4148 N   0  0  0  0  0  0  0  0  0  0  0  0
    7.0280   -0.2104   18.4335 C   0  0  0  0  0  0  0  0  0  0  0  0
    7.9043   -0.8240   18.2290 H   0  0  0  0  0  0  0  0  0  0  0  0
    5.1698    1.9231   16.8130 H   0  0  0  0  0  0  0  0  0  0  0  0
    3.9694    1.9873   18.9976 H   0  0  0  0  0  0  0  0  0  0  0  0
    4.8367    0.5600   20.9244 H   0  0  0  0  0  0  0  0  0  0  0  0
    9.0288    0.8911   20.0033 H   0  0  0  0  0  0  0  0  0  0  0  0
    9.9743   -0.5919   19.8169 H   0  0  0  0  0  0  0  0  0  0  0  0
   10.1782    1.7287   22.3069 C   0  0  0  0  0  0  0  0  0  0  0  0
    9.0285    2.3924   22.0822 F   0  0  0  0  0  0  0  0  0  0  0  0
   11.9528   -0.9426   21.2335 H   0  0  0  0  0  0  0  0  0  0  0  0
   13.4996   -0.1271   22.9991 H   0  0  0  0  0  0  0  0  0  0  0  0
   12.8501    1.8809   24.3812 H   0  0  0  0  0  0  0  0  0  0  0  0
  1  2  1  0
  2  3  2  0
  3  4  1  0
  4  5  2  0
  5  6  1  0
  6  7  1  0
  7  8  1  0
  8  9  2  0
  9 10  1  0
 10 11  1  0
 11 12  1  0
 12 13  1  0
 13 14  1  0
 14 15  1  0
 15 16  1  0
 15 17  1  0
 14 18  1  0
 14 19  1  0
 12 20  1  0
 12 21  1  0
 11 22  1  0
 10 23  2  0
 23 24  1  0
 24 25  1  0
 25 26  2  0
 26 27  1  0
 27 28  2  0
 28 29  1  0
 29 30  2  0
 30 31  1  0
 28 32  1  0
 27 33  1  0
 26 34  1  0
  7 35  1  0
  7 36  1  0
  6 37  2  0
 37 38  1  0
  5 39  1  0
  4 40  1  0
  3 41  1  0
 37  2  1  0
 24  8  1  0
 30 25  1  0
 13 11  1  0
 15 13  1  0
M  END
>  <cnnaffinity>  (1) 
-6.47779

>  <filename>  (1) 
Fc1cccc(Cc2nc(C3CC34CC4)nn2-c2cccnc2)c1F

$$$$
