
     RDKit          3D

 44 47  0  0  0  0  0  0  0  0999 V2000
    4.7161    2.2315   27.2938 F   0  0  0  0  0  0  0  0  0  0  0  0
    5.9007    2.5178   26.7334 C   0  0  0  0  0  0  0  0  0  0  0  0
    6.7390    3.4342   27.3630 C   0  0  0  0  0  0  0  0  0  0  0  0
    7.9705    3.7282   26.7689 C   0  0  0  0  0  0  0  0  0  0  0  0
    8.3489    3.1124   25.5735 C   0  0  0  0  0  0  0  0  0  0  0  0
    7.4815    2.1906   24.9463 C   0  0  0  0  0  0  0  0  0  0  0  0
    7.8668    1.5433   23.6718 C   0  0  0  0  0  0  0  0  0  0  0  0
    7.1645    0.5706   23.1063 N   0  0  0  0  0  0  0  0  0  0  0  0
    7.9044    0.2449   22.0251 N   0  0  0  0  0  0  0  0  0  0  0  0
    7.3902   -0.6836   21.0235 C   0  0  0  0  0  0  0  0  0  0  0  0
    6.6530   -0.0004   19.8850 C   0  0  0  0  0  0  0  0  0  0  0  0
    5.4383    0.6470   20.1391 C   0  0  0  0  0  0  0  0  0  0  0  0
    4.7999    1.3071   19.0870 C   0  0  0  0  0  0  0  0  0  0  0  0
    5.3937    1.2987   17.8213 C   0  0  0  0  0  0  0  0  0  0  0  0
    6.5541    0.6781   17.5576 N   0  0  0  0  0  0  0  0  0  0  0  0
    7.1587    0.0552   18.5768 C   0  0  0  0  0  0  0  0  0  0  0  0
    8.1062   -0.4287   18.3308 H   0  0  0  0  0  0  0  0  0  0  0  0
    4.9231    1.8051   16.9794 H   0  0  0  0  0  0  0  0  0  0  0  0
    3.8712    1.8443   19.2379 H   0  0  0  0  0  0  0  0  0  0  0  0
    5.0300    0.6423   21.1525 H   0  0  0  0  0  0  0  0  0  0  0  0
    6.7292   -1.3554   21.5781 H   0  0  0  0  0  0  0  0  0  0  0  0
    8.2296   -1.2767   20.6433 H   0  0  0  0  0  0  0  0  0  0  0  0
    8.9992    1.0344   21.9757 C   0  0  0  0  0  0  0  0  0  0  0  0
   10.0902    0.8449   20.9814 C   0  0  0  0  0  0  0  0  0  0  0  0
   11.0625   -0.3071   21.3389 C   0  0  0  0  0  0  0  0  0  0  0  0
   11.7760   -0.0200   22.6419 C   0  0  0  0  0  0  0  0  0  0  0  0
   11.2999   -0.4654   23.8761 C   0  0  0  0  0  0  0  0  0  0  0  0
   11.8797   -0.1710   25.0450 N   0  0  0  0  0  0  0  0  0  0  0  0
   12.9704    0.5800   24.9885 C   0  0  0  0  0  0  0  0  0  0  0  0
   13.4984    1.1207   23.8894 N   0  0  0  0  0  0  0  0  0  0  0  0
   12.8839    0.8329   22.7407 C   0  0  0  0  0  0  0  0  0  0  0  0
   13.3113    1.3091   21.8507 H   0  0  0  0  0  0  0  0  0  0  0  0
   13.4915    0.7333   25.9298 H   0  0  0  0  0  0  0  0  0  0  0  0
   10.4390   -1.1393   23.9388 H   0  0  0  0  0  0  0  0  0  0  0  0
   10.5123   -1.2560   21.4127 H   0  0  0  0  0  0  0  0  0  0  0  0
   11.7859   -0.4728   20.5352 H   0  0  0  0  0  0  0  0  0  0  0  0
   10.6364    1.7904   20.9237 H   0  0  0  0  0  0  0  0  0  0  0  0
    9.6300    0.6792   20.0037 H   0  0  0  0  0  0  0  0  0  0  0  0
    8.9931    1.8808   22.9857 N   0  0  0  0  0  0  0  0  0  0  0  0
    6.2418    1.8895   25.5445 C   0  0  0  0  0  0  0  0  0  0  0  0
    5.5500    1.1787   25.0983 H   0  0  0  0  0  0  0  0  0  0  0  0
    9.3078    3.3470   25.1173 H   0  0  0  0  0  0  0  0  0  0  0  0
    8.6363    4.4485   27.2366 H   0  0  0  0  0  0  0  0  0  0  0  0
    6.4098    3.8881   28.2903 H   0  0  0  0  0  0  0  0  0  0  0  0
  1  2  1  0
  2  3  2  0
  3  4  1  0
  4  5  2  0
  5  6  1  0
  6  7  1  0
  7  8  2  0
  8  9  1  0
  9 10  1  0
 10 11  1  0
 11 12  2  0
 12 13  1  0
 13 14  2  0
 14 15  1  0
 15 16  2  0
 16 17  1  0
 14 18  1  0
 13 19  1  0
 12 20  1  0
 10 21  1  0
 10 22  1  0
  9 23  1  0
 23 24  1  0
 24 25  1  0
 25 26  1  0
 26 27  2  0
 27 28  1  0
 28 29  2  0
 29 30  1  0
 30 31  2  0
 31 32  1  0
 29 33  1  0
 27 34  1  0
 25 35  1  0
 25 36  1  0
 24 37  1  0
 24 38  1  0
 23 39  2  0
  6 40  2  0
 40 41  1  0
  5 42  1  0
  4 43  1  0
  3 44  1  0
 40  2  1  0
 39  7  1  0
 16 11  1  0
 31 26  1  0
M  END
>  <cnnaffinity>  (1) 
-5.95423

>  <filename>  (1) 
Fc1cccc(-c2nc(CCc3cncnc3)n(Cc3cccnc3)n2)c1

$$$$
