
     RDKit          3D

 47 51  0  0  0  0  0  0  0  0999 V2000
   15.0651   -1.3750   20.2296 F   0  0  0  0  0  0  0  0  0  0  0  0
   13.9619   -1.2413   20.9693 C   0  0  0  0  0  0  0  0  0  0  0  0
   13.8513   -0.2551   21.9519 C   0  0  0  0  0  0  0  0  0  0  0  0
   12.5720    0.0544   22.4314 C   0  0  0  0  0  0  0  0  0  0  0  0
   11.4414   -0.6534   21.9767 C   0  0  0  0  0  0  0  0  0  0  0  0
   10.0552   -0.1918   22.2134 C   0  0  0  0  0  0  0  0  0  0  0  0
    9.0285   -0.9256   21.8071 N   0  0  0  0  0  0  0  0  0  0  0  0
    7.9506   -0.1679   22.0839 N   0  0  0  0  0  0  0  0  0  0  0  0
    6.6514   -0.5537   21.5343 C   0  0  0  0  0  0  0  0  0  0  0  0
    6.2792    0.1891   20.2627 C   0  0  0  0  0  0  0  0  0  0  0  0
    5.0874    0.9040   20.0977 C   0  0  0  0  0  0  0  0  0  0  0  0
    4.8461    1.5313   18.8706 C   0  0  0  0  0  0  0  0  0  0  0  0
    5.8010    1.4188   17.8574 C   0  0  0  0  0  0  0  0  0  0  0  0
    6.9469    0.7326   17.9916 N   0  0  0  0  0  0  0  0  0  0  0  0
    7.1710    0.1515   19.1733 C   0  0  0  0  0  0  0  0  0  0  0  0
    8.1159   -0.3821   19.2841 H   0  0  0  0  0  0  0  0  0  0  0  0
    5.6573    1.9133   16.8983 H   0  0  0  0  0  0  0  0  0  0  0  0
    3.9480    2.1131   18.6916 H   0  0  0  0  0  0  0  0  0  0  0  0
    4.3568    0.9820   20.9084 H   0  0  0  0  0  0  0  0  0  0  0  0
    6.7349   -1.6308   21.3450 H   0  0  0  0  0  0  0  0  0  0  0  0
    5.8998   -0.4180   22.3130 H   0  0  0  0  0  0  0  0  0  0  0  0
    8.3740    0.9967   22.6356 C   0  0  0  0  0  0  0  0  0  0  0  0
    7.4290    2.0295   23.1623 C   0  0  0  0  0  0  0  0  0  0  0  0
    6.8987    1.6211   24.4539 N   0  0  0  0  0  0  0  0  0  0  0  0
    5.7965    0.8820   24.7194 C   0  0  0  0  0  0  0  0  0  0  0  0
    5.8588    0.4909   26.0491 C   0  0  0  0  0  0  0  0  0  0  0  0
    4.9407   -0.3861   26.8156 C   0  0  0  0  0  0  0  0  0  0  0  0
    3.4550   -0.3752   26.5639 C   0  0  0  0  0  0  0  0  0  0  0  0
    4.2639   -1.5782   26.1810 C   0  0  0  0  0  0  0  0  0  0  0  0
    4.1606   -2.4930   26.7566 H   0  0  0  0  0  0  0  0  0  0  0  0
    4.4469   -1.7450   25.1231 H   0  0  0  0  0  0  0  0  0  0  0  0
    2.7955   -0.4242   27.4245 H   0  0  0  0  0  0  0  0  0  0  0  0
    3.0867    0.2530   25.7569 H   0  0  0  0  0  0  0  0  0  0  0  0
    5.2314   -0.5310   27.8555 H   0  0  0  0  0  0  0  0  0  0  0  0
    7.0618    1.0941   26.4953 C   0  0  0  0  0  0  0  0  0  0  0  0
    7.6781    1.7585   25.5322 N   0  0  0  0  0  0  0  0  0  0  0  0
    7.5205    1.0411   27.4778 H   0  0  0  0  0  0  0  0  0  0  0  0
    5.0345    0.7320   23.9608 H   0  0  0  0  0  0  0  0  0  0  0  0
    6.5940    2.1886   22.4755 H   0  0  0  0  0  0  0  0  0  0  0  0
    7.9638    2.9697   23.3044 H   0  0  0  0  0  0  0  0  0  0  0  0
    9.6889    1.0119   22.7278 N   0  0  0  0  0  0  0  0  0  0  0  0
   11.6377   -1.7617   21.1334 C   0  0  0  0  0  0  0  0  0  0  0  0
   12.8851   -2.0154   20.5810 C   0  0  0  0  0  0  0  0  0  0  0  0
   13.0652   -2.7647   19.8190 H   0  0  0  0  0  0  0  0  0  0  0  0
   10.7736   -2.3548   20.8419 H   0  0  0  0  0  0  0  0  0  0  0  0
   12.4421    0.8628   23.1453 H   0  0  0  0  0  0  0  0  0  0  0  0
   14.7214    0.3314   22.2180 H   0  0  0  0  0  0  0  0  0  0  0  0
  1  2  1  0
  2  3  2  0
  3  4  1  0
  4  5  2  0
  5  6  1  0
  6  7  2  0
  7  8  1  0
  8  9  1  0
  9 10  1  0
 10 11  2  0
 11 12  1  0
 12 13  2  0
 13 14  1  0
 14 15  2  0
 15 16  1  0
 13 17  1  0
 12 18  1  0
 11 19  1  0
  9 20  1  0
  9 21  1  0
  8 22  1  0
 22 23  1  0
 23 24  1  0
 24 25  1  0
 25 26  2  0
 26 27  1  0
 27 28  1  0
 28 29  1  0
 29 30  1  0
 29 31  1  0
 28 32  1  0
 28 33  1  0
 27 34  1  0
 26 35  1  0
 35 36  2  0
 35 37  1  0
 25 38  1  0
 23 39  1  0
 23 40  1  0
 22 41  2  0
  5 42  1  0
 42 43  2  0
 43 44  1  0
 42 45  1  0
  4 46  1  0
  3 47  1  0
 43  2  1  0
 41  6  1  0
 15 10  1  0
 36 24  1  0
 29 27  1  0
M  END
>  <cnnaffinity>  (1) 
-6.60063

>  <filename>  (1) 
Fc1ccc(-c2nc(Cn3cc(C4CC4)cn3)n(Cc3cccnc3)n2)cc1

$$$$
