
     RDKit          3D

 38 42  0  0  0  0  0  0  0  0999 V2000
    7.4422    4.6196   22.2587 F   0  0  0  0  0  0  0  0  0  0  0  0
    7.1151    3.4675   22.8588 C   0  0  0  0  0  0  0  0  0  0  0  0
    6.4268    3.4830   24.0673 C   0  0  0  0  0  0  0  0  0  0  0  0
    6.1108    2.2713   24.6940 C   0  0  0  0  0  0  0  0  0  0  0  0
    6.4740    1.0624   24.1081 C   0  0  0  0  0  0  0  0  0  0  0  0
    7.1317    1.0409   22.8650 C   0  0  0  0  0  0  0  0  0  0  0  0
    7.4684   -0.2574   22.2612 C   0  0  0  0  0  0  0  0  0  0  0  0
    8.0323   -1.2386   22.9398 N   0  0  0  0  0  0  0  0  0  0  0  0
    8.2133   -2.1863   21.9982 C   0  0  0  0  0  0  0  0  0  0  0  0
    8.9532   -3.4603   22.1854 C   0  0  0  0  0  0  0  0  0  0  0  0
    8.2358   -4.7503   21.8713 C   0  0  0  0  0  0  0  0  0  0  0  0
    8.8687   -4.5888   23.2617 C   0  0  0  0  0  0  0  0  0  0  0  0
    9.8482   -4.5816   24.4110 C   0  0  0  0  0  0  0  0  0  0  0  0
    8.9110   -5.7438   24.2805 C   0  0  0  0  0  0  0  0  0  0  0  0
    8.0930   -5.8274   24.9933 H   0  0  0  0  0  0  0  0  0  0  0  0
    9.3216   -6.6900   23.9263 H   0  0  0  0  0  0  0  0  0  0  0  0
    9.6131   -3.8728   25.2023 H   0  0  0  0  0  0  0  0  0  0  0  0
   10.9110   -4.7296   24.2202 H   0  0  0  0  0  0  0  0  0  0  0  0
    7.1445   -4.6805   21.8613 H   0  0  0  0  0  0  0  0  0  0  0  0
    8.6030   -5.5144   21.1814 H   0  0  0  0  0  0  0  0  0  0  0  0
    9.9881   -3.2433   21.8996 H   0  0  0  0  0  0  0  0  0  0  0  0
    7.7947   -1.8682   20.7829 N   0  0  0  0  0  0  0  0  0  0  0  0
    7.2883   -0.6234   20.9550 N   0  0  0  0  0  0  0  0  0  0  0  0
    6.6002    0.0305   19.8943 C   0  0  0  0  0  0  0  0  0  0  0  0
    5.3878    0.6925   20.1229 C   0  0  0  0  0  0  0  0  0  0  0  0
    4.7851    1.3369   19.0406 C   0  0  0  0  0  0  0  0  0  0  0  0
    5.4164    1.3075   17.7933 C   0  0  0  0  0  0  0  0  0  0  0  0
    6.5715    0.6574   17.5652 N   0  0  0  0  0  0  0  0  0  0  0  0
    7.1387    0.0206   18.5937 C   0  0  0  0  0  0  0  0  0  0  0  0
    8.0688   -0.5061   18.3869 H   0  0  0  0  0  0  0  0  0  0  0  0
    4.9730    1.8135   16.9398 H   0  0  0  0  0  0  0  0  0  0  0  0
    3.8485    1.8702   19.1582 H   0  0  0  0  0  0  0  0  0  0  0  0
    4.9416    0.7193   21.1199 H   0  0  0  0  0  0  0  0  0  0  0  0
    7.4747    2.2571   22.2598 C   0  0  0  0  0  0  0  0  0  0  0  0
    8.1480    2.2724   21.0986 F   0  0  0  0  0  0  0  0  0  0  0  0
    6.2483    0.1187   24.6016 H   0  0  0  0  0  0  0  0  0  0  0  0
    5.5878    2.2741   25.6451 H   0  0  0  0  0  0  0  0  0  0  0  0
    6.1639    4.4412   24.5017 H   0  0  0  0  0  0  0  0  0  0  0  0
  1  2  1  0
  2  3  2  0
  3  4  1  0
  4  5  2  0
  5  6  1  0
  6  7  1  0
  7  8  2  0
  8  9  1  0
  9 10  1  0
 10 11  1  0
 11 12  1  0
 12 13  1  0
 13 14  1  0
 14 15  1  0
 14 16  1  0
 13 17  1  0
 13 18  1  0
 11 19  1  0
 11 20  1  0
 10 21  1  0
  9 22  2  0
 22 23  1  0
 23 24  1  0
 24 25  2  0
 25 26  1  0
 26 27  2  0
 27 28  1  0
 28 29  2  0
 29 30  1  0
 27 31  1  0
 26 32  1  0
 25 33  1  0
  6 34  2  0
 34 35  1  0
  5 36  1  0
  4 37  1  0
  3 38  1  0
 34  2  1  0
 23  7  1  0
 29 24  1  0
 12 10  1  0
 14 12  1  0
M  END
>  <cnnaffinity>  (1) 
-6.27758

>  <filename>  (1) 
Fc1cccc(-c2nc(C3CC34CC4)nn2-c2cccnc2)c1F

$$$$
