
     RDKit          3D

 39 42  0  0  0  0  0  0  0  0999 V2000
   13.3944   -1.8825   22.0305 F   0  0  0  0  0  0  0  0  0  0  0  0
   12.9406   -0.6205   22.0626 C   0  0  0  0  0  0  0  0  0  0  0  0
   13.7371    0.3914   22.5949 C   0  0  0  0  0  0  0  0  0  0  0  0
   13.2651    1.7115   22.5956 C   0  0  0  0  0  0  0  0  0  0  0  0
   12.0073    1.9957   22.0539 C   0  0  0  0  0  0  0  0  0  0  0  0
   11.1984    0.9811   21.5216 C   0  0  0  0  0  0  0  0  0  0  0  0
    9.8044    1.3232   21.0403 C   0  0  0  0  0  0  0  0  0  0  0  0
    8.7785    1.1345   22.1043 C   0  0  0  0  0  0  0  0  0  0  0  0
    8.7016    1.8556   23.2039 N   0  0  0  0  0  0  0  0  0  0  0  0
    7.6271    1.3175   23.8426 C   0  0  0  0  0  0  0  0  0  0  0  0
    7.1655    1.8037   25.1491 C   0  0  0  0  0  0  0  0  0  0  0  0
    6.1270    1.3670   25.8062 N   0  0  0  0  0  0  0  0  0  0  0  0
    5.9945    2.0271   26.9948 C   0  0  0  0  0  0  0  0  0  0  0  0
    6.9373    2.9809   27.2482 C   0  0  0  0  0  0  0  0  0  0  0  0
    8.0551    3.0651   25.9521 S   0  0  0  0  0  0  0  0  0  0  0  0
    7.0179    3.6216   28.1151 H   0  0  0  0  0  0  0  0  0  0  0  0
    5.1700    1.7512   27.6358 H   0  0  0  0  0  0  0  0  0  0  0  0
    7.0465    0.3229   23.1906 N   0  0  0  0  0  0  0  0  0  0  0  0
    7.7900    0.2126   22.0797 N   0  0  0  0  0  0  0  0  0  0  0  0
    7.3917   -0.7057   21.0183 C   0  0  0  0  0  0  0  0  0  0  0  0
    6.6622   -0.0099   19.8805 C   0  0  0  0  0  0  0  0  0  0  0  0
    5.4495    0.6476   20.1326 C   0  0  0  0  0  0  0  0  0  0  0  0
    4.8021    1.3067   19.0858 C   0  0  0  0  0  0  0  0  0  0  0  0
    5.3931    1.2976   17.8202 C   0  0  0  0  0  0  0  0  0  0  0  0
    6.5527    0.6740   17.5578 N   0  0  0  0  0  0  0  0  0  0  0  0
    7.1622    0.0474   18.5718 C   0  0  0  0  0  0  0  0  0  0  0  0
    8.1091   -0.4359   18.3145 H   0  0  0  0  0  0  0  0  0  0  0  0
    4.9261    1.8140   16.9808 H   0  0  0  0  0  0  0  0  0  0  0  0
    3.8686    1.8439   19.2338 H   0  0  0  0  0  0  0  0  0  0  0  0
    5.0395    0.6443   21.1443 H   0  0  0  0  0  0  0  0  0  0  0  0
    8.2776   -1.2423   20.6626 H   0  0  0  0  0  0  0  0  0  0  0  0
    6.7395   -1.4262   21.5215 H   0  0  0  0  0  0  0  0  0  0  0  0
    9.5263    0.7522   20.1519 H   0  0  0  0  0  0  0  0  0  0  0  0
    9.7660    2.3827   20.7727 H   0  0  0  0  0  0  0  0  0  0  0  0
   11.6719   -0.3313   21.5482 C   0  0  0  0  0  0  0  0  0  0  0  0
   10.8995   -1.3430   21.0989 F   0  0  0  0  0  0  0  0  0  0  0  0
   11.6122    3.0100   22.0398 H   0  0  0  0  0  0  0  0  0  0  0  0
   13.8767    2.5163   22.9997 H   0  0  0  0  0  0  0  0  0  0  0  0
   14.7112    0.1184   22.9877 H   0  0  0  0  0  0  0  0  0  0  0  0
  1  2  1  0
  2  3  2  0
  3  4  1  0
  4  5  2  0
  5  6  1  0
  6  7  1  0
  7  8  1  0
  8  9  2  0
  9 10  1  0
 10 11  1  0
 11 12  2  0
 12 13  1  0
 13 14  2  0
 14 15  1  0
 14 16  1  0
 13 17  1  0
 10 18  2  0
 18 19  1  0
 19 20  1  0
 20 21  1  0
 21 22  2  0
 22 23  1  0
 23 24  2  0
 24 25  1  0
 25 26  2  0
 26 27  1  0
 24 28  1  0
 23 29  1  0
 22 30  1  0
 20 31  1  0
 20 32  1  0
  7 33  1  0
  7 34  1  0
  6 35  2  0
 35 36  1  0
  5 37  1  0
  4 38  1  0
  3 39  1  0
 35  2  1  0
 19  8  1  0
 26 21  1  0
 15 11  1  0
M  END
>  <cnnaffinity>  (1) 
-6.54471

>  <filename>  (1) 
Fc1cccc(Cc2nc(-c3nccs3)nn2Cc2cccnc2)c1F

$$$$
