
     RDKit          3D

 43 46  0  0  0  0  0  0  0  0999 V2000
    6.3948    1.5987   25.5186 F   0  0  0  0  0  0  0  0  0  0  0  0
    7.5923    1.7708   24.9314 C   0  0  0  0  0  0  0  0  0  0  0  0
    8.7277    1.8324   25.7318 C   0  0  0  0  0  0  0  0  0  0  0  0
    9.9417    1.9525   25.0658 C   0  0  0  0  0  0  0  0  0  0  0  0
   11.0688    1.8379   25.7651 F   0  0  0  0  0  0  0  0  0  0  0  0
   10.0490    2.1245   23.6936 C   0  0  0  0  0  0  0  0  0  0  0  0
    8.8903    2.0634   22.9109 C   0  0  0  0  0  0  0  0  0  0  0  0
    9.0292    2.0177   21.4018 C   0  0  0  0  0  0  0  0  0  0  0  0
    9.5238    0.6213   20.9359 C   0  0  0  0  0  0  0  0  0  0  0  0
    8.6451   -0.4983   21.3929 C   0  0  0  0  0  0  0  0  0  0  0  0
    8.8712   -1.3274   22.3948 N   0  0  0  0  0  0  0  0  0  0  0  0
    7.6615   -1.9212   22.5783 C   0  0  0  0  0  0  0  0  0  0  0  0
    7.3971   -2.8122   23.7450 C   0  0  0  0  0  0  0  0  0  0  0  0
    6.4127   -3.9950   23.5045 C   0  0  0  0  0  0  0  0  0  0  0  0
    5.4194   -3.3823   24.5196 C   0  0  0  0  0  0  0  0  0  0  0  0
    6.4096   -2.2326   24.8211 C   0  0  0  0  0  0  0  0  0  0  0  0
    6.8135   -2.2328   25.8384 H   0  0  0  0  0  0  0  0  0  0  0  0
    6.0435   -1.2183   24.6064 H   0  0  0  0  0  0  0  0  0  0  0  0
    4.4759   -3.0540   24.0710 H   0  0  0  0  0  0  0  0  0  0  0  0
    5.1737   -4.0176   25.3768 H   0  0  0  0  0  0  0  0  0  0  0  0
    6.8139   -4.9760   23.7792 H   0  0  0  0  0  0  0  0  0  0  0  0
    6.0395   -4.0524   22.4763 H   0  0  0  0  0  0  0  0  0  0  0  0
    8.3775   -3.0918   24.1453 H   0  0  0  0  0  0  0  0  0  0  0  0
    6.7275   -1.5589   21.7163 N   0  0  0  0  0  0  0  0  0  0  0  0
    7.3692   -0.6548   20.9366 N   0  0  0  0  0  0  0  0  0  0  0  0
    6.6693    0.0079   19.8933 C   0  0  0  0  0  0  0  0  0  0  0  0
    5.4501    0.6384   20.1576 C   0  0  0  0  0  0  0  0  0  0  0  0
    4.8142    1.3073   19.1095 C   0  0  0  0  0  0  0  0  0  0  0  0
    5.4033    1.2959   17.8388 C   0  0  0  0  0  0  0  0  0  0  0  0
    6.5581    0.6662   17.5719 N   0  0  0  0  0  0  0  0  0  0  0  0
    7.1736    0.0432   18.5826 C   0  0  0  0  0  0  0  0  0  0  0  0
    8.1123   -0.4573   18.3471 H   0  0  0  0  0  0  0  0  0  0  0  0
    4.9297    1.8036   17.0030 H   0  0  0  0  0  0  0  0  0  0  0  0
    3.8799    1.8366   19.2652 H   0  0  0  0  0  0  0  0  0  0  0  0
    5.0224    0.5903   21.1613 H   0  0  0  0  0  0  0  0  0  0  0  0
   10.5242    0.4346   21.3358 H   0  0  0  0  0  0  0  0  0  0  0  0
    9.5874    0.5967   19.8483 H   0  0  0  0  0  0  0  0  0  0  0  0
    8.0789    2.2634   20.9153 H   0  0  0  0  0  0  0  0  0  0  0  0
    9.7458    2.7766   21.0713 H   0  0  0  0  0  0  0  0  0  0  0  0
    7.6516    1.8584   23.5439 C   0  0  0  0  0  0  0  0  0  0  0  0
    6.7404    1.7219   22.9720 H   0  0  0  0  0  0  0  0  0  0  0  0
   11.0315    2.2877   23.2561 H   0  0  0  0  0  0  0  0  0  0  0  0
    8.6780    1.7730   26.8110 H   0  0  0  0  0  0  0  0  0  0  0  0
  1  2  1  0
  2  3  2  0
  3  4  1  0
  4  5  1  0
  4  6  2  0
  6  7  1  0
  7  8  1  0
  8  9  1  0
  9 10  1  0
 10 11  2  0
 11 12  1  0
 12 13  1  0
 13 14  1  0
 14 15  1  0
 15 16  1  0
 16 17  1  0
 16 18  1  0
 15 19  1  0
 15 20  1  0
 14 21  1  0
 14 22  1  0
 13 23  1  0
 12 24  2  0
 24 25  1  0
 25 26  1  0
 26 27  2  0
 27 28  1  0
 28 29  2  0
 29 30  1  0
 30 31  2  0
 31 32  1  0
 29 33  1  0
 28 34  1  0
 27 35  1  0
  9 36  1  0
  9 37  1  0
  8 38  1  0
  8 39  1  0
  7 40  2  0
 40 41  1  0
  6 42  1  0
  3 43  1  0
 40  2  1  0
 25 10  1  0
 31 26  1  0
 16 13  1  0
M  END
>  <cnnaffinity>  (1) 
-6.18919

>  <filename>  (1) 
Fc1cc(F)cc(CCc2nc(C3CCC3)nn2-c2cccnc2)c1

$$$$
