
     RDKit          3D

 41 44  0  0  0  0  0  0  0  0999 V2000
   13.6130    1.4825   24.0601 F   0  0  0  0  0  0  0  0  0  0  0  0
   13.0170    0.6133   23.2356 C   0  0  0  0  0  0  0  0  0  0  0  0
   13.7602   -0.4219   22.6803 C   0  0  0  0  0  0  0  0  0  0  0  0
   13.0968   -1.2934   21.8204 C   0  0  0  0  0  0  0  0  0  0  0  0
   13.8116   -2.2833   21.2734 F   0  0  0  0  0  0  0  0  0  0  0  0
   11.7379   -1.1899   21.5307 C   0  0  0  0  0  0  0  0  0  0  0  0
   11.0044   -0.1491   22.1410 C   0  0  0  0  0  0  0  0  0  0  0  0
    9.5267   -0.0246   22.0129 C   0  0  0  0  0  0  0  0  0  0  0  0
    8.7293   -0.9114   21.4434 N   0  0  0  0  0  0  0  0  0  0  0  0
    7.4889   -0.4176   21.6861 N   0  0  0  0  0  0  0  0  0  0  0  0
    6.3373   -0.9725   20.9718 C   0  0  0  0  0  0  0  0  0  0  0  0
    5.9365   -0.1385   19.7720 C   0  0  0  0  0  0  0  0  0  0  0  0
    4.7519    0.5996   19.6995 C   0  0  0  0  0  0  0  0  0  0  0  0
    4.5521    1.4439   18.6031 C   0  0  0  0  0  0  0  0  0  0  0  0
    5.5261    1.4919   17.6029 C   0  0  0  0  0  0  0  0  0  0  0  0
    6.6516    0.7609   17.6355 N   0  0  0  0  0  0  0  0  0  0  0  0
    6.8400   -0.0260   18.7007 C   0  0  0  0  0  0  0  0  0  0  0  0
    7.7663   -0.6017   18.7111 H   0  0  0  0  0  0  0  0  0  0  0  0
    5.3908    2.1300   16.7292 H   0  0  0  0  0  0  0  0  0  0  0  0
    3.6617    2.0578   18.5135 H   0  0  0  0  0  0  0  0  0  0  0  0
    3.9981    0.5154   20.4859 H   0  0  0  0  0  0  0  0  0  0  0  0
    6.6369   -1.9768   20.6584 H   0  0  0  0  0  0  0  0  0  0  0  0
    5.5060   -1.0702   21.6719 H   0  0  0  0  0  0  0  0  0  0  0  0
    7.5946    0.7396   22.3830 C   0  0  0  0  0  0  0  0  0  0  0  0
    6.4871    1.4960   23.0896 C   0  0  0  0  0  0  0  0  0  0  0  0
    6.3142    1.1251   24.5751 C   0  0  0  0  0  0  0  0  0  0  0  0
    5.2623    0.3683   25.0970 C   0  0  0  0  0  0  0  0  0  0  0  0
    5.2418   -0.1199   26.3395 N   0  0  0  0  0  0  0  0  0  0  0  0
    6.2824    0.1961   27.1091 C   0  0  0  0  0  0  0  0  0  0  0  0
    7.2902    0.9989   26.7762 N   0  0  0  0  0  0  0  0  0  0  0  0
    7.2929    1.4554   25.5249 C   0  0  0  0  0  0  0  0  0  0  0  0
    8.1282    2.1035   25.2406 H   0  0  0  0  0  0  0  0  0  0  0  0
    6.3108   -0.2315   28.1104 H   0  0  0  0  0  0  0  0  0  0  0  0
    4.3789    0.1490   24.4973 H   0  0  0  0  0  0  0  0  0  0  0  0
    5.5479    1.3951   22.5372 H   0  0  0  0  0  0  0  0  0  0  0  0
    6.7653    2.5525   23.0066 H   0  0  0  0  0  0  0  0  0  0  0  0
    8.8672    1.0339   22.5559 N   0  0  0  0  0  0  0  0  0  0  0  0
   11.6671    0.7808   22.9660 C   0  0  0  0  0  0  0  0  0  0  0  0
   11.1283    1.6159   23.4074 H   0  0  0  0  0  0  0  0  0  0  0  0
   11.2945   -1.9074   20.8472 H   0  0  0  0  0  0  0  0  0  0  0  0
   14.8140   -0.5404   22.8819 H   0  0  0  0  0  0  0  0  0  0  0  0
  1  2  1  0
  2  3  2  0
  3  4  1  0
  4  5  1  0
  4  6  2  0
  6  7  1  0
  7  8  1  0
  8  9  2  0
  9 10  1  0
 10 11  1  0
 11 12  1  0
 12 13  2  0
 13 14  1  0
 14 15  2  0
 15 16  1  0
 16 17  2  0
 17 18  1  0
 15 19  1  0
 14 20  1  0
 13 21  1  0
 11 22  1  0
 11 23  1  0
 10 24  1  0
 24 25  1  0
 25 26  1  0
 26 27  2  0
 27 28  1  0
 28 29  2  0
 29 30  1  0
 30 31  2  0
 31 32  1  0
 29 33  1  0
 27 34  1  0
 25 35  1  0
 25 36  1  0
 24 37  2  0
  7 38  2  0
 38 39  1  0
  6 40  1  0
  3 41  1  0
 38  2  1  0
 37  8  1  0
 17 12  1  0
 31 26  1  0
M  END
>  <cnnaffinity>  (1) 
-6.39361

>  <filename>  (1) 
Fc1cc(F)cc(-c2nc(Cc3cncnc3)n(Cc3cccnc3)n2)c1

$$$$
