
     RDKit          3D

 44 48  0  0  0  0  0  0  0  0999 V2000
    8.5629   -2.3136   27.5279 F   0  0  0  0  0  0  0  0  0  0  0  0
    7.9163   -1.4096   26.7781 C   0  0  0  0  0  0  0  0  0  0  0  0
    6.8526   -1.8413   26.0023 C   0  0  0  0  0  0  0  0  0  0  0  0
    6.2433   -0.9172   25.1507 C   0  0  0  0  0  0  0  0  0  0  0  0
    6.7237    0.3961   25.0074 C   0  0  0  0  0  0  0  0  0  0  0  0
    6.3420    1.2812   23.8363 C   0  0  0  0  0  0  0  0  0  0  0  0
    7.4405    1.2915   22.7263 C   0  0  0  0  0  0  0  0  0  0  0  0
    7.7337   -0.0556   22.1421 C   0  0  0  0  0  0  0  0  0  0  0  0
    8.4895   -0.9630   22.7374 N   0  0  0  0  0  0  0  0  0  0  0  0
    8.2854   -2.0724   21.9897 C   0  0  0  0  0  0  0  0  0  0  0  0
    8.9812   -3.3547   22.2667 C   0  0  0  0  0  0  0  0  0  0  0  0
    8.2746   -4.6586   22.0451 C   0  0  0  0  0  0  0  0  0  0  0  0
    8.9476   -4.4133   23.4119 C   0  0  0  0  0  0  0  0  0  0  0  0
    9.9237   -4.3121   24.5542 C   0  0  0  0  0  0  0  0  0  0  0  0
    8.9403   -5.4595   24.5085 C   0  0  0  0  0  0  0  0  0  0  0  0
    8.0832   -5.4994   25.1761 H   0  0  0  0  0  0  0  0  0  0  0  0
    9.3495   -6.4310   24.2192 H   0  0  0  0  0  0  0  0  0  0  0  0
    9.7531   -3.4859   25.2460 H   0  0  0  0  0  0  0  0  0  0  0  0
   10.9741   -4.5307   24.3529 H   0  0  0  0  0  0  0  0  0  0  0  0
    7.1864   -4.6371   22.1138 H   0  0  0  0  0  0  0  0  0  0  0  0
    8.6246   -5.4541   21.3851 H   0  0  0  0  0  0  0  0  0  0  0  0
   10.0242   -3.2016   22.0045 H   0  0  0  0  0  0  0  0  0  0  0  0
    7.5623   -1.8935   20.8982 N   0  0  0  0  0  0  0  0  0  0  0  0
    7.1982   -0.5869   20.9983 N   0  0  0  0  0  0  0  0  0  0  0  0
    6.5341    0.0621   19.9165 C   0  0  0  0  0  0  0  0  0  0  0  0
    5.3435    0.7655   20.1059 C   0  0  0  0  0  0  0  0  0  0  0  0
    4.7618    1.3929   18.9973 C   0  0  0  0  0  0  0  0  0  0  0  0
    5.4048    1.3071   17.7594 C   0  0  0  0  0  0  0  0  0  0  0  0
    6.5411    0.6129   17.5675 N   0  0  0  0  0  0  0  0  0  0  0  0
    7.0803   -0.0073   18.6223 C   0  0  0  0  0  0  0  0  0  0  0  0
    7.9865   -0.5821   18.4467 H   0  0  0  0  0  0  0  0  0  0  0  0
    4.9912    1.8071   16.8846 H   0  0  0  0  0  0  0  0  0  0  0  0
    3.8355    1.9486   19.0934 H   0  0  0  0  0  0  0  0  0  0  0  0
    4.8808    0.7935   21.0918 H   0  0  0  0  0  0  0  0  0  0  0  0
    8.3735    1.6524   23.1690 H   0  0  0  0  0  0  0  0  0  0  0  0
    7.1866    2.0026   21.9355 H   0  0  0  0  0  0  0  0  0  0  0  0
    6.1857    2.3106   24.1787 H   0  0  0  0  0  0  0  0  0  0  0  0
    5.3903    0.9340   23.4074 H   0  0  0  0  0  0  0  0  0  0  0  0
    7.7440    0.7794   25.8899 C   0  0  0  0  0  0  0  0  0  0  0  0
    8.1648    2.0597   25.8767 F   0  0  0  0  0  0  0  0  0  0  0  0
    8.3629   -0.0951   26.7793 C   0  0  0  0  0  0  0  0  0  0  0  0
    9.1714    0.2299   27.4208 H   0  0  0  0  0  0  0  0  0  0  0  0
    5.4122   -1.2512   24.5452 H   0  0  0  0  0  0  0  0  0  0  0  0
    6.5545   -2.8872   26.0421 H   0  0  0  0  0  0  0  0  0  0  0  0
  1  2  1  0
  2  3  2  0
  3  4  1  0
  4  5  2  0
  5  6  1  0
  6  7  1  0
  7  8  1  0
  8  9  2  0
  9 10  1  0
 10 11  1  0
 11 12  1  0
 12 13  1  0
 13 14  1  0
 14 15  1  0
 15 16  1  0
 15 17  1  0
 14 18  1  0
 14 19  1  0
 12 20  1  0
 12 21  1  0
 11 22  1  0
 10 23  2  0
 23 24  1  0
 24 25  1  0
 25 26  2  0
 26 27  1  0
 27 28  2  0
 28 29  1  0
 29 30  2  0
 30 31  1  0
 28 32  1  0
 27 33  1  0
 26 34  1  0
  7 35  1  0
  7 36  1  0
  6 37  1  0
  6 38  1  0
  5 39  1  0
 39 40  1  0
 39 41  2  0
 41 42  1  0
  4 43  1  0
  3 44  1  0
 41  2  1  0
 24  8  1  0
 30 25  1  0
 13 11  1  0
 15 13  1  0
M  END
>  <cnnaffinity>  (1) 
-6.59365

>  <filename>  (1) 
Fc1ccc(CCc2nc(C3CC34CC4)nn2-c2cccnc2)c(F)c1

$$$$
