
     RDKit          3D

 41 44  0  0  0  0  0  0  0  0999 V2000
   11.4319    2.3641   22.8424 F   0  0  0  0  0  0  0  0  0  0  0  0
   10.7283    1.8096   23.8544 C   0  0  0  0  0  0  0  0  0  0  0  0
   11.4383    1.2940   24.9321 C   0  0  0  0  0  0  0  0  0  0  0  0
   10.7267    0.7239   25.9887 C   0  0  0  0  0  0  0  0  0  0  0  0
    9.3328    0.7133   25.9749 C   0  0  0  0  0  0  0  0  0  0  0  0
    8.6392    1.2375   24.8776 C   0  0  0  0  0  0  0  0  0  0  0  0
    6.8998    1.2106   24.8615 Cl  0  0  0  0  0  0  0  0  0  0  0  0
    9.3241    1.7665   23.7634 C   0  0  0  0  0  0  0  0  0  0  0  0
    8.6068    2.2252   22.7104 O   0  0  0  0  0  0  0  0  0  0  0  0
    9.0441    2.0449   21.3585 C   0  0  0  0  0  0  0  0  0  0  0  0
    9.5337    0.6287   21.0038 C   0  0  0  0  0  0  0  0  0  0  0  0
    8.6209   -0.4525   21.4601 C   0  0  0  0  0  0  0  0  0  0  0  0
    8.8706   -1.3407   22.3981 N   0  0  0  0  0  0  0  0  0  0  0  0
    7.6687   -1.9632   22.5509 C   0  0  0  0  0  0  0  0  0  0  0  0
    7.4357   -2.9663   23.6132 C   0  0  0  0  0  0  0  0  0  0  0  0
    8.3876   -4.1158   23.7874 C   0  0  0  0  0  0  0  0  0  0  0  0
    6.9973   -4.3656   23.2783 C   0  0  0  0  0  0  0  0  0  0  0  0
    6.8685   -4.6131   22.2258 H   0  0  0  0  0  0  0  0  0  0  0  0
    6.2783   -4.8207   23.9554 H   0  0  0  0  0  0  0  0  0  0  0  0
    9.2124   -4.1837   23.0789 H   0  0  0  0  0  0  0  0  0  0  0  0
    8.6251   -4.4020   24.8092 H   0  0  0  0  0  0  0  0  0  0  0  0
    7.0269   -2.5276   24.5227 H   0  0  0  0  0  0  0  0  0  0  0  0
    6.7194   -1.5580   21.7306 N   0  0  0  0  0  0  0  0  0  0  0  0
    7.3523   -0.6096   20.9875 N   0  0  0  0  0  0  0  0  0  0  0  0
    6.6719    0.0295   19.9114 C   0  0  0  0  0  0  0  0  0  0  0  0
    5.4441    0.6522   20.1553 C   0  0  0  0  0  0  0  0  0  0  0  0
    4.8206    1.3131   19.0962 C   0  0  0  0  0  0  0  0  0  0  0  0
    5.4236    1.3025   17.8341 C   0  0  0  0  0  0  0  0  0  0  0  0
    6.5730    0.6565   17.5790 N   0  0  0  0  0  0  0  0  0  0  0  0
    7.1756    0.0319   18.5975 C   0  0  0  0  0  0  0  0  0  0  0  0
    8.0937   -0.5047   18.3544 H   0  0  0  0  0  0  0  0  0  0  0  0
    4.9644    1.8236   16.9967 H   0  0  0  0  0  0  0  0  0  0  0  0
    3.8816    1.8350   19.2415 H   0  0  0  0  0  0  0  0  0  0  0  0
    5.0094    0.6005   21.1550 H   0  0  0  0  0  0  0  0  0  0  0  0
    9.6216    0.5779   19.9181 H   0  0  0  0  0  0  0  0  0  0  0  0
   10.5200    0.4349   21.4310 H   0  0  0  0  0  0  0  0  0  0  0  0
    9.8283    2.7719   21.1245 H   0  0  0  0  0  0  0  0  0  0  0  0
    8.1498    2.2944   20.7763 H   0  0  0  0  0  0  0  0  0  0  0  0
    8.7709    0.3226   26.8166 H   0  0  0  0  0  0  0  0  0  0  0  0
   11.2554    0.2924   26.8314 H   0  0  0  0  0  0  0  0  0  0  0  0
   12.5216    1.3573   24.9294 H   0  0  0  0  0  0  0  0  0  0  0  0
  1  2  1  0
  2  3  2  0
  3  4  1  0
  4  5  2  0
  5  6  1  0
  6  7  1  0
  6  8  2  0
  8  9  1  0
  9 10  1  0
 10 11  1  0
 11 12  1  0
 12 13  2  0
 13 14  1  0
 14 15  1  0
 15 16  1  0
 16 17  1  0
 17 18  1  0
 17 19  1  0
 16 20  1  0
 16 21  1  0
 15 22  1  0
 14 23  2  0
 23 24  1  0
 24 25  1  0
 25 26  2  0
 26 27  1  0
 27 28  2  0
 28 29  1  0
 29 30  2  0
 30 31  1  0
 28 32  1  0
 27 33  1  0
 26 34  1  0
 11 35  1  0
 11 36  1  0
 10 37  1  0
 10 38  1  0
  5 39  1  0
  4 40  1  0
  3 41  1  0
  8  2  1  0
 24 12  1  0
 30 25  1  0
 17 15  1  0
M  END
>  <cnnaffinity>  (1) 
-6.19578

>  <filename>  (1) 
Fc1cccc(Cl)c1OCCc1nc(C2CC2)nn1-c1cccnc1

$$$$
