
     RDKit          3D

 42 45  0  0  0  0  0  0  0  0999 V2000
   14.3938   -1.8860   21.2502 F   0  0  0  0  0  0  0  0  0  0  0  0
   13.6082   -0.9275   21.7553 C   0  0  0  0  0  0  0  0  0  0  0  0
   14.1786    0.0939   22.5214 C   0  0  0  0  0  0  0  0  0  0  0  0
   13.4560    1.0571   23.1021 N   0  0  0  0  0  0  0  0  0  0  0  0
   12.1318    1.0539   22.9031 C   0  0  0  0  0  0  0  0  0  0  0  0
   11.5015    0.1220   22.0626 C   0  0  0  0  0  0  0  0  0  0  0  0
   10.0607    0.2359   21.8679 C   0  0  0  0  0  0  0  0  0  0  0  0
    9.3217   -0.7012   21.2999 N   0  0  0  0  0  0  0  0  0  0  0  0
    8.0625   -0.2446   21.4778 N   0  0  0  0  0  0  0  0  0  0  0  0
    6.9304   -0.9420   20.8771 C   0  0  0  0  0  0  0  0  0  0  0  0
    6.3333   -0.1447   19.7357 C   0  0  0  0  0  0  0  0  0  0  0  0
    5.1133    0.5363   19.8128 C   0  0  0  0  0  0  0  0  0  0  0  0
    4.7253    1.3489   18.7413 C   0  0  0  0  0  0  0  0  0  0  0  0
    5.5665    1.4438   17.6292 C   0  0  0  0  0  0  0  0  0  0  0  0
    6.7265    0.7760   17.5274 N   0  0  0  0  0  0  0  0  0  0  0  0
    7.0952    0.0188   18.5666 C   0  0  0  0  0  0  0  0  0  0  0  0
    8.0583   -0.4865   18.4717 H   0  0  0  0  0  0  0  0  0  0  0  0
    5.3041    2.0894   16.7904 H   0  0  0  0  0  0  0  0  0  0  0  0
    3.8090    1.9275   18.7704 H   0  0  0  0  0  0  0  0  0  0  0  0
    4.4746    0.4471   20.6968 H   0  0  0  0  0  0  0  0  0  0  0  0
    6.1842   -1.1473   21.6554 H   0  0  0  0  0  0  0  0  0  0  0  0
    7.3290   -1.9025   20.5270 H   0  0  0  0  0  0  0  0  0  0  0  0
    8.0984    0.9424   22.1216 C   0  0  0  0  0  0  0  0  0  0  0  0
    6.9330    1.6218   22.7601 C   0  0  0  0  0  0  0  0  0  0  0  0
    6.8948    1.2571   24.2641 C   0  0  0  0  0  0  0  0  0  0  0  0
    5.8910    1.9651   25.1168 C   0  0  0  0  0  0  0  0  0  0  0  0
    4.5649    1.7183   25.4158 C   0  0  0  0  0  0  0  0  0  0  0  0
    4.2169    2.6873   26.3787 C   0  0  0  0  0  0  0  0  0  0  0  0
    5.2375    3.4898   26.6562 N   0  0  0  0  0  0  0  0  0  0  0  0
    6.2293    3.0340   25.8807 N   0  0  0  0  0  0  0  0  0  0  0  0
    7.1322    3.4833   25.9181 H   0  0  0  0  0  0  0  0  0  0  0  0
    3.2725    2.8198   26.8938 H   0  0  0  0  0  0  0  0  0  0  0  0
    3.9293    0.9461   25.0059 H   0  0  0  0  0  0  0  0  0  0  0  0
    6.7199    0.1786   24.3610 H   0  0  0  0  0  0  0  0  0  0  0  0
    7.8972    1.4467   24.6746 H   0  0  0  0  0  0  0  0  0  0  0  0
    7.0795    2.6964   22.6277 H   0  0  0  0  0  0  0  0  0  0  0  0
    5.9936    1.3542   22.2680 H   0  0  0  0  0  0  0  0  0  0  0  0
    9.3561    1.2768   22.3731 N   0  0  0  0  0  0  0  0  0  0  0  0
   12.2503   -0.9223   21.4857 C   0  0  0  0  0  0  0  0  0  0  0  0
   11.7989   -1.6788   20.8442 H   0  0  0  0  0  0  0  0  0  0  0  0
   11.5530    1.8169   23.4234 H   0  0  0  0  0  0  0  0  0  0  0  0
   15.2497    0.1312   22.6366 H   0  0  0  0  0  0  0  0  0  0  0  0
  1  2  1  0
  2  3  2  0
  3  4  1  0
  4  5  2  0
  5  6  1  0
  6  7  1  0
  7  8  2  0
  8  9  1  0
  9 10  1  0
 10 11  1  0
 11 12  2  0
 12 13  1  0
 13 14  2  0
 14 15  1  0
 15 16  2  0
 16 17  1  0
 14 18  1  0
 13 19  1  0
 12 20  1  0
 10 21  1  0
 10 22  1  0
  9 23  1  0
 23 24  1  0
 24 25  1  0
 25 26  1  0
 26 27  2  0
 27 28  1  0
 28 29  2  0
 29 30  1  0
 30 31  1  0
 28 32  1  0
 27 33  1  0
 25 34  1  0
 25 35  1  0
 24 36  1  0
 24 37  1  0
 23 38  2  0
  6 39  2  0
 39 40  1  0
  5 41  1  0
  3 42  1  0
 39  2  1  0
 38  7  1  0
 16 11  1  0
 30 26  1  0
M  END
>  <cnnaffinity>  (1) 
-6.33878

>  <filename>  (1) 
Fc1cncc(-c2nc(CCc3ccn[nH]3)n(Cc3cccnc3)n2)c1

$$$$
