
     RDKit          3D

 45 48  0  0  0  0  0  0  0  0999 V2000
   15.0533    0.6590   22.3098 F   0  0  0  0  0  0  0  0  0  0  0  0
   14.0261   -0.1106   21.9483 C   0  0  0  0  0  0  0  0  0  0  0  0
   14.2170   -1.3009   21.2242 C   0  0  0  0  0  0  0  0  0  0  0  0
   13.2011   -2.0656   20.8294 N   0  0  0  0  0  0  0  0  0  0  0  0
   11.9688   -1.6668   21.1155 C   0  0  0  0  0  0  0  0  0  0  0  0
   11.6954   -0.4550   21.7524 C   0  0  0  0  0  0  0  0  0  0  0  0
   10.3050   -0.0639   21.7565 C   0  0  0  0  0  0  0  0  0  0  0  0
    9.3564   -0.8651   21.3018 N   0  0  0  0  0  0  0  0  0  0  0  0
    8.2375   -0.1451   21.4908 N   0  0  0  0  0  0  0  0  0  0  0  0
    6.9527   -0.6902   21.0666 C   0  0  0  0  0  0  0  0  0  0  0  0
    6.3183    0.0604   19.9175 C   0  0  0  0  0  0  0  0  0  0  0  0
    5.1091    0.7515   20.0395 C   0  0  0  0  0  0  0  0  0  0  0  0
    4.6182    1.4448   18.9288 C   0  0  0  0  0  0  0  0  0  0  0  0
    5.3540    1.4117   17.7394 C   0  0  0  0  0  0  0  0  0  0  0  0
    6.5065    0.7380   17.5972 N   0  0  0  0  0  0  0  0  0  0  0  0
    6.9632    0.0810   18.6689 C   0  0  0  0  0  0  0  0  0  0  0  0
    7.8829   -0.4862   18.5274 H   0  0  0  0  0  0  0  0  0  0  0  0
    5.0004    1.9372   16.8544 H   0  0  0  0  0  0  0  0  0  0  0  0
    3.6889    2.0040   18.9706 H   0  0  0  0  0  0  0  0  0  0  0  0
    4.5620    0.7439   20.9878 H   0  0  0  0  0  0  0  0  0  0  0  0
    7.1583   -1.7272   20.7831 H   0  0  0  0  0  0  0  0  0  0  0  0
    6.2826   -0.7237   21.9316 H   0  0  0  0  0  0  0  0  0  0  0  0
    8.5585    1.0260   22.0885 C   0  0  0  0  0  0  0  0  0  0  0  0
    7.5726    1.8685   22.8164 C   0  0  0  0  0  0  0  0  0  0  0  0
    7.5197    1.4132   24.2988 C   0  0  0  0  0  0  0  0  0  0  0  0
    6.4941    2.1229   25.1356 C   0  0  0  0  0  0  0  0  0  0  0  0
    5.1344    1.8074   25.0521 C   0  0  0  0  0  0  0  0  0  0  0  0
    4.7560    0.8563   24.1728 F   0  0  0  0  0  0  0  0  0  0  0  0
    4.1518    2.4043   25.8360 C   0  0  0  0  0  0  0  0  0  0  0  0
    4.5325    3.4015   26.7389 C   0  0  0  0  0  0  0  0  0  0  0  0
    5.8755    3.7703   26.8544 C   0  0  0  0  0  0  0  0  0  0  0  0
    6.8183    3.1206   26.0624 C   0  0  0  0  0  0  0  0  0  0  0  0
    8.1120    3.4593   26.2243 F   0  0  0  0  0  0  0  0  0  0  0  0
    6.2183    4.5343   27.5425 H   0  0  0  0  0  0  0  0  0  0  0  0
    3.7805    3.8953   27.3506 H   0  0  0  0  0  0  0  0  0  0  0  0
    3.1255    2.0715   25.7338 H   0  0  0  0  0  0  0  0  0  0  0  0
    8.5126    1.5589   24.7398 H   0  0  0  0  0  0  0  0  0  0  0  0
    7.3141    0.3320   24.3282 H   0  0  0  0  0  0  0  0  0  0  0  0
    7.8792    2.9153   22.7306 H   0  0  0  0  0  0  0  0  0  0  0  0
    6.5907    1.7845   22.3430 H   0  0  0  0  0  0  0  0  0  0  0  0
    9.8706    1.1210   22.2249 N   0  0  0  0  0  0  0  0  0  0  0  0
   12.7492    0.3432   22.2233 C   0  0  0  0  0  0  0  0  0  0  0  0
   12.6207    1.3033   22.7265 H   0  0  0  0  0  0  0  0  0  0  0  0
   11.1487   -2.2977   20.7941 H   0  0  0  0  0  0  0  0  0  0  0  0
   15.1849   -1.6448   20.9093 H   0  0  0  0  0  0  0  0  0  0  0  0
  1  2  1  0
  2  3  2  0
  3  4  1  0
  4  5  2  0
  5  6  1  0
  6  7  1  0
  7  8  2  0
  8  9  1  0
  9 10  1  0
 10 11  1  0
 11 12  2  0
 12 13  1  0
 13 14  2  0
 14 15  1  0
 15 16  2  0
 16 17  1  0
 14 18  1  0
 13 19  1  0
 12 20  1  0
 10 21  1  0
 10 22  1  0
  9 23  1  0
 23 24  1  0
 24 25  1  0
 25 26  1  0
 26 27  2  0
 27 28  1  0
 27 29  1  0
 29 30  2  0
 30 31  1  0
 31 32  2  0
 32 33  1  0
 31 34  1  0
 30 35  1  0
 29 36  1  0
 25 37  1  0
 25 38  1  0
 24 39  1  0
 24 40  1  0
 23 41  2  0
  6 42  2  0
 42 43  1  0
  5 44  1  0
  3 45  1  0
 42  2  1  0
 41  7  1  0
 16 11  1  0
 32 26  1  0
M  END
>  <cnnaffinity>  (1) 
-6.83148

>  <filename>  (1) 
Fc1cncc(-c2nc(CCc3c(F)cccc3F)n(Cc3cccnc3)n2)c1

$$$$
