
     RDKit          3D

 42 45  0  0  0  0  0  0  0  0999 V2000
    9.2111   -4.8615   26.1573 F   0  0  0  0  0  0  0  0  0  0  0  0
    8.2322   -4.5155   25.3086 C   0  0  0  0  0  0  0  0  0  0  0  0
    7.0115   -5.1822   25.3922 C   0  0  0  0  0  0  0  0  0  0  0  0
    5.9981   -4.8116   24.5040 C   0  0  0  0  0  0  0  0  0  0  0  0
    6.2044   -3.8035   23.5599 C   0  0  0  0  0  0  0  0  0  0  0  0
    7.4503   -3.1426   23.4882 C   0  0  0  0  0  0  0  0  0  0  0  0
    7.6648   -2.0723   22.4792 C   0  0  0  0  0  0  0  0  0  0  0  0
    6.7259   -1.6653   21.6403 N   0  0  0  0  0  0  0  0  0  0  0  0
    7.3440   -0.6990   20.9219 N   0  0  0  0  0  0  0  0  0  0  0  0
    6.6514    0.0021   19.8956 C   0  0  0  0  0  0  0  0  0  0  0  0
    5.4348    0.6371   20.1645 C   0  0  0  0  0  0  0  0  0  0  0  0
    4.8112    1.3096   19.1091 C   0  0  0  0  0  0  0  0  0  0  0  0
    5.3991    1.2957   17.8375 C   0  0  0  0  0  0  0  0  0  0  0  0
    6.5554    0.6697   17.5728 N   0  0  0  0  0  0  0  0  0  0  0  0
    7.1656    0.0515   18.5890 C   0  0  0  0  0  0  0  0  0  0  0  0
    8.1119   -0.4349   18.3635 H   0  0  0  0  0  0  0  0  0  0  0  0
    4.9213    1.7869   16.9933 H   0  0  0  0  0  0  0  0  0  0  0  0
    3.8808    1.8408   19.2600 H   0  0  0  0  0  0  0  0  0  0  0  0
    5.0154    0.6092   21.1745 H   0  0  0  0  0  0  0  0  0  0  0  0
    8.6114   -0.5353   21.3971 C   0  0  0  0  0  0  0  0  0  0  0  0
    9.5558    0.5345   20.9712 C   0  0  0  0  0  0  0  0  0  0  0  0
    9.5715    1.7775   21.8856 C   0  0  0  0  0  0  0  0  0  0  0  0
    9.9316    1.4311   23.3380 C   0  0  0  0  0  0  0  0  0  0  0  0
   10.3766    2.8727   24.3357 S   0  0  0  0  0  0  0  0  0  0  0  0
    8.7791    3.7235   24.2143 C   0  0  0  0  0  0  0  0  0  0  0  0
    8.3948    4.0801   22.7770 C   0  0  0  0  0  0  0  0  0  0  0  0
    7.9604    2.6252   21.7783 S   0  0  0  0  0  0  0  0  0  0  0  0
    9.2238    4.5984   22.2890 H   0  0  0  0  0  0  0  0  0  0  0  0
    7.5309    4.7516   22.7592 H   0  0  0  0  0  0  0  0  0  0  0  0
    8.8569    4.6225   24.8322 H   0  0  0  0  0  0  0  0  0  0  0  0
    8.0150    3.0767   24.6544 H   0  0  0  0  0  0  0  0  0  0  0  0
   10.7706    0.7305   23.3570 H   0  0  0  0  0  0  0  0  0  0  0  0
    9.0946    0.9135   23.8190 H   0  0  0  0  0  0  0  0  0  0  0  0
   10.3104    2.4845   21.4930 H   0  0  0  0  0  0  0  0  0  0  0  0
    9.3379    0.8448   19.9501 H   0  0  0  0  0  0  0  0  0  0  0  0
   10.5572    0.0930   20.9662 H   0  0  0  0  0  0  0  0  0  0  0  0
    8.8472   -1.4093   22.3524 N   0  0  0  0  0  0  0  0  0  0  0  0
    8.4795   -3.5060   24.3820 C   0  0  0  0  0  0  0  0  0  0  0  0
    9.4580   -3.0286   24.3753 H   0  0  0  0  0  0  0  0  0  0  0  0
    5.4087   -3.5141   22.8777 H   0  0  0  0  0  0  0  0  0  0  0  0
    5.0359   -5.3127   24.5522 H   0  0  0  0  0  0  0  0  0  0  0  0
    6.8777   -5.9623   26.1388 H   0  0  0  0  0  0  0  0  0  0  0  0
  1  2  1  0
  2  3  2  0
  3  4  1  0
  4  5  2  0
  5  6  1  0
  6  7  1  0
  7  8  2  0
  8  9  1  0
  9 10  1  0
 10 11  2  0
 11 12  1  0
 12 13  2  0
 13 14  1  0
 14 15  2  0
 15 16  1  0
 13 17  1  0
 12 18  1  0
 11 19  1  0
  9 20  1  0
 20 21  1  0
 21 22  1  0
 22 23  1  0
 23 24  1  0
 24 25  1  0
 25 26  1  0
 26 27  1  0
 26 28  1  0
 26 29  1  0
 25 30  1  0
 25 31  1  0
 23 32  1  0
 23 33  1  0
 22 34  1  0
 21 35  1  0
 21 36  1  0
 20 37  2  0
  6 38  2  0
 38 39  1  0
  5 40  1  0
  4 41  1  0
  3 42  1  0
 38  2  1  0
 37  7  1  0
 15 10  1  0
 27 22  1  0
M  END
>  <cnnaffinity>  (1) 
-5.94469

>  <filename>  (1) 
Fc1cccc(-c2nc(CC3CSCCS3)n(-c3cccnc3)n2)c1

$$$$
