
     RDKit          3D

 44 47  0  0  0  0  0  0  0  0999 V2000
    3.1408    4.1378   27.8665 F   0  0  0  0  0  0  0  0  0  0  0  0
    3.9886    3.4980   27.0478 C   0  0  0  0  0  0  0  0  0  0  0  0
    3.5501    2.5237   26.1651 C   0  0  0  0  0  0  0  0  0  0  0  0
    4.3945    1.8517   25.3790 N   0  0  0  0  0  0  0  0  0  0  0  0
    5.6972    2.1440   25.4840 C   0  0  0  0  0  0  0  0  0  0  0  0
    6.6658    1.3016   24.6958 C   0  0  0  0  0  0  0  0  0  0  0  0
    6.8529    1.6230   23.1788 C   0  0  0  0  0  0  0  0  0  0  0  0
    7.8937    0.7408   22.5466 C   0  0  0  0  0  0  0  0  0  0  0  0
    9.1903    0.8628   22.7758 N   0  0  0  0  0  0  0  0  0  0  0  0
    9.7328   -0.1870   22.1123 C   0  0  0  0  0  0  0  0  0  0  0  0
   11.1819   -0.4873   22.0075 C   0  0  0  0  0  0  0  0  0  0  0  0
   12.1592    0.3498   22.5816 C   0  0  0  0  0  0  0  0  0  0  0  0
   13.5029    0.0105   22.4398 C   0  0  0  0  0  0  0  0  0  0  0  0
   14.4399    0.8073   22.9712 F   0  0  0  0  0  0  0  0  0  0  0  0
   13.9043   -1.1244   21.7414 C   0  0  0  0  0  0  0  0  0  0  0  0
   12.9362   -1.8942   21.1012 C   0  0  0  0  0  0  0  0  0  0  0  0
   11.5793   -1.6356   21.2919 C   0  0  0  0  0  0  0  0  0  0  0  0
   10.8122   -2.3021   20.9013 H   0  0  0  0  0  0  0  0  0  0  0  0
   13.2594   -2.6519   20.3951 H   0  0  0  0  0  0  0  0  0  0  0  0
   14.9401   -1.4103   21.7192 H   0  0  0  0  0  0  0  0  0  0  0  0
   11.9086    1.2519   23.1316 H   0  0  0  0  0  0  0  0  0  0  0  0
    8.8371   -0.9550   21.5081 N   0  0  0  0  0  0  0  0  0  0  0  0
    7.6672   -0.3486   21.7776 N   0  0  0  0  0  0  0  0  0  0  0  0
    6.4520   -0.8171   21.1240 C   0  0  0  0  0  0  0  0  0  0  0  0
    6.0715    0.0003   19.9068 C   0  0  0  0  0  0  0  0  0  0  0  0
    4.8831    0.7284   19.8005 C   0  0  0  0  0  0  0  0  0  0  0  0
    4.6685    1.4995   18.6536 C   0  0  0  0  0  0  0  0  0  0  0  0
    5.6438    1.5009   17.6530 C   0  0  0  0  0  0  0  0  0  0  0  0
    6.7789    0.7888   17.7250 N   0  0  0  0  0  0  0  0  0  0  0  0
    6.9805    0.0762   18.8375 C   0  0  0  0  0  0  0  0  0  0  0  0
    7.9252   -0.4629   18.9040 H   0  0  0  0  0  0  0  0  0  0  0  0
    5.5115    2.1025   16.7553 H   0  0  0  0  0  0  0  0  0  0  0  0
    3.7765    2.1034   18.5307 H   0  0  0  0  0  0  0  0  0  0  0  0
    4.1467    0.7101   20.6078 H   0  0  0  0  0  0  0  0  0  0  0  0
    5.6549   -0.8132   21.8656 H   0  0  0  0  0  0  0  0  0  0  0  0
    6.6600   -1.8562   20.8453 H   0  0  0  0  0  0  0  0  0  0  0  0
    5.8983    1.5449   22.6405 H   0  0  0  0  0  0  0  0  0  0  0  0
    7.2169    2.6497   23.0538 H   0  0  0  0  0  0  0  0  0  0  0  0
    7.6394    1.3722   25.1919 H   0  0  0  0  0  0  0  0  0  0  0  0
    6.3216    0.2671   24.7926 H   0  0  0  0  0  0  0  0  0  0  0  0
    6.2000    3.0958   26.2780 N   0  0  0  0  0  0  0  0  0  0  0  0
    5.3479    3.7694   27.0532 C   0  0  0  0  0  0  0  0  0  0  0  0
    5.7563    4.5382   27.7095 H   0  0  0  0  0  0  0  0  0  0  0  0
    2.4908    2.2717   26.1065 H   0  0  0  0  0  0  0  0  0  0  0  0
  1  2  1  0
  2  3  2  0
  3  4  1  0
  4  5  2  0
  5  6  1  0
  6  7  1  0
  7  8  1  0
  8  9  2  0
  9 10  1  0
 10 11  1  0
 11 12  2  0
 12 13  1  0
 13 14  1  0
 13 15  2  0
 15 16  1  0
 16 17  2  0
 17 18  1  0
 16 19  1  0
 15 20  1  0
 12 21  1  0
 10 22  2  0
 22 23  1  0
 23 24  1  0
 24 25  1  0
 25 26  2  0
 26 27  1  0
 27 28  2  0
 28 29  1  0
 29 30  2  0
 30 31  1  0
 28 32  1  0
 27 33  1  0
 26 34  1  0
 24 35  1  0
 24 36  1  0
  7 37  1  0
  7 38  1  0
  6 39  1  0
  6 40  1  0
  5 41  1  0
 41 42  2  0
 42 43  1  0
  3 44  1  0
 42  2  1  0
 23  8  1  0
 30 25  1  0
 17 11  1  0
M  END
>  <cnnaffinity>  (1) 
-6.74535

>  <filename>  (1) 
Fc1cnc(CCc2nc(-c3cccc(F)c3)nn2Cc2cccnc2)nc1

$$$$
