
     RDKit          3D

 43 46  0  0  0  0  0  0  0  0999 V2000
   15.0095    0.5948   22.3354 F   0  0  0  0  0  0  0  0  0  0  0  0
   13.9915   -0.1590   21.9087 C   0  0  0  0  0  0  0  0  0  0  0  0
   14.2289   -1.2649   21.0873 C   0  0  0  0  0  0  0  0  0  0  0  0
   13.1652   -2.0266   20.6286 C   0  0  0  0  0  0  0  0  0  0  0  0
   11.8803   -1.7084   21.0342 C   0  0  0  0  0  0  0  0  0  0  0  0
   11.6355   -0.5284   21.7495 C   0  0  0  0  0  0  0  0  0  0  0  0
   10.2338   -0.1080   21.8520 C   0  0  0  0  0  0  0  0  0  0  0  0
    9.2615   -0.8971   21.4155 N   0  0  0  0  0  0  0  0  0  0  0  0
    8.1538   -0.1732   21.6232 N   0  0  0  0  0  0  0  0  0  0  0  0
    6.8647   -0.6704   21.1616 C   0  0  0  0  0  0  0  0  0  0  0  0
    6.3191    0.0839   19.9675 C   0  0  0  0  0  0  0  0  0  0  0  0
    5.1075    0.7761   20.0159 C   0  0  0  0  0  0  0  0  0  0  0  0
    4.6650    1.4488   18.8750 C   0  0  0  0  0  0  0  0  0  0  0  0
    5.4543    1.4006   17.7230 C   0  0  0  0  0  0  0  0  0  0  0  0
    6.6177    0.7349   17.6501 N   0  0  0  0  0  0  0  0  0  0  0  0
    7.0326    0.1015   18.7542 C   0  0  0  0  0  0  0  0  0  0  0  0
    7.9779   -0.4351   18.6664 H   0  0  0  0  0  0  0  0  0  0  0  0
    5.1315    1.9039   16.8138 H   0  0  0  0  0  0  0  0  0  0  0  0
    3.7339    2.0030   18.8691 H   0  0  0  0  0  0  0  0  0  0  0  0
    4.5157    0.7864   20.9334 H   0  0  0  0  0  0  0  0  0  0  0  0
    6.1690   -0.6340   22.0081 H   0  0  0  0  0  0  0  0  0  0  0  0
    7.0382   -1.7224   20.9159 H   0  0  0  0  0  0  0  0  0  0  0  0
    8.4988    1.0163   22.1534 C   0  0  0  0  0  0  0  0  0  0  0  0
    7.5040    1.9200   22.8065 C   0  0  0  0  0  0  0  0  0  0  0  0
    7.1129    1.3472   24.1532 C   0  0  0  0  0  0  0  0  0  0  0  0
    5.9655    0.6973   24.5136 C   0  0  0  0  0  0  0  0  0  0  0  0
    6.1901    0.1465   25.7509 N   0  0  0  0  0  0  0  0  0  0  0  0
    5.3627   -0.7128   26.5328 C   0  0  0  0  0  0  0  0  0  0  0  0
    5.0055   -1.8181   25.8237 F   0  0  0  0  0  0  0  0  0  0  0  0
    4.2118   -0.0777   26.8740 F   0  0  0  0  0  0  0  0  0  0  0  0
    5.9377   -0.9940   27.4170 H   0  0  0  0  0  0  0  0  0  0  0  0
    7.4319    0.4282   26.1991 N   0  0  0  0  0  0  0  0  0  0  0  0
    7.9934    1.1463   25.2514 C   0  0  0  0  0  0  0  0  0  0  0  0
    9.0317    1.4504   25.3116 H   0  0  0  0  0  0  0  0  0  0  0  0
    5.0170    0.5872   24.0032 H   0  0  0  0  0  0  0  0  0  0  0  0
    6.6367    2.0233   22.1499 H   0  0  0  0  0  0  0  0  0  0  0  0
    7.9726    2.9024   22.9028 H   0  0  0  0  0  0  0  0  0  0  0  0
    9.8077    1.0921   22.3076 N   0  0  0  0  0  0  0  0  0  0  0  0
   12.7031    0.2468   22.2281 C   0  0  0  0  0  0  0  0  0  0  0  0
   12.5577    1.1548   22.8075 H   0  0  0  0  0  0  0  0  0  0  0  0
   11.0209   -2.3223   20.7913 H   0  0  0  0  0  0  0  0  0  0  0  0
   13.3409   -2.8477   19.9359 H   0  0  0  0  0  0  0  0  0  0  0  0
   15.1981   -1.5341   20.7314 H   0  0  0  0  0  0  0  0  0  0  0  0
  1  2  1  0
  2  3  2  0
  3  4  1  0
  4  5  2  0
  5  6  1  0
  6  7  1  0
  7  8  2  0
  8  9  1  0
  9 10  1  0
 10 11  1  0
 11 12  2  0
 12 13  1  0
 13 14  2  0
 14 15  1  0
 15 16  2  0
 16 17  1  0
 14 18  1  0
 13 19  1  0
 12 20  1  0
 10 21  1  0
 10 22  1  0
  9 23  1  0
 23 24  1  0
 24 25  1  0
 25 26  2  0
 26 27  1  0
 27 28  1  0
 28 29  1  0
 28 30  1  0
 28 31  1  0
 27 32  1  0
 32 33  2  0
 33 34  1  0
 26 35  1  0
 24 36  1  0
 24 37  1  0
 23 38  2  0
  6 39  2  0
 39 40  1  0
  5 41  1  0
  4 42  1  0
  3 43  1  0
 39  2  1  0
 38  7  1  0
 16 11  1  0
 33 25  1  0
M  END
>  <cnnaffinity>  (1) 
-6.61932

>  <filename>  (1) 
Fc1cccc(-c2nc(Cc3cnn(C(F)F)c3)n(Cc3cccnc3)n2)c1

$$$$
