
     RDKit          3D

 29 31  0  0  0  0  0  0  0  0999 V2000
    8.2209   -2.2776   27.7513 F   0  0  0  0  0  0  0  0  0  0  0  0
    8.0906   -2.1801   26.4336 C   0  0  0  0  0  0  0  0  0  0  0  0
    7.3878   -1.1054   25.9099 C   0  0  0  0  0  0  0  0  0  0  0  0
    7.2749   -0.9915   24.5294 C   0  0  0  0  0  0  0  0  0  0  0  0
    7.9301   -1.8960   23.6687 C   0  0  0  0  0  0  0  0  0  0  0  0
    7.9157   -1.5501   22.2166 C   0  0  0  0  0  0  0  0  0  0  0  0
    8.8672   -1.8550   21.3724 N   0  0  0  0  0  0  0  0  0  0  0  0
    8.4661   -1.2167   20.2046 O   0  0  0  0  0  0  0  0  0  0  0  0
    7.3015   -0.6181   20.4588 C   0  0  0  0  0  0  0  0  0  0  0  0
    6.6049    0.1485   19.4236 C   0  0  0  0  0  0  0  0  0  0  0  0
    5.4137    0.8213   19.7251 C   0  0  0  0  0  0  0  0  0  0  0  0
    4.7537    1.4992   18.7065 C   0  0  0  0  0  0  0  0  0  0  0  0
    5.3164    1.5080   17.4267 C   0  0  0  0  0  0  0  0  0  0  0  0
    6.4678    0.8864   17.1338 N   0  0  0  0  0  0  0  0  0  0  0  0
    7.0949    0.2286   18.1141 C   0  0  0  0  0  0  0  0  0  0  0  0
    8.0268   -0.2540   17.8307 H   0  0  0  0  0  0  0  0  0  0  0  0
    4.8253    2.0315   16.6074 H   0  0  0  0  0  0  0  0  0  0  0  0
    3.8234    2.0208   18.8885 H   0  0  0  0  0  0  0  0  0  0  0  0
    5.0240    0.8083   20.7427 H   0  0  0  0  0  0  0  0  0  0  0  0
    6.9102   -0.7877   21.6827 N   0  0  0  0  0  0  0  0  0  0  0  0
    8.5847   -3.0245   24.2398 C   0  0  0  0  0  0  0  0  0  0  0  0
    9.3091   -4.0711   23.4034 C   0  0  0  0  0  0  0  0  0  0  0  0
    9.6248   -5.1713   24.1181 F   0  0  0  0  0  0  0  0  0  0  0  0
    8.5960   -4.5031   22.3503 F   0  0  0  0  0  0  0  0  0  0  0  0
   10.4491   -3.5340   22.9437 F   0  0  0  0  0  0  0  0  0  0  0  0
    8.6619   -3.1540   25.6351 C   0  0  0  0  0  0  0  0  0  0  0  0
    9.1335   -4.0032   26.1244 H   0  0  0  0  0  0  0  0  0  0  0  0
    6.6698   -0.1969   24.0957 H   0  0  0  0  0  0  0  0  0  0  0  0
    6.9618   -0.3950   26.6057 H   0  0  0  0  0  0  0  0  0  0  0  0
  1  2  1  0
  2  3  2  0
  3  4  1  0
  4  5  2  0
  5  6  1  0
  6  7  2  0
  7  8  1  0
  8  9  1  0
  9 10  1  0
 10 11  2  0
 11 12  1  0
 12 13  2  0
 13 14  1  0
 14 15  2  0
 15 16  1  0
 13 17  1  0
 12 18  1  0
 11 19  1  0
  9 20  2  0
  5 21  1  0
 21 22  1  0
 22 23  1  0
 22 24  1  0
 22 25  1  0
 21 26  2  0
 26 27  1  0
  4 28  1  0
  3 29  1  0
 26  2  1  0
 20  6  1  0
 15 10  1  0
M  END
>  <cnnaffinity>  (1) 
-5.33989

>  <filename>  (1) 
Fc1ccc(-c2noc(-c3cccnc3)n2)c(C(F)(F)F)c1

$$$$
