
     RDKit          3D

 45 48  0  0  0  0  0  0  0  0999 V2000
    6.1007    4.7735   27.3046 F   0  0  0  0  0  0  0  0  0  0  0  0
    5.7835    3.7451   26.5021 C   0  0  0  0  0  0  0  0  0  0  0  0
    4.4432    3.3943   26.3660 C   0  0  0  0  0  0  0  0  0  0  0  0
    4.1513    2.3122   25.5412 C   0  0  0  0  0  0  0  0  0  0  0  0
    2.8700    1.9376   25.3993 F   0  0  0  0  0  0  0  0  0  0  0  0
    5.1375    1.6055   24.8621 C   0  0  0  0  0  0  0  0  0  0  0  0
    6.4779    1.9945   24.9984 C   0  0  0  0  0  0  0  0  0  0  0  0
    7.5475    1.2889   24.2103 C   0  0  0  0  0  0  0  0  0  0  0  0
    7.7470    1.8426   22.7715 C   0  0  0  0  0  0  0  0  0  0  0  0
    8.7070    0.9690   22.0448 C   0  0  0  0  0  0  0  0  0  0  0  0
   10.0180    1.0003   22.1921 N   0  0  0  0  0  0  0  0  0  0  0  0
   10.4150   -0.2044   21.6894 C   0  0  0  0  0  0  0  0  0  0  0  0
   11.8373   -0.6555   21.6318 C   0  0  0  0  0  0  0  0  0  0  0  0
   12.8967    0.1204   22.1578 C   0  0  0  0  0  0  0  0  0  0  0  0
   14.2050   -0.2067   21.7969 C   0  0  0  0  0  0  0  0  0  0  0  0
   14.3914   -1.2833   20.9197 C   0  0  0  0  0  0  0  0  0  0  0  0
   13.3027   -2.0723   20.5762 C   0  0  0  0  0  0  0  0  0  0  0  0
   12.0653   -1.7955   20.9603 N   0  0  0  0  0  0  0  0  0  0  0  0
   13.4204   -2.9282   19.9191 H   0  0  0  0  0  0  0  0  0  0  0  0
   15.3039   -1.4862   20.3920 H   0  0  0  0  0  0  0  0  0  0  0  0
   15.0379    0.4003   22.1454 H   0  0  0  0  0  0  0  0  0  0  0  0
   12.6686    1.0072   22.7364 H   0  0  0  0  0  0  0  0  0  0  0  0
    9.4154   -0.9514   21.2448 N   0  0  0  0  0  0  0  0  0  0  0  0
    8.3363   -0.1882   21.4498 N   0  0  0  0  0  0  0  0  0  0  0  0
    7.0255   -0.6911   21.0557 C   0  0  0  0  0  0  0  0  0  0  0  0
    6.3885    0.0679   19.9134 C   0  0  0  0  0  0  0  0  0  0  0  0
    5.1713    0.7455   20.0315 C   0  0  0  0  0  0  0  0  0  0  0  0
    4.6627    1.4191   18.9174 C   0  0  0  0  0  0  0  0  0  0  0  0
    5.3916    1.3865   17.7243 C   0  0  0  0  0  0  0  0  0  0  0  0
    6.5541    0.7289   17.5869 N   0  0  0  0  0  0  0  0  0  0  0  0
    7.0315    0.0960   18.6645 C   0  0  0  0  0  0  0  0  0  0  0  0
    7.9765   -0.4314   18.5344 H   0  0  0  0  0  0  0  0  0  0  0  0
    5.0270    1.9027   16.8374 H   0  0  0  0  0  0  0  0  0  0  0  0
    3.7316    1.9736   18.9618 H   0  0  0  0  0  0  0  0  0  0  0  0
    4.6291    0.7455   20.9807 H   0  0  0  0  0  0  0  0  0  0  0  0
    6.3699   -0.6877   21.9331 H   0  0  0  0  0  0  0  0  0  0  0  0
    7.2005   -1.7366   20.7791 H   0  0  0  0  0  0  0  0  0  0  0  0
    6.7960    1.8903   22.2296 H   0  0  0  0  0  0  0  0  0  0  0  0
    8.1577    2.8546   22.7977 H   0  0  0  0  0  0  0  0  0  0  0  0
    8.5036    1.3463   24.7451 H   0  0  0  0  0  0  0  0  0  0  0  0
    7.3053    0.2178   24.1450 H   0  0  0  0  0  0  0  0  0  0  0  0
    6.8041    3.0669   25.8423 C   0  0  0  0  0  0  0  0  0  0  0  0
    7.8307    3.3799   26.0051 H   0  0  0  0  0  0  0  0  0  0  0  0
    4.8489    0.7568   24.2493 H   0  0  0  0  0  0  0  0  0  0  0  0
    3.6626    3.9378   26.8810 H   0  0  0  0  0  0  0  0  0  0  0  0
  1  2  1  0
  2  3  2  0
  3  4  1  0
  4  5  1  0
  4  6  2  0
  6  7  1  0
  7  8  1  0
  8  9  1  0
  9 10  1  0
 10 11  2  0
 11 12  1  0
 12 13  1  0
 13 14  2  0
 14 15  1  0
 15 16  2  0
 16 17  1  0
 17 18  2  0
 17 19  1  0
 16 20  1  0
 15 21  1  0
 14 22  1  0
 12 23  2  0
 23 24  1  0
 24 25  1  0
 25 26  1  0
 26 27  2  0
 27 28  1  0
 28 29  2  0
 29 30  1  0
 30 31  2  0
 31 32  1  0
 29 33  1  0
 28 34  1  0
 27 35  1  0
 25 36  1  0
 25 37  1  0
  9 38  1  0
  9 39  1  0
  8 40  1  0
  8 41  1  0
  7 42  2  0
 42 43  1  0
  6 44  1  0
  3 45  1  0
 42  2  1  0
 24 10  1  0
 31 26  1  0
 18 13  1  0
M  END
>  <cnnaffinity>  (1) 
-6.6306

>  <filename>  (1) 
Fc1cc(F)cc(CCc2nc(-c3ccccn3)nn2Cc2cccnc2)c1

$$$$
