
     RDKit          3D

 37 40  0  0  0  0  0  0  0  0999 V2000
    9.2696   -4.5224   26.3847 F   0  0  0  0  0  0  0  0  0  0  0  0
    8.2869   -4.2626   25.5137 C   0  0  0  0  0  0  0  0  0  0  0  0
    7.0967   -4.9745   25.6258 C   0  0  0  0  0  0  0  0  0  0  0  0
    6.0938   -4.6716   24.7102 C   0  0  0  0  0  0  0  0  0  0  0  0
    4.9362   -5.3375   24.7908 F   0  0  0  0  0  0  0  0  0  0  0  0
    6.2397   -3.7149   23.7119 C   0  0  0  0  0  0  0  0  0  0  0  0
    7.4670   -3.0351   23.6089 C   0  0  0  0  0  0  0  0  0  0  0  0
    7.6792   -2.0309   22.5382 C   0  0  0  0  0  0  0  0  0  0  0  0
    6.7415   -1.5937   21.7130 N   0  0  0  0  0  0  0  0  0  0  0  0
    7.3949   -0.6551   20.9759 N   0  0  0  0  0  0  0  0  0  0  0  0
    6.7119    0.0245   19.9163 C   0  0  0  0  0  0  0  0  0  0  0  0
    5.4843    0.6479   20.1713 C   0  0  0  0  0  0  0  0  0  0  0  0
    4.8404    1.3065   19.1202 C   0  0  0  0  0  0  0  0  0  0  0  0
    5.4291    1.3038   17.8518 C   0  0  0  0  0  0  0  0  0  0  0  0
    6.5897    0.6827   17.5881 N   0  0  0  0  0  0  0  0  0  0  0  0
    7.2127    0.0611   18.5998 C   0  0  0  0  0  0  0  0  0  0  0  0
    8.1395   -0.4566   18.3435 H   0  0  0  0  0  0  0  0  0  0  0  0
    4.9461    1.8114   17.0191 H   0  0  0  0  0  0  0  0  0  0  0  0
    3.8951    1.8147   19.2752 H   0  0  0  0  0  0  0  0  0  0  0  0
    5.0573    0.5974   21.1735 H   0  0  0  0  0  0  0  0  0  0  0  0
    8.6811   -0.5712   21.4217 C   0  0  0  0  0  0  0  0  0  0  0  0
    9.6156    0.5487   21.1007 C   0  0  0  0  0  0  0  0  0  0  0  0
    9.1859    1.8134   21.7993 C   0  0  0  0  0  0  0  0  0  0  0  0
    9.1429    2.2835   23.0934 C   0  0  0  0  0  0  0  0  0  0  0  0
    8.4660    3.4783   23.1481 N   0  0  0  0  0  0  0  0  0  0  0  0
    8.0935    3.7270   21.9208 C   0  0  0  0  0  0  0  0  0  0  0  0
    8.4962    2.7408   21.0783 N   0  0  0  0  0  0  0  0  0  0  0  0
    8.2477    2.6727   20.1041 H   0  0  0  0  0  0  0  0  0  0  0  0
    7.5539    4.5935   21.5565 H   0  0  0  0  0  0  0  0  0  0  0  0
    9.5287    1.8312   24.0030 H   0  0  0  0  0  0  0  0  0  0  0  0
   10.6131    0.2278   21.4060 H   0  0  0  0  0  0  0  0  0  0  0  0
    9.6109    0.7396   20.0255 H   0  0  0  0  0  0  0  0  0  0  0  0
    8.8940   -1.4418   22.3750 N   0  0  0  0  0  0  0  0  0  0  0  0
    8.4998   -3.3004   24.5337 C   0  0  0  0  0  0  0  0  0  0  0  0
    9.4500   -2.7728   24.4963 H   0  0  0  0  0  0  0  0  0  0  0  0
    5.4169   -3.4986   23.0362 H   0  0  0  0  0  0  0  0  0  0  0  0
    6.9581   -5.7280   26.3927 H   0  0  0  0  0  0  0  0  0  0  0  0
  1  2  1  0
  2  3  2  0
  3  4  1  0
  4  5  1  0
  4  6  2  0
  6  7  1  0
  7  8  1  0
  8  9  2  0
  9 10  1  0
 10 11  1  0
 11 12  2  0
 12 13  1  0
 13 14  2  0
 14 15  1  0
 15 16  2  0
 16 17  1  0
 14 18  1  0
 13 19  1  0
 12 20  1  0
 10 21  1  0
 21 22  1  0
 22 23  1  0
 23 24  2  0
 24 25  1  0
 25 26  2  0
 26 27  1  0
 27 28  1  0
 26 29  1  0
 24 30  1  0
 22 31  1  0
 22 32  1  0
 21 33  2  0
  7 34  2  0
 34 35  1  0
  6 36  1  0
  3 37  1  0
 34  2  1  0
 33  8  1  0
 16 11  1  0
 27 23  1  0
M  END
>  <cnnaffinity>  (1) 
-6.05249

>  <filename>  (1) 
Fc1cc(F)cc(-c2nc(Cc3cnc[nH]3)n(-c3cccnc3)n2)c1

$$$$
