
     RDKit          3D

 38 41  0  0  0  0  0  0  0  0999 V2000
    7.4282    4.7639   22.0813 F   0  0  0  0  0  0  0  0  0  0  0  0
    7.0716    3.6239   22.7168 C   0  0  0  0  0  0  0  0  0  0  0  0
    6.4865    3.6904   23.9830 C   0  0  0  0  0  0  0  0  0  0  0  0
    6.1654    2.5178   24.6706 C   0  0  0  0  0  0  0  0  0  0  0  0
    6.4334    1.2683   24.1057 C   0  0  0  0  0  0  0  0  0  0  0  0
    6.0200   -0.2987   25.1270 Br  0  0  0  0  0  0  0  0  0  0  0  0
    7.0011    1.1777   22.8187 C   0  0  0  0  0  0  0  0  0  0  0  0
    7.3538   -0.1411   22.2603 C   0  0  0  0  0  0  0  0  0  0  0  0
    7.7777   -1.1160   23.0062 N   0  0  0  0  0  0  0  0  0  0  0  0
    8.1331   -2.0907   22.0990 C   0  0  0  0  0  0  0  0  0  0  0  0
    8.7611   -3.3513   22.6125 C   0  0  0  0  0  0  0  0  0  0  0  0
    7.9238   -4.0746   23.6616 C   0  0  0  0  0  0  0  0  0  0  0  0
    8.9723   -4.7221   24.5609 C   0  0  0  0  0  0  0  0  0  0  0  0
   10.1484   -3.9064   24.4641 O   0  0  0  0  0  0  0  0  0  0  0  0
   10.0601   -3.0157   23.3529 C   0  0  0  0  0  0  0  0  0  0  0  0
   10.0313   -1.9910   23.7345 H   0  0  0  0  0  0  0  0  0  0  0  0
   10.9512   -3.1044   22.7216 H   0  0  0  0  0  0  0  0  0  0  0  0
    8.6030   -4.7930   25.5926 H   0  0  0  0  0  0  0  0  0  0  0  0
    9.2093   -5.7296   24.2025 H   0  0  0  0  0  0  0  0  0  0  0  0
    7.2952   -3.3685   24.2197 H   0  0  0  0  0  0  0  0  0  0  0  0
    7.2744   -4.8295   23.2034 H   0  0  0  0  0  0  0  0  0  0  0  0
    8.9493   -4.0262   21.7837 H   0  0  0  0  0  0  0  0  0  0  0  0
    7.9455   -1.7774   20.8385 N   0  0  0  0  0  0  0  0  0  0  0  0
    7.3937   -0.5435   20.9264 N   0  0  0  0  0  0  0  0  0  0  0  0
    6.7390    0.0863   19.8665 C   0  0  0  0  0  0  0  0  0  0  0  0
    5.5865    0.8262   20.1257 C   0  0  0  0  0  0  0  0  0  0  0  0
    4.9366    1.4183   19.0496 C   0  0  0  0  0  0  0  0  0  0  0  0
    5.4518    1.2711   17.7570 C   0  0  0  0  0  0  0  0  0  0  0  0
    6.5604    0.5523   17.5013 N   0  0  0  0  0  0  0  0  0  0  0  0
    7.1852   -0.0429   18.5382 C   0  0  0  0  0  0  0  0  0  0  0  0
    8.0742   -0.6309   18.3298 H   0  0  0  0  0  0  0  0  0  0  0  0
    4.9292    1.7412   16.9318 H   0  0  0  0  0  0  0  0  0  0  0  0
    4.0318    1.9899   19.2073 H   0  0  0  0  0  0  0  0  0  0  0  0
    5.1966    0.9095   21.1406 H   0  0  0  0  0  0  0  0  0  0  0  0
    7.3087    2.3737   22.1302 C   0  0  0  0  0  0  0  0  0  0  0  0
    7.7750    2.3605   21.1491 H   0  0  0  0  0  0  0  0  0  0  0  0
    5.7178    2.5728   25.6590 H   0  0  0  0  0  0  0  0  0  0  0  0
    6.2965    4.6589   24.4339 H   0  0  0  0  0  0  0  0  0  0  0  0
  1  2  1  0
  2  3  2  0
  3  4  1  0
  4  5  2  0
  5  6  1  0
  5  7  1  0
  7  8  1  0
  8  9  2  0
  9 10  1  0
 10 11  1  0
 11 12  1  0
 12 13  1  0
 13 14  1  0
 14 15  1  0
 15 16  1  0
 15 17  1  0
 13 18  1  0
 13 19  1  0
 12 20  1  0
 12 21  1  0
 11 22  1  0
 10 23  2  0
 23 24  1  0
 24 25  1  0
 25 26  2  0
 26 27  1  0
 27 28  2  0
 28 29  1  0
 29 30  2  0
 30 31  1  0
 28 32  1  0
 27 33  1  0
 26 34  1  0
  7 35  2  0
 35 36  1  0
  4 37  1  0
  3 38  1  0
 35  2  1  0
 24  8  1  0
 30 25  1  0
 15 11  1  0
M  END
>  <cnnaffinity>  (1) 
-5.91301

>  <filename>  (1) 
Fc1ccc(Br)c(-c2nc(C3CCOC3)nn2-c2cccnc2)c1

$$$$
