
     RDKit          3D

 41 44  0  0  0  0  0  0  0  0999 V2000
   11.2358    2.3993   23.2072 F   0  0  0  0  0  0  0  0  0  0  0  0
   10.0218    2.2078   23.7656 C   0  0  0  0  0  0  0  0  0  0  0  0
    9.9478    2.1324   25.1515 C   0  0  0  0  0  0  0  0  0  0  0  0
    8.7069    1.9366   25.7599 C   0  0  0  0  0  0  0  0  0  0  0  0
    7.5692    1.7546   24.9666 C   0  0  0  0  0  0  0  0  0  0  0  0
    7.6819    1.8118   23.5739 C   0  0  0  0  0  0  0  0  0  0  0  0
    8.9060    2.0690   22.9364 C   0  0  0  0  0  0  0  0  0  0  0  0
    9.0514    2.0126   21.4322 C   0  0  0  0  0  0  0  0  0  0  0  0
    9.5285    0.6132   20.9446 C   0  0  0  0  0  0  0  0  0  0  0  0
    8.6494   -0.5039   21.4091 C   0  0  0  0  0  0  0  0  0  0  0  0
    8.8705   -1.3220   22.4269 N   0  0  0  0  0  0  0  0  0  0  0  0
    7.6656   -1.9201   22.6007 C   0  0  0  0  0  0  0  0  0  0  0  0
    7.3804   -2.8118   23.7652 C   0  0  0  0  0  0  0  0  0  0  0  0
    6.4540   -2.1628   24.8412 C   0  0  0  0  0  0  0  0  0  0  0  0
    5.1931   -3.4622   24.6132 S   0  0  0  0  0  0  0  0  0  0  0  0
    6.4794   -4.0329   23.4501 C   0  0  0  0  0  0  0  0  0  0  0  0
    6.1236   -4.0725   22.4152 H   0  0  0  0  0  0  0  0  0  0  0  0
    6.9076   -4.9996   23.7330 H   0  0  0  0  0  0  0  0  0  0  0  0
    6.8720   -2.1391   25.8532 H   0  0  0  0  0  0  0  0  0  0  0  0
    6.0903   -1.1621   24.5844 H   0  0  0  0  0  0  0  0  0  0  0  0
    8.3495   -3.0915   24.1744 H   0  0  0  0  0  0  0  0  0  0  0  0
    6.7386   -1.5723   21.7322 N   0  0  0  0  0  0  0  0  0  0  0  0
    7.3749   -0.6702   20.9415 N   0  0  0  0  0  0  0  0  0  0  0  0
    6.6621    0.0018   19.9051 C   0  0  0  0  0  0  0  0  0  0  0  0
    5.4441    0.6399   20.1685 C   0  0  0  0  0  0  0  0  0  0  0  0
    4.8151    1.3083   19.1121 C   0  0  0  0  0  0  0  0  0  0  0  0
    5.4003    1.2958   17.8390 C   0  0  0  0  0  0  0  0  0  0  0  0
    6.5586    0.6712   17.5775 N   0  0  0  0  0  0  0  0  0  0  0  0
    7.1676    0.0500   18.5939 C   0  0  0  0  0  0  0  0  0  0  0  0
    8.1126   -0.4351   18.3666 H   0  0  0  0  0  0  0  0  0  0  0  0
    4.9208    1.7868   16.9941 H   0  0  0  0  0  0  0  0  0  0  0  0
    3.8822    1.8378   19.2622 H   0  0  0  0  0  0  0  0  0  0  0  0
    5.0146    0.6074   21.1748 H   0  0  0  0  0  0  0  0  0  0  0  0
    9.5800    0.6120   19.8534 H   0  0  0  0  0  0  0  0  0  0  0  0
   10.5314    0.4060   21.3229 H   0  0  0  0  0  0  0  0  0  0  0  0
    9.7668    2.7703   21.0937 H   0  0  0  0  0  0  0  0  0  0  0  0
    8.0860    2.2501   20.9679 H   0  0  0  0  0  0  0  0  0  0  0  0
    6.8137    1.6246   22.9482 H   0  0  0  0  0  0  0  0  0  0  0  0
    6.6057    1.5552   25.4280 H   0  0  0  0  0  0  0  0  0  0  0  0
    8.6403    1.9061   26.8456 H   0  0  0  0  0  0  0  0  0  0  0  0
   10.8778    2.1489   25.7002 H   0  0  0  0  0  0  0  0  0  0  0  0
  1  2  1  0
  2  3  2  0
  3  4  1  0
  4  5  2  0
  5  6  1  0
  6  7  2  0
  7  8  1  0
  8  9  1  0
  9 10  1  0
 10 11  2  0
 11 12  1  0
 12 13  1  0
 13 14  1  0
 14 15  1  0
 15 16  1  0
 16 17  1  0
 16 18  1  0
 14 19  1  0
 14 20  1  0
 13 21  1  0
 12 22  2  0
 22 23  1  0
 23 24  1  0
 24 25  2  0
 25 26  1  0
 26 27  2  0
 27 28  1  0
 28 29  2  0
 29 30  1  0
 27 31  1  0
 26 32  1  0
 25 33  1  0
  9 34  1  0
  9 35  1  0
  8 36  1  0
  8 37  1  0
  6 38  1  0
  5 39  1  0
  4 40  1  0
  3 41  1  0
  7  2  1  0
 23 10  1  0
 29 24  1  0
 16 13  1  0
M  END
>  <cnnaffinity>  (1) 
-5.88645

>  <filename>  (1) 
Fc1ccccc1CCc1nc(C2CSC2)nn1-c1cccnc1

$$$$
