
     RDKit          3D

 39 42  0  0  0  0  0  0  0  0999 V2000
    8.3240    4.7013   27.3149 F   0  0  0  0  0  0  0  0  0  0  0  0
    7.6204    3.6712   26.8277 C   0  0  0  0  0  0  0  0  0  0  0  0
    6.4756    3.2668   27.5061 C   0  0  0  0  0  0  0  0  0  0  0  0
    5.7549    2.2099   26.9545 C   0  0  0  0  0  0  0  0  0  0  0  0
    4.6558    1.7950   27.5987 F   0  0  0  0  0  0  0  0  0  0  0  0
    6.1175    1.5762   25.7684 C   0  0  0  0  0  0  0  0  0  0  0  0
    7.2772    2.0254   25.0967 C   0  0  0  0  0  0  0  0  0  0  0  0
    7.7096    1.4333   23.8030 C   0  0  0  0  0  0  0  0  0  0  0  0
    7.0914    0.4307   23.1980 N   0  0  0  0  0  0  0  0  0  0  0  0
    7.8270    0.2434   22.0769 N   0  0  0  0  0  0  0  0  0  0  0  0
    7.3884   -0.6766   21.0258 C   0  0  0  0  0  0  0  0  0  0  0  0
    6.6809    0.0108   19.8728 C   0  0  0  0  0  0  0  0  0  0  0  0
    5.4716    0.6749   20.1129 C   0  0  0  0  0  0  0  0  0  0  0  0
    4.8417    1.3241   19.0510 C   0  0  0  0  0  0  0  0  0  0  0  0
    5.4468    1.2877   17.7906 C   0  0  0  0  0  0  0  0  0  0  0  0
    6.5907    0.6362   17.5333 N   0  0  0  0  0  0  0  0  0  0  0  0
    7.1801    0.0098   18.5604 C   0  0  0  0  0  0  0  0  0  0  0  0
    8.0951   -0.5399   18.3221 H   0  0  0  0  0  0  0  0  0  0  0  0
    4.9922    1.7979   16.9455 H   0  0  0  0  0  0  0  0  0  0  0  0
    3.9049    1.8525   19.1871 H   0  0  0  0  0  0  0  0  0  0  0  0
    5.0479    0.6773   21.1199 H   0  0  0  0  0  0  0  0  0  0  0  0
    6.7055   -1.3714   21.5248 H   0  0  0  0  0  0  0  0  0  0  0  0
    8.2731   -1.2304   20.6911 H   0  0  0  0  0  0  0  0  0  0  0  0
    8.8354    1.1415   22.0605 C   0  0  0  0  0  0  0  0  0  0  0  0
    9.9683    1.1230   21.1034 C   0  0  0  0  0  0  0  0  0  0  0  0
   10.9288    0.0448   21.4973 C   0  0  0  0  0  0  0  0  0  0  0  0
   10.6611   -1.1874   21.1710 N   0  0  0  0  0  0  0  0  0  0  0  0
   11.6938   -1.9533   21.6495 O   0  0  0  0  0  0  0  0  0  0  0  0
   12.5568   -1.1575   22.2919 C   0  0  0  0  0  0  0  0  0  0  0  0
   12.1337    0.1281   22.2496 C   0  0  0  0  0  0  0  0  0  0  0  0
   12.5799    1.0073   22.6934 H   0  0  0  0  0  0  0  0  0  0  0  0
   13.4239   -1.6646   22.6836 H   0  0  0  0  0  0  0  0  0  0  0  0
   10.4686    2.0909   21.1556 H   0  0  0  0  0  0  0  0  0  0  0  0
    9.6087    0.9437   20.0861 H   0  0  0  0  0  0  0  0  0  0  0  0
    8.7955    1.9031   23.1247 N   0  0  0  0  0  0  0  0  0  0  0  0
    8.0461    3.0709   25.6503 C   0  0  0  0  0  0  0  0  0  0  0  0
    8.9568    3.4194   25.1695 H   0  0  0  0  0  0  0  0  0  0  0  0
    5.5065    0.7575   25.3921 H   0  0  0  0  0  0  0  0  0  0  0  0
    6.1531    3.7653   28.4121 H   0  0  0  0  0  0  0  0  0  0  0  0
  1  2  1  0
  2  3  2  0
  3  4  1  0
  4  5  1  0
  4  6  2  0
  6  7  1  0
  7  8  1  0
  8  9  2  0
  9 10  1  0
 10 11  1  0
 11 12  1  0
 12 13  2  0
 13 14  1  0
 14 15  2  0
 15 16  1  0
 16 17  2  0
 17 18  1  0
 15 19  1  0
 14 20  1  0
 13 21  1  0
 11 22  1  0
 11 23  1  0
 10 24  1  0
 24 25  1  0
 25 26  1  0
 26 27  2  0
 27 28  1  0
 28 29  1  0
 29 30  2  0
 30 31  1  0
 29 32  1  0
 25 33  1  0
 25 34  1  0
 24 35  2  0
  7 36  2  0
 36 37  1  0
  6 38  1  0
  3 39  1  0
 36  2  1  0
 35  8  1  0
 17 12  1  0
 30 26  1  0
M  END
>  <cnnaffinity>  (1) 
-6.40963

>  <filename>  (1) 
Fc1cc(F)cc(-c2nc(Cc3ccon3)n(Cc3cccnc3)n2)c1

$$$$
