
     RDKit          3D

 47 51  0  0  0  0  0  0  0  0999 V2000
   14.3128   -1.8445   21.4352 F   0  0  0  0  0  0  0  0  0  0  0  0
   13.5074   -0.9001   21.9410 C   0  0  0  0  0  0  0  0  0  0  0  0
   14.0948    0.1926   22.5724 C   0  0  0  0  0  0  0  0  0  0  0  0
   13.2796    1.1663   23.1463 C   0  0  0  0  0  0  0  0  0  0  0  0
   11.8953    1.0652   23.0363 C   0  0  0  0  0  0  0  0  0  0  0  0
   11.3068   -0.0055   22.3258 C   0  0  0  0  0  0  0  0  0  0  0  0
    9.8351    0.0431   22.1289 C   0  0  0  0  0  0  0  0  0  0  0  0
    9.0824   -0.8495   21.5080 N   0  0  0  0  0  0  0  0  0  0  0  0
    7.8391   -0.3098   21.5942 N   0  0  0  0  0  0  0  0  0  0  0  0
    6.6879   -0.9207   20.9430 C   0  0  0  0  0  0  0  0  0  0  0  0
    6.1752   -0.0956   19.7786 C   0  0  0  0  0  0  0  0  0  0  0  0
    4.9465    0.5758   19.7755 C   0  0  0  0  0  0  0  0  0  0  0  0
    4.6217    1.3786   18.6774 C   0  0  0  0  0  0  0  0  0  0  0  0
    5.5229    1.4547   17.6122 C   0  0  0  0  0  0  0  0  0  0  0  0
    6.6969    0.8047   17.5877 N   0  0  0  0  0  0  0  0  0  0  0  0
    7.0089    0.0715   18.6610 C   0  0  0  0  0  0  0  0  0  0  0  0
    7.9859   -0.4106   18.6455 H   0  0  0  0  0  0  0  0  0  0  0  0
    5.2992    2.0698   16.7432 H   0  0  0  0  0  0  0  0  0  0  0  0
    3.7025    1.9553   18.6427 H   0  0  0  0  0  0  0  0  0  0  0  0
    4.2599    0.4924   20.6231 H   0  0  0  0  0  0  0  0  0  0  0  0
    5.9013   -1.0745   21.6901 H   0  0  0  0  0  0  0  0  0  0  0  0
    7.0214   -1.9075   20.6124 H   0  0  0  0  0  0  0  0  0  0  0  0
    7.8966    0.8711   22.2418 C   0  0  0  0  0  0  0  0  0  0  0  0
    6.7050    1.6074   22.8057 C   0  0  0  0  0  0  0  0  0  0  0  0
    6.2680    0.9955   24.1141 C   0  0  0  0  0  0  0  0  0  0  0  0
    5.1048    0.6055   24.7379 C   0  0  0  0  0  0  0  0  0  0  0  0
    5.3890   -0.0992   25.8803 N   0  0  0  0  0  0  0  0  0  0  0  0
    6.7005   -0.1337   25.9690 C   0  0  0  0  0  0  0  0  0  0  0  0
    7.4947   -0.9223   26.9199 C   0  0  0  0  0  0  0  0  0  0  0  0
    8.7911   -1.5551   26.4488 C   0  0  0  0  0  0  0  0  0  0  0  0
    8.8311   -0.4216   27.4203 C   0  0  0  0  0  0  0  0  0  0  0  0
    9.1122   -0.6329   28.4476 H   0  0  0  0  0  0  0  0  0  0  0  0
    9.1551    0.5570   27.0674 H   0  0  0  0  0  0  0  0  0  0  0  0
    9.0220   -2.5589   26.7909 H   0  0  0  0  0  0  0  0  0  0  0  0
    9.0912   -1.3580   25.4170 H   0  0  0  0  0  0  0  0  0  0  0  0
    6.8626   -1.4934   27.5944 H   0  0  0  0  0  0  0  0  0  0  0  0
    7.2639    0.5721   24.9557 N   0  0  0  0  0  0  0  0  0  0  0  0
    8.2482    0.7088   24.7691 H   0  0  0  0  0  0  0  0  0  0  0  0
    4.0703    0.7589   24.4490 H   0  0  0  0  0  0  0  0  0  0  0  0
    7.0325    2.6347   22.9727 H   0  0  0  0  0  0  0  0  0  0  0  0
    5.8861    1.6494   22.0901 H   0  0  0  0  0  0  0  0  0  0  0  0
    9.1407    1.1295   22.5820 N   0  0  0  0  0  0  0  0  0  0  0  0
   12.1252   -1.0334   21.8071 C   0  0  0  0  0  0  0  0  0  0  0  0
   11.7139   -1.8928   21.2807 H   0  0  0  0  0  0  0  0  0  0  0  0
   11.2514    1.8420   23.4430 H   0  0  0  0  0  0  0  0  0  0  0  0
   13.7312    2.0121   23.6615 H   0  0  0  0  0  0  0  0  0  0  0  0
   15.1683    0.2772   22.5619 H   0  0  0  0  0  0  0  0  0  0  0  0
  1  2  1  0
  2  3  2  0
  3  4  1  0
  4  5  2  0
  5  6  1  0
  6  7  1  0
  7  8  2  0
  8  9  1  0
  9 10  1  0
 10 11  1  0
 11 12  2  0
 12 13  1  0
 13 14  2  0
 14 15  1  0
 15 16  2  0
 16 17  1  0
 14 18  1  0
 13 19  1  0
 12 20  1  0
 10 21  1  0
 10 22  1  0
  9 23  1  0
 23 24  1  0
 24 25  1  0
 25 26  2  0
 26 27  1  0
 27 28  2  0
 28 29  1  0
 29 30  1  0
 30 31  1  0
 31 32  1  0
 31 33  1  0
 30 34  1  0
 30 35  1  0
 29 36  1  0
 28 37  1  0
 37 38  1  0
 26 39  1  0
 24 40  1  0
 24 41  1  0
 23 42  2  0
  6 43  2  0
 43 44  1  0
  5 45  1  0
  4 46  1  0
  3 47  1  0
 43  2  1  0
 42  7  1  0
 16 11  1  0
 37 25  1  0
 31 29  1  0
M  END
>  <cnnaffinity>  (1) 
-6.45713

>  <filename>  (1) 
Fc1cccc(-c2nc(Cc3cnc(C4CC4)[nH]3)n(Cc3cccnc3)n2)c1

$$$$
