
     RDKit          3D

 38 42  0  0  0  0  0  0  0  0999 V2000
    6.2761    5.1020   24.7129 F   0  0  0  0  0  0  0  0  0  0  0  0
    6.5486    3.9324   24.1199 C   0  0  0  0  0  0  0  0  0  0  0  0
    7.0244    3.9021   22.8128 C   0  0  0  0  0  0  0  0  0  0  0  0
    7.3180    2.6715   22.2115 C   0  0  0  0  0  0  0  0  0  0  0  0
    7.1176    1.4621   22.9113 C   0  0  0  0  0  0  0  0  0  0  0  0
    7.3752    0.1202   22.3334 C   0  0  0  0  0  0  0  0  0  0  0  0
    7.7629   -0.9484   23.0195 N   0  0  0  0  0  0  0  0  0  0  0  0
    7.9049   -1.9020   22.0687 C   0  0  0  0  0  0  0  0  0  0  0  0
    8.2780   -3.3197   22.2607 C   0  0  0  0  0  0  0  0  0  0  0  0
    8.9098   -3.8637   23.5415 C   0  0  0  0  0  0  0  0  0  0  0  0
    7.5426   -4.3103   23.1313 C   0  0  0  0  0  0  0  0  0  0  0  0
    6.2502   -4.5693   23.8460 C   0  0  0  0  0  0  0  0  0  0  0  0
    6.8295   -5.5823   22.8536 C   0  0  0  0  0  0  0  0  0  0  0  0
    7.2824   -6.5002   23.2179 H   0  0  0  0  0  0  0  0  0  0  0  0
    6.3489   -5.6544   21.8786 H   0  0  0  0  0  0  0  0  0  0  0  0
    5.3508   -4.0027   23.6005 H   0  0  0  0  0  0  0  0  0  0  0  0
    6.3599   -4.7856   24.9101 H   0  0  0  0  0  0  0  0  0  0  0  0
    9.7285   -4.5721   23.4355 H   0  0  0  0  0  0  0  0  0  0  0  0
    8.9550   -3.2327   24.4285 H   0  0  0  0  0  0  0  0  0  0  0  0
    8.6391   -3.7285   21.3169 H   0  0  0  0  0  0  0  0  0  0  0  0
    7.6676   -1.4865   20.8407 N   0  0  0  0  0  0  0  0  0  0  0  0
    7.2675   -0.2009   21.0043 N   0  0  0  0  0  0  0  0  0  0  0  0
    6.6355    0.4293   19.8951 C   0  0  0  0  0  0  0  0  0  0  0  0
    5.4417    1.1480   20.0094 C   0  0  0  0  0  0  0  0  0  0  0  0
    4.8243    1.5754   18.8286 C   0  0  0  0  0  0  0  0  0  0  0  0
    5.4249    1.2933   17.5988 C   0  0  0  0  0  0  0  0  0  0  0  0
    6.5852    0.6196   17.4867 N   0  0  0  0  0  0  0  0  0  0  0  0
    7.1647    0.1967   18.6122 C   0  0  0  0  0  0  0  0  0  0  0  0
    8.0938   -0.3644   18.5240 H   0  0  0  0  0  0  0  0  0  0  0  0
    4.9692    1.6187   16.6651 H   0  0  0  0  0  0  0  0  0  0  0  0
    3.8872    2.1198   18.8574 H   0  0  0  0  0  0  0  0  0  0  0  0
    5.0153    1.3578   20.9902 H   0  0  0  0  0  0  0  0  0  0  0  0
    6.6763    1.5215   24.2467 C   0  0  0  0  0  0  0  0  0  0  0  0
    6.3815    2.7421   24.8335 C   0  0  0  0  0  0  0  0  0  0  0  0
    5.9373    2.7770   26.0964 F   0  0  0  0  0  0  0  0  0  0  0  0
    6.5671    0.6224   24.8457 H   0  0  0  0  0  0  0  0  0  0  0  0
    7.7066    2.6690   21.1960 H   0  0  0  0  0  0  0  0  0  0  0  0
    7.1565    4.8460   22.2917 H   0  0  0  0  0  0  0  0  0  0  0  0
  1  2  1  0
  2  3  2  0
  3  4  1  0
  4  5  2  0
  5  6  1  0
  6  7  2  0
  7  8  1  0
  8  9  1  0
  9 10  1  0
 10 11  1  0
 11 12  1  0
 12 13  1  0
 13 14  1  0
 13 15  1  0
 12 16  1  0
 12 17  1  0
 10 18  1  0
 10 19  1  0
  9 20  1  0
  8 21  2  0
 21 22  1  0
 22 23  1  0
 23 24  2  0
 24 25  1  0
 25 26  2  0
 26 27  1  0
 27 28  2  0
 28 29  1  0
 26 30  1  0
 25 31  1  0
 24 32  1  0
  5 33  1  0
 33 34  2  0
 34 35  1  0
 33 36  1  0
  4 37  1  0
  3 38  1  0
 34  2  1  0
 22  6  1  0
 28 23  1  0
 11  9  1  0
 13 11  1  0
M  END
>  <cnnaffinity>  (1) 
-6.13232

>  <filename>  (1) 
Fc1ccc(-c2nc(C3CC34CC4)nn2-c2cccnc2)cc1F

$$$$
