
     RDKit          3D

 44 47  0  0  0  0  0  0  0  0999 V2000
   13.8547    2.1726   23.7475 F   0  0  0  0  0  0  0  0  0  0  0  0
   13.0183    1.1312   23.7515 C   0  0  0  0  0  0  0  0  0  0  0  0
   12.5996    0.5377   24.9372 C   0  0  0  0  0  0  0  0  0  0  0  0
   11.5785   -0.3295   24.9760 N   0  0  0  0  0  0  0  0  0  0  0  0
   11.0050   -0.6910   23.8109 C   0  0  0  0  0  0  0  0  0  0  0  0
   11.4767   -0.2609   22.5575 C   0  0  0  0  0  0  0  0  0  0  0  0
   10.7811   -0.5241   21.2479 C   0  0  0  0  0  0  0  0  0  0  0  0
    9.9681    0.7444   20.8752 C   0  0  0  0  0  0  0  0  0  0  0  0
    8.9069    1.0337   21.8856 C   0  0  0  0  0  0  0  0  0  0  0  0
    8.9491    1.9161   22.8588 N   0  0  0  0  0  0  0  0  0  0  0  0
    7.8676    1.5947   23.6296 C   0  0  0  0  0  0  0  0  0  0  0  0
    7.4630    2.2979   24.9136 C   0  0  0  0  0  0  0  0  0  0  0  0
    8.2546    3.2892   25.3903 N   0  0  0  0  0  0  0  0  0  0  0  0
    7.9208    3.8914   26.5144 C   0  0  0  0  0  0  0  0  0  0  0  0
    8.9684    5.1769   27.0560 Cl  0  0  0  0  0  0  0  0  0  0  0  0
    6.7869    3.5796   27.2719 C   0  0  0  0  0  0  0  0  0  0  0  0
    5.9592    2.5657   26.7918 C   0  0  0  0  0  0  0  0  0  0  0  0
    6.2884    1.9146   25.5996 C   0  0  0  0  0  0  0  0  0  0  0  0
    5.6636    1.1198   25.2038 H   0  0  0  0  0  0  0  0  0  0  0  0
    5.0611    2.2856   27.3438 H   0  0  0  0  0  0  0  0  0  0  0  0
    6.5898    4.1209   28.1891 H   0  0  0  0  0  0  0  0  0  0  0  0
    7.1638    0.5678   23.1407 N   0  0  0  0  0  0  0  0  0  0  0  0
    7.8471    0.2118   22.0325 N   0  0  0  0  0  0  0  0  0  0  0  0
    7.3025   -0.7214   21.0442 C   0  0  0  0  0  0  0  0  0  0  0  0
    6.6207   -0.0188   19.8893 C   0  0  0  0  0  0  0  0  0  0  0  0
    5.4291    0.6733   20.1246 C   0  0  0  0  0  0  0  0  0  0  0  0
    4.8113    1.3302   19.0600 C   0  0  0  0  0  0  0  0  0  0  0  0
    5.4213    1.2918   17.8036 C   0  0  0  0  0  0  0  0  0  0  0  0
    6.5657    0.6366   17.5594 N   0  0  0  0  0  0  0  0  0  0  0  0
    7.1406   -0.0011   18.5872 C   0  0  0  0  0  0  0  0  0  0  0  0
    8.0670   -0.5317   18.3562 H   0  0  0  0  0  0  0  0  0  0  0  0
    4.9710    1.8063   16.9560 H   0  0  0  0  0  0  0  0  0  0  0  0
    3.8811    1.8708   19.1937 H   0  0  0  0  0  0  0  0  0  0  0  0
    5.0082    0.6924   21.1315 H   0  0  0  0  0  0  0  0  0  0  0  0
    6.5958   -1.3600   21.5807 H   0  0  0  0  0  0  0  0  0  0  0  0
    8.1162   -1.3541   20.6703 H   0  0  0  0  0  0  0  0  0  0  0  0
   10.6401    1.6062   20.8479 H   0  0  0  0  0  0  0  0  0  0  0  0
    9.5298    0.6604   19.8803 H   0  0  0  0  0  0  0  0  0  0  0  0
   10.1463   -1.4166   21.3123 H   0  0  0  0  0  0  0  0  0  0  0  0
   11.5393   -0.7258   20.4842 H   0  0  0  0  0  0  0  0  0  0  0  0
   12.5011    0.6985   22.5502 C   0  0  0  0  0  0  0  0  0  0  0  0
   12.8847    1.1534   21.6423 H   0  0  0  0  0  0  0  0  0  0  0  0
   10.1387   -1.3507   23.8905 H   0  0  0  0  0  0  0  0  0  0  0  0
   13.1563    0.7628   25.8391 H   0  0  0  0  0  0  0  0  0  0  0  0
  1  2  1  0
  2  3  2  0
  3  4  1  0
  4  5  2  0
  5  6  1  0
  6  7  1  0
  7  8  1  0
  8  9  1  0
  9 10  2  0
 10 11  1  0
 11 12  1  0
 12 13  2  0
 13 14  1  0
 14 15  1  0
 14 16  2  0
 16 17  1  0
 17 18  2  0
 18 19  1  0
 17 20  1  0
 16 21  1  0
 11 22  2  0
 22 23  1  0
 23 24  1  0
 24 25  1  0
 25 26  2  0
 26 27  1  0
 27 28  2  0
 28 29  1  0
 29 30  2  0
 30 31  1  0
 28 32  1  0
 27 33  1  0
 26 34  1  0
 24 35  1  0
 24 36  1  0
  8 37  1  0
  8 38  1  0
  7 39  1  0
  7 40  1  0
  6 41  2  0
 41 42  1  0
  5 43  1  0
  3 44  1  0
 41  2  1  0
 23  9  1  0
 30 25  1  0
 18 12  1  0
M  END
>  <cnnaffinity>  (1) 
-5.90756

>  <filename>  (1) 
Fc1cncc(CCc2nc(-c3cccc(Cl)n3)nn2Cc2cccnc2)c1

$$$$
