
     RDKit          3D

 47 50  0  0  0  0  0  0  0  0999 V2000
    6.9686    7.4817   23.6874 F   0  0  0  0  0  0  0  0  0  0  0  0
    7.4165    6.2371   23.4732 C   0  0  0  0  0  0  0  0  0  0  0  0
    6.5150    5.1996   23.2627 C   0  0  0  0  0  0  0  0  0  0  0  0
    7.0046    3.9067   23.0522 C   0  0  0  0  0  0  0  0  0  0  0  0
    8.3792    3.6433   23.0605 C   0  0  0  0  0  0  0  0  0  0  0  0
    8.8900    2.2595   22.7656 C   0  0  0  0  0  0  0  0  0  0  0  0
    9.0338    2.0199   21.2575 C   0  0  0  0  0  0  0  0  0  0  0  0
    9.5387    0.6079   20.9248 C   0  0  0  0  0  0  0  0  0  0  0  0
    8.6410   -0.4652   21.4269 C   0  0  0  0  0  0  0  0  0  0  0  0
    8.8760   -1.2715   22.4467 N   0  0  0  0  0  0  0  0  0  0  0  0
    7.7036   -1.9313   22.5821 C   0  0  0  0  0  0  0  0  0  0  0  0
    7.4693   -2.9323   23.6599 C   0  0  0  0  0  0  0  0  0  0  0  0
    6.9484   -4.2991   23.1687 C   0  0  0  0  0  0  0  0  0  0  0  0
    6.1277   -4.8075   24.3566 C   0  0  0  0  0  0  0  0  0  0  0  0
    5.8073   -3.6786   25.1547 O   0  0  0  0  0  0  0  0  0  0  0  0
    6.3868   -2.4904   24.6605 C   0  0  0  0  0  0  0  0  0  0  0  0
    5.6235   -1.8677   24.1779 H   0  0  0  0  0  0  0  0  0  0  0  0
    6.7904   -1.9197   25.5072 H   0  0  0  0  0  0  0  0  0  0  0  0
    5.1986   -5.2988   24.0370 H   0  0  0  0  0  0  0  0  0  0  0  0
    6.6907   -5.5227   24.9730 H   0  0  0  0  0  0  0  0  0  0  0  0
    6.3114   -4.1555   22.2884 H   0  0  0  0  0  0  0  0  0  0  0  0
    7.7567   -4.9840   22.8975 H   0  0  0  0  0  0  0  0  0  0  0  0
    8.4152   -3.0537   24.1914 H   0  0  0  0  0  0  0  0  0  0  0  0
    6.7645   -1.5954   21.7152 N   0  0  0  0  0  0  0  0  0  0  0  0
    7.3785   -0.6614   20.9453 N   0  0  0  0  0  0  0  0  0  0  0  0
    6.6626    0.0061   19.9070 C   0  0  0  0  0  0  0  0  0  0  0  0
    5.4414    0.6388   20.1681 C   0  0  0  0  0  0  0  0  0  0  0  0
    4.8134    1.3070   19.1111 C   0  0  0  0  0  0  0  0  0  0  0  0
    5.4005    1.2956   17.8389 C   0  0  0  0  0  0  0  0  0  0  0  0
    6.5608    0.6736   17.5782 N   0  0  0  0  0  0  0  0  0  0  0  0
    7.1699    0.0538   18.5960 C   0  0  0  0  0  0  0  0  0  0  0  0
    8.1136   -0.4357   18.3697 H   0  0  0  0  0  0  0  0  0  0  0  0
    4.9192    1.7857   16.9950 H   0  0  0  0  0  0  0  0  0  0  0  0
    3.8808    1.8379   19.2608 H   0  0  0  0  0  0  0  0  0  0  0  0
    5.0139    0.6097   21.1738 H   0  0  0  0  0  0  0  0  0  0  0  0
   10.5205    0.4342   21.3741 H   0  0  0  0  0  0  0  0  0  0  0  0
    9.6397    0.5041   19.8434 H   0  0  0  0  0  0  0  0  0  0  0  0
    8.0727    2.1995   20.7571 H   0  0  0  0  0  0  0  0  0  0  0  0
    9.7373    2.7510   20.8509 H   0  0  0  0  0  0  0  0  0  0  0  0
    8.2128    1.5115   23.1954 H   0  0  0  0  0  0  0  0  0  0  0  0
    9.8601    2.1014   23.2529 H   0  0  0  0  0  0  0  0  0  0  0  0
    9.2766    4.7027   23.2571 C   0  0  0  0  0  0  0  0  0  0  0  0
    8.7943    5.9893   23.4654 C   0  0  0  0  0  0  0  0  0  0  0  0
    9.6524    6.9994   23.6666 F   0  0  0  0  0  0  0  0  0  0  0  0
   10.3524    4.5527   23.2412 H   0  0  0  0  0  0  0  0  0  0  0  0
    6.3078    3.0934   22.8638 H   0  0  0  0  0  0  0  0  0  0  0  0
    5.4528    5.4213   23.2610 H   0  0  0  0  0  0  0  0  0  0  0  0
  1  2  1  0
  2  3  2  0
  3  4  1  0
  4  5  2  0
  5  6  1  0
  6  7  1  0
  7  8  1  0
  8  9  1  0
  9 10  2  0
 10 11  1  0
 11 12  1  0
 12 13  1  0
 13 14  1  0
 14 15  1  0
 15 16  1  0
 16 17  1  0
 16 18  1  0
 14 19  1  0
 14 20  1  0
 13 21  1  0
 13 22  1  0
 12 23  1  0
 11 24  2  0
 24 25  1  0
 25 26  1  0
 26 27  2  0
 27 28  1  0
 28 29  2  0
 29 30  1  0
 30 31  2  0
 31 32  1  0
 29 33  1  0
 28 34  1  0
 27 35  1  0
  8 36  1  0
  8 37  1  0
  7 38  1  0
  7 39  1  0
  6 40  1  0
  6 41  1  0
  5 42  1  0
 42 43  2  0
 43 44  1  0
 42 45  1  0
  4 46  1  0
  3 47  1  0
 43  2  1  0
 25  9  1  0
 31 26  1  0
 16 12  1  0
M  END
>  <cnnaffinity>  (1) 
-6.10447

>  <filename>  (1) 
Fc1ccc(CCCc2nc(C3CCOC3)nn2-c2cccnc2)cc1F

$$$$
