
     RDKit          3D

 39 42  0  0  0  0  0  0  0  0999 V2000
   14.4304   -1.9592   21.2916 F   0  0  0  0  0  0  0  0  0  0  0  0
   13.6921   -0.9332   21.7316 C   0  0  0  0  0  0  0  0  0  0  0  0
   14.2901    0.1288   22.4166 C   0  0  0  0  0  0  0  0  0  0  0  0
   13.5980    1.1505   22.9310 N   0  0  0  0  0  0  0  0  0  0  0  0
   12.2786    1.1780   22.7281 C   0  0  0  0  0  0  0  0  0  0  0  0
   11.6140    0.1923   21.9866 C   0  0  0  0  0  0  0  0  0  0  0  0
   10.1733    0.3304   21.8275 C   0  0  0  0  0  0  0  0  0  0  0  0
    9.4182   -0.5922   21.2656 N   0  0  0  0  0  0  0  0  0  0  0  0
    8.1663   -0.1448   21.5100 N   0  0  0  0  0  0  0  0  0  0  0  0
    7.0099   -0.8538   20.9787 C   0  0  0  0  0  0  0  0  0  0  0  0
    6.3689   -0.1038   19.8346 C   0  0  0  0  0  0  0  0  0  0  0  0
    5.1385    0.5519   19.9364 C   0  0  0  0  0  0  0  0  0  0  0  0
    4.7030    1.3291   18.8585 C   0  0  0  0  0  0  0  0  0  0  0  0
    5.5100    1.4072   17.7203 C   0  0  0  0  0  0  0  0  0  0  0  0
    6.6790    0.7618   17.5919 N   0  0  0  0  0  0  0  0  0  0  0  0
    7.0908    0.0394   18.6383 C   0  0  0  0  0  0  0  0  0  0  0  0
    8.0630   -0.4424   18.5385 H   0  0  0  0  0  0  0  0  0  0  0  0
    5.2143    2.0234   16.8752 H   0  0  0  0  0  0  0  0  0  0  0  0
    3.7806    1.8963   18.9004 H   0  0  0  0  0  0  0  0  0  0  0  0
    4.5473    0.4914   20.8540 H   0  0  0  0  0  0  0  0  0  0  0  0
    6.2971   -1.0427   21.7884 H   0  0  0  0  0  0  0  0  0  0  0  0
    7.3845   -1.8301   20.6647 H   0  0  0  0  0  0  0  0  0  0  0  0
    8.2229    1.0357   22.1552 C   0  0  0  0  0  0  0  0  0  0  0  0
    7.0388    1.6707   22.8339 C   0  0  0  0  0  0  0  0  0  0  0  0
    6.8527    1.0895   24.2137 C   0  0  0  0  0  0  0  0  0  0  0  0
    7.7834    1.0300   25.2240 C   0  0  0  0  0  0  0  0  0  0  0  0
    7.1686    0.2762   26.2407 C   0  0  0  0  0  0  0  0  0  0  0  0
    5.9445   -0.1068   25.8958 N   0  0  0  0  0  0  0  0  0  0  0  0
    5.7738    0.4053   24.6617 N   0  0  0  0  0  0  0  0  0  0  0  0
    4.9496    0.1536   24.1344 H   0  0  0  0  0  0  0  0  0  0  0  0
    7.5786   -0.0137   27.1986 H   0  0  0  0  0  0  0  0  0  0  0  0
    8.7945    1.4115   25.1563 H   0  0  0  0  0  0  0  0  0  0  0  0
    6.1301    1.5711   22.2408 H   0  0  0  0  0  0  0  0  0  0  0  0
    7.2467    2.7375   22.9196 H   0  0  0  0  0  0  0  0  0  0  0  0
    9.4852    1.3783   22.3520 N   0  0  0  0  0  0  0  0  0  0  0  0
   12.3320   -0.9116   21.4770 C   0  0  0  0  0  0  0  0  0  0  0  0
   11.8595   -1.6899   20.8795 H   0  0  0  0  0  0  0  0  0  0  0  0
   11.7318    1.9940   23.1981 H   0  0  0  0  0  0  0  0  0  0  0  0
   15.3602    0.1541   22.5223 H   0  0  0  0  0  0  0  0  0  0  0  0
  1  2  1  0
  2  3  2  0
  3  4  1  0
  4  5  2  0
  5  6  1  0
  6  7  1  0
  7  8  2  0
  8  9  1  0
  9 10  1  0
 10 11  1  0
 11 12  2  0
 12 13  1  0
 13 14  2  0
 14 15  1  0
 15 16  2  0
 16 17  1  0
 14 18  1  0
 13 19  1  0
 12 20  1  0
 10 21  1  0
 10 22  1  0
  9 23  1  0
 23 24  1  0
 24 25  1  0
 25 26  2  0
 26 27  1  0
 27 28  2  0
 28 29  1  0
 29 30  1  0
 27 31  1  0
 26 32  1  0
 24 33  1  0
 24 34  1  0
 23 35  2  0
  6 36  2  0
 36 37  1  0
  5 38  1  0
  3 39  1  0
 36  2  1  0
 35  7  1  0
 16 11  1  0
 29 25  1  0
M  END
>  <cnnaffinity>  (1) 
-6.45296

>  <filename>  (1) 
Fc1cncc(-c2nc(Cc3ccn[nH]3)n(Cc3cccnc3)n2)c1

$$$$
