
     RDKit          3D

 39 42  0  0  0  0  0  0  0  0999 V2000
   15.4251   -1.1765   19.8891 F   0  0  0  0  0  0  0  0  0  0  0  0
   14.4112   -1.1222   20.7583 C   0  0  0  0  0  0  0  0  0  0  0  0
   14.3093   -0.0907   21.7119 C   0  0  0  0  0  0  0  0  0  0  0  0
   13.0445    0.1934   22.2305 C   0  0  0  0  0  0  0  0  0  0  0  0
   11.9432   -0.5794   21.8246 C   0  0  0  0  0  0  0  0  0  0  0  0
   10.5456   -0.1409   21.8760 C   0  0  0  0  0  0  0  0  0  0  0  0
    9.5925   -0.9191   21.3813 N   0  0  0  0  0  0  0  0  0  0  0  0
    8.4820   -0.1825   21.5053 N   0  0  0  0  0  0  0  0  0  0  0  0
    7.2104   -0.7301   21.0384 C   0  0  0  0  0  0  0  0  0  0  0  0
    6.5464    0.0441   19.9214 C   0  0  0  0  0  0  0  0  0  0  0  0
    5.3193    0.6952   20.0819 C   0  0  0  0  0  0  0  0  0  0  0  0
    4.7542    1.3608   18.9915 C   0  0  0  0  0  0  0  0  0  0  0  0
    5.4393    1.3487   17.7738 C   0  0  0  0  0  0  0  0  0  0  0  0
    6.6141    0.7241   17.5980 N   0  0  0  0  0  0  0  0  0  0  0  0
    7.1485    0.0986   18.6533 C   0  0  0  0  0  0  0  0  0  0  0  0
    8.1052   -0.3946   18.4803 H   0  0  0  0  0  0  0  0  0  0  0  0
    5.0321    1.8568   16.9002 H   0  0  0  0  0  0  0  0  0  0  0  0
    3.8169    1.8973   19.0740 H   0  0  0  0  0  0  0  0  0  0  0  0
    4.8126    0.6837   21.0495 H   0  0  0  0  0  0  0  0  0  0  0  0
    6.5415   -0.8072   21.8996 H   0  0  0  0  0  0  0  0  0  0  0  0
    7.4369   -1.7517   20.7103 H   0  0  0  0  0  0  0  0  0  0  0  0
    8.7991    0.9889   22.0968 C   0  0  0  0  0  0  0  0  0  0  0  0
    7.7782    1.8320   22.7988 C   0  0  0  0  0  0  0  0  0  0  0  0
    7.4358    1.2025   24.1536 C   0  0  0  0  0  0  0  0  0  0  0  0
    8.3792    1.0299   25.1278 C   0  0  0  0  0  0  0  0  0  0  0  0
    7.7283    0.1708   26.4376 S   0  0  0  0  0  0  0  0  0  0  0  0
    6.2245    0.0137   25.7631 N   0  0  0  0  0  0  0  0  0  0  0  0
    6.2113    0.5950   24.5873 C   0  0  0  0  0  0  0  0  0  0  0  0
    5.2797    0.5720   24.0195 H   0  0  0  0  0  0  0  0  0  0  0  0
    9.4223    1.3351   25.0791 H   0  0  0  0  0  0  0  0  0  0  0  0
    6.8967    1.9568   22.1629 H   0  0  0  0  0  0  0  0  0  0  0  0
    8.2302    2.8195   22.9350 H   0  0  0  0  0  0  0  0  0  0  0  0
   10.1051    1.0585   22.3145 N   0  0  0  0  0  0  0  0  0  0  0  0
   12.1711   -1.7840   21.1449 C   0  0  0  0  0  0  0  0  0  0  0  0
   13.3995   -2.0500   20.5722 C   0  0  0  0  0  0  0  0  0  0  0  0
   13.5761   -2.9200   19.9537 H   0  0  0  0  0  0  0  0  0  0  0  0
   11.3108   -2.4141   20.9800 H   0  0  0  0  0  0  0  0  0  0  0  0
   12.9084    1.0375   22.9008 H   0  0  0  0  0  0  0  0  0  0  0  0
   15.1561    0.5507   21.9490 H   0  0  0  0  0  0  0  0  0  0  0  0
  1  2  1  0
  2  3  2  0
  3  4  1  0
  4  5  2  0
  5  6  1  0
  6  7  2  0
  7  8  1  0
  8  9  1  0
  9 10  1  0
 10 11  2  0
 11 12  1  0
 12 13  2  0
 13 14  1  0
 14 15  2  0
 15 16  1  0
 13 17  1  0
 12 18  1  0
 11 19  1  0
  9 20  1  0
  9 21  1  0
  8 22  1  0
 22 23  1  0
 23 24  1  0
 24 25  2  0
 25 26  1  0
 26 27  1  0
 27 28  2  0
 28 29  1  0
 25 30  1  0
 23 31  1  0
 23 32  1  0
 22 33  2  0
  5 34  1  0
 34 35  2  0
 35 36  1  0
 34 37  1  0
  4 38  1  0
  3 39  1  0
 35  2  1  0
 33  6  1  0
 15 10  1  0
 28 24  1  0
M  END
>  <cnnaffinity>  (1) 
-6.52913

>  <filename>  (1) 
Fc1ccc(-c2nc(Cc3cnsc3)n(Cc3cccnc3)n2)cc1

$$$$
