
     RDKit          3D

 45 48  0  0  0  0  0  0  0  0999 V2000
    7.4056    5.6781   26.6148 F   0  0  0  0  0  0  0  0  0  0  0  0
    7.8033    4.7612   25.7193 C   0  0  0  0  0  0  0  0  0  0  0  0
    7.8181    5.0796   24.3708 C   0  0  0  0  0  0  0  0  0  0  0  0
    8.2350    4.1107   23.4438 C   0  0  0  0  0  0  0  0  0  0  0  0
    8.6326    2.8307   23.8549 C   0  0  0  0  0  0  0  0  0  0  0  0
    9.0561    1.8317   23.0372 O   0  0  0  0  0  0  0  0  0  0  0  0
    9.0592    1.9882   21.6199 C   0  0  0  0  0  0  0  0  0  0  0  0
    9.4979    0.6494   21.0210 C   0  0  0  0  0  0  0  0  0  0  0  0
    8.6106   -0.4648   21.4507 C   0  0  0  0  0  0  0  0  0  0  0  0
    8.8319   -1.2876   22.4521 N   0  0  0  0  0  0  0  0  0  0  0  0
    7.6528   -1.9469   22.5779 C   0  0  0  0  0  0  0  0  0  0  0  0
    7.3934   -2.9183   23.6867 C   0  0  0  0  0  0  0  0  0  0  0  0
    8.5582   -3.9121   23.9147 C   0  0  0  0  0  0  0  0  0  0  0  0
    9.4131   -3.2447   25.0093 C   0  0  0  0  0  0  0  0  0  0  0  0
    8.6298   -2.2002   25.5584 O   0  0  0  0  0  0  0  0  0  0  0  0
    7.3145   -2.2004   25.0512 C   0  0  0  0  0  0  0  0  0  0  0  0
    6.6149   -2.7274   25.7252 H   0  0  0  0  0  0  0  0  0  0  0  0
    7.0043   -1.1487   24.9939 H   0  0  0  0  0  0  0  0  0  0  0  0
    9.7125   -3.9609   25.7919 H   0  0  0  0  0  0  0  0  0  0  0  0
   10.3277   -2.7941   24.6042 H   0  0  0  0  0  0  0  0  0  0  0  0
    8.1707   -4.8794   24.2526 H   0  0  0  0  0  0  0  0  0  0  0  0
    9.1430   -4.0928   23.0076 H   0  0  0  0  0  0  0  0  0  0  0  0
    6.4530   -3.4048   23.4379 H   0  0  0  0  0  0  0  0  0  0  0  0
    6.7310   -1.6113   21.7004 N   0  0  0  0  0  0  0  0  0  0  0  0
    7.3558   -0.6643   20.9442 N   0  0  0  0  0  0  0  0  0  0  0  0
    6.6580    0.0100   19.9015 C   0  0  0  0  0  0  0  0  0  0  0  0
    5.4390    0.6456   20.1653 C   0  0  0  0  0  0  0  0  0  0  0  0
    4.8128    1.3112   19.1082 C   0  0  0  0  0  0  0  0  0  0  0  0
    5.4006    1.2965   17.8367 C   0  0  0  0  0  0  0  0  0  0  0  0
    6.5586    0.6713   17.5746 N   0  0  0  0  0  0  0  0  0  0  0  0
    7.1674    0.0503   18.5911 C   0  0  0  0  0  0  0  0  0  0  0  0
    8.1119   -0.4380   18.3642 H   0  0  0  0  0  0  0  0  0  0  0  0
    4.9213    1.7871   16.9926 H   0  0  0  0  0  0  0  0  0  0  0  0
    3.8803    1.8397   19.2586 H   0  0  0  0  0  0  0  0  0  0  0  0
    5.0146    0.6080   21.1731 H   0  0  0  0  0  0  0  0  0  0  0  0
    9.5051    0.7364   19.9330 H   0  0  0  0  0  0  0  0  0  0  0  0
   10.5185    0.4123   21.3260 H   0  0  0  0  0  0  0  0  0  0  0  0
    8.0548    2.2567   21.2600 H   0  0  0  0  0  0  0  0  0  0  0  0
    9.7562    2.7839   21.3218 H   0  0  0  0  0  0  0  0  0  0  0  0
    8.5954    2.5616   25.2467 C   0  0  0  0  0  0  0  0  0  0  0  0
    8.9563    1.3487   25.7050 F   0  0  0  0  0  0  0  0  0  0  0  0
    8.1914    3.5066   26.1803 C   0  0  0  0  0  0  0  0  0  0  0  0
    8.1741    3.2647   27.2370 H   0  0  0  0  0  0  0  0  0  0  0  0
    8.2511    4.3592   22.3863 H   0  0  0  0  0  0  0  0  0  0  0  0
    7.5041    6.0688   24.0566 H   0  0  0  0  0  0  0  0  0  0  0  0
  1  2  1  0
  2  3  2  0
  3  4  1  0
  4  5  2  0
  5  6  1  0
  6  7  1  0
  7  8  1  0
  8  9  1  0
  9 10  2  0
 10 11  1  0
 11 12  1  0
 12 13  1  0
 13 14  1  0
 14 15  1  0
 15 16  1  0
 16 17  1  0
 16 18  1  0
 14 19  1  0
 14 20  1  0
 13 21  1  0
 13 22  1  0
 12 23  1  0
 11 24  2  0
 24 25  1  0
 25 26  1  0
 26 27  2  0
 27 28  1  0
 28 29  2  0
 29 30  1  0
 30 31  2  0
 31 32  1  0
 29 33  1  0
 28 34  1  0
 27 35  1  0
  8 36  1  0
  8 37  1  0
  7 38  1  0
  7 39  1  0
  5 40  1  0
 40 41  1  0
 40 42  2  0
 42 43  1  0
  4 44  1  0
  3 45  1  0
 42  2  1  0
 25  9  1  0
 31 26  1  0
 16 12  1  0
M  END
>  <cnnaffinity>  (1) 
-6.07186

>  <filename>  (1) 
Fc1ccc(OCCc2nc(C3CCOC3)nn2-c2cccnc2)c(F)c1

$$$$
