
     RDKit          3D

 36 39  0  0  0  0  0  0  0  0999 V2000
   12.2965   -0.2491   21.9023 F   0  0  0  0  0  0  0  0  0  0  0  0
   11.6045    0.7808   22.4145 C   0  0  0  0  0  0  0  0  0  0  0  0
   12.1543    1.4824   23.4910 C   0  0  0  0  0  0  0  0  0  0  0  0
   11.5463    2.5375   24.0436 N   0  0  0  0  0  0  0  0  0  0  0  0
   10.3597    2.9049   23.5440 C   0  0  0  0  0  0  0  0  0  0  0  0
    9.7423    2.2310   22.4789 C   0  0  0  0  0  0  0  0  0  0  0  0
    8.1837    2.7703   21.9440 Cl  0  0  0  0  0  0  0  0  0  0  0  0
   10.3575    1.1214   21.8784 C   0  0  0  0  0  0  0  0  0  0  0  0
    9.6662    0.2632   20.8362 C   0  0  0  0  0  0  0  0  0  0  0  0
    8.5775   -0.5892   21.4046 C   0  0  0  0  0  0  0  0  0  0  0  0
    8.7528   -1.4310   22.3992 N   0  0  0  0  0  0  0  0  0  0  0  0
    7.5440   -2.0357   22.5124 C   0  0  0  0  0  0  0  0  0  0  0  0
    7.3237   -3.0607   23.5163 C   0  0  0  0  0  0  0  0  0  0  0  0
    8.2942   -3.4984   24.3627 C   0  0  0  0  0  0  0  0  0  0  0  0
    7.7812   -4.4235   25.2021 O   0  0  0  0  0  0  0  0  0  0  0  0
    6.4607   -4.5816   24.9000 C   0  0  0  0  0  0  0  0  0  0  0  0
    6.1162   -3.7728   23.8700 C   0  0  0  0  0  0  0  0  0  0  0  0
    5.1521   -3.6334   23.4006 H   0  0  0  0  0  0  0  0  0  0  0  0
    5.9264   -5.2963   25.5105 H   0  0  0  0  0  0  0  0  0  0  0  0
    9.3438   -3.2626   24.5074 H   0  0  0  0  0  0  0  0  0  0  0  0
    6.6333   -1.6232   21.6540 N   0  0  0  0  0  0  0  0  0  0  0  0
    7.3007   -0.6985   20.9176 N   0  0  0  0  0  0  0  0  0  0  0  0
    6.6242   -0.0162   19.8660 C   0  0  0  0  0  0  0  0  0  0  0  0
    5.4083    0.6253   20.1253 C   0  0  0  0  0  0  0  0  0  0  0  0
    4.7887    1.3169   19.0835 C   0  0  0  0  0  0  0  0  0  0  0  0
    5.3865    1.3079   17.8169 C   0  0  0  0  0  0  0  0  0  0  0  0
    6.5222    0.6483   17.5451 N   0  0  0  0  0  0  0  0  0  0  0  0
    7.1284    0.0073   18.5505 C   0  0  0  0  0  0  0  0  0  0  0  0
    8.0602   -0.5067   18.3102 H   0  0  0  0  0  0  0  0  0  0  0  0
    4.9371    1.8512   16.9908 H   0  0  0  0  0  0  0  0  0  0  0  0
    3.8689    1.8662   19.2434 H   0  0  0  0  0  0  0  0  0  0  0  0
    4.9894    0.5640   21.1315 H   0  0  0  0  0  0  0  0  0  0  0  0
   10.3932   -0.4208   20.3945 H   0  0  0  0  0  0  0  0  0  0  0  0
    9.2640    0.8833   20.0363 H   0  0  0  0  0  0  0  0  0  0  0  0
    9.8775    3.7521   24.0187 H   0  0  0  0  0  0  0  0  0  0  0  0
   13.1073    1.1654   23.9033 H   0  0  0  0  0  0  0  0  0  0  0  0
  1  2  1  0
  2  3  2  0
  3  4  1  0
  4  5  2  0
  5  6  1  0
  6  7  1  0
  6  8  2  0
  8  9  1  0
  9 10  1  0
 10 11  2  0
 11 12  1  0
 12 13  1  0
 13 14  2  0
 14 15  1  0
 15 16  1  0
 16 17  2  0
 17 18  1  0
 16 19  1  0
 14 20  1  0
 12 21  2  0
 21 22  1  0
 22 23  1  0
 23 24  2  0
 24 25  1  0
 25 26  2  0
 26 27  1  0
 27 28  2  0
 28 29  1  0
 26 30  1  0
 25 31  1  0
 24 32  1  0
  9 33  1  0
  9 34  1  0
  5 35  1  0
  3 36  1  0
  8  2  1  0
 22 10  1  0
 28 23  1  0
 17 13  1  0
M  END
>  <cnnaffinity>  (1) 
-6.34483

>  <filename>  (1) 
Fc1cncc(Cl)c1Cc1nc(-c2ccoc2)nn1-c1cccnc1

$$$$
