
     RDKit          3D

 46 50  0  0  0  0  0  0  0  0999 V2000
   14.0359   -2.0812   21.5604 F   0  0  0  0  0  0  0  0  0  0  0  0
   13.3627   -0.9887   21.9491 C   0  0  0  0  0  0  0  0  0  0  0  0
   14.0378   -0.0114   22.6757 C   0  0  0  0  0  0  0  0  0  0  0  0
   13.3281    1.0996   23.1357 C   0  0  0  0  0  0  0  0  0  0  0  0
   11.9689    1.2298   22.8606 C   0  0  0  0  0  0  0  0  0  0  0  0
   11.2927    0.2303   22.1299 C   0  0  0  0  0  0  0  0  0  0  0  0
    9.8252    0.3549   21.9474 C   0  0  0  0  0  0  0  0  0  0  0  0
    9.0392   -0.5991   21.4750 N   0  0  0  0  0  0  0  0  0  0  0  0
    7.8031   -0.0619   21.6008 N   0  0  0  0  0  0  0  0  0  0  0  0
    6.6146   -0.7250   21.0791 C   0  0  0  0  0  0  0  0  0  0  0  0
    6.0921   -0.0480   19.8297 C   0  0  0  0  0  0  0  0  0  0  0  0
    4.8699    0.6294   19.7647 C   0  0  0  0  0  0  0  0  0  0  0  0
    4.5830    1.3800   18.6175 C   0  0  0  0  0  0  0  0  0  0  0  0
    5.5064    1.3866   17.5681 C   0  0  0  0  0  0  0  0  0  0  0  0
    6.6491    0.6819   17.5840 N   0  0  0  0  0  0  0  0  0  0  0  0
    6.9210   -0.0134   18.6944 C   0  0  0  0  0  0  0  0  0  0  0  0
    7.8583   -0.5733   18.6966 H   0  0  0  0  0  0  0  0  0  0  0  0
    5.3129    1.9659   16.6652 H   0  0  0  0  0  0  0  0  0  0  0  0
    3.6789    1.9734   18.5407 H   0  0  0  0  0  0  0  0  0  0  0  0
    4.1534    0.5682   20.5893 H   0  0  0  0  0  0  0  0  0  0  0  0
    5.8681   -0.7386   21.8798 H   0  0  0  0  0  0  0  0  0  0  0  0
    6.9123   -1.7568   20.8803 H   0  0  0  0  0  0  0  0  0  0  0  0
    7.8985    1.1831   22.1069 C   0  0  0  0  0  0  0  0  0  0  0  0
    6.7493    1.8865   22.7552 C   0  0  0  0  0  0  0  0  0  0  0  0
    6.5724    1.2449   24.1045 C   0  0  0  0  0  0  0  0  0  0  0  0
    5.4688    0.6319   24.4435 N   0  0  0  0  0  0  0  0  0  0  0  0
    5.7370    0.0046   25.6478 O   0  0  0  0  0  0  0  0  0  0  0  0
    7.0194    0.2269   25.9929 C   0  0  0  0  0  0  0  0  0  0  0  0
    7.5980   -0.5400   27.1148 C   0  0  0  0  0  0  0  0  0  0  0  0
    8.2391   -1.8862   26.8241 C   0  0  0  0  0  0  0  0  0  0  0  0
    9.0966   -0.7142   27.1796 C   0  0  0  0  0  0  0  0  0  0  0  0
    9.5752   -0.6861   28.1533 H   0  0  0  0  0  0  0  0  0  0  0  0
    9.6823   -0.2648   26.3760 H   0  0  0  0  0  0  0  0  0  0  0  0
    8.0880   -2.6753   27.5554 H   0  0  0  0  0  0  0  0  0  0  0  0
    8.2426   -2.2291   25.7912 H   0  0  0  0  0  0  0  0  0  0  0  0
    7.0581   -0.4464   28.0550 H   0  0  0  0  0  0  0  0  0  0  0  0
    7.5810    1.0609   25.0841 C   0  0  0  0  0  0  0  0  0  0  0  0
    8.5950    1.4229   25.0439 H   0  0  0  0  0  0  0  0  0  0  0  0
    7.0157    2.9386   22.8569 H   0  0  0  0  0  0  0  0  0  0  0  0
    5.8325    1.8141   22.1673 H   0  0  0  0  0  0  0  0  0  0  0  0
    9.1587    1.4810   22.3321 N   0  0  0  0  0  0  0  0  0  0  0  0
   12.0122   -0.8793   21.6373 C   0  0  0  0  0  0  0  0  0  0  0  0
   11.5573   -1.6477   21.0165 H   0  0  0  0  0  0  0  0  0  0  0  0
   11.4153    2.0954   23.2190 H   0  0  0  0  0  0  0  0  0  0  0  0
   13.8225    1.8731   23.7189 H   0  0  0  0  0  0  0  0  0  0  0  0
   15.0952   -0.1342   22.8424 H   0  0  0  0  0  0  0  0  0  0  0  0
  1  2  1  0
  2  3  2  0
  3  4  1  0
  4  5  2  0
  5  6  1  0
  6  7  1  0
  7  8  2  0
  8  9  1  0
  9 10  1  0
 10 11  1  0
 11 12  2  0
 12 13  1  0
 13 14  2  0
 14 15  1  0
 15 16  2  0
 16 17  1  0
 14 18  1  0
 13 19  1  0
 12 20  1  0
 10 21  1  0
 10 22  1  0
  9 23  1  0
 23 24  1  0
 24 25  1  0
 25 26  2  0
 26 27  1  0
 27 28  1  0
 28 29  1  0
 29 30  1  0
 30 31  1  0
 31 32  1  0
 31 33  1  0
 30 34  1  0
 30 35  1  0
 29 36  1  0
 28 37  2  0
 37 38  1  0
 24 39  1  0
 24 40  1  0
 23 41  2  0
  6 42  2  0
 42 43  1  0
  5 44  1  0
  4 45  1  0
  3 46  1  0
 42  2  1  0
 41  7  1  0
 16 11  1  0
 37 25  1  0
 31 29  1  0
M  END
>  <cnnaffinity>  (1) 
-6.56065

>  <filename>  (1) 
Fc1cccc(-c2nc(Cc3cc(C4CC4)on3)n(Cc3cccnc3)n2)c1

$$$$
