
     RDKit          3D

 50 53  0  0  0  0  0  0  0  0999 V2000
   12.2932    1.8867   24.8909 F   0  0  0  0  0  0  0  0  0  0  0  0
   11.1934    1.1158   24.8598 C   0  0  0  0  0  0  0  0  0  0  0  0
   11.3236   -0.2464   25.1278 C   0  0  0  0  0  0  0  0  0  0  0  0
   10.1959   -1.0778   25.0160 C   0  0  0  0  0  0  0  0  0  0  0  0
    8.9576   -0.5147   24.7190 C   0  0  0  0  0  0  0  0  0  0  0  0
    8.8515    0.8652   24.5163 C   0  0  0  0  0  0  0  0  0  0  0  0
    7.5547    1.3694   24.2338 N   0  0  0  0  0  0  0  0  0  0  0  0
    6.5707    1.3284   25.1677 N   0  0  0  0  0  0  0  0  0  0  0  0
    5.5298    1.7874   24.5037 C   0  0  0  0  0  0  0  0  0  0  0  0
    4.1923    1.9655   25.1604 C   0  0  0  0  0  0  0  0  0  0  0  0
    3.5511    0.6294   25.6093 C   0  0  0  0  0  0  0  0  0  0  0  0
    2.1019    0.8744   26.0587 C   0  0  0  0  0  0  0  0  0  0  0  0
    1.8972    2.1648   26.6209 O   0  0  0  0  0  0  0  0  0  0  0  0
    3.0054    2.7019   27.3165 C   0  0  0  0  0  0  0  0  0  0  0  0
    4.2371    2.9131   26.4009 C   0  0  0  0  0  0  0  0  0  0  0  0
    4.3040    3.9557   26.0665 H   0  0  0  0  0  0  0  0  0  0  0  0
    5.1367    2.7048   26.9988 H   0  0  0  0  0  0  0  0  0  0  0  0
    3.2913    2.0503   28.1603 H   0  0  0  0  0  0  0  0  0  0  0  0
    2.6533    3.6435   27.7438 H   0  0  0  0  0  0  0  0  0  0  0  0
    1.7994    0.0809   26.7632 H   0  0  0  0  0  0  0  0  0  0  0  0
    1.4195    0.8439   25.2014 H   0  0  0  0  0  0  0  0  0  0  0  0
    4.1340    0.2054   26.4424 H   0  0  0  0  0  0  0  0  0  0  0  0
    3.5604   -0.1198   24.8148 H   0  0  0  0  0  0  0  0  0  0  0  0
    3.5772    2.4148   24.3741 H   0  0  0  0  0  0  0  0  0  0  0  0
    5.7646    2.0606   23.1903 N   0  0  0  0  0  0  0  0  0  0  0  0
    7.0468    1.7668   23.0428 C   0  0  0  0  0  0  0  0  0  0  0  0
    7.8691    1.7723   21.7916 C   0  0  0  0  0  0  0  0  0  0  0  0
    8.4343    0.3929   21.3748 C   0  0  0  0  0  0  0  0  0  0  0  0
    7.3491   -0.6224   20.9583 C   0  0  0  0  0  0  0  0  0  0  0  0
    6.5414   -0.0930   19.7952 C   0  0  0  0  0  0  0  0  0  0  0  0
    5.3247    0.5775   19.9865 C   0  0  0  0  0  0  0  0  0  0  0  0
    4.7700    1.2930   18.9203 C   0  0  0  0  0  0  0  0  0  0  0  0
    5.4322    1.2817   17.6879 C   0  0  0  0  0  0  0  0  0  0  0  0
    6.5670    0.6036   17.4636 N   0  0  0  0  0  0  0  0  0  0  0  0
    7.0973   -0.0554   18.5019 C   0  0  0  0  0  0  0  0  0  0  0  0
    8.0412   -0.5680   18.3063 H   0  0  0  0  0  0  0  0  0  0  0  0
    5.0324    1.8394   16.8436 H   0  0  0  0  0  0  0  0  0  0  0  0
    3.8633    1.8776   19.0336 H   0  0  0  0  0  0  0  0  0  0  0  0
    4.8653    0.6042   20.9788 H   0  0  0  0  0  0  0  0  0  0  0  0
    7.8211   -1.5781   20.6969 H   0  0  0  0  0  0  0  0  0  0  0  0
    6.6866   -0.8301   21.8097 H   0  0  0  0  0  0  0  0  0  0  0  0
    9.0496   -0.0406   22.1721 H   0  0  0  0  0  0  0  0  0  0  0  0
    9.1136    0.5487   20.5286 H   0  0  0  0  0  0  0  0  0  0  0  0
    8.6879    2.4875   21.9227 H   0  0  0  0  0  0  0  0  0  0  0  0
    7.2385    2.1669   20.9885 H   0  0  0  0  0  0  0  0  0  0  0  0
    9.9715    1.7040   24.5430 C   0  0  0  0  0  0  0  0  0  0  0  0
    9.9082    2.7678   24.3220 H   0  0  0  0  0  0  0  0  0  0  0  0
    8.0653   -1.1268   24.6143 H   0  0  0  0  0  0  0  0  0  0  0  0
   10.2481   -2.1611   25.1318 H   0  0  0  0  0  0  0  0  0  0  0  0
   12.2991   -0.6121   25.4198 H   0  0  0  0  0  0  0  0  0  0  0  0
  1  2  1  0
  2  3  2  0
  3  4  1  0
  4  5  2  0
  5  6  1  0
  6  7  1  0
  7  8  1  0
  8  9  2  0
  9 10  1  0
 10 11  1  0
 11 12  1  0
 12 13  1  0
 13 14  1  0
 14 15  1  0
 15 16  1  0
 15 17  1  0
 14 18  1  0
 14 19  1  0
 12 20  1  0
 12 21  1  0
 11 22  1  0
 11 23  1  0
 10 24  1  0
  9 25  1  0
 25 26  2  0
 26 27  1  0
 27 28  1  0
 28 29  1  0
 29 30  1  0
 30 31  2  0
 31 32  1  0
 32 33  2  0
 33 34  1  0
 34 35  2  0
 35 36  1  0
 33 37  1  0
 32 38  1  0
 31 39  1  0
 29 40  1  0
 29 41  1  0
 28 42  1  0
 28 43  1  0
 27 44  1  0
 27 45  1  0
  6 46  2  0
 46 47  1  0
  5 48  1  0
  4 49  1  0
  3 50  1  0
 46  2  1  0
 26  7  1  0
 35 30  1  0
 15 10  1  0
M  END
>  <cnnaffinity>  (1) 
-6.2597

>  <filename>  (1) 
Fc1cccc(-n2nc(C3CCOCC3)nc2CCCc2cccnc2)c1

$$$$
