
     RDKit          3D

 41 44  0  0  0  0  0  0  0  0999 V2000
    5.4021    0.5101   26.6639 F   0  0  0  0  0  0  0  0  0  0  0  0
    5.4803    1.1803   25.5109 C   0  0  0  0  0  0  0  0  0  0  0  0
    6.5453    0.9287   24.6544 C   0  0  0  0  0  0  0  0  0  0  0  0
    6.6557    1.6278   23.4442 C   0  0  0  0  0  0  0  0  0  0  0  0
    7.8220    1.3390   22.5096 C   0  0  0  0  0  0  0  0  0  0  0  0
    7.8676   -0.0936   22.0825 C   0  0  0  0  0  0  0  0  0  0  0  0
    8.4414   -1.0525   22.7817 N   0  0  0  0  0  0  0  0  0  0  0  0
    8.2275   -2.1601   22.0322 C   0  0  0  0  0  0  0  0  0  0  0  0
    8.8036   -3.4732   22.4369 C   0  0  0  0  0  0  0  0  0  0  0  0
    8.8398   -3.8068   23.9501 C   0  0  0  0  0  0  0  0  0  0  0  0
    8.7146   -5.3487   23.9698 C   0  0  0  0  0  0  0  0  0  0  0  0
    8.5536   -5.7780   22.6258 O   0  0  0  0  0  0  0  0  0  0  0  0
    8.0990   -4.6973   21.8425 C   0  0  0  0  0  0  0  0  0  0  0  0
    7.0064   -4.5661   21.9186 H   0  0  0  0  0  0  0  0  0  0  0  0
    8.3695   -4.9277   20.8055 H   0  0  0  0  0  0  0  0  0  0  0  0
    7.8562   -5.6764   24.5784 H   0  0  0  0  0  0  0  0  0  0  0  0
    9.6147   -5.8387   24.3543 H   0  0  0  0  0  0  0  0  0  0  0  0
    9.7508   -3.4450   24.4434 H   0  0  0  0  0  0  0  0  0  0  0  0
    8.0068   -3.3420   24.4835 H   0  0  0  0  0  0  0  0  0  0  0  0
    9.8345   -3.4173   22.0950 H   0  0  0  0  0  0  0  0  0  0  0  0
    7.5979   -1.9436   20.8899 N   0  0  0  0  0  0  0  0  0  0  0  0
    7.3388   -0.6100   20.9393 N   0  0  0  0  0  0  0  0  0  0  0  0
    6.6271    0.0303   19.8823 C   0  0  0  0  0  0  0  0  0  0  0  0
    5.4257    0.6993   20.1290 C   0  0  0  0  0  0  0  0  0  0  0  0
    4.7930    1.3407   19.0576 C   0  0  0  0  0  0  0  0  0  0  0  0
    5.4011    1.3029   17.7986 C   0  0  0  0  0  0  0  0  0  0  0  0
    6.5393    0.6293   17.5501 N   0  0  0  0  0  0  0  0  0  0  0  0
    7.1288   -0.0064   18.5699 C   0  0  0  0  0  0  0  0  0  0  0  0
    8.0505   -0.5443   18.3520 H   0  0  0  0  0  0  0  0  0  0  0  0
    4.9673    1.8423   16.9582 H   0  0  0  0  0  0  0  0  0  0  0  0
    3.8563    1.8720   19.1911 H   0  0  0  0  0  0  0  0  0  0  0  0
    5.0036    0.6896   21.1338 H   0  0  0  0  0  0  0  0  0  0  0  0
    8.7709    1.5238   23.0238 H   0  0  0  0  0  0  0  0  0  0  0  0
    7.7996    2.0014   21.6390 H   0  0  0  0  0  0  0  0  0  0  0  0
    5.6592    2.5416   23.0951 C   0  0  0  0  0  0  0  0  0  0  0  0
    4.5842    2.7932   23.9557 C   0  0  0  0  0  0  0  0  0  0  0  0
    4.4950    2.1173   25.1755 C   0  0  0  0  0  0  0  0  0  0  0  0
    3.1648    2.4231   26.2393 Cl  0  0  0  0  0  0  0  0  0  0  0  0
    3.8123    3.5104   23.6976 H   0  0  0  0  0  0  0  0  0  0  0  0
    5.7165    3.0338   22.1263 H   0  0  0  0  0  0  0  0  0  0  0  0
    7.2556    0.1522   24.9236 H   0  0  0  0  0  0  0  0  0  0  0  0
  1  2  1  0
  2  3  2  0
  3  4  1  0
  4  5  1  0
  5  6  1  0
  6  7  2  0
  7  8  1  0
  8  9  1  0
  9 10  1  0
 10 11  1  0
 11 12  1  0
 12 13  1  0
 13 14  1  0
 13 15  1  0
 11 16  1  0
 11 17  1  0
 10 18  1  0
 10 19  1  0
  9 20  1  0
  8 21  2  0
 21 22  1  0
 22 23  1  0
 23 24  2  0
 24 25  1  0
 25 26  2  0
 26 27  1  0
 27 28  2  0
 28 29  1  0
 26 30  1  0
 25 31  1  0
 24 32  1  0
  5 33  1  0
  5 34  1  0
  4 35  2  0
 35 36  1  0
 36 37  2  0
 37 38  1  0
 36 39  1  0
 35 40  1  0
  3 41  1  0
 37  2  1  0
 22  6  1  0
 28 23  1  0
 13  9  1  0
M  END
>  <cnnaffinity>  (1) 
-6.0694

>  <filename>  (1) 
Fc1cc(Cc2nc(C3CCOC3)nn2-c2cccnc2)ccc1Cl

$$$$
