
     RDKit          3D

 43 46  0  0  0  0  0  0  0  0999 V2000
    6.4971    1.4985   25.6201 F   0  0  0  0  0  0  0  0  0  0  0  0
    7.6561    1.7479   24.9855 C   0  0  0  0  0  0  0  0  0  0  0  0
    8.8287    1.9335   25.7246 C   0  0  0  0  0  0  0  0  0  0  0  0
   10.0154    2.1544   25.1425 N   0  0  0  0  0  0  0  0  0  0  0  0
   10.0496    2.1910   23.8026 C   0  0  0  0  0  0  0  0  0  0  0  0
    8.9212    2.0420   22.9767 C   0  0  0  0  0  0  0  0  0  0  0  0
    9.0432    2.0121   21.4708 C   0  0  0  0  0  0  0  0  0  0  0  0
    9.5142    0.6273   20.9555 C   0  0  0  0  0  0  0  0  0  0  0  0
    8.6269   -0.4903   21.4125 C   0  0  0  0  0  0  0  0  0  0  0  0
    8.8386   -1.2878   22.4410 N   0  0  0  0  0  0  0  0  0  0  0  0
    7.6391   -1.9138   22.5954 C   0  0  0  0  0  0  0  0  0  0  0  0
    7.4025   -2.8508   23.7274 C   0  0  0  0  0  0  0  0  0  0  0  0
    8.4773   -3.9351   23.9186 C   0  0  0  0  0  0  0  0  0  0  0  0
    8.4253   -4.2194   25.4218 C   0  0  0  0  0  0  0  0  0  0  0  0
    7.8006   -3.1020   26.0336 O   0  0  0  0  0  0  0  0  0  0  0  0
    7.4068   -2.1329   25.0870 C   0  0  0  0  0  0  0  0  0  0  0  0
    8.1137   -1.2846   25.1002 H   0  0  0  0  0  0  0  0  0  0  0  0
    6.4137   -1.7533   25.3726 H   0  0  0  0  0  0  0  0  0  0  0  0
    9.4286   -4.3602   25.8518 H   0  0  0  0  0  0  0  0  0  0  0  0
    7.8323   -5.1175   25.6511 H   0  0  0  0  0  0  0  0  0  0  0  0
    9.4619   -3.5465   23.6331 H   0  0  0  0  0  0  0  0  0  0  0  0
    8.2766   -4.8322   23.3267 H   0  0  0  0  0  0  0  0  0  0  0  0
    6.4241   -3.3102   23.5711 H   0  0  0  0  0  0  0  0  0  0  0  0
    6.7179   -1.5765   21.7245 N   0  0  0  0  0  0  0  0  0  0  0  0
    7.3586   -0.6693   20.9379 N   0  0  0  0  0  0  0  0  0  0  0  0
    6.6600    0.0066   19.9002 C   0  0  0  0  0  0  0  0  0  0  0  0
    5.4426    0.6459   20.1642 C   0  0  0  0  0  0  0  0  0  0  0  0
    4.8117    1.3117   19.1096 C   0  0  0  0  0  0  0  0  0  0  0  0
    5.4018    1.2953   17.8385 C   0  0  0  0  0  0  0  0  0  0  0  0
    6.5617    0.6747   17.5791 N   0  0  0  0  0  0  0  0  0  0  0  0
    7.1716    0.0544   18.5931 C   0  0  0  0  0  0  0  0  0  0  0  0
    8.1167   -0.4344   18.3717 H   0  0  0  0  0  0  0  0  0  0  0  0
    4.9155    1.7824   16.9948 H   0  0  0  0  0  0  0  0  0  0  0  0
    3.8773    1.8411   19.2636 H   0  0  0  0  0  0  0  0  0  0  0  0
    5.0132    0.6106   21.1694 H   0  0  0  0  0  0  0  0  0  0  0  0
   10.5203    0.4148   21.3246 H   0  0  0  0  0  0  0  0  0  0  0  0
    9.5727    0.6424   19.8633 H   0  0  0  0  0  0  0  0  0  0  0  0
    8.0766    2.2555   21.0122 H   0  0  0  0  0  0  0  0  0  0  0  0
    9.7493    2.7767   21.1286 H   0  0  0  0  0  0  0  0  0  0  0  0
    7.6863    1.7931   23.5992 C   0  0  0  0  0  0  0  0  0  0  0  0
    6.7821    1.6059   23.0227 H   0  0  0  0  0  0  0  0  0  0  0  0
   11.0253    2.3636   23.3562 H   0  0  0  0  0  0  0  0  0  0  0  0
    8.7944    1.9029   26.8089 H   0  0  0  0  0  0  0  0  0  0  0  0
  1  2  1  0
  2  3  2  0
  3  4  1  0
  4  5  2  0
  5  6  1  0
  6  7  1  0
  7  8  1  0
  8  9  1  0
  9 10  2  0
 10 11  1  0
 11 12  1  0
 12 13  1  0
 13 14  1  0
 14 15  1  0
 15 16  1  0
 16 17  1  0
 16 18  1  0
 14 19  1  0
 14 20  1  0
 13 21  1  0
 13 22  1  0
 12 23  1  0
 11 24  2  0
 24 25  1  0
 25 26  1  0
 26 27  2  0
 27 28  1  0
 28 29  2  0
 29 30  1  0
 30 31  2  0
 31 32  1  0
 29 33  1  0
 28 34  1  0
 27 35  1  0
  8 36  1  0
  8 37  1  0
  7 38  1  0
  7 39  1  0
  6 40  2  0
 40 41  1  0
  5 42  1  0
  3 43  1  0
 40  2  1  0
 25  9  1  0
 31 26  1  0
 16 12  1  0
M  END
>  <cnnaffinity>  (1) 
-6.0054

>  <filename>  (1) 
Fc1cncc(CCc2nc(C3CCOC3)nn2-c2cccnc2)c1

$$$$
