
     RDKit          3D

 43 46  0  0  0  0  0  0  0  0999 V2000
   13.7190    1.8798   23.8262 F   0  0  0  0  0  0  0  0  0  0  0  0
   13.1712    0.9229   23.0734 C   0  0  0  0  0  0  0  0  0  0  0  0
   13.9927   -0.0592   22.5404 C   0  0  0  0  0  0  0  0  0  0  0  0
   13.3855   -1.0713   21.8057 C   0  0  0  0  0  0  0  0  0  0  0  0
   14.1628   -2.0435   21.3114 F   0  0  0  0  0  0  0  0  0  0  0  0
   12.0122   -1.1098   21.5649 C   0  0  0  0  0  0  0  0  0  0  0  0
   11.2020   -0.0823   22.1051 C   0  0  0  0  0  0  0  0  0  0  0  0
    9.7177   -0.0234   21.9601 C   0  0  0  0  0  0  0  0  0  0  0  0
    8.9591   -0.8978   21.3200 N   0  0  0  0  0  0  0  0  0  0  0  0
    7.7033   -0.4394   21.5449 N   0  0  0  0  0  0  0  0  0  0  0  0
    6.5641   -1.0548   20.8653 C   0  0  0  0  0  0  0  0  0  0  0  0
    6.0824   -0.2178   19.6979 C   0  0  0  0  0  0  0  0  0  0  0  0
    4.8813    0.4994   19.6903 C   0  0  0  0  0  0  0  0  0  0  0  0
    4.6224    1.3540   18.6141 C   0  0  0  0  0  0  0  0  0  0  0  0
    5.5623    1.4485   17.5846 C   0  0  0  0  0  0  0  0  0  0  0  0
    6.7043    0.7442   17.5583 N   0  0  0  0  0  0  0  0  0  0  0  0
    6.9477   -0.0555   18.6020 C   0  0  0  0  0  0  0  0  0  0  0  0
    7.8980   -0.5916   18.5941 H   0  0  0  0  0  0  0  0  0  0  0  0
    5.3924    2.1109   16.7372 H   0  0  0  0  0  0  0  0  0  0  0  0
    3.7360    1.9769   18.5834 H   0  0  0  0  0  0  0  0  0  0  0  0
    4.1642    0.4078   20.5106 H   0  0  0  0  0  0  0  0  0  0  0  0
    5.7701   -1.2204   21.6016 H   0  0  0  0  0  0  0  0  0  0  0  0
    6.9175   -2.0353   20.5323 H   0  0  0  0  0  0  0  0  0  0  0  0
    7.7536    0.6888   22.2888 C   0  0  0  0  0  0  0  0  0  0  0  0
    6.6152    1.4336   22.9315 C   0  0  0  0  0  0  0  0  0  0  0  0
    6.5657    1.1921   24.4714 C   0  0  0  0  0  0  0  0  0  0  0  0
    5.5679    1.9756   25.2804 C   0  0  0  0  0  0  0  0  0  0  0  0
    4.2664    1.6605   25.5592 C   0  0  0  0  0  0  0  0  0  0  0  0
    3.8082    2.6579   26.3938 N   0  0  0  0  0  0  0  0  0  0  0  0
    4.8450    3.5128   26.5964 C   0  0  0  0  0  0  0  0  0  0  0  0
    5.9116    3.1314   25.9449 N   0  0  0  0  0  0  0  0  0  0  0  0
    4.7661    4.3876   27.2326 H   0  0  0  0  0  0  0  0  0  0  0  0
    2.9118    2.7186   26.8465 H   0  0  0  0  0  0  0  0  0  0  0  0
    3.6573    0.8322   25.2308 H   0  0  0  0  0  0  0  0  0  0  0  0
    7.5562    1.4225   24.8808 H   0  0  0  0  0  0  0  0  0  0  0  0
    6.3985    0.1230   24.6535 H   0  0  0  0  0  0  0  0  0  0  0  0
    5.6691    1.1636   22.4540 H   0  0  0  0  0  0  0  0  0  0  0  0
    6.7858    2.4995   22.7488 H   0  0  0  0  0  0  0  0  0  0  0  0
    9.0104    0.9788   22.5529 N   0  0  0  0  0  0  0  0  0  0  0  0
   11.8035    0.9468   22.8585 C   0  0  0  0  0  0  0  0  0  0  0  0
   11.1929    1.7255   23.3130 H   0  0  0  0  0  0  0  0  0  0  0  0
   11.6245   -1.9388   20.9778 H   0  0  0  0  0  0  0  0  0  0  0  0
   15.0617   -0.0122   22.6775 H   0  0  0  0  0  0  0  0  0  0  0  0
  1  2  1  0
  2  3  2  0
  3  4  1  0
  4  5  1  0
  4  6  2  0
  6  7  1  0
  7  8  1  0
  8  9  2  0
  9 10  1  0
 10 11  1  0
 11 12  1  0
 12 13  2  0
 13 14  1  0
 14 15  2  0
 15 16  1  0
 16 17  2  0
 17 18  1  0
 15 19  1  0
 14 20  1  0
 13 21  1  0
 11 22  1  0
 11 23  1  0
 10 24  1  0
 24 25  1  0
 25 26  1  0
 26 27  1  0
 27 28  2  0
 28 29  1  0
 29 30  1  0
 30 31  2  0
 30 32  1  0
 29 33  1  0
 28 34  1  0
 26 35  1  0
 26 36  1  0
 25 37  1  0
 25 38  1  0
 24 39  2  0
  7 40  2  0
 40 41  1  0
  6 42  1  0
  3 43  1  0
 40  2  1  0
 39  8  1  0
 17 12  1  0
 31 27  1  0
M  END
>  <cnnaffinity>  (1) 
-6.37203

>  <filename>  (1) 
Fc1cc(F)cc(-c2nc(CCc3c[nH]cn3)n(Cc3cccnc3)n2)c1

$$$$
