
     RDKit          3D

 48 51  0  0  0  0  0  0  0  0999 V2000
    9.0311    5.7311   25.0691 F   0  0  0  0  0  0  0  0  0  0  0  0
    8.2316    5.1834   24.1430 C   0  0  0  0  0  0  0  0  0  0  0  0
    6.9923    5.7593   23.9134 C   0  0  0  0  0  0  0  0  0  0  0  0
    6.1747    5.1737   22.9419 C   0  0  0  0  0  0  0  0  0  0  0  0
    6.6103    4.0529   22.2451 C   0  0  0  0  0  0  0  0  0  0  0  0
    5.7818    3.5241   21.3243 F   0  0  0  0  0  0  0  0  0  0  0  0
    7.8756    3.4623   22.4820 C   0  0  0  0  0  0  0  0  0  0  0  0
    8.2015    2.3539   21.7641 O   0  0  0  0  0  0  0  0  0  0  0  0
    9.4903    1.7580   21.9060 C   0  0  0  0  0  0  0  0  0  0  0  0
    9.5463    0.5463   20.9787 C   0  0  0  0  0  0  0  0  0  0  0  0
    8.6069   -0.5181   21.4013 C   0  0  0  0  0  0  0  0  0  0  0  0
    8.8494   -1.3762   22.3758 N   0  0  0  0  0  0  0  0  0  0  0  0
    7.6682   -2.0280   22.5048 C   0  0  0  0  0  0  0  0  0  0  0  0
    7.4155   -3.0930   23.5458 C   0  0  0  0  0  0  0  0  0  0  0  0
    6.2067   -2.7442   24.4784 C   0  0  0  0  0  0  0  0  0  0  0  0
    4.9398   -3.4746   24.0315 C   0  0  0  0  0  0  0  0  0  0  0  0
    5.0893   -4.8891   24.0637 O   0  0  0  0  0  0  0  0  0  0  0  0
    6.3854   -5.4113   23.7873 C   0  0  0  0  0  0  0  0  0  0  0  0
    7.2125   -4.4940   22.8881 C   0  0  0  0  0  0  0  0  0  0  0  0
    8.1785   -4.9597   22.6716 H   0  0  0  0  0  0  0  0  0  0  0  0
    6.6846   -4.3822   21.9323 H   0  0  0  0  0  0  0  0  0  0  0  0
    6.9178   -5.5854   24.7365 H   0  0  0  0  0  0  0  0  0  0  0  0
    6.2238   -6.3866   23.3187 H   0  0  0  0  0  0  0  0  0  0  0  0
    4.0968   -3.2439   24.6895 H   0  0  0  0  0  0  0  0  0  0  0  0
    4.6770   -3.1538   23.0110 H   0  0  0  0  0  0  0  0  0  0  0  0
    6.4300   -3.0421   25.5101 H   0  0  0  0  0  0  0  0  0  0  0  0
    6.0199   -1.6660   24.5047 H   0  0  0  0  0  0  0  0  0  0  0  0
    8.3220   -3.1130   24.1522 H   0  0  0  0  0  0  0  0  0  0  0  0
    6.7265   -1.6442   21.6601 N   0  0  0  0  0  0  0  0  0  0  0  0
    7.3434   -0.6798   20.9294 N   0  0  0  0  0  0  0  0  0  0  0  0
    6.6507   -0.0000   19.8943 C   0  0  0  0  0  0  0  0  0  0  0  0
    5.4342    0.6301   20.1625 C   0  0  0  0  0  0  0  0  0  0  0  0
    4.8115    1.3007   19.1069 C   0  0  0  0  0  0  0  0  0  0  0  0
    5.3975    1.2918   17.8344 C   0  0  0  0  0  0  0  0  0  0  0  0
    6.5538    0.6667   17.5698 N   0  0  0  0  0  0  0  0  0  0  0  0
    7.1641    0.0480   18.5861 C   0  0  0  0  0  0  0  0  0  0  0  0
    8.1107   -0.4338   18.3581 H   0  0  0  0  0  0  0  0  0  0  0  0
    4.9197    1.7891   16.9946 H   0  0  0  0  0  0  0  0  0  0  0  0
    3.8904    1.8435   19.2652 H   0  0  0  0  0  0  0  0  0  0  0  0
    5.0240    0.6284   21.1767 H   0  0  0  0  0  0  0  0  0  0  0  0
   10.5462    0.1128   21.0121 H   0  0  0  0  0  0  0  0  0  0  0  0
    9.3505    0.8469   19.9521 H   0  0  0  0  0  0  0  0  0  0  0  0
   10.2845    2.4702   21.6442 H   0  0  0  0  0  0  0  0  0  0  0  0
    9.6364    1.4222   22.9407 H   0  0  0  0  0  0  0  0  0  0  0  0
    8.6934    4.0561   23.4574 C   0  0  0  0  0  0  0  0  0  0  0  0
    9.6771    3.6676   23.6917 H   0  0  0  0  0  0  0  0  0  0  0  0
    5.1954    5.5789   22.7102 H   0  0  0  0  0  0  0  0  0  0  0  0
    6.6863    6.6380   24.4772 H   0  0  0  0  0  0  0  0  0  0  0  0
  1  2  1  0
  2  3  2  0
  3  4  1  0
  4  5  2  0
  5  6  1  0
  5  7  1  0
  7  8  1  0
  8  9  1  0
  9 10  1  0
 10 11  1  0
 11 12  2  0
 12 13  1  0
 13 14  1  0
 14 15  1  0
 15 16  1  0
 16 17  1  0
 17 18  1  0
 18 19  1  0
 19 20  1  0
 19 21  1  0
 18 22  1  0
 18 23  1  0
 16 24  1  0
 16 25  1  0
 15 26  1  0
 15 27  1  0
 14 28  1  0
 13 29  2  0
 29 30  1  0
 30 31  1  0
 31 32  2  0
 32 33  1  0
 33 34  2  0
 34 35  1  0
 35 36  2  0
 36 37  1  0
 34 38  1  0
 33 39  1  0
 32 40  1  0
 10 41  1  0
 10 42  1  0
  9 43  1  0
  9 44  1  0
  7 45  2  0
 45 46  1  0
  4 47  1  0
  3 48  1  0
 45  2  1  0
 30 11  1  0
 36 31  1  0
 19 14  1  0
M  END
>  <cnnaffinity>  (1) 
-6.09459

>  <filename>  (1) 
Fc1ccc(F)c(OCCc2nc(C3CCOCC3)nn2-c2cccnc2)c1

$$$$
