
     RDKit          3D

 33 35  0  0  0  0  0  0  0  0999 V2000
    4.9152    1.7877   16.9940 H   0  0  0  0  0  0  0  0  0  0  0  0
    5.3960    1.2970   17.8371 C   0  0  0  0  0  0  0  0  0  0  0  0
    6.5594    0.6814   17.5711 N   0  0  0  0  0  0  0  0  0  0  0  0
    7.1714    0.0588   18.5894 C   0  0  0  0  0  0  0  0  0  0  0  0
    8.1204   -0.4285   18.3735 H   0  0  0  0  0  0  0  0  0  0  0  0
    6.6623   -0.0155   19.9102 C   0  0  0  0  0  0  0  0  0  0  0  0
    7.3264   -0.7159   20.9237 N   0  0  0  0  0  0  0  0  0  0  0  0
    6.7677   -1.1226   21.6617 H   0  0  0  0  0  0  0  0  0  0  0  0
    8.7087   -0.6939   21.1434 C   0  0  0  0  0  0  0  0  0  0  0  0
    9.6825    0.2124   20.6646 C   0  0  0  0  0  0  0  0  0  0  0  0
    9.5117    1.0347   19.9927 H   0  0  0  0  0  0  0  0  0  0  0  0
   10.8966   -0.0594   21.1282 N   0  0  0  0  0  0  0  0  0  0  0  0
   10.7050   -1.1435   21.8942 N   0  0  0  0  0  0  0  0  0  0  0  0
   11.5021   -1.5276   22.3766 H   0  0  0  0  0  0  0  0  0  0  0  0
    9.4169   -1.5757   21.9362 C   0  0  0  0  0  0  0  0  0  0  0  0
    8.9363   -2.6722   22.8247 C   0  0  0  0  0  0  0  0  0  0  0  0
    8.0866   -3.1593   22.3335 H   0  0  0  0  0  0  0  0  0  0  0  0
    9.7154   -3.4391   22.9280 H   0  0  0  0  0  0  0  0  0  0  0  0
    8.5270   -2.1390   24.1865 C   0  0  0  0  0  0  0  0  0  0  0  0
    7.1825   -1.9360   24.5167 C   0  0  0  0  0  0  0  0  0  0  0  0
    6.4018   -2.1949   23.8031 H   0  0  0  0  0  0  0  0  0  0  0  0
    6.8197   -1.4189   25.7629 C   0  0  0  0  0  0  0  0  0  0  0  0
    5.7819   -1.2734   26.0459 H   0  0  0  0  0  0  0  0  0  0  0  0
    7.8290   -1.0901   26.6642 C   0  0  0  0  0  0  0  0  0  0  0  0
    7.4839   -0.5827   27.8564 F   0  0  0  0  0  0  0  0  0  0  0  0
    9.1799   -1.2579   26.3673 C   0  0  0  0  0  0  0  0  0  0  0  0
    9.9302   -0.9838   27.1031 H   0  0  0  0  0  0  0  0  0  0  0  0
    9.5140   -1.7800   25.1156 C   0  0  0  0  0  0  0  0  0  0  0  0
   10.5598   -1.9101   24.8470 H   0  0  0  0  0  0  0  0  0  0  0  0
    5.4408    0.6292   20.1632 C   0  0  0  0  0  0  0  0  0  0  0  0
    5.0198    0.6229   21.1691 H   0  0  0  0  0  0  0  0  0  0  0  0
    4.8124    1.3043   19.1085 C   0  0  0  0  0  0  0  0  0  0  0  0
    3.8838    1.8363   19.2637 H   0  0  0  0  0  0  0  0  0  0  0  0
  1  2  1  0
  2  3  2  0
  3  4  1  0
  4  5  1  0
  4  6  2  0
  6  7  1  0
  7  8  1  0
  7  9  1  0
  9 10  1  0
 10 11  1  0
 10 12  2  0
 12 13  1  0
 13 14  1  0
 13 15  1  0
 15 16  1  0
 16 17  1  0
 16 18  1  0
 16 19  1  0
 19 20  2  0
 20 21  1  0
 20 22  1  0
 22 23  1  0
 22 24  2  0
 24 25  1  0
 24 26  1  0
 26 27  1  0
 26 28  2  0
 28 29  1  0
  6 30  1  0
 30 31  1  0
 30 32  2  0
 32 33  1  0
 32  2  1  0
 15  9  2  0
 28 19  1  0
M  END
>  <cnnaffinity>  (1) 
-5.61466

>  <filename>  (1) 
Fc1ccc(Cc2[nH]ncc2Nc2cccnc2)cc1

$$$$
