
     RDKit          3D

 42 45  0  0  0  0  0  0  0  0999 V2000
    3.2981    2.5042   23.6908 F   0  0  0  0  0  0  0  0  0  0  0  0
    4.6261    2.4639   23.4989 C   0  0  0  0  0  0  0  0  0  0  0  0
    5.3521    1.3595   23.9448 C   0  0  0  0  0  0  0  0  0  0  0  0
    6.7382    1.3606   23.7678 C   0  0  0  0  0  0  0  0  0  0  0  0
    7.3704    2.4425   23.1382 C   0  0  0  0  0  0  0  0  0  0  0  0
    9.1238    2.4510   22.8668 S   0  0  0  0  0  0  0  0  0  0  0  0
    9.1504    1.9971   21.1042 C   0  0  0  0  0  0  0  0  0  0  0  0
    9.5831    0.5397   20.8758 C   0  0  0  0  0  0  0  0  0  0  0  0
    8.6523   -0.4863   21.4285 C   0  0  0  0  0  0  0  0  0  0  0  0
    8.8803   -1.3170   22.4300 N   0  0  0  0  0  0  0  0  0  0  0  0
    7.6931   -1.9546   22.5730 C   0  0  0  0  0  0  0  0  0  0  0  0
    7.4556   -2.9741   23.6385 C   0  0  0  0  0  0  0  0  0  0  0  0
    6.2240   -2.6919   24.5432 C   0  0  0  0  0  0  0  0  0  0  0  0
    5.4100   -4.2392   24.0209 S   0  0  0  0  0  0  0  0  0  0  0  0
    6.9813   -4.3510   23.0989 C   0  0  0  0  0  0  0  0  0  0  0  0
    6.8338   -4.3820   22.0144 H   0  0  0  0  0  0  0  0  0  0  0  0
    7.6027   -5.1959   23.4091 H   0  0  0  0  0  0  0  0  0  0  0  0
    6.4366   -2.6504   25.6155 H   0  0  0  0  0  0  0  0  0  0  0  0
    5.6606   -1.7966   24.2646 H   0  0  0  0  0  0  0  0  0  0  0  0
    8.3803   -3.0382   24.2088 H   0  0  0  0  0  0  0  0  0  0  0  0
    6.7622   -1.6023   21.7089 N   0  0  0  0  0  0  0  0  0  0  0  0
    7.3834   -0.6637   20.9457 N   0  0  0  0  0  0  0  0  0  0  0  0
    6.6668    0.0114   19.9114 C   0  0  0  0  0  0  0  0  0  0  0  0
    5.4494    0.6467   20.1727 C   0  0  0  0  0  0  0  0  0  0  0  0
    4.8161    1.3099   19.1146 C   0  0  0  0  0  0  0  0  0  0  0  0
    5.4005    1.2958   17.8408 C   0  0  0  0  0  0  0  0  0  0  0  0
    6.5592    0.6731   17.5807 N   0  0  0  0  0  0  0  0  0  0  0  0
    7.1681    0.0549   18.5978 C   0  0  0  0  0  0  0  0  0  0  0  0
    8.1089   -0.4375   18.3690 H   0  0  0  0  0  0  0  0  0  0  0  0
    4.9202    1.7858   16.9962 H   0  0  0  0  0  0  0  0  0  0  0  0
    3.8809    1.8371   19.2606 H   0  0  0  0  0  0  0  0  0  0  0  0
    5.0219    0.6137   21.1775 H   0  0  0  0  0  0  0  0  0  0  0  0
   10.5566    0.3699   21.3393 H   0  0  0  0  0  0  0  0  0  0  0  0
    9.6636    0.3585   19.7996 H   0  0  0  0  0  0  0  0  0  0  0  0
    8.1628    2.1823   20.6614 H   0  0  0  0  0  0  0  0  0  0  0  0
    9.8645    2.6891   20.6528 H   0  0  0  0  0  0  0  0  0  0  0  0
    6.6114    3.5317   22.6907 C   0  0  0  0  0  0  0  0  0  0  0  0
    5.2283    3.5493   22.8681 C   0  0  0  0  0  0  0  0  0  0  0  0
    4.6188    4.3826   22.5351 H   0  0  0  0  0  0  0  0  0  0  0  0
    7.1172    4.3588   22.1974 H   0  0  0  0  0  0  0  0  0  0  0  0
    7.3416    0.5215   24.1010 H   0  0  0  0  0  0  0  0  0  0  0  0
    4.8305    0.5383   24.4316 H   0  0  0  0  0  0  0  0  0  0  0  0
  1  2  1  0
  2  3  2  0
  3  4  1  0
  4  5  2  0
  5  6  1  0
  6  7  1  0
  7  8  1  0
  8  9  1  0
  9 10  2  0
 10 11  1  0
 11 12  1  0
 12 13  1  0
 13 14  1  0
 14 15  1  0
 15 16  1  0
 15 17  1  0
 13 18  1  0
 13 19  1  0
 12 20  1  0
 11 21  2  0
 21 22  1  0
 22 23  1  0
 23 24  2  0
 24 25  1  0
 25 26  2  0
 26 27  1  0
 27 28  2  0
 28 29  1  0
 26 30  1  0
 25 31  1  0
 24 32  1  0
  8 33  1  0
  8 34  1  0
  7 35  1  0
  7 36  1  0
  5 37  1  0
 37 38  2  0
 38 39  1  0
 37 40  1  0
  4 41  1  0
  3 42  1  0
 38  2  1  0
 22  9  1  0
 28 23  1  0
 15 12  1  0
M  END
>  <cnnaffinity>  (1) 
-5.98081

>  <filename>  (1) 
Fc1ccc(SCCc2nc(C3CSC3)nn2-c2cccnc2)cc1

$$$$
