
     RDKit          3D

 41 44  0  0  0  0  0  0  0  0999 V2000
   13.4162    1.7522   24.4402 F   0  0  0  0  0  0  0  0  0  0  0  0
   12.5466    1.4138   23.4964 C   0  0  0  0  0  0  0  0  0  0  0  0
   12.7854    0.2673   22.7526 C   0  0  0  0  0  0  0  0  0  0  0  0
   11.8490   -0.0753   21.7874 C   0  0  0  0  0  0  0  0  0  0  0  0
   12.0958   -1.1740   21.0537 F   0  0  0  0  0  0  0  0  0  0  0  0
   10.6787    0.6606   21.5613 C   0  0  0  0  0  0  0  0  0  0  0  0
    9.6076    0.1356   20.6356 C   0  0  0  0  0  0  0  0  0  0  0  0
    8.5585   -0.6611   21.3374 C   0  0  0  0  0  0  0  0  0  0  0  0
    8.7718   -1.4801   22.3541 N   0  0  0  0  0  0  0  0  0  0  0  0
    7.5475   -1.9975   22.6136 C   0  0  0  0  0  0  0  0  0  0  0  0
    7.2888   -3.0911   23.6574 C   0  0  0  0  0  0  0  0  0  0  0  0
    7.8475   -4.4807   23.2340 C   0  0  0  0  0  0  0  0  0  0  0  0
    9.2227   -4.4922   23.9091 C   0  0  0  0  0  0  0  0  0  0  0  0
    8.9709   -3.7264   25.2045 C   0  0  0  0  0  0  0  0  0  0  0  0
    7.8634   -2.8605   24.9448 O   0  0  0  0  0  0  0  0  0  0  0  0
    9.8337   -3.1136   25.4943 H   0  0  0  0  0  0  0  0  0  0  0  0
    8.7174   -4.3908   26.0459 H   0  0  0  0  0  0  0  0  0  0  0  0
    9.6133   -5.4979   24.0935 H   0  0  0  0  0  0  0  0  0  0  0  0
    9.9341   -3.9318   23.2913 H   0  0  0  0  0  0  0  0  0  0  0  0
    7.9008   -4.6006   22.1471 H   0  0  0  0  0  0  0  0  0  0  0  0
    7.1974   -5.2728   23.6297 H   0  0  0  0  0  0  0  0  0  0  0  0
    6.2045   -3.0963   23.7852 H   0  0  0  0  0  0  0  0  0  0  0  0
    6.5984   -1.5760   21.7888 N   0  0  0  0  0  0  0  0  0  0  0  0
    7.2513   -0.7345   20.9413 N   0  0  0  0  0  0  0  0  0  0  0  0
    6.5702   -0.0582   19.8753 C   0  0  0  0  0  0  0  0  0  0  0  0
    5.3673    0.6168   20.1186 C   0  0  0  0  0  0  0  0  0  0  0  0
    4.7800    1.3230   19.0630 C   0  0  0  0  0  0  0  0  0  0  0  0
    5.3892    1.3208   17.8032 C   0  0  0  0  0  0  0  0  0  0  0  0
    6.5219    0.6489   17.5486 N   0  0  0  0  0  0  0  0  0  0  0  0
    7.0900   -0.0174   18.5632 C   0  0  0  0  0  0  0  0  0  0  0  0
    8.0235   -0.5187   18.3168 H   0  0  0  0  0  0  0  0  0  0  0  0
    4.9570    1.8722   16.9710 H   0  0  0  0  0  0  0  0  0  0  0  0
    3.8652    1.8826   19.2056 H   0  0  0  0  0  0  0  0  0  0  0  0
    4.9298    0.6021   21.1181 H   0  0  0  0  0  0  0  0  0  0  0  0
   10.0609   -0.5385   19.9050 H   0  0  0  0  0  0  0  0  0  0  0  0
    9.1472    0.9595   20.0861 H   0  0  0  0  0  0  0  0  0  0  0  0
   10.4785    1.8248   22.3205 C   0  0  0  0  0  0  0  0  0  0  0  0
   11.4039    2.1970   23.2900 C   0  0  0  0  0  0  0  0  0  0  0  0
   11.2025    3.2915   24.0346 F   0  0  0  0  0  0  0  0  0  0  0  0
    9.6040    2.4581   22.1804 H   0  0  0  0  0  0  0  0  0  0  0  0
   13.6651   -0.3423   22.9330 H   0  0  0  0  0  0  0  0  0  0  0  0
  1  2  1  0
  2  3  2  0
  3  4  1  0
  4  5  1  0
  4  6  2  0
  6  7  1  0
  7  8  1  0
  8  9  2  0
  9 10  1  0
 10 11  1  0
 11 12  1  0
 12 13  1  0
 13 14  1  0
 14 15  1  0
 14 16  1  0
 14 17  1  0
 13 18  1  0
 13 19  1  0
 12 20  1  0
 12 21  1  0
 11 22  1  0
 10 23  2  0
 23 24  1  0
 24 25  1  0
 25 26  2  0
 26 27  1  0
 27 28  2  0
 28 29  1  0
 29 30  2  0
 30 31  1  0
 28 32  1  0
 27 33  1  0
 26 34  1  0
  7 35  1  0
  7 36  1  0
  6 37  1  0
 37 38  2  0
 38 39  1  0
 37 40  1  0
  3 41  1  0
 38  2  1  0
 24  8  1  0
 30 25  1  0
 15 11  1  0
M  END
>  <cnnaffinity>  (1) 
-6.61654

>  <filename>  (1) 
Fc1cc(F)c(Cc2nc(C3CCCO3)nn2-c2cccnc2)cc1F

$$$$
