
     RDKit          3D

 40 43  0  0  0  0  0  0  0  0999 V2000
   13.6315   -2.2729   20.8784 F   0  0  0  0  0  0  0  0  0  0  0  0
   12.9373   -1.4023   21.6216 C   0  0  0  0  0  0  0  0  0  0  0  0
   13.6556   -0.5734   22.4784 C   0  0  0  0  0  0  0  0  0  0  0  0
   12.9255    0.3374   23.2348 C   0  0  0  0  0  0  0  0  0  0  0  0
   13.5661    1.1528   24.0816 F   0  0  0  0  0  0  0  0  0  0  0  0
   11.5469    0.4522   23.1370 C   0  0  0  0  0  0  0  0  0  0  0  0
   10.8459   -0.3903   22.2510 C   0  0  0  0  0  0  0  0  0  0  0  0
    9.3739   -0.2336   22.1325 C   0  0  0  0  0  0  0  0  0  0  0  0
    8.5516   -1.0993   21.5652 N   0  0  0  0  0  0  0  0  0  0  0  0
    7.3337   -0.5223   21.7251 N   0  0  0  0  0  0  0  0  0  0  0  0
    6.1985   -1.0099   20.9414 C   0  0  0  0  0  0  0  0  0  0  0  0
    5.8643   -0.1153   19.7664 C   0  0  0  0  0  0  0  0  0  0  0  0
    4.6845    0.6299   19.6700 C   0  0  0  0  0  0  0  0  0  0  0  0
    4.5190    1.4908   18.5810 C   0  0  0  0  0  0  0  0  0  0  0  0
    5.5291    1.5568   17.6181 C   0  0  0  0  0  0  0  0  0  0  0  0
    6.6553    0.8308   17.6813 N   0  0  0  0  0  0  0  0  0  0  0  0
    6.8104    0.0277   18.7387 C   0  0  0  0  0  0  0  0  0  0  0  0
    7.7377   -0.5456   18.7722 H   0  0  0  0  0  0  0  0  0  0  0  0
    5.4284    2.2107   16.7521 H   0  0  0  0  0  0  0  0  0  0  0  0
    3.6401    2.1176   18.4775 H   0  0  0  0  0  0  0  0  0  0  0  0
    3.9000    0.5320   20.4243 H   0  0  0  0  0  0  0  0  0  0  0  0
    6.4819   -2.0125   20.6077 H   0  0  0  0  0  0  0  0  0  0  0  0
    5.3319   -1.1254   21.5863 H   0  0  0  0  0  0  0  0  0  0  0  0
    7.4769    0.6373   22.4079 C   0  0  0  0  0  0  0  0  0  0  0  0
    6.3812    1.4464   23.0422 C   0  0  0  0  0  0  0  0  0  0  0  0
    6.2165    1.0562   24.4929 C   0  0  0  0  0  0  0  0  0  0  0  0
    7.0690    1.2895   25.5508 C   0  0  0  0  0  0  0  0  0  0  0  0
    6.5303    0.5570   26.6247 C   0  0  0  0  0  0  0  0  0  0  0  0
    5.4269   -0.0921   26.2693 N   0  0  0  0  0  0  0  0  0  0  0  0
    5.2622    0.2295   24.9760 N   0  0  0  0  0  0  0  0  0  0  0  0
    4.5269   -0.2160   24.4416 H   0  0  0  0  0  0  0  0  0  0  0  0
    6.8991    0.4646   27.6390 H   0  0  0  0  0  0  0  0  0  0  0  0
    7.9921    1.8517   25.5132 H   0  0  0  0  0  0  0  0  0  0  0  0
    5.4417    1.3682   22.4838 H   0  0  0  0  0  0  0  0  0  0  0  0
    6.7133    2.4870   23.0061 H   0  0  0  0  0  0  0  0  0  0  0  0
    8.7528    0.8622   22.6443 N   0  0  0  0  0  0  0  0  0  0  0  0
   11.5552   -1.3437   21.4936 C   0  0  0  0  0  0  0  0  0  0  0  0
   11.0631   -2.0150   20.8018 H   0  0  0  0  0  0  0  0  0  0  0  0
   11.0240    1.2099   23.7128 H   0  0  0  0  0  0  0  0  0  0  0  0
   14.7323   -0.6355   22.5313 H   0  0  0  0  0  0  0  0  0  0  0  0
  1  2  1  0
  2  3  2  0
  3  4  1  0
  4  5  1  0
  4  6  2  0
  6  7  1  0
  7  8  1  0
  8  9  2  0
  9 10  1  0
 10 11  1  0
 11 12  1  0
 12 13  2  0
 13 14  1  0
 14 15  2  0
 15 16  1  0
 16 17  2  0
 17 18  1  0
 15 19  1  0
 14 20  1  0
 13 21  1  0
 11 22  1  0
 11 23  1  0
 10 24  1  0
 24 25  1  0
 25 26  1  0
 26 27  2  0
 27 28  1  0
 28 29  2  0
 29 30  1  0
 30 31  1  0
 28 32  1  0
 27 33  1  0
 25 34  1  0
 25 35  1  0
 24 36  2  0
  7 37  2  0
 37 38  1  0
  6 39  1  0
  3 40  1  0
 37  2  1  0
 36  8  1  0
 17 12  1  0
 30 26  1  0
M  END
>  <cnnaffinity>  (1) 
-6.31544

>  <filename>  (1) 
Fc1cc(F)cc(-c2nc(Cc3ccn[nH]3)n(Cc3cccnc3)n2)c1

$$$$
