
     RDKit          3D

 39 42  0  0  0  0  0  0  0  0999 V2000
    7.9776    1.1733   25.7310 F   0  0  0  0  0  0  0  0  0  0  0  0
    8.8991    1.6408   24.8727 C   0  0  0  0  0  0  0  0  0  0  0  0
   10.1506    2.0079   25.3731 C   0  0  0  0  0  0  0  0  0  0  0  0
   11.1269    2.5172   24.6120 N   0  0  0  0  0  0  0  0  0  0  0  0
   10.8786    2.6584   23.3071 C   0  0  0  0  0  0  0  0  0  0  0  0
    9.6601    2.2746   22.7343 C   0  0  0  0  0  0  0  0  0  0  0  0
    9.4737    2.3925   21.0300 Cl  0  0  0  0  0  0  0  0  0  0  0  0
    8.6189    1.7377   23.5078 C   0  0  0  0  0  0  0  0  0  0  0  0
    7.3666    1.1726   22.8610 C   0  0  0  0  0  0  0  0  0  0  0  0
    7.6097   -0.1710   22.2353 C   0  0  0  0  0  0  0  0  0  0  0  0
    8.1522   -1.1853   22.8884 N   0  0  0  0  0  0  0  0  0  0  0  0
    8.1713   -2.1803   21.9701 C   0  0  0  0  0  0  0  0  0  0  0  0
    8.7179   -3.5370   22.2139 C   0  0  0  0  0  0  0  0  0  0  0  0
    7.7452   -4.5238   22.8352 C   0  0  0  0  0  0  0  0  0  0  0  0
    8.0025   -5.9872   22.6559 C   0  0  0  0  0  0  0  0  0  0  0  0
    6.9020   -5.3140   21.8799 C   0  0  0  0  0  0  0  0  0  0  0  0
    7.0850   -5.1099   20.8261 H   0  0  0  0  0  0  0  0  0  0  0  0
    5.8658   -5.5307   22.1230 H   0  0  0  0  0  0  0  0  0  0  0  0
    7.7172   -6.6346   23.4760 H   0  0  0  0  0  0  0  0  0  0  0  0
    8.9083   -6.2915   22.1407 H   0  0  0  0  0  0  0  0  0  0  0  0
    7.3002   -4.2387   23.7867 H   0  0  0  0  0  0  0  0  0  0  0  0
    9.6274   -3.4363   22.8087 H   0  0  0  0  0  0  0  0  0  0  0  0
    8.9696   -3.8867   21.2131 H   0  0  0  0  0  0  0  0  0  0  0  0
    7.7032   -1.8495   20.7888 N   0  0  0  0  0  0  0  0  0  0  0  0
    7.3118   -0.5659   20.9586 N   0  0  0  0  0  0  0  0  0  0  0  0
    6.6267    0.0795   19.9002 C   0  0  0  0  0  0  0  0  0  0  0  0
    5.3972    0.7039   20.1212 C   0  0  0  0  0  0  0  0  0  0  0  0
    4.7808    1.3281   19.0354 C   0  0  0  0  0  0  0  0  0  0  0  0
    5.4110    1.2952   17.7877 C   0  0  0  0  0  0  0  0  0  0  0  0
    6.5614    0.6325   17.5583 N   0  0  0  0  0  0  0  0  0  0  0  0
    7.1463    0.0245   18.5944 C   0  0  0  0  0  0  0  0  0  0  0  0
    8.0673   -0.5266   18.3975 H   0  0  0  0  0  0  0  0  0  0  0  0
    4.9882    1.8303   16.9410 H   0  0  0  0  0  0  0  0  0  0  0  0
    3.8467    1.8620   19.1640 H   0  0  0  0  0  0  0  0  0  0  0  0
    4.9380    0.6693   21.1102 H   0  0  0  0  0  0  0  0  0  0  0  0
    6.5733    1.0619   23.6045 H   0  0  0  0  0  0  0  0  0  0  0  0
    7.0150    1.8804   22.1073 H   0  0  0  0  0  0  0  0  0  0  0  0
   11.6763    3.0702   22.6952 H   0  0  0  0  0  0  0  0  0  0  0  0
   10.3559    1.8836   26.4253 H   0  0  0  0  0  0  0  0  0  0  0  0
  1  2  1  0
  2  3  2  0
  3  4  1  0
  4  5  2  0
  5  6  1  0
  6  7  1  0
  6  8  2  0
  8  9  1  0
  9 10  1  0
 10 11  2  0
 11 12  1  0
 12 13  1  0
 13 14  1  0
 14 15  1  0
 15 16  1  0
 16 17  1  0
 16 18  1  0
 15 19  1  0
 15 20  1  0
 14 21  1  0
 13 22  1  0
 13 23  1  0
 12 24  2  0
 24 25  1  0
 25 26  1  0
 26 27  2  0
 27 28  1  0
 28 29  2  0
 29 30  1  0
 30 31  2  0
 31 32  1  0
 29 33  1  0
 28 34  1  0
 27 35  1  0
  9 36  1  0
  9 37  1  0
  5 38  1  0
  3 39  1  0
  8  2  1  0
 25 10  1  0
 31 26  1  0
 16 14  1  0
M  END
>  <cnnaffinity>  (1) 
-6.64309

>  <filename>  (1) 
Fc1cncc(Cl)c1Cc1nc(CC2CC2)nn1-c1cccnc1

$$$$
