
     RDKit          3D

 32 35  0  0  0  0  0  0  0  0999 V2000
    4.9817    1.8558   16.8995 H   0  0  0  0  0  0  0  0  0  0  0  0
    5.4195    1.3041   17.7293 C   0  0  0  0  0  0  0  0  0  0  0  0
    6.5652    0.6530   17.4746 N   0  0  0  0  0  0  0  0  0  0  0  0
    7.1441    0.0042   18.4904 C   0  0  0  0  0  0  0  0  0  0  0  0
    8.0777   -0.5064   18.2634 H   0  0  0  0  0  0  0  0  0  0  0  0
    6.6177   -0.0337   19.7960 C   0  0  0  0  0  0  0  0  0  0  0  0
    7.3650   -0.6632   20.8988 C   0  0  0  0  0  0  0  0  0  0  0  0
    8.4932   -1.3572   20.6778 N   0  0  0  0  0  0  0  0  0  0  0  0
    8.9147   -1.6522   21.9289 N   0  0  0  0  0  0  0  0  0  0  0  0
   10.0435   -2.2480   22.4822 C   0  0  0  0  0  0  0  0  0  0  0  0
   10.7942   -2.6980   21.8561 H   0  0  0  0  0  0  0  0  0  0  0  0
    9.9249   -2.1017   23.8269 C   0  0  0  0  0  0  0  0  0  0  0  0
   10.5696   -2.4074   24.6354 H   0  0  0  0  0  0  0  0  0  0  0  0
    8.7320   -1.4309   24.1134 N   0  0  0  0  0  0  0  0  0  0  0  0
    8.2064   -1.0595   25.3741 C   0  0  0  0  0  0  0  0  0  0  0  0
    6.8151   -1.1356   25.5954 C   0  0  0  0  0  0  0  0  0  0  0  0
    6.1886   -1.5541   24.8090 H   0  0  0  0  0  0  0  0  0  0  0  0
    6.2347   -0.6553   26.7702 C   0  0  0  0  0  0  0  0  0  0  0  0
    5.1570   -0.6186   26.9061 H   0  0  0  0  0  0  0  0  0  0  0  0
    7.0734   -0.1553   27.7601 C   0  0  0  0  0  0  0  0  0  0  0  0
    6.5325    0.3644   28.8707 F   0  0  0  0  0  0  0  0  0  0  0  0
    8.4587   -0.1474   27.6272 C   0  0  0  0  0  0  0  0  0  0  0  0
    9.1050    0.1637   28.4399 H   0  0  0  0  0  0  0  0  0  0  0  0
    9.0085   -0.5578   26.4181 C   0  0  0  0  0  0  0  0  0  0  0  0
   10.3434   -0.4260   26.2738 F   0  0  0  0  0  0  0  0  0  0  0  0
    8.1181   -1.1652   22.8982 C   0  0  0  0  0  0  0  0  0  0  0  0
    7.0549   -0.5367   22.2747 C   0  0  0  0  0  0  0  0  0  0  0  0
    6.1973   -0.0591   22.7120 H   0  0  0  0  0  0  0  0  0  0  0  0
    5.3978    0.6221   20.0326 C   0  0  0  0  0  0  0  0  0  0  0  0
    4.9375    0.6170   21.0241 H   0  0  0  0  0  0  0  0  0  0  0  0
    4.7955    1.3032   18.9815 C   0  0  0  0  0  0  0  0  0  0  0  0
    3.8773    1.8588   19.1311 H   0  0  0  0  0  0  0  0  0  0  0  0
  1  2  1  0
  2  3  2  0
  3  4  1  0
  4  5  1  0
  4  6  2  0
  6  7  1  0
  7  8  2  0
  8  9  1  0
  9 10  1  0
 10 11  1  0
 10 12  2  0
 12 13  1  0
 12 14  1  0
 14 15  1  0
 15 16  2  0
 16 17  1  0
 16 18  1  0
 18 19  1  0
 18 20  2  0
 20 21  1  0
 20 22  1  0
 22 23  1  0
 22 24  2  0
 24 25  1  0
 14 26  1  0
 26 27  2  0
 27 28  1  0
  6 29  1  0
 29 30  1  0
 29 31  2  0
 31 32  1  0
 31  2  1  0
 27  7  1  0
 26  9  1  0
 24 15  1  0
M  END
>  <cnnaffinity>  (1) 
-5.63063

>  <filename>  (1) 
Fc1ccc(-n2ccn3nc(-c4cccnc4)cc23)c(F)c1

$$$$
