
     RDKit          3D

 42 45  0  0  0  0  0  0  0  0999 V2000
    5.6074    7.0574   24.4886 F   0  0  0  0  0  0  0  0  0  0  0  0
    5.6287    5.7237   24.3440 C   0  0  0  0  0  0  0  0  0  0  0  0
    4.8659    5.1365   23.3403 C   0  0  0  0  0  0  0  0  0  0  0  0
    4.8959    3.7445   23.2157 C   0  0  0  0  0  0  0  0  0  0  0  0
    5.6813    2.9492   24.0661 C   0  0  0  0  0  0  0  0  0  0  0  0
    5.8046    1.2143   23.7575 S   0  0  0  0  0  0  0  0  0  0  0  0
    7.3143    1.3145   22.7298 C   0  0  0  0  0  0  0  0  0  0  0  0
    7.6188   -0.0319   22.2106 C   0  0  0  0  0  0  0  0  0  0  0  0
    8.2224   -0.9298   22.9539 N   0  0  0  0  0  0  0  0  0  0  0  0
    8.3038   -2.0072   22.1367 C   0  0  0  0  0  0  0  0  0  0  0  0
    8.8776   -3.2806   22.6595 C   0  0  0  0  0  0  0  0  0  0  0  0
    8.0778   -3.9644   23.8092 C   0  0  0  0  0  0  0  0  0  0  0  0
    9.1685   -4.7282   24.5839 C   0  0  0  0  0  0  0  0  0  0  0  0
   10.4129   -4.1378   24.2360 O   0  0  0  0  0  0  0  0  0  0  0  0
   10.2539   -3.0737   23.3190 C   0  0  0  0  0  0  0  0  0  0  0  0
   11.0915   -3.1249   22.6137 H   0  0  0  0  0  0  0  0  0  0  0  0
   10.2885   -2.0943   23.8236 H   0  0  0  0  0  0  0  0  0  0  0  0
    9.2178   -5.7922   24.3190 H   0  0  0  0  0  0  0  0  0  0  0  0
    9.0185   -4.6834   25.6761 H   0  0  0  0  0  0  0  0  0  0  0  0
    7.2585   -4.6001   23.4457 H   0  0  0  0  0  0  0  0  0  0  0  0
    7.6290   -3.2196   24.4823 H   0  0  0  0  0  0  0  0  0  0  0  0
    8.9667   -3.9488   21.8027 H   0  0  0  0  0  0  0  0  0  0  0  0
    7.8362   -1.8181   20.9175 N   0  0  0  0  0  0  0  0  0  0  0  0
    7.3541   -0.5399   20.9700 N   0  0  0  0  0  0  0  0  0  0  0  0
    6.6438    0.0470   19.8734 C   0  0  0  0  0  0  0  0  0  0  0  0
    5.4367    0.7358   20.0743 C   0  0  0  0  0  0  0  0  0  0  0  0
    4.8254    1.3554   18.9782 C   0  0  0  0  0  0  0  0  0  0  0  0
    5.4400    1.2674   17.7253 C   0  0  0  0  0  0  0  0  0  0  0  0
    6.5669    0.5653   17.5148 N   0  0  0  0  0  0  0  0  0  0  0  0
    7.1397   -0.0460   18.5579 C   0  0  0  0  0  0  0  0  0  0  0  0
    8.0298   -0.6303   18.3427 H   0  0  0  0  0  0  0  0  0  0  0  0
    5.0106    1.7688   16.8577 H   0  0  0  0  0  0  0  0  0  0  0  0
    3.9001    1.9141   19.0862 H   0  0  0  0  0  0  0  0  0  0  0  0
    4.9888    0.7748   21.0678 H   0  0  0  0  0  0  0  0  0  0  0  0
    8.1394    1.6191   23.3792 H   0  0  0  0  0  0  0  0  0  0  0  0
    7.1923    2.0414   21.9233 H   0  0  0  0  0  0  0  0  0  0  0  0
    6.4443    3.5937   25.0553 C   0  0  0  0  0  0  0  0  0  0  0  0
    7.2575    2.8933   25.8588 F   0  0  0  0  0  0  0  0  0  0  0  0
    6.4184    4.9759   25.2154 C   0  0  0  0  0  0  0  0  0  0  0  0
    7.0171    5.4428   25.9854 H   0  0  0  0  0  0  0  0  0  0  0  0
    4.3237    3.2541   22.4286 H   0  0  0  0  0  0  0  0  0  0  0  0
    4.2899    5.7666   22.6707 H   0  0  0  0  0  0  0  0  0  0  0  0
  1  2  1  0
  2  3  2  0
  3  4  1  0
  4  5  2  0
  5  6  1  0
  6  7  1  0
  7  8  1  0
  8  9  2  0
  9 10  1  0
 10 11  1  0
 11 12  1  0
 12 13  1  0
 13 14  1  0
 14 15  1  0
 15 16  1  0
 15 17  1  0
 13 18  1  0
 13 19  1  0
 12 20  1  0
 12 21  1  0
 11 22  1  0
 10 23  2  0
 23 24  1  0
 24 25  1  0
 25 26  2  0
 26 27  1  0
 27 28  2  0
 28 29  1  0
 29 30  2  0
 30 31  1  0
 28 32  1  0
 27 33  1  0
 26 34  1  0
  7 35  1  0
  7 36  1  0
  5 37  1  0
 37 38  1  0
 37 39  2  0
 39 40  1  0
  4 41  1  0
  3 42  1  0
 39  2  1  0
 24  8  1  0
 30 25  1  0
 15 11  1  0
M  END
>  <cnnaffinity>  (1) 
-6.02361

>  <filename>  (1) 
Fc1ccc(SCc2nc(C3CCOC3)nn2-c2cccnc2)c(F)c1

$$$$
