
     RDKit          3D

 18 19  0  0  0  0  0  0  0  0999 V2000
    4.9063    1.7719   17.0057 H   0  0  0  0  0  0  0  0  0  0  0  0
    5.4006    1.2902   17.8471 C   0  0  0  0  0  0  0  0  0  0  0  0
    6.5711    0.6791   17.5963 N   0  0  0  0  0  0  0  0  0  0  0  0
    7.1875    0.0536   18.6038 C   0  0  0  0  0  0  0  0  0  0  0  0
    8.1338   -0.4381   18.3801 H   0  0  0  0  0  0  0  0  0  0  0  0
    6.6682   -0.0003   19.9093 C   0  0  0  0  0  0  0  0  0  0  0  0
    7.3704   -0.6919   20.9397 N   0  0  0  0  0  0  0  0  0  0  0  0
    8.3041   -1.6374   20.6622 N   0  0  0  0  0  0  0  0  0  0  0  0
    8.7156   -2.0222   21.8479 C   0  0  0  0  0  0  0  0  0  0  0  0
    9.6465   -2.9557   22.0016 F   0  0  0  0  0  0  0  0  0  0  0  0
    8.0940   -1.3586   22.9124 C   0  0  0  0  0  0  0  0  0  0  0  0
    8.2583   -1.4796   23.9676 H   0  0  0  0  0  0  0  0  0  0  0  0
    7.2336   -0.5030   22.2835 C   0  0  0  0  0  0  0  0  0  0  0  0
    6.5647    0.2281   22.7189 H   0  0  0  0  0  0  0  0  0  0  0  0
    5.4485    0.6484   20.1641 C   0  0  0  0  0  0  0  0  0  0  0  0
    5.0047    0.6275   21.1559 H   0  0  0  0  0  0  0  0  0  0  0  0
    4.8089    1.3088   19.1129 C   0  0  0  0  0  0  0  0  0  0  0  0
    3.8736    1.8439   19.2697 H   0  0  0  0  0  0  0  0  0  0  0  0
  1  2  1  0
  2  3  2  0
  3  4  1  0
  4  5  1  0
  4  6  2  0
  6  7  1  0
  7  8  1  0
  8  9  2  0
  9 10  1  0
  9 11  1  0
 11 12  1  0
 11 13  2  0
 13 14  1  0
  6 15  1  0
 15 16  1  0
 15 17  2  0
 17 18  1  0
 17  2  1  0
 13  7  1  0
M  END
>  <cnnaffinity>  (1) 
-3.72047

>  <filename>  (1) 
Fc1ccn(-c2cccnc2)n1

$$$$
