
     RDKit          3D

 47 51  0  0  0  0  0  0  0  0999 V2000
   13.5438    1.4211   24.0246 F   0  0  0  0  0  0  0  0  0  0  0  0
   12.9181    0.5254   23.2520 C   0  0  0  0  0  0  0  0  0  0  0  0
   13.6755   -0.4046   22.5478 C   0  0  0  0  0  0  0  0  0  0  0  0
   12.9800   -1.3162   21.7598 C   0  0  0  0  0  0  0  0  0  0  0  0
   13.6912   -2.2238   21.0742 F   0  0  0  0  0  0  0  0  0  0  0  0
   11.5911   -1.3135   21.6401 C   0  0  0  0  0  0  0  0  0  0  0  0
   10.8558   -0.3416   22.3589 C   0  0  0  0  0  0  0  0  0  0  0  0
    9.3826   -0.1756   22.1999 C   0  0  0  0  0  0  0  0  0  0  0  0
    8.5829   -1.0314   21.5902 N   0  0  0  0  0  0  0  0  0  0  0  0
    7.3648   -0.4325   21.6622 N   0  0  0  0  0  0  0  0  0  0  0  0
    6.2465   -0.9628   20.8829 C   0  0  0  0  0  0  0  0  0  0  0  0
    5.8926   -0.0927   19.6946 C   0  0  0  0  0  0  0  0  0  0  0  0
    4.6826    0.5986   19.5718 C   0  0  0  0  0  0  0  0  0  0  0  0
    4.5036    1.4428   18.4711 C   0  0  0  0  0  0  0  0  0  0  0  0
    5.5235    1.5316   17.5177 C   0  0  0  0  0  0  0  0  0  0  0  0
    6.6750    0.8471   17.6003 N   0  0  0  0  0  0  0  0  0  0  0  0
    6.8447    0.0676   18.6732 C   0  0  0  0  0  0  0  0  0  0  0  0
    7.7806   -0.4903   18.7265 H   0  0  0  0  0  0  0  0  0  0  0  0
    5.4164    2.1726   16.6445 H   0  0  0  0  0  0  0  0  0  0  0  0
    3.6034    2.0334   18.3420 H   0  0  0  0  0  0  0  0  0  0  0  0
    3.8891    0.4772   20.3159 H   0  0  0  0  0  0  0  0  0  0  0  0
    6.5646   -1.9573   20.5547 H   0  0  0  0  0  0  0  0  0  0  0  0
    5.3821   -1.1028   21.5358 H   0  0  0  0  0  0  0  0  0  0  0  0
    7.4885    0.7559   22.2972 C   0  0  0  0  0  0  0  0  0  0  0  0
    6.3403    1.5792   22.8411 C   0  0  0  0  0  0  0  0  0  0  0  0
    5.9115    1.0608   24.1982 C   0  0  0  0  0  0  0  0  0  0  0  0
    4.7707    0.6678   24.8640 C   0  0  0  0  0  0  0  0  0  0  0  0
    5.0949   -0.0509   25.9890 N   0  0  0  0  0  0  0  0  0  0  0  0
    6.4094   -0.0693   26.0386 C   0  0  0  0  0  0  0  0  0  0  0  0
    7.2689   -0.9239   26.8793 C   0  0  0  0  0  0  0  0  0  0  0  0
    8.5086   -1.5621   26.2698 C   0  0  0  0  0  0  0  0  0  0  0  0
    8.6558   -0.5027   27.3069 C   0  0  0  0  0  0  0  0  0  0  0  0
    9.0000   -0.7874   28.2963 H   0  0  0  0  0  0  0  0  0  0  0  0
    9.0004    0.4829   27.0028 H   0  0  0  0  0  0  0  0  0  0  0  0
    8.7692   -1.2948   25.2427 H   0  0  0  0  0  0  0  0  0  0  0  0
    8.7276   -2.5936   26.5284 H   0  0  0  0  0  0  0  0  0  0  0  0
    6.6934   -1.5282   27.5737 H   0  0  0  0  0  0  0  0  0  0  0  0
    6.9280    0.6783   25.0365 N   0  0  0  0  0  0  0  0  0  0  0  0
    7.9050    0.7585   24.8005 H   0  0  0  0  0  0  0  0  0  0  0  0
    3.7330    0.8263   24.6011 H   0  0  0  0  0  0  0  0  0  0  0  0
    6.7308    2.5923   22.9590 H   0  0  0  0  0  0  0  0  0  0  0  0
    5.5119    1.6315   22.1333 H   0  0  0  0  0  0  0  0  0  0  0  0
    8.7471    0.9467   22.6500 N   0  0  0  0  0  0  0  0  0  0  0  0
   11.5313    0.5747   23.1882 C   0  0  0  0  0  0  0  0  0  0  0  0
   11.0038    1.3514   23.7392 H   0  0  0  0  0  0  0  0  0  0  0  0
   11.1071   -2.0231   20.9766 H   0  0  0  0  0  0  0  0  0  0  0  0
   14.7589   -0.4133   22.5794 H   0  0  0  0  0  0  0  0  0  0  0  0
  1  2  1  0
  2  3  2  0
  3  4  1  0
  4  5  1  0
  4  6  2  0
  6  7  1  0
  7  8  1  0
  8  9  2  0
  9 10  1  0
 10 11  1  0
 11 12  1  0
 12 13  2  0
 13 14  1  0
 14 15  2  0
 15 16  1  0
 16 17  2  0
 17 18  1  0
 15 19  1  0
 14 20  1  0
 13 21  1  0
 11 22  1  0
 11 23  1  0
 10 24  1  0
 24 25  1  0
 25 26  1  0
 26 27  2  0
 27 28  1  0
 28 29  2  0
 29 30  1  0
 30 31  1  0
 31 32  1  0
 32 33  1  0
 32 34  1  0
 31 35  1  0
 31 36  1  0
 30 37  1  0
 29 38  1  0
 38 39  1  0
 27 40  1  0
 25 41  1  0
 25 42  1  0
 24 43  2  0
  7 44  2  0
 44 45  1  0
  6 46  1  0
  3 47  1  0
 44  2  1  0
 43  8  1  0
 17 12  1  0
 38 26  1  0
 32 30  1  0
M  END
>  <cnnaffinity>  (1) 
-6.25721

>  <filename>  (1) 
Fc1cc(F)cc(-c2nc(Cc3cnc(C4CC4)[nH]3)n(Cc3cccnc3)n2)c1

$$$$
