
     RDKit          3D

 41 44  0  0  0  0  0  0  0  0999 V2000
    3.9761    4.0977   23.1928 F   0  0  0  0  0  0  0  0  0  0  0  0
    4.7666    3.0953   23.6034 C   0  0  0  0  0  0  0  0  0  0  0  0
    4.4761    2.4162   24.7808 C   0  0  0  0  0  0  0  0  0  0  0  0
    5.3167    1.3769   25.1928 C   0  0  0  0  0  0  0  0  0  0  0  0
    6.4268    1.0242   24.4256 C   0  0  0  0  0  0  0  0  0  0  0  0
    6.7255    1.7001   23.2337 C   0  0  0  0  0  0  0  0  0  0  0  0
    7.9413    1.2920   22.4127 C   0  0  0  0  0  0  0  0  0  0  0  0
    7.9473   -0.1520   22.0468 C   0  0  0  0  0  0  0  0  0  0  0  0
    8.5064   -1.1214   22.7396 N   0  0  0  0  0  0  0  0  0  0  0  0
    8.2268   -2.2193   21.9969 C   0  0  0  0  0  0  0  0  0  0  0  0
    8.7562   -3.5492   22.3839 C   0  0  0  0  0  0  0  0  0  0  0  0
    8.8683   -3.8478   23.8892 C   0  0  0  0  0  0  0  0  0  0  0  0
    8.7340   -5.3725   23.9686 C   0  0  0  0  0  0  0  0  0  0  0  0
    8.1700   -5.8073   22.7399 O   0  0  0  0  0  0  0  0  0  0  0  0
    7.9129   -4.7255   21.8654 C   0  0  0  0  0  0  0  0  0  0  0  0
    6.8416   -4.4562   21.8759 H   0  0  0  0  0  0  0  0  0  0  0  0
    8.1595   -5.0470   20.8454 H   0  0  0  0  0  0  0  0  0  0  0  0
    9.6982   -5.8725   24.1194 H   0  0  0  0  0  0  0  0  0  0  0  0
    8.1036   -5.6877   24.8098 H   0  0  0  0  0  0  0  0  0  0  0  0
    9.8216   -3.5039   24.3004 H   0  0  0  0  0  0  0  0  0  0  0  0
    8.0580   -3.3497   24.4289 H   0  0  0  0  0  0  0  0  0  0  0  0
    9.7683   -3.4819   21.9960 H   0  0  0  0  0  0  0  0  0  0  0  0
    7.5886   -1.9896   20.8653 N   0  0  0  0  0  0  0  0  0  0  0  0
    7.3615   -0.6548   20.9276 N   0  0  0  0  0  0  0  0  0  0  0  0
    6.6476    0.0069   19.8973 C   0  0  0  0  0  0  0  0  0  0  0  0
    5.4367    0.6494   20.1604 C   0  0  0  0  0  0  0  0  0  0  0  0
    4.8049    1.3080   19.1040 C   0  0  0  0  0  0  0  0  0  0  0  0
    5.4021    1.2934   17.8392 C   0  0  0  0  0  0  0  0  0  0  0  0
    6.5664    0.6702   17.5865 N   0  0  0  0  0  0  0  0  0  0  0  0
    7.1706    0.0372   18.5944 C   0  0  0  0  0  0  0  0  0  0  0  0
    8.1216   -0.4413   18.3749 H   0  0  0  0  0  0  0  0  0  0  0  0
    4.9227    1.7834   16.9955 H   0  0  0  0  0  0  0  0  0  0  0  0
    3.8735    1.8411   19.2559 H   0  0  0  0  0  0  0  0  0  0  0  0
    5.0114    0.6260   21.1636 H   0  0  0  0  0  0  0  0  0  0  0  0
    8.0108    1.8977   21.5062 H   0  0  0  0  0  0  0  0  0  0  0  0
    8.8483    1.4636   23.0005 H   0  0  0  0  0  0  0  0  0  0  0  0
    5.8870    2.7445   22.8420 C   0  0  0  0  0  0  0  0  0  0  0  0
    6.1359    3.4226   21.7064 F   0  0  0  0  0  0  0  0  0  0  0  0
    7.0819    0.2125   24.7337 H   0  0  0  0  0  0  0  0  0  0  0  0
    5.1081    0.8449   26.1148 H   0  0  0  0  0  0  0  0  0  0  0  0
    3.6072    2.7217   25.3535 H   0  0  0  0  0  0  0  0  0  0  0  0
  1  2  1  0
  2  3  2  0
  3  4  1  0
  4  5  2  0
  5  6  1  0
  6  7  1  0
  7  8  1  0
  8  9  2  0
  9 10  1  0
 10 11  1  0
 11 12  1  0
 12 13  1  0
 13 14  1  0
 14 15  1  0
 15 16  1  0
 15 17  1  0
 13 18  1  0
 13 19  1  0
 12 20  1  0
 12 21  1  0
 11 22  1  0
 10 23  2  0
 23 24  1  0
 24 25  1  0
 25 26  2  0
 26 27  1  0
 27 28  2  0
 28 29  1  0
 29 30  2  0
 30 31  1  0
 28 32  1  0
 27 33  1  0
 26 34  1  0
  7 35  1  0
  7 36  1  0
  6 37  2  0
 37 38  1  0
  5 39  1  0
  4 40  1  0
  3 41  1  0
 37  2  1  0
 24  8  1  0
 30 25  1  0
 15 11  1  0
M  END
>  <cnnaffinity>  (1) 
-6.66448

>  <filename>  (1) 
Fc1cccc(Cc2nc(C3CCOC3)nn2-c2cccnc2)c1F

$$$$
