
     RDKit          3D

 37 41  0  0  0  0  0  0  0  0999 V2000
    7.8920    2.2491   21.0260 F   0  0  0  0  0  0  0  0  0  0  0  0
    7.2952    2.2466   22.2426 C   0  0  0  0  0  0  0  0  0  0  0  0
    6.9932    3.4603   22.8860 C   0  0  0  0  0  0  0  0  0  0  0  0
    6.4016    3.5258   24.0934 N   0  0  0  0  0  0  0  0  0  0  0  0
    6.0929    2.3813   24.7256 C   0  0  0  0  0  0  0  0  0  0  0  0
    5.2335    2.4814   26.4310 Br  0  0  0  0  0  0  0  0  0  0  0  0
    6.3881    1.1302   24.1599 C   0  0  0  0  0  0  0  0  0  0  0  0
    7.0016    1.0394   22.8932 C   0  0  0  0  0  0  0  0  0  0  0  0
    7.3991   -0.2507   22.2801 C   0  0  0  0  0  0  0  0  0  0  0  0
    7.8552   -1.2568   22.9721 N   0  0  0  0  0  0  0  0  0  0  0  0
    8.1876   -2.1918   22.0064 C   0  0  0  0  0  0  0  0  0  0  0  0
    8.8074   -3.5254   22.3294 C   0  0  0  0  0  0  0  0  0  0  0  0
    8.1378   -4.8609   22.0811 C   0  0  0  0  0  0  0  0  0  0  0  0
    8.2749   -4.3440   23.5280 C   0  0  0  0  0  0  0  0  0  0  0  0
    8.6634   -5.6480   24.2518 C   0  0  0  0  0  0  0  0  0  0  0  0
    9.4753   -4.4091   24.4924 C   0  0  0  0  0  0  0  0  0  0  0  0
   10.4703   -4.3448   24.0386 H   0  0  0  0  0  0  0  0  0  0  0  0
    9.3866   -3.8526   25.4303 H   0  0  0  0  0  0  0  0  0  0  0  0
    7.9243   -6.0119   24.9724 H   0  0  0  0  0  0  0  0  0  0  0  0
    9.1183   -6.4546   23.6706 H   0  0  0  0  0  0  0  0  0  0  0  0
    8.7556   -5.7235   21.8059 H   0  0  0  0  0  0  0  0  0  0  0  0
    7.1148   -4.9549   21.7076 H   0  0  0  0  0  0  0  0  0  0  0  0
    9.8880   -3.3780   22.3097 H   0  0  0  0  0  0  0  0  0  0  0  0
    8.0081   -1.7931   20.7713 N   0  0  0  0  0  0  0  0  0  0  0  0
    7.4351   -0.5805   20.9234 N   0  0  0  0  0  0  0  0  0  0  0  0
    6.7665    0.0610   19.8755 C   0  0  0  0  0  0  0  0  0  0  0  0
    5.6121    0.7950   20.1462 C   0  0  0  0  0  0  0  0  0  0  0  0
    4.9579    1.3998   19.0774 C   0  0  0  0  0  0  0  0  0  0  0  0
    5.4728    1.2724   17.7824 C   0  0  0  0  0  0  0  0  0  0  0  0
    6.5637    0.5345   17.5080 N   0  0  0  0  0  0  0  0  0  0  0  0
    7.1897   -0.0739   18.5357 C   0  0  0  0  0  0  0  0  0  0  0  0
    8.0577   -0.6836   18.3005 H   0  0  0  0  0  0  0  0  0  0  0  0
    4.9667    1.7885   16.9732 H   0  0  0  0  0  0  0  0  0  0  0  0
    4.0560    1.9752   19.2422 H   0  0  0  0  0  0  0  0  0  0  0  0
    5.2244    0.8636   21.1633 H   0  0  0  0  0  0  0  0  0  0  0  0
    6.1310    0.2362   24.7220 H   0  0  0  0  0  0  0  0  0  0  0  0
    7.2554    4.3928   22.3949 H   0  0  0  0  0  0  0  0  0  0  0  0
  1  2  1  0
  2  3  2  0
  3  4  1  0
  4  5  2  0
  5  6  1  0
  5  7  1  0
  7  8  2  0
  8  9  1  0
  9 10  2  0
 10 11  1  0
 11 12  1  0
 12 13  1  0
 13 14  1  0
 14 15  1  0
 15 16  1  0
 16 17  1  0
 16 18  1  0
 15 19  1  0
 15 20  1  0
 13 21  1  0
 13 22  1  0
 12 23  1  0
 11 24  2  0
 24 25  1  0
 25 26  1  0
 26 27  2  0
 27 28  1  0
 28 29  2  0
 29 30  1  0
 30 31  2  0
 31 32  1  0
 29 33  1  0
 28 34  1  0
 27 35  1  0
  7 36  1  0
  3 37  1  0
  8  2  1  0
 25  9  1  0
 31 26  1  0
 14 12  1  0
 16 14  1  0
M  END
>  <cnnaffinity>  (1) 
-6.35421

>  <filename>  (1) 
Fc1cnc(Br)cc1-c1nc(C2CC23CC3)nn1-c1cccnc1

$$$$
