
     RDKit          3D

 41 44  0  0  0  0  0  0  0  0999 V2000
   13.3427    1.7854   24.4643 F   0  0  0  0  0  0  0  0  0  0  0  0
   12.4991    1.4663   23.4924 C   0  0  0  0  0  0  0  0  0  0  0  0
   11.3190    2.1969   23.3484 C   0  0  0  0  0  0  0  0  0  0  0  0
   10.4004    1.8148   22.3689 C   0  0  0  0  0  0  0  0  0  0  0  0
   10.6416    0.6844   21.5767 C   0  0  0  0  0  0  0  0  0  0  0  0
    9.5819    0.1602   20.6468 C   0  0  0  0  0  0  0  0  0  0  0  0
    8.5264   -0.6327   21.3416 C   0  0  0  0  0  0  0  0  0  0  0  0
    8.7163   -1.4179   22.3787 N   0  0  0  0  0  0  0  0  0  0  0  0
    7.5022   -2.0023   22.5638 C   0  0  0  0  0  0  0  0  0  0  0  0
    7.3746   -3.0866   23.6242 C   0  0  0  0  0  0  0  0  0  0  0  0
    7.3392   -4.5208   23.0329 C   0  0  0  0  0  0  0  0  0  0  0  0
    5.8339   -4.7625   22.9018 C   0  0  0  0  0  0  0  0  0  0  0  0
    5.2721   -4.0255   24.1207 C   0  0  0  0  0  0  0  0  0  0  0  0
    6.2201   -3.0119   24.4521 O   0  0  0  0  0  0  0  0  0  0  0  0
    5.1475   -4.6883   24.9905 H   0  0  0  0  0  0  0  0  0  0  0  0
    4.3116   -3.5418   23.9090 H   0  0  0  0  0  0  0  0  0  0  0  0
    5.4715   -4.2872   21.9825 H   0  0  0  0  0  0  0  0  0  0  0  0
    5.5671   -5.8243   22.8969 H   0  0  0  0  0  0  0  0  0  0  0  0
    7.8866   -4.6096   22.0877 H   0  0  0  0  0  0  0  0  0  0  0  0
    7.7947   -5.2125   23.7543 H   0  0  0  0  0  0  0  0  0  0  0  0
    8.2494   -2.9328   24.2594 H   0  0  0  0  0  0  0  0  0  0  0  0
    6.5813   -1.6395   21.6861 N   0  0  0  0  0  0  0  0  0  0  0  0
    7.2479   -0.7694   20.8807 N   0  0  0  0  0  0  0  0  0  0  0  0
    6.5840   -0.0645   19.8409 C   0  0  0  0  0  0  0  0  0  0  0  0
    5.3908    0.6115   20.1129 C   0  0  0  0  0  0  0  0  0  0  0  0
    4.7950    1.3211   19.0680 C   0  0  0  0  0  0  0  0  0  0  0  0
    5.3937    1.3211   17.8008 C   0  0  0  0  0  0  0  0  0  0  0  0
    6.5316    0.6657   17.5306 N   0  0  0  0  0  0  0  0  0  0  0  0
    7.1091   -0.0023   18.5345 C   0  0  0  0  0  0  0  0  0  0  0  0
    8.0467   -0.5043   18.3022 H   0  0  0  0  0  0  0  0  0  0  0  0
    4.9421    1.8626   16.9709 H   0  0  0  0  0  0  0  0  0  0  0  0
    3.8739    1.8661   19.2277 H   0  0  0  0  0  0  0  0  0  0  0  0
    4.9680    0.5776   21.1202 H   0  0  0  0  0  0  0  0  0  0  0  0
   10.0228   -0.5176   19.9093 H   0  0  0  0  0  0  0  0  0  0  0  0
    9.1264    0.9882   20.1027 H   0  0  0  0  0  0  0  0  0  0  0  0
   11.8451   -0.0190   21.7178 C   0  0  0  0  0  0  0  0  0  0  0  0
   12.8006    0.3912   22.6495 C   0  0  0  0  0  0  0  0  0  0  0  0
   14.3349   -0.4081   22.7393 Cl  0  0  0  0  0  0  0  0  0  0  0  0
   12.0541   -0.9026   21.1210 H   0  0  0  0  0  0  0  0  0  0  0  0
    9.4777    2.3822   22.2352 H   0  0  0  0  0  0  0  0  0  0  0  0
   11.1397    3.0351   24.0178 H   0  0  0  0  0  0  0  0  0  0  0  0
  1  2  1  0
  2  3  2  0
  3  4  1  0
  4  5  2  0
  5  6  1  0
  6  7  1  0
  7  8  2  0
  8  9  1  0
  9 10  1  0
 10 11  1  0
 11 12  1  0
 12 13  1  0
 13 14  1  0
 13 15  1  0
 13 16  1  0
 12 17  1  0
 12 18  1  0
 11 19  1  0
 11 20  1  0
 10 21  1  0
  9 22  2  0
 22 23  1  0
 23 24  1  0
 24 25  2  0
 25 26  1  0
 26 27  2  0
 27 28  1  0
 28 29  2  0
 29 30  1  0
 27 31  1  0
 26 32  1  0
 25 33  1  0
  6 34  1  0
  6 35  1  0
  5 36  1  0
 36 37  2  0
 37 38  1  0
 36 39  1  0
  4 40  1  0
  3 41  1  0
 37  2  1  0
 23  7  1  0
 29 24  1  0
 14 10  1  0
M  END
>  <cnnaffinity>  (1) 
-6.50149

>  <filename>  (1) 
Fc1ccc(Cc2nc(C3CCCO3)nn2-c2cccnc2)cc1Cl

$$$$
