
     RDKit          3D

 29 32  0  0  0  0  0  0  0  0999 V2000
    4.9126    1.8128   16.9727 H   0  0  0  0  0  0  0  0  0  0  0  0
    5.3769    1.3047   17.8193 C   0  0  0  0  0  0  0  0  0  0  0  0
    6.5399    0.6842   17.5655 N   0  0  0  0  0  0  0  0  0  0  0  0
    7.1525    0.0769   18.5853 C   0  0  0  0  0  0  0  0  0  0  0  0
    8.1028   -0.3918   18.3350 H   0  0  0  0  0  0  0  0  0  0  0  0
    6.6609    0.0321   19.9109 C   0  0  0  0  0  0  0  0  0  0  0  0
    7.4118   -0.6623   20.9712 C   0  0  0  0  0  0  0  0  0  0  0  0
    8.3260   -1.6877   20.9146 C   0  0  0  0  0  0  0  0  0  0  0  0
    8.7348   -2.1103   20.0160 H   0  0  0  0  0  0  0  0  0  0  0  0
    8.7742   -2.1018   22.1363 N   0  0  0  0  0  0  0  0  0  0  0  0
    8.1579   -1.2919   22.9539 C   0  0  0  0  0  0  0  0  0  0  0  0
    8.2385   -0.9545   24.6384 S   0  0  0  0  0  0  0  0  0  0  0  0
    7.1264    0.3805   24.3217 C   0  0  0  0  0  0  0  0  0  0  0  0
    6.6915    1.2489   25.4085 C   0  0  0  0  0  0  0  0  0  0  0  0
    5.7976    2.2996   25.1248 C   0  0  0  0  0  0  0  0  0  0  0  0
    5.4285    2.4851   24.1163 H   0  0  0  0  0  0  0  0  0  0  0  0
    5.3511    3.1255   26.0774 N   0  0  0  0  0  0  0  0  0  0  0  0
    5.7733    2.9480   27.3347 C   0  0  0  0  0  0  0  0  0  0  0  0
    5.4035    3.6277   28.0975 H   0  0  0  0  0  0  0  0  0  0  0  0
    6.6645    1.9298   27.6918 C   0  0  0  0  0  0  0  0  0  0  0  0
    7.0583    1.7948   28.9635 F   0  0  0  0  0  0  0  0  0  0  0  0
    7.1425    1.0579   26.7309 C   0  0  0  0  0  0  0  0  0  0  0  0
    7.8370    0.2703   27.0262 H   0  0  0  0  0  0  0  0  0  0  0  0
    6.7369    0.5446   23.0974 N   0  0  0  0  0  0  0  0  0  0  0  0
    7.3200   -0.4116   22.3354 N   0  0  0  0  0  0  0  0  0  0  0  0
    5.4302    0.6714   20.1459 C   0  0  0  0  0  0  0  0  0  0  0  0
    5.0157    0.6633   21.1515 H   0  0  0  0  0  0  0  0  0  0  0  0
    4.7860    1.3168   19.0868 C   0  0  0  0  0  0  0  0  0  0  0  0
    3.8532    1.8516   19.2280 H   0  0  0  0  0  0  0  0  0  0  0  0
  1  2  1  0
  2  3  2  0
  3  4  1  0
  4  5  1  0
  4  6  2  0
  6  7  1  0
  7  8  2  0
  8  9  1  0
  8 10  1  0
 10 11  2  0
 11 12  1  0
 12 13  1  0
 13 14  1  0
 14 15  2  0
 15 16  1  0
 15 17  1  0
 17 18  2  0
 18 19  1  0
 18 20  1  0
 20 21  1  0
 20 22  2  0
 22 23  1  0
 13 24  2  0
 24 25  1  0
  6 26  1  0
 26 27  1  0
 26 28  2  0
 28 29  1  0
 28  2  1  0
 25  7  1  0
 25 11  1  0
 22 14  1  0
M  END
>  <cnnaffinity>  (1) 
-5.27127

>  <filename>  (1) 
Fc1cncc(-c2nn3c(-c4cccnc4)cnc3s2)c1

$$$$
