
     RDKit          3D

 41 44  0  0  0  0  0  0  0  0999 V2000
   13.6264   -0.7763   22.2005 F   0  0  0  0  0  0  0  0  0  0  0  0
   12.5218   -0.0218   22.1533 C   0  0  0  0  0  0  0  0  0  0  0  0
   11.5401   -0.3203   21.2182 C   0  0  0  0  0  0  0  0  0  0  0  0
   10.3909    0.4683   21.1359 C   0  0  0  0  0  0  0  0  0  0  0  0
    9.2162    0.0427   20.2901 C   0  0  0  0  0  0  0  0  0  0  0  0
    8.2447   -0.7913   21.0759 C   0  0  0  0  0  0  0  0  0  0  0  0
    8.5117   -1.5318   22.1269 N   0  0  0  0  0  0  0  0  0  0  0  0
    7.3078   -2.0689   22.4529 C   0  0  0  0  0  0  0  0  0  0  0  0
    7.2831   -3.1025   23.5576 C   0  0  0  0  0  0  0  0  0  0  0  0
    7.3580   -4.5602   23.0037 C   0  0  0  0  0  0  0  0  0  0  0  0
    6.4610   -5.3474   23.9644 C   0  0  0  0  0  0  0  0  0  0  0  0
    5.4391   -4.2821   24.3547 C   0  0  0  0  0  0  0  0  0  0  0  0
    6.1574   -3.0579   24.4202 O   0  0  0  0  0  0  0  0  0  0  0  0
    4.9626   -4.4475   25.3236 H   0  0  0  0  0  0  0  0  0  0  0  0
    4.6532   -4.1940   23.5936 H   0  0  0  0  0  0  0  0  0  0  0  0
    5.9981   -6.2240   23.4975 H   0  0  0  0  0  0  0  0  0  0  0  0
    7.0141   -5.6899   24.8461 H   0  0  0  0  0  0  0  0  0  0  0  0
    6.9318   -4.5829   21.9927 H   0  0  0  0  0  0  0  0  0  0  0  0
    8.3871   -4.9286   22.9340 H   0  0  0  0  0  0  0  0  0  0  0  0
    8.1672   -2.8525   24.1565 H   0  0  0  0  0  0  0  0  0  0  0  0
    6.3100   -1.7276   21.6500 N   0  0  0  0  0  0  0  0  0  0  0  0
    6.9212   -0.9185   20.7497 N   0  0  0  0  0  0  0  0  0  0  0  0
    6.2181   -0.2413   19.7163 C   0  0  0  0  0  0  0  0  0  0  0  0
    5.0874    0.5341   19.9840 C   0  0  0  0  0  0  0  0  0  0  0  0
    4.6086    1.3702   18.9678 C   0  0  0  0  0  0  0  0  0  0  0  0
    5.2422    1.3677   17.7213 C   0  0  0  0  0  0  0  0  0  0  0  0
    6.2708    0.5583   17.4336 N   0  0  0  0  0  0  0  0  0  0  0  0
    6.7275   -0.2348   18.4059 C   0  0  0  0  0  0  0  0  0  0  0  0
    7.5694   -0.8730   18.1462 H   0  0  0  0  0  0  0  0  0  0  0  0
    4.9195    2.0358   16.9233 H   0  0  0  0  0  0  0  0  0  0  0  0
    3.7748    2.0426   19.1308 H   0  0  0  0  0  0  0  0  0  0  0  0
    4.6189    0.4906   20.9643 H   0  0  0  0  0  0  0  0  0  0  0  0
    9.5569   -0.5500   19.4306 H   0  0  0  0  0  0  0  0  0  0  0  0
    8.6933    0.9269   19.9098 H   0  0  0  0  0  0  0  0  0  0  0  0
   10.2863    1.6015   21.9454 C   0  0  0  0  0  0  0  0  0  0  0  0
   11.2612    1.8929   22.9007 C   0  0  0  0  0  0  0  0  0  0  0  0
   12.3683    1.0514   23.0309 C   0  0  0  0  0  0  0  0  0  0  0  0
   13.5114    1.3009   24.2877 Cl  0  0  0  0  0  0  0  0  0  0  0  0
   11.1694    2.7602   23.5495 H   0  0  0  0  0  0  0  0  0  0  0  0
    9.4209    2.2453   21.8253 H   0  0  0  0  0  0  0  0  0  0  0  0
   11.7219   -1.1622   20.5615 H   0  0  0  0  0  0  0  0  0  0  0  0
  1  2  1  0
  2  3  2  0
  3  4  1  0
  4  5  1  0
  5  6  1  0
  6  7  2  0
  7  8  1  0
  8  9  1  0
  9 10  1  0
 10 11  1  0
 11 12  1  0
 12 13  1  0
 12 14  1  0
 12 15  1  0
 11 16  1  0
 11 17  1  0
 10 18  1  0
 10 19  1  0
  9 20  1  0
  8 21  2  0
 21 22  1  0
 22 23  1  0
 23 24  2  0
 24 25  1  0
 25 26  2  0
 26 27  1  0
 27 28  2  0
 28 29  1  0
 26 30  1  0
 25 31  1  0
 24 32  1  0
  5 33  1  0
  5 34  1  0
  4 35  2  0
 35 36  1  0
 36 37  2  0
 37 38  1  0
 36 39  1  0
 35 40  1  0
  3 41  1  0
 37  2  1  0
 22  6  1  0
 28 23  1  0
 13  9  1  0
M  END
>  <cnnaffinity>  (1) 
-6.5284

>  <filename>  (1) 
Fc1cc(Cc2nc(C3CCCO3)nn2-c2cccnc2)ccc1Cl

$$$$
