
     RDKit          3D

 42 45  0  0  0  0  0  0  0  0999 V2000
    5.7152   -4.2437   27.9047 F   0  0  0  0  0  0  0  0  0  0  0  0
    5.6546   -4.0278   26.5818 C   0  0  0  0  0  0  0  0  0  0  0  0
    5.7132   -2.7286   26.0940 C   0  0  0  0  0  0  0  0  0  0  0  0
    5.6407   -2.5143   24.7094 C   0  0  0  0  0  0  0  0  0  0  0  0
    5.4743   -3.5868   23.8112 C   0  0  0  0  0  0  0  0  0  0  0  0
    5.2733   -3.4847   22.4707 O   0  0  0  0  0  0  0  0  0  0  0  0
    5.7455   -2.4863   21.5728 C   0  0  0  0  0  0  0  0  0  0  0  0
    7.0665   -1.7854   21.7873 C   0  0  0  0  0  0  0  0  0  0  0  0
    8.0886   -2.0927   22.5650 N   0  0  0  0  0  0  0  0  0  0  0  0
    9.0430   -1.1986   22.2100 C   0  0  0  0  0  0  0  0  0  0  0  0
   10.3987   -1.2024   22.8463 C   0  0  0  0  0  0  0  0  0  0  0  0
   11.0098    0.1390   23.3285 C   0  0  0  0  0  0  0  0  0  0  0  0
   12.5236   -0.0333   23.0794 C   0  0  0  0  0  0  0  0  0  0  0  0
   12.7021   -1.2436   22.3650 O   0  0  0  0  0  0  0  0  0  0  0  0
   11.4714   -1.7350   21.8909 C   0  0  0  0  0  0  0  0  0  0  0  0
   11.2859   -1.4120   20.8574 H   0  0  0  0  0  0  0  0  0  0  0  0
   11.5088   -2.8241   21.9245 H   0  0  0  0  0  0  0  0  0  0  0  0
   12.9490    0.8041   22.5094 H   0  0  0  0  0  0  0  0  0  0  0  0
   13.0962   -0.1103   24.0108 H   0  0  0  0  0  0  0  0  0  0  0  0
   10.6158    0.9859   22.7592 H   0  0  0  0  0  0  0  0  0  0  0  0
   10.7949    0.3251   24.3856 H   0  0  0  0  0  0  0  0  0  0  0  0
   10.3292   -1.8897   23.6926 H   0  0  0  0  0  0  0  0  0  0  0  0
    8.7058   -0.3985   21.2182 N   0  0  0  0  0  0  0  0  0  0  0  0
    7.4093   -0.7303   20.9828 N   0  0  0  0  0  0  0  0  0  0  0  0
    6.6894   -0.0234   19.9735 C   0  0  0  0  0  0  0  0  0  0  0  0
    5.4623    0.6216   20.2065 C   0  0  0  0  0  0  0  0  0  0  0  0
    4.8441    1.2660   19.1250 C   0  0  0  0  0  0  0  0  0  0  0  0
    5.4682    1.2495   17.8755 C   0  0  0  0  0  0  0  0  0  0  0  0
    6.6561    0.6576   17.6552 N   0  0  0  0  0  0  0  0  0  0  0  0
    7.2597    0.0682   18.6909 C   0  0  0  0  0  0  0  0  0  0  0  0
    8.2398   -0.3666   18.5023 H   0  0  0  0  0  0  0  0  0  0  0  0
    5.0170    1.7536   17.0227 H   0  0  0  0  0  0  0  0  0  0  0  0
    3.9099    1.8033   19.2540 H   0  0  0  0  0  0  0  0  0  0  0  0
    5.0266    0.6685   21.2065 H   0  0  0  0  0  0  0  0  0  0  0  0
    4.9804   -1.7189   21.4488 H   0  0  0  0  0  0  0  0  0  0  0  0
    5.7969   -3.0268   20.6217 H   0  0  0  0  0  0  0  0  0  0  0  0
    5.4462   -4.8943   24.3547 C   0  0  0  0  0  0  0  0  0  0  0  0
    5.2972   -6.2663   23.3064 Cl  0  0  0  0  0  0  0  0  0  0  0  0
    5.5381   -5.1216   25.7284 C   0  0  0  0  0  0  0  0  0  0  0  0
    5.5112   -6.1272   26.1381 H   0  0  0  0  0  0  0  0  0  0  0  0
    5.7627   -1.5109   24.3150 H   0  0  0  0  0  0  0  0  0  0  0  0
    5.8082   -1.9070   26.7999 H   0  0  0  0  0  0  0  0  0  0  0  0
  1  2  1  0
  2  3  2  0
  3  4  1  0
  4  5  2  0
  5  6  1  0
  6  7  1  0
  7  8  1  0
  8  9  2  0
  9 10  1  0
 10 11  1  0
 11 12  1  0
 12 13  1  0
 13 14  1  0
 14 15  1  0
 15 16  1  0
 15 17  1  0
 13 18  1  0
 13 19  1  0
 12 20  1  0
 12 21  1  0
 11 22  1  0
 10 23  2  0
 23 24  1  0
 24 25  1  0
 25 26  2  0
 26 27  1  0
 27 28  2  0
 28 29  1  0
 29 30  2  0
 30 31  1  0
 28 32  1  0
 27 33  1  0
 26 34  1  0
  7 35  1  0
  7 36  1  0
  5 37  1  0
 37 38  1  0
 37 39  2  0
 39 40  1  0
  4 41  1  0
  3 42  1  0
 39  2  1  0
 24  8  1  0
 30 25  1  0
 15 11  1  0
M  END
>  <cnnaffinity>  (1) 
-6.28775

>  <filename>  (1) 
Fc1ccc(OCc2nc(C3CCOC3)nn2-c2cccnc2)c(Cl)c1

$$$$
