
     RDKit          3D

 45 48  0  0  0  0  0  0  0  0999 V2000
   13.3382    0.2548   25.3508 F   0  0  0  0  0  0  0  0  0  0  0  0
   12.4244    0.5751   24.4204 C   0  0  0  0  0  0  0  0  0  0  0  0
   11.3780    1.4212   24.7531 C   0  0  0  0  0  0  0  0  0  0  0  0
   10.4381    1.7687   23.7741 C   0  0  0  0  0  0  0  0  0  0  0  0
   10.5297    1.2626   22.4722 C   0  0  0  0  0  0  0  0  0  0  0  0
    9.7043    1.5668   21.4352 O   0  0  0  0  0  0  0  0  0  0  0  0
    8.4822    2.2640   21.6681 C   0  0  0  0  0  0  0  0  0  0  0  0
    7.4816    1.4934   22.5620 C   0  0  0  0  0  0  0  0  0  0  0  0
    7.5364    0.0233   22.2829 C   0  0  0  0  0  0  0  0  0  0  0  0
    8.0374   -0.9231   23.0515 N   0  0  0  0  0  0  0  0  0  0  0  0
    8.2034   -1.9670   22.1902 C   0  0  0  0  0  0  0  0  0  0  0  0
    8.8564   -3.2943   22.5300 C   0  0  0  0  0  0  0  0  0  0  0  0
    8.2787   -4.0160   23.7841 C   0  0  0  0  0  0  0  0  0  0  0  0
    9.5402   -4.3856   24.5803 C   0  0  0  0  0  0  0  0  0  0  0  0
   10.5150   -3.3067   24.1360 C   0  0  0  0  0  0  0  0  0  0  0  0
   10.2668   -3.1830   22.7456 O   0  0  0  0  0  0  0  0  0  0  0  0
   11.5659   -3.5823   24.2602 H   0  0  0  0  0  0  0  0  0  0  0  0
   10.3081   -2.3460   24.6373 H   0  0  0  0  0  0  0  0  0  0  0  0
    9.9168   -5.3672   24.2739 H   0  0  0  0  0  0  0  0  0  0  0  0
    9.3996   -4.4086   25.6643 H   0  0  0  0  0  0  0  0  0  0  0  0
    7.6598   -4.8856   23.5325 H   0  0  0  0  0  0  0  0  0  0  0  0
    7.6529   -3.3278   24.3620 H   0  0  0  0  0  0  0  0  0  0  0  0
    8.7259   -3.8872   21.6247 H   0  0  0  0  0  0  0  0  0  0  0  0
    7.7825   -1.7351   20.9601 N   0  0  0  0  0  0  0  0  0  0  0  0
    7.3243   -0.4614   21.0288 N   0  0  0  0  0  0  0  0  0  0  0  0
    6.6634    0.1261   19.9261 C   0  0  0  0  0  0  0  0  0  0  0  0
    5.4697    0.8364   20.0856 C   0  0  0  0  0  0  0  0  0  0  0  0
    4.8970    1.4078   18.9474 C   0  0  0  0  0  0  0  0  0  0  0  0
    5.5304    1.2430   17.7125 C   0  0  0  0  0  0  0  0  0  0  0  0
    6.6607    0.5337   17.5526 N   0  0  0  0  0  0  0  0  0  0  0  0
    7.2049   -0.0241   18.6377 C   0  0  0  0  0  0  0  0  0  0  0  0
    8.1137   -0.6042   18.4914 H   0  0  0  0  0  0  0  0  0  0  0  0
    5.1089    1.6889   16.8158 H   0  0  0  0  0  0  0  0  0  0  0  0
    3.9820    1.9827   19.0194 H   0  0  0  0  0  0  0  0  0  0  0  0
    4.9978    0.9201   21.0653 H   0  0  0  0  0  0  0  0  0  0  0  0
    7.6792    1.6514   23.6253 H   0  0  0  0  0  0  0  0  0  0  0  0
    6.4830    1.8874   22.3700 H   0  0  0  0  0  0  0  0  0  0  0  0
    8.6951    3.2635   22.0732 H   0  0  0  0  0  0  0  0  0  0  0  0
    8.0727    2.3859   20.6628 H   0  0  0  0  0  0  0  0  0  0  0  0
   11.5752    0.3529   22.2076 C   0  0  0  0  0  0  0  0  0  0  0  0
   11.6352   -0.2459   21.0030 F   0  0  0  0  0  0  0  0  0  0  0  0
   12.5441    0.0305   23.1456 C   0  0  0  0  0  0  0  0  0  0  0  0
   13.3538   -0.6424   22.8807 H   0  0  0  0  0  0  0  0  0  0  0  0
    9.6164    2.4272   24.0363 H   0  0  0  0  0  0  0  0  0  0  0  0
   11.2856    1.7931   25.7642 H   0  0  0  0  0  0  0  0  0  0  0  0
  1  2  1  0
  2  3  2  0
  3  4  1  0
  4  5  2  0
  5  6  1  0
  6  7  1  0
  7  8  1  0
  8  9  1  0
  9 10  2  0
 10 11  1  0
 11 12  1  0
 12 13  1  0
 13 14  1  0
 14 15  1  0
 15 16  1  0
 15 17  1  0
 15 18  1  0
 14 19  1  0
 14 20  1  0
 13 21  1  0
 13 22  1  0
 12 23  1  0
 11 24  2  0
 24 25  1  0
 25 26  1  0
 26 27  2  0
 27 28  1  0
 28 29  2  0
 29 30  1  0
 30 31  2  0
 31 32  1  0
 29 33  1  0
 28 34  1  0
 27 35  1  0
  8 36  1  0
  8 37  1  0
  7 38  1  0
  7 39  1  0
  5 40  1  0
 40 41  1  0
 40 42  2  0
 42 43  1  0
  4 44  1  0
  3 45  1  0
 42  2  1  0
 25  9  1  0
 31 26  1  0
 16 12  1  0
M  END
>  <cnnaffinity>  (1) 
-6.6641

>  <filename>  (1) 
Fc1ccc(OCCc2nc(C3CCCO3)nn2-c2cccnc2)c(F)c1

$$$$
