
     RDKit          3D

 44 48  0  0  0  0  0  0  0  0999 V2000
    3.7700    5.2811   23.6007 F   0  0  0  0  0  0  0  0  0  0  0  0
    4.7606    4.5842   24.1831 C   0  0  0  0  0  0  0  0  0  0  0  0
    5.5217    5.1830   25.1835 C   0  0  0  0  0  0  0  0  0  0  0  0
    6.5533    4.4523   25.7865 C   0  0  0  0  0  0  0  0  0  0  0  0
    6.7914    3.1445   25.3685 C   0  0  0  0  0  0  0  0  0  0  0  0
    7.8063    2.4597   25.9365 F   0  0  0  0  0  0  0  0  0  0  0  0
    6.0247    2.5262   24.3689 C   0  0  0  0  0  0  0  0  0  0  0  0
    6.3626    1.1490   23.8653 C   0  0  0  0  0  0  0  0  0  0  0  0
    7.4234    1.2135   22.7425 C   0  0  0  0  0  0  0  0  0  0  0  0
    7.6926   -0.1288   22.1669 C   0  0  0  0  0  0  0  0  0  0  0  0
    8.3254   -1.0726   22.8344 N   0  0  0  0  0  0  0  0  0  0  0  0
    8.2527   -2.1343   22.0027 C   0  0  0  0  0  0  0  0  0  0  0  0
    8.9767   -3.4051   22.2528 C   0  0  0  0  0  0  0  0  0  0  0  0
    8.2876   -4.7191   22.0194 C   0  0  0  0  0  0  0  0  0  0  0  0
    8.9845   -4.4888   23.3665 C   0  0  0  0  0  0  0  0  0  0  0  0
    9.9965   -4.4092   24.4802 C   0  0  0  0  0  0  0  0  0  0  0  0
    8.9815   -5.5241   24.4826 C   0  0  0  0  0  0  0  0  0  0  0  0
    8.1542   -5.5549   25.1876 H   0  0  0  0  0  0  0  0  0  0  0  0
    9.3678   -6.4988   24.1768 H   0  0  0  0  0  0  0  0  0  0  0  0
   11.0344   -4.6536   24.2462 H   0  0  0  0  0  0  0  0  0  0  0  0
    9.8735   -3.5534   25.1457 H   0  0  0  0  0  0  0  0  0  0  0  0
    8.6248   -5.5081   21.3455 H   0  0  0  0  0  0  0  0  0  0  0  0
    7.2011   -4.6912   22.1074 H   0  0  0  0  0  0  0  0  0  0  0  0
   10.0135   -3.2225   21.9724 H   0  0  0  0  0  0  0  0  0  0  0  0
    7.6412   -1.9126   20.8486 N   0  0  0  0  0  0  0  0  0  0  0  0
    7.2527   -0.6159   20.9697 N   0  0  0  0  0  0  0  0  0  0  0  0
    6.5784    0.0465   19.9071 C   0  0  0  0  0  0  0  0  0  0  0  0
    5.3837    0.7435   20.1131 C   0  0  0  0  0  0  0  0  0  0  0  0
    4.7895    1.3761   19.0161 C   0  0  0  0  0  0  0  0  0  0  0  0
    5.4192    1.3002   17.7710 C   0  0  0  0  0  0  0  0  0  0  0  0
    6.5536    0.6048   17.5630 N   0  0  0  0  0  0  0  0  0  0  0  0
    7.1056   -0.0174   18.6078 C   0  0  0  0  0  0  0  0  0  0  0  0
    8.0093   -0.5948   18.4225 H   0  0  0  0  0  0  0  0  0  0  0  0
    4.9949    1.8099   16.9067 H   0  0  0  0  0  0  0  0  0  0  0  0
    3.8648    1.9325   19.1293 H   0  0  0  0  0  0  0  0  0  0  0  0
    4.9271    0.7555   21.1019 H   0  0  0  0  0  0  0  0  0  0  0  0
    7.1210    1.9205   21.9666 H   0  0  0  0  0  0  0  0  0  0  0  0
    8.3588    1.5969   23.1596 H   0  0  0  0  0  0  0  0  0  0  0  0
    5.4517    0.6620   23.4868 H   0  0  0  0  0  0  0  0  0  0  0  0
    6.7399    0.5211   24.6798 H   0  0  0  0  0  0  0  0  0  0  0  0
    5.0007    3.2758   23.7706 C   0  0  0  0  0  0  0  0  0  0  0  0
    4.3930    2.8581   22.9722 H   0  0  0  0  0  0  0  0  0  0  0  0
    7.1777    4.8755   26.5674 H   0  0  0  0  0  0  0  0  0  0  0  0
    5.3007    6.2037   25.4761 H   0  0  0  0  0  0  0  0  0  0  0  0
  1  2  1  0
  2  3  2  0
  3  4  1  0
  4  5  2  0
  5  6  1  0
  5  7  1  0
  7  8  1  0
  8  9  1  0
  9 10  1  0
 10 11  2  0
 11 12  1  0
 12 13  1  0
 13 14  1  0
 14 15  1  0
 15 16  1  0
 16 17  1  0
 17 18  1  0
 17 19  1  0
 16 20  1  0
 16 21  1  0
 14 22  1  0
 14 23  1  0
 13 24  1  0
 12 25  2  0
 25 26  1  0
 26 27  1  0
 27 28  2  0
 28 29  1  0
 29 30  2  0
 30 31  1  0
 31 32  2  0
 32 33  1  0
 30 34  1  0
 29 35  1  0
 28 36  1  0
  9 37  1  0
  9 38  1  0
  8 39  1  0
  8 40  1  0
  7 41  2  0
 41 42  1  0
  4 43  1  0
  3 44  1  0
 41  2  1  0
 26 10  1  0
 32 27  1  0
 15 13  1  0
 17 15  1  0
M  END
>  <cnnaffinity>  (1) 
-6.17931

>  <filename>  (1) 
Fc1ccc(F)c(CCc2nc(C3CC34CC4)nn2-c2cccnc2)c1

$$$$
