
     RDKit          3D

 38 41  0  0  0  0  0  0  0  0999 V2000
   12.1743   -0.3932   21.7850 F   0  0  0  0  0  0  0  0  0  0  0  0
   11.5947    0.6825   22.3455 C   0  0  0  0  0  0  0  0  0  0  0  0
   12.2484    1.3042   23.4028 C   0  0  0  0  0  0  0  0  0  0  0  0
   11.6250    2.3994   24.0011 C   0  0  0  0  0  0  0  0  0  0  0  0
   10.3819    2.8539   23.5652 C   0  0  0  0  0  0  0  0  0  0  0  0
    9.7648    2.1977   22.5000 C   0  0  0  0  0  0  0  0  0  0  0  0
    8.1905    2.7476   22.0082 Cl  0  0  0  0  0  0  0  0  0  0  0  0
   10.3558    1.1044   21.8488 C   0  0  0  0  0  0  0  0  0  0  0  0
    9.6238    0.3204   20.7789 C   0  0  0  0  0  0  0  0  0  0  0  0
    8.6035   -0.5991   21.3532 C   0  0  0  0  0  0  0  0  0  0  0  0
    8.8414   -1.4542   22.3236 N   0  0  0  0  0  0  0  0  0  0  0  0
    7.6332   -2.0292   22.5304 C   0  0  0  0  0  0  0  0  0  0  0  0
    7.4298   -3.0274   23.6151 C   0  0  0  0  0  0  0  0  0  0  0  0
    8.4326   -4.2148   23.6043 C   0  0  0  0  0  0  0  0  0  0  0  0
    9.0524   -3.8007   25.2694 S   0  0  0  0  0  0  0  0  0  0  0  0
    7.7829   -2.5103   25.0408 C   0  0  0  0  0  0  0  0  0  0  0  0
    6.9660   -2.5921   25.7637 H   0  0  0  0  0  0  0  0  0  0  0  0
    8.1998   -1.4978   25.0673 H   0  0  0  0  0  0  0  0  0  0  0  0
    7.9598   -5.2002   23.5675 H   0  0  0  0  0  0  0  0  0  0  0  0
    9.2116   -4.1473   22.8384 H   0  0  0  0  0  0  0  0  0  0  0  0
    6.3940   -3.3513   23.5368 H   0  0  0  0  0  0  0  0  0  0  0  0
    6.6743   -1.6125   21.7312 N   0  0  0  0  0  0  0  0  0  0  0  0
    7.3121   -0.7071   20.9346 N   0  0  0  0  0  0  0  0  0  0  0  0
    6.6412   -0.0053   19.8991 C   0  0  0  0  0  0  0  0  0  0  0  0
    5.4328    0.6452   20.1641 C   0  0  0  0  0  0  0  0  0  0  0  0
    4.8110    1.3143   19.1083 C   0  0  0  0  0  0  0  0  0  0  0  0
    5.3987    1.2961   17.8373 C   0  0  0  0  0  0  0  0  0  0  0  0
    6.5557    0.6694   17.5767 N   0  0  0  0  0  0  0  0  0  0  0  0
    7.1626    0.0468   18.5913 C   0  0  0  0  0  0  0  0  0  0  0  0
    8.1123   -0.4316   18.3624 H   0  0  0  0  0  0  0  0  0  0  0  0
    4.9205    1.7859   16.9928 H   0  0  0  0  0  0  0  0  0  0  0  0
    3.8799    1.8422   19.2594 H   0  0  0  0  0  0  0  0  0  0  0  0
    5.0159    0.6072   21.1736 H   0  0  0  0  0  0  0  0  0  0  0  0
    9.1612    1.0265   20.0872 H   0  0  0  0  0  0  0  0  0  0  0  0
   10.3068   -0.3407   20.2436 H   0  0  0  0  0  0  0  0  0  0  0  0
    9.8894    3.7002   24.0305 H   0  0  0  0  0  0  0  0  0  0  0  0
   12.1004    2.9078   24.8229 H   0  0  0  0  0  0  0  0  0  0  0  0
   13.2120    0.9209   23.7216 H   0  0  0  0  0  0  0  0  0  0  0  0
  1  2  1  0
  2  3  2  0
  3  4  1  0
  4  5  2  0
  5  6  1  0
  6  7  1  0
  6  8  2  0
  8  9  1  0
  9 10  1  0
 10 11  2  0
 11 12  1  0
 12 13  1  0
 13 14  1  0
 14 15  1  0
 15 16  1  0
 16 17  1  0
 16 18  1  0
 14 19  1  0
 14 20  1  0
 13 21  1  0
 12 22  2  0
 22 23  1  0
 23 24  1  0
 24 25  2  0
 25 26  1  0
 26 27  2  0
 27 28  1  0
 28 29  2  0
 29 30  1  0
 27 31  1  0
 26 32  1  0
 25 33  1  0
  9 34  1  0
  9 35  1  0
  5 36  1  0
  4 37  1  0
  3 38  1  0
  8  2  1  0
 23 10  1  0
 29 24  1  0
 16 13  1  0
M  END
>  <cnnaffinity>  (1) 
-6.39437

>  <filename>  (1) 
Fc1cccc(Cl)c1Cc1nc(C2CSC2)nn1-c1cccnc1

$$$$
