
     RDKit          3D

 32 34  0  0  0  0  0  0  0  0999 V2000
   12.4247    3.7300   23.8741 F   0  0  0  0  0  0  0  0  0  0  0  0
   11.4840    3.0946   23.1601 C   0  0  0  0  0  0  0  0  0  0  0  0
   11.6432    2.9373   21.7783 C   0  0  0  0  0  0  0  0  0  0  0  0
   10.7081    2.3342   21.0333 N   0  0  0  0  0  0  0  0  0  0  0  0
    9.5819    1.9060   21.6290 C   0  0  0  0  0  0  0  0  0  0  0  0
    9.3420    2.0100   23.0363 C   0  0  0  0  0  0  0  0  0  0  0  0
    8.1645    1.6271   23.6943 N   0  0  0  0  0  0  0  0  0  0  0  0
    7.0937    0.9526   22.9689 C   0  0  0  0  0  0  0  0  0  0  0  0
    7.5046   -0.3582   22.3460 C   0  0  0  0  0  0  0  0  0  0  0  0
    8.2690   -1.3683   22.8932 C   0  0  0  0  0  0  0  0  0  0  0  0
    8.5405   -2.2255   21.8834 N   0  0  0  0  0  0  0  0  0  0  0  0
    8.0103   -1.8470   20.7141 N   0  0  0  0  0  0  0  0  0  0  0  0
    7.3591   -0.7192   20.9813 C   0  0  0  0  0  0  0  0  0  0  0  0
    6.6318   -0.0004   19.9281 C   0  0  0  0  0  0  0  0  0  0  0  0
    5.4006    0.6420   20.1310 C   0  0  0  0  0  0  0  0  0  0  0  0
    4.8110    1.3064   19.0579 C   0  0  0  0  0  0  0  0  0  0  0  0
    5.4660    1.3030   17.8239 C   0  0  0  0  0  0  0  0  0  0  0  0
    6.6253    0.6638   17.6074 N   0  0  0  0  0  0  0  0  0  0  0  0
    7.1806    0.0210   18.6370 C   0  0  0  0  0  0  0  0  0  0  0  0
    8.1084   -0.5088   18.4245 H   0  0  0  0  0  0  0  0  0  0  0  0
    5.0299    1.8139   16.9680 H   0  0  0  0  0  0  0  0  0  0  0  0
    3.8713    1.8302   19.1711 H   0  0  0  0  0  0  0  0  0  0  0  0
    4.9163    0.6137   21.1075 H   0  0  0  0  0  0  0  0  0  0  0  0
    9.0476   -3.0955   21.9245 H   0  0  0  0  0  0  0  0  0  0  0  0
    8.6624   -1.5267   23.8902 H   0  0  0  0  0  0  0  0  0  0  0  0
    6.2538    0.8243   23.6616 H   0  0  0  0  0  0  0  0  0  0  0  0
    6.7506    1.6482   22.1922 H   0  0  0  0  0  0  0  0  0  0  0  0
    8.3517    1.2244   24.6047 H   0  0  0  0  0  0  0  0  0  0  0  0
   10.3618    2.6000   23.8090 C   0  0  0  0  0  0  0  0  0  0  0  0
   10.2874    2.6837   24.8893 H   0  0  0  0  0  0  0  0  0  0  0  0
    8.8467    1.4543   20.9594 H   0  0  0  0  0  0  0  0  0  0  0  0
   12.5392    3.2951   21.2790 H   0  0  0  0  0  0  0  0  0  0  0  0
  1  2  1  0
  2  3  2  0
  3  4  1  0
  4  5  2  0
  5  6  1  0
  6  7  1  0
  7  8  1  0
  8  9  1  0
  9 10  2  0
 10 11  1  0
 11 12  1  0
 12 13  2  0
 13 14  1  0
 14 15  2  0
 15 16  1  0
 16 17  2  0
 17 18  1  0
 18 19  2  0
 19 20  1  0
 17 21  1  0
 16 22  1  0
 15 23  1  0
 11 24  1  0
 10 25  1  0
  8 26  1  0
  8 27  1  0
  7 28  1  0
  6 29  2  0
 29 30  1  0
  5 31  1  0
  3 32  1  0
 29  2  1  0
 13  9  1  0
 19 14  1  0
M  END
>  <cnnaffinity>  (1) 
-5.63418

>  <filename>  (1) 
Fc1cncc(NCc2c[nH]nc2-c2cccnc2)c1

$$$$
