
     RDKit          3D

 38 41  0  0  0  0  0  0  0  0999 V2000
    4.7441   -5.1261   24.9267 F   0  0  0  0  0  0  0  0  0  0  0  0
    5.9366   -4.5526   24.7222 C   0  0  0  0  0  0  0  0  0  0  0  0
    7.0306   -4.9085   25.5210 C   0  0  0  0  0  0  0  0  0  0  0  0
    8.2448   -4.3674   25.3604 N   0  0  0  0  0  0  0  0  0  0  0  0
    8.4201   -3.4522   24.3986 C   0  0  0  0  0  0  0  0  0  0  0  0
    7.3696   -3.0543   23.5570 C   0  0  0  0  0  0  0  0  0  0  0  0
    7.6149   -2.0502   22.5317 C   0  0  0  0  0  0  0  0  0  0  0  0
    6.6673   -1.6243   21.7155 N   0  0  0  0  0  0  0  0  0  0  0  0
    7.3125   -0.7115   20.9547 N   0  0  0  0  0  0  0  0  0  0  0  0
    6.6405   -0.0265   19.9035 C   0  0  0  0  0  0  0  0  0  0  0  0
    5.4308    0.6239   20.1629 C   0  0  0  0  0  0  0  0  0  0  0  0
    4.8075    1.3067   19.1123 C   0  0  0  0  0  0  0  0  0  0  0  0
    5.3997    1.2906   17.8432 C   0  0  0  0  0  0  0  0  0  0  0  0
    6.5489    0.6507   17.5836 N   0  0  0  0  0  0  0  0  0  0  0  0
    7.1534    0.0200   18.5943 C   0  0  0  0  0  0  0  0  0  0  0  0
    8.1026   -0.4538   18.3520 H   0  0  0  0  0  0  0  0  0  0  0  0
    4.9384    1.8038   17.0007 H   0  0  0  0  0  0  0  0  0  0  0  0
    3.8777    1.8488   19.2585 H   0  0  0  0  0  0  0  0  0  0  0  0
    5.0117    0.5886   21.1689 H   0  0  0  0  0  0  0  0  0  0  0  0
    8.5986   -0.6110   21.3908 C   0  0  0  0  0  0  0  0  0  0  0  0
    9.6354    0.2897   20.8125 C   0  0  0  0  0  0  0  0  0  0  0  0
   10.3519    1.1167   21.8601 C   0  0  0  0  0  0  0  0  0  0  0  0
   11.6137    0.7487   22.3447 C   0  0  0  0  0  0  0  0  0  0  0  0
   12.2445    1.3540   23.3553 N   0  0  0  0  0  0  0  0  0  0  0  0
   11.6242    2.3799   23.9493 C   0  0  0  0  0  0  0  0  0  0  0  0
   10.3721    2.8527   23.5609 C   0  0  0  0  0  0  0  0  0  0  0  0
    9.7372    2.2025   22.5029 C   0  0  0  0  0  0  0  0  0  0  0  0
    8.1445    2.7194   22.0331 Cl  0  0  0  0  0  0  0  0  0  0  0  0
    9.9003    3.6799   24.0801 H   0  0  0  0  0  0  0  0  0  0  0  0
   12.1560    2.8402   24.7767 H   0  0  0  0  0  0  0  0  0  0  0  0
   12.1323   -0.0995   21.8933 H   0  0  0  0  0  0  0  0  0  0  0  0
    9.1667    0.9488   20.0823 H   0  0  0  0  0  0  0  0  0  0  0  0
   10.3311   -0.3794   20.2972 H   0  0  0  0  0  0  0  0  0  0  0  0
    8.8244   -1.4682   22.3604 N   0  0  0  0  0  0  0  0  0  0  0  0
    6.0855   -3.6078   23.7210 C   0  0  0  0  0  0  0  0  0  0  0  0
    5.2394   -3.3069   23.1002 H   0  0  0  0  0  0  0  0  0  0  0  0
    9.4252   -3.0377   24.3138 H   0  0  0  0  0  0  0  0  0  0  0  0
    6.9082   -5.6485   26.3059 H   0  0  0  0  0  0  0  0  0  0  0  0
  1  2  1  0
  2  3  2  0
  3  4  1  0
  4  5  2  0
  5  6  1  0
  6  7  1  0
  7  8  2  0
  8  9  1  0
  9 10  1  0
 10 11  2  0
 11 12  1  0
 12 13  2  0
 13 14  1  0
 14 15  2  0
 15 16  1  0
 13 17  1  0
 12 18  1  0
 11 19  1  0
  9 20  1  0
 20 21  1  0
 21 22  1  0
 22 23  2  0
 23 24  1  0
 24 25  2  0
 25 26  1  0
 26 27  2  0
 27 28  1  0
 26 29  1  0
 25 30  1  0
 23 31  1  0
 21 32  1  0
 21 33  1  0
 20 34  2  0
  6 35  2  0
 35 36  1  0
  5 37  1  0
  3 38  1  0
 35  2  1  0
 34  7  1  0
 15 10  1  0
 27 22  1  0
M  END
>  <cnnaffinity>  (1) 
-6.2608

>  <filename>  (1) 
Fc1cncc(-c2nc(Cc3cnccc3Cl)n(-c3cccnc3)n2)c1

$$$$
