
     RDKit          3D

 26 28  0  0  0  0  0  0  0  0999 V2000
    4.9328    1.7753   16.9985 H   0  0  0  0  0  0  0  0  0  0  0  0
    5.4112    1.2848   17.8440 C   0  0  0  0  0  0  0  0  0  0  0  0
    6.5746    0.6656   17.5933 N   0  0  0  0  0  0  0  0  0  0  0  0
    7.1830    0.0499   18.6140 C   0  0  0  0  0  0  0  0  0  0  0  0
    8.1284   -0.4307   18.3742 H   0  0  0  0  0  0  0  0  0  0  0  0
    6.6523    0.0105   19.9125 C   0  0  0  0  0  0  0  0  0  0  0  0
    7.3328   -0.6816   20.9986 C   0  0  0  0  0  0  0  0  0  0  0  0
    6.9306   -0.7791   22.2248 N   0  0  0  0  0  0  0  0  0  0  0  0
    7.9104   -1.5249   22.8570 C   0  0  0  0  0  0  0  0  0  0  0  0
    7.8529   -1.8754   24.2703 C   0  0  0  0  0  0  0  0  0  0  0  0
    6.7745   -1.4589   25.0798 C   0  0  0  0  0  0  0  0  0  0  0  0
    5.9567   -0.8675   24.6816 H   0  0  0  0  0  0  0  0  0  0  0  0
    6.6890   -1.7612   26.3799 N   0  0  0  0  0  0  0  0  0  0  0  0
    7.6804   -2.4881   26.9005 C   0  0  0  0  0  0  0  0  0  0  0  0
    7.6481   -2.7563   27.9332 H   0  0  0  0  0  0  0  0  0  0  0  0
    8.7792   -2.9422   26.1760 C   0  0  0  0  0  0  0  0  0  0  0  0
    9.7076   -3.6764   26.8018 F   0  0  0  0  0  0  0  0  0  0  0  0
    8.8925   -2.6430   24.8368 C   0  0  0  0  0  0  0  0  0  0  0  0
    9.7624   -3.0099   24.2951 H   0  0  0  0  0  0  0  0  0  0  0  0
    8.8678   -1.8431   21.9561 C   0  0  0  0  0  0  0  0  0  0  0  0
    9.7898   -2.3977   22.0054 H   0  0  0  0  0  0  0  0  0  0  0  0
    8.5088   -1.3082   20.7549 O   0  0  0  0  0  0  0  0  0  0  0  0
    5.4290    0.6572   20.1627 C   0  0  0  0  0  0  0  0  0  0  0  0
    5.0057    0.6334   21.1715 H   0  0  0  0  0  0  0  0  0  0  0  0
    4.8049    1.3103   19.1053 C   0  0  0  0  0  0  0  0  0  0  0  0
    3.8747    1.8433   19.2531 H   0  0  0  0  0  0  0  0  0  0  0  0
  1  2  1  0
  2  3  2  0
  3  4  1  0
  4  5  1  0
  4  6  2  0
  6  7  1  0
  7  8  2  0
  8  9  1  0
  9 10  1  0
 10 11  2  0
 11 12  1  0
 11 13  1  0
 13 14  2  0
 14 15  1  0
 14 16  1  0
 16 17  1  0
 16 18  2  0
 18 19  1  0
  9 20  2  0
 20 21  1  0
 20 22  1  0
  6 23  1  0
 23 24  1  0
 23 25  2  0
 25 26  1  0
 25  2  1  0
 22  7  1  0
 18 10  1  0
M  END
>  <cnnaffinity>  (1) 
-5.03783

>  <filename>  (1) 
Fc1cncc(-c2coc(-c3cccnc3)n2)c1

$$$$
