
     RDKit          3D

 43 46  0  0  0  0  0  0  0  0999 V2000
   15.4216   -1.1747   19.9108 F   0  0  0  0  0  0  0  0  0  0  0  0
   14.4026   -1.1241   20.7766 C   0  0  0  0  0  0  0  0  0  0  0  0
   13.3918   -2.0459   20.5683 C   0  0  0  0  0  0  0  0  0  0  0  0
   12.1624   -1.7772   21.1328 C   0  0  0  0  0  0  0  0  0  0  0  0
   11.9349   -0.5815   21.8313 C   0  0  0  0  0  0  0  0  0  0  0  0
   10.5362   -0.1447   21.8910 C   0  0  0  0  0  0  0  0  0  0  0  0
    9.5783   -0.9236   21.4006 N   0  0  0  0  0  0  0  0  0  0  0  0
    8.4639   -0.1930   21.5403 N   0  0  0  0  0  0  0  0  0  0  0  0
    7.1931   -0.7344   21.0620 C   0  0  0  0  0  0  0  0  0  0  0  0
    6.5447    0.0440   19.9381 C   0  0  0  0  0  0  0  0  0  0  0  0
    5.3175    0.6959   20.0865 C   0  0  0  0  0  0  0  0  0  0  0  0
    4.7594    1.3602   18.9918 C   0  0  0  0  0  0  0  0  0  0  0  0
    5.4541    1.3494   17.7794 C   0  0  0  0  0  0  0  0  0  0  0  0
    6.6295    0.7226   17.6129 N   0  0  0  0  0  0  0  0  0  0  0  0
    7.1558    0.0989   18.6739 C   0  0  0  0  0  0  0  0  0  0  0  0
    8.1128   -0.3947   18.5063 H   0  0  0  0  0  0  0  0  0  0  0  0
    5.0503    1.8566   16.9034 H   0  0  0  0  0  0  0  0  0  0  0  0
    3.8203    1.8950   19.0680 H   0  0  0  0  0  0  0  0  0  0  0  0
    4.8013    0.6844   21.0478 H   0  0  0  0  0  0  0  0  0  0  0  0
    6.5087   -0.8159   21.9109 H   0  0  0  0  0  0  0  0  0  0  0  0
    7.4216   -1.7533   20.7312 H   0  0  0  0  0  0  0  0  0  0  0  0
    8.7816    0.9745   22.1377 C   0  0  0  0  0  0  0  0  0  0  0  0
    7.7540    1.8279   22.8150 C   0  0  0  0  0  0  0  0  0  0  0  0
    7.3426    1.1822   24.1292 C   0  0  0  0  0  0  0  0  0  0  0  0
    8.2093    0.9210   25.1604 C   0  0  0  0  0  0  0  0  0  0  0  0
    7.5385    0.1758   26.0841 N   0  0  0  0  0  0  0  0  0  0  0  0
    8.0342   -0.3678   27.3143 C   0  0  0  0  0  0  0  0  0  0  0  0
    9.2769   -0.8954   27.1279 F   0  0  0  0  0  0  0  0  0  0  0  0
    8.1510    0.6066   28.2529 F   0  0  0  0  0  0  0  0  0  0  0  0
    7.3333   -1.1378   27.6412 H   0  0  0  0  0  0  0  0  0  0  0  0
    6.2656   -0.0544   25.6968 N   0  0  0  0  0  0  0  0  0  0  0  0
    6.1386    0.5585   24.5294 C   0  0  0  0  0  0  0  0  0  0  0  0
    5.1979    0.5136   23.9965 H   0  0  0  0  0  0  0  0  0  0  0  0
    9.2604    1.1580   25.2591 H   0  0  0  0  0  0  0  0  0  0  0  0
    8.2237    2.7980   22.9951 H   0  0  0  0  0  0  0  0  0  0  0  0
    6.9010    1.9843   22.1474 H   0  0  0  0  0  0  0  0  0  0  0  0
   10.0880    1.0475   22.3454 N   0  0  0  0  0  0  0  0  0  0  0  0
   13.0350    0.1870   22.2534 C   0  0  0  0  0  0  0  0  0  0  0  0
   14.3031   -0.0980   21.7338 C   0  0  0  0  0  0  0  0  0  0  0  0
   15.1442    0.5500   21.9597 H   0  0  0  0  0  0  0  0  0  0  0  0
   12.8859    1.0345   22.9182 H   0  0  0  0  0  0  0  0  0  0  0  0
   11.3016   -2.4077   20.9681 H   0  0  0  0  0  0  0  0  0  0  0  0
   13.5615   -2.9111   19.9365 H   0  0  0  0  0  0  0  0  0  0  0  0
  1  2  1  0
  2  3  2  0
  3  4  1  0
  4  5  2  0
  5  6  1  0
  6  7  2  0
  7  8  1  0
  8  9  1  0
  9 10  1  0
 10 11  2  0
 11 12  1  0
 12 13  2  0
 13 14  1  0
 14 15  2  0
 15 16  1  0
 13 17  1  0
 12 18  1  0
 11 19  1  0
  9 20  1  0
  9 21  1  0
  8 22  1  0
 22 23  1  0
 23 24  1  0
 24 25  2  0
 25 26  1  0
 26 27  1  0
 27 28  1  0
 27 29  1  0
 27 30  1  0
 26 31  1  0
 31 32  2  0
 32 33  1  0
 25 34  1  0
 23 35  1  0
 23 36  1  0
 22 37  2  0
  5 38  1  0
 38 39  2  0
 39 40  1  0
 38 41  1  0
  4 42  1  0
  3 43  1  0
 39  2  1  0
 37  6  1  0
 15 10  1  0
 32 24  1  0
M  END
>  <cnnaffinity>  (1) 
-6.76975

>  <filename>  (1) 
Fc1ccc(-c2nc(Cc3cnn(C(F)F)c3)n(Cc3cccnc3)n2)cc1

$$$$
