
     RDKit          3D

 44 47  0  0  0  0  0  0  0  0999 V2000
    6.4296    4.0215   28.4698 F   0  0  0  0  0  0  0  0  0  0  0  0
    6.7788    3.4243   27.3211 C   0  0  0  0  0  0  0  0  0  0  0  0
    5.8910    2.5260   26.7365 C   0  0  0  0  0  0  0  0  0  0  0  0
    6.2557    1.9064   25.5436 C   0  0  0  0  0  0  0  0  0  0  0  0
    7.4999    2.1928   24.9449 C   0  0  0  0  0  0  0  0  0  0  0  0
    7.8642    1.5485   23.6744 C   0  0  0  0  0  0  0  0  0  0  0  0
    7.1613    0.5737   23.1146 N   0  0  0  0  0  0  0  0  0  0  0  0
    7.8949    0.2531   22.0284 N   0  0  0  0  0  0  0  0  0  0  0  0
    7.3870   -0.6816   21.0290 C   0  0  0  0  0  0  0  0  0  0  0  0
    6.6516   -0.0018   19.8852 C   0  0  0  0  0  0  0  0  0  0  0  0
    5.4384    0.6480   20.1370 C   0  0  0  0  0  0  0  0  0  0  0  0
    4.7985    1.3075   19.0847 C   0  0  0  0  0  0  0  0  0  0  0  0
    5.3928    1.2991   17.8188 C   0  0  0  0  0  0  0  0  0  0  0  0
    6.5520    0.6773   17.5570 N   0  0  0  0  0  0  0  0  0  0  0  0
    7.1575    0.0535   18.5756 C   0  0  0  0  0  0  0  0  0  0  0  0
    8.1044   -0.4281   18.3253 H   0  0  0  0  0  0  0  0  0  0  0  0
    4.9252    1.8087   16.9764 H   0  0  0  0  0  0  0  0  0  0  0  0
    3.8705    1.8453   19.2333 H   0  0  0  0  0  0  0  0  0  0  0  0
    5.0333    0.6453   21.1519 H   0  0  0  0  0  0  0  0  0  0  0  0
    8.2266   -1.2782   20.6528 H   0  0  0  0  0  0  0  0  0  0  0  0
    6.7281   -1.3501   21.5899 H   0  0  0  0  0  0  0  0  0  0  0  0
    8.9889    1.0417   21.9775 C   0  0  0  0  0  0  0  0  0  0  0  0
   10.0948    0.8252   21.0003 C   0  0  0  0  0  0  0  0  0  0  0  0
   11.0721   -0.3319   21.3904 C   0  0  0  0  0  0  0  0  0  0  0  0
   11.7850   -0.0373   22.6818 C   0  0  0  0  0  0  0  0  0  0  0  0
   12.8797    0.8179   22.6965 C   0  0  0  0  0  0  0  0  0  0  0  0
   13.4024    1.1200   23.9368 C   0  0  0  0  0  0  0  0  0  0  0  0
   12.9099    0.6270   25.0722 N   0  0  0  0  0  0  0  0  0  0  0  0
   11.8386   -0.1590   24.9506 C   0  0  0  0  0  0  0  0  0  0  0  0
   11.2530   -0.5234   23.8117 N   0  0  0  0  0  0  0  0  0  0  0  0
   11.4208   -0.5627   25.8736 H   0  0  0  0  0  0  0  0  0  0  0  0
   14.2305    1.8131   24.0165 H   0  0  0  0  0  0  0  0  0  0  0  0
   13.2596    1.2855   21.8016 H   0  0  0  0  0  0  0  0  0  0  0  0
   10.5314   -1.2778   21.5113 H   0  0  0  0  0  0  0  0  0  0  0  0
   11.8110   -0.4955   20.6005 H   0  0  0  0  0  0  0  0  0  0  0  0
    9.6424    0.6303   20.0232 H   0  0  0  0  0  0  0  0  0  0  0  0
   10.6333    1.7760   20.9144 H   0  0  0  0  0  0  0  0  0  0  0  0
    8.9813    1.8945   22.9818 N   0  0  0  0  0  0  0  0  0  0  0  0
    8.3820    3.1028   25.5676 C   0  0  0  0  0  0  0  0  0  0  0  0
    8.0151    3.7275   26.7583 C   0  0  0  0  0  0  0  0  0  0  0  0
    8.6497    4.4494   27.2575 H   0  0  0  0  0  0  0  0  0  0  0  0
    9.3453    3.3288   25.1097 H   0  0  0  0  0  0  0  0  0  0  0  0
    5.5859    1.1956   25.0596 H   0  0  0  0  0  0  0  0  0  0  0  0
    4.9428    2.3325   27.2235 H   0  0  0  0  0  0  0  0  0  0  0  0
  1  2  1  0
  2  3  2  0
  3  4  1  0
  4  5  2  0
  5  6  1  0
  6  7  2  0
  7  8  1  0
  8  9  1  0
  9 10  1  0
 10 11  2  0
 11 12  1  0
 12 13  2  0
 13 14  1  0
 14 15  2  0
 15 16  1  0
 13 17  1  0
 12 18  1  0
 11 19  1  0
  9 20  1  0
  9 21  1  0
  8 22  1  0
 22 23  1  0
 23 24  1  0
 24 25  1  0
 25 26  2  0
 26 27  1  0
 27 28  2  0
 28 29  1  0
 29 30  2  0
 29 31  1  0
 27 32  1  0
 26 33  1  0
 24 34  1  0
 24 35  1  0
 23 36  1  0
 23 37  1  0
 22 38  2  0
  5 39  1  0
 39 40  2  0
 40 41  1  0
 39 42  1  0
  4 43  1  0
  3 44  1  0
 40  2  1  0
 38  6  1  0
 15 10  1  0
 30 25  1  0
M  END
>  <cnnaffinity>  (1) 
-5.86531

>  <filename>  (1) 
Fc1ccc(-c2nc(CCc3ccncn3)n(Cc3cccnc3)n2)cc1

$$$$
