
     RDKit          3D

 42 45  0  0  0  0  0  0  0  0999 V2000
    8.1567    3.4567   25.8399 F   0  0  0  0  0  0  0  0  0  0  0  0
    6.8810    3.0257   25.7386 C   0  0  0  0  0  0  0  0  0  0  0  0
    5.8879    3.7392   26.4047 C   0  0  0  0  0  0  0  0  0  0  0  0
    4.5605    3.3115   26.2872 C   0  0  0  0  0  0  0  0  0  0  0  0
    4.2457    2.1853   25.5192 C   0  0  0  0  0  0  0  0  0  0  0  0
    5.2657    1.4856   24.8660 C   0  0  0  0  0  0  0  0  0  0  0  0
    6.6037    1.8964   24.9586 C   0  0  0  0  0  0  0  0  0  0  0  0
    7.6777    1.2251   24.1535 C   0  0  0  0  0  0  0  0  0  0  0  0
    7.8230    1.8353   22.7339 C   0  0  0  0  0  0  0  0  0  0  0  0
    8.7757    1.0043   21.9476 C   0  0  0  0  0  0  0  0  0  0  0  0
   10.0838    1.1066   22.0617 N   0  0  0  0  0  0  0  0  0  0  0  0
   10.5478   -0.0841   21.5624 C   0  0  0  0  0  0  0  0  0  0  0  0
   11.9849   -0.4553   21.6902 C   0  0  0  0  0  0  0  0  0  0  0  0
   12.8506    0.2803   22.4559 C   0  0  0  0  0  0  0  0  0  0  0  0
   14.4141   -0.4017   22.4091 S   0  0  0  0  0  0  0  0  0  0  0  0
   13.8070   -1.6639   21.3940 C   0  0  0  0  0  0  0  0  0  0  0  0
   12.5611   -1.5655   21.0803 N   0  0  0  0  0  0  0  0  0  0  0  0
   14.4417   -2.4851   21.0834 H   0  0  0  0  0  0  0  0  0  0  0  0
   12.6246    1.1815   23.0100 H   0  0  0  0  0  0  0  0  0  0  0  0
    9.5839   -0.8723   21.1171 N   0  0  0  0  0  0  0  0  0  0  0  0
    8.4592   -0.1761   21.3617 N   0  0  0  0  0  0  0  0  0  0  0  0
    7.1693   -0.7468   20.9873 C   0  0  0  0  0  0  0  0  0  0  0  0
    6.4689    0.0059   19.8777 C   0  0  0  0  0  0  0  0  0  0  0  0
    5.2597    0.6796   20.0677 C   0  0  0  0  0  0  0  0  0  0  0  0
    4.6927    1.3669   18.9905 C   0  0  0  0  0  0  0  0  0  0  0  0
    5.3537    1.3461   17.7602 C   0  0  0  0  0  0  0  0  0  0  0  0
    6.5073    0.6923   17.5531 N   0  0  0  0  0  0  0  0  0  0  0  0
    7.0476    0.0538   18.5981 C   0  0  0  0  0  0  0  0  0  0  0  0
    7.9944   -0.4525   18.4093 H   0  0  0  0  0  0  0  0  0  0  0  0
    4.9472    1.8847   16.9047 H   0  0  0  0  0  0  0  0  0  0  0  0
    3.7762    1.9345   19.0989 H   0  0  0  0  0  0  0  0  0  0  0  0
    4.7751    0.6726   21.0461 H   0  0  0  0  0  0  0  0  0  0  0  0
    7.3972   -1.7705   20.6781 H   0  0  0  0  0  0  0  0  0  0  0  0
    6.5326   -0.8081   21.8805 H   0  0  0  0  0  0  0  0  0  0  0  0
    6.8556    1.9012   22.2206 H   0  0  0  0  0  0  0  0  0  0  0  0
    8.2262    2.8486   22.8117 H   0  0  0  0  0  0  0  0  0  0  0  0
    7.4524    0.1528   24.0551 H   0  0  0  0  0  0  0  0  0  0  0  0
    8.6470    1.2858   24.6652 H   0  0  0  0  0  0  0  0  0  0  0  0
    5.0286    0.6090   24.2628 H   0  0  0  0  0  0  0  0  0  0  0  0
    3.2155    1.8556   25.4231 H   0  0  0  0  0  0  0  0  0  0  0  0
    3.7724    3.8612   26.7966 H   0  0  0  0  0  0  0  0  0  0  0  0
    6.1748    4.6092   26.9872 H   0  0  0  0  0  0  0  0  0  0  0  0
  1  2  1  0
  2  3  2  0
  3  4  1  0
  4  5  2  0
  5  6  1  0
  6  7  2  0
  7  8  1  0
  8  9  1  0
  9 10  1  0
 10 11  2  0
 11 12  1  0
 12 13  1  0
 13 14  2  0
 14 15  1  0
 15 16  1  0
 16 17  2  0
 16 18  1  0
 14 19  1  0
 12 20  2  0
 20 21  1  0
 21 22  1  0
 22 23  1  0
 23 24  2  0
 24 25  1  0
 25 26  2  0
 26 27  1  0
 27 28  2  0
 28 29  1  0
 26 30  1  0
 25 31  1  0
 24 32  1  0
 22 33  1  0
 22 34  1  0
  9 35  1  0
  9 36  1  0
  8 37  1  0
  8 38  1  0
  6 39  1  0
  5 40  1  0
  4 41  1  0
  3 42  1  0
  7  2  1  0
 21 10  1  0
 28 23  1  0
 17 13  1  0
M  END
>  <cnnaffinity>  (1) 
-6.5693

>  <filename>  (1) 
Fc1ccccc1CCc1nc(-c2cscn2)nn1Cc1cccnc1

$$$$
