
     RDKit          3D

 38 41  0  0  0  0  0  0  0  0999 V2000
    5.4334    1.7186   17.0135 H   0  0  0  0  0  0  0  0  0  0  0  0
    5.9823    1.3010   17.8536 C   0  0  0  0  0  0  0  0  0  0  0  0
    7.1733    0.7481   17.5752 N   0  0  0  0  0  0  0  0  0  0  0  0
    7.8714    0.2266   18.5890 C   0  0  0  0  0  0  0  0  0  0  0  0
    8.8560   -0.1647   18.3360 H   0  0  0  0  0  0  0  0  0  0  0  0
    7.4056    0.1741   19.9147 C   0  0  0  0  0  0  0  0  0  0  0  0
    8.1710   -0.5727   20.9273 C   0  0  0  0  0  0  0  0  0  0  0  0
    9.5086   -0.5551   20.9419 N   0  0  0  0  0  0  0  0  0  0  0  0
    9.8091   -1.3675   21.9554 N   0  0  0  0  0  0  0  0  0  0  0  0
    8.7525   -1.9290   22.5591 C   0  0  0  0  0  0  0  0  0  0  0  0
    7.6331   -1.4427   21.9317 C   0  0  0  0  0  0  0  0  0  0  0  0
    6.2163   -1.9383   22.0868 C   0  0  0  0  0  0  0  0  0  0  0  0
    5.5677   -1.1191   21.7700 H   0  0  0  0  0  0  0  0  0  0  0  0
    5.9797   -2.1723   23.1314 H   0  0  0  0  0  0  0  0  0  0  0  0
    5.8960   -3.1337   21.2106 C   0  0  0  0  0  0  0  0  0  0  0  0
    5.8268   -2.9189   19.8299 C   0  0  0  0  0  0  0  0  0  0  0  0
    5.9543   -1.9076   19.4376 H   0  0  0  0  0  0  0  0  0  0  0  0
    5.5968   -3.9806   18.9618 C   0  0  0  0  0  0  0  0  0  0  0  0
    5.4804   -3.7304   17.9109 H   0  0  0  0  0  0  0  0  0  0  0  0
    5.4824   -5.2916   19.4544 C   0  0  0  0  0  0  0  0  0  0  0  0
    5.3356   -6.1655   18.8247 H   0  0  0  0  0  0  0  0  0  0  0  0
    5.5076   -5.4809   20.8320 C   0  0  0  0  0  0  0  0  0  0  0  0
    5.2879   -6.7162   21.3204 F   0  0  0  0  0  0  0  0  0  0  0  0
    5.6978   -4.4254   21.7236 C   0  0  0  0  0  0  0  0  0  0  0  0
    5.6748   -4.6337   22.7915 H   0  0  0  0  0  0  0  0  0  0  0  0
    9.1953   -2.9184   23.5863 C   0  0  0  0  0  0  0  0  0  0  0  0
    9.0338   -3.9420   23.2300 H   0  0  0  0  0  0  0  0  0  0  0  0
    8.6408   -2.8065   24.5219 H   0  0  0  0  0  0  0  0  0  0  0  0
   10.6931   -2.5681   23.7348 C   0  0  0  0  0  0  0  0  0  0  0  0
   10.7904   -1.9249   24.6121 H   0  0  0  0  0  0  0  0  0  0  0  0
   11.3284   -3.4430   23.8755 H   0  0  0  0  0  0  0  0  0  0  0  0
   11.1017   -1.7712   22.4566 C   0  0  0  0  0  0  0  0  0  0  0  0
   11.6331   -2.3723   21.7109 H   0  0  0  0  0  0  0  0  0  0  0  0
   11.7092   -0.8853   22.6553 H   0  0  0  0  0  0  0  0  0  0  0  0
    6.1844    0.8147   20.1941 C   0  0  0  0  0  0  0  0  0  0  0  0
    5.8207    0.9100   21.2171 H   0  0  0  0  0  0  0  0  0  0  0  0
    5.4579    1.3694   19.1462 C   0  0  0  0  0  0  0  0  0  0  0  0
    4.5050    1.8557   19.3190 H   0  0  0  0  0  0  0  0  0  0  0  0
  1  2  1  0
  2  3  2  0
  3  4  1  0
  4  5  1  0
  4  6  2  0
  6  7  1  0
  7  8  2  0
  8  9  1  0
  9 10  1  0
 10 11  2  0
 11 12  1  0
 12 13  1  0
 12 14  1  0
 12 15  1  0
 15 16  2  0
 16 17  1  0
 16 18  1  0
 18 19  1  0
 18 20  2  0
 20 21  1  0
 20 22  1  0
 22 23  1  0
 22 24  2  0
 24 25  1  0
 10 26  1  0
 26 27  1  0
 26 28  1  0
 26 29  1  0
 29 30  1  0
 29 31  1  0
 29 32  1  0
 32 33  1  0
 32 34  1  0
  6 35  1  0
 35 36  1  0
 35 37  2  0
 37 38  1  0
 37  2  1  0
 11  7  1  0
 24 15  1  0
 32  9  1  0
M  END
>  <cnnaffinity>  (1) 
-5.80023

>  <filename>  (1) 
Fc1cccc(Cc2c(-c3cccnc3)nn3c2CCC3)c1

$$$$
