
     RDKit          3D

 45 48  0  0  0  0  0  0  0  0999 V2000
    6.0771    4.6904   27.4152 F   0  0  0  0  0  0  0  0  0  0  0  0
    5.7840    3.6643   26.6006 C   0  0  0  0  0  0  0  0  0  0  0  0
    4.4562    3.2621   26.4339 C   0  0  0  0  0  0  0  0  0  0  0  0
    4.1116    2.2337   25.6476 N   0  0  0  0  0  0  0  0  0  0  0  0
    5.0899    1.5898   24.9951 C   0  0  0  0  0  0  0  0  0  0  0  0
    6.4453    1.9399   25.0800 C   0  0  0  0  0  0  0  0  0  0  0  0
    7.4724    1.2414   24.2497 C   0  0  0  0  0  0  0  0  0  0  0  0
    7.6075    1.8085   22.8139 C   0  0  0  0  0  0  0  0  0  0  0  0
    8.6035    0.9760   22.1001 C   0  0  0  0  0  0  0  0  0  0  0  0
    9.9121    1.0616   22.2922 N   0  0  0  0  0  0  0  0  0  0  0  0
   10.3641   -0.1340   21.8514 C   0  0  0  0  0  0  0  0  0  0  0  0
   11.7815   -0.5395   21.8022 C   0  0  0  0  0  0  0  0  0  0  0  0
   12.8629    0.2555   22.2375 C   0  0  0  0  0  0  0  0  0  0  0  0
   14.1602   -0.1117   21.8566 C   0  0  0  0  0  0  0  0  0  0  0  0
   14.3533   -1.2093   21.0000 C   0  0  0  0  0  0  0  0  0  0  0  0
   13.2988   -2.0502   20.6763 C   0  0  0  0  0  0  0  0  0  0  0  0
   12.0326   -1.7624   21.1629 C   0  0  0  0  0  0  0  0  0  0  0  0
   11.1758   -2.4101   21.0193 H   0  0  0  0  0  0  0  0  0  0  0  0
   13.4891   -2.8750   19.9978 H   0  0  0  0  0  0  0  0  0  0  0  0
   15.2846   -1.4284   20.5026 H   0  0  0  0  0  0  0  0  0  0  0  0
   15.0027    0.5157   22.1335 H   0  0  0  0  0  0  0  0  0  0  0  0
   12.6836    1.1640   22.8153 H   0  0  0  0  0  0  0  0  0  0  0  0
    9.4091   -0.9317   21.3860 N   0  0  0  0  0  0  0  0  0  0  0  0
    8.2896   -0.2029   21.5196 N   0  0  0  0  0  0  0  0  0  0  0  0
    7.0150   -0.7283   21.0353 C   0  0  0  0  0  0  0  0  0  0  0  0
    6.3927    0.0541   19.8959 C   0  0  0  0  0  0  0  0  0  0  0  0
    5.1740    0.7315   20.0152 C   0  0  0  0  0  0  0  0  0  0  0  0
    4.6695    1.4215   18.9093 C   0  0  0  0  0  0  0  0  0  0  0  0
    5.3989    1.3999   17.7189 C   0  0  0  0  0  0  0  0  0  0  0  0
    6.5555    0.7357   17.5743 N   0  0  0  0  0  0  0  0  0  0  0  0
    7.0326    0.0899   18.6449 C   0  0  0  0  0  0  0  0  0  0  0  0
    7.9662   -0.4505   18.4910 H   0  0  0  0  0  0  0  0  0  0  0  0
    5.0384    1.9356   16.8420 H   0  0  0  0  0  0  0  0  0  0  0  0
    3.7442    1.9833   18.9622 H   0  0  0  0  0  0  0  0  0  0  0  0
    4.6210    0.7177   20.9564 H   0  0  0  0  0  0  0  0  0  0  0  0
    7.2462   -1.7485   20.7192 H   0  0  0  0  0  0  0  0  0  0  0  0
    6.3186   -0.8084   21.8783 H   0  0  0  0  0  0  0  0  0  0  0  0
    6.6497    1.8028   22.2844 H   0  0  0  0  0  0  0  0  0  0  0  0
    7.9671    2.8393   22.8316 H   0  0  0  0  0  0  0  0  0  0  0  0
    7.2312    0.1696   24.1826 H   0  0  0  0  0  0  0  0  0  0  0  0
    8.4579    1.3054   24.7289 H   0  0  0  0  0  0  0  0  0  0  0  0
    6.8011    3.0019   25.9272 C   0  0  0  0  0  0  0  0  0  0  0  0
    7.8340    3.3126   26.0641 H   0  0  0  0  0  0  0  0  0  0  0  0
    4.7794    0.7456   24.3788 H   0  0  0  0  0  0  0  0  0  0  0  0
    3.6622    3.7833   26.9637 H   0  0  0  0  0  0  0  0  0  0  0  0
  1  2  1  0
  2  3  2  0
  3  4  1  0
  4  5  2  0
  5  6  1  0
  6  7  1  0
  7  8  1  0
  8  9  1  0
  9 10  2  0
 10 11  1  0
 11 12  1  0
 12 13  2  0
 13 14  1  0
 14 15  2  0
 15 16  1  0
 16 17  2  0
 17 18  1  0
 16 19  1  0
 15 20  1  0
 14 21  1  0
 13 22  1  0
 11 23  2  0
 23 24  1  0
 24 25  1  0
 25 26  1  0
 26 27  2  0
 27 28  1  0
 28 29  2  0
 29 30  1  0
 30 31  2  0
 31 32  1  0
 29 33  1  0
 28 34  1  0
 27 35  1  0
 25 36  1  0
 25 37  1  0
  8 38  1  0
  8 39  1  0
  7 40  1  0
  7 41  1  0
  6 42  2  0
 42 43  1  0
  5 44  1  0
  3 45  1  0
 42  2  1  0
 24  9  1  0
 31 26  1  0
 17 12  1  0
M  END
>  <cnnaffinity>  (1) 
-6.57922

>  <filename>  (1) 
Fc1cncc(CCc2nc(-c3ccccc3)nn2Cc2cccnc2)c1

$$$$
