
     RDKit          3D

 39 42  0  0  0  0  0  0  0  0999 V2000
    6.2234    3.7704   28.6654 F   0  0  0  0  0  0  0  0  0  0  0  0
    6.5851    3.1969   27.5089 C   0  0  0  0  0  0  0  0  0  0  0  0
    7.7751    3.5923   26.9073 C   0  0  0  0  0  0  0  0  0  0  0  0
    8.1397    3.0036   25.7011 C   0  0  0  0  0  0  0  0  0  0  0  0
    7.3152    2.0372   25.0905 C   0  0  0  0  0  0  0  0  0  0  0  0
    7.7246    1.4616   23.7961 C   0  0  0  0  0  0  0  0  0  0  0  0
    7.0885    0.4722   23.1884 N   0  0  0  0  0  0  0  0  0  0  0  0
    7.8251    0.2685   22.0720 N   0  0  0  0  0  0  0  0  0  0  0  0
    7.3829   -0.6666   21.0383 C   0  0  0  0  0  0  0  0  0  0  0  0
    6.6761    0.0121   19.8827 C   0  0  0  0  0  0  0  0  0  0  0  0
    5.4668    0.6790   20.1189 C   0  0  0  0  0  0  0  0  0  0  0  0
    4.8354    1.3236   19.0556 C   0  0  0  0  0  0  0  0  0  0  0  0
    5.4434    1.2846   17.7974 C   0  0  0  0  0  0  0  0  0  0  0  0
    6.5909    0.6355   17.5451 N   0  0  0  0  0  0  0  0  0  0  0  0
    7.1797    0.0128   18.5741 C   0  0  0  0  0  0  0  0  0  0  0  0
    8.0989   -0.5314   18.3389 H   0  0  0  0  0  0  0  0  0  0  0  0
    4.9900    1.7915   16.9497 H   0  0  0  0  0  0  0  0  0  0  0  0
    3.8980    1.8549   19.1897 H   0  0  0  0  0  0  0  0  0  0  0  0
    5.0463    0.6856   21.1259 H   0  0  0  0  0  0  0  0  0  0  0  0
    8.2633   -1.2264   20.7034 H   0  0  0  0  0  0  0  0  0  0  0  0
    6.7039   -1.3570   21.5487 H   0  0  0  0  0  0  0  0  0  0  0  0
    8.8464    1.1489   22.0549 C   0  0  0  0  0  0  0  0  0  0  0  0
    9.9749    1.1096   21.0930 C   0  0  0  0  0  0  0  0  0  0  0  0
   10.9320    0.0266   21.4765 C   0  0  0  0  0  0  0  0  0  0  0  0
   10.6726   -1.2030   21.1292 N   0  0  0  0  0  0  0  0  0  0  0  0
   11.7022   -1.9689   21.6136 O   0  0  0  0  0  0  0  0  0  0  0  0
   12.5552   -1.1781   22.2735 C   0  0  0  0  0  0  0  0  0  0  0  0
   12.1298    0.1073   22.2403 C   0  0  0  0  0  0  0  0  0  0  0  0
   12.5613    0.9817   22.7092 H   0  0  0  0  0  0  0  0  0  0  0  0
   13.4243   -1.6857   22.6638 H   0  0  0  0  0  0  0  0  0  0  0  0
    9.6053    0.9306   20.0814 H   0  0  0  0  0  0  0  0  0  0  0  0
   10.4808    2.0738   21.1301 H   0  0  0  0  0  0  0  0  0  0  0  0
    8.8183    1.9121   23.1181 N   0  0  0  0  0  0  0  0  0  0  0  0
    6.1202    1.6510   25.7326 C   0  0  0  0  0  0  0  0  0  0  0  0
    5.7519    2.2356   26.9432 C   0  0  0  0  0  0  0  0  0  0  0  0
    4.8306    1.9748   27.4506 H   0  0  0  0  0  0  0  0  0  0  0  0
    5.4821    0.8896   25.2877 H   0  0  0  0  0  0  0  0  0  0  0  0
    9.0709    3.2898   25.2179 H   0  0  0  0  0  0  0  0  0  0  0  0
    8.3774    4.3600   27.3767 H   0  0  0  0  0  0  0  0  0  0  0  0
  1  2  1  0
  2  3  2  0
  3  4  1  0
  4  5  2  0
  5  6  1  0
  6  7  2  0
  7  8  1  0
  8  9  1  0
  9 10  1  0
 10 11  2  0
 11 12  1  0
 12 13  2  0
 13 14  1  0
 14 15  2  0
 15 16  1  0
 13 17  1  0
 12 18  1  0
 11 19  1  0
  9 20  1  0
  9 21  1  0
  8 22  1  0
 22 23  1  0
 23 24  1  0
 24 25  2  0
 25 26  1  0
 26 27  1  0
 27 28  2  0
 28 29  1  0
 27 30  1  0
 23 31  1  0
 23 32  1  0
 22 33  2  0
  5 34  1  0
 34 35  2  0
 35 36  1  0
 34 37  1  0
  4 38  1  0
  3 39  1  0
 35  2  1  0
 33  6  1  0
 15 10  1  0
 28 24  1  0
M  END
>  <cnnaffinity>  (1) 
-6.12963

>  <filename>  (1) 
Fc1ccc(-c2nc(Cc3ccon3)n(Cc3cccnc3)n2)cc1

$$$$
