
     RDKit          3D

 43 46  0  0  0  0  0  0  0  0999 V2000
    7.2376    7.2587   20.9044 F   0  0  0  0  0  0  0  0  0  0  0  0
    7.4478    6.1939   21.6974 C   0  0  0  0  0  0  0  0  0  0  0  0
    6.3642    5.3855   22.0344 C   0  0  0  0  0  0  0  0  0  0  0  0
    6.5679    4.3415   22.9414 C   0  0  0  0  0  0  0  0  0  0  0  0
    7.8379    4.0806   23.4877 C   0  0  0  0  0  0  0  0  0  0  0  0
    8.0285    2.9468   24.4697 C   0  0  0  0  0  0  0  0  0  0  0  0
    8.4038    1.6237   23.7894 C   0  0  0  0  0  0  0  0  0  0  0  0
    7.3256    1.1356   22.8022 C   0  0  0  0  0  0  0  0  0  0  0  0
    7.6283   -0.1996   22.2106 C   0  0  0  0  0  0  0  0  0  0  0  0
    8.2502   -1.1574   22.8679 N   0  0  0  0  0  0  0  0  0  0  0  0
    8.2777   -2.1791   21.9835 C   0  0  0  0  0  0  0  0  0  0  0  0
    8.9126   -3.4678   22.3386 C   0  0  0  0  0  0  0  0  0  0  0  0
    8.2158   -4.7831   22.0623 C   0  0  0  0  0  0  0  0  0  0  0  0
    8.4183   -4.3359   23.4764 C   0  0  0  0  0  0  0  0  0  0  0  0
    9.1897   -4.8437   24.0518 H   0  0  0  0  0  0  0  0  0  0  0  0
    7.5482   -4.0157   24.0448 H   0  0  0  0  0  0  0  0  0  0  0  0
    8.7778   -5.6362   21.6923 H   0  0  0  0  0  0  0  0  0  0  0  0
    7.2039   -4.7076   21.6676 H   0  0  0  0  0  0  0  0  0  0  0  0
    9.9959   -3.3606   22.2805 H   0  0  0  0  0  0  0  0  0  0  0  0
    7.7456   -1.9113   20.8058 N   0  0  0  0  0  0  0  0  0  0  0  0
    7.2899   -0.6423   20.9590 N   0  0  0  0  0  0  0  0  0  0  0  0
    6.6019    0.0086   19.8910 C   0  0  0  0  0  0  0  0  0  0  0  0
    5.3933    0.6830   20.1021 C   0  0  0  0  0  0  0  0  0  0  0  0
    4.8017    1.3352   19.0172 C   0  0  0  0  0  0  0  0  0  0  0  0
    5.4358    1.3006   17.7731 C   0  0  0  0  0  0  0  0  0  0  0  0
    6.5788    0.6250   17.5557 N   0  0  0  0  0  0  0  0  0  0  0  0
    7.1330   -0.0194   18.5878 C   0  0  0  0  0  0  0  0  0  0  0  0
    8.0418   -0.5764   18.3757 H   0  0  0  0  0  0  0  0  0  0  0  0
    5.0032    1.8196   16.9197 H   0  0  0  0  0  0  0  0  0  0  0  0
    3.8639    1.8686   19.1280 H   0  0  0  0  0  0  0  0  0  0  0  0
    4.9216    0.6893   21.0859 H   0  0  0  0  0  0  0  0  0  0  0  0
    7.1771    1.8702   21.9993 H   0  0  0  0  0  0  0  0  0  0  0  0
    6.3676    1.0375   23.3383 H   0  0  0  0  0  0  0  0  0  0  0  0
    8.5563    0.8557   24.5601 H   0  0  0  0  0  0  0  0  0  0  0  0
    9.3635    1.7460   23.2642 H   0  0  0  0  0  0  0  0  0  0  0  0
    7.1033    2.8015   25.0477 H   0  0  0  0  0  0  0  0  0  0  0  0
    8.8062    3.2105   25.1982 H   0  0  0  0  0  0  0  0  0  0  0  0
    8.9269    4.8516   23.0427 C   0  0  0  0  0  0  0  0  0  0  0  0
    8.7323    5.9254   22.1661 C   0  0  0  0  0  0  0  0  0  0  0  0
    9.5519    6.5522   21.8328 H   0  0  0  0  0  0  0  0  0  0  0  0
    9.9440    4.6101   23.3608 H   0  0  0  0  0  0  0  0  0  0  0  0
    5.7170    3.7243   23.2269 H   0  0  0  0  0  0  0  0  0  0  0  0
    5.3996    5.5647   21.5761 H   0  0  0  0  0  0  0  0  0  0  0  0
  1  2  1  0
  2  3  2  0
  3  4  1  0
  4  5  2  0
  5  6  1  0
  6  7  1  0
  7  8  1  0
  8  9  1  0
  9 10  2  0
 10 11  1  0
 11 12  1  0
 12 13  1  0
 13 14  1  0
 14 15  1  0
 14 16  1  0
 13 17  1  0
 13 18  1  0
 12 19  1  0
 11 20  2  0
 20 21  1  0
 21 22  1  0
 22 23  2  0
 23 24  1  0
 24 25  2  0
 25 26  1  0
 26 27  2  0
 27 28  1  0
 25 29  1  0
 24 30  1  0
 23 31  1  0
  8 32  1  0
  8 33  1  0
  7 34  1  0
  7 35  1  0
  6 36  1  0
  6 37  1  0
  5 38  1  0
 38 39  2  0
 39 40  1  0
 38 41  1  0
  4 42  1  0
  3 43  1  0
 39  2  1  0
 21  9  1  0
 27 22  1  0
 14 12  1  0
M  END
>  <cnnaffinity>  (1) 
-5.92828

>  <filename>  (1) 
Fc1ccc(CCCc2nc(C3CC3)nn2-c2cccnc2)cc1

$$$$
