
     RDKit          3D

 45 48  0  0  0  0  0  0  0  0999 V2000
   12.5650    1.3030   24.8402 F   0  0  0  0  0  0  0  0  0  0  0  0
   11.2221    1.3378   24.8610 C   0  0  0  0  0  0  0  0  0  0  0  0
   10.5492    0.9071   25.9954 C   0  0  0  0  0  0  0  0  0  0  0  0
    9.1501    0.9663   26.0032 C   0  0  0  0  0  0  0  0  0  0  0  0
    8.4611    1.3814   24.8704 C   0  0  0  0  0  0  0  0  0  0  0  0
    7.1119    1.3897   24.8976 F   0  0  0  0  0  0  0  0  0  0  0  0
    9.1491    1.7727   23.6984 C   0  0  0  0  0  0  0  0  0  0  0  0
    8.4138    2.0955   22.6042 O   0  0  0  0  0  0  0  0  0  0  0  0
    9.0079    2.0136   21.3091 C   0  0  0  0  0  0  0  0  0  0  0  0
    9.5382    0.6110   20.9446 C   0  0  0  0  0  0  0  0  0  0  0  0
    8.6433   -0.4891   21.4036 C   0  0  0  0  0  0  0  0  0  0  0  0
    8.8800   -1.3433   22.3813 N   0  0  0  0  0  0  0  0  0  0  0  0
    7.6698   -1.9263   22.5796 C   0  0  0  0  0  0  0  0  0  0  0  0
    7.4011   -2.8094   23.7526 C   0  0  0  0  0  0  0  0  0  0  0  0
    6.6241   -2.1120   24.9026 C   0  0  0  0  0  0  0  0  0  0  0  0
    5.8982   -3.2814   25.5848 C   0  0  0  0  0  0  0  0  0  0  0  0
    5.9181   -4.3787   24.6839 O   0  0  0  0  0  0  0  0  0  0  0  0
    6.4975   -4.0114   23.4484 C   0  0  0  0  0  0  0  0  0  0  0  0
    7.0542   -4.8788   23.0779 H   0  0  0  0  0  0  0  0  0  0  0  0
    5.7241   -3.7388   22.7122 H   0  0  0  0  0  0  0  0  0  0  0  0
    4.8618   -3.0207   25.8360 H   0  0  0  0  0  0  0  0  0  0  0  0
    6.3963   -3.5958   26.5096 H   0  0  0  0  0  0  0  0  0  0  0  0
    5.8984   -1.3958   24.4910 H   0  0  0  0  0  0  0  0  0  0  0  0
    7.2828   -1.5675   25.5883 H   0  0  0  0  0  0  0  0  0  0  0  0
    8.3742   -3.1518   24.1196 H   0  0  0  0  0  0  0  0  0  0  0  0
    6.7230   -1.5358   21.7439 N   0  0  0  0  0  0  0  0  0  0  0  0
    7.3643   -0.6281   20.9645 N   0  0  0  0  0  0  0  0  0  0  0  0
    6.6757    0.0132   19.9008 C   0  0  0  0  0  0  0  0  0  0  0  0
    5.4534    0.6398   20.1565 C   0  0  0  0  0  0  0  0  0  0  0  0
    4.8273    1.3066   19.1036 C   0  0  0  0  0  0  0  0  0  0  0  0
    5.4222    1.3029   17.8361 C   0  0  0  0  0  0  0  0  0  0  0  0
    6.5745    0.6649   17.5765 N   0  0  0  0  0  0  0  0  0  0  0  0
    7.1786    0.0336   18.5890 C   0  0  0  0  0  0  0  0  0  0  0  0
    8.1020   -0.4927   18.3477 H   0  0  0  0  0  0  0  0  0  0  0  0
    4.9526    1.8182   17.0008 H   0  0  0  0  0  0  0  0  0  0  0  0
    3.8876    1.8232   19.2536 H   0  0  0  0  0  0  0  0  0  0  0  0
    5.0261    0.5909   21.1590 H   0  0  0  0  0  0  0  0  0  0  0  0
    9.6484    0.5597   19.8626 H   0  0  0  0  0  0  0  0  0  0  0  0
   10.5198    0.4325   21.3893 H   0  0  0  0  0  0  0  0  0  0  0  0
    8.2036    2.2971   20.6265 H   0  0  0  0  0  0  0  0  0  0  0  0
    9.8085    2.7620   21.2202 H   0  0  0  0  0  0  0  0  0  0  0  0
   10.5512    1.8020   23.7312 C   0  0  0  0  0  0  0  0  0  0  0  0
   11.1128    2.1730   22.8808 H   0  0  0  0  0  0  0  0  0  0  0  0
    8.5757    0.6891   26.8861 H   0  0  0  0  0  0  0  0  0  0  0  0
   11.1023    0.5325   26.8503 H   0  0  0  0  0  0  0  0  0  0  0  0
  1  2  1  0
  2  3  2  0
  3  4  1  0
  4  5  2  0
  5  6  1  0
  5  7  1  0
  7  8  1  0
  8  9  1  0
  9 10  1  0
 10 11  1  0
 11 12  2  0
 12 13  1  0
 13 14  1  0
 14 15  1  0
 15 16  1  0
 16 17  1  0
 17 18  1  0
 18 19  1  0
 18 20  1  0
 16 21  1  0
 16 22  1  0
 15 23  1  0
 15 24  1  0
 14 25  1  0
 13 26  2  0
 26 27  1  0
 27 28  1  0
 28 29  2  0
 29 30  1  0
 30 31  2  0
 31 32  1  0
 32 33  2  0
 33 34  1  0
 31 35  1  0
 30 36  1  0
 29 37  1  0
 10 38  1  0
 10 39  1  0
  9 40  1  0
  9 41  1  0
  7 42  2  0
 42 43  1  0
  4 44  1  0
  3 45  1  0
 42  2  1  0
 27 11  1  0
 33 28  1  0
 18 14  1  0
M  END
>  <cnnaffinity>  (1) 
-6.10102

>  <filename>  (1) 
Fc1ccc(F)c(OCCc2nc(C3CCOC3)nn2-c2cccnc2)c1

$$$$
