
     RDKit          3D

 39 42  0  0  0  0  0  0  0  0999 V2000
   14.9391   -1.4701   20.5137 F   0  0  0  0  0  0  0  0  0  0  0  0
   13.7746   -1.2666   21.1286 C   0  0  0  0  0  0  0  0  0  0  0  0
   12.7057   -1.9945   20.6525 C   0  0  0  0  0  0  0  0  0  0  0  0
   11.4333   -1.7528   21.1454 C   0  0  0  0  0  0  0  0  0  0  0  0
   11.2229   -0.7086   22.0610 C   0  0  0  0  0  0  0  0  0  0  0  0
    9.8367   -0.2633   22.2688 C   0  0  0  0  0  0  0  0  0  0  0  0
    8.8235   -0.9669   21.7827 N   0  0  0  0  0  0  0  0  0  0  0  0
    7.7514   -0.1932   22.0348 N   0  0  0  0  0  0  0  0  0  0  0  0
    6.4639   -0.5174   21.4362 C   0  0  0  0  0  0  0  0  0  0  0  0
    6.1755    0.2429   20.1557 C   0  0  0  0  0  0  0  0  0  0  0  0
    4.9802    0.9338   19.9353 C   0  0  0  0  0  0  0  0  0  0  0  0
    4.7946    1.5796   18.7108 C   0  0  0  0  0  0  0  0  0  0  0  0
    5.8086    1.5065   17.7533 C   0  0  0  0  0  0  0  0  0  0  0  0
    6.9556    0.8373   17.9382 N   0  0  0  0  0  0  0  0  0  0  0  0
    7.1255    0.2399   19.1195 C   0  0  0  0  0  0  0  0  0  0  0  0
    8.0741   -0.2710   19.2743 H   0  0  0  0  0  0  0  0  0  0  0  0
    5.7082    2.0129   16.7966 H   0  0  0  0  0  0  0  0  0  0  0  0
    3.8966    2.1461   18.4882 H   0  0  0  0  0  0  0  0  0  0  0  0
    4.2074    0.9824   20.7063 H   0  0  0  0  0  0  0  0  0  0  0  0
    5.6971   -0.3151   22.1796 H   0  0  0  0  0  0  0  0  0  0  0  0
    6.4808   -1.5982   21.2585 H   0  0  0  0  0  0  0  0  0  0  0  0
    8.1583    0.9355   22.6546 C   0  0  0  0  0  0  0  0  0  0  0  0
    7.2231    1.9532   23.2316 C   0  0  0  0  0  0  0  0  0  0  0  0
    6.7233    1.5178   24.5942 C   0  0  0  0  0  0  0  0  0  0  0  0
    7.5316    1.1369   25.6277 C   0  0  0  0  0  0  0  0  0  0  0  0
    6.7563    0.6959   26.7364 C   0  0  0  0  0  0  0  0  0  0  0  0
    5.4545    0.7496   26.5983 N   0  0  0  0  0  0  0  0  0  0  0  0
    5.0921    1.3503   25.0929 S   0  0  0  0  0  0  0  0  0  0  0  0
    7.1618    0.3067   27.6673 H   0  0  0  0  0  0  0  0  0  0  0  0
    8.6133    1.1491   25.5673 H   0  0  0  0  0  0  0  0  0  0  0  0
    6.3939    2.1546   22.5480 H   0  0  0  0  0  0  0  0  0  0  0  0
    7.8019    2.8789   23.3262 H   0  0  0  0  0  0  0  0  0  0  0  0
    9.4652    0.9175   22.8272 N   0  0  0  0  0  0  0  0  0  0  0  0
   12.3357   -0.0320   22.5981 C   0  0  0  0  0  0  0  0  0  0  0  0
   13.6226   -0.2909   22.1123 C   0  0  0  0  0  0  0  0  0  0  0  0
   14.4917    0.2827   22.4083 H   0  0  0  0  0  0  0  0  0  0  0  0
   12.1813    0.7356   23.3510 H   0  0  0  0  0  0  0  0  0  0  0  0
   10.5725   -2.3199   20.7918 H   0  0  0  0  0  0  0  0  0  0  0  0
   12.9175   -2.7023   19.8603 H   0  0  0  0  0  0  0  0  0  0  0  0
  1  2  1  0
  2  3  2  0
  3  4  1  0
  4  5  2  0
  5  6  1  0
  6  7  2  0
  7  8  1  0
  8  9  1  0
  9 10  1  0
 10 11  2  0
 11 12  1  0
 12 13  2  0
 13 14  1  0
 14 15  2  0
 15 16  1  0
 13 17  1  0
 12 18  1  0
 11 19  1  0
  9 20  1  0
  9 21  1  0
  8 22  1  0
 22 23  1  0
 23 24  1  0
 24 25  2  0
 25 26  1  0
 26 27  2  0
 27 28  1  0
 26 29  1  0
 25 30  1  0
 23 31  1  0
 23 32  1  0
 22 33  2  0
  5 34  1  0
 34 35  2  0
 35 36  1  0
 34 37  1  0
  4 38  1  0
  3 39  1  0
 35  2  1  0
 33  6  1  0
 15 10  1  0
 28 24  1  0
M  END
>  <cnnaffinity>  (1) 
-6.33375

>  <filename>  (1) 
Fc1ccc(-c2nc(Cc3ccns3)n(Cc3cccnc3)n2)cc1

$$$$
