
     RDKit          3D

 44 47  0  0  0  0  0  0  0  0999 V2000
    3.6259    6.9037   22.6493 F   0  0  0  0  0  0  0  0  0  0  0  0
    4.5410    5.9524   22.4265 C   0  0  0  0  0  0  0  0  0  0  0  0
    4.1851    4.7309   21.8723 C   0  0  0  0  0  0  0  0  0  0  0  0
    5.0707    3.7467   21.7127 N   0  0  0  0  0  0  0  0  0  0  0  0
    6.3381    4.0162   22.0544 C   0  0  0  0  0  0  0  0  0  0  0  0
    7.3171    2.9051   21.8993 C   0  0  0  0  0  0  0  0  0  0  0  0
    7.1995    1.8088   23.0013 C   0  0  0  0  0  0  0  0  0  0  0  0
    8.0808    0.6494   22.7060 C   0  0  0  0  0  0  0  0  0  0  0  0
    9.3796    0.6734   22.9457 N   0  0  0  0  0  0  0  0  0  0  0  0
    9.8301   -0.4342   22.3161 C   0  0  0  0  0  0  0  0  0  0  0  0
   11.2482   -0.7378   22.0802 C   0  0  0  0  0  0  0  0  0  0  0  0
   12.2854    0.0386   22.6196 C   0  0  0  0  0  0  0  0  0  0  0  0
   13.5877   -0.1880   22.1770 C   0  0  0  0  0  0  0  0  0  0  0  0
   14.8146    0.9168   22.6753 Cl  0  0  0  0  0  0  0  0  0  0  0  0
   13.8915   -1.1925   21.2474 C   0  0  0  0  0  0  0  0  0  0  0  0
   12.8462   -1.9459   20.7247 C   0  0  0  0  0  0  0  0  0  0  0  0
   11.5430   -1.7593   21.1691 C   0  0  0  0  0  0  0  0  0  0  0  0
   10.7100   -2.3470   20.7885 H   0  0  0  0  0  0  0  0  0  0  0  0
   13.0473   -2.6447   19.9197 H   0  0  0  0  0  0  0  0  0  0  0  0
   14.8884   -1.3482   20.8565 H   0  0  0  0  0  0  0  0  0  0  0  0
   12.0939    0.8364   23.3387 H   0  0  0  0  0  0  0  0  0  0  0  0
    8.8772   -1.1484   21.7336 N   0  0  0  0  0  0  0  0  0  0  0  0
    7.7556   -0.4607   22.0020 N   0  0  0  0  0  0  0  0  0  0  0  0
    6.5311   -0.8563   21.3132 C   0  0  0  0  0  0  0  0  0  0  0  0
    6.1979    0.0042   20.1157 C   0  0  0  0  0  0  0  0  0  0  0  0
    5.1127    0.8823   20.1109 C   0  0  0  0  0  0  0  0  0  0  0  0
    4.8579    1.6450   18.9699 C   0  0  0  0  0  0  0  0  0  0  0  0
    5.6875    1.4800   17.8583 C   0  0  0  0  0  0  0  0  0  0  0  0
    6.7453    0.6547   17.8476 N   0  0  0  0  0  0  0  0  0  0  0  0
    6.9975   -0.0396   18.9642 C   0  0  0  0  0  0  0  0  0  0  0  0
    7.8796   -0.6804   18.9339 H   0  0  0  0  0  0  0  0  0  0  0  0
    5.5035    2.0379   16.9423 H   0  0  0  0  0  0  0  0  0  0  0  0
    4.0553    2.3750   18.9452 H   0  0  0  0  0  0  0  0  0  0  0  0
    4.5019    1.0134   21.0034 H   0  0  0  0  0  0  0  0  0  0  0  0
    6.6978   -1.8991   21.0226 H   0  0  0  0  0  0  0  0  0  0  0  0
    5.7138   -0.8389   22.0260 H   0  0  0  0  0  0  0  0  0  0  0  0
    6.1605    1.4788   23.1267 H   0  0  0  0  0  0  0  0  0  0  0  0
    7.5375    2.2190   23.9576 H   0  0  0  0  0  0  0  0  0  0  0  0
    8.3271    3.3245   21.8946 H   0  0  0  0  0  0  0  0  0  0  0  0
    7.1397    2.4671   20.9145 H   0  0  0  0  0  0  0  0  0  0  0  0
    6.7804    5.1752   22.5491 N   0  0  0  0  0  0  0  0  0  0  0  0
    5.8810    6.1418   22.7290 C   0  0  0  0  0  0  0  0  0  0  0  0
    6.2467    7.0912   23.1234 H   0  0  0  0  0  0  0  0  0  0  0  0
    3.1620    4.5400   21.5545 H   0  0  0  0  0  0  0  0  0  0  0  0
  1  2  1  0
  2  3  2  0
  3  4  1  0
  4  5  2  0
  5  6  1  0
  6  7  1  0
  7  8  1  0
  8  9  2  0
  9 10  1  0
 10 11  1  0
 11 12  2  0
 12 13  1  0
 13 14  1  0
 13 15  2  0
 15 16  1  0
 16 17  2  0
 17 18  1  0
 16 19  1  0
 15 20  1  0
 12 21  1  0
 10 22  2  0
 22 23  1  0
 23 24  1  0
 24 25  1  0
 25 26  2  0
 26 27  1  0
 27 28  2  0
 28 29  1  0
 29 30  2  0
 30 31  1  0
 28 32  1  0
 27 33  1  0
 26 34  1  0
 24 35  1  0
 24 36  1  0
  7 37  1  0
  7 38  1  0
  6 39  1  0
  6 40  1  0
  5 41  1  0
 41 42  2  0
 42 43  1  0
  3 44  1  0
 42  2  1  0
 23  8  1  0
 30 25  1  0
 17 11  1  0
M  END
>  <cnnaffinity>  (1) 
-6.47417

>  <filename>  (1) 
Fc1cnc(CCc2nc(-c3cccc(Cl)c3)nn2Cc2cccnc2)nc1

$$$$
