
     RDKit          3D

 39 42  0  0  0  0  0  0  0  0999 V2000
    6.1569    3.7029   28.7735 F   0  0  0  0  0  0  0  0  0  0  0  0
    6.5044    3.1470   27.6032 C   0  0  0  0  0  0  0  0  0  0  0  0
    5.6854    2.1663   27.0482 C   0  0  0  0  0  0  0  0  0  0  0  0
    6.0489    1.5833   25.8320 C   0  0  0  0  0  0  0  0  0  0  0  0
    7.2329    1.9858   25.1766 C   0  0  0  0  0  0  0  0  0  0  0  0
    7.6785    1.4096   23.8865 C   0  0  0  0  0  0  0  0  0  0  0  0
    7.0487    0.4669   23.2053 N   0  0  0  0  0  0  0  0  0  0  0  0
    7.8304    0.2920   22.1110 N   0  0  0  0  0  0  0  0  0  0  0  0
    7.4370   -0.6410   21.0555 C   0  0  0  0  0  0  0  0  0  0  0  0
    6.7134    0.0201   19.8962 C   0  0  0  0  0  0  0  0  0  0  0  0
    5.5003    0.6860   20.1165 C   0  0  0  0  0  0  0  0  0  0  0  0
    4.8763    1.3157   19.0376 C   0  0  0  0  0  0  0  0  0  0  0  0
    5.4852    1.2605   17.7808 C   0  0  0  0  0  0  0  0  0  0  0  0
    6.6328    0.6067   17.5439 N   0  0  0  0  0  0  0  0  0  0  0  0
    7.2178    0.0031   18.5867 C   0  0  0  0  0  0  0  0  0  0  0  0
    8.1401   -0.5377   18.3600 H   0  0  0  0  0  0  0  0  0  0  0  0
    5.0291    1.7567   16.9256 H   0  0  0  0  0  0  0  0  0  0  0  0
    3.9401    1.8505   19.1575 H   0  0  0  0  0  0  0  0  0  0  0  0
    5.0641    0.7106   21.1176 H   0  0  0  0  0  0  0  0  0  0  0  0
    8.3297   -1.1703   20.7025 H   0  0  0  0  0  0  0  0  0  0  0  0
    6.7922   -1.3816   21.5396 H   0  0  0  0  0  0  0  0  0  0  0  0
    8.8683    1.1546   22.1712 C   0  0  0  0  0  0  0  0  0  0  0  0
    9.9631    1.3151   21.1865 C   0  0  0  0  0  0  0  0  0  0  0  0
   11.1540    0.5020   21.5802 C   0  0  0  0  0  0  0  0  0  0  0  0
   12.0768    0.7890   22.5329 C   0  0  0  0  0  0  0  0  0  0  0  0
   13.2675   -0.4549   22.5909 S   0  0  0  0  0  0  0  0  0  0  0  0
   12.3828   -1.3055   21.3751 C   0  0  0  0  0  0  0  0  0  0  0  0
   11.3169   -0.7040   20.9445 N   0  0  0  0  0  0  0  0  0  0  0  0
   12.7286   -2.2698   21.0184 H   0  0  0  0  0  0  0  0  0  0  0  0
   12.0926    1.6420   23.1965 H   0  0  0  0  0  0  0  0  0  0  0  0
    9.6448    0.9758   20.2010 H   0  0  0  0  0  0  0  0  0  0  0  0
   10.2059    2.3822   21.1477 H   0  0  0  0  0  0  0  0  0  0  0  0
    8.8181    1.8489   23.2804 N   0  0  0  0  0  0  0  0  0  0  0  0
    8.0363    2.9812   25.7749 C   0  0  0  0  0  0  0  0  0  0  0  0
    7.6771    3.5669   26.9841 C   0  0  0  0  0  0  0  0  0  0  0  0
    8.2832    4.3320   27.4549 H   0  0  0  0  0  0  0  0  0  0  0  0
    8.9541    3.2862   25.2761 H   0  0  0  0  0  0  0  0  0  0  0  0
    5.4154    0.8091   25.3995 H   0  0  0  0  0  0  0  0  0  0  0  0
    4.7881    1.8766   27.5839 H   0  0  0  0  0  0  0  0  0  0  0  0
  1  2  1  0
  2  3  2  0
  3  4  1  0
  4  5  2  0
  5  6  1  0
  6  7  2  0
  7  8  1  0
  8  9  1  0
  9 10  1  0
 10 11  2  0
 11 12  1  0
 12 13  2  0
 13 14  1  0
 14 15  2  0
 15 16  1  0
 13 17  1  0
 12 18  1  0
 11 19  1  0
  9 20  1  0
  9 21  1  0
  8 22  1  0
 22 23  1  0
 23 24  1  0
 24 25  2  0
 25 26  1  0
 26 27  1  0
 27 28  2  0
 27 29  1  0
 25 30  1  0
 23 31  1  0
 23 32  1  0
 22 33  2  0
  5 34  1  0
 34 35  2  0
 35 36  1  0
 34 37  1  0
  4 38  1  0
  3 39  1  0
 35  2  1  0
 33  6  1  0
 15 10  1  0
 28 24  1  0
M  END
>  <cnnaffinity>  (1) 
-6.15964

>  <filename>  (1) 
Fc1ccc(-c2nc(Cc3cscn3)n(Cc3cccnc3)n2)cc1

$$$$
