
     RDKit          3D

 27 29  0  0  0  0  0  0  0  0999 V2000
    4.9244    1.7833   16.9961 H   0  0  0  0  0  0  0  0  0  0  0  0
    5.4074    1.2931   17.8377 C   0  0  0  0  0  0  0  0  0  0  0  0
    6.5713    0.6803   17.5741 N   0  0  0  0  0  0  0  0  0  0  0  0
    7.1698    0.0509   18.5882 C   0  0  0  0  0  0  0  0  0  0  0  0
    8.1167   -0.4318   18.3646 H   0  0  0  0  0  0  0  0  0  0  0  0
    6.6470   -0.0098   19.8876 C   0  0  0  0  0  0  0  0  0  0  0  0
    7.3764   -0.7302   20.9375 C   0  0  0  0  0  0  0  0  0  0  0  0
    7.9546   -1.8825   20.7082 N   0  0  0  0  0  0  0  0  0  0  0  0
    8.4422   -2.3180   21.9146 O   0  0  0  0  0  0  0  0  0  0  0  0
    8.1631   -1.4125   22.8510 C   0  0  0  0  0  0  0  0  0  0  0  0
    8.5226   -1.6268   23.8473 H   0  0  0  0  0  0  0  0  0  0  0  0
    7.5111   -0.3517   22.3163 C   0  0  0  0  0  0  0  0  0  0  0  0
    7.1204    0.8840   23.0011 C   0  0  0  0  0  0  0  0  0  0  0  0
    7.2589    2.1328   22.3716 C   0  0  0  0  0  0  0  0  0  0  0  0
    7.6333    2.1655   21.3537 H   0  0  0  0  0  0  0  0  0  0  0  0
    6.8929    3.3000   23.0415 C   0  0  0  0  0  0  0  0  0  0  0  0
    6.9922    4.2584   22.5421 H   0  0  0  0  0  0  0  0  0  0  0  0
    6.4014    3.2388   24.3487 C   0  0  0  0  0  0  0  0  0  0  0  0
    6.1160    4.1279   24.9018 H   0  0  0  0  0  0  0  0  0  0  0  0
    6.2874    1.9893   24.9549 C   0  0  0  0  0  0  0  0  0  0  0  0
    5.8296    1.9246   26.2144 F   0  0  0  0  0  0  0  0  0  0  0  0
    6.6381    0.8094   24.3126 C   0  0  0  0  0  0  0  0  0  0  0  0
    6.5231   -0.1449   24.8196 H   0  0  0  0  0  0  0  0  0  0  0  0
    5.4261    0.6342   20.1495 C   0  0  0  0  0  0  0  0  0  0  0  0
    5.0035    0.6391   21.1581 H   0  0  0  0  0  0  0  0  0  0  0  0
    4.8030    1.3046   19.1011 C   0  0  0  0  0  0  0  0  0  0  0  0
    3.8736    1.8426   19.2552 H   0  0  0  0  0  0  0  0  0  0  0  0
  1  2  1  0
  2  3  2  0
  3  4  1  0
  4  5  1  0
  4  6  2  0
  6  7  1  0
  7  8  2  0
  8  9  1  0
  9 10  1  0
 10 11  1  0
 10 12  2  0
 12 13  1  0
 13 14  2  0
 14 15  1  0
 14 16  1  0
 16 17  1  0
 16 18  2  0
 18 19  1  0
 18 20  1  0
 20 21  1  0
 20 22  2  0
 22 23  1  0
  6 24  1  0
 24 25  1  0
 24 26  2  0
 26 27  1  0
 26  2  1  0
 12  7  1  0
 22 13  1  0
M  END
>  <cnnaffinity>  (1) 
-4.91203

>  <filename>  (1) 
Fc1cccc(-c2conc2-c2cccnc2)c1

$$$$
