
     RDKit          3D

 45 48  0  0  0  0  0  0  0  0999 V2000
    7.4590    3.5941   23.8183 F   0  0  0  0  0  0  0  0  0  0  0  0
    8.7118    3.1664   23.6114 C   0  0  0  0  0  0  0  0  0  0  0  0
    9.7262    3.6363   24.4367 C   0  0  0  0  0  0  0  0  0  0  0  0
   11.0188    3.1255   24.2411 C   0  0  0  0  0  0  0  0  0  0  0  0
   11.2410    2.1446   23.2916 C   0  0  0  0  0  0  0  0  0  0  0  0
   12.4579    1.5813   23.2131 F   0  0  0  0  0  0  0  0  0  0  0  0
   10.2139    1.7086   22.4284 C   0  0  0  0  0  0  0  0  0  0  0  0
   10.5693    0.7777   21.5001 O   0  0  0  0  0  0  0  0  0  0  0  0
    9.6084    0.1721   20.6542 C   0  0  0  0  0  0  0  0  0  0  0  0
    8.5596   -0.6412   21.3510 C   0  0  0  0  0  0  0  0  0  0  0  0
    8.7584   -1.4321   22.3837 N   0  0  0  0  0  0  0  0  0  0  0  0
    7.5482   -2.0092   22.5745 C   0  0  0  0  0  0  0  0  0  0  0  0
    7.3374   -3.0026   23.6960 C   0  0  0  0  0  0  0  0  0  0  0  0
    6.2489   -2.5220   24.7117 C   0  0  0  0  0  0  0  0  0  0  0  0
    4.9305   -3.2257   24.4001 C   0  0  0  0  0  0  0  0  0  0  0  0
    5.0350   -4.6212   24.6567 O   0  0  0  0  0  0  0  0  0  0  0  0
    6.2281   -5.2650   24.2038 C   0  0  0  0  0  0  0  0  0  0  0  0
    7.0064   -4.4412   23.1684 C   0  0  0  0  0  0  0  0  0  0  0  0
    7.9223   -4.9761   22.8913 H   0  0  0  0  0  0  0  0  0  0  0  0
    6.3861   -4.3644   22.2641 H   0  0  0  0  0  0  0  0  0  0  0  0
    5.9146   -6.2231   23.7747 H   0  0  0  0  0  0  0  0  0  0  0  0
    6.8689   -5.5041   25.0688 H   0  0  0  0  0  0  0  0  0  0  0  0
    4.6819   -3.0526   23.3397 H   0  0  0  0  0  0  0  0  0  0  0  0
    4.1002   -2.8547   25.0044 H   0  0  0  0  0  0  0  0  0  0  0  0
    6.5554   -2.7875   25.7333 H   0  0  0  0  0  0  0  0  0  0  0  0
    6.1354   -1.4310   24.6860 H   0  0  0  0  0  0  0  0  0  0  0  0
    8.3009   -3.0259   24.2133 H   0  0  0  0  0  0  0  0  0  0  0  0
    6.6127   -1.6259   21.7203 N   0  0  0  0  0  0  0  0  0  0  0  0
    7.2765   -0.7583   20.9090 N   0  0  0  0  0  0  0  0  0  0  0  0
    6.5963   -0.0715   19.8629 C   0  0  0  0  0  0  0  0  0  0  0  0
    5.3970    0.5981   20.1250 C   0  0  0  0  0  0  0  0  0  0  0  0
    4.7940    1.3062   19.0831 C   0  0  0  0  0  0  0  0  0  0  0  0
    5.3926    1.3076   17.8169 C   0  0  0  0  0  0  0  0  0  0  0  0
    6.5208    0.6338   17.5463 N   0  0  0  0  0  0  0  0  0  0  0  0
    7.1025   -0.0351   18.5479 C   0  0  0  0  0  0  0  0  0  0  0  0
    8.0216   -0.5636   18.3003 H   0  0  0  0  0  0  0  0  0  0  0  0
    4.9503    1.8658   16.9939 H   0  0  0  0  0  0  0  0  0  0  0  0
    3.8742    1.8584   19.2418 H   0  0  0  0  0  0  0  0  0  0  0  0
    4.9639    0.5628   21.1258 H   0  0  0  0  0  0  0  0  0  0  0  0
   10.1843   -0.5324   20.0487 H   0  0  0  0  0  0  0  0  0  0  0  0
    9.1505    0.9178   19.9956 H   0  0  0  0  0  0  0  0  0  0  0  0
    8.9314    2.2423   22.5871 C   0  0  0  0  0  0  0  0  0  0  0  0
    8.1015    1.9185   21.9700 H   0  0  0  0  0  0  0  0  0  0  0  0
   11.8786    3.4761   24.7993 H   0  0  0  0  0  0  0  0  0  0  0  0
    9.5028    4.3517   25.2227 H   0  0  0  0  0  0  0  0  0  0  0  0
  1  2  1  0
  2  3  2  0
  3  4  1  0
  4  5  2  0
  5  6  1  0
  5  7  1  0
  7  8  1  0
  8  9  1  0
  9 10  1  0
 10 11  2  0
 11 12  1  0
 12 13  1  0
 13 14  1  0
 14 15  1  0
 15 16  1  0
 16 17  1  0
 17 18  1  0
 18 19  1  0
 18 20  1  0
 17 21  1  0
 17 22  1  0
 15 23  1  0
 15 24  1  0
 14 25  1  0
 14 26  1  0
 13 27  1  0
 12 28  2  0
 28 29  1  0
 29 30  1  0
 30 31  2  0
 31 32  1  0
 32 33  2  0
 33 34  1  0
 34 35  2  0
 35 36  1  0
 33 37  1  0
 32 38  1  0
 31 39  1  0
  9 40  1  0
  9 41  1  0
  7 42  2  0
 42 43  1  0
  4 44  1  0
  3 45  1  0
 42  2  1  0
 29 10  1  0
 35 30  1  0
 18 13  1  0
M  END
>  <cnnaffinity>  (1) 
-6.12365

>  <filename>  (1) 
Fc1ccc(F)c(OCc2nc(C3CCOCC3)nn2-c2cccnc2)c1

$$$$
