
     RDKit          3D

 39 41  0  0  0  0  0  0  0  0999 V2000
    5.0150    1.6675   16.9680 H   0  0  0  0  0  0  0  0  0  0  0  0
    5.5090    1.2901   17.8585 C   0  0  0  0  0  0  0  0  0  0  0  0
    6.6590    0.6269   17.6638 N   0  0  0  0  0  0  0  0  0  0  0  0
    7.2785    0.1586   18.7587 C   0  0  0  0  0  0  0  0  0  0  0  0
    8.2288   -0.3434   18.5692 H   0  0  0  0  0  0  0  0  0  0  0  0
    6.7966    0.2912   20.0758 C   0  0  0  0  0  0  0  0  0  0  0  0
    7.5365   -0.3851   21.2317 C   0  0  2  0  0  0  0  0  0  0  0  0
    7.3244   -1.9307   21.2308 C   0  0  0  0  0  0  0  0  0  0  0  0
    7.7128   -2.3596   22.1658 H   0  0  0  0  0  0  0  0  0  0  0  0
    7.9560   -2.3431   20.4447 H   0  0  0  0  0  0  0  0  0  0  0  0
    5.8834   -2.3993   21.0151 C   0  0  0  0  0  0  0  0  0  0  0  0
    5.4598   -1.8904   20.1390 H   0  0  0  0  0  0  0  0  0  0  0  0
    5.2938   -2.1057   21.8846 H   0  0  0  0  0  0  0  0  0  0  0  0
    5.7310   -3.8865   20.8222 C   0  0  0  0  0  0  0  0  0  0  0  0
    5.9011   -4.4531   19.5494 C   0  0  0  0  0  0  0  0  0  0  0  0
    6.1917   -3.8129   18.7182 H   0  0  0  0  0  0  0  0  0  0  0  0
    5.6764   -5.8177   19.3539 C   0  0  0  0  0  0  0  0  0  0  0  0
    5.7761   -6.2629   18.3676 H   0  0  0  0  0  0  0  0  0  0  0  0
    5.2776   -6.6196   20.4279 C   0  0  0  0  0  0  0  0  0  0  0  0
    4.9896   -7.6497   20.2734 H   0  0  0  0  0  0  0  0  0  0  0  0
    5.1413   -6.0583   21.6918 C   0  0  0  0  0  0  0  0  0  0  0  0
    4.7509   -6.8324   22.7232 F   0  0  0  0  0  0  0  0  0  0  0  0
    5.3628   -4.7028   21.9015 C   0  0  0  0  0  0  0  0  0  0  0  0
    5.2075   -4.2867   22.8926 H   0  0  0  0  0  0  0  0  0  0  0  0
    7.2391    0.2087   22.6360 C   0  0  0  0  0  0  0  0  0  0  0  0
    6.2821   -0.1033   23.0758 H   0  0  0  0  0  0  0  0  0  0  0  0
    7.2122    1.3063   22.5508 H   0  0  0  0  0  0  0  0  0  0  0  0
    8.3777   -0.1619   23.4891 N   0  0  0  0  0  0  0  0  0  0  0  0
    8.1514   -0.9950   24.0210 H   0  0  0  0  0  0  0  0  0  0  0  0
    9.5420   -0.4143   22.6125 C   0  0  0  0  0  0  0  0  0  0  0  0
   10.4080    0.1976   22.9059 H   0  0  0  0  0  0  0  0  0  0  0  0
    9.8485   -1.4689   22.6682 H   0  0  0  0  0  0  0  0  0  0  0  0
    9.0596   -0.0744   21.1989 C   0  0  0  0  0  0  0  0  0  0  0  0
    9.5941   -0.6215   20.4139 H   0  0  0  0  0  0  0  0  0  0  0  0
    9.1925    1.0003   21.0145 H   0  0  0  0  0  0  0  0  0  0  0  0
    5.5947    1.0021   20.2472 C   0  0  0  0  0  0  0  0  0  0  0  0
    5.1942    1.1626   21.2502 H   0  0  0  0  0  0  0  0  0  0  0  0
    4.9368    1.5036   19.1193 C   0  0  0  0  0  0  0  0  0  0  0  0
    4.0129    2.0709   19.2149 H   0  0  0  0  0  0  0  0  0  0  0  0
  1  2  1  0
  2  3  2  0
  3  4  1  0
  4  5  1  0
  4  6  2  0
  6  7  1  0
  7  8  1  1
  8  9  1  0
  8 10  1  0
  8 11  1  0
 11 12  1  0
 11 13  1  0
 11 14  1  0
 14 15  2  0
 15 16  1  0
 15 17  1  0
 17 18  1  0
 17 19  2  0
 19 20  1  0
 19 21  1  0
 21 22  1  0
 21 23  2  0
 23 24  1  0
  7 25  1  0
 25 26  1  0
 25 27  1  0
 25 28  1  0
 28 29  1  0
 28 30  1  0
 30 31  1  0
 30 32  1  0
 30 33  1  0
 33 34  1  0
 33 35  1  0
  6 36  1  0
 36 37  1  0
 36 38  2  0
 38 39  1  0
 38  2  1  0
 33  7  1  0
 23 14  1  0
M  END
>  <cnnaffinity>  (1) 
-5.49129

>  <filename>  (1) 
Fc1cccc(CC[C@]2(c3cccnc3)CCNC2)c1

$$$$
