
     RDKit          3D

 45 48  0  0  0  0  0  0  0  0999 V2000
    7.3810    6.0491   26.2408 F   0  0  0  0  0  0  0  0  0  0  0  0
    7.7722    5.0760   25.4047 C   0  0  0  0  0  0  0  0  0  0  0  0
    7.7827    5.2754   24.0363 C   0  0  0  0  0  0  0  0  0  0  0  0
    8.1946    4.2464   23.1719 C   0  0  0  0  0  0  0  0  0  0  0  0
    8.5996    3.0087   23.6900 C   0  0  0  0  0  0  0  0  0  0  0  0
    9.0188    1.9469   22.9528 O   0  0  0  0  0  0  0  0  0  0  0  0
    9.0466    2.0138   21.5305 C   0  0  0  0  0  0  0  0  0  0  0  0
    9.5088    0.6529   21.0098 C   0  0  0  0  0  0  0  0  0  0  0  0
    8.6173   -0.4565   21.4288 C   0  0  0  0  0  0  0  0  0  0  0  0
    8.8535   -1.3055   22.4008 N   0  0  0  0  0  0  0  0  0  0  0  0
    7.6679   -1.9493   22.5500 C   0  0  0  0  0  0  0  0  0  0  0  0
    7.4592   -3.0332   23.5825 C   0  0  0  0  0  0  0  0  0  0  0  0
    8.2424   -4.3333   23.2490 C   0  0  0  0  0  0  0  0  0  0  0  0
    9.4613   -4.2600   24.1839 C   0  0  0  0  0  0  0  0  0  0  0  0
    8.9415   -3.4500   25.3750 C   0  0  0  0  0  0  0  0  0  0  0  0
    7.8959   -2.6313   24.8744 O   0  0  0  0  0  0  0  0  0  0  0  0
    9.6960   -2.7898   25.8191 H   0  0  0  0  0  0  0  0  0  0  0  0
    8.5342   -4.0831   26.1775 H   0  0  0  0  0  0  0  0  0  0  0  0
    9.8232   -5.2441   24.4969 H   0  0  0  0  0  0  0  0  0  0  0  0
   10.2862   -3.7320   23.6924 H   0  0  0  0  0  0  0  0  0  0  0  0
    7.6183   -5.2064   23.4629 H   0  0  0  0  0  0  0  0  0  0  0  0
    8.5133   -4.3877   22.1889 H   0  0  0  0  0  0  0  0  0  0  0  0
    6.3766   -3.1844   23.6200 H   0  0  0  0  0  0  0  0  0  0  0  0
    6.7409   -1.6053   21.6750 N   0  0  0  0  0  0  0  0  0  0  0  0
    7.3583   -0.6507   20.9311 N   0  0  0  0  0  0  0  0  0  0  0  0
    6.6570    0.0195   19.8938 C   0  0  0  0  0  0  0  0  0  0  0  0
    5.4366    0.6470   20.1631 C   0  0  0  0  0  0  0  0  0  0  0  0
    4.8112    1.3122   19.1058 C   0  0  0  0  0  0  0  0  0  0  0  0
    5.3994    1.2988   17.8336 C   0  0  0  0  0  0  0  0  0  0  0  0
    6.5563    0.6736   17.5680 N   0  0  0  0  0  0  0  0  0  0  0  0
    7.1663    0.0554   18.5847 C   0  0  0  0  0  0  0  0  0  0  0  0
    8.1092   -0.4358   18.3601 H   0  0  0  0  0  0  0  0  0  0  0  0
    4.9231    1.7902   16.9895 H   0  0  0  0  0  0  0  0  0  0  0  0
    3.8793    1.8398   19.2566 H   0  0  0  0  0  0  0  0  0  0  0  0
    5.0150    0.6058   21.1736 H   0  0  0  0  0  0  0  0  0  0  0  0
    9.5484    0.6860   19.9211 H   0  0  0  0  0  0  0  0  0  0  0  0
   10.5155    0.4264   21.3635 H   0  0  0  0  0  0  0  0  0  0  0  0
    8.0500    2.2514   21.1322 H   0  0  0  0  0  0  0  0  0  0  0  0
    9.7437    2.7923   21.1950 H   0  0  0  0  0  0  0  0  0  0  0  0
    8.5911    2.8060   25.0832 C   0  0  0  0  0  0  0  0  0  0  0  0
    8.1752    3.8344   25.9137 C   0  0  0  0  0  0  0  0  0  0  0  0
    8.1436    3.6425   27.2341 F   0  0  0  0  0  0  0  0  0  0  0  0
    8.8963    1.8658   25.5280 H   0  0  0  0  0  0  0  0  0  0  0  0
    8.2020    4.4162   22.1014 H   0  0  0  0  0  0  0  0  0  0  0  0
    7.4601    6.2417   23.6642 H   0  0  0  0  0  0  0  0  0  0  0  0
  1  2  1  0
  2  3  2  0
  3  4  1  0
  4  5  2  0
  5  6  1  0
  6  7  1  0
  7  8  1  0
  8  9  1  0
  9 10  2  0
 10 11  1  0
 11 12  1  0
 12 13  1  0
 13 14  1  0
 14 15  1  0
 15 16  1  0
 15 17  1  0
 15 18  1  0
 14 19  1  0
 14 20  1  0
 13 21  1  0
 13 22  1  0
 12 23  1  0
 11 24  2  0
 24 25  1  0
 25 26  1  0
 26 27  2  0
 27 28  1  0
 28 29  2  0
 29 30  1  0
 30 31  2  0
 31 32  1  0
 29 33  1  0
 28 34  1  0
 27 35  1  0
  8 36  1  0
  8 37  1  0
  7 38  1  0
  7 39  1  0
  5 40  1  0
 40 41  2  0
 41 42  1  0
 40 43  1  0
  4 44  1  0
  3 45  1  0
 41  2  1  0
 25  9  1  0
 31 26  1  0
 16 12  1  0
M  END
>  <cnnaffinity>  (1) 
-6.10342

>  <filename>  (1) 
Fc1ccc(OCCc2nc(C3CCCO3)nn2-c2cccnc2)cc1F

$$$$
