
     RDKit          3D

 39 42  0  0  0  0  0  0  0  0999 V2000
    3.5400    5.5348   26.1016 F   0  0  0  0  0  0  0  0  0  0  0  0
    4.1660    4.5017   25.5176 C   0  0  0  0  0  0  0  0  0  0  0  0
    5.2834    4.7419   24.7249 C   0  0  0  0  0  0  0  0  0  0  0  0
    5.8821    3.6658   24.0619 C   0  0  0  0  0  0  0  0  0  0  0  0
    5.3236    2.3783   24.1223 C   0  0  0  0  0  0  0  0  0  0  0  0
    5.7231    1.3581   23.3121 O   0  0  0  0  0  0  0  0  0  0  0  0
    7.0606    1.3890   22.7961 C   0  0  0  0  0  0  0  0  0  0  0  0
    7.4495    0.0276   22.3378 C   0  0  0  0  0  0  0  0  0  0  0  0
    8.1624   -0.8255   23.0425 N   0  0  0  0  0  0  0  0  0  0  0  0
    8.2972   -1.8843   22.2051 C   0  0  0  0  0  0  0  0  0  0  0  0
    9.0445   -3.1147   22.6016 C   0  0  0  0  0  0  0  0  0  0  0  0
    8.4447   -4.0039   23.7352 C   0  0  0  0  0  0  0  0  0  0  0  0
   10.0873   -4.2200   24.5111 S   0  0  0  0  0  0  0  0  0  0  0  0
   10.3888   -2.8641   23.3291 C   0  0  0  0  0  0  0  0  0  0  0  0
   11.2900   -2.9858   22.7265 H   0  0  0  0  0  0  0  0  0  0  0  0
   10.4030   -1.8999   23.8448 H   0  0  0  0  0  0  0  0  0  0  0  0
    8.0010   -4.9512   23.4213 H   0  0  0  0  0  0  0  0  0  0  0  0
    7.7268   -3.4800   24.3778 H   0  0  0  0  0  0  0  0  0  0  0  0
    9.1650   -3.6844   21.6827 H   0  0  0  0  0  0  0  0  0  0  0  0
    7.7629   -1.7151   21.0133 N   0  0  0  0  0  0  0  0  0  0  0  0
    7.1815   -0.4848   21.1026 N   0  0  0  0  0  0  0  0  0  0  0  0
    6.5118    0.1004   19.9826 C   0  0  0  0  0  0  0  0  0  0  0  0
    5.3415    0.8638   20.1237 C   0  0  0  0  0  0  0  0  0  0  0  0
    4.8026    1.4525   18.9711 C   0  0  0  0  0  0  0  0  0  0  0  0
    5.4386    1.2671   17.7422 C   0  0  0  0  0  0  0  0  0  0  0  0
    6.5348    0.5017   17.5996 N   0  0  0  0  0  0  0  0  0  0  0  0
    7.0390   -0.0810   18.6907 C   0  0  0  0  0  0  0  0  0  0  0  0
    7.9032   -0.7250   18.5437 H   0  0  0  0  0  0  0  0  0  0  0  0
    5.0558    1.7332   16.8342 H   0  0  0  0  0  0  0  0  0  0  0  0
    3.9050    2.0620   19.0140 H   0  0  0  0  0  0  0  0  0  0  0  0
    4.8590    0.9850   21.0930 H   0  0  0  0  0  0  0  0  0  0  0  0
    7.7649    1.6821   23.5851 H   0  0  0  0  0  0  0  0  0  0  0  0
    7.1407    2.0929   21.9564 H   0  0  0  0  0  0  0  0  0  0  0  0
    4.2492    2.1535   25.0170 C   0  0  0  0  0  0  0  0  0  0  0  0
    3.5967    0.5643   25.2596 Cl  0  0  0  0  0  0  0  0  0  0  0  0
    3.6777    3.2147   25.7232 C   0  0  0  0  0  0  0  0  0  0  0  0
    2.8739    3.0451   26.4323 H   0  0  0  0  0  0  0  0  0  0  0  0
    6.7929    3.8206   23.4901 H   0  0  0  0  0  0  0  0  0  0  0  0
    5.6816    5.7460   24.6342 H   0  0  0  0  0  0  0  0  0  0  0  0
  1  2  1  0
  2  3  2  0
  3  4  1  0
  4  5  2  0
  5  6  1  0
  6  7  1  0
  7  8  1  0
  8  9  2  0
  9 10  1  0
 10 11  1  0
 11 12  1  0
 12 13  1  0
 13 14  1  0
 14 15  1  0
 14 16  1  0
 12 17  1  0
 12 18  1  0
 11 19  1  0
 10 20  2  0
 20 21  1  0
 21 22  1  0
 22 23  2  0
 23 24  1  0
 24 25  2  0
 25 26  1  0
 26 27  2  0
 27 28  1  0
 25 29  1  0
 24 30  1  0
 23 31  1  0
  7 32  1  0
  7 33  1  0
  5 34  1  0
 34 35  1  0
 34 36  2  0
 36 37  1  0
  4 38  1  0
  3 39  1  0
 36  2  1  0
 21  8  1  0
 27 22  1  0
 14 11  1  0
M  END
>  <cnnaffinity>  (1) 
-5.7831

>  <filename>  (1) 
Fc1ccc(OCc2nc(C3CSC3)nn2-c2cccnc2)c(Cl)c1

$$$$
