
     RDKit          3D

 40 43  0  0  0  0  0  0  0  0999 V2000
   13.3822   -1.8901   22.0339 F   0  0  0  0  0  0  0  0  0  0  0  0
   12.9368   -0.6285   22.0574 C   0  0  0  0  0  0  0  0  0  0  0  0
   13.7309    0.3879   22.5815 C   0  0  0  0  0  0  0  0  0  0  0  0
   13.2515    1.7020   22.5808 C   0  0  0  0  0  0  0  0  0  0  0  0
   12.0027    1.9875   22.0293 C   0  0  0  0  0  0  0  0  0  0  0  0
   11.2073    0.9736   21.4822 C   0  0  0  0  0  0  0  0  0  0  0  0
    9.8122    1.2860   20.9884 C   0  0  0  0  0  0  0  0  0  0  0  0
    8.7861    1.1183   22.0585 C   0  0  0  0  0  0  0  0  0  0  0  0
    8.7308    1.8425   23.1555 N   0  0  0  0  0  0  0  0  0  0  0  0
    7.6518    1.3309   23.8221 C   0  0  0  0  0  0  0  0  0  0  0  0
    7.2326    1.8493   25.1412 C   0  0  0  0  0  0  0  0  0  0  0  0
    6.1653    1.3903   25.8022 N   0  0  0  0  0  0  0  0  0  0  0  0
    6.1290    2.0983   26.9256 N   0  0  0  0  0  0  0  0  0  0  0  0
    7.1277    3.0083   27.0355 C   0  0  0  0  0  0  0  0  0  0  0  0
    7.8709    2.8784   25.8925 C   0  0  0  0  0  0  0  0  0  0  0  0
    8.7505    3.4317   25.6128 H   0  0  0  0  0  0  0  0  0  0  0  0
    7.2131    3.6532   27.9049 H   0  0  0  0  0  0  0  0  0  0  0  0
    5.3826    1.8915   27.5707 H   0  0  0  0  0  0  0  0  0  0  0  0
    7.0442    0.3508   23.1676 N   0  0  0  0  0  0  0  0  0  0  0  0
    7.7903    0.2039   22.0566 N   0  0  0  0  0  0  0  0  0  0  0  0
    7.3821   -0.7078   20.9960 C   0  0  0  0  0  0  0  0  0  0  0  0
    6.6532    0.0013   19.8797 C   0  0  0  0  0  0  0  0  0  0  0  0
    5.4396    0.6451   20.1485 C   0  0  0  0  0  0  0  0  0  0  0  0
    4.8050    1.3090   19.0984 C   0  0  0  0  0  0  0  0  0  0  0  0
    5.3984    1.2967   17.8306 C   0  0  0  0  0  0  0  0  0  0  0  0
    6.5602    0.6835   17.5592 N   0  0  0  0  0  0  0  0  0  0  0  0
    7.1642    0.0609   18.5779 C   0  0  0  0  0  0  0  0  0  0  0  0
    8.1142   -0.4277   18.3509 H   0  0  0  0  0  0  0  0  0  0  0  0
    4.9154    1.7889   16.9905 H   0  0  0  0  0  0  0  0  0  0  0  0
    3.8760    1.8418   19.2536 H   0  0  0  0  0  0  0  0  0  0  0  0
    5.0315    0.6313   21.1652 H   0  0  0  0  0  0  0  0  0  0  0  0
    8.2709   -1.2345   20.6351 H   0  0  0  0  0  0  0  0  0  0  0  0
    6.7309   -1.4384   21.4845 H   0  0  0  0  0  0  0  0  0  0  0  0
    9.7792    2.3437   20.7166 H   0  0  0  0  0  0  0  0  0  0  0  0
    9.5572    0.6814   20.1118 H   0  0  0  0  0  0  0  0  0  0  0  0
   11.6763   -0.3362   21.5265 C   0  0  0  0  0  0  0  0  0  0  0  0
   10.9091   -1.3425   21.0630 F   0  0  0  0  0  0  0  0  0  0  0  0
   11.6037    3.0005   22.0363 H   0  0  0  0  0  0  0  0  0  0  0  0
   13.8657    2.5037   22.9791 H   0  0  0  0  0  0  0  0  0  0  0  0
   14.7071    0.1283   22.9727 H   0  0  0  0  0  0  0  0  0  0  0  0
  1  2  1  0
  2  3  2  0
  3  4  1  0
  4  5  2  0
  5  6  1  0
  6  7  1  0
  7  8  1  0
  8  9  2  0
  9 10  1  0
 10 11  1  0
 11 12  2  0
 12 13  1  0
 13 14  1  0
 14 15  2  0
 15 16  1  0
 14 17  1  0
 13 18  1  0
 10 19  2  0
 19 20  1  0
 20 21  1  0
 21 22  1  0
 22 23  2  0
 23 24  1  0
 24 25  2  0
 25 26  1  0
 26 27  2  0
 27 28  1  0
 25 29  1  0
 24 30  1  0
 23 31  1  0
 21 32  1  0
 21 33  1  0
  7 34  1  0
  7 35  1  0
  6 36  2  0
 36 37  1  0
  5 38  1  0
  4 39  1  0
  3 40  1  0
 36  2  1  0
 20  8  1  0
 27 22  1  0
 15 11  1  0
M  END
>  <cnnaffinity>  (1) 
-6.3235

>  <filename>  (1) 
Fc1cccc(Cc2nc(-c3cc[nH]n3)nn2Cc2cccnc2)c1F

$$$$
