
     RDKit          3D

 45 48  0  0  0  0  0  0  0  0999 V2000
   10.9735   -0.3903   26.1259 F   0  0  0  0  0  0  0  0  0  0  0  0
   11.5914   -0.1039   24.9726 C   0  0  0  0  0  0  0  0  0  0  0  0
   12.7943    0.5910   24.9567 C   0  0  0  0  0  0  0  0  0  0  0  0
   13.3271    1.0171   23.7399 C   0  0  0  0  0  0  0  0  0  0  0  0
   12.6766    0.6939   22.5570 C   0  0  0  0  0  0  0  0  0  0  0  0
   11.5289   -0.1123   22.5505 C   0  0  0  0  0  0  0  0  0  0  0  0
   10.7880   -0.3433   21.2572 C   0  0  0  0  0  0  0  0  0  0  0  0
    9.9198    0.9024   20.9175 C   0  0  0  0  0  0  0  0  0  0  0  0
    8.8191    1.1194   21.9112 C   0  0  0  0  0  0  0  0  0  0  0  0
    8.7761    1.9693   22.9191 N   0  0  0  0  0  0  0  0  0  0  0  0
    7.6934    1.5421   23.6544 C   0  0  0  0  0  0  0  0  0  0  0  0
    7.3183    2.1565   24.9917 C   0  0  0  0  0  0  0  0  0  0  0  0
    8.2116    3.0670   25.5999 C   0  0  0  0  0  0  0  0  0  0  0  0
    7.8666    3.6391   26.8262 C   0  0  0  0  0  0  0  0  0  0  0  0
    6.6608    3.2763   27.4267 C   0  0  0  0  0  0  0  0  0  0  0  0
    5.8444    2.3531   26.7641 C   0  0  0  0  0  0  0  0  0  0  0  0
    6.1507    1.8128   25.5805 N   0  0  0  0  0  0  0  0  0  0  0  0
    4.9003    2.0255   27.2022 H   0  0  0  0  0  0  0  0  0  0  0  0
    6.3460    3.6822   28.3832 H   0  0  0  0  0  0  0  0  0  0  0  0
    8.5292    4.3615   27.2999 H   0  0  0  0  0  0  0  0  0  0  0  0
    9.1505    3.2976   25.1059 H   0  0  0  0  0  0  0  0  0  0  0  0
    7.0590    0.5202   23.0979 N   0  0  0  0  0  0  0  0  0  0  0  0
    7.7954    0.2426   22.0034 N   0  0  0  0  0  0  0  0  0  0  0  0
    7.3217   -0.7171   21.0091 C   0  0  0  0  0  0  0  0  0  0  0  0
    6.6378   -0.0351   19.8474 C   0  0  0  0  0  0  0  0  0  0  0  0
    5.4513    0.6630   20.0940 C   0  0  0  0  0  0  0  0  0  0  0  0
    4.8286    1.3262   19.0378 C   0  0  0  0  0  0  0  0  0  0  0  0
    5.4384    1.2866   17.7793 C   0  0  0  0  0  0  0  0  0  0  0  0
    6.5740    0.6224   17.5204 N   0  0  0  0  0  0  0  0  0  0  0  0
    7.1505   -0.0271   18.5419 C   0  0  0  0  0  0  0  0  0  0  0  0
    8.0659   -0.5763   18.3064 H   0  0  0  0  0  0  0  0  0  0  0  0
    4.9919    1.8094   16.9375 H   0  0  0  0  0  0  0  0  0  0  0  0
    3.9016    1.8688   19.1797 H   0  0  0  0  0  0  0  0  0  0  0  0
    5.0512    0.6875   21.1099 H   0  0  0  0  0  0  0  0  0  0  0  0
    8.1641   -1.3307   20.6690 H   0  0  0  0  0  0  0  0  0  0  0  0
    6.6258   -1.3680   21.5475 H   0  0  0  0  0  0  0  0  0  0  0  0
    9.4923    0.8041   19.9177 H   0  0  0  0  0  0  0  0  0  0  0  0
   10.5527    1.7928   20.8983 H   0  0  0  0  0  0  0  0  0  0  0  0
   10.1660   -1.2398   21.3427 H   0  0  0  0  0  0  0  0  0  0  0  0
   11.5230   -0.5518   20.4743 H   0  0  0  0  0  0  0  0  0  0  0  0
   11.0051   -0.5218   23.7779 C   0  0  0  0  0  0  0  0  0  0  0  0
    9.9479   -1.3479   23.8359 F   0  0  0  0  0  0  0  0  0  0  0  0
   13.0314    1.1108   21.6230 H   0  0  0  0  0  0  0  0  0  0  0  0
   14.2230    1.6261   23.7069 H   0  0  0  0  0  0  0  0  0  0  0  0
   13.3169    0.7531   25.8805 H   0  0  0  0  0  0  0  0  0  0  0  0
  1  2  1  0
  2  3  2  0
  3  4  1  0
  4  5  2  0
  5  6  1  0
  6  7  1  0
  7  8  1  0
  8  9  1  0
  9 10  2  0
 10 11  1  0
 11 12  1  0
 12 13  2  0
 13 14  1  0
 14 15  2  0
 15 16  1  0
 16 17  2  0
 16 18  1  0
 15 19  1  0
 14 20  1  0
 13 21  1  0
 11 22  2  0
 22 23  1  0
 23 24  1  0
 24 25  1  0
 25 26  2  0
 26 27  1  0
 27 28  2  0
 28 29  1  0
 29 30  2  0
 30 31  1  0
 28 32  1  0
 27 33  1  0
 26 34  1  0
 24 35  1  0
 24 36  1  0
  8 37  1  0
  8 38  1  0
  7 39  1  0
  7 40  1  0
  6 41  2  0
 41 42  1  0
  5 43  1  0
  4 44  1  0
  3 45  1  0
 41  2  1  0
 23  9  1  0
 30 25  1  0
 17 12  1  0
M  END
>  <cnnaffinity>  (1) 
-6.09141

>  <filename>  (1) 
Fc1cccc(CCc2nc(-c3ccccn3)nn2Cc2cccnc2)c1F

$$$$
