
     RDKit          3D

 29 32  0  0  0  0  0  0  0  0999 V2000
    4.9165    1.7757   17.0019 H   0  0  0  0  0  0  0  0  0  0  0  0
    5.4046    1.2899   17.8425 C   0  0  0  0  0  0  0  0  0  0  0  0
    6.5701    0.6778   17.5769 N   0  0  0  0  0  0  0  0  0  0  0  0
    7.1746    0.0565   18.5902 C   0  0  0  0  0  0  0  0  0  0  0  0
    8.1243   -0.4345   18.3739 H   0  0  0  0  0  0  0  0  0  0  0  0
    6.6476    0.0111   19.8913 C   0  0  0  0  0  0  0  0  0  0  0  0
    7.4035   -0.7009   20.9184 C   0  0  0  0  0  0  0  0  0  0  0  0
    8.3300   -1.6009   20.6992 N   0  0  0  0  0  0  0  0  0  0  0  0
    8.8304   -2.0349   21.9057 N   0  0  0  0  0  0  0  0  0  0  0  0
    8.1968   -1.3538   22.8198 C   0  0  0  0  0  0  0  0  0  0  0  0
    8.2624   -1.0955   24.5364 S   0  0  0  0  0  0  0  0  0  0  0  0
    7.0324    0.1747   24.3244 C   0  0  0  0  0  0  0  0  0  0  0  0
    6.5363    0.9651   25.4729 C   0  0  0  0  0  0  0  0  0  0  0  0
    5.5667    1.9664   25.2596 C   0  0  0  0  0  0  0  0  0  0  0  0
    5.1976    2.1443   24.2544 H   0  0  0  0  0  0  0  0  0  0  0  0
    5.0810    2.7285   26.3193 C   0  0  0  0  0  0  0  0  0  0  0  0
    4.3362    3.4997   26.1602 H   0  0  0  0  0  0  0  0  0  0  0  0
    5.5706    2.4857   27.5997 C   0  0  0  0  0  0  0  0  0  0  0  0
    5.1039    3.2191   28.6211 F   0  0  0  0  0  0  0  0  0  0  0  0
    6.5283    1.5061   27.8507 C   0  0  0  0  0  0  0  0  0  0  0  0
    6.8844    1.3466   28.8626 H   0  0  0  0  0  0  0  0  0  0  0  0
    7.0092    0.7474   26.7848 C   0  0  0  0  0  0  0  0  0  0  0  0
    7.7580   -0.0141   26.9937 H   0  0  0  0  0  0  0  0  0  0  0  0
    6.6213    0.3548   23.1063 N   0  0  0  0  0  0  0  0  0  0  0  0
    7.2699   -0.5194   22.2803 N   0  0  0  0  0  0  0  0  0  0  0  0
    5.4328    0.6522   20.1618 C   0  0  0  0  0  0  0  0  0  0  0  0
    5.0088    0.6352   21.1690 H   0  0  0  0  0  0  0  0  0  0  0  0
    4.8048    1.3083   19.1085 C   0  0  0  0  0  0  0  0  0  0  0  0
    3.8741    1.8434   19.2615 H   0  0  0  0  0  0  0  0  0  0  0  0
  1  2  1  0
  2  3  2  0
  3  4  1  0
  4  5  1  0
  4  6  2  0
  6  7  1  0
  7  8  2  0
  8  9  1  0
  9 10  2  0
 10 11  1  0
 11 12  1  0
 12 13  1  0
 13 14  2  0
 14 15  1  0
 14 16  1  0
 16 17  1  0
 16 18  2  0
 18 19  1  0
 18 20  1  0
 20 21  1  0
 20 22  2  0
 22 23  1  0
 12 24  2  0
 24 25  1  0
  6 26  1  0
 26 27  1  0
 26 28  2  0
 28 29  1  0
 28  2  1  0
 25  7  1  0
 25 10  1  0
 22 13  1  0
M  END
>  <cnnaffinity>  (1) 
-5.2051

>  <filename>  (1) 
Fc1ccc(-c2nn3c(-c4cccnc4)nnc3s2)cc1

$$$$
