
     RDKit          3D

 40 43  0  0  0  0  0  0  0  0999 V2000
   13.5525   -2.2841   20.3740 F   0  0  0  0  0  0  0  0  0  0  0  0
   12.9684   -1.4581   21.2490 C   0  0  0  0  0  0  0  0  0  0  0  0
   13.7861   -0.7434   22.1159 C   0  0  0  0  0  0  0  0  0  0  0  0
   13.1810    0.2061   22.9270 C   0  0  0  0  0  0  0  0  0  0  0  0
   13.9412    0.8920   23.7867 F   0  0  0  0  0  0  0  0  0  0  0  0
   11.8161    0.4560   22.8917 C   0  0  0  0  0  0  0  0  0  0  0  0
   11.0035   -0.3239   22.0505 C   0  0  0  0  0  0  0  0  0  0  0  0
    9.5374   -0.0969   22.0294 C   0  0  0  0  0  0  0  0  0  0  0  0
    8.6780   -0.9127   21.4397 N   0  0  0  0  0  0  0  0  0  0  0  0
    7.4792   -0.3469   21.7004 N   0  0  0  0  0  0  0  0  0  0  0  0
    6.2968   -0.8461   21.0085 C   0  0  0  0  0  0  0  0  0  0  0  0
    5.9302   -0.0312   19.7865 C   0  0  0  0  0  0  0  0  0  0  0  0
    4.7444    0.7009   19.6743 C   0  0  0  0  0  0  0  0  0  0  0  0
    4.5510    1.4904   18.5361 C   0  0  0  0  0  0  0  0  0  0  0  0
    5.5438    1.5037   17.5518 C   0  0  0  0  0  0  0  0  0  0  0  0
    6.6724    0.7803   17.6232 N   0  0  0  0  0  0  0  0  0  0  0  0
    6.8486    0.0430   18.7243 C   0  0  0  0  0  0  0  0  0  0  0  0
    7.7789   -0.5219   18.7873 H   0  0  0  0  0  0  0  0  0  0  0  0
    5.4353    2.1269   16.6661 H   0  0  0  0  0  0  0  0  0  0  0  0
    3.6606    2.0978   18.4045 H   0  0  0  0  0  0  0  0  0  0  0  0
    3.9905    0.6722   20.4660 H   0  0  0  0  0  0  0  0  0  0  0  0
    6.5285   -1.8795   20.7359 H   0  0  0  0  0  0  0  0  0  0  0  0
    5.4770   -0.8809   21.7199 H   0  0  0  0  0  0  0  0  0  0  0  0
    7.6608    0.7768   22.4283 C   0  0  0  0  0  0  0  0  0  0  0  0
    6.5769    1.5813   23.0934 C   0  0  0  0  0  0  0  0  0  0  0  0
    6.3369    1.1461   24.5354 C   0  0  0  0  0  0  0  0  0  0  0  0
    7.3200    1.1706   25.5011 C   0  0  0  0  0  0  0  0  0  0  0  0
    6.7776    0.6533   26.6240 N   0  0  0  0  0  0  0  0  0  0  0  0
    5.5000    0.2884   26.4663 N   0  0  0  0  0  0  0  0  0  0  0  0
    5.2224    0.5843   25.1990 C   0  0  0  0  0  0  0  0  0  0  0  0
    4.2352    0.3698   24.8100 H   0  0  0  0  0  0  0  0  0  0  0  0
    7.2329    0.4977   27.5120 H   0  0  0  0  0  0  0  0  0  0  0  0
    8.3563    1.4723   25.4103 H   0  0  0  0  0  0  0  0  0  0  0  0
    5.6629    1.5704   22.4903 H   0  0  0  0  0  0  0  0  0  0  0  0
    6.9307    2.6183   23.0801 H   0  0  0  0  0  0  0  0  0  0  0  0
    8.9505    0.9678   22.6342 N   0  0  0  0  0  0  0  0  0  0  0  0
   11.5854   -1.3314   21.2604 C   0  0  0  0  0  0  0  0  0  0  0  0
   10.9564   -2.0367   20.7337 H   0  0  0  0  0  0  0  0  0  0  0  0
   11.3887    1.2344   23.5119 H   0  0  0  0  0  0  0  0  0  0  0  0
   14.8374   -0.9573   22.2003 H   0  0  0  0  0  0  0  0  0  0  0  0
  1  2  1  0
  2  3  2  0
  3  4  1  0
  4  5  1  0
  4  6  2  0
  6  7  1  0
  7  8  1  0
  8  9  2  0
  9 10  1  0
 10 11  1  0
 11 12  1  0
 12 13  2  0
 13 14  1  0
 14 15  2  0
 15 16  1  0
 16 17  2  0
 17 18  1  0
 15 19  1  0
 14 20  1  0
 13 21  1  0
 11 22  1  0
 11 23  1  0
 10 24  1  0
 24 25  1  0
 25 26  1  0
 26 27  2  0
 27 28  1  0
 28 29  1  0
 29 30  2  0
 30 31  1  0
 28 32  1  0
 27 33  1  0
 25 34  1  0
 25 35  1  0
 24 36  2  0
  7 37  2  0
 37 38  1  0
  6 39  1  0
  3 40  1  0
 37  2  1  0
 36  8  1  0
 17 12  1  0
 30 26  1  0
M  END
>  <cnnaffinity>  (1) 
-6.17489

>  <filename>  (1) 
Fc1cc(F)cc(-c2nc(Cc3cn[nH]c3)n(Cc3cccnc3)n2)c1

$$$$
