
     RDKit          3D

 28 30  0  0  0  0  0  0  0  0999 V2000
    5.0155    1.9149   16.7785 H   0  0  0  0  0  0  0  0  0  0  0  0
    5.4268    1.2893   17.5670 C   0  0  0  0  0  0  0  0  0  0  0  0
    6.5659    0.6408   17.2712 N   0  0  0  0  0  0  0  0  0  0  0  0
    7.1653   -0.0743   18.2281 C   0  0  0  0  0  0  0  0  0  0  0  0
    8.0997   -0.5634   17.9534 H   0  0  0  0  0  0  0  0  0  0  0  0
    6.6344   -0.1621   19.5294 C   0  0  0  0  0  0  0  0  0  0  0  0
    7.3257   -0.7193   20.6384 N   0  0  0  0  0  0  0  0  0  0  0  0
    8.0406   -1.8466   20.6544 N   0  0  0  0  0  0  0  0  0  0  0  0
    8.4867   -1.9828   21.8506 N   0  0  0  0  0  0  0  0  0  0  0  0
    8.1099   -0.9945   22.6681 N   0  0  0  0  0  0  0  0  0  0  0  0
    7.3465   -0.1470   21.9290 C   0  0  0  0  0  0  0  0  0  0  0  0
    6.8005    0.8993   22.2185 O   0  0  0  0  0  0  0  0  0  0  0  0
    6.9870    0.6981   25.1716 O   0  0  0  0  0  0  0  0  0  0  0  0
    6.4081    1.7242   25.5048 C   0  0  0  0  0  0  0  0  0  0  0  0
    5.6623    2.5715   24.5514 C   0  0  0  0  0  0  0  0  0  0  0  0
    5.7318    2.2473   23.5194 H   0  0  0  0  0  0  0  0  0  0  0  0
    4.9588    3.6734   24.9740 C   0  0  0  0  0  0  0  0  0  0  0  0
    4.3917    4.2915   24.2718 H   0  0  0  0  0  0  0  0  0  0  0  0
    4.9672    4.0288   26.3371 C   0  0  0  0  0  0  0  0  0  0  0  0
    4.2714    5.0904   26.7527 F   0  0  0  0  0  0  0  0  0  0  0  0
    5.7017    3.2938   27.2906 C   0  0  0  0  0  0  0  0  0  0  0  0
    5.6891    3.6297   28.3302 H   0  0  0  0  0  0  0  0  0  0  0  0
    6.4108    2.1911   26.9082 C   0  0  0  0  0  0  0  0  0  0  0  0
    7.0003    1.6093   27.6101 H   0  0  0  0  0  0  0  0  0  0  0  0
    5.4102    0.4493   19.8168 C   0  0  0  0  0  0  0  0  0  0  0  0
    5.0082    0.3758   20.8266 H   0  0  0  0  0  0  0  0  0  0  0  0
    4.8044    1.2041   18.8154 C   0  0  0  0  0  0  0  0  0  0  0  0
    3.9058    1.7729   19.0200 H   0  0  0  0  0  0  0  0  0  0  0  0
  1  2  1  0
  2  3  2  0
  3  4  1  0
  4  5  1  0
  4  6  2  0
  6  7  1  0
  7  8  1  0
  8  9  2  0
  9 10  1  0
 10 11  2  0
 11 12  1  0
 12 13  1  0
 13 14  1  0
 14 15  2  0
 15 16  1  0
 15 17  1  0
 17 18  1  0
 17 19  2  0
 19 20  1  0
 19 21  1  0
 21 22  1  0
 21 23  2  0
 23 24  1  0
  6 25  1  0
 25 26  1  0
 25 27  2  0
 27 28  1  0
 27  2  1  0
 11  7  1  0
 23 14  1  0
M  END
>  <cnnaffinity>  (1) 
-4.43471

>  <filename>  (1) 
Fc1ccc(OOc2nnnn2-c2cccnc2)cc1

$$$$
