
     RDKit          3D

 43 46  0  0  0  0  0  0  0  0999 V2000
   15.4158   -1.1791   19.9190 F   0  0  0  0  0  0  0  0  0  0  0  0
   14.4076   -1.1484   20.8033 C   0  0  0  0  0  0  0  0  0  0  0  0
   13.3855   -2.0481   20.5650 C   0  0  0  0  0  0  0  0  0  0  0  0
   12.1425   -1.7633   21.1000 C   0  0  0  0  0  0  0  0  0  0  0  0
   11.9144   -0.5966   21.8443 C   0  0  0  0  0  0  0  0  0  0  0  0
   10.5068   -0.1720   21.9355 C   0  0  0  0  0  0  0  0  0  0  0  0
    9.5493   -0.9479   21.4347 N   0  0  0  0  0  0  0  0  0  0  0  0
    8.4280   -0.2372   21.6189 N   0  0  0  0  0  0  0  0  0  0  0  0
    7.1552   -0.7424   21.1075 C   0  0  0  0  0  0  0  0  0  0  0  0
    6.5335    0.0562   19.9775 C   0  0  0  0  0  0  0  0  0  0  0  0
    5.3046    0.7163   20.1003 C   0  0  0  0  0  0  0  0  0  0  0  0
    4.7763    1.3818   18.9903 C   0  0  0  0  0  0  0  0  0  0  0  0
    5.4952    1.3624   17.7932 C   0  0  0  0  0  0  0  0  0  0  0  0
    6.6738    0.7367   17.6525 N   0  0  0  0  0  0  0  0  0  0  0  0
    7.1733    0.1130   18.7259 C   0  0  0  0  0  0  0  0  0  0  0  0
    8.1328   -0.3831   18.5823 H   0  0  0  0  0  0  0  0  0  0  0  0
    5.1081    1.8607   16.9057 H   0  0  0  0  0  0  0  0  0  0  0  0
    3.8351    1.9163   19.0393 H   0  0  0  0  0  0  0  0  0  0  0  0
    4.7573    0.7090   21.0464 H   0  0  0  0  0  0  0  0  0  0  0  0
    7.3704   -1.7623   20.7746 H   0  0  0  0  0  0  0  0  0  0  0  0
    6.4610   -0.8196   21.9483 H   0  0  0  0  0  0  0  0  0  0  0  0
    8.7534    0.9196   22.2384 C   0  0  0  0  0  0  0  0  0  0  0  0
    7.7403    1.8108   22.8729 C   0  0  0  0  0  0  0  0  0  0  0  0
    7.2196    1.1874   24.0901 N   0  0  0  0  0  0  0  0  0  0  0  0
    6.0210    0.5931   24.3197 C   0  0  0  0  0  0  0  0  0  0  0  0
    6.1127   -0.0885   25.5139 C   0  0  0  0  0  0  0  0  0  0  0  0
    7.4355    0.1612   25.9488 C   0  0  0  0  0  0  0  0  0  0  0  0
    8.2430   -0.3506   27.1173 C   0  0  0  0  0  0  0  0  0  0  0  0
    8.0291   -1.6871   27.3023 F   0  0  0  0  0  0  0  0  0  0  0  0
    7.9085    0.2654   28.2863 F   0  0  0  0  0  0  0  0  0  0  0  0
    9.3059   -0.1789   26.9171 H   0  0  0  0  0  0  0  0  0  0  0  0
    8.0719    0.9344   25.0811 N   0  0  0  0  0  0  0  0  0  0  0  0
    5.3599   -0.7025   25.9871 H   0  0  0  0  0  0  0  0  0  0  0  0
    5.2075    0.7258   23.6212 H   0  0  0  0  0  0  0  0  0  0  0  0
    8.2457    2.7313   23.1649 H   0  0  0  0  0  0  0  0  0  0  0  0
    6.9124    2.0150   22.1921 H   0  0  0  0  0  0  0  0  0  0  0  0
   10.0565    1.0082   22.4160 N   0  0  0  0  0  0  0  0  0  0  0  0
   13.0225    0.1534   22.2848 C   0  0  0  0  0  0  0  0  0  0  0  0
   14.2910   -0.1311   21.7648 C   0  0  0  0  0  0  0  0  0  0  0  0
   15.1432    0.4951   22.0077 H   0  0  0  0  0  0  0  0  0  0  0  0
   12.9097    0.9956   22.9637 H   0  0  0  0  0  0  0  0  0  0  0  0
   11.2664   -2.3572   20.8754 H   0  0  0  0  0  0  0  0  0  0  0  0
   13.5649   -2.8836   19.8973 H   0  0  0  0  0  0  0  0  0  0  0  0
  1  2  1  0
  2  3  2  0
  3  4  1  0
  4  5  2  0
  5  6  1  0
  6  7  2  0
  7  8  1  0
  8  9  1  0
  9 10  1  0
 10 11  2  0
 11 12  1  0
 12 13  2  0
 13 14  1  0
 14 15  2  0
 15 16  1  0
 13 17  1  0
 12 18  1  0
 11 19  1  0
  9 20  1  0
  9 21  1  0
  8 22  1  0
 22 23  1  0
 23 24  1  0
 24 25  1  0
 25 26  2  0
 26 27  1  0
 27 28  1  0
 28 29  1  0
 28 30  1  0
 28 31  1  0
 27 32  2  0
 26 33  1  0
 25 34  1  0
 23 35  1  0
 23 36  1  0
 22 37  2  0
  5 38  1  0
 38 39  2  0
 39 40  1  0
 38 41  1  0
  4 42  1  0
  3 43  1  0
 39  2  1  0
 37  6  1  0
 15 10  1  0
 32 24  1  0
M  END
>  <cnnaffinity>  (1) 
-6.77601

>  <filename>  (1) 
Fc1ccc(-c2nc(Cn3ccc(C(F)F)n3)n(Cc3cccnc3)n2)cc1

$$$$
