
     RDKit          3D

 41 44  0  0  0  0  0  0  0  0999 V2000
   13.3298    1.6621   24.4834 F   0  0  0  0  0  0  0  0  0  0  0  0
   12.4883    1.3807   23.4823 C   0  0  0  0  0  0  0  0  0  0  0  0
   11.3389    2.1467   23.3134 C   0  0  0  0  0  0  0  0  0  0  0  0
   10.4110    1.7968   22.3211 C   0  0  0  0  0  0  0  0  0  0  0  0
   10.6350    0.6625   21.5312 C   0  0  0  0  0  0  0  0  0  0  0  0
    9.5644    0.1343   20.6101 C   0  0  0  0  0  0  0  0  0  0  0  0
    8.5212   -0.6611   21.3237 C   0  0  0  0  0  0  0  0  0  0  0  0
    8.7157   -1.4427   22.3662 N   0  0  0  0  0  0  0  0  0  0  0  0
    7.5072   -2.0180   22.5528 C   0  0  0  0  0  0  0  0  0  0  0  0
    7.2983   -3.0182   23.6388 C   0  0  0  0  0  0  0  0  0  0  0  0
    6.3419   -2.5840   24.7672 C   0  0  0  0  0  0  0  0  0  0  0  0
    5.7614   -3.9098   25.2759 C   0  0  0  0  0  0  0  0  0  0  0  0
    6.0625   -4.9046   24.3097 O   0  0  0  0  0  0  0  0  0  0  0  0
    6.6749   -4.3409   23.1688 C   0  0  0  0  0  0  0  0  0  0  0  0
    5.9372   -4.1602   22.3701 H   0  0  0  0  0  0  0  0  0  0  0  0
    7.4281   -5.0575   22.8195 H   0  0  0  0  0  0  0  0  0  0  0  0
    6.2052   -4.2240   26.2275 H   0  0  0  0  0  0  0  0  0  0  0  0
    4.6751   -3.8284   25.4166 H   0  0  0  0  0  0  0  0  0  0  0  0
    6.8606   -2.0231   25.5514 H   0  0  0  0  0  0  0  0  0  0  0  0
    5.5427   -1.9568   24.3602 H   0  0  0  0  0  0  0  0  0  0  0  0
    8.2907   -3.2136   24.0543 H   0  0  0  0  0  0  0  0  0  0  0  0
    6.5701   -1.6423   21.6994 N   0  0  0  0  0  0  0  0  0  0  0  0
    7.2379   -0.7931   20.8786 N   0  0  0  0  0  0  0  0  0  0  0  0
    6.5620   -0.1026   19.8412 C   0  0  0  0  0  0  0  0  0  0  0  0
    5.3767    0.5822   20.1173 C   0  0  0  0  0  0  0  0  0  0  0  0
    4.7921    1.3083   19.0777 C   0  0  0  0  0  0  0  0  0  0  0  0
    5.3940    1.3151   17.8120 C   0  0  0  0  0  0  0  0  0  0  0  0
    6.5176    0.6341   17.5370 N   0  0  0  0  0  0  0  0  0  0  0  0
    7.0799   -0.0556   18.5353 C   0  0  0  0  0  0  0  0  0  0  0  0
    8.0070   -0.5789   18.3082 H   0  0  0  0  0  0  0  0  0  0  0  0
    4.9629    1.8852   16.9912 H   0  0  0  0  0  0  0  0  0  0  0  0
    3.8778    1.8657   19.2388 H   0  0  0  0  0  0  0  0  0  0  0  0
    4.9549    0.5519   21.1243 H   0  0  0  0  0  0  0  0  0  0  0  0
    9.0968    0.9512   20.0576 H   0  0  0  0  0  0  0  0  0  0  0  0
   10.0071   -0.5461   19.8754 H   0  0  0  0  0  0  0  0  0  0  0  0
   11.8250   -0.0655   21.6709 C   0  0  0  0  0  0  0  0  0  0  0  0
   12.7573    0.3025   22.6353 C   0  0  0  0  0  0  0  0  0  0  0  0
   13.8976   -0.3904   22.7662 F   0  0  0  0  0  0  0  0  0  0  0  0
   12.0421   -0.9341   21.0489 H   0  0  0  0  0  0  0  0  0  0  0  0
    9.5012    2.3937   22.1964 H   0  0  0  0  0  0  0  0  0  0  0  0
   11.1816    2.9799   23.9885 H   0  0  0  0  0  0  0  0  0  0  0  0
  1  2  1  0
  2  3  2  0
  3  4  1  0
  4  5  2  0
  5  6  1  0
  6  7  1  0
  7  8  2  0
  8  9  1  0
  9 10  1  0
 10 11  1  0
 11 12  1  0
 12 13  1  0
 13 14  1  0
 14 15  1  0
 14 16  1  0
 12 17  1  0
 12 18  1  0
 11 19  1  0
 11 20  1  0
 10 21  1  0
  9 22  2  0
 22 23  1  0
 23 24  1  0
 24 25  2  0
 25 26  1  0
 26 27  2  0
 27 28  1  0
 28 29  2  0
 29 30  1  0
 27 31  1  0
 26 32  1  0
 25 33  1  0
  6 34  1  0
  6 35  1  0
  5 36  1  0
 36 37  2  0
 37 38  1  0
 36 39  1  0
  4 40  1  0
  3 41  1  0
 37  2  1  0
 23  7  1  0
 29 24  1  0
 14 10  1  0
M  END
>  <cnnaffinity>  (1) 
-6.40929

>  <filename>  (1) 
Fc1ccc(Cc2nc(C3CCOC3)nn2-c2cccnc2)cc1F

$$$$
