
     RDKit          3D

 36 39  0  0  0  0  0  0  0  0999 V2000
    9.2428   -4.5597   26.3842 F   0  0  0  0  0  0  0  0  0  0  0  0
    8.2533   -4.3098   25.5194 C   0  0  0  0  0  0  0  0  0  0  0  0
    7.0669   -5.0235   25.6439 C   0  0  0  0  0  0  0  0  0  0  0  0
    6.0588   -4.7200   24.7327 C   0  0  0  0  0  0  0  0  0  0  0  0
    4.9052   -5.3915   24.8317 F   0  0  0  0  0  0  0  0  0  0  0  0
    6.1960   -3.7606   23.7314 C   0  0  0  0  0  0  0  0  0  0  0  0
    7.4233   -3.0773   23.6202 C   0  0  0  0  0  0  0  0  0  0  0  0
    7.6616   -2.0622   22.5623 C   0  0  0  0  0  0  0  0  0  0  0  0
    6.7518   -1.6351   21.7074 N   0  0  0  0  0  0  0  0  0  0  0  0
    7.4302   -0.7150   20.9698 N   0  0  0  0  0  0  0  0  0  0  0  0
    6.7456   -0.0399   19.9162 C   0  0  0  0  0  0  0  0  0  0  0  0
    5.5338    0.6060   20.1890 C   0  0  0  0  0  0  0  0  0  0  0  0
    4.8979    1.2756   19.1444 C   0  0  0  0  0  0  0  0  0  0  0  0
    5.4735    1.2723   17.8694 C   0  0  0  0  0  0  0  0  0  0  0  0
    6.6160    0.6232   17.5947 N   0  0  0  0  0  0  0  0  0  0  0  0
    7.2283   -0.0233   18.5955 C   0  0  0  0  0  0  0  0  0  0  0  0
    8.1324   -0.5680   18.3237 H   0  0  0  0  0  0  0  0  0  0  0  0
    4.9913    1.8008   17.0472 H   0  0  0  0  0  0  0  0  0  0  0  0
    3.9554    1.7819   19.3062 H   0  0  0  0  0  0  0  0  0  0  0  0
    5.1117    0.5732   21.1951 H   0  0  0  0  0  0  0  0  0  0  0  0
    8.7009   -0.6090   21.4668 C   0  0  0  0  0  0  0  0  0  0  0  0
    9.7179    0.4403   21.1963 C   0  0  0  0  0  0  0  0  0  0  0  0
    9.2513    1.7328   21.7786 C   0  0  0  0  0  0  0  0  0  0  0  0
    9.5515    2.1725   22.9676 N   0  0  0  0  0  0  0  0  0  0  0  0
    8.8477    3.3476   23.1163 O   0  0  0  0  0  0  0  0  0  0  0  0
    8.1210    3.5709   22.0138 C   0  0  0  0  0  0  0  0  0  0  0  0
    8.3297    2.5735   21.1261 C   0  0  0  0  0  0  0  0  0  0  0  0
    7.9045    2.3442   20.1678 H   0  0  0  0  0  0  0  0  0  0  0  0
    7.5429    4.4812   22.0426 H   0  0  0  0  0  0  0  0  0  0  0  0
    9.8434    0.5544   20.1245 H   0  0  0  0  0  0  0  0  0  0  0  0
   10.6483    0.1098   21.6591 H   0  0  0  0  0  0  0  0  0  0  0  0
    8.8755   -1.4669   22.4322 N   0  0  0  0  0  0  0  0  0  0  0  0
    8.4563   -3.3511   24.5358 C   0  0  0  0  0  0  0  0  0  0  0  0
    9.3989   -2.8156   24.4809 H   0  0  0  0  0  0  0  0  0  0  0  0
    5.3663   -3.5395   23.0664 H   0  0  0  0  0  0  0  0  0  0  0  0
    6.9391   -5.7773   26.4132 H   0  0  0  0  0  0  0  0  0  0  0  0
  1  2  1  0
  2  3  2  0
  3  4  1  0
  4  5  1  0
  4  6  2  0
  6  7  1  0
  7  8  1  0
  8  9  2  0
  9 10  1  0
 10 11  1  0
 11 12  2  0
 12 13  1  0
 13 14  2  0
 14 15  1  0
 15 16  2  0
 16 17  1  0
 14 18  1  0
 13 19  1  0
 12 20  1  0
 10 21  1  0
 21 22  1  0
 22 23  1  0
 23 24  2  0
 24 25  1  0
 25 26  1  0
 26 27  2  0
 27 28  1  0
 26 29  1  0
 22 30  1  0
 22 31  1  0
 21 32  2  0
  7 33  2  0
 33 34  1  0
  6 35  1  0
  3 36  1  0
 33  2  1  0
 32  8  1  0
 16 11  1  0
 27 23  1  0
M  END
>  <cnnaffinity>  (1) 
-5.83426

>  <filename>  (1) 
Fc1cc(F)cc(-c2nc(Cc3ccon3)n(-c3cccnc3)n2)c1

$$$$
