
     RDKit          3D

 42 45  0  0  0  0  0  0  0  0999 V2000
    3.5819    4.0097   26.9672 F   0  0  0  0  0  0  0  0  0  0  0  0
    4.5407    3.3544   26.2972 C   0  0  0  0  0  0  0  0  0  0  0  0
    4.2069    2.2784   25.4846 C   0  0  0  0  0  0  0  0  0  0  0  0
    5.2170    1.5926   24.8039 C   0  0  0  0  0  0  0  0  0  0  0  0
    6.5633    1.9625   24.9358 C   0  0  0  0  0  0  0  0  0  0  0  0
    7.6277    1.1873   24.1984 C   0  0  0  0  0  0  0  0  0  0  0  0
    7.8448    1.6528   22.7305 C   0  0  0  0  0  0  0  0  0  0  0  0
    8.7633    0.7312   21.9936 C   0  0  0  0  0  0  0  0  0  0  0  0
   10.0663    0.7872   22.1238 N   0  0  0  0  0  0  0  0  0  0  0  0
   10.5028   -0.3908   21.5872 C   0  0  0  0  0  0  0  0  0  0  0  0
   11.9557   -0.6599   21.6839 C   0  0  0  0  0  0  0  0  0  0  0  0
   12.6731   -1.5946   21.1180 N   0  0  0  0  0  0  0  0  0  0  0  0
   14.0027   -1.4356   21.4196 C   0  0  0  0  0  0  0  0  0  0  0  0
   14.2936   -0.3991   22.2544 C   0  0  0  0  0  0  0  0  0  0  0  0
   12.8872    0.4624   22.6482 S   0  0  0  0  0  0  0  0  0  0  0  0
   15.2475   -0.0748   22.6193 H   0  0  0  0  0  0  0  0  0  0  0  0
   14.7220   -2.1070   20.9793 H   0  0  0  0  0  0  0  0  0  0  0  0
    9.5301   -1.1423   21.0916 N   0  0  0  0  0  0  0  0  0  0  0  0
    8.4229   -0.4075   21.3502 N   0  0  0  0  0  0  0  0  0  0  0  0
    7.0856   -0.8518   20.9659 C   0  0  0  0  0  0  0  0  0  0  0  0
    6.4521   -0.0114   19.8699 C   0  0  0  0  0  0  0  0  0  0  0  0
    5.2592    0.6992   20.0405 C   0  0  0  0  0  0  0  0  0  0  0  0
    4.7230    1.3996   18.9558 C   0  0  0  0  0  0  0  0  0  0  0  0
    5.4169    1.3847   17.7429 C   0  0  0  0  0  0  0  0  0  0  0  0
    6.5764    0.7329   17.5639 N   0  0  0  0  0  0  0  0  0  0  0  0
    7.0782    0.0707   18.6133 C   0  0  0  0  0  0  0  0  0  0  0  0
    8.0355   -0.4227   18.4526 H   0  0  0  0  0  0  0  0  0  0  0  0
    5.0220    1.9120   16.8758 H   0  0  0  0  0  0  0  0  0  0  0  0
    3.8000    1.9642   19.0381 H   0  0  0  0  0  0  0  0  0  0  0  0
    4.7636    0.7310   21.0139 H   0  0  0  0  0  0  0  0  0  0  0  0
    6.4510   -0.8564   21.8616 H   0  0  0  0  0  0  0  0  0  0  0  0
    7.1964   -1.8926   20.6534 H   0  0  0  0  0  0  0  0  0  0  0  0
    8.3289    2.6328   22.7295 H   0  0  0  0  0  0  0  0  0  0  0  0
    6.8924    1.7633   22.2005 H   0  0  0  0  0  0  0  0  0  0  0  0
    8.5832    1.2583   24.7339 H   0  0  0  0  0  0  0  0  0  0  0  0
    7.3593    0.1196   24.2062 H   0  0  0  0  0  0  0  0  0  0  0  0
    6.8839    3.0582   25.7559 C   0  0  0  0  0  0  0  0  0  0  0  0
    5.8791    3.7428   26.4327 C   0  0  0  0  0  0  0  0  0  0  0  0
    6.1901    4.7722   27.2344 F   0  0  0  0  0  0  0  0  0  0  0  0
    7.9069    3.3999   25.8916 H   0  0  0  0  0  0  0  0  0  0  0  0
    4.9614    0.7499   24.1651 H   0  0  0  0  0  0  0  0  0  0  0  0
    3.1626    1.9921   25.4149 H   0  0  0  0  0  0  0  0  0  0  0  0
  1  2  1  0
  2  3  2  0
  3  4  1  0
  4  5  2  0
  5  6  1  0
  6  7  1  0
  7  8  1  0
  8  9  2  0
  9 10  1  0
 10 11  1  0
 11 12  2  0
 12 13  1  0
 13 14  2  0
 14 15  1  0
 14 16  1  0
 13 17  1  0
 10 18  2  0
 18 19  1  0
 19 20  1  0
 20 21  1  0
 21 22  2  0
 22 23  1  0
 23 24  2  0
 24 25  1  0
 25 26  2  0
 26 27  1  0
 24 28  1  0
 23 29  1  0
 22 30  1  0
 20 31  1  0
 20 32  1  0
  7 33  1  0
  7 34  1  0
  6 35  1  0
  6 36  1  0
  5 37  1  0
 37 38  2  0
 38 39  1  0
 37 40  1  0
  4 41  1  0
  3 42  1  0
 38  2  1  0
 19  8  1  0
 26 21  1  0
 15 11  1  0
M  END
>  <cnnaffinity>  (1) 
-6.57824

>  <filename>  (1) 
Fc1ccc(CCc2nc(-c3nccs3)nn2Cc2cccnc2)cc1F

$$$$
