
     RDKit          3D

 40 43  0  0  0  0  0  0  0  0999 V2000
   13.8968    1.8693   23.6840 F   0  0  0  0  0  0  0  0  0  0  0  0
   13.2649    0.9267   22.9835 C   0  0  0  0  0  0  0  0  0  0  0  0
   14.0086   -0.1281   22.4668 C   0  0  0  0  0  0  0  0  0  0  0  0
   13.3115   -1.1249   21.7861 C   0  0  0  0  0  0  0  0  0  0  0  0
   14.0142   -2.1302   21.2457 F   0  0  0  0  0  0  0  0  0  0  0  0
   11.9278   -1.0907   21.6192 C   0  0  0  0  0  0  0  0  0  0  0  0
   11.2109    0.0174   22.1216 C   0  0  0  0  0  0  0  0  0  0  0  0
    9.7423    0.1594   21.9755 C   0  0  0  0  0  0  0  0  0  0  0  0
    8.9292   -0.7778   21.5223 N   0  0  0  0  0  0  0  0  0  0  0  0
    7.7032   -0.2431   21.7157 N   0  0  0  0  0  0  0  0  0  0  0  0
    6.5108   -0.8584   21.1444 C   0  0  0  0  0  0  0  0  0  0  0  0
    6.0218   -0.1182   19.9133 C   0  0  0  0  0  0  0  0  0  0  0  0
    4.8535    0.6532   19.8852 C   0  0  0  0  0  0  0  0  0  0  0  0
    4.5916    1.4359   18.7552 C   0  0  0  0  0  0  0  0  0  0  0  0
    5.4866    1.3881   17.6835 C   0  0  0  0  0  0  0  0  0  0  0  0
    6.5838    0.6173   17.6674 N   0  0  0  0  0  0  0  0  0  0  0  0
    6.8373   -0.1023   18.7667 C   0  0  0  0  0  0  0  0  0  0  0  0
    7.7494   -0.6984   18.7472 H   0  0  0  0  0  0  0  0  0  0  0  0
    5.3172    1.9916   16.7941 H   0  0  0  0  0  0  0  0  0  0  0  0
    3.7339    2.0986   18.7030 H   0  0  0  0  0  0  0  0  0  0  0  0
    4.1644    0.6639   20.7345 H   0  0  0  0  0  0  0  0  0  0  0  0
    5.7499   -0.8886   21.9260 H   0  0  0  0  0  0  0  0  0  0  0  0
    6.7970   -1.8908   20.9218 H   0  0  0  0  0  0  0  0  0  0  0  0
    7.8360    0.9869   22.2580 C   0  0  0  0  0  0  0  0  0  0  0  0
    6.7388    1.7082   22.9678 C   0  0  0  0  0  0  0  0  0  0  0  0
    6.6282    1.1382   24.3077 N   0  0  0  0  0  0  0  0  0  0  0  0
    7.3890    1.4412   25.3919 C   0  0  0  0  0  0  0  0  0  0  0  0
    7.2292    0.4203   26.2973 C   0  0  0  0  0  0  0  0  0  0  0  0
    6.3480   -0.4737   25.6492 C   0  0  0  0  0  0  0  0  0  0  0  0
    6.0204   -0.0435   24.4364 N   0  0  0  0  0  0  0  0  0  0  0  0
    5.9413   -1.4016   26.0254 H   0  0  0  0  0  0  0  0  0  0  0  0
    7.7017    0.3163   27.2694 H   0  0  0  0  0  0  0  0  0  0  0  0
    7.9924    2.3407   25.4040 H   0  0  0  0  0  0  0  0  0  0  0  0
    5.7770    1.6040   22.4664 H   0  0  0  0  0  0  0  0  0  0  0  0
    6.9892    2.7632   23.0679 H   0  0  0  0  0  0  0  0  0  0  0  0
    9.1061    1.2871   22.4073 N   0  0  0  0  0  0  0  0  0  0  0  0
   11.8910    1.0257   22.8289 C   0  0  0  0  0  0  0  0  0  0  0  0
   11.3503    1.8709   23.2445 H   0  0  0  0  0  0  0  0  0  0  0  0
   11.4251   -1.9226   21.1387 H   0  0  0  0  0  0  0  0  0  0  0  0
   15.0815   -0.1445   22.5803 H   0  0  0  0  0  0  0  0  0  0  0  0
  1  2  1  0
  2  3  2  0
  3  4  1  0
  4  5  1  0
  4  6  2  0
  6  7  1  0
  7  8  1  0
  8  9  2  0
  9 10  1  0
 10 11  1  0
 11 12  1  0
 12 13  2  0
 13 14  1  0
 14 15  2  0
 15 16  1  0
 16 17  2  0
 17 18  1  0
 15 19  1  0
 14 20  1  0
 13 21  1  0
 11 22  1  0
 11 23  1  0
 10 24  1  0
 24 25  1  0
 25 26  1  0
 26 27  1  0
 27 28  2  0
 28 29  1  0
 29 30  2  0
 29 31  1  0
 28 32  1  0
 27 33  1  0
 25 34  1  0
 25 35  1  0
 24 36  2  0
  7 37  2  0
 37 38  1  0
  6 39  1  0
  3 40  1  0
 37  2  1  0
 36  8  1  0
 17 12  1  0
 30 26  1  0
M  END
>  <cnnaffinity>  (1) 
-6.42436

>  <filename>  (1) 
Fc1cc(F)cc(-c2nc(Cn3cccn3)n(Cc3cccnc3)n2)c1

$$$$
