
     RDKit          3D

 48 51  0  0  0  0  0  0  0  0999 V2000
    7.4783    5.6451   26.6761 F   0  0  0  0  0  0  0  0  0  0  0  0
    7.8642    4.7346   25.7695 C   0  0  0  0  0  0  0  0  0  0  0  0
    7.8470    5.0570   24.4217 C   0  0  0  0  0  0  0  0  0  0  0  0
    8.2522    4.0950   23.4827 C   0  0  0  0  0  0  0  0  0  0  0  0
    8.6705    2.8172   23.8818 C   0  0  0  0  0  0  0  0  0  0  0  0
    9.0846    1.8242   23.0528 O   0  0  0  0  0  0  0  0  0  0  0  0
    9.0631    1.9894   21.6373 C   0  0  0  0  0  0  0  0  0  0  0  0
    9.4959    0.6571   21.0241 C   0  0  0  0  0  0  0  0  0  0  0  0
    8.6110   -0.4579   21.4453 C   0  0  0  0  0  0  0  0  0  0  0  0
    8.8421   -1.2937   22.4334 N   0  0  0  0  0  0  0  0  0  0  0  0
    7.6585   -1.9507   22.5652 C   0  0  0  0  0  0  0  0  0  0  0  0
    7.4017   -2.9007   23.7041 C   0  0  0  0  0  0  0  0  0  0  0  0
    8.6016   -3.8623   23.9639 C   0  0  0  0  0  0  0  0  0  0  0  0
    9.4717   -3.3730   25.1254 C   0  0  0  0  0  0  0  0  0  0  0  0
    8.7450   -3.2745   26.3444 O   0  0  0  0  0  0  0  0  0  0  0  0
    7.3648   -2.9366   26.2518 C   0  0  0  0  0  0  0  0  0  0  0  0
    7.0421   -2.1081   25.0076 C   0  0  0  0  0  0  0  0  0  0  0  0
    5.9805   -1.8438   25.0043 H   0  0  0  0  0  0  0  0  0  0  0  0
    7.6131   -1.1665   25.0590 H   0  0  0  0  0  0  0  0  0  0  0  0
    6.7645   -3.8610   26.2566 H   0  0  0  0  0  0  0  0  0  0  0  0
    7.1247   -2.3890   27.1675 H   0  0  0  0  0  0  0  0  0  0  0  0
   10.2967   -4.0633   25.3249 H   0  0  0  0  0  0  0  0  0  0  0  0
    9.9039   -2.3925   24.8669 H   0  0  0  0  0  0  0  0  0  0  0  0
    8.2226   -4.8576   24.2240 H   0  0  0  0  0  0  0  0  0  0  0  0
    9.2191   -3.9816   23.0687 H   0  0  0  0  0  0  0  0  0  0  0  0
    6.5343   -3.4887   23.3945 H   0  0  0  0  0  0  0  0  0  0  0  0
    6.7331   -1.6093   21.6942 N   0  0  0  0  0  0  0  0  0  0  0  0
    7.3569   -0.6586   20.9417 N   0  0  0  0  0  0  0  0  0  0  0  0
    6.6576    0.0119   19.8996 C   0  0  0  0  0  0  0  0  0  0  0  0
    5.4380    0.6451   20.1645 C   0  0  0  0  0  0  0  0  0  0  0  0
    4.8119    1.3114   19.1076 C   0  0  0  0  0  0  0  0  0  0  0  0
    5.3997    1.2970   17.8362 C   0  0  0  0  0  0  0  0  0  0  0  0
    6.5571    0.6712   17.5733 N   0  0  0  0  0  0  0  0  0  0  0  0
    7.1666    0.0507   18.5893 C   0  0  0  0  0  0  0  0  0  0  0  0
    8.1111   -0.4374   18.3615 H   0  0  0  0  0  0  0  0  0  0  0  0
    4.9224    1.7883   16.9915 H   0  0  0  0  0  0  0  0  0  0  0  0
    3.8799    1.8399   19.2578 H   0  0  0  0  0  0  0  0  0  0  0  0
    5.0162    0.6057   21.1735 H   0  0  0  0  0  0  0  0  0  0  0  0
   10.5164    0.4137   21.3221 H   0  0  0  0  0  0  0  0  0  0  0  0
    9.4946    0.7497   19.9377 H   0  0  0  0  0  0  0  0  0  0  0  0
    8.0517    2.2544   21.2959 H   0  0  0  0  0  0  0  0  0  0  0  0
    9.7518    2.7890   21.3320 H   0  0  0  0  0  0  0  0  0  0  0  0
    8.6648    2.5451   25.2730 C   0  0  0  0  0  0  0  0  0  0  0  0
    9.0479    1.3339   25.7170 F   0  0  0  0  0  0  0  0  0  0  0  0
    8.2726    3.4813   26.2189 C   0  0  0  0  0  0  0  0  0  0  0  0
    8.2775    3.2380   27.2758 H   0  0  0  0  0  0  0  0  0  0  0  0
    8.2442    4.3449   22.4253 H   0  0  0  0  0  0  0  0  0  0  0  0
    7.5173    6.0448   24.1192 H   0  0  0  0  0  0  0  0  0  0  0  0
  1  2  1  0
  2  3  2  0
  3  4  1  0
  4  5  2  0
  5  6  1  0
  6  7  1  0
  7  8  1  0
  8  9  1  0
  9 10  2  0
 10 11  1  0
 11 12  1  0
 12 13  1  0
 13 14  1  0
 14 15  1  0
 15 16  1  0
 16 17  1  0
 17 18  1  0
 17 19  1  0
 16 20  1  0
 16 21  1  0
 14 22  1  0
 14 23  1  0
 13 24  1  0
 13 25  1  0
 12 26  1  0
 11 27  2  0
 27 28  1  0
 28 29  1  0
 29 30  2  0
 30 31  1  0
 31 32  2  0
 32 33  1  0
 33 34  2  0
 34 35  1  0
 32 36  1  0
 31 37  1  0
 30 38  1  0
  8 39  1  0
  8 40  1  0
  7 41  1  0
  7 42  1  0
  5 43  1  0
 43 44  1  0
 43 45  2  0
 45 46  1  0
  4 47  1  0
  3 48  1  0
 45  2  1  0
 28  9  1  0
 34 29  1  0
 17 12  1  0
M  END
>  <cnnaffinity>  (1) 
-6.26296

>  <filename>  (1) 
Fc1ccc(OCCc2nc(C3CCOCC3)nn2-c2cccnc2)c(F)c1

$$$$
