
     RDKit          3D

 41 44  0  0  0  0  0  0  0  0999 V2000
   13.8497   -0.1418   23.1962 F   0  0  0  0  0  0  0  0  0  0  0  0
   12.7181    0.5335   22.9547 C   0  0  0  0  0  0  0  0  0  0  0  0
   12.4174    1.6778   23.6825 C   0  0  0  0  0  0  0  0  0  0  0  0
   11.2297    2.3683   23.4150 C   0  0  0  0  0  0  0  0  0  0  0  0
   10.3687    1.9110   22.4150 C   0  0  0  0  0  0  0  0  0  0  0  0
   10.6771    0.7700   21.6600 C   0  0  0  0  0  0  0  0  0  0  0  0
    9.6655    0.2269   20.6781 C   0  0  0  0  0  0  0  0  0  0  0  0
    8.6364   -0.6167   21.3317 C   0  0  0  0  0  0  0  0  0  0  0  0
    8.8609   -1.4857   22.2950 N   0  0  0  0  0  0  0  0  0  0  0  0
    7.6376   -2.0238   22.5093 C   0  0  0  0  0  0  0  0  0  0  0  0
    7.3990   -2.9385   23.6754 C   0  0  0  0  0  0  0  0  0  0  0  0
    6.9292   -2.1858   24.9512 C   0  0  0  0  0  0  0  0  0  0  0  0
    6.0018   -3.2076   25.6193 C   0  0  0  0  0  0  0  0  0  0  0  0
    5.4650   -4.0327   24.4403 C   0  0  0  0  0  0  0  0  0  0  0  0
    6.4086   -3.9099   23.3875 O   0  0  0  0  0  0  0  0  0  0  0  0
    5.3775   -5.1013   24.6670 H   0  0  0  0  0  0  0  0  0  0  0  0
    4.4875   -3.6745   24.0847 H   0  0  0  0  0  0  0  0  0  0  0  0
    6.5566   -3.8454   26.3162 H   0  0  0  0  0  0  0  0  0  0  0  0
    5.1897   -2.7374   26.1794 H   0  0  0  0  0  0  0  0  0  0  0  0
    6.3834   -1.2747   24.6732 H   0  0  0  0  0  0  0  0  0  0  0  0
    7.7727   -1.8761   25.5784 H   0  0  0  0  0  0  0  0  0  0  0  0
    8.3590   -3.4416   23.8527 H   0  0  0  0  0  0  0  0  0  0  0  0
    6.6761   -1.5538   21.7344 N   0  0  0  0  0  0  0  0  0  0  0  0
    7.3316   -0.6804   20.9359 N   0  0  0  0  0  0  0  0  0  0  0  0
    6.6482    0.0072   19.8978 C   0  0  0  0  0  0  0  0  0  0  0  0
    5.4344    0.6446   20.1647 C   0  0  0  0  0  0  0  0  0  0  0  0
    4.8114    1.3118   19.1082 C   0  0  0  0  0  0  0  0  0  0  0  0
    5.3989    1.2968   17.8356 C   0  0  0  0  0  0  0  0  0  0  0  0
    6.5560    0.6710   17.5725 N   0  0  0  0  0  0  0  0  0  0  0  0
    7.1628    0.0503   18.5892 C   0  0  0  0  0  0  0  0  0  0  0  0
    8.1106   -0.4296   18.3588 H   0  0  0  0  0  0  0  0  0  0  0  0
    4.9233    1.7880   16.9915 H   0  0  0  0  0  0  0  0  0  0  0  0
    3.8801    1.8403   19.2586 H   0  0  0  0  0  0  0  0  0  0  0  0
    5.0180    0.6054   21.1752 H   0  0  0  0  0  0  0  0  0  0  0  0
    9.1793    1.0599   20.1670 H   0  0  0  0  0  0  0  0  0  0  0  0
   10.1148   -0.4434   19.9400 H   0  0  0  0  0  0  0  0  0  0  0  0
   11.8518    0.0776   21.9558 C   0  0  0  0  0  0  0  0  0  0  0  0
   12.1573   -1.0525   21.2984 F   0  0  0  0  0  0  0  0  0  0  0  0
    9.4288    2.4228   22.2189 H   0  0  0  0  0  0  0  0  0  0  0  0
   10.9799    3.2627   23.9768 H   0  0  0  0  0  0  0  0  0  0  0  0
   13.1273    1.9951   24.4351 H   0  0  0  0  0  0  0  0  0  0  0  0
  1  2  1  0
  2  3  2  0
  3  4  1  0
  4  5  2  0
  5  6  1  0
  6  7  1  0
  7  8  1  0
  8  9  2  0
  9 10  1  0
 10 11  1  0
 11 12  1  0
 12 13  1  0
 13 14  1  0
 14 15  1  0
 14 16  1  0
 14 17  1  0
 13 18  1  0
 13 19  1  0
 12 20  1  0
 12 21  1  0
 11 22  1  0
 10 23  2  0
 23 24  1  0
 24 25  1  0
 25 26  2  0
 26 27  1  0
 27 28  2  0
 28 29  1  0
 29 30  2  0
 30 31  1  0
 28 32  1  0
 27 33  1  0
 26 34  1  0
  7 35  1  0
  7 36  1  0
  6 37  2  0
 37 38  1  0
  5 39  1  0
  4 40  1  0
  3 41  1  0
 37  2  1  0
 24  8  1  0
 30 25  1  0
 15 11  1  0
M  END
>  <cnnaffinity>  (1) 
-6.63589

>  <filename>  (1) 
Fc1cccc(Cc2nc(C3CCCO3)nn2-c2cccnc2)c1F

$$$$
