
     RDKit          3D

 41 44  0  0  0  0  0  0  0  0999 V2000
   14.9372    0.5882   22.4819 F   0  0  0  0  0  0  0  0  0  0  0  0
   13.9033   -0.1414   22.0615 C   0  0  0  0  0  0  0  0  0  0  0  0
   14.1178   -1.3384   21.3684 C   0  0  0  0  0  0  0  0  0  0  0  0
   13.1202   -2.0743   20.8860 N   0  0  0  0  0  0  0  0  0  0  0  0
   11.8720   -1.6564   21.0900 C   0  0  0  0  0  0  0  0  0  0  0  0
   11.5745   -0.4423   21.7108 C   0  0  0  0  0  0  0  0  0  0  0  0
   10.1731   -0.0625   21.7638 C   0  0  0  0  0  0  0  0  0  0  0  0
    9.2127   -0.8347   21.2819 N   0  0  0  0  0  0  0  0  0  0  0  0
    8.0909   -0.1484   21.5858 N   0  0  0  0  0  0  0  0  0  0  0  0
    6.7892   -0.6476   21.1613 C   0  0  0  0  0  0  0  0  0  0  0  0
    6.2518    0.0813   19.9527 C   0  0  0  0  0  0  0  0  0  0  0  0
    5.0505    0.7944   19.9823 C   0  0  0  0  0  0  0  0  0  0  0  0
    4.6300    1.4516   18.8240 C   0  0  0  0  0  0  0  0  0  0  0  0
    5.4384    1.3852   17.6862 C   0  0  0  0  0  0  0  0  0  0  0  0
    6.6016    0.7164   17.6412 N   0  0  0  0  0  0  0  0  0  0  0  0
    6.9926    0.0926   18.7575 C   0  0  0  0  0  0  0  0  0  0  0  0
    7.9533   -0.4218   18.7120 H   0  0  0  0  0  0  0  0  0  0  0  0
    5.1470    1.8996   16.7724 H   0  0  0  0  0  0  0  0  0  0  0  0
    3.7079    2.0217   18.7965 H   0  0  0  0  0  0  0  0  0  0  0  0
    4.4649    0.8449   20.9044 H   0  0  0  0  0  0  0  0  0  0  0  0
    6.9404   -1.7122   20.9568 H   0  0  0  0  0  0  0  0  0  0  0  0
    6.1089   -0.5607   22.0138 H   0  0  0  0  0  0  0  0  0  0  0  0
    8.4270    1.0075   22.1948 C   0  0  0  0  0  0  0  0  0  0  0  0
    7.4727    1.8890   22.9273 C   0  0  0  0  0  0  0  0  0  0  0  0
    7.3099    1.2524   24.2818 C   0  0  0  0  0  0  0  0  0  0  0  0
    8.2980    1.3844   25.2709 C   0  0  0  0  0  0  0  0  0  0  0  0
    8.2079    0.6089   26.4262 C   0  0  0  0  0  0  0  0  0  0  0  0
    7.1109   -0.2515   26.5555 C   0  0  0  0  0  0  0  0  0  0  0  0
    6.1643   -0.2883   25.5299 C   0  0  0  0  0  0  0  0  0  0  0  0
    6.2638    0.4305   24.4010 N   0  0  0  0  0  0  0  0  0  0  0  0
    5.2845   -0.9232   25.6070 H   0  0  0  0  0  0  0  0  0  0  0  0
    6.9903   -0.8944   27.4181 H   0  0  0  0  0  0  0  0  0  0  0  0
    8.9792    0.6507   27.1955 H   0  0  0  0  0  0  0  0  0  0  0  0
    9.1439    2.0355   25.0740 H   0  0  0  0  0  0  0  0  0  0  0  0
    6.5054    1.9563   22.4223 H   0  0  0  0  0  0  0  0  0  0  0  0
    7.9186    2.8831   22.9968 H   0  0  0  0  0  0  0  0  0  0  0  0
    9.7371    1.0942   22.3100 N   0  0  0  0  0  0  0  0  0  0  0  0
   12.6162    0.3391   22.2364 C   0  0  0  0  0  0  0  0  0  0  0  0
   12.4426    1.2900   22.7341 H   0  0  0  0  0  0  0  0  0  0  0  0
   11.0599   -2.2899   20.7491 H   0  0  0  0  0  0  0  0  0  0  0  0
   15.1135   -1.7031   21.1872 H   0  0  0  0  0  0  0  0  0  0  0  0
  1  2  1  0
  2  3  2  0
  3  4  1  0
  4  5  2  0
  5  6  1  0
  6  7  1  0
  7  8  2  0
  8  9  1  0
  9 10  1  0
 10 11  1  0
 11 12  2  0
 12 13  1  0
 13 14  2  0
 14 15  1  0
 15 16  2  0
 16 17  1  0
 14 18  1  0
 13 19  1  0
 12 20  1  0
 10 21  1  0
 10 22  1  0
  9 23  1  0
 23 24  1  0
 24 25  1  0
 25 26  2  0
 26 27  1  0
 27 28  2  0
 28 29  1  0
 29 30  2  0
 29 31  1  0
 28 32  1  0
 27 33  1  0
 26 34  1  0
 24 35  1  0
 24 36  1  0
 23 37  2  0
  6 38  2  0
 38 39  1  0
  5 40  1  0
  3 41  1  0
 38  2  1  0
 37  7  1  0
 16 11  1  0
 30 25  1  0
M  END
>  <cnnaffinity>  (1) 
-6.68918

>  <filename>  (1) 
Fc1cncc(-c2nc(Cc3ccccn3)n(Cc3cccnc3)n2)c1

$$$$
