
     RDKit          3D

 30 32  0  0  0  0  0  0  0  0999 V2000
    4.9524    1.7718   16.9200 H   0  0  0  0  0  0  0  0  0  0  0  0
    5.3974    1.3299   17.8102 C   0  0  0  0  0  0  0  0  0  0  0  0
    6.5929    0.7485   17.6367 N   0  0  0  0  0  0  0  0  0  0  0  0
    7.1587    0.1997   18.7122 C   0  0  0  0  0  0  0  0  0  0  0  0
    8.1287   -0.2568   18.5393 H   0  0  0  0  0  0  0  0  0  0  0  0
    6.6018    0.1859   19.9983 C   0  0  0  0  0  0  0  0  0  0  0  0
    7.3691   -0.4898   21.0861 C   0  0  0  0  0  0  0  0  0  0  0  0
    7.1667   -0.0762   22.3414 N   0  0  0  0  0  0  0  0  0  0  0  0
    7.7961   -0.7098   23.3504 C   0  0  0  0  0  0  0  0  0  0  0  0
    7.6385   -0.1465   24.7405 C   0  0  0  0  0  0  0  0  0  0  0  0
    6.5246    0.6536   25.0664 C   0  0  0  0  0  0  0  0  0  0  0  0
    5.7763    0.8973   24.3168 H   0  0  0  0  0  0  0  0  0  0  0  0
    6.3935    1.1502   26.3576 C   0  0  0  0  0  0  0  0  0  0  0  0
    5.3530    1.9479   26.6418 F   0  0  0  0  0  0  0  0  0  0  0  0
    7.3047    0.8541   27.3724 C   0  0  0  0  0  0  0  0  0  0  0  0
    7.1910    1.2405   28.3741 H   0  0  0  0  0  0  0  0  0  0  0  0
    8.3891    0.0500   27.0328 C   0  0  0  0  0  0  0  0  0  0  0  0
    9.2498   -0.3335   27.9885 F   0  0  0  0  0  0  0  0  0  0  0  0
    8.5974   -0.4173   25.7429 C   0  0  0  0  0  0  0  0  0  0  0  0
    9.5189   -0.9632   25.5643 H   0  0  0  0  0  0  0  0  0  0  0  0
    8.5527   -1.8766   23.1395 C   0  0  0  0  0  0  0  0  0  0  0  0
    8.9394   -2.4332   23.9857 H   0  0  0  0  0  0  0  0  0  0  0  0
    8.7898   -2.2931   21.8323 C   0  0  0  0  0  0  0  0  0  0  0  0
    9.3851   -3.1757   21.6128 H   0  0  0  0  0  0  0  0  0  0  0  0
    8.2577   -1.5381   20.7954 C   0  0  0  0  0  0  0  0  0  0  0  0
    8.5448   -1.7258   19.7755 H   0  0  0  0  0  0  0  0  0  0  0  0
    5.3509    0.8111   20.1651 C   0  0  0  0  0  0  0  0  0  0  0  0
    4.8803    0.8619   21.1492 H   0  0  0  0  0  0  0  0  0  0  0  0
    4.7393    1.3778   19.0427 C   0  0  0  0  0  0  0  0  0  0  0  0
    3.7764    1.8758   19.1078 H   0  0  0  0  0  0  0  0  0  0  0  0
  1  2  1  0
  2  3  2  0
  3  4  1  0
  4  5  1  0
  4  6  2  0
  6  7  1  0
  7  8  2  0
  8  9  1  0
  9 10  1  0
 10 11  2  0
 11 12  1  0
 11 13  1  0
 13 14  1  0
 13 15  2  0
 15 16  1  0
 15 17  1  0
 17 18  1  0
 17 19  2  0
 19 20  1  0
  9 21  2  0
 21 22  1  0
 21 23  1  0
 23 24  1  0
 23 25  2  0
 25 26  1  0
  6 27  1  0
 27 28  1  0
 27 29  2  0
 29 30  1  0
 29  2  1  0
 25  7  1  0
 19 10  1  0
M  END
>  <cnnaffinity>  (1) 
-4.86682

>  <filename>  (1) 
Fc1cc(F)cc(-c2cccc(-c3cccnc3)n2)c1

$$$$
