
     RDKit          3D

 44 47  0  0  0  0  0  0  0  0999 V2000
    9.0854   -2.8812   25.1753 F   0  0  0  0  0  0  0  0  0  0  0  0
    8.0497   -2.0232   25.1283 C   0  0  0  0  0  0  0  0  0  0  0  0
    6.7396   -2.5051   25.1572 C   0  0  0  0  0  0  0  0  0  0  0  0
    5.6774   -1.6895   25.1338 N   0  0  0  0  0  0  0  0  0  0  0  0
    5.8946   -0.3711   25.0182 C   0  0  0  0  0  0  0  0  0  0  0  0
    7.1737    0.2055   24.9227 C   0  0  0  0  0  0  0  0  0  0  0  0
    7.3736    1.6592   24.5492 C   0  0  0  0  0  0  0  0  0  0  0  0
    7.3902    1.8724   23.0073 C   0  0  0  0  0  0  0  0  0  0  0  0
    8.3136    0.9225   22.3025 C   0  0  0  0  0  0  0  0  0  0  0  0
    9.6243    0.9416   22.4640 N   0  0  0  0  0  0  0  0  0  0  0  0
   10.0353   -0.1937   21.8575 C   0  0  0  0  0  0  0  0  0  0  0  0
   11.4368   -0.5900   21.8142 C   0  0  0  0  0  0  0  0  0  0  0  0
   12.4727    0.1558   22.4001 C   0  0  0  0  0  0  0  0  0  0  0  0
   13.7706   -0.2581   22.1686 C   0  0  0  0  0  0  0  0  0  0  0  0
   14.7797    0.4944   22.6156 F   0  0  0  0  0  0  0  0  0  0  0  0
   14.0126   -1.4104   21.4115 C   0  0  0  0  0  0  0  0  0  0  0  0
   13.0193   -2.1175   20.8717 N   0  0  0  0  0  0  0  0  0  0  0  0
   11.7590   -1.7544   21.1185 C   0  0  0  0  0  0  0  0  0  0  0  0
   10.9539   -2.3701   20.7315 H   0  0  0  0  0  0  0  0  0  0  0  0
   15.0145   -1.7653   21.2261 H   0  0  0  0  0  0  0  0  0  0  0  0
   12.2979    1.0337   23.0155 H   0  0  0  0  0  0  0  0  0  0  0  0
    9.0606   -0.8973   21.2973 N   0  0  0  0  0  0  0  0  0  0  0  0
    7.9544   -0.1819   21.6085 N   0  0  0  0  0  0  0  0  0  0  0  0
    6.6407   -0.5914   21.1351 C   0  0  0  0  0  0  0  0  0  0  0  0
    6.1653    0.1606   19.9049 C   0  0  0  0  0  0  0  0  0  0  0  0
    4.9537    0.8574   19.8824 C   0  0  0  0  0  0  0  0  0  0  0  0
    4.5711    1.5148   18.7104 C   0  0  0  0  0  0  0  0  0  0  0  0
    5.4162    1.4430   17.5997 C   0  0  0  0  0  0  0  0  0  0  0  0
    6.5798    0.7741   17.5932 N   0  0  0  0  0  0  0  0  0  0  0  0
    6.9387    0.1620   18.7292 C   0  0  0  0  0  0  0  0  0  0  0  0
    7.8913   -0.3656   18.7080 H   0  0  0  0  0  0  0  0  0  0  0  0
    5.1429    1.9381   16.6704 H   0  0  0  0  0  0  0  0  0  0  0  0
    3.6507    2.0874   18.6524 H   0  0  0  0  0  0  0  0  0  0  0  0
    4.3295    0.8994   20.7781 H   0  0  0  0  0  0  0  0  0  0  0  0
    6.7241   -1.6630   20.9328 H   0  0  0  0  0  0  0  0  0  0  0  0
    5.9276   -0.4768   21.9602 H   0  0  0  0  0  0  0  0  0  0  0  0
    7.7250    2.8901   22.7827 H   0  0  0  0  0  0  0  0  0  0  0  0
    6.3772    1.7901   22.6057 H   0  0  0  0  0  0  0  0  0  0  0  0
    8.3305    2.0150   24.9530 H   0  0  0  0  0  0  0  0  0  0  0  0
    6.5935    2.2902   24.9919 H   0  0  0  0  0  0  0  0  0  0  0  0
    8.2852   -0.6590   25.0229 C   0  0  0  0  0  0  0  0  0  0  0  0
    9.3072   -0.2874   24.9418 H   0  0  0  0  0  0  0  0  0  0  0  0
    5.0006    0.2544   25.0065 H   0  0  0  0  0  0  0  0  0  0  0  0
    6.5544   -3.5757   25.2027 H   0  0  0  0  0  0  0  0  0  0  0  0
  1  2  1  0
  2  3  2  0
  3  4  1  0
  4  5  2  0
  5  6  1  0
  6  7  1  0
  7  8  1  0
  8  9  1  0
  9 10  2  0
 10 11  1  0
 11 12  1  0
 12 13  2  0
 13 14  1  0
 14 15  1  0
 14 16  2  0
 16 17  1  0
 17 18  2  0
 18 19  1  0
 16 20  1  0
 13 21  1  0
 11 22  2  0
 22 23  1  0
 23 24  1  0
 24 25  1  0
 25 26  2  0
 26 27  1  0
 27 28  2  0
 28 29  1  0
 29 30  2  0
 30 31  1  0
 28 32  1  0
 27 33  1  0
 26 34  1  0
 24 35  1  0
 24 36  1  0
  8 37  1  0
  8 38  1  0
  7 39  1  0
  7 40  1  0
  6 41  2  0
 41 42  1  0
  5 43  1  0
  3 44  1  0
 41  2  1  0
 23  9  1  0
 30 25  1  0
 18 12  1  0
M  END
>  <cnnaffinity>  (1) 
-6.96869

>  <filename>  (1) 
Fc1cncc(CCc2nc(-c3cncc(F)c3)nn2Cc2cccnc2)c1

$$$$
