
     RDKit          3D

 38 40  0  0  0  0  0  0  0  0999 V2000
    4.9111    1.8477   16.9232 H   0  0  0  0  0  0  0  0  0  0  0  0
    5.3628    1.3268   17.7638 C   0  0  0  0  0  0  0  0  0  0  0  0
    6.5263    0.7026   17.5196 N   0  0  0  0  0  0  0  0  0  0  0  0
    7.1362    0.0978   18.5532 C   0  0  0  0  0  0  0  0  0  0  0  0
    8.0918   -0.3691   18.3178 H   0  0  0  0  0  0  0  0  0  0  0  0
    6.6097    0.0412   19.8761 C   0  0  0  0  0  0  0  0  0  0  0  0
    7.2841   -0.5364   20.9848 N   0  0  0  0  0  0  0  0  0  0  0  0
    6.6660   -1.5529   21.8293 C   0  0  0  0  0  0  0  0  0  0  0  0
    6.6150   -1.2165   22.8787 H   0  0  0  0  0  0  0  0  0  0  0  0
    5.6354   -1.6932   21.4945 H   0  0  0  0  0  0  0  0  0  0  0  0
    7.3393   -2.9496   21.8053 C   0  0  0  0  0  0  0  0  0  0  0  0
    6.6226   -3.6788   22.1999 H   0  0  0  0  0  0  0  0  0  0  0  0
    7.5012   -3.2324   20.7600 H   0  0  0  0  0  0  0  0  0  0  0  0
    8.5913   -3.1060   22.5452 N   0  0  0  0  0  0  0  0  0  0  0  0
    8.5771   -3.6327   23.8410 C   0  0  0  0  0  0  0  0  0  0  0  0
    9.7140   -4.2854   24.3458 C   0  0  0  0  0  0  0  0  0  0  0  0
   10.6128   -4.2729   23.7470 H   0  0  0  0  0  0  0  0  0  0  0  0
    9.7021   -4.9098   25.5956 C   0  0  0  0  0  0  0  0  0  0  0  0
   10.5466   -5.4847   25.9633 H   0  0  0  0  0  0  0  0  0  0  0  0
    8.5807   -4.7905   26.4054 C   0  0  0  0  0  0  0  0  0  0  0  0
    8.5657   -5.3394   27.6294 F   0  0  0  0  0  0  0  0  0  0  0  0
    7.4741   -4.0729   25.9462 C   0  0  0  0  0  0  0  0  0  0  0  0
    6.4090   -3.9228   26.7449 F   0  0  0  0  0  0  0  0  0  0  0  0
    7.4469   -3.5187   24.6721 C   0  0  0  0  0  0  0  0  0  0  0  0
    6.5688   -2.9794   24.3502 H   0  0  0  0  0  0  0  0  0  0  0  0
    9.7809   -2.3356   22.1870 C   0  0  0  0  0  0  0  0  0  0  0  0
   10.6283   -3.0079   22.0031 H   0  0  0  0  0  0  0  0  0  0  0  0
   10.1024   -1.7495   23.0658 H   0  0  0  0  0  0  0  0  0  0  0  0
    9.6349   -1.3724   21.0152 C   0  0  0  0  0  0  0  0  0  0  0  0
    9.3086   -1.9127   20.1253 H   0  0  0  0  0  0  0  0  0  0  0  0
   10.6308   -0.9786   20.7911 H   0  0  0  0  0  0  0  0  0  0  0  0
    8.6708   -0.2060   21.2618 C   0  0  0  0  0  0  0  0  0  0  0  0
    8.9454    0.6423   20.6284 H   0  0  0  0  0  0  0  0  0  0  0  0
    8.7805    0.1631   22.2984 H   0  0  0  0  0  0  0  0  0  0  0  0
    5.3693    0.6649   20.0812 C   0  0  0  0  0  0  0  0  0  0  0  0
    4.9636    0.6599   21.0931 H   0  0  0  0  0  0  0  0  0  0  0  0
    4.7496    1.3295   19.0203 C   0  0  0  0  0  0  0  0  0  0  0  0
    3.8165    1.8605   19.1646 H   0  0  0  0  0  0  0  0  0  0  0  0
  1  2  1  0
  2  3  2  0
  3  4  1  0
  4  5  1  0
  4  6  2  0
  6  7  1  0
  7  8  1  0
  8  9  1  0
  8 10  1  0
  8 11  1  0
 11 12  1  0
 11 13  1  0
 11 14  1  0
 14 15  1  0
 15 16  2  0
 16 17  1  0
 16 18  1  0
 18 19  1  0
 18 20  2  0
 20 21  1  0
 20 22  1  0
 22 23  1  0
 22 24  2  0
 24 25  1  0
 14 26  1  0
 26 27  1  0
 26 28  1  0
 26 29  1  0
 29 30  1  0
 29 31  1  0
 29 32  1  0
 32 33  1  0
 32 34  1  0
  6 35  1  0
 35 36  1  0
 35 37  2  0
 37 38  1  0
 37  2  1  0
 32  7  1  0
 24 15  1  0
M  END
>  <cnnaffinity>  (1) 
-5.40688

>  <filename>  (1) 
Fc1ccc(N2CCCN(c3cccnc3)CC2)cc1F

$$$$
