
     RDKit          3D

 41 44  0  0  0  0  0  0  0  0999 V2000
   13.2863    1.6354   24.5585 F   0  0  0  0  0  0  0  0  0  0  0  0
   12.4591    1.3637   23.5471 C   0  0  0  0  0  0  0  0  0  0  0  0
   11.3025    2.1213   23.4012 C   0  0  0  0  0  0  0  0  0  0  0  0
   10.4046    1.7670   22.3965 C   0  0  0  0  0  0  0  0  0  0  0  0
    9.2856    2.5048   22.2580 F   0  0  0  0  0  0  0  0  0  0  0  0
   10.6175    0.6569   21.5703 C   0  0  0  0  0  0  0  0  0  0  0  0
    9.5466    0.1254   20.6487 C   0  0  0  0  0  0  0  0  0  0  0  0
    8.5060   -0.6961   21.3434 C   0  0  0  0  0  0  0  0  0  0  0  0
    8.6961   -1.4655   22.3931 N   0  0  0  0  0  0  0  0  0  0  0  0
    7.4816   -2.0404   22.5913 C   0  0  0  0  0  0  0  0  0  0  0  0
    7.2597   -3.0009   23.7262 C   0  0  0  0  0  0  0  0  0  0  0  0
    7.5407   -2.3610   25.1107 C   0  0  0  0  0  0  0  0  0  0  0  0
    9.0467   -2.6174   25.3247 C   0  0  0  0  0  0  0  0  0  0  0  0
    9.4366   -3.6001   24.3817 O   0  0  0  0  0  0  0  0  0  0  0  0
    8.3116   -4.1260   23.7145 C   0  0  0  0  0  0  0  0  0  0  0  0
    7.9254   -5.0297   24.2233 H   0  0  0  0  0  0  0  0  0  0  0  0
    8.6372   -4.4067   22.7082 H   0  0  0  0  0  0  0  0  0  0  0  0
    9.6309   -1.7137   25.1162 H   0  0  0  0  0  0  0  0  0  0  0  0
    9.2654   -2.9597   26.3489 H   0  0  0  0  0  0  0  0  0  0  0  0
    6.9408   -2.8469   25.8914 H   0  0  0  0  0  0  0  0  0  0  0  0
    7.3024   -1.2919   25.1252 H   0  0  0  0  0  0  0  0  0  0  0  0
    6.2452   -3.3841   23.6357 H   0  0  0  0  0  0  0  0  0  0  0  0
    6.5559   -1.6840   21.7230 N   0  0  0  0  0  0  0  0  0  0  0  0
    7.2212   -0.8332   20.8903 N   0  0  0  0  0  0  0  0  0  0  0  0
    6.5471   -0.1247   19.8531 C   0  0  0  0  0  0  0  0  0  0  0  0
    5.3652    0.5767   20.1198 C   0  0  0  0  0  0  0  0  0  0  0  0
    4.7919    1.3086   19.0751 C   0  0  0  0  0  0  0  0  0  0  0  0
    5.3995    1.3120   17.8129 C   0  0  0  0  0  0  0  0  0  0  0  0
    6.5182    0.6228   17.5445 N   0  0  0  0  0  0  0  0  0  0  0  0
    7.0702   -0.0709   18.5470 C   0  0  0  0  0  0  0  0  0  0  0  0
    7.9985   -0.5881   18.3165 H   0  0  0  0  0  0  0  0  0  0  0  0
    4.9786    1.8876   16.9897 H   0  0  0  0  0  0  0  0  0  0  0  0
    3.8894    1.8878   19.2279 H   0  0  0  0  0  0  0  0  0  0  0  0
    4.9361    0.5665   21.1250 H   0  0  0  0  0  0  0  0  0  0  0  0
    9.0660    0.9439   20.1117 H   0  0  0  0  0  0  0  0  0  0  0  0
   10.0046   -0.5311   19.9008 H   0  0  0  0  0  0  0  0  0  0  0  0
   11.8209   -0.0494   21.7093 C   0  0  0  0  0  0  0  0  0  0  0  0
   12.7503    0.3114   22.6775 C   0  0  0  0  0  0  0  0  0  0  0  0
   13.9109   -0.3546   22.7765 F   0  0  0  0  0  0  0  0  0  0  0  0
   12.0483   -0.9041   21.0738 H   0  0  0  0  0  0  0  0  0  0  0  0
   11.1030    2.9536   24.0654 H   0  0  0  0  0  0  0  0  0  0  0  0
  1  2  1  0
  2  3  2  0
  3  4  1  0
  4  5  1  0
  4  6  2  0
  6  7  1  0
  7  8  1  0
  8  9  2  0
  9 10  1  0
 10 11  1  0
 11 12  1  0
 12 13  1  0
 13 14  1  0
 14 15  1  0
 15 16  1  0
 15 17  1  0
 13 18  1  0
 13 19  1  0
 12 20  1  0
 12 21  1  0
 11 22  1  0
 10 23  2  0
 23 24  1  0
 24 25  1  0
 25 26  2  0
 26 27  1  0
 27 28  2  0
 28 29  1  0
 29 30  2  0
 30 31  1  0
 28 32  1  0
 27 33  1  0
 26 34  1  0
  7 35  1  0
  7 36  1  0
  6 37  1  0
 37 38  2  0
 38 39  1  0
 37 40  1  0
  3 41  1  0
 38  2  1  0
 24  8  1  0
 30 25  1  0
 15 11  1  0
M  END
>  <cnnaffinity>  (1) 
-6.64348

>  <filename>  (1) 
Fc1cc(F)c(Cc2nc(C3CCOC3)nn2-c2cccnc2)cc1F

$$$$
