
     RDKit          3D

 40 43  0  0  0  0  0  0  0  0999 V2000
   15.3883   -1.2024   19.9200 F   0  0  0  0  0  0  0  0  0  0  0  0
   14.3590   -1.1608   20.7681 C   0  0  0  0  0  0  0  0  0  0  0  0
   14.2644   -0.1352   21.7273 C   0  0  0  0  0  0  0  0  0  0  0  0
   12.9993    0.1820   22.2236 C   0  0  0  0  0  0  0  0  0  0  0  0
   11.8974   -0.5911   21.8301 C   0  0  0  0  0  0  0  0  0  0  0  0
   10.5043   -0.1488   21.9048 C   0  0  0  0  0  0  0  0  0  0  0  0
    9.5342   -0.9360   21.4579 N   0  0  0  0  0  0  0  0  0  0  0  0
    8.4322   -0.1829   21.5810 N   0  0  0  0  0  0  0  0  0  0  0  0
    7.1643   -0.7177   21.0995 C   0  0  0  0  0  0  0  0  0  0  0  0
    6.5356    0.0529   19.9586 C   0  0  0  0  0  0  0  0  0  0  0  0
    5.3086    0.7089   20.0932 C   0  0  0  0  0  0  0  0  0  0  0  0
    4.7681    1.3698   18.9882 C   0  0  0  0  0  0  0  0  0  0  0  0
    5.4765    1.3446   17.7837 C   0  0  0  0  0  0  0  0  0  0  0  0
    6.6548    0.7199   17.6307 N   0  0  0  0  0  0  0  0  0  0  0  0
    7.1672    0.1035   18.7028 C   0  0  0  0  0  0  0  0  0  0  0  0
    8.1273   -0.3896   18.5517 H   0  0  0  0  0  0  0  0  0  0  0  0
    5.0823    1.8476   16.9032 H   0  0  0  0  0  0  0  0  0  0  0  0
    3.8281    1.9059   19.0506 H   0  0  0  0  0  0  0  0  0  0  0  0
    4.7821    0.7012   21.0506 H   0  0  0  0  0  0  0  0  0  0  0  0
    6.4767   -0.7920   21.9468 H   0  0  0  0  0  0  0  0  0  0  0  0
    7.3946   -1.7414   20.7865 H   0  0  0  0  0  0  0  0  0  0  0  0
    8.7702    1.0031   22.1294 C   0  0  0  0  0  0  0  0  0  0  0  0
    7.7460    1.8617   22.8093 C   0  0  0  0  0  0  0  0  0  0  0  0
    7.3775    1.2244   24.1447 C   0  0  0  0  0  0  0  0  0  0  0  0
    8.2960    0.9852   25.1439 C   0  0  0  0  0  0  0  0  0  0  0  0
    7.6572    0.2721   26.0941 N   0  0  0  0  0  0  0  0  0  0  0  0
    6.3763    0.0212   25.7972 N   0  0  0  0  0  0  0  0  0  0  0  0
    6.1995    0.5967   24.6090 C   0  0  0  0  0  0  0  0  0  0  0  0
    5.2333    0.5345   24.1249 H   0  0  0  0  0  0  0  0  0  0  0  0
    8.0501   -0.0756   26.9573 H   0  0  0  0  0  0  0  0  0  0  0  0
    9.3491    1.2379   25.1867 H   0  0  0  0  0  0  0  0  0  0  0  0
    8.2007    2.8459   22.9552 H   0  0  0  0  0  0  0  0  0  0  0  0
    6.8749    1.9833   22.1587 H   0  0  0  0  0  0  0  0  0  0  0  0
   10.0811    1.0737   22.3057 N   0  0  0  0  0  0  0  0  0  0  0  0
   12.1144   -1.7906   21.1378 C   0  0  0  0  0  0  0  0  0  0  0  0
   13.3326   -2.0649   20.5392 C   0  0  0  0  0  0  0  0  0  0  0  0
   13.4698   -2.8844   19.8360 H   0  0  0  0  0  0  0  0  0  0  0  0
   11.2459   -2.4220   21.0276 H   0  0  0  0  0  0  0  0  0  0  0  0
   12.8693    1.0560   22.8552 H   0  0  0  0  0  0  0  0  0  0  0  0
   15.1168    0.4842   21.9865 H   0  0  0  0  0  0  0  0  0  0  0  0
  1  2  1  0
  2  3  2  0
  3  4  1  0
  4  5  2  0
  5  6  1  0
  6  7  2  0
  7  8  1  0
  8  9  1  0
  9 10  1  0
 10 11  2  0
 11 12  1  0
 12 13  2  0
 13 14  1  0
 14 15  2  0
 15 16  1  0
 13 17  1  0
 12 18  1  0
 11 19  1  0
  9 20  1  0
  9 21  1  0
  8 22  1  0
 22 23  1  0
 23 24  1  0
 24 25  2  0
 25 26  1  0
 26 27  1  0
 27 28  2  0
 28 29  1  0
 26 30  1  0
 25 31  1  0
 23 32  1  0
 23 33  1  0
 22 34  2  0
  5 35  1  0
 35 36  2  0
 36 37  1  0
 35 38  1  0
  4 39  1  0
  3 40  1  0
 36  2  1  0
 34  6  1  0
 15 10  1  0
 28 24  1  0
M  END
>  <cnnaffinity>  (1) 
-6.38672

>  <filename>  (1) 
Fc1ccc(-c2nc(Cc3cn[nH]c3)n(Cc3cccnc3)n2)cc1

$$$$
