
     RDKit          3D

 42 45  0  0  0  0  0  0  0  0999 V2000
    5.9619    2.5518   25.9826 F   0  0  0  0  0  0  0  0  0  0  0  0
    6.4321    2.4793   24.7284 C   0  0  0  0  0  0  0  0  0  0  0  0
    6.6651    1.2314   24.1743 C   0  0  0  0  0  0  0  0  0  0  0  0
    7.1364    1.1561   22.8468 C   0  0  0  0  0  0  0  0  0  0  0  0
    7.4060   -0.1790   22.2657 C   0  0  0  0  0  0  0  0  0  0  0  0
    7.9191   -1.1540   22.9836 N   0  0  0  0  0  0  0  0  0  0  0  0
    8.1623   -2.1266   22.0784 C   0  0  0  0  0  0  0  0  0  0  0  0
    8.7414   -3.4150   22.5390 C   0  0  0  0  0  0  0  0  0  0  0  0
    7.8751   -4.2015   23.5546 C   0  0  0  0  0  0  0  0  0  0  0  0
    8.9252   -5.0394   24.2922 C   0  0  0  0  0  0  0  0  0  0  0  0
   10.1456   -4.3137   24.2098 O   0  0  0  0  0  0  0  0  0  0  0  0
   10.0498   -3.2118   23.3256 C   0  0  0  0  0  0  0  0  0  0  0  0
   10.0245   -2.2696   23.8987 H   0  0  0  0  0  0  0  0  0  0  0  0
   10.9403   -3.1815   22.6803 H   0  0  0  0  0  0  0  0  0  0  0  0
    8.6685   -5.2080   25.3476 H   0  0  0  0  0  0  0  0  0  0  0  0
    9.0780   -6.0298   23.8345 H   0  0  0  0  0  0  0  0  0  0  0  0
    7.3604   -3.5166   24.2464 H   0  0  0  0  0  0  0  0  0  0  0  0
    7.1098   -4.8143   23.0689 H   0  0  0  0  0  0  0  0  0  0  0  0
    8.9068   -4.0319   21.6560 H   0  0  0  0  0  0  0  0  0  0  0  0
    7.8214   -1.8374   20.8407 N   0  0  0  0  0  0  0  0  0  0  0  0
    7.2944   -0.5803   20.9565 N   0  0  0  0  0  0  0  0  0  0  0  0
    6.6062    0.0208   19.8626 C   0  0  0  0  0  0  0  0  0  0  0  0
    5.3899    0.6966   20.0646 C   0  0  0  0  0  0  0  0  0  0  0  0
    4.8047    1.3396   18.9713 C   0  0  0  0  0  0  0  0  0  0  0  0
    5.4484    1.2892   17.7322 C   0  0  0  0  0  0  0  0  0  0  0  0
    6.5893    0.6078   17.5231 N   0  0  0  0  0  0  0  0  0  0  0  0
    7.1384   -0.0301   18.5603 C   0  0  0  0  0  0  0  0  0  0  0  0
    8.0397   -0.6049   18.3553 H   0  0  0  0  0  0  0  0  0  0  0  0
    5.0318    1.7979   16.8662 H   0  0  0  0  0  0  0  0  0  0  0  0
    3.8682    1.8816   19.0696 H   0  0  0  0  0  0  0  0  0  0  0  0
    4.9320    0.7330   21.0537 H   0  0  0  0  0  0  0  0  0  0  0  0
    7.4224    2.3349   22.1433 C   0  0  0  0  0  0  0  0  0  0  0  0
    7.1960    3.5731   22.7517 C   0  0  0  0  0  0  0  0  0  0  0  0
    7.5322    4.6499   21.9818 O   0  0  0  0  0  0  0  0  0  0  0  0
    7.2080    5.9251   22.3638 C   0  0  0  0  0  0  0  0  0  0  0  0
    7.5205    6.7015   21.3263 F   0  0  0  0  0  0  0  0  0  0  0  0
    7.9549    6.3175   23.4245 F   0  0  0  0  0  0  0  0  0  0  0  0
    6.1496    6.0476   22.6276 H   0  0  0  0  0  0  0  0  0  0  0  0
    6.6849    3.6665   24.0468 C   0  0  0  0  0  0  0  0  0  0  0  0
    6.5276    4.6029   24.5615 H   0  0  0  0  0  0  0  0  0  0  0  0
    7.8077    2.3135   21.1284 H   0  0  0  0  0  0  0  0  0  0  0  0
    6.5086    0.3485   24.7875 H   0  0  0  0  0  0  0  0  0  0  0  0
  1  2  1  0
  2  3  2  0
  3  4  1  0
  4  5  1  0
  5  6  2  0
  6  7  1  0
  7  8  1  0
  8  9  1  0
  9 10  1  0
 10 11  1  0
 11 12  1  0
 12 13  1  0
 12 14  1  0
 10 15  1  0
 10 16  1  0
  9 17  1  0
  9 18  1  0
  8 19  1  0
  7 20  2  0
 20 21  1  0
 21 22  1  0
 22 23  2  0
 23 24  1  0
 24 25  2  0
 25 26  1  0
 26 27  2  0
 27 28  1  0
 25 29  1  0
 24 30  1  0
 23 31  1  0
  4 32  2  0
 32 33  1  0
 33 34  1  0
 34 35  1  0
 35 36  1  0
 35 37  1  0
 35 38  1  0
 33 39  2  0
 39 40  1  0
 32 41  1  0
  3 42  1  0
 39  2  1  0
 21  5  1  0
 27 22  1  0
 12  8  1  0
M  END
>  <cnnaffinity>  (1) 
-6.06293

>  <filename>  (1) 
Fc1cc(OC(F)F)cc(-c2nc(C3CCOC3)nn2-c2cccnc2)c1

$$$$
