
     RDKit          3D

 41 44  0  0  0  0  0  0  0  0999 V2000
    5.8723    5.8415   24.8981 F   0  0  0  0  0  0  0  0  0  0  0  0
    5.2938    4.6324   24.8753 C   0  0  0  0  0  0  0  0  0  0  0  0
    4.1445    4.4211   25.6235 C   0  0  0  0  0  0  0  0  0  0  0  0
    3.5933    3.1318   25.6426 C   0  0  0  0  0  0  0  0  0  0  0  0
    4.1534    2.1204   24.8723 C   0  0  0  0  0  0  0  0  0  0  0  0
    3.6167    0.8902   24.9252 F   0  0  0  0  0  0  0  0  0  0  0  0
    5.2676    2.3759   24.0387 C   0  0  0  0  0  0  0  0  0  0  0  0
    5.6645    1.4032   23.1709 O   0  0  0  0  0  0  0  0  0  0  0  0
    7.0289    1.4035   22.7216 C   0  0  0  0  0  0  0  0  0  0  0  0
    7.4392    0.0417   22.2788 C   0  0  0  0  0  0  0  0  0  0  0  0
    8.1862   -0.7816   22.9862 N   0  0  0  0  0  0  0  0  0  0  0  0
    8.3281   -1.8601   22.1713 C   0  0  0  0  0  0  0  0  0  0  0  0
    9.0821   -3.0875   22.5809 C   0  0  0  0  0  0  0  0  0  0  0  0
   10.4162   -2.8492   23.3602 C   0  0  0  0  0  0  0  0  0  0  0  0
    9.9814   -3.8679   24.4388 C   0  0  0  0  0  0  0  0  0  0  0  0
    8.5846   -3.9756   23.7794 C   0  0  0  0  0  0  0  0  0  0  0  0
    7.7637   -3.5182   24.3368 H   0  0  0  0  0  0  0  0  0  0  0  0
    8.2760   -4.9963   23.5250 H   0  0  0  0  0  0  0  0  0  0  0  0
   10.5450   -4.8067   24.4143 H   0  0  0  0  0  0  0  0  0  0  0  0
    9.9944   -3.4928   25.4705 H   0  0  0  0  0  0  0  0  0  0  0  0
   11.3358   -3.0628   22.8010 H   0  0  0  0  0  0  0  0  0  0  0  0
   10.4794   -1.8316   23.7587 H   0  0  0  0  0  0  0  0  0  0  0  0
    9.1680   -3.6699   21.6647 H   0  0  0  0  0  0  0  0  0  0  0  0
    7.7591   -1.7224   20.9845 N   0  0  0  0  0  0  0  0  0  0  0  0
    7.1615   -0.4987   21.0560 N   0  0  0  0  0  0  0  0  0  0  0  0
    6.5004    0.0912   19.9328 C   0  0  0  0  0  0  0  0  0  0  0  0
    5.3436    0.8726   20.0800 C   0  0  0  0  0  0  0  0  0  0  0  0
    4.8059    1.4743   18.9347 C   0  0  0  0  0  0  0  0  0  0  0  0
    5.4328    1.2864   17.6995 C   0  0  0  0  0  0  0  0  0  0  0  0
    6.5267    0.5197   17.5474 N   0  0  0  0  0  0  0  0  0  0  0  0
    7.0328   -0.0686   18.6374 C   0  0  0  0  0  0  0  0  0  0  0  0
    7.9086   -0.6928   18.4927 H   0  0  0  0  0  0  0  0  0  0  0  0
    5.0454    1.7615   16.7993 H   0  0  0  0  0  0  0  0  0  0  0  0
    3.9221    2.1008   18.9945 H   0  0  0  0  0  0  0  0  0  0  0  0
    4.8771    1.0040   21.0537 H   0  0  0  0  0  0  0  0  0  0  0  0
    7.7032    1.6725   23.5417 H   0  0  0  0  0  0  0  0  0  0  0  0
    7.1566    2.1238   21.9024 H   0  0  0  0  0  0  0  0  0  0  0  0
    5.8812    3.6335   24.1042 C   0  0  0  0  0  0  0  0  0  0  0  0
    6.7971    3.8459   23.5654 H   0  0  0  0  0  0  0  0  0  0  0  0
    2.7313    2.8824   26.2540 H   0  0  0  0  0  0  0  0  0  0  0  0
    3.7028    5.2481   26.1693 H   0  0  0  0  0  0  0  0  0  0  0  0
  1  2  1  0
  2  3  2  0
  3  4  1  0
  4  5  2  0
  5  6  1  0
  5  7  1  0
  7  8  1  0
  8  9  1  0
  9 10  1  0
 10 11  2  0
 11 12  1  0
 12 13  1  0
 13 14  1  0
 14 15  1  0
 15 16  1  0
 16 17  1  0
 16 18  1  0
 15 19  1  0
 15 20  1  0
 14 21  1  0
 14 22  1  0
 13 23  1  0
 12 24  2  0
 24 25  1  0
 25 26  1  0
 26 27  2  0
 27 28  1  0
 28 29  2  0
 29 30  1  0
 30 31  2  0
 31 32  1  0
 29 33  1  0
 28 34  1  0
 27 35  1  0
  9 36  1  0
  9 37  1  0
  7 38  2  0
 38 39  1  0
  4 40  1  0
  3 41  1  0
 38  2  1  0
 25 10  1  0
 31 26  1  0
 16 13  1  0
M  END
>  <cnnaffinity>  (1) 
-5.80717

>  <filename>  (1) 
Fc1ccc(F)c(OCc2nc(C3CCC3)nn2-c2cccnc2)c1

$$$$
