
     RDKit          3D

 44 47  0  0  0  0  0  0  0  0999 V2000
    4.7169    2.2188   27.3011 F   0  0  0  0  0  0  0  0  0  0  0  0
    5.9008    2.4998   26.7408 C   0  0  0  0  0  0  0  0  0  0  0  0
    6.7285    3.4269   27.3673 C   0  0  0  0  0  0  0  0  0  0  0  0
    7.9270    3.7334   26.7298 C   0  0  0  0  0  0  0  0  0  0  0  0
    8.6914    4.7131   27.2278 F   0  0  0  0  0  0  0  0  0  0  0  0
    8.3429    3.1026   25.5660 C   0  0  0  0  0  0  0  0  0  0  0  0
    7.4797    2.1715   24.9501 C   0  0  0  0  0  0  0  0  0  0  0  0
    7.8631    1.5304   23.6704 C   0  0  0  0  0  0  0  0  0  0  0  0
    7.1614    0.5602   23.1009 N   0  0  0  0  0  0  0  0  0  0  0  0
    7.9040    0.2396   22.0208 N   0  0  0  0  0  0  0  0  0  0  0  0
    7.3903   -0.6867   21.0197 C   0  0  0  0  0  0  0  0  0  0  0  0
    6.6522   -0.0003   19.8847 C   0  0  0  0  0  0  0  0  0  0  0  0
    5.4385    0.6478   20.1390 C   0  0  0  0  0  0  0  0  0  0  0  0
    4.7994    1.3080   19.0871 C   0  0  0  0  0  0  0  0  0  0  0  0
    5.3937    1.2987   17.8210 C   0  0  0  0  0  0  0  0  0  0  0  0
    6.5532    0.6780   17.5586 N   0  0  0  0  0  0  0  0  0  0  0  0
    7.1588    0.0545   18.5767 C   0  0  0  0  0  0  0  0  0  0  0  0
    8.1060   -0.4284   18.3302 H   0  0  0  0  0  0  0  0  0  0  0  0
    4.9238    1.8054   16.9788 H   0  0  0  0  0  0  0  0  0  0  0  0
    3.8713    1.8455   19.2359 H   0  0  0  0  0  0  0  0  0  0  0  0
    5.0318    0.6434   21.1539 H   0  0  0  0  0  0  0  0  0  0  0  0
    6.7303   -1.3578   21.5769 H   0  0  0  0  0  0  0  0  0  0  0  0
    8.2307   -1.2780   20.6406 H   0  0  0  0  0  0  0  0  0  0  0  0
    8.9978    1.0312   21.9748 C   0  0  0  0  0  0  0  0  0  0  0  0
   10.0895    0.8458   20.9827 C   0  0  0  0  0  0  0  0  0  0  0  0
   11.0616   -0.3060   21.3398 C   0  0  0  0  0  0  0  0  0  0  0  0
   11.7744   -0.0193   22.6427 C   0  0  0  0  0  0  0  0  0  0  0  0
   11.2991   -0.4651   23.8769 C   0  0  0  0  0  0  0  0  0  0  0  0
   11.8775   -0.1710   25.0454 N   0  0  0  0  0  0  0  0  0  0  0  0
   12.9694    0.5795   24.9904 C   0  0  0  0  0  0  0  0  0  0  0  0
   13.4967    1.1199   23.8909 N   0  0  0  0  0  0  0  0  0  0  0  0
   12.8828    0.8334   22.7426 C   0  0  0  0  0  0  0  0  0  0  0  0
   13.3107    1.3109   21.8522 H   0  0  0  0  0  0  0  0  0  0  0  0
   13.4920    0.7312   25.9324 H   0  0  0  0  0  0  0  0  0  0  0  0
   10.4373   -1.1398   23.9397 H   0  0  0  0  0  0  0  0  0  0  0  0
   11.7852   -0.4706   20.5363 H   0  0  0  0  0  0  0  0  0  0  0  0
   10.5115   -1.2549   21.4135 H   0  0  0  0  0  0  0  0  0  0  0  0
    9.6291    0.6809   20.0052 H   0  0  0  0  0  0  0  0  0  0  0  0
   10.6346    1.7921   20.9271 H   0  0  0  0  0  0  0  0  0  0  0  0
    8.9886    1.8753   22.9873 N   0  0  0  0  0  0  0  0  0  0  0  0
    6.2379    1.8728   25.5495 C   0  0  0  0  0  0  0  0  0  0  0  0
    5.5422    1.1691   25.1012 H   0  0  0  0  0  0  0  0  0  0  0  0
    9.3113    3.3688   25.1524 H   0  0  0  0  0  0  0  0  0  0  0  0
    6.4400    3.9012   28.2941 H   0  0  0  0  0  0  0  0  0  0  0  0
  1  2  1  0
  2  3  2  0
  3  4  1  0
  4  5  1  0
  4  6  2  0
  6  7  1  0
  7  8  1  0
  8  9  2  0
  9 10  1  0
 10 11  1  0
 11 12  1  0
 12 13  2  0
 13 14  1  0
 14 15  2  0
 15 16  1  0
 16 17  2  0
 17 18  1  0
 15 19  1  0
 14 20  1  0
 13 21  1  0
 11 22  1  0
 11 23  1  0
 10 24  1  0
 24 25  1  0
 25 26  1  0
 26 27  1  0
 27 28  2  0
 28 29  1  0
 29 30  2  0
 30 31  1  0
 31 32  2  0
 32 33  1  0
 30 34  1  0
 28 35  1  0
 26 36  1  0
 26 37  1  0
 25 38  1  0
 25 39  1  0
 24 40  2  0
  7 41  2  0
 41 42  1  0
  6 43  1  0
  3 44  1  0
 41  2  1  0
 40  8  1  0
 17 12  1  0
 32 27  1  0
M  END
>  <cnnaffinity>  (1) 
-6.62374

>  <filename>  (1) 
Fc1cc(F)cc(-c2nc(CCc3cncnc3)n(Cc3cccnc3)n2)c1

$$$$
