
     RDKit          3D

 44 47  0  0  0  0  0  0  0  0999 V2000
    6.0115    4.5981   27.4831 F   0  0  0  0  0  0  0  0  0  0  0  0
    5.7314    3.5757   26.6596 C   0  0  0  0  0  0  0  0  0  0  0  0
    4.4076    3.1547   26.4961 C   0  0  0  0  0  0  0  0  0  0  0  0
    4.0739    2.1354   25.6941 N   0  0  0  0  0  0  0  0  0  0  0  0
    5.0589    1.5155   25.0270 C   0  0  0  0  0  0  0  0  0  0  0  0
    6.4144    1.8796   25.1146 C   0  0  0  0  0  0  0  0  0  0  0  0
    7.4531    1.2035   24.2701 C   0  0  0  0  0  0  0  0  0  0  0  0
    7.5752    1.8012   22.8424 C   0  0  0  0  0  0  0  0  0  0  0  0
    8.5540    0.9901   22.0720 C   0  0  0  0  0  0  0  0  0  0  0  0
    9.8662    1.0785   22.2009 N   0  0  0  0  0  0  0  0  0  0  0  0
   10.3101   -0.0942   21.6713 C   0  0  0  0  0  0  0  0  0  0  0  0
   11.7467   -0.5158   21.6220 C   0  0  0  0  0  0  0  0  0  0  0  0
   12.8077    0.2390   22.1881 C   0  0  0  0  0  0  0  0  0  0  0  0
   14.1205   -0.1572   21.9054 C   0  0  0  0  0  0  0  0  0  0  0  0
   14.3043   -1.2708   21.0793 C   0  0  0  0  0  0  0  0  0  0  0  0
   13.2079   -2.0001   20.6482 C   0  0  0  0  0  0  0  0  0  0  0  0
   11.9678   -1.6679   20.9693 N   0  0  0  0  0  0  0  0  0  0  0  0
   13.3282   -2.8681   19.9988 H   0  0  0  0  0  0  0  0  0  0  0  0
   15.2448   -1.5724   20.6718 H   0  0  0  0  0  0  0  0  0  0  0  0
   14.9854    0.4216   22.2430 H   0  0  0  0  0  0  0  0  0  0  0  0
   12.5861    1.1265   22.7789 H   0  0  0  0  0  0  0  0  0  0  0  0
    9.3377   -0.8618   21.1925 N   0  0  0  0  0  0  0  0  0  0  0  0
    8.2248   -0.1733   21.4649 N   0  0  0  0  0  0  0  0  0  0  0  0
    6.9382   -0.7149   21.0333 C   0  0  0  0  0  0  0  0  0  0  0  0
    6.3147    0.0404   19.8795 C   0  0  0  0  0  0  0  0  0  0  0  0
    5.1021    0.7308   19.9857 C   0  0  0  0  0  0  0  0  0  0  0  0
    4.6224    1.4274   18.8744 C   0  0  0  0  0  0  0  0  0  0  0  0
    5.3678    1.4009   17.6934 C   0  0  0  0  0  0  0  0  0  0  0  0
    6.5215    0.7272   17.5637 N   0  0  0  0  0  0  0  0  0  0  0  0
    6.9783    0.0786   18.6415 C   0  0  0  0  0  0  0  0  0  0  0  0
    7.9256   -0.4492   18.5217 H   0  0  0  0  0  0  0  0  0  0  0  0
    5.0269    1.9402   16.8117 H   0  0  0  0  0  0  0  0  0  0  0  0
    3.7049    2.0029   18.9160 H   0  0  0  0  0  0  0  0  0  0  0  0
    4.5427    0.7323   20.9234 H   0  0  0  0  0  0  0  0  0  0  0  0
    7.1530   -1.7549   20.7595 H   0  0  0  0  0  0  0  0  0  0  0  0
    6.2614   -0.7331   21.8942 H   0  0  0  0  0  0  0  0  0  0  0  0
    6.6072    1.8202   22.3283 H   0  0  0  0  0  0  0  0  0  0  0  0
    7.9476    2.8267   22.8864 H   0  0  0  0  0  0  0  0  0  0  0  0
    7.2223    0.1311   24.1817 H   0  0  0  0  0  0  0  0  0  0  0  0
    8.4403    1.2659   24.7493 H   0  0  0  0  0  0  0  0  0  0  0  0
    6.7557    2.9404   25.9702 C   0  0  0  0  0  0  0  0  0  0  0  0
    7.7851    3.2688   26.1074 H   0  0  0  0  0  0  0  0  0  0  0  0
    4.7531    0.6806   24.3963 H   0  0  0  0  0  0  0  0  0  0  0  0
    3.6082    3.6641   27.0297 H   0  0  0  0  0  0  0  0  0  0  0  0
  1  2  1  0
  2  3  2  0
  3  4  1  0
  4  5  2  0
  5  6  1  0
  6  7  1  0
  7  8  1  0
  8  9  1  0
  9 10  2  0
 10 11  1  0
 11 12  1  0
 12 13  2  0
 13 14  1  0
 14 15  2  0
 15 16  1  0
 16 17  2  0
 16 18  1  0
 15 19  1  0
 14 20  1  0
 13 21  1  0
 11 22  2  0
 22 23  1  0
 23 24  1  0
 24 25  1  0
 25 26  2  0
 26 27  1  0
 27 28  2  0
 28 29  1  0
 29 30  2  0
 30 31  1  0
 28 32  1  0
 27 33  1  0
 26 34  1  0
 24 35  1  0
 24 36  1  0
  8 37  1  0
  8 38  1  0
  7 39  1  0
  7 40  1  0
  6 41  2  0
 41 42  1  0
  5 43  1  0
  3 44  1  0
 41  2  1  0
 23  9  1  0
 30 25  1  0
 17 12  1  0
M  END
>  <cnnaffinity>  (1) 
-6.61041

>  <filename>  (1) 
Fc1cncc(CCc2nc(-c3ccccn3)nn2Cc2cccnc2)c1

$$$$
