
     RDKit          3D

 40 44  0  0  0  0  0  0  0  0999 V2000
    9.1538    2.4576   22.4223 F   0  0  0  0  0  0  0  0  0  0  0  0
   10.3450    1.8428   22.5486 C   0  0  0  0  0  0  0  0  0  0  0  0
   11.2441    2.2805   23.5095 C   0  0  0  0  0  0  0  0  0  0  0  0
   12.4704    1.6048   23.5845 C   0  0  0  0  0  0  0  0  0  0  0  0
   12.7256    0.5486   22.7057 C   0  0  0  0  0  0  0  0  0  0  0  0
   11.8386    0.1320   21.7893 N   0  0  0  0  0  0  0  0  0  0  0  0
   10.6623    0.7564   21.7121 C   0  0  0  0  0  0  0  0  0  0  0  0
    9.6747    0.2324   20.7175 C   0  0  0  0  0  0  0  0  0  0  0  0
    8.6160   -0.5555   21.3856 C   0  0  0  0  0  0  0  0  0  0  0  0
    8.8231   -1.3421   22.4214 N   0  0  0  0  0  0  0  0  0  0  0  0
    7.6267   -1.9644   22.5664 C   0  0  0  0  0  0  0  0  0  0  0  0
    7.2580   -2.9237   23.6453 C   0  0  0  0  0  0  0  0  0  0  0  0
    6.7956   -4.2756   23.2195 C   0  0  0  0  0  0  0  0  0  0  0  0
    8.0438   -4.1711   24.1410 C   0  0  0  0  0  0  0  0  0  0  0  0
    8.9892   -4.0268   25.3214 C   0  0  0  0  0  0  0  0  0  0  0  0
    8.5753   -5.3945   24.8796 C   0  0  0  0  0  0  0  0  0  0  0  0
    7.8670   -5.9552   25.4910 H   0  0  0  0  0  0  0  0  0  0  0  0
    9.3390   -5.9908   24.3841 H   0  0  0  0  0  0  0  0  0  0  0  0
   10.0225   -3.7487   25.1062 H   0  0  0  0  0  0  0  0  0  0  0  0
    8.5901   -3.6152   26.2528 H   0  0  0  0  0  0  0  0  0  0  0  0
    5.8813   -4.7129   23.6326 H   0  0  0  0  0  0  0  0  0  0  0  0
    6.9718   -4.5262   22.1740 H   0  0  0  0  0  0  0  0  0  0  0  0
    6.7171   -2.4153   24.4469 H   0  0  0  0  0  0  0  0  0  0  0  0
    6.6989   -1.6005   21.6932 N   0  0  0  0  0  0  0  0  0  0  0  0
    7.3424   -0.6966   20.9178 N   0  0  0  0  0  0  0  0  0  0  0  0
    6.6527   -0.0043   19.8743 C   0  0  0  0  0  0  0  0  0  0  0  0
    5.4399    0.6384   20.1401 C   0  0  0  0  0  0  0  0  0  0  0  0
    4.8101    1.3136   19.0918 C   0  0  0  0  0  0  0  0  0  0  0  0
    5.3952    1.3027   17.8218 C   0  0  0  0  0  0  0  0  0  0  0  0
    6.5430    0.6621   17.5536 N   0  0  0  0  0  0  0  0  0  0  0  0
    7.1533    0.0289   18.5619 C   0  0  0  0  0  0  0  0  0  0  0  0
    8.0887   -0.4751   18.3148 H   0  0  0  0  0  0  0  0  0  0  0  0
    4.9290    1.8255   16.9894 H   0  0  0  0  0  0  0  0  0  0  0  0
    3.8805    1.8461   19.2489 H   0  0  0  0  0  0  0  0  0  0  0  0
    5.0182    0.5958   21.1444 H   0  0  0  0  0  0  0  0  0  0  0  0
    9.2448    1.0415   20.1277 H   0  0  0  0  0  0  0  0  0  0  0  0
   10.2050   -0.4627   20.0655 H   0  0  0  0  0  0  0  0  0  0  0  0
   13.6729    0.0137   22.7350 H   0  0  0  0  0  0  0  0  0  0  0  0
   13.2232    1.8856   24.3077 H   0  0  0  0  0  0  0  0  0  0  0  0
   10.9710    3.1139   24.1542 H   0  0  0  0  0  0  0  0  0  0  0  0
  1  2  1  0
  2  3  2  0
  3  4  1  0
  4  5  2  0
  5  6  1  0
  6  7  2  0
  7  8  1  0
  8  9  1  0
  9 10  2  0
 10 11  1  0
 11 12  1  0
 12 13  1  0
 13 14  1  0
 14 15  1  0
 15 16  1  0
 16 17  1  0
 16 18  1  0
 15 19  1  0
 15 20  1  0
 13 21  1  0
 13 22  1  0
 12 23  1  0
 11 24  2  0
 24 25  1  0
 25 26  1  0
 26 27  2  0
 27 28  1  0
 28 29  2  0
 29 30  1  0
 30 31  2  0
 31 32  1  0
 29 33  1  0
 28 34  1  0
 27 35  1  0
  8 36  1  0
  8 37  1  0
  5 38  1  0
  4 39  1  0
  3 40  1  0
  7  2  1  0
 25  9  1  0
 31 26  1  0
 14 12  1  0
 16 14  1  0
M  END
>  <cnnaffinity>  (1) 
-6.61729

>  <filename>  (1) 
Fc1cccnc1Cc1nc(C2CC23CC3)nn1-c1cccnc1

$$$$
