
     RDKit          3D

 40 43  0  0  0  0  0  0  0  0999 V2000
   13.3465    1.8720   24.4607 F   0  0  0  0  0  0  0  0  0  0  0  0
   12.4161    1.5557   23.5639 C   0  0  0  0  0  0  0  0  0  0  0  0
   11.2239    2.2652   23.4818 C   0  0  0  0  0  0  0  0  0  0  0  0
   10.3329    1.8174   22.5009 C   0  0  0  0  0  0  0  0  0  0  0  0
   10.6700    0.7231   21.6814 C   0  0  0  0  0  0  0  0  0  0  0  0
    9.6785    0.2175   20.6877 C   0  0  0  0  0  0  0  0  0  0  0  0
    8.6538   -0.6192   21.3381 C   0  0  0  0  0  0  0  0  0  0  0  0
    8.8849   -1.4697   22.3149 N   0  0  0  0  0  0  0  0  0  0  0  0
    7.6676   -2.0031   22.5402 C   0  0  0  0  0  0  0  0  0  0  0  0
    7.4081   -2.9820   23.6332 C   0  0  0  0  0  0  0  0  0  0  0  0
    6.4019   -2.4999   24.7029 C   0  0  0  0  0  0  0  0  0  0  0  0
    5.7634   -3.7988   25.1986 C   0  0  0  0  0  0  0  0  0  0  0  0
    6.0042   -4.7858   24.2064 O   0  0  0  0  0  0  0  0  0  0  0  0
    6.7708   -4.2873   23.1302 C   0  0  0  0  0  0  0  0  0  0  0  0
    6.1310   -4.1118   22.2498 H   0  0  0  0  0  0  0  0  0  0  0  0
    7.5174   -5.0471   22.8643 H   0  0  0  0  0  0  0  0  0  0  0  0
    6.2038   -4.1384   26.1467 H   0  0  0  0  0  0  0  0  0  0  0  0
    4.6799   -3.6947   25.3531 H   0  0  0  0  0  0  0  0  0  0  0  0
    6.8740   -1.9304   25.5088 H   0  0  0  0  0  0  0  0  0  0  0  0
    5.6508   -1.8550   24.2411 H   0  0  0  0  0  0  0  0  0  0  0  0
    8.3710   -3.1996   24.1016 H   0  0  0  0  0  0  0  0  0  0  0  0
    6.7050   -1.5644   21.7454 N   0  0  0  0  0  0  0  0  0  0  0  0
    7.3505   -0.6875   20.9374 N   0  0  0  0  0  0  0  0  0  0  0  0
    6.6527   -0.0017   19.9039 C   0  0  0  0  0  0  0  0  0  0  0  0
    5.4378    0.6394   20.1684 C   0  0  0  0  0  0  0  0  0  0  0  0
    4.8130    1.3088   19.1121 C   0  0  0  0  0  0  0  0  0  0  0  0
    5.3998    1.2945   17.8399 C   0  0  0  0  0  0  0  0  0  0  0  0
    6.5586    0.6714   17.5802 N   0  0  0  0  0  0  0  0  0  0  0  0
    7.1663    0.0488   18.5950 C   0  0  0  0  0  0  0  0  0  0  0  0
    8.1145   -0.4301   18.3644 H   0  0  0  0  0  0  0  0  0  0  0  0
    4.9209    1.7844   16.9954 H   0  0  0  0  0  0  0  0  0  0  0  0
    3.8815    1.8395   19.2615 H   0  0  0  0  0  0  0  0  0  0  0  0
    5.0157    0.6110   21.1758 H   0  0  0  0  0  0  0  0  0  0  0  0
   10.1631   -0.4392   19.9655 H   0  0  0  0  0  0  0  0  0  0  0  0
    9.2078    1.0587   20.1805 H   0  0  0  0  0  0  0  0  0  0  0  0
   11.8313    0.0672   21.7776 N   0  0  0  0  0  0  0  0  0  0  0  0
   12.6892    0.4838   22.7159 C   0  0  0  0  0  0  0  0  0  0  0  0
   13.6410   -0.0327   22.8374 H   0  0  0  0  0  0  0  0  0  0  0  0
    9.3720    2.2989   22.3679 H   0  0  0  0  0  0  0  0  0  0  0  0
   11.0142    3.1066   24.1466 H   0  0  0  0  0  0  0  0  0  0  0  0
  1  2  1  0
  2  3  2  0
  3  4  1  0
  4  5  2  0
  5  6  1  0
  6  7  1  0
  7  8  2  0
  8  9  1  0
  9 10  1  0
 10 11  1  0
 11 12  1  0
 12 13  1  0
 13 14  1  0
 14 15  1  0
 14 16  1  0
 12 17  1  0
 12 18  1  0
 11 19  1  0
 11 20  1  0
 10 21  1  0
  9 22  2  0
 22 23  1  0
 23 24  1  0
 24 25  2  0
 25 26  1  0
 26 27  2  0
 27 28  1  0
 28 29  2  0
 29 30  1  0
 27 31  1  0
 26 32  1  0
 25 33  1  0
  6 34  1  0
  6 35  1  0
  5 36  1  0
 36 37  2  0
 37 38  1  0
  4 39  1  0
  3 40  1  0
 37  2  1  0
 23  7  1  0
 29 24  1  0
 14 10  1  0
M  END
>  <cnnaffinity>  (1) 
-6.48641

>  <filename>  (1) 
Fc1ccc(Cc2nc(C3CCOC3)nn2-c2cccnc2)nc1

$$$$
