
     RDKit          3D

 43 46  0  0  0  0  0  0  0  0999 V2000
   13.9977   -2.0169   21.2439 F   0  0  0  0  0  0  0  0  0  0  0  0
   13.2516   -1.0598   21.8096 C   0  0  0  0  0  0  0  0  0  0  0  0
   13.9049   -0.1098   22.5878 C   0  0  0  0  0  0  0  0  0  0  0  0
   13.1217    0.9037   23.1228 C   0  0  0  0  0  0  0  0  0  0  0  0
   13.6973    1.8186   23.9070 F   0  0  0  0  0  0  0  0  0  0  0  0
   11.7582    0.9991   22.8914 C   0  0  0  0  0  0  0  0  0  0  0  0
   11.1063   -0.0102   22.1563 C   0  0  0  0  0  0  0  0  0  0  0  0
    9.6222    0.0760   22.0662 C   0  0  0  0  0  0  0  0  0  0  0  0
    8.8417   -0.7405   21.3806 N   0  0  0  0  0  0  0  0  0  0  0  0
    7.5998   -0.2571   21.6315 N   0  0  0  0  0  0  0  0  0  0  0  0
    6.4342   -0.8394   20.9828 C   0  0  0  0  0  0  0  0  0  0  0  0
    5.9824   -0.0576   19.7665 C   0  0  0  0  0  0  0  0  0  0  0  0
    4.7966    0.6826   19.7038 C   0  0  0  0  0  0  0  0  0  0  0  0
    4.5449    1.4462   18.5599 C   0  0  0  0  0  0  0  0  0  0  0  0
    5.4694    1.4172   17.5128 C   0  0  0  0  0  0  0  0  0  0  0  0
    6.5928    0.6837   17.5388 N   0  0  0  0  0  0  0  0  0  0  0  0
    6.8363   -0.0179   18.6508 C   0  0  0  0  0  0  0  0  0  0  0  0
    7.7656   -0.5896   18.6724 H   0  0  0  0  0  0  0  0  0  0  0  0
    5.3052    2.0057   16.6110 H   0  0  0  0  0  0  0  0  0  0  0  0
    3.6650    2.0738   18.4702 H   0  0  0  0  0  0  0  0  0  0  0  0
    4.0847    0.6859   20.5341 H   0  0  0  0  0  0  0  0  0  0  0  0
    5.6345   -0.9189   21.7225 H   0  0  0  0  0  0  0  0  0  0  0  0
    6.7262   -1.8573   20.7061 H   0  0  0  0  0  0  0  0  0  0  0  0
    7.6843    0.8301   22.4344 C   0  0  0  0  0  0  0  0  0  0  0  0
    6.5316    1.5461   23.0839 C   0  0  0  0  0  0  0  0  0  0  0  0
    6.4623    1.3738   24.6321 C   0  0  0  0  0  0  0  0  0  0  0  0
    6.5361   -0.0559   25.0719 C   0  0  0  0  0  0  0  0  0  0  0  0
    5.5400   -0.8913   25.2380 N   0  0  0  0  0  0  0  0  0  0  0  0
    6.1246   -2.1294   25.3684 C   0  0  0  0  0  0  0  0  0  0  0  0
    7.4868   -2.0316   25.3157 C   0  0  0  0  0  0  0  0  0  0  0  0
    7.7393   -0.6853   25.1519 N   0  0  0  0  0  0  0  0  0  0  0  0
    8.5929   -0.2323   24.8485 H   0  0  0  0  0  0  0  0  0  0  0  0
    8.2681   -2.7744   25.3874 H   0  0  0  0  0  0  0  0  0  0  0  0
    5.5260   -3.0271   25.4606 H   0  0  0  0  0  0  0  0  0  0  0  0
    7.2791    1.9201   25.1138 H   0  0  0  0  0  0  0  0  0  0  0  0
    5.5306    1.7968   25.0104 H   0  0  0  0  0  0  0  0  0  0  0  0
    5.5921    1.1982   22.6469 H   0  0  0  0  0  0  0  0  0  0  0  0
    6.6116    2.6110   22.8470 H   0  0  0  0  0  0  0  0  0  0  0  0
    8.9465    1.0559   22.7347 N   0  0  0  0  0  0  0  0  0  0  0  0
   11.8739   -1.0544   21.5872 C   0  0  0  0  0  0  0  0  0  0  0  0
   11.4547   -1.8505   20.9791 H   0  0  0  0  0  0  0  0  0  0  0  0
   11.2218    1.8686   23.2633 H   0  0  0  0  0  0  0  0  0  0  0  0
   14.9740   -0.1296   22.7408 H   0  0  0  0  0  0  0  0  0  0  0  0
  1  2  1  0
  2  3  2  0
  3  4  1  0
  4  5  1  0
  4  6  2  0
  6  7  1  0
  7  8  1  0
  8  9  2  0
  9 10  1  0
 10 11  1  0
 11 12  1  0
 12 13  2  0
 13 14  1  0
 14 15  2  0
 15 16  1  0
 16 17  2  0
 17 18  1  0
 15 19  1  0
 14 20  1  0
 13 21  1  0
 11 22  1  0
 11 23  1  0
 10 24  1  0
 24 25  1  0
 25 26  1  0
 26 27  1  0
 27 28  2  0
 28 29  1  0
 29 30  2  0
 30 31  1  0
 31 32  1  0
 30 33  1  0
 29 34  1  0
 26 35  1  0
 26 36  1  0
 25 37  1  0
 25 38  1  0
 24 39  2  0
  7 40  2  0
 40 41  1  0
  6 42  1  0
  3 43  1  0
 40  2  1  0
 39  8  1  0
 17 12  1  0
 31 27  1  0
M  END
>  <cnnaffinity>  (1) 
-6.40835

>  <filename>  (1) 
Fc1cc(F)cc(-c2nc(CCc3ncc[nH]3)n(Cc3cccnc3)n2)c1

$$$$
