
     RDKit          3D

 46 49  0  0  0  0  0  0  0  0999 V2000
   10.2570    5.7133   25.0666 F   0  0  0  0  0  0  0  0  0  0  0  0
    9.6132    4.5474   24.9596 C   0  0  0  0  0  0  0  0  0  0  0  0
    9.3650    4.0392   23.6830 C   0  0  0  0  0  0  0  0  0  0  0  0
    8.6818    2.8302   23.5824 C   0  0  0  0  0  0  0  0  0  0  0  0
    8.2854    2.1984   24.7706 C   0  0  0  0  0  0  0  0  0  0  0  0
    7.5976    0.9682   24.7747 N   0  0  0  0  0  0  0  0  0  0  0  0
    6.6562    0.7370   25.7218 N   0  0  0  0  0  0  0  0  0  0  0  0
    6.2232   -0.4779   25.4319 C   0  0  0  0  0  0  0  0  0  0  0  0
    5.0921   -1.0907   26.2092 C   0  0  0  0  0  0  0  0  0  0  0  0
    5.4013   -1.2971   27.7098 C   0  0  0  0  0  0  0  0  0  0  0  0
    4.0310   -1.3945   28.4042 C   0  0  0  0  0  0  0  0  0  0  0  0
    3.0110   -0.7125   27.4617 C   0  0  0  0  0  0  0  0  0  0  0  0
    3.8023   -0.2334   26.2309 C   0  0  0  0  0  0  0  0  0  0  0  0
    3.2291   -0.3334   25.3022 H   0  0  0  0  0  0  0  0  0  0  0  0
    4.0722    0.8242   26.3428 H   0  0  0  0  0  0  0  0  0  0  0  0
    2.2296   -1.4242   27.1727 H   0  0  0  0  0  0  0  0  0  0  0  0
    2.5055    0.1267   27.9510 H   0  0  0  0  0  0  0  0  0  0  0  0
    4.0594   -0.9127   29.3870 H   0  0  0  0  0  0  0  0  0  0  0  0
    3.7487   -2.4396   28.5747 H   0  0  0  0  0  0  0  0  0  0  0  0
    6.0201   -2.1853   27.8796 H   0  0  0  0  0  0  0  0  0  0  0  0
    5.9519   -0.4261   28.0868 H   0  0  0  0  0  0  0  0  0  0  0  0
    4.8765   -2.0559   25.7409 H   0  0  0  0  0  0  0  0  0  0  0  0
    6.8754   -1.0722   24.3969 N   0  0  0  0  0  0  0  0  0  0  0  0
    7.7358   -0.1447   24.0028 C   0  0  0  0  0  0  0  0  0  0  0  0
    8.7418   -0.2711   22.8859 C   0  0  0  0  0  0  0  0  0  0  0  0
    8.2656    0.1955   21.6264 O   0  0  0  0  0  0  0  0  0  0  0  0
    7.3942   -0.7233   20.9561 C   0  0  0  0  0  0  0  0  0  0  0  0
    6.6465    0.0110   19.8733 C   0  0  0  0  0  0  0  0  0  0  0  0
    5.4307    0.6654   20.1177 C   0  0  0  0  0  0  0  0  0  0  0  0
    4.8082    1.3275   19.0566 C   0  0  0  0  0  0  0  0  0  0  0  0
    5.4143    1.3214   17.7967 C   0  0  0  0  0  0  0  0  0  0  0  0
    6.5757    0.7005   17.5427 N   0  0  0  0  0  0  0  0  0  0  0  0
    7.1660    0.0761   18.5709 C   0  0  0  0  0  0  0  0  0  0  0  0
    8.1057   -0.4225   18.3391 H   0  0  0  0  0  0  0  0  0  0  0  0
    4.9498    1.8397   16.9566 H   0  0  0  0  0  0  0  0  0  0  0  0
    3.8734    1.8542   19.1968 H   0  0  0  0  0  0  0  0  0  0  0  0
    4.9838    0.6666   21.1160 H   0  0  0  0  0  0  0  0  0  0  0  0
    6.6857   -1.1692   21.6742 H   0  0  0  0  0  0  0  0  0  0  0  0
    7.9918   -1.5425   20.5206 H   0  0  0  0  0  0  0  0  0  0  0  0
    9.6358    0.3175   23.1233 H   0  0  0  0  0  0  0  0  0  0  0  0
    9.0514   -1.3250   22.8261 H   0  0  0  0  0  0  0  0  0  0  0  0
    8.5600    2.8184   25.9948 C   0  0  0  0  0  0  0  0  0  0  0  0
    9.2305    3.9772   26.0852 N   0  0  0  0  0  0  0  0  0  0  0  0
    8.2258    2.3569   26.9215 H   0  0  0  0  0  0  0  0  0  0  0  0
    8.4108    2.4144   22.6108 H   0  0  0  0  0  0  0  0  0  0  0  0
    9.6963    4.5821   22.8063 H   0  0  0  0  0  0  0  0  0  0  0  0
  1  2  1  0
  2  3  2  0
  3  4  1  0
  4  5  2  0
  5  6  1  0
  6  7  1  0
  7  8  2  0
  8  9  1  0
  9 10  1  0
 10 11  1  0
 11 12  1  0
 12 13  1  0
 13 14  1  0
 13 15  1  0
 12 16  1  0
 12 17  1  0
 11 18  1  0
 11 19  1  0
 10 20  1  0
 10 21  1  0
  9 22  1  0
  8 23  1  0
 23 24  2  0
 24 25  1  0
 25 26  1  0
 26 27  1  0
 27 28  1  0
 28 29  2  0
 29 30  1  0
 30 31  2  0
 31 32  1  0
 32 33  2  0
 33 34  1  0
 31 35  1  0
 30 36  1  0
 29 37  1  0
 27 38  1  0
 27 39  1  0
 25 40  1  0
 25 41  1  0
  5 42  1  0
 42 43  2  0
 42 44  1  0
  4 45  1  0
  3 46  1  0
 43  2  1  0
 24  6  1  0
 33 28  1  0
 13  9  1  0
M  END
>  <cnnaffinity>  (1) 
-5.9564

>  <filename>  (1) 
Fc1ccc(-n2nc(C3CCCC3)nc2COCc2cccnc2)cn1

$$$$
