
     RDKit          3D

 45 48  0  0  0  0  0  0  0  0999 V2000
    5.6899    4.9384   27.7427 F   0  0  0  0  0  0  0  0  0  0  0  0
    5.2738    3.9566   26.9273 C   0  0  0  0  0  0  0  0  0  0  0  0
    3.9207    3.6074   26.8893 C   0  0  0  0  0  0  0  0  0  0  0  0
    3.4567    2.6419   26.0844 N   0  0  0  0  0  0  0  0  0  0  0  0
    4.3386    1.9802   25.3195 C   0  0  0  0  0  0  0  0  0  0  0  0
    5.7220    2.2340   25.3172 C   0  0  0  0  0  0  0  0  0  0  0  0
    6.6744    1.3635   24.5391 C   0  0  0  0  0  0  0  0  0  0  0  0
    6.6687    1.5392   23.0014 C   0  0  0  0  0  0  0  0  0  0  0  0
    7.6769    0.6204   22.3877 C   0  0  0  0  0  0  0  0  0  0  0  0
    8.9665    0.7156   22.6625 N   0  0  0  0  0  0  0  0  0  0  0  0
    9.5078   -0.3716   22.0679 C   0  0  0  0  0  0  0  0  0  0  0  0
   10.9693   -0.6520   22.0525 C   0  0  0  0  0  0  0  0  0  0  0  0
   11.4477   -1.6282   21.1676 C   0  0  0  0  0  0  0  0  0  0  0  0
   12.8182   -1.7584   20.9776 C   0  0  0  0  0  0  0  0  0  0  0  0
   13.2964   -2.5268   19.9950 F   0  0  0  0  0  0  0  0  0  0  0  0
   13.7413   -1.0557   21.7317 C   0  0  0  0  0  0  0  0  0  0  0  0
   13.2486   -0.1530   22.6634 C   0  0  0  0  0  0  0  0  0  0  0  0
   14.1251    0.5552   23.3835 F   0  0  0  0  0  0  0  0  0  0  0  0
   11.8851    0.0617   22.8469 C   0  0  0  0  0  0  0  0  0  0  0  0
   11.5670    0.7780   23.5911 H   0  0  0  0  0  0  0  0  0  0  0  0
   14.7938   -1.2237   21.5826 H   0  0  0  0  0  0  0  0  0  0  0  0
   10.7284   -2.2521   20.6568 H   0  0  0  0  0  0  0  0  0  0  0  0
    8.6215   -1.1322   21.4388 N   0  0  0  0  0  0  0  0  0  0  0  0
    7.4508   -0.4915   21.6482 N   0  0  0  0  0  0  0  0  0  0  0  0
    6.2572   -0.9243   20.9272 C   0  0  0  0  0  0  0  0  0  0  0  0
    5.9155   -0.0482   19.7387 C   0  0  0  0  0  0  0  0  0  0  0  0
    4.7586    0.7340   19.6906 C   0  0  0  0  0  0  0  0  0  0  0  0
    4.5351    1.5443   18.5741 C   0  0  0  0  0  0  0  0  0  0  0  0
    5.4709    1.5237   17.5387 C   0  0  0  0  0  0  0  0  0  0  0  0
    6.5820    0.7742   17.5568 N   0  0  0  0  0  0  0  0  0  0  0  0
    6.7969    0.0261   18.6475 C   0  0  0  0  0  0  0  0  0  0  0  0
    7.7210   -0.5497   18.6523 H   0  0  0  0  0  0  0  0  0  0  0  0
    5.3196    2.1371   16.6517 H   0  0  0  0  0  0  0  0  0  0  0  0
    3.6632    2.1843   18.5000 H   0  0  0  0  0  0  0  0  0  0  0  0
    4.0432    0.7179   20.5141 H   0  0  0  0  0  0  0  0  0  0  0  0
    5.4141   -0.9599   21.6176 H   0  0  0  0  0  0  0  0  0  0  0  0
    6.4680   -1.9527   20.6199 H   0  0  0  0  0  0  0  0  0  0  0  0
    6.9610    2.5647   22.7490 H   0  0  0  0  0  0  0  0  0  0  0  0
    5.6752    1.3730   22.5719 H   0  0  0  0  0  0  0  0  0  0  0  0
    6.4718    0.3085   24.7763 H   0  0  0  0  0  0  0  0  0  0  0  0
    7.6964    1.5520   24.8895 H   0  0  0  0  0  0  0  0  0  0  0  0
    6.1901    3.2794   26.1320 C   0  0  0  0  0  0  0  0  0  0  0  0
    7.2399    3.5686   26.1538 H   0  0  0  0  0  0  0  0  0  0  0  0
    3.9274    1.1924   24.6892 H   0  0  0  0  0  0  0  0  0  0  0  0
    3.2077    4.1213   27.5307 H   0  0  0  0  0  0  0  0  0  0  0  0
  1  2  1  0
  2  3  2  0
  3  4  1  0
  4  5  2  0
  5  6  1  0
  6  7  1  0
  7  8  1  0
  8  9  1  0
  9 10  2  0
 10 11  1  0
 11 12  1  0
 12 13  2  0
 13 14  1  0
 14 15  1  0
 14 16  2  0
 16 17  1  0
 17 18  1  0
 17 19  2  0
 19 20  1  0
 16 21  1  0
 13 22  1  0
 11 23  2  0
 23 24  1  0
 24 25  1  0
 25 26  1  0
 26 27  2  0
 27 28  1  0
 28 29  2  0
 29 30  1  0
 30 31  2  0
 31 32  1  0
 29 33  1  0
 28 34  1  0
 27 35  1  0
 25 36  1  0
 25 37  1  0
  8 38  1  0
  8 39  1  0
  7 40  1  0
  7 41  1  0
  6 42  2  0
 42 43  1  0
  5 44  1  0
  3 45  1  0
 42  2  1  0
 24  9  1  0
 31 26  1  0
 19 12  1  0
M  END
>  <cnnaffinity>  (1) 
-6.74797

>  <filename>  (1) 
Fc1cncc(CCc2nc(-c3cc(F)cc(F)c3)nn2Cc2cccnc2)c1

$$$$
