
     RDKit          3D

 46 49  0  0  0  0  0  0  0  0999 V2000
    9.9270    0.0742   20.5592 F   0  0  0  0  0  0  0  0  0  0  0  0
   10.6534    0.6171   21.5660 C   0  0  0  0  0  0  0  0  0  0  0  0
   11.8976    0.0768   21.8652 C   0  0  0  0  0  0  0  0  0  0  0  0
   12.6333    0.6433   22.9111 C   0  0  0  0  0  0  0  0  0  0  0  0
   12.1090    1.7119   23.6464 C   0  0  0  0  0  0  0  0  0  0  0  0
   10.8526    2.2388   23.3122 C   0  0  0  0  0  0  0  0  0  0  0  0
   10.0837    1.6829   22.2741 C   0  0  0  0  0  0  0  0  0  0  0  0
    8.6697    2.1392   21.9739 C   0  0  0  0  0  0  0  0  0  0  0  0
    7.5617    1.3061   22.6916 C   0  0  0  0  0  0  0  0  0  0  0  0
    7.5493   -0.1385   22.2797 C   0  0  0  0  0  0  0  0  0  0  0  0
    8.0522   -1.1677   22.9460 N   0  0  0  0  0  0  0  0  0  0  0  0
    8.0780   -2.1602   22.0103 C   0  0  0  0  0  0  0  0  0  0  0  0
    8.5540   -3.5599   22.2254 C   0  0  0  0  0  0  0  0  0  0  0  0
    7.5149   -4.4210   22.9436 C   0  0  0  0  0  0  0  0  0  0  0  0
    7.2780   -4.0629   24.4299 C   0  0  0  0  0  0  0  0  0  0  0  0
    7.7751   -5.4654   24.8484 C   0  0  0  0  0  0  0  0  0  0  0  0
    7.9653   -5.8403   23.3595 C   0  0  0  0  0  0  0  0  0  0  0  0
    8.9763   -6.1300   23.0587 H   0  0  0  0  0  0  0  0  0  0  0  0
    7.2846   -6.6224   23.0108 H   0  0  0  0  0  0  0  0  0  0  0  0
    7.0377   -6.0773   25.3750 H   0  0  0  0  0  0  0  0  0  0  0  0
    8.6927   -5.4459   25.4453 H   0  0  0  0  0  0  0  0  0  0  0  0
    7.8755   -3.2192   24.7968 H   0  0  0  0  0  0  0  0  0  0  0  0
    6.2325   -3.8429   24.6632 H   0  0  0  0  0  0  0  0  0  0  0  0
    6.5855   -4.4478   22.3573 H   0  0  0  0  0  0  0  0  0  0  0  0
    8.7378   -3.9800   21.2341 H   0  0  0  0  0  0  0  0  0  0  0  0
    9.4976   -3.5367   22.7790 H   0  0  0  0  0  0  0  0  0  0  0  0
    7.6036   -1.8179   20.8371 N   0  0  0  0  0  0  0  0  0  0  0  0
    7.2285   -0.5328   21.0152 N   0  0  0  0  0  0  0  0  0  0  0  0
    6.5696    0.1244   19.9484 C   0  0  0  0  0  0  0  0  0  0  0  0
    5.3481    0.7783   20.1244 C   0  0  0  0  0  0  0  0  0  0  0  0
    4.7778    1.3870   19.0031 C   0  0  0  0  0  0  0  0  0  0  0  0
    5.4466    1.3220   17.7759 C   0  0  0  0  0  0  0  0  0  0  0  0
    6.6088    0.6664   17.6013 N   0  0  0  0  0  0  0  0  0  0  0  0
    7.1437    0.0613   18.6659 C   0  0  0  0  0  0  0  0  0  0  0  0
    8.0715   -0.4928   18.5168 H   0  0  0  0  0  0  0  0  0  0  0  0
    5.0211    1.7837   16.8891 H   0  0  0  0  0  0  0  0  0  0  0  0
    3.8276    1.9029   19.0766 H   0  0  0  0  0  0  0  0  0  0  0  0
    4.8619    0.7867   21.1018 H   0  0  0  0  0  0  0  0  0  0  0  0
    7.7030    1.3417   23.7756 H   0  0  0  0  0  0  0  0  0  0  0  0
    6.5877    1.7649   22.4847 H   0  0  0  0  0  0  0  0  0  0  0  0
    8.4988    2.1028   20.8908 H   0  0  0  0  0  0  0  0  0  0  0  0
    8.5688    3.1900   22.2660 H   0  0  0  0  0  0  0  0  0  0  0  0
   10.4375    3.0698   23.8829 H   0  0  0  0  0  0  0  0  0  0  0  0
   12.6736    2.1249   24.4741 H   0  0  0  0  0  0  0  0  0  0  0  0
   13.6033    0.2195   23.1636 H   0  0  0  0  0  0  0  0  0  0  0  0
   12.2697   -0.7541   21.2732 H   0  0  0  0  0  0  0  0  0  0  0  0
  1  2  1  0
  2  3  2  0
  3  4  1  0
  4  5  2  0
  5  6  1  0
  6  7  2  0
  7  8  1  0
  8  9  1  0
  9 10  1  0
 10 11  2  0
 11 12  1  0
 12 13  1  0
 13 14  1  0
 14 15  1  0
 15 16  1  0
 16 17  1  0
 17 18  1  0
 17 19  1  0
 16 20  1  0
 16 21  1  0
 15 22  1  0
 15 23  1  0
 14 24  1  0
 13 25  1  0
 13 26  1  0
 12 27  2  0
 27 28  1  0
 28 29  1  0
 29 30  2  0
 30 31  1  0
 31 32  2  0
 32 33  1  0
 33 34  2  0
 34 35  1  0
 32 36  1  0
 31 37  1  0
 30 38  1  0
  9 39  1  0
  9 40  1  0
  8 41  1  0
  8 42  1  0
  6 43  1  0
  5 44  1  0
  4 45  1  0
  3 46  1  0
  7  2  1  0
 28 10  1  0
 34 29  1  0
 17 14  1  0
M  END
>  <cnnaffinity>  (1) 
-6.43731

>  <filename>  (1) 
Fc1ccccc1CCc1nc(CC2CCC2)nn1-c1cccnc1

$$$$
