
     RDKit          3D

 47 50  0  0  0  0  0  0  0  0999 V2000
   13.4950    3.5715   23.2575 F   0  0  0  0  0  0  0  0  0  0  0  0
   12.5046    2.7273   23.5956 C   0  0  0  0  0  0  0  0  0  0  0  0
   12.8067    1.5757   24.3209 C   0  0  0  0  0  0  0  0  0  0  0  0
   11.7551    0.7720   24.7769 C   0  0  0  0  0  0  0  0  0  0  0  0
   10.4490    1.0716   24.3849 C   0  0  0  0  0  0  0  0  0  0  0  0
    9.4597    0.2903   24.8638 F   0  0  0  0  0  0  0  0  0  0  0  0
   10.1442    2.1352   23.5165 C   0  0  0  0  0  0  0  0  0  0  0  0
    8.8006    2.2601   22.8114 C   0  0  0  0  0  0  0  0  0  0  0  0
    8.9560    2.0245   21.2918 C   0  0  0  0  0  0  0  0  0  0  0  0
    9.4984    0.6300   20.9169 C   0  0  0  0  0  0  0  0  0  0  0  0
    8.6388   -0.4964   21.3865 C   0  0  0  0  0  0  0  0  0  0  0  0
    8.9095   -1.3565   22.3484 N   0  0  0  0  0  0  0  0  0  0  0  0
    7.7301   -2.0100   22.5242 C   0  0  0  0  0  0  0  0  0  0  0  0
    7.4051   -2.9637   23.6670 C   0  0  0  0  0  0  0  0  0  0  0  0
    6.8703   -2.2161   24.9319 C   0  0  0  0  0  0  0  0  0  0  0  0
    7.4845   -3.0048   26.0926 C   0  0  0  0  0  0  0  0  0  0  0  0
    8.7882   -3.4988   25.4765 C   0  0  0  0  0  0  0  0  0  0  0  0
    8.4836   -3.7768   24.1134 O   0  0  0  0  0  0  0  0  0  0  0  0
    9.5728   -2.7262   25.5333 H   0  0  0  0  0  0  0  0  0  0  0  0
    9.1506   -4.4265   25.9317 H   0  0  0  0  0  0  0  0  0  0  0  0
    6.8494   -3.8503   26.3844 H   0  0  0  0  0  0  0  0  0  0  0  0
    7.6633   -2.3860   26.9764 H   0  0  0  0  0  0  0  0  0  0  0  0
    7.2412   -1.1810   24.9421 H   0  0  0  0  0  0  0  0  0  0  0  0
    5.7759   -2.1955   24.9578 H   0  0  0  0  0  0  0  0  0  0  0  0
    6.6391   -3.6339   23.2613 H   0  0  0  0  0  0  0  0  0  0  0  0
    6.7629   -1.6250   21.7060 N   0  0  0  0  0  0  0  0  0  0  0  0
    7.3613   -0.6827   20.9336 N   0  0  0  0  0  0  0  0  0  0  0  0
    6.6517   -0.0185   19.8862 C   0  0  0  0  0  0  0  0  0  0  0  0
    5.4346    0.6221   20.1476 C   0  0  0  0  0  0  0  0  0  0  0  0
    4.8143    1.3067   19.0975 C   0  0  0  0  0  0  0  0  0  0  0  0
    5.4095    1.3083   17.8305 C   0  0  0  0  0  0  0  0  0  0  0  0
    6.5583    0.6689   17.5628 N   0  0  0  0  0  0  0  0  0  0  0  0
    7.1570    0.0244   18.5722 C   0  0  0  0  0  0  0  0  0  0  0  0
    8.0887   -0.4863   18.3312 H   0  0  0  0  0  0  0  0  0  0  0  0
    4.9410    1.8301   16.9987 H   0  0  0  0  0  0  0  0  0  0  0  0
    3.8820    1.8391   19.2488 H   0  0  0  0  0  0  0  0  0  0  0  0
    5.0040    0.5864   21.1497 H   0  0  0  0  0  0  0  0  0  0  0  0
   10.4973    0.4856   21.3381 H   0  0  0  0  0  0  0  0  0  0  0  0
    9.5938    0.5654   19.8308 H   0  0  0  0  0  0  0  0  0  0  0  0
    9.6640    2.7670   20.9113 H   0  0  0  0  0  0  0  0  0  0  0  0
    8.0078    2.2053   20.7728 H   0  0  0  0  0  0  0  0  0  0  0  0
    8.3624    3.2533   22.9772 H   0  0  0  0  0  0  0  0  0  0  0  0
    8.0779    1.5525   23.2324 H   0  0  0  0  0  0  0  0  0  0  0  0
   11.2010    3.0140   23.1924 C   0  0  0  0  0  0  0  0  0  0  0  0
   11.0254    3.9102   22.5946 H   0  0  0  0  0  0  0  0  0  0  0  0
   11.9125   -0.0825   25.4295 H   0  0  0  0  0  0  0  0  0  0  0  0
   13.8436    1.3238   24.4974 H   0  0  0  0  0  0  0  0  0  0  0  0
  1  2  1  0
  2  3  2  0
  3  4  1  0
  4  5  2  0
  5  6  1  0
  5  7  1  0
  7  8  1  0
  8  9  1  0
  9 10  1  0
 10 11  1  0
 11 12  2  0
 12 13  1  0
 13 14  1  0
 14 15  1  0
 15 16  1  0
 16 17  1  0
 17 18  1  0
 17 19  1  0
 17 20  1  0
 16 21  1  0
 16 22  1  0
 15 23  1  0
 15 24  1  0
 14 25  1  0
 13 26  2  0
 26 27  1  0
 27 28  1  0
 28 29  2  0
 29 30  1  0
 30 31  2  0
 31 32  1  0
 32 33  2  0
 33 34  1  0
 31 35  1  0
 30 36  1  0
 29 37  1  0
 10 38  1  0
 10 39  1  0
  9 40  1  0
  9 41  1  0
  8 42  1  0
  8 43  1  0
  7 44  2  0
 44 45  1  0
  4 46  1  0
  3 47  1  0
 44  2  1  0
 27 11  1  0
 33 28  1  0
 18 14  1  0
M  END
>  <cnnaffinity>  (1) 
-6.31401

>  <filename>  (1) 
Fc1ccc(F)c(CCCc2nc(C3CCCO3)nn2-c2cccnc2)c1

$$$$
