
     RDKit          3D

 42 45  0  0  0  0  0  0  0  0999 V2000
   15.4185   -1.1706   19.9025 F   0  0  0  0  0  0  0  0  0  0  0  0
   14.4062   -1.1315   20.7748 C   0  0  0  0  0  0  0  0  0  0  0  0
   13.4067   -2.0634   20.5710 C   0  0  0  0  0  0  0  0  0  0  0  0
   12.1817   -1.8163   21.1535 C   0  0  0  0  0  0  0  0  0  0  0  0
   11.9437   -0.6263   21.8545 C   0  0  0  0  0  0  0  0  0  0  0  0
   10.5472   -0.1959   21.9050 C   0  0  0  0  0  0  0  0  0  0  0  0
    9.5981   -0.9567   21.3728 N   0  0  0  0  0  0  0  0  0  0  0  0
    8.4887   -0.2191   21.5041 N   0  0  0  0  0  0  0  0  0  0  0  0
    7.2126   -0.7566   21.0277 C   0  0  0  0  0  0  0  0  0  0  0  0
    6.5545    0.0359   19.9150 C   0  0  0  0  0  0  0  0  0  0  0  0
    5.3356    0.7009   20.0865 C   0  0  0  0  0  0  0  0  0  0  0  0
    4.7638    1.3674   18.9987 C   0  0  0  0  0  0  0  0  0  0  0  0
    5.4374    1.3507   17.7748 C   0  0  0  0  0  0  0  0  0  0  0  0
    6.6088    0.7219   17.5903 N   0  0  0  0  0  0  0  0  0  0  0  0
    7.1476    0.0926   18.6416 C   0  0  0  0  0  0  0  0  0  0  0  0
    8.0978   -0.4083   18.4552 H   0  0  0  0  0  0  0  0  0  0  0  0
    5.0263    1.8697   16.9086 H   0  0  0  0  0  0  0  0  0  0  0  0
    3.8300    1.9101   19.0910 H   0  0  0  0  0  0  0  0  0  0  0  0
    4.8367    0.6885   21.0590 H   0  0  0  0  0  0  0  0  0  0  0  0
    6.5286   -0.8467   21.8822 H   0  0  0  0  0  0  0  0  0  0  0  0
    7.4445   -1.7701   20.6813 H   0  0  0  0  0  0  0  0  0  0  0  0
    8.8082    0.9400   22.1272 C   0  0  0  0  0  0  0  0  0  0  0  0
    7.8101    1.7997   22.8147 C   0  0  0  0  0  0  0  0  0  0  0  0
    7.5472    1.2192   24.2369 C   0  0  0  0  0  0  0  0  0  0  0  0
    6.4373    1.8611   24.9788 C   0  0  0  0  0  0  0  0  0  0  0  0
    5.1082    1.6077   24.9924 C   0  0  0  0  0  0  0  0  0  0  0  0
    4.6169    2.5830   25.8898 C   0  0  0  0  0  0  0  0  0  0  0  0
    2.9842    2.7983   26.3519 Cl  0  0  0  0  0  0  0  0  0  0  0  0
    5.5559    3.3539   26.3718 N   0  0  0  0  0  0  0  0  0  0  0  0
    6.7130    2.8981   25.7848 O   0  0  0  0  0  0  0  0  0  0  0  0
    4.5626    0.8505   24.4509 H   0  0  0  0  0  0  0  0  0  0  0  0
    7.2903    0.1563   24.1358 H   0  0  0  0  0  0  0  0  0  0  0  0
    8.4668    1.2699   24.8317 H   0  0  0  0  0  0  0  0  0  0  0  0
    8.2271    2.8082   22.8794 H   0  0  0  0  0  0  0  0  0  0  0  0
    6.8915    1.8446   22.2172 H   0  0  0  0  0  0  0  0  0  0  0  0
   10.1084    0.9921   22.3696 N   0  0  0  0  0  0  0  0  0  0  0  0
   13.0316    0.1647   22.2536 C   0  0  0  0  0  0  0  0  0  0  0  0
   14.2974   -0.1059   21.7340 C   0  0  0  0  0  0  0  0  0  0  0  0
   15.1367    0.5353   21.9819 H   0  0  0  0  0  0  0  0  0  0  0  0
   12.8873    1.0270   22.9033 H   0  0  0  0  0  0  0  0  0  0  0  0
   11.3164   -2.4416   21.0048 H   0  0  0  0  0  0  0  0  0  0  0  0
   13.5877   -2.9068   19.9137 H   0  0  0  0  0  0  0  0  0  0  0  0
  1  2  1  0
  2  3  2  0
  3  4  1  0
  4  5  2  0
  5  6  1  0
  6  7  2  0
  7  8  1  0
  8  9  1  0
  9 10  1  0
 10 11  2  0
 11 12  1  0
 12 13  2  0
 13 14  1  0
 14 15  2  0
 15 16  1  0
 13 17  1  0
 12 18  1  0
 11 19  1  0
  9 20  1  0
  9 21  1  0
  8 22  1  0
 22 23  1  0
 23 24  1  0
 24 25  1  0
 25 26  2  0
 26 27  1  0
 27 28  1  0
 27 29  2  0
 29 30  1  0
 26 31  1  0
 24 32  1  0
 24 33  1  0
 23 34  1  0
 23 35  1  0
 22 36  2  0
  5 37  1  0
 37 38  2  0
 38 39  1  0
 37 40  1  0
  4 41  1  0
  3 42  1  0
 38  2  1  0
 36  6  1  0
 15 10  1  0
 30 25  1  0
M  END
>  <cnnaffinity>  (1) 
-6.59411

>  <filename>  (1) 
Fc1ccc(-c2nc(CCc3cc(Cl)no3)n(Cc3cccnc3)n2)cc1

$$$$
