
     RDKit          3D

 37 41  0  0  0  0  0  0  0  0999 V2000
    6.4412    0.1130   24.9267 F   0  0  0  0  0  0  0  0  0  0  0  0
    6.6352    1.2323   24.1825 C   0  0  0  0  0  0  0  0  0  0  0  0
    6.3882    2.5096   24.7312 C   0  0  0  0  0  0  0  0  0  0  0  0
    5.7436    2.6679   26.5273 Br  0  0  0  0  0  0  0  0  0  0  0  0
    6.5873    3.6466   24.0334 N   0  0  0  0  0  0  0  0  0  0  0  0
    7.0063    3.5587   22.7624 C   0  0  0  0  0  0  0  0  0  0  0  0
    7.2345    2.3253   22.1363 C   0  0  0  0  0  0  0  0  0  0  0  0
    7.0768    1.1208   22.8533 C   0  0  0  0  0  0  0  0  0  0  0  0
    7.4237   -0.2042   22.2694 C   0  0  0  0  0  0  0  0  0  0  0  0
    7.8520   -1.2144   22.9748 N   0  0  0  0  0  0  0  0  0  0  0  0
    8.1508   -2.1848   22.0309 C   0  0  0  0  0  0  0  0  0  0  0  0
    8.7770   -3.5169   22.3660 C   0  0  0  0  0  0  0  0  0  0  0  0
    8.1476   -4.8709   22.1143 C   0  0  0  0  0  0  0  0  0  0  0  0
    8.2605   -4.3491   23.5623 C   0  0  0  0  0  0  0  0  0  0  0  0
    8.6760   -5.6365   24.3014 C   0  0  0  0  0  0  0  0  0  0  0  0
    9.4641   -4.3805   24.5284 C   0  0  0  0  0  0  0  0  0  0  0  0
    9.3712   -3.8198   25.4640 H   0  0  0  0  0  0  0  0  0  0  0  0
   10.4638   -4.3130   24.0855 H   0  0  0  0  0  0  0  0  0  0  0  0
    7.9471   -6.0073   25.0299 H   0  0  0  0  0  0  0  0  0  0  0  0
    9.1394   -6.4445   23.7283 H   0  0  0  0  0  0  0  0  0  0  0  0
    7.1337   -4.9998   21.7305 H   0  0  0  0  0  0  0  0  0  0  0  0
    8.7841   -5.7193   21.8482 H   0  0  0  0  0  0  0  0  0  0  0  0
    9.8564   -3.3658   22.3312 H   0  0  0  0  0  0  0  0  0  0  0  0
    7.9600   -1.8071   20.7899 N   0  0  0  0  0  0  0  0  0  0  0  0
    7.4257   -0.5727   20.9232 N   0  0  0  0  0  0  0  0  0  0  0  0
    6.7662    0.0631   19.8722 C   0  0  0  0  0  0  0  0  0  0  0  0
    5.6199    0.8119   20.1397 C   0  0  0  0  0  0  0  0  0  0  0  0
    4.9699    1.4150   19.0692 C   0  0  0  0  0  0  0  0  0  0  0  0
    5.4783    1.2710   17.7726 C   0  0  0  0  0  0  0  0  0  0  0  0
    6.5592    0.5170   17.5043 N   0  0  0  0  0  0  0  0  0  0  0  0
    7.1827   -0.0918   18.5335 C   0  0  0  0  0  0  0  0  0  0  0  0
    8.0437   -0.7147   18.3018 H   0  0  0  0  0  0  0  0  0  0  0  0
    4.9751    1.7900   16.9614 H   0  0  0  0  0  0  0  0  0  0  0  0
    4.0750    2.0004   19.2365 H   0  0  0  0  0  0  0  0  0  0  0  0
    5.2379    0.8857   21.1583 H   0  0  0  0  0  0  0  0  0  0  0  0
    7.5692    2.3377   21.1048 H   0  0  0  0  0  0  0  0  0  0  0  0
    7.1865    4.4803   22.2156 H   0  0  0  0  0  0  0  0  0  0  0  0
  1  2  1  0
  2  3  2  0
  3  4  1  0
  3  5  1  0
  5  6  2  0
  6  7  1  0
  7  8  2  0
  8  9  1  0
  9 10  2  0
 10 11  1  0
 11 12  1  0
 12 13  1  0
 13 14  1  0
 14 15  1  0
 15 16  1  0
 16 17  1  0
 16 18  1  0
 15 19  1  0
 15 20  1  0
 13 21  1  0
 13 22  1  0
 12 23  1  0
 11 24  2  0
 24 25  1  0
 25 26  1  0
 26 27  2  0
 27 28  1  0
 28 29  2  0
 29 30  1  0
 30 31  2  0
 31 32  1  0
 29 33  1  0
 28 34  1  0
 27 35  1  0
  7 36  1  0
  6 37  1  0
  8  2  1  0
 25  9  1  0
 31 26  1  0
 14 12  1  0
 16 14  1  0
M  END
>  <cnnaffinity>  (1) 
-6.26493

>  <filename>  (1) 
Fc1c(-c2nc(C3CC34CC4)nn2-c2cccnc2)ccnc1Br

$$$$
