
     RDKit          3D

 27 29  0  0  0  0  0  0  0  0999 V2000
    8.9910   -3.1871   21.9819 H   0  0  0  0  0  0  0  0  0  0  0  0
    8.4582   -2.2487   21.9252 C   0  0  0  0  0  0  0  0  0  0  0  0
    8.2066   -1.4413   22.8953 N   0  0  0  0  0  0  0  0  0  0  0  0
    7.5185   -0.3934   22.2939 C   0  0  0  0  0  0  0  0  0  0  0  0
    7.1184    0.8342   23.0004 C   0  0  0  0  0  0  0  0  0  0  0  0
    7.2338    2.0921   22.3719 C   0  0  0  0  0  0  0  0  0  0  0  0
    7.6158    2.1922   21.3611 H   0  0  0  0  0  0  0  0  0  0  0  0
    6.8457    3.2251   23.0762 C   0  0  0  0  0  0  0  0  0  0  0  0
    6.9530    4.4204   22.4847 F   0  0  0  0  0  0  0  0  0  0  0  0
    6.3543    3.1750   24.3749 C   0  0  0  0  0  0  0  0  0  0  0  0
    6.0646    4.0721   24.9060 H   0  0  0  0  0  0  0  0  0  0  0  0
    6.2631    1.9183   24.9617 C   0  0  0  0  0  0  0  0  0  0  0  0
    5.8083    1.8378   26.2171 F   0  0  0  0  0  0  0  0  0  0  0  0
    6.6273    0.7483   24.3129 C   0  0  0  0  0  0  0  0  0  0  0  0
    6.5459   -0.2103   24.8153 H   0  0  0  0  0  0  0  0  0  0  0  0
    7.3562   -0.6806   20.9639 C   0  0  0  0  0  0  0  0  0  0  0  0
    6.6500   -0.0089   19.8873 C   0  0  0  0  0  0  0  0  0  0  0  0
    7.1737    0.0477   18.5822 C   0  0  0  0  0  0  0  0  0  0  0  0
    8.1250   -0.4321   18.3686 H   0  0  0  0  0  0  0  0  0  0  0  0
    6.5714    0.6797   17.5705 N   0  0  0  0  0  0  0  0  0  0  0  0
    5.4060    1.2920   17.8414 C   0  0  0  0  0  0  0  0  0  0  0  0
    4.9148    1.7768   17.0026 H   0  0  0  0  0  0  0  0  0  0  0  0
    4.8030    1.3093   19.1061 C   0  0  0  0  0  0  0  0  0  0  0  0
    3.8718    1.8452   19.2628 H   0  0  0  0  0  0  0  0  0  0  0  0
    5.4347    0.6426   20.1497 C   0  0  0  0  0  0  0  0  0  0  0  0
    5.0111    0.6332   21.1594 H   0  0  0  0  0  0  0  0  0  0  0  0
    7.9900   -1.8660   20.7203 O   0  0  0  0  0  0  0  0  0  0  0  0
  1  2  1  0
  2  3  2  0
  3  4  1  0
  4  5  1  0
  5  6  2  0
  6  7  1  0
  6  8  1  0
  8  9  1  0
  8 10  2  0
 10 11  1  0
 10 12  1  0
 12 13  1  0
 12 14  2  0
 14 15  1  0
  4 16  2  0
 16 17  1  0
 17 18  2  0
 18 19  1  0
 18 20  1  0
 20 21  2  0
 21 22  1  0
 21 23  1  0
 23 24  1  0
 23 25  2  0
 25 26  1  0
 16 27  1  0
 27  2  1  0
 14  5  1  0
 25 17  1  0
M  END
>  <cnnaffinity>  (1) 
-5.11857

>  <filename>  (1) 
Fc1cc(F)cc(-c2ncoc2-c2cccnc2)c1

$$$$
