
     RDKit          3D

 43 46  0  0  0  0  0  0  0  0999 V2000
    7.4361    5.5458   22.9799 F   0  0  0  0  0  0  0  0  0  0  0  0
    7.9853    4.0459   22.5754 C   0  0  0  0  0  0  0  0  0  0  0  0
    7.9563    4.3891   22.5293 C   0  0  0  0  0  0  0  0  0  0  0  0
    8.1821    2.6179   21.1430 C   0  0  0  0  0  0  0  0  0  0  0  0
    9.0407    1.8096   21.7927 C   0  0  0  0  0  0  0  0  0  0  0  0
    9.5196    0.4294   21.3031 C   0  0  0  0  0  0  0  0  0  0  0  0
    8.4912   -0.5800   21.6677 C   0  0  0  0  0  0  0  0  0  0  0  0
    8.5440   -1.2880   22.7656 N   0  0  0  0  0  0  0  0  0  0  0  0
    7.3566   -1.9506   22.7740 C   0  0  0  0  0  0  0  0  0  0  0  0
    6.9523   -2.9717   23.8158 C   0  0  0  0  0  0  0  0  0  0  0  0
    7.7093   -2.7884   25.1538 C   0  0  0  0  0  0  0  0  0  0  0  0
    9.0970   -3.3896   25.1402 C   0  0  0  0  0  0  0  0  0  0  0  0
    9.5418   -4.2050   24.1788 C   0  0  0  0  0  0  0  0  0  0  0  0
    8.6800   -4.6327   23.0106 C   0  0  0  0  0  0  0  0  0  0  0  0
    7.1811   -4.4075   23.2739 C   0  0  0  0  0  0  0  0  0  0  0  0
    6.8173   -5.1361   24.0121 H   0  0  0  0  0  0  0  0  0  0  0  0
    6.6019   -4.5583   22.3554 H   0  0  0  0  0  0  0  0  0  0  0  0
    8.8676   -5.6824   22.7549 H   0  0  0  0  0  0  0  0  0  0  0  0
    8.9803   -4.0390   22.1360 H   0  0  0  0  0  0  0  0  0  0  0  0
   10.5785   -4.5426   24.1975 H   0  0  0  0  0  0  0  0  0  0  0  0
    9.7489   -3.1260   25.9712 H   0  0  0  0  0  0  0  0  0  0  0  0
    7.1327   -3.2537   25.9670 H   0  0  0  0  0  0  0  0  0  0  0  0
    7.7721   -1.7242   25.4118 H   0  0  0  0  0  0  0  0  0  0  0  0
    5.8809   -2.8116   23.9762 H   0  0  0  0  0  0  0  0  0  0  0  0
    6.5689   -1.6744   21.7542 N   0  0  0  0  0  0  0  0  0  0  0  0
    7.2977   -0.7725   21.0310 N   0  0  0  0  0  0  0  0  0  0  0  0
    6.6929   -0.1295   19.9137 C   0  0  0  0  0  0  0  0  0  0  0  0
    5.4175    0.4333   20.0564 C   0  0  0  0  0  0  0  0  0  0  0  0
    4.8684    1.1125   18.9702 C   0  0  0  0  0  0  0  0  0  0  0  0
    5.5901    1.1793   17.7723 C   0  0  0  0  0  0  0  0  0  0  0  0
    6.7893    0.5974   17.6096 N   0  0  0  0  0  0  0  0  0  0  0  0
    7.3222   -0.0396   18.6608 C   0  0  0  0  0  0  0  0  0  0  0  0
    8.2947   -0.5052   18.4996 H   0  0  0  0  0  0  0  0  0  0  0  0
    5.1870    1.7140   16.9154 H   0  0  0  0  0  0  0  0  0  0  0  0
    3.8967    1.5883   19.0454 H   0  0  0  0  0  0  0  0  0  0  0  0
    4.8938    0.3291   21.0080 H   0  0  0  0  0  0  0  0  0  0  0  0
    9.6997    0.3689   20.2187 H   0  0  0  0  0  0  0  0  0  0  0  0
   10.4505    0.1311   21.7980 H   0  0  0  0  0  0  0  0  0  0  0  0
    9.4708    2.2520   23.0559 N   0  0  0  0  0  0  0  0  0  0  0  0
    9.0249    3.4850   23.3884 C   0  0  0  0  0  0  0  0  0  0  0  0
    9.0333    3.7145   24.4405 H   0  0  0  0  0  0  0  0  0  0  0  0
    7.5824    2.3205   20.2863 H   0  0  0  0  0  0  0  0  0  0  0  0
    8.2937    4.8471   21.4995 H   0  0  0  0  0  0  0  0  0  0  0  0
  1  2  1  0
  2  3  2  0
  3  4  1  0
  4  5  2  0
  5  6  1  0
  6  7  1  0
  7  8  2  0
  8  9  1  0
  9 10  1  0
 10 11  1  0
 11 12  1  0
 12 13  2  0
 13 14  1  0
 14 15  1  0
 15 16  1  0
 15 17  1  0
 14 18  1  0
 14 19  1  0
 13 20  1  0
 12 21  1  0
 11 22  1  0
 11 23  1  0
 10 24  1  0
  9 25  2  0
 25 26  1  0
 26 27  1  0
 27 28  2  0
 28 29  1  0
 29 30  2  0
 30 31  1  0
 31 32  2  0
 32 33  1  0
 30 34  1  0
 29 35  1  0
 28 36  1  0
  6 37  1  0
  6 38  1  0
  5 39  1  0
 39 40  2  0
 40 41  1  0
  4 42  1  0
  3 43  1  0
 40  2  1  0
 26  7  1  0
 32 27  1  0
 15 10  1  0
M  END
>  <cnnaffinity>  (1) 
-6.12167

>  <filename>  (1) 
Fc1ccc(Cc2nc(C3CC=CCC3)nn2-c2cccnc2)nc1

$$$$
