
     RDKit          3D

 38 41  0  0  0  0  0  0  0  0999 V2000
    5.3430    1.6318   17.0636 H   0  0  0  0  0  0  0  0  0  0  0  0
    5.8937    1.2082   17.9004 C   0  0  0  0  0  0  0  0  0  0  0  0
    7.0756    0.6440   17.6107 N   0  0  0  0  0  0  0  0  0  0  0  0
    7.7718    0.1114   18.6186 C   0  0  0  0  0  0  0  0  0  0  0  0
    8.7422   -0.3151   18.3607 H   0  0  0  0  0  0  0  0  0  0  0  0
    7.3169    0.0684   19.9473 C   0  0  0  0  0  0  0  0  0  0  0  0
    8.1053   -0.6607   20.9559 C   0  0  0  0  0  0  0  0  0  0  0  0
    9.4415   -0.5925   20.9753 N   0  0  0  0  0  0  0  0  0  0  0  0
    9.7692   -1.3809   22.0009 N   0  0  0  0  0  0  0  0  0  0  0  0
    8.7341   -1.9820   22.5982 C   0  0  0  0  0  0  0  0  0  0  0  0
    7.6017   -1.5402   21.9680 C   0  0  0  0  0  0  0  0  0  0  0  0
    6.2087   -2.0813   22.1599 C   0  0  0  0  0  0  0  0  0  0  0  0
    5.5287   -1.3097   21.7994 H   0  0  0  0  0  0  0  0  0  0  0  0
    5.9844   -2.2695   23.2178 H   0  0  0  0  0  0  0  0  0  0  0  0
    5.9267   -3.3166   21.3362 C   0  0  0  0  0  0  0  0  0  0  0  0
    5.7383   -3.1242   19.9644 C   0  0  0  0  0  0  0  0  0  0  0  0
    5.7789   -2.1156   19.5541 H   0  0  0  0  0  0  0  0  0  0  0  0
    5.5324   -4.1941   19.1067 C   0  0  0  0  0  0  0  0  0  0  0  0
    5.3224   -3.9632   18.0747 H   0  0  0  0  0  0  0  0  0  0  0  0
    5.5379   -5.4876   19.6313 C   0  0  0  0  0  0  0  0  0  0  0  0
    5.4115   -6.5455   18.8135 F   0  0  0  0  0  0  0  0  0  0  0  0
    5.6698   -5.7133   20.9988 C   0  0  0  0  0  0  0  0  0  0  0  0
    5.5865   -6.7288   21.3713 H   0  0  0  0  0  0  0  0  0  0  0  0
    5.8754   -4.6172   21.8477 C   0  0  0  0  0  0  0  0  0  0  0  0
    5.9883   -4.7873   22.9192 H   0  0  0  0  0  0  0  0  0  0  0  0
    9.2064   -2.9659   23.6176 C   0  0  0  0  0  0  0  0  0  0  0  0
    9.0515   -3.9839   23.2482 H   0  0  0  0  0  0  0  0  0  0  0  0
    8.6786   -2.8695   24.5708 H   0  0  0  0  0  0  0  0  0  0  0  0
   10.7010   -2.6035   23.7397 C   0  0  0  0  0  0  0  0  0  0  0  0
   10.8139   -1.9715   24.6230 H   0  0  0  0  0  0  0  0  0  0  0  0
   11.3456   -3.4758   23.8476 H   0  0  0  0  0  0  0  0  0  0  0  0
   11.0742   -1.7850   22.4680 C   0  0  0  0  0  0  0  0  0  0  0  0
   11.5816   -2.3802   21.7009 H   0  0  0  0  0  0  0  0  0  0  0  0
   11.6787   -0.9005   22.6750 H   0  0  0  0  0  0  0  0  0  0  0  0
    6.0977    0.7107   20.2340 C   0  0  0  0  0  0  0  0  0  0  0  0
    5.7333    0.7849   21.2592 H   0  0  0  0  0  0  0  0  0  0  0  0
    5.3712    1.2844   19.1941 C   0  0  0  0  0  0  0  0  0  0  0  0
    4.4234    1.7827   19.3739 H   0  0  0  0  0  0  0  0  0  0  0  0
  1  2  1  0
  2  3  2  0
  3  4  1  0
  4  5  1  0
  4  6  2  0
  6  7  1  0
  7  8  2  0
  8  9  1  0
  9 10  1  0
 10 11  2  0
 11 12  1  0
 12 13  1  0
 12 14  1  0
 12 15  1  0
 15 16  2  0
 16 17  1  0
 16 18  1  0
 18 19  1  0
 18 20  2  0
 20 21  1  0
 20 22  1  0
 22 23  1  0
 22 24  2  0
 24 25  1  0
 10 26  1  0
 26 27  1  0
 26 28  1  0
 26 29  1  0
 29 30  1  0
 29 31  1  0
 29 32  1  0
 32 33  1  0
 32 34  1  0
  6 35  1  0
 35 36  1  0
 35 37  2  0
 37 38  1  0
 37  2  1  0
 11  7  1  0
 24 15  1  0
 32  9  1  0
M  END
>  <cnnaffinity>  (1) 
-5.7202

>  <filename>  (1) 
Fc1ccc(Cc2c(-c3cccnc3)nn3c2CCC3)cc1

$$$$
