
     RDKit          3D

 42 45  0  0  0  0  0  0  0  0999 V2000
   14.1255   -2.2315   21.1119 F   0  0  0  0  0  0  0  0  0  0  0  0
   13.3588   -1.3286   21.7415 C   0  0  0  0  0  0  0  0  0  0  0  0
   13.9454   -0.4503   22.6610 C   0  0  0  0  0  0  0  0  0  0  0  0
   13.2385    0.4887   23.2984 N   0  0  0  0  0  0  0  0  0  0  0  0
   11.9376    0.6021   23.0151 C   0  0  0  0  0  0  0  0  0  0  0  0
   11.2753   -0.2317   22.0991 C   0  0  0  0  0  0  0  0  0  0  0  0
    9.8410    0.0103   21.9518 C   0  0  0  0  0  0  0  0  0  0  0  0
    8.9577   -0.8442   21.4744 N   0  0  0  0  0  0  0  0  0  0  0  0
    7.7768   -0.2036   21.6797 N   0  0  0  0  0  0  0  0  0  0  0  0
    6.5379   -0.7443   21.1233 C   0  0  0  0  0  0  0  0  0  0  0  0
    6.0725    0.0100   19.8954 C   0  0  0  0  0  0  0  0  0  0  0  0
    4.8938    0.7609   19.8390 C   0  0  0  0  0  0  0  0  0  0  0  0
    4.6380    1.5185   18.6908 C   0  0  0  0  0  0  0  0  0  0  0  0
    5.5587    1.4818   17.6394 C   0  0  0  0  0  0  0  0  0  0  0  0
    6.6769    0.7398   17.6633 N   0  0  0  0  0  0  0  0  0  0  0  0
    6.9151    0.0287   18.7703 C   0  0  0  0  0  0  0  0  0  0  0  0
    7.8303   -0.5658   18.7787 H   0  0  0  0  0  0  0  0  0  0  0  0
    5.4001    2.0806   16.7426 H   0  0  0  0  0  0  0  0  0  0  0  0
    3.7496    2.1331   18.5995 H   0  0  0  0  0  0  0  0  0  0  0  0
    4.1901    0.7577   20.6763 H   0  0  0  0  0  0  0  0  0  0  0  0
    6.7592   -1.7885   20.8812 H   0  0  0  0  0  0  0  0  0  0  0  0
    5.7772   -0.7363   21.9086 H   0  0  0  0  0  0  0  0  0  0  0  0
    8.0121    1.0001   22.2493 C   0  0  0  0  0  0  0  0  0  0  0  0
    6.9734    1.8354   22.9484 C   0  0  0  0  0  0  0  0  0  0  0  0
    6.7996    1.3408   24.3830 C   0  0  0  0  0  0  0  0  0  0  0  0
    5.7179    0.5394   24.7604 C   0  0  0  0  0  0  0  0  0  0  0  0
    5.7238   -0.1138   25.9930 C   0  0  0  0  0  0  0  0  0  0  0  0
    4.6870   -0.9050   26.3181 F   0  0  0  0  0  0  0  0  0  0  0  0
    6.7717    0.0393   26.8953 C   0  0  0  0  0  0  0  0  0  0  0  0
    7.8229    0.9079   26.5691 C   0  0  0  0  0  0  0  0  0  0  0  0
    7.8117    1.5509   25.3346 C   0  0  0  0  0  0  0  0  0  0  0  0
    8.8206    2.3971   25.0436 F   0  0  0  0  0  0  0  0  0  0  0  0
    8.6505    1.0972   27.2446 H   0  0  0  0  0  0  0  0  0  0  0  0
    6.7589   -0.5156   27.8277 H   0  0  0  0  0  0  0  0  0  0  0  0
    4.8479    0.4427   24.1229 H   0  0  0  0  0  0  0  0  0  0  0  0
    6.0283    1.8142   22.3959 H   0  0  0  0  0  0  0  0  0  0  0  0
    7.3374    2.8644   22.9571 H   0  0  0  0  0  0  0  0  0  0  0  0
    9.3074    1.1755   22.3980 N   0  0  0  0  0  0  0  0  0  0  0  0
   12.0031   -1.2553   21.4589 C   0  0  0  0  0  0  0  0  0  0  0  0
   11.5605   -1.9926   20.7939 H   0  0  0  0  0  0  0  0  0  0  0  0
   11.3822    1.3698   23.5489 H   0  0  0  0  0  0  0  0  0  0  0  0
   15.0053   -0.5231   22.8873 H   0  0  0  0  0  0  0  0  0  0  0  0
  1  2  1  0
  2  3  2  0
  3  4  1  0
  4  5  2  0
  5  6  1  0
  6  7  1  0
  7  8  2  0
  8  9  1  0
  9 10  1  0
 10 11  1  0
 11 12  2  0
 12 13  1  0
 13 14  2  0
 14 15  1  0
 15 16  2  0
 16 17  1  0
 14 18  1  0
 13 19  1  0
 12 20  1  0
 10 21  1  0
 10 22  1  0
  9 23  1  0
 23 24  1  0
 24 25  1  0
 25 26  2  0
 26 27  1  0
 27 28  1  0
 27 29  2  0
 29 30  1  0
 30 31  2  0
 31 32  1  0
 30 33  1  0
 29 34  1  0
 26 35  1  0
 24 36  1  0
 24 37  1  0
 23 38  2  0
  6 39  2  0
 39 40  1  0
  5 41  1  0
  3 42  1  0
 39  2  1  0
 38  7  1  0
 16 11  1  0
 31 25  1  0
M  END
>  <cnnaffinity>  (1) 
-6.46319

>  <filename>  (1) 
Fc1cncc(-c2nc(Cc3cc(F)ccc3F)n(Cc3cccnc3)n2)c1

$$$$
