
     RDKit          3D

 43 46  0  0  0  0  0  0  0  0999 V2000
   10.9961   -0.3241   26.1436 F   0  0  0  0  0  0  0  0  0  0  0  0
   11.6418   -0.0803   24.9920 C   0  0  0  0  0  0  0  0  0  0  0  0
   12.8545    0.5975   24.9852 C   0  0  0  0  0  0  0  0  0  0  0  0
   13.4258    0.9810   23.7683 C   0  0  0  0  0  0  0  0  0  0  0  0
   12.7967    0.6558   22.5725 C   0  0  0  0  0  0  0  0  0  0  0  0
   11.6330   -0.1268   22.5608 C   0  0  0  0  0  0  0  0  0  0  0  0
   10.9042   -0.3978   21.2667 C   0  0  0  0  0  0  0  0  0  0  0  0
   10.0206    0.8237   20.8992 C   0  0  0  0  0  0  0  0  0  0  0  0
    8.9346    1.1011   21.8957 C   0  0  0  0  0  0  0  0  0  0  0  0
    8.9318    1.9999   22.8607 N   0  0  0  0  0  0  0  0  0  0  0  0
    7.8569    1.6416   23.6330 C   0  0  0  0  0  0  0  0  0  0  0  0
    7.4655    2.2543   24.9351 C   0  0  0  0  0  0  0  0  0  0  0  0
    8.2324    3.1392   25.5904 N   0  0  0  0  0  0  0  0  0  0  0  0
    7.5525    3.4404   26.6919 N   0  0  0  0  0  0  0  0  0  0  0  0
    6.3689    2.7849   26.7936 C   0  0  0  0  0  0  0  0  0  0  0  0
    6.2732    1.9936   25.6782 C   0  0  0  0  0  0  0  0  0  0  0  0
    5.4791    1.3040   25.4168 H   0  0  0  0  0  0  0  0  0  0  0  0
    5.7004    2.9397   27.6312 H   0  0  0  0  0  0  0  0  0  0  0  0
    7.9654    4.0900   27.3444 H   0  0  0  0  0  0  0  0  0  0  0  0
    7.1716    0.6192   23.1210 N   0  0  0  0  0  0  0  0  0  0  0  0
    7.8749    0.2769   22.0231 N   0  0  0  0  0  0  0  0  0  0  0  0
    7.3447   -0.6782   21.0533 C   0  0  0  0  0  0  0  0  0  0  0  0
    6.6426   -0.0094   19.8846 C   0  0  0  0  0  0  0  0  0  0  0  0
    5.4423    0.6696   20.1227 C   0  0  0  0  0  0  0  0  0  0  0  0
    4.8174    1.3192   19.0572 C   0  0  0  0  0  0  0  0  0  0  0  0
    5.4237    1.2927   17.7984 C   0  0  0  0  0  0  0  0  0  0  0  0
    6.5671    0.6379   17.5471 N   0  0  0  0  0  0  0  0  0  0  0  0
    7.1492    0.0054   18.5763 C   0  0  0  0  0  0  0  0  0  0  0  0
    8.0717   -0.5233   18.3317 H   0  0  0  0  0  0  0  0  0  0  0  0
    4.9693    1.8155   16.9565 H   0  0  0  0  0  0  0  0  0  0  0  0
    3.8815    1.8500   19.1919 H   0  0  0  0  0  0  0  0  0  0  0  0
    5.0199    0.6935   21.1315 H   0  0  0  0  0  0  0  0  0  0  0  0
    8.1682   -1.3132   20.7087 H   0  0  0  0  0  0  0  0  0  0  0  0
    6.6471   -1.3099   21.6097 H   0  0  0  0  0  0  0  0  0  0  0  0
    9.5632    0.6944   19.9146 H   0  0  0  0  0  0  0  0  0  0  0  0
   10.6584    1.7092   20.8469 H   0  0  0  0  0  0  0  0  0  0  0  0
   10.3133   -1.3163   21.3519 H   0  0  0  0  0  0  0  0  0  0  0  0
   11.6419   -0.5770   20.4817 H   0  0  0  0  0  0  0  0  0  0  0  0
   11.0791   -0.5111   23.7869 C   0  0  0  0  0  0  0  0  0  0  0  0
   10.0193   -1.3374   23.8324 F   0  0  0  0  0  0  0  0  0  0  0  0
   13.2123    1.0268   21.6394 H   0  0  0  0  0  0  0  0  0  0  0  0
   14.3498    1.5407   23.7452 H   0  0  0  0  0  0  0  0  0  0  0  0
   13.3558    0.7532   25.9255 H   0  0  0  0  0  0  0  0  0  0  0  0
  1  2  1  0
  2  3  2  0
  3  4  1  0
  4  5  2  0
  5  6  1  0
  6  7  1  0
  7  8  1  0
  8  9  1  0
  9 10  2  0
 10 11  1  0
 11 12  1  0
 12 13  2  0
 13 14  1  0
 14 15  1  0
 15 16  2  0
 16 17  1  0
 15 18  1  0
 14 19  1  0
 11 20  2  0
 20 21  1  0
 21 22  1  0
 22 23  1  0
 23 24  2  0
 24 25  1  0
 25 26  2  0
 26 27  1  0
 27 28  2  0
 28 29  1  0
 26 30  1  0
 25 31  1  0
 24 32  1  0
 22 33  1  0
 22 34  1  0
  8 35  1  0
  8 36  1  0
  7 37  1  0
  7 38  1  0
  6 39  2  0
 39 40  1  0
  5 41  1  0
  4 42  1  0
  3 43  1  0
 39  2  1  0
 21  9  1  0
 28 23  1  0
 16 12  1  0
M  END
>  <cnnaffinity>  (1) 
-5.95951

>  <filename>  (1) 
Fc1cccc(CCc2nc(-c3cc[nH]n3)nn2Cc2cccnc2)c1F

$$$$
