
     RDKit          3D

 27 29  0  0  0  0  0  0  0  0999 V2000
    4.9185    1.7803   16.9967 H   0  0  0  0  0  0  0  0  0  0  0  0
    5.4034    1.2907   17.8408 C   0  0  0  0  0  0  0  0  0  0  0  0
    6.5704    0.6742   17.5850 N   0  0  0  0  0  0  0  0  0  0  0  0
    7.1807    0.0534   18.5973 C   0  0  0  0  0  0  0  0  0  0  0  0
    8.1269   -0.4360   18.3760 H   0  0  0  0  0  0  0  0  0  0  0  0
    6.6541    0.0183   19.9049 C   0  0  0  0  0  0  0  0  0  0  0  0
    7.3568   -0.6371   20.9663 N   0  0  0  0  0  0  0  0  0  0  0  0
    8.1315   -1.7315   20.7268 N   0  0  0  0  0  0  0  0  0  0  0  0
    8.6118   -2.1038   21.8476 N   0  0  0  0  0  0  0  0  0  0  0  0
    8.1960   -1.3084   22.8636 N   0  0  0  0  0  0  0  0  0  0  0  0
    7.4286   -0.4085   22.2995 C   0  0  0  0  0  0  0  0  0  0  0  0
    6.7949    0.6413   22.8461 O   0  0  0  0  0  0  0  0  0  0  0  0
    6.6644    0.7908   24.2304 C   0  0  0  0  0  0  0  0  0  0  0  0
    6.4933   -0.2863   25.1015 C   0  0  0  0  0  0  0  0  0  0  0  0
    6.5178   -1.2915   24.6988 H   0  0  0  0  0  0  0  0  0  0  0  0
    6.3160   -0.0802   26.4738 C   0  0  0  0  0  0  0  0  0  0  0  0
    6.2154   -0.9138   27.1584 H   0  0  0  0  0  0  0  0  0  0  0  0
    6.2836    1.2167   26.9647 C   0  0  0  0  0  0  0  0  0  0  0  0
    6.1183    1.4164   28.2791 F   0  0  0  0  0  0  0  0  0  0  0  0
    6.4070    2.3213   26.1286 C   0  0  0  0  0  0  0  0  0  0  0  0
    6.3629    3.3301   26.5252 H   0  0  0  0  0  0  0  0  0  0  0  0
    6.5878    2.0924   24.7678 C   0  0  0  0  0  0  0  0  0  0  0  0
    6.6867    3.1622   23.9711 F   0  0  0  0  0  0  0  0  0  0  0  0
    5.4359    0.6490   20.1678 C   0  0  0  0  0  0  0  0  0  0  0  0
    5.0097    0.6379   21.1707 H   0  0  0  0  0  0  0  0  0  0  0  0
    4.8067    1.3033   19.1048 C   0  0  0  0  0  0  0  0  0  0  0  0
    3.8775    1.8395   19.2617 H   0  0  0  0  0  0  0  0  0  0  0  0
  1  2  1  0
  2  3  2  0
  3  4  1  0
  4  5  1  0
  4  6  2  0
  6  7  1  0
  7  8  1  0
  8  9  2  0
  9 10  1  0
 10 11  2  0
 11 12  1  0
 12 13  1  0
 13 14  2  0
 14 15  1  0
 14 16  1  0
 16 17  1  0
 16 18  2  0
 18 19  1  0
 18 20  1  0
 20 21  1  0
 20 22  2  0
 22 23  1  0
  6 24  1  0
 24 25  1  0
 24 26  2  0
 26 27  1  0
 26  2  1  0
 11  7  1  0
 22 13  1  0
M  END
>  <cnnaffinity>  (1) 
-5.16846

>  <filename>  (1) 
Fc1ccc(Oc2nnnn2-c2cccnc2)c(F)c1

$$$$
