
     RDKit          3D

 42 45  0  0  0  0  0  0  0  0999 V2000
   14.2186    5.2855   21.2395 F   0  0  0  0  0  0  0  0  0  0  0  0
   13.5088    4.2780   21.7660 C   0  0  0  0  0  0  0  0  0  0  0  0
   13.9282    3.7096   22.9636 C   0  0  0  0  0  0  0  0  0  0  0  0
   13.2010    2.6415   23.4881 C   0  0  0  0  0  0  0  0  0  0  0  0
   12.0054    2.2305   22.8830 C   0  0  0  0  0  0  0  0  0  0  0  0
   11.5898    2.8581   21.6976 C   0  0  0  0  0  0  0  0  0  0  0  0
   10.4375    2.6071   21.0267 O   0  0  0  0  0  0  0  0  0  0  0  0
    9.3818    1.8509   21.5839 C   0  0  0  0  0  0  0  0  0  0  0  0
    9.5737    0.4448   21.0250 C   0  0  0  0  0  0  0  0  0  0  0  0
    8.5832   -0.5587   21.4615 C   0  0  0  0  0  0  0  0  0  0  0  0
    8.7730   -1.3748   22.4733 N   0  0  0  0  0  0  0  0  0  0  0  0
    7.5994   -2.0418   22.5519 C   0  0  0  0  0  0  0  0  0  0  0  0
    7.3813   -3.0779   23.5977 C   0  0  0  0  0  0  0  0  0  0  0  0
    6.8377   -4.4337   23.0768 C   0  0  0  0  0  0  0  0  0  0  0  0
    5.3021   -4.2778   24.0510 S   0  0  0  0  0  0  0  0  0  0  0  0
    6.2075   -2.7797   24.5691 C   0  0  0  0  0  0  0  0  0  0  0  0
    6.5061   -2.8072   25.6186 H   0  0  0  0  0  0  0  0  0  0  0  0
    5.6686   -1.8466   24.3779 H   0  0  0  0  0  0  0  0  0  0  0  0
    6.6634   -4.4823   21.9966 H   0  0  0  0  0  0  0  0  0  0  0  0
    7.4464   -5.2854   23.3869 H   0  0  0  0  0  0  0  0  0  0  0  0
    8.3380   -3.1779   24.1217 H   0  0  0  0  0  0  0  0  0  0  0  0
    6.6951   -1.6888   21.6586 N   0  0  0  0  0  0  0  0  0  0  0  0
    7.3407   -0.7395   20.9282 N   0  0  0  0  0  0  0  0  0  0  0  0
    6.6571   -0.0562   19.8752 C   0  0  0  0  0  0  0  0  0  0  0  0
    5.4501    0.5965   20.1392 C   0  0  0  0  0  0  0  0  0  0  0  0
    4.8370    1.2993   19.0970 C   0  0  0  0  0  0  0  0  0  0  0  0
    5.4369    1.3078   17.8329 C   0  0  0  0  0  0  0  0  0  0  0  0
    6.5753    0.6526   17.5635 N   0  0  0  0  0  0  0  0  0  0  0  0
    7.1615   -0.0161   18.5635 C   0  0  0  0  0  0  0  0  0  0  0  0
    8.0716   -0.5547   18.3083 H   0  0  0  0  0  0  0  0  0  0  0  0
    4.9799    1.8367   16.9978 H   0  0  0  0  0  0  0  0  0  0  0  0
    3.9090    1.8371   19.2549 H   0  0  0  0  0  0  0  0  0  0  0  0
    5.0186    0.5449   21.1385 H   0  0  0  0  0  0  0  0  0  0  0  0
   10.5577    0.0827   21.3441 H   0  0  0  0  0  0  0  0  0  0  0  0
    9.5794    0.5335   19.9385 H   0  0  0  0  0  0  0  0  0  0  0  0
    8.4478    2.3235   21.2427 H   0  0  0  0  0  0  0  0  0  0  0  0
    9.3901    1.8909   22.6820 H   0  0  0  0  0  0  0  0  0  0  0  0
   12.3863    3.8388   21.0929 C   0  0  0  0  0  0  0  0  0  0  0  0
   12.1199    4.2580   20.1349 H   0  0  0  0  0  0  0  0  0  0  0  0
   11.4156    1.4383   23.3284 H   0  0  0  0  0  0  0  0  0  0  0  0
   13.5588    2.0997   24.3616 H   0  0  0  0  0  0  0  0  0  0  0  0
   14.7916    4.1573   23.4294 H   0  0  0  0  0  0  0  0  0  0  0  0
  1  2  1  0
  2  3  2  0
  3  4  1  0
  4  5  2  0
  5  6  1  0
  6  7  1  0
  7  8  1  0
  8  9  1  0
  9 10  1  0
 10 11  2  0
 11 12  1  0
 12 13  1  0
 13 14  1  0
 14 15  1  0
 15 16  1  0
 16 17  1  0
 16 18  1  0
 14 19  1  0
 14 20  1  0
 13 21  1  0
 12 22  2  0
 22 23  1  0
 23 24  1  0
 24 25  2  0
 25 26  1  0
 26 27  2  0
 27 28  1  0
 28 29  2  0
 29 30  1  0
 27 31  1  0
 26 32  1  0
 25 33  1  0
  9 34  1  0
  9 35  1  0
  8 36  1  0
  8 37  1  0
  6 38  2  0
 38 39  1  0
  5 40  1  0
  4 41  1  0
  3 42  1  0
 38  2  1  0
 23 10  1  0
 29 24  1  0
 16 13  1  0
M  END
>  <cnnaffinity>  (1) 
-6.2557

>  <filename>  (1) 
Fc1cccc(OCCc2nc(C3CSC3)nn2-c2cccnc2)c1

$$$$
