
     RDKit          3D

 38 42  0  0  0  0  0  0  0  0999 V2000
    5.9999    2.4317   25.9862 F   0  0  0  0  0  0  0  0  0  0  0  0
    6.4732    2.3830   24.7308 C   0  0  0  0  0  0  0  0  0  0  0  0
    6.6775    3.5704   24.0354 C   0  0  0  0  0  0  0  0  0  0  0  0
    7.1785    3.5116   22.7309 C   0  0  0  0  0  0  0  0  0  0  0  0
    7.4488    2.2813   22.1298 C   0  0  0  0  0  0  0  0  0  0  0  0
    7.2143    1.0879   22.8421 C   0  0  0  0  0  0  0  0  0  0  0  0
    7.4755   -0.2445   22.2658 C   0  0  0  0  0  0  0  0  0  0  0  0
    8.0230   -1.2412   22.9426 N   0  0  0  0  0  0  0  0  0  0  0  0
    8.1564   -2.2037   22.0099 C   0  0  0  0  0  0  0  0  0  0  0  0
    8.8921   -3.4840   22.1939 C   0  0  0  0  0  0  0  0  0  0  0  0
    8.1812   -4.7696   21.8654 C   0  0  0  0  0  0  0  0  0  0  0  0
    8.7987   -4.6157   23.2670 C   0  0  0  0  0  0  0  0  0  0  0  0
    8.8511   -5.7789   24.2713 C   0  0  0  0  0  0  0  0  0  0  0  0
    9.7638   -4.6018   24.4292 C   0  0  0  0  0  0  0  0  0  0  0  0
    9.5113   -3.8981   25.2213 H   0  0  0  0  0  0  0  0  0  0  0  0
   10.8336   -4.7210   24.2392 H   0  0  0  0  0  0  0  0  0  0  0  0
    8.0273   -5.9013   24.9712 H   0  0  0  0  0  0  0  0  0  0  0  0
    9.2833   -6.7135   23.9044 H   0  0  0  0  0  0  0  0  0  0  0  0
    8.5711   -5.5217   21.1739 H   0  0  0  0  0  0  0  0  0  0  0  0
    7.0871   -4.7277   21.8542 H   0  0  0  0  0  0  0  0  0  0  0  0
    9.9340   -3.2793   21.9217 H   0  0  0  0  0  0  0  0  0  0  0  0
    7.7290   -1.8830   20.7985 N   0  0  0  0  0  0  0  0  0  0  0  0
    7.2665   -0.6213   20.9659 N   0  0  0  0  0  0  0  0  0  0  0  0
    6.5840    0.0246   19.8983 C   0  0  0  0  0  0  0  0  0  0  0  0
    5.3736    0.6900   20.1224 C   0  0  0  0  0  0  0  0  0  0  0  0
    4.7851    1.3377   19.0361 C   0  0  0  0  0  0  0  0  0  0  0  0
    5.4218    1.3027   17.7918 C   0  0  0  0  0  0  0  0  0  0  0  0
    6.5750    0.6477   17.5693 N   0  0  0  0  0  0  0  0  0  0  0  0
    7.1316    0.0075   18.6008 C   0  0  0  0  0  0  0  0  0  0  0  0
    8.0629   -0.5217   18.4061 H   0  0  0  0  0  0  0  0  0  0  0  0
    4.9836    1.8099   16.9364 H   0  0  0  0  0  0  0  0  0  0  0  0
    3.8505    1.8745   19.1493 H   0  0  0  0  0  0  0  0  0  0  0  0
    4.9337    0.7327   21.1212 H   0  0  0  0  0  0  0  0  0  0  0  0
    6.7494    1.1438   24.1677 C   0  0  0  0  0  0  0  0  0  0  0  0
    6.6046    0.2410   24.7554 H   0  0  0  0  0  0  0  0  0  0  0  0
    7.8228    2.2560   21.1089 H   0  0  0  0  0  0  0  0  0  0  0  0
    7.3560    4.4276   22.1756 H   0  0  0  0  0  0  0  0  0  0  0  0
    6.4564    4.5154   24.5169 H   0  0  0  0  0  0  0  0  0  0  0  0
  1  2  1  0
  2  3  2  0
  3  4  1  0
  4  5  2  0
  5  6  1  0
  6  7  1  0
  7  8  2  0
  8  9  1  0
  9 10  1  0
 10 11  1  0
 11 12  1  0
 12 13  1  0
 13 14  1  0
 14 15  1  0
 14 16  1  0
 13 17  1  0
 13 18  1  0
 11 19  1  0
 11 20  1  0
 10 21  1  0
  9 22  2  0
 22 23  1  0
 23 24  1  0
 24 25  2  0
 25 26  1  0
 26 27  2  0
 27 28  1  0
 28 29  2  0
 29 30  1  0
 27 31  1  0
 26 32  1  0
 25 33  1  0
  6 34  2  0
 34 35  1  0
  5 36  1  0
  4 37  1  0
  3 38  1  0
 34  2  1  0
 23  7  1  0
 29 24  1  0
 12 10  1  0
 14 12  1  0
M  END
>  <cnnaffinity>  (1) 
-6.05983

>  <filename>  (1) 
Fc1cccc(-c2nc(C3CC34CC4)nn2-c2cccnc2)c1

$$$$
