
     RDKit          3D

 42 45  0  0  0  0  0  0  0  0999 V2000
    6.1848    4.7200   27.2203 F   0  0  0  0  0  0  0  0  0  0  0  0
    5.8833    3.6699   26.4399 C   0  0  0  0  0  0  0  0  0  0  0  0
    4.5469    3.3106   26.2915 C   0  0  0  0  0  0  0  0  0  0  0  0
    4.2668    2.2239   25.4691 C   0  0  0  0  0  0  0  0  0  0  0  0
    2.9862    1.8597   25.2934 F   0  0  0  0  0  0  0  0  0  0  0  0
    5.2634    1.5132   24.8131 C   0  0  0  0  0  0  0  0  0  0  0  0
    6.6010    1.9060   24.9680 C   0  0  0  0  0  0  0  0  0  0  0  0
    7.6644    1.2257   24.1529 C   0  0  0  0  0  0  0  0  0  0  0  0
    7.8052    1.8321   22.7294 C   0  0  0  0  0  0  0  0  0  0  0  0
    8.7641    1.0011   21.9489 C   0  0  0  0  0  0  0  0  0  0  0  0
   10.0722    1.0938   22.0900 N   0  0  0  0  0  0  0  0  0  0  0  0
   10.5353   -0.0977   21.5953 C   0  0  0  0  0  0  0  0  0  0  0  0
   11.9744   -0.4638   21.7235 C   0  0  0  0  0  0  0  0  0  0  0  0
   12.8451    0.2866   22.4685 C   0  0  0  0  0  0  0  0  0  0  0  0
   14.4083   -0.3924   22.4268 S   0  0  0  0  0  0  0  0  0  0  0  0
   13.7990   -1.6673   21.4364 C   0  0  0  0  0  0  0  0  0  0  0  0
   12.5488   -1.5829   21.1304 N   0  0  0  0  0  0  0  0  0  0  0  0
   14.4342   -2.4899   21.1275 H   0  0  0  0  0  0  0  0  0  0  0  0
   12.6154    1.1987   23.0058 H   0  0  0  0  0  0  0  0  0  0  0  0
    9.5774   -0.8813   21.1327 N   0  0  0  0  0  0  0  0  0  0  0  0
    8.4536   -0.1775   21.3552 N   0  0  0  0  0  0  0  0  0  0  0  0
    7.1677   -0.7535   20.9787 C   0  0  0  0  0  0  0  0  0  0  0  0
    6.4624   -0.0020   19.8723 C   0  0  0  0  0  0  0  0  0  0  0  0
    5.2548    0.6755   20.0633 C   0  0  0  0  0  0  0  0  0  0  0  0
    4.6895    1.3665   18.9883 C   0  0  0  0  0  0  0  0  0  0  0  0
    5.3510    1.3470   17.7577 C   0  0  0  0  0  0  0  0  0  0  0  0
    6.5041    0.6927   17.5502 N   0  0  0  0  0  0  0  0  0  0  0  0
    7.0427    0.0508   18.5932 C   0  0  0  0  0  0  0  0  0  0  0  0
    7.9929   -0.4503   18.4080 H   0  0  0  0  0  0  0  0  0  0  0  0
    4.9475    1.8896   16.9041 H   0  0  0  0  0  0  0  0  0  0  0  0
    3.7761    1.9384   19.0976 H   0  0  0  0  0  0  0  0  0  0  0  0
    4.7728    0.6733   21.0437 H   0  0  0  0  0  0  0  0  0  0  0  0
    6.5361   -0.8191   21.8741 H   0  0  0  0  0  0  0  0  0  0  0  0
    7.4040   -1.7758   20.6673 H   0  0  0  0  0  0  0  0  0  0  0  0
    8.2041    2.8478   22.7999 H   0  0  0  0  0  0  0  0  0  0  0  0
    6.8367    1.8925   22.2194 H   0  0  0  0  0  0  0  0  0  0  0  0
    7.4271    0.1570   24.0520 H   0  0  0  0  0  0  0  0  0  0  0  0
    8.6421    1.2758   24.6521 H   0  0  0  0  0  0  0  0  0  0  0  0
    6.9152    2.9891   25.8020 C   0  0  0  0  0  0  0  0  0  0  0  0
    7.9374    3.3182   25.9591 H   0  0  0  0  0  0  0  0  0  0  0  0
    4.9886    0.6700   24.1867 H   0  0  0  0  0  0  0  0  0  0  0  0
    3.7584    3.8569   26.7901 H   0  0  0  0  0  0  0  0  0  0  0  0
  1  2  1  0
  2  3  2  0
  3  4  1  0
  4  5  1  0
  4  6  2  0
  6  7  1  0
  7  8  1  0
  8  9  1  0
  9 10  1  0
 10 11  2  0
 11 12  1  0
 12 13  1  0
 13 14  2  0
 14 15  1  0
 15 16  1  0
 16 17  2  0
 16 18  1  0
 14 19  1  0
 12 20  2  0
 20 21  1  0
 21 22  1  0
 22 23  1  0
 23 24  2  0
 24 25  1  0
 25 26  2  0
 26 27  1  0
 27 28  2  0
 28 29  1  0
 26 30  1  0
 25 31  1  0
 24 32  1  0
 22 33  1  0
 22 34  1  0
  9 35  1  0
  9 36  1  0
  8 37  1  0
  8 38  1  0
  7 39  2  0
 39 40  1  0
  6 41  1  0
  3 42  1  0
 39  2  1  0
 21 10  1  0
 28 23  1  0
 17 13  1  0
M  END
>  <cnnaffinity>  (1) 
-6.67504

>  <filename>  (1) 
Fc1cc(F)cc(CCc2nc(-c3cscn3)nn2Cc2cccnc2)c1

$$$$
