
     RDKit          3D

 39 42  0  0  0  0  0  0  0  0999 V2000
   13.9802    0.6595   23.6946 F   0  0  0  0  0  0  0  0  0  0  0  0
   13.1545    0.0056   22.8689 C   0  0  0  0  0  0  0  0  0  0  0  0
   13.7030   -0.8952   21.9633 C   0  0  0  0  0  0  0  0  0  0  0  0
   12.8261   -1.5793   21.1283 C   0  0  0  0  0  0  0  0  0  0  0  0
   13.3468   -2.3516   20.1681 F   0  0  0  0  0  0  0  0  0  0  0  0
   11.4487   -1.4564   21.2442 C   0  0  0  0  0  0  0  0  0  0  0  0
   10.9278   -0.4952   22.1292 C   0  0  0  0  0  0  0  0  0  0  0  0
    9.4755   -0.2278   22.1435 C   0  0  0  0  0  0  0  0  0  0  0  0
    8.6062   -0.9858   21.4978 N   0  0  0  0  0  0  0  0  0  0  0  0
    7.4296   -0.3715   21.7302 N   0  0  0  0  0  0  0  0  0  0  0  0
    6.2401   -0.8202   21.0233 C   0  0  0  0  0  0  0  0  0  0  0  0
    5.9025    0.0171   19.8136 C   0  0  0  0  0  0  0  0  0  0  0  0
    4.7269    0.7606   19.6982 C   0  0  0  0  0  0  0  0  0  0  0  0
    4.5410    1.5496   18.5604 C   0  0  0  0  0  0  0  0  0  0  0  0
    5.5369    1.5538   17.5798 C   0  0  0  0  0  0  0  0  0  0  0  0
    6.6565    0.8194   17.6569 N   0  0  0  0  0  0  0  0  0  0  0  0
    6.8224    0.0768   18.7550 C   0  0  0  0  0  0  0  0  0  0  0  0
    7.7400   -0.5055   18.8140 H   0  0  0  0  0  0  0  0  0  0  0  0
    5.4241    2.1539   16.6803 H   0  0  0  0  0  0  0  0  0  0  0  0
    3.6592    2.1657   18.4288 H   0  0  0  0  0  0  0  0  0  0  0  0
    3.9679    0.7208   20.4822 H   0  0  0  0  0  0  0  0  0  0  0  0
    6.4392   -1.8560   20.7350 H   0  0  0  0  0  0  0  0  0  0  0  0
    5.4143   -0.8246   21.7255 H   0  0  0  0  0  0  0  0  0  0  0  0
    7.6351    0.7273   22.4883 C   0  0  0  0  0  0  0  0  0  0  0  0
    6.5559    1.6026   23.0639 C   0  0  0  0  0  0  0  0  0  0  0  0
    6.1894    1.2340   24.4946 C   0  0  0  0  0  0  0  0  0  0  0  0
    5.0712    0.7062   25.0545 C   0  0  0  0  0  0  0  0  0  0  0  0
    5.2621    0.4656   26.3613 O   0  0  0  0  0  0  0  0  0  0  0  0
    6.5362    0.8418   26.7144 N   0  0  0  0  0  0  0  0  0  0  0  0
    7.0754    1.2987   25.6203 C   0  0  0  0  0  0  0  0  0  0  0  0
    8.0988    1.6511   25.6311 H   0  0  0  0  0  0  0  0  0  0  0  0
    4.0892    0.4538   24.6853 H   0  0  0  0  0  0  0  0  0  0  0  0
    6.9579    2.6226   23.0447 H   0  0  0  0  0  0  0  0  0  0  0  0
    5.6814    1.6030   22.4006 H   0  0  0  0  0  0  0  0  0  0  0  0
    8.9205    0.8431   22.7674 N   0  0  0  0  0  0  0  0  0  0  0  0
   11.7905    0.2457   22.9556 C   0  0  0  0  0  0  0  0  0  0  0  0
   11.4048    1.0064   23.6258 H   0  0  0  0  0  0  0  0  0  0  0  0
   10.7737   -2.1080   20.7035 H   0  0  0  0  0  0  0  0  0  0  0  0
   14.7648   -1.0679   21.9128 H   0  0  0  0  0  0  0  0  0  0  0  0
  1  2  1  0
  2  3  2  0
  3  4  1  0
  4  5  1  0
  4  6  2  0
  6  7  1  0
  7  8  1  0
  8  9  2  0
  9 10  1  0
 10 11  1  0
 11 12  1  0
 12 13  2  0
 13 14  1  0
 14 15  2  0
 15 16  1  0
 16 17  2  0
 17 18  1  0
 15 19  1  0
 14 20  1  0
 13 21  1  0
 11 22  1  0
 11 23  1  0
 10 24  1  0
 24 25  1  0
 25 26  1  0
 26 27  2  0
 27 28  1  0
 28 29  1  0
 29 30  2  0
 30 31  1  0
 27 32  1  0
 25 33  1  0
 25 34  1  0
 24 35  2  0
  7 36  2  0
 36 37  1  0
  6 38  1  0
  3 39  1  0
 36  2  1  0
 35  8  1  0
 17 12  1  0
 30 26  1  0
M  END
>  <cnnaffinity>  (1) 
-6.16696

>  <filename>  (1) 
Fc1cc(F)cc(-c2nc(Cc3cnoc3)n(Cc3cccnc3)n2)c1

$$$$
