
     RDKit          3D

 38 41  0  0  0  0  0  0  0  0999 V2000
    5.9901    5.5944   24.8002 F   0  0  0  0  0  0  0  0  0  0  0  0
    5.4409    4.3676   24.7795 C   0  0  0  0  0  0  0  0  0  0  0  0
    4.2288    4.1611   25.4260 C   0  0  0  0  0  0  0  0  0  0  0  0
    3.6650    2.8767   25.4080 C   0  0  0  0  0  0  0  0  0  0  0  0
    4.3096    1.8363   24.7423 C   0  0  0  0  0  0  0  0  0  0  0  0
    5.5202    2.0846   24.0780 C   0  0  0  0  0  0  0  0  0  0  0  0
    6.0222    1.0106   23.4090 O   0  0  0  0  0  0  0  0  0  0  0  0
    7.2944    1.1196   22.7766 C   0  0  0  0  0  0  0  0  0  0  0  0
    7.6522   -0.2133   22.2096 C   0  0  0  0  0  0  0  0  0  0  0  0
    8.3113   -1.1528   22.8504 N   0  0  0  0  0  0  0  0  0  0  0  0
    8.3703   -2.1537   21.9388 C   0  0  0  0  0  0  0  0  0  0  0  0
    9.0121   -3.4431   22.2603 C   0  0  0  0  0  0  0  0  0  0  0  0
    8.5521   -4.3018   23.4117 C   0  0  0  0  0  0  0  0  0  0  0  0
    8.2777   -4.7419   22.0024 C   0  0  0  0  0  0  0  0  0  0  0  0
    7.2737   -4.6230   21.5955 H   0  0  0  0  0  0  0  0  0  0  0  0
    8.7873   -5.6164   21.6034 H   0  0  0  0  0  0  0  0  0  0  0  0
    7.7439   -3.9561   24.0530 H   0  0  0  0  0  0  0  0  0  0  0  0
    9.3490   -4.8095   23.9522 H   0  0  0  0  0  0  0  0  0  0  0  0
   10.0895   -3.3393   22.1608 H   0  0  0  0  0  0  0  0  0  0  0  0
    7.8382   -1.8765   20.7647 N   0  0  0  0  0  0  0  0  0  0  0  0
    7.3414   -0.6297   20.9504 N   0  0  0  0  0  0  0  0  0  0  0  0
    6.6375    0.0310   19.9130 C   0  0  0  0  0  0  0  0  0  0  0  0
    5.4232    0.6795   20.1688 C   0  0  0  0  0  0  0  0  0  0  0  0
    4.7927    1.3182   19.0941 C   0  0  0  0  0  0  0  0  0  0  0  0
    5.4038    1.2887   17.8370 C   0  0  0  0  0  0  0  0  0  0  0  0
    6.5605    0.6462   17.5910 N   0  0  0  0  0  0  0  0  0  0  0  0
    7.1572    0.0251   18.6103 C   0  0  0  0  0  0  0  0  0  0  0  0
    8.0945   -0.4872   18.3998 H   0  0  0  0  0  0  0  0  0  0  0  0
    4.9573    1.8031   16.9890 H   0  0  0  0  0  0  0  0  0  0  0  0
    3.8555    1.8514   19.2265 H   0  0  0  0  0  0  0  0  0  0  0  0
    4.9986    0.6706   21.1718 H   0  0  0  0  0  0  0  0  0  0  0  0
    7.2590    1.8800   21.9839 H   0  0  0  0  0  0  0  0  0  0  0  0
    8.0610    1.3815   23.5181 H   0  0  0  0  0  0  0  0  0  0  0  0
    6.1136    3.3525   24.1047 C   0  0  0  0  0  0  0  0  0  0  0  0
    7.0592    3.5685   23.6247 H   0  0  0  0  0  0  0  0  0  0  0  0
    3.9360    0.8186   24.7081 H   0  0  0  0  0  0  0  0  0  0  0  0
    2.7186    2.6880   25.9125 H   0  0  0  0  0  0  0  0  0  0  0  0
    3.7618    5.0015   25.9227 H   0  0  0  0  0  0  0  0  0  0  0  0
  1  2  1  0
  2  3  2  0
  3  4  1  0
  4  5  2  0
  5  6  1  0
  6  7  1  0
  7  8  1  0
  8  9  1  0
  9 10  2  0
 10 11  1  0
 11 12  1  0
 12 13  1  0
 13 14  1  0
 14 15  1  0
 14 16  1  0
 13 17  1  0
 13 18  1  0
 12 19  1  0
 11 20  2  0
 20 21  1  0
 21 22  1  0
 22 23  2  0
 23 24  1  0
 24 25  2  0
 25 26  1  0
 26 27  2  0
 27 28  1  0
 25 29  1  0
 24 30  1  0
 23 31  1  0
  8 32  1  0
  8 33  1  0
  6 34  2  0
 34 35  1  0
  5 36  1  0
  4 37  1  0
  3 38  1  0
 34  2  1  0
 21  9  1  0
 27 22  1  0
 14 12  1  0
M  END
>  <cnnaffinity>  (1) 
-5.20903

>  <filename>  (1) 
Fc1cccc(OCc2nc(C3CC3)nn2-c2cccnc2)c1

$$$$
