
     RDKit          3D

 44 47  0  0  0  0  0  0  0  0999 V2000
    8.6192    1.6209   27.1144 F   0  0  0  0  0  0  0  0  0  0  0  0
    8.7579    1.7273   25.7889 C   0  0  0  0  0  0  0  0  0  0  0  0
    7.6045    1.6014   25.0271 C   0  0  0  0  0  0  0  0  0  0  0  0
    7.7149    1.7310   23.6454 C   0  0  0  0  0  0  0  0  0  0  0  0
    8.9423    1.9907   23.0176 C   0  0  0  0  0  0  0  0  0  0  0  0
    9.0648    2.0030   21.5114 C   0  0  0  0  0  0  0  0  0  0  0  0
    9.5233    0.6230   20.9570 C   0  0  0  0  0  0  0  0  0  0  0  0
    8.6456   -0.5003   21.3981 C   0  0  0  0  0  0  0  0  0  0  0  0
    8.8724   -1.3218   22.4068 N   0  0  0  0  0  0  0  0  0  0  0  0
    7.6721   -1.9335   22.5787 C   0  0  0  0  0  0  0  0  0  0  0  0
    7.4379   -2.9175   23.6841 C   0  0  0  0  0  0  0  0  0  0  0  0
    5.9940   -2.9509   24.2240 C   0  0  0  0  0  0  0  0  0  0  0  0
    6.1588   -3.4267   25.6692 C   0  0  0  0  0  0  0  0  0  0  0  0
    7.5149   -3.1943   26.0216 O   0  0  0  0  0  0  0  0  0  0  0  0
    8.2539   -2.6257   24.9555 C   0  0  0  0  0  0  0  0  0  0  0  0
    9.2486   -3.0863   24.9545 H   0  0  0  0  0  0  0  0  0  0  0  0
    8.3896   -1.5416   25.1104 H   0  0  0  0  0  0  0  0  0  0  0  0
    5.9432   -4.4986   25.7785 H   0  0  0  0  0  0  0  0  0  0  0  0
    5.4987   -2.8838   26.3622 H   0  0  0  0  0  0  0  0  0  0  0  0
    5.5868   -1.9376   24.2128 H   0  0  0  0  0  0  0  0  0  0  0  0
    5.3325   -3.5919   23.6377 H   0  0  0  0  0  0  0  0  0  0  0  0
    7.7268   -3.9009   23.3026 H   0  0  0  0  0  0  0  0  0  0  0  0
    6.7377   -1.5780   21.7167 N   0  0  0  0  0  0  0  0  0  0  0  0
    7.3708   -0.6641   20.9355 N   0  0  0  0  0  0  0  0  0  0  0  0
    6.6609    0.0057   19.9021 C   0  0  0  0  0  0  0  0  0  0  0  0
    5.4420    0.6408   20.1652 C   0  0  0  0  0  0  0  0  0  0  0  0
    4.8134    1.3090   19.1108 C   0  0  0  0  0  0  0  0  0  0  0  0
    5.3993    1.2962   17.8386 C   0  0  0  0  0  0  0  0  0  0  0  0
    6.5576    0.6711   17.5771 N   0  0  0  0  0  0  0  0  0  0  0  0
    7.1680    0.0500   18.5919 C   0  0  0  0  0  0  0  0  0  0  0  0
    8.1136   -0.4355   18.3656 H   0  0  0  0  0  0  0  0  0  0  0  0
    4.9214    1.7869   16.9939 H   0  0  0  0  0  0  0  0  0  0  0  0
    3.8819    1.8380   19.2617 H   0  0  0  0  0  0  0  0  0  0  0  0
    5.0151    0.6066   21.1725 H   0  0  0  0  0  0  0  0  0  0  0  0
    9.5549    0.6597   19.8658 H   0  0  0  0  0  0  0  0  0  0  0  0
   10.5334    0.3987   21.3059 H   0  0  0  0  0  0  0  0  0  0  0  0
    9.7764    2.7712   21.1912 H   0  0  0  0  0  0  0  0  0  0  0  0
    8.0936    2.2645   21.0707 H   0  0  0  0  0  0  0  0  0  0  0  0
   10.0663    2.0729   23.8466 C   0  0  0  0  0  0  0  0  0  0  0  0
   11.2726    2.2760   23.2808 F   0  0  0  0  0  0  0  0  0  0  0  0
   10.0126    1.9523   25.2325 C   0  0  0  0  0  0  0  0  0  0  0  0
   10.9156    2.0029   25.8261 H   0  0  0  0  0  0  0  0  0  0  0  0
    6.8324    1.5926   23.0295 H   0  0  0  0  0  0  0  0  0  0  0  0
    6.6692    1.4045   25.5388 H   0  0  0  0  0  0  0  0  0  0  0  0
  1  2  1  0
  2  3  2  0
  3  4  1  0
  4  5  2  0
  5  6  1  0
  6  7  1  0
  7  8  1  0
  8  9  2  0
  9 10  1  0
 10 11  1  0
 11 12  1  0
 12 13  1  0
 13 14  1  0
 14 15  1  0
 15 16  1  0
 15 17  1  0
 13 18  1  0
 13 19  1  0
 12 20  1  0
 12 21  1  0
 11 22  1  0
 10 23  2  0
 23 24  1  0
 24 25  1  0
 25 26  2  0
 26 27  1  0
 27 28  2  0
 28 29  1  0
 29 30  2  0
 30 31  1  0
 28 32  1  0
 27 33  1  0
 26 34  1  0
  7 35  1  0
  7 36  1  0
  6 37  1  0
  6 38  1  0
  5 39  1  0
 39 40  1  0
 39 41  2  0
 41 42  1  0
  4 43  1  0
  3 44  1  0
 41  2  1  0
 24  8  1  0
 30 25  1  0
 15 11  1  0
M  END
>  <cnnaffinity>  (1) 
-6.05288

>  <filename>  (1) 
Fc1ccc(CCc2nc(C3CCOC3)nn2-c2cccnc2)c(F)c1

$$$$
