
     RDKit          3D

 42 45  0  0  0  0  0  0  0  0999 V2000
   10.9463    0.1775   23.9944 F   0  0  0  0  0  0  0  0  0  0  0  0
   11.3097    1.4570   23.7960 C   0  0  0  0  0  0  0  0  0  0  0  0
   12.6711    1.7504   23.8208 C   0  0  0  0  0  0  0  0  0  0  0  0
   13.0921    3.0517   23.5376 C   0  0  0  0  0  0  0  0  0  0  0  0
   12.1619    4.0614   23.2820 C   0  0  0  0  0  0  0  0  0  0  0  0
   10.8022    3.7583   23.2669 C   0  0  0  0  0  0  0  0  0  0  0  0
   10.3554    2.4437   23.4945 C   0  0  0  0  0  0  0  0  0  0  0  0
    8.6530    2.0807   23.1231 S   0  0  0  0  0  0  0  0  0  0  0  0
    8.9014    1.9281   21.3115 C   0  0  0  0  0  0  0  0  0  0  0  0
    9.4780    0.5518   20.9313 C   0  0  0  0  0  0  0  0  0  0  0  0
    8.6037   -0.5769   21.3679 C   0  0  0  0  0  0  0  0  0  0  0  0
    8.8311   -1.4573   22.3209 N   0  0  0  0  0  0  0  0  0  0  0  0
    7.6174   -2.0346   22.4961 C   0  0  0  0  0  0  0  0  0  0  0  0
    7.4011   -3.0295   23.5844 C   0  0  0  0  0  0  0  0  0  0  0  0
    6.2641   -2.6745   24.5833 C   0  0  0  0  0  0  0  0  0  0  0  0
    5.3045   -4.1590   24.1201 S   0  0  0  0  0  0  0  0  0  0  0  0
    6.8083   -4.3796   23.1094 C   0  0  0  0  0  0  0  0  0  0  0  0
    7.4071   -5.2425   23.4150 H   0  0  0  0  0  0  0  0  0  0  0  0
    6.5969   -4.4223   22.0350 H   0  0  0  0  0  0  0  0  0  0  0  0
    5.7438   -1.7334   24.3711 H   0  0  0  0  0  0  0  0  0  0  0  0
    6.5909   -2.6892   25.6273 H   0  0  0  0  0  0  0  0  0  0  0  0
    8.3715   -3.1315   24.0781 H   0  0  0  0  0  0  0  0  0  0  0  0
    6.6717   -1.6111   21.6833 N   0  0  0  0  0  0  0  0  0  0  0  0
    7.3232   -0.6955   20.9228 N   0  0  0  0  0  0  0  0  0  0  0  0
    6.6478   -0.0216   19.8753 C   0  0  0  0  0  0  0  0  0  0  0  0
    5.4392    0.6211   20.1426 C   0  0  0  0  0  0  0  0  0  0  0  0
    4.8237    1.3101   19.0975 C   0  0  0  0  0  0  0  0  0  0  0  0
    5.4172    1.3144   17.8305 C   0  0  0  0  0  0  0  0  0  0  0  0
    6.5626    0.6689   17.5641 N   0  0  0  0  0  0  0  0  0  0  0  0
    7.1567    0.0129   18.5669 C   0  0  0  0  0  0  0  0  0  0  0  0
    8.0783   -0.5169   18.3270 H   0  0  0  0  0  0  0  0  0  0  0  0
    4.9545    1.8427   16.9988 H   0  0  0  0  0  0  0  0  0  0  0  0
    3.8913    1.8329   19.2553 H   0  0  0  0  0  0  0  0  0  0  0  0
    5.0212    0.5722   21.1483 H   0  0  0  0  0  0  0  0  0  0  0  0
    9.6068    0.5062   19.8472 H   0  0  0  0  0  0  0  0  0  0  0  0
   10.4488    0.4137   21.4099 H   0  0  0  0  0  0  0  0  0  0  0  0
    9.5992    2.7199   21.0132 H   0  0  0  0  0  0  0  0  0  0  0  0
    7.9403    2.1264   20.8234 H   0  0  0  0  0  0  0  0  0  0  0  0
   10.0601    4.5088   22.9934 H   0  0  0  0  0  0  0  0  0  0  0  0
   12.4771    5.0769   23.0672 H   0  0  0  0  0  0  0  0  0  0  0  0
   14.1468    3.2768   23.4852 H   0  0  0  0  0  0  0  0  0  0  0  0
   13.3658    0.9467   24.0327 H   0  0  0  0  0  0  0  0  0  0  0  0
  1  2  1  0
  2  3  2  0
  3  4  1  0
  4  5  2  0
  5  6  1  0
  6  7  2  0
  7  8  1  0
  8  9  1  0
  9 10  1  0
 10 11  1  0
 11 12  2  0
 12 13  1  0
 13 14  1  0
 14 15  1  0
 15 16  1  0
 16 17  1  0
 17 18  1  0
 17 19  1  0
 15 20  1  0
 15 21  1  0
 14 22  1  0
 13 23  2  0
 23 24  1  0
 24 25  1  0
 25 26  2  0
 26 27  1  0
 27 28  2  0
 28 29  1  0
 29 30  2  0
 30 31  1  0
 28 32  1  0
 27 33  1  0
 26 34  1  0
 10 35  1  0
 10 36  1  0
  9 37  1  0
  9 38  1  0
  6 39  1  0
  5 40  1  0
  4 41  1  0
  3 42  1  0
  7  2  1  0
 24 11  1  0
 30 25  1  0
 17 14  1  0
M  END
>  <cnnaffinity>  (1) 
-6.36244

>  <filename>  (1) 
Fc1ccccc1SCCc1nc(C2CSC2)nn1-c1cccnc1

$$$$
