
     RDKit          3D

 37 39  0  0  0  0  0  0  0  0999 V2000
    5.4297   -7.5162   27.0397 F   0  0  0  0  0  0  0  0  0  0  0  0
    5.3242   -6.8962   25.8505 C   0  0  0  0  0  0  0  0  0  0  0  0
    4.2328   -7.1920   25.0350 C   0  0  0  0  0  0  0  0  0  0  0  0
    4.1485   -6.5660   23.7870 C   0  0  0  0  0  0  0  0  0  0  0  0
    5.1187   -5.6317   23.3969 C   0  0  0  0  0  0  0  0  0  0  0  0
    6.2140   -5.3397   24.2277 C   0  0  0  0  0  0  0  0  0  0  0  0
    7.2599   -4.3167   23.8230 C   0  0  0  0  0  0  0  0  0  0  0  0
    7.0591   -2.9984   24.5897 C   0  0  0  0  0  0  0  0  0  0  0  0
    8.0736   -1.8880   24.2913 C   0  0  0  0  0  0  0  0  0  0  0  0
    8.0549   -1.4658   22.8957 N   0  0  0  0  0  0  0  0  0  0  0  0
    8.9079   -1.8008   21.8891 C   0  0  0  0  0  0  0  0  0  0  0  0
    8.5183   -1.3418   20.7283 N   0  0  0  0  0  0  0  0  0  0  0  0
    7.3452   -0.6707   20.9741 C   0  0  0  0  0  0  0  0  0  0  0  0
    6.6238    0.0065   19.8949 C   0  0  0  0  0  0  0  0  0  0  0  0
    5.4046    0.6726   20.0965 C   0  0  0  0  0  0  0  0  0  0  0  0
    4.8181    1.3180   19.0101 C   0  0  0  0  0  0  0  0  0  0  0  0
    5.4621    1.2856   17.7678 C   0  0  0  0  0  0  0  0  0  0  0  0
    6.6198    0.6406   17.5558 N   0  0  0  0  0  0  0  0  0  0  0  0
    7.1761    0.0201   18.6012 C   0  0  0  0  0  0  0  0  0  0  0  0
    8.1116   -0.5015   18.4190 H   0  0  0  0  0  0  0  0  0  0  0  0
    5.0306    1.7981   16.9084 H   0  0  0  0  0  0  0  0  0  0  0  0
    3.8847    1.8570   19.1125 H   0  0  0  0  0  0  0  0  0  0  0  0
    4.9330    0.6912   21.0806 H   0  0  0  0  0  0  0  0  0  0  0  0
    7.0425   -0.7415   22.3062 C   0  0  0  0  0  0  0  0  0  0  0  0
    6.2147   -0.3682   22.8936 H   0  0  0  0  0  0  0  0  0  0  0  0
    9.7989   -2.3916   22.0666 H   0  0  0  0  0  0  0  0  0  0  0  0
    7.8265   -1.0092   24.9006 H   0  0  0  0  0  0  0  0  0  0  0  0
    9.0973   -2.1846   24.5503 H   0  0  0  0  0  0  0  0  0  0  0  0
    7.0663   -3.1933   25.6699 H   0  0  0  0  0  0  0  0  0  0  0  0
    6.0600   -2.6076   24.3528 H   0  0  0  0  0  0  0  0  0  0  0  0
    7.2098   -4.1347   22.7385 H   0  0  0  0  0  0  0  0  0  0  0  0
    8.2644   -4.7168   24.0325 H   0  0  0  0  0  0  0  0  0  0  0  0
    6.3038   -5.9780   25.4772 C   0  0  0  0  0  0  0  0  0  0  0  0
    7.1258   -5.7713   26.1577 H   0  0  0  0  0  0  0  0  0  0  0  0
    5.0059   -5.1158   22.4477 H   0  0  0  0  0  0  0  0  0  0  0  0
    3.3189   -6.7969   23.1194 H   0  0  0  0  0  0  0  0  0  0  0  0
    3.4852   -7.8879   25.4043 H   0  0  0  0  0  0  0  0  0  0  0  0
  1  2  1  0
  2  3  2  0
  3  4  1  0
  4  5  2  0
  5  6  1  0
  6  7  1  0
  7  8  1  0
  8  9  1  0
  9 10  1  0
 10 11  1  0
 11 12  2  0
 12 13  1  0
 13 14  1  0
 14 15  2  0
 15 16  1  0
 16 17  2  0
 17 18  1  0
 18 19  2  0
 19 20  1  0
 17 21  1  0
 16 22  1  0
 15 23  1  0
 13 24  2  0
 24 25  1  0
 11 26  1  0
  9 27  1  0
  9 28  1  0
  8 29  1  0
  8 30  1  0
  7 31  1  0
  7 32  1  0
  6 33  2  0
 33 34  1  0
  5 35  1  0
  4 36  1  0
  3 37  1  0
 33  2  1  0
 24 10  1  0
 19 14  1  0
M  END
>  <cnnaffinity>  (1) 
-5.58384

>  <filename>  (1) 
Fc1cccc(CCCn2cnc(-c3cccnc3)c2)c1

$$$$
