
     RDKit          3D

 39 42  0  0  0  0  0  0  0  0999 V2000
   14.1458   -1.9870   21.3490 F   0  0  0  0  0  0  0  0  0  0  0  0
   13.3204   -1.1084   21.9303 C   0  0  0  0  0  0  0  0  0  0  0  0
   13.8381   -0.1744   22.8342 C   0  0  0  0  0  0  0  0  0  0  0  0
   13.0741    0.7301   23.4548 N   0  0  0  0  0  0  0  0  0  0  0  0
   11.7673    0.7238   23.1835 C   0  0  0  0  0  0  0  0  0  0  0  0
   11.1627   -0.1834   22.2990 C   0  0  0  0  0  0  0  0  0  0  0  0
    9.7149   -0.0426   22.1380 C   0  0  0  0  0  0  0  0  0  0  0  0
    8.9156   -0.9099   21.5477 N   0  0  0  0  0  0  0  0  0  0  0  0
    7.6863   -0.3604   21.7247 N   0  0  0  0  0  0  0  0  0  0  0  0
    6.5155   -0.8966   21.0394 C   0  0  0  0  0  0  0  0  0  0  0  0
    6.1030   -0.0588   19.8449 C   0  0  0  0  0  0  0  0  0  0  0  0
    4.8865    0.6252   19.7478 C   0  0  0  0  0  0  0  0  0  0  0  0
    4.6601    1.4348   18.6303 C   0  0  0  0  0  0  0  0  0  0  0  0
    5.6416    1.5024   17.6395 C   0  0  0  0  0  0  0  0  0  0  0  0
    6.7928    0.8157   17.6907 N   0  0  0  0  0  0  0  0  0  0  0  0
    7.0084    0.0693   18.7780 C   0  0  0  0  0  0  0  0  0  0  0  0
    7.9564   -0.4674   18.8131 H   0  0  0  0  0  0  0  0  0  0  0  0
    5.4925    2.1127   16.7508 H   0  0  0  0  0  0  0  0  0  0  0  0
    3.7563    2.0241   18.5221 H   0  0  0  0  0  0  0  0  0  0  0  0
    4.1220    0.5289   20.5223 H   0  0  0  0  0  0  0  0  0  0  0  0
    6.7860   -1.9122   20.7362 H   0  0  0  0  0  0  0  0  0  0  0  0
    5.7036   -0.9801   21.7664 H   0  0  0  0  0  0  0  0  0  0  0  0
    7.8039    0.7982   22.4077 C   0  0  0  0  0  0  0  0  0  0  0  0
    6.6724    1.5696   23.0275 C   0  0  0  0  0  0  0  0  0  0  0  0
    6.3891    1.1507   24.4633 C   0  0  0  0  0  0  0  0  0  0  0  0
    5.2791    0.8439   25.2118 C   0  0  0  0  0  0  0  0  0  0  0  0
    5.6307    0.5419   26.5071 N   0  0  0  0  0  0  0  0  0  0  0  0
    6.9346    0.6608   26.5539 C   0  0  0  0  0  0  0  0  0  0  0  0
    7.4356    1.0399   25.3512 N   0  0  0  0  0  0  0  0  0  0  0  0
    8.4063    1.1476   25.0978 H   0  0  0  0  0  0  0  0  0  0  0  0
    7.5728    0.4831   27.4124 H   0  0  0  0  0  0  0  0  0  0  0  0
    4.2354    0.8256   24.9243 H   0  0  0  0  0  0  0  0  0  0  0  0
    5.7770    1.5033   22.4023 H   0  0  0  0  0  0  0  0  0  0  0  0
    6.9978    2.6160   23.0280 H   0  0  0  0  0  0  0  0  0  0  0  0
    9.0759    1.0380   22.6639 N   0  0  0  0  0  0  0  0  0  0  0  0
   11.9638   -1.1341   21.6374 C   0  0  0  0  0  0  0  0  0  0  0  0
   11.5709   -1.8492   20.9187 H   0  0  0  0  0  0  0  0  0  0  0  0
   11.1680    1.4736   23.6818 H   0  0  0  0  0  0  0  0  0  0  0  0
   14.8981   -0.1826   23.0591 H   0  0  0  0  0  0  0  0  0  0  0  0
  1  2  1  0
  2  3  2  0
  3  4  1  0
  4  5  2  0
  5  6  1  0
  6  7  1  0
  7  8  2  0
  8  9  1  0
  9 10  1  0
 10 11  1  0
 11 12  2  0
 12 13  1  0
 13 14  2  0
 14 15  1  0
 15 16  2  0
 16 17  1  0
 14 18  1  0
 13 19  1  0
 12 20  1  0
 10 21  1  0
 10 22  1  0
  9 23  1  0
 23 24  1  0
 24 25  1  0
 25 26  2  0
 26 27  1  0
 27 28  2  0
 28 29  1  0
 29 30  1  0
 28 31  1  0
 26 32  1  0
 24 33  1  0
 24 34  1  0
 23 35  2  0
  6 36  2  0
 36 37  1  0
  5 38  1  0
  3 39  1  0
 36  2  1  0
 35  7  1  0
 16 11  1  0
 29 25  1  0
M  END
>  <cnnaffinity>  (1) 
-6.19802

>  <filename>  (1) 
Fc1cncc(-c2nc(Cc3cnc[nH]3)n(Cc3cccnc3)n2)c1

$$$$
