
     RDKit          3D

 42 45  0  0  0  0  0  0  0  0999 V2000
    2.9421    1.8721   25.3267 F   0  0  0  0  0  0  0  0  0  0  0  0
    4.2198    2.2554   25.4736 C   0  0  0  0  0  0  0  0  0  0  0  0
    4.4987    3.3281   26.3138 C   0  0  0  0  0  0  0  0  0  0  0  0
    5.8365    3.6894   26.4458 C   0  0  0  0  0  0  0  0  0  0  0  0
    6.1405    4.7134   27.2584 F   0  0  0  0  0  0  0  0  0  0  0  0
    6.8650    3.0261   25.7819 C   0  0  0  0  0  0  0  0  0  0  0  0
    6.5536    1.9382   24.9497 C   0  0  0  0  0  0  0  0  0  0  0  0
    7.6262    1.1705   24.2132 C   0  0  0  0  0  0  0  0  0  0  0  0
    7.8392    1.6397   22.7465 C   0  0  0  0  0  0  0  0  0  0  0  0
    8.7587    0.7292   22.0025 C   0  0  0  0  0  0  0  0  0  0  0  0
   10.0605    0.7890   22.1322 N   0  0  0  0  0  0  0  0  0  0  0  0
   10.5003   -0.3807   21.5868 C   0  0  0  0  0  0  0  0  0  0  0  0
   11.9554   -0.6492   21.6889 C   0  0  0  0  0  0  0  0  0  0  0  0
   12.6774   -1.5870   21.1362 N   0  0  0  0  0  0  0  0  0  0  0  0
   14.0070   -1.4190   21.4362 C   0  0  0  0  0  0  0  0  0  0  0  0
   14.2928   -0.3529   22.2355 C   0  0  0  0  0  0  0  0  0  0  0  0
   12.8812    0.5064   22.6166 S   0  0  0  0  0  0  0  0  0  0  0  0
   15.2482   -0.0050   22.5918 H   0  0  0  0  0  0  0  0  0  0  0  0
   14.7305   -2.0964   21.0098 H   0  0  0  0  0  0  0  0  0  0  0  0
    9.5329   -1.1361   21.0893 N   0  0  0  0  0  0  0  0  0  0  0  0
    8.4222   -0.4097   21.3523 N   0  0  0  0  0  0  0  0  0  0  0  0
    7.0894   -0.8552   20.9641 C   0  0  0  0  0  0  0  0  0  0  0  0
    6.4547   -0.0118   19.8720 C   0  0  0  0  0  0  0  0  0  0  0  0
    5.2602    0.6983   20.0420 C   0  0  0  0  0  0  0  0  0  0  0  0
    4.7269    1.3984   18.9553 C   0  0  0  0  0  0  0  0  0  0  0  0
    5.4219    1.3816   17.7429 C   0  0  0  0  0  0  0  0  0  0  0  0
    6.5840    0.7341   17.5661 N   0  0  0  0  0  0  0  0  0  0  0  0
    7.0836    0.0732   18.6171 C   0  0  0  0  0  0  0  0  0  0  0  0
    8.0413   -0.4207   18.4589 H   0  0  0  0  0  0  0  0  0  0  0  0
    5.0309    1.9129   16.8768 H   0  0  0  0  0  0  0  0  0  0  0  0
    3.8036    1.9619   19.0358 H   0  0  0  0  0  0  0  0  0  0  0  0
    4.7598    0.7257   21.0134 H   0  0  0  0  0  0  0  0  0  0  0  0
    7.1983   -1.8965   20.6478 H   0  0  0  0  0  0  0  0  0  0  0  0
    6.4603   -0.8587   21.8633 H   0  0  0  0  0  0  0  0  0  0  0  0
    6.8887    1.7500   22.2146 H   0  0  0  0  0  0  0  0  0  0  0  0
    8.3262    2.6178   22.7485 H   0  0  0  0  0  0  0  0  0  0  0  0
    7.3624    0.1025   24.2173 H   0  0  0  0  0  0  0  0  0  0  0  0
    8.5800    1.2424   24.7509 H   0  0  0  0  0  0  0  0  0  0  0  0
    5.2111    1.5626   24.7909 C   0  0  0  0  0  0  0  0  0  0  0  0
    4.9265    0.7268   24.1590 H   0  0  0  0  0  0  0  0  0  0  0  0
    7.8849    3.3657   25.9354 H   0  0  0  0  0  0  0  0  0  0  0  0
    3.7141    3.8490   26.8457 H   0  0  0  0  0  0  0  0  0  0  0  0
  1  2  1  0
  2  3  2  0
  3  4  1  0
  4  5  1  0
  4  6  2  0
  6  7  1  0
  7  8  1  0
  8  9  1  0
  9 10  1  0
 10 11  2  0
 11 12  1  0
 12 13  1  0
 13 14  2  0
 14 15  1  0
 15 16  2  0
 16 17  1  0
 16 18  1  0
 15 19  1  0
 12 20  2  0
 20 21  1  0
 21 22  1  0
 22 23  1  0
 23 24  2  0
 24 25  1  0
 25 26  2  0
 26 27  1  0
 27 28  2  0
 28 29  1  0
 26 30  1  0
 25 31  1  0
 24 32  1  0
 22 33  1  0
 22 34  1  0
  9 35  1  0
  9 36  1  0
  8 37  1  0
  8 38  1  0
  7 39  2  0
 39 40  1  0
  6 41  1  0
  3 42  1  0
 39  2  1  0
 21 10  1  0
 28 23  1  0
 17 13  1  0
M  END
>  <cnnaffinity>  (1) 
-6.57901

>  <filename>  (1) 
Fc1cc(F)cc(CCc2nc(-c3nccs3)nn2Cc2cccnc2)c1

$$$$
