
     RDKit          3D

 42 45  0  0  0  0  0  0  0  0999 V2000
   11.0449    1.7488   25.7671 F   0  0  0  0  0  0  0  0  0  0  0  0
    9.9455    1.8980   25.0257 C   0  0  0  0  0  0  0  0  0  0  0  0
    8.6785    1.8382   25.6172 C   0  0  0  0  0  0  0  0  0  0  0  0
    7.5522    1.8800   24.8917 N   0  0  0  0  0  0  0  0  0  0  0  0
    7.6755    1.9657   23.5558 C   0  0  0  0  0  0  0  0  0  0  0  0
    8.9047    2.0833   22.8804 C   0  0  0  0  0  0  0  0  0  0  0  0
    9.0201    2.0228   21.3722 C   0  0  0  0  0  0  0  0  0  0  0  0
    9.5201    0.6223   20.9227 C   0  0  0  0  0  0  0  0  0  0  0  0
    8.6373   -0.4888   21.3960 C   0  0  0  0  0  0  0  0  0  0  0  0
    8.8594   -1.3098   22.4056 N   0  0  0  0  0  0  0  0  0  0  0  0
    7.6579   -1.9259   22.5723 C   0  0  0  0  0  0  0  0  0  0  0  0
    7.4022   -2.8457   23.7176 C   0  0  0  0  0  0  0  0  0  0  0  0
    6.3936   -2.3105   24.7935 C   0  0  0  0  0  0  0  0  0  0  0  0
    5.4344   -3.4768   24.4685 C   0  0  0  0  0  0  0  0  0  0  0  0
    6.4512   -4.0531   23.4561 C   0  0  0  0  0  0  0  0  0  0  0  0
    6.8799   -5.0193   23.7402 H   0  0  0  0  0  0  0  0  0  0  0  0
    6.0865   -4.1181   22.4253 H   0  0  0  0  0  0  0  0  0  0  0  0
    5.1915   -4.1267   25.3148 H   0  0  0  0  0  0  0  0  0  0  0  0
    4.4957   -3.1547   24.0072 H   0  0  0  0  0  0  0  0  0  0  0  0
    5.9932   -1.3130   24.5728 H   0  0  0  0  0  0  0  0  0  0  0  0
    6.7907   -2.3051   25.8129 H   0  0  0  0  0  0  0  0  0  0  0  0
    8.3811   -3.1146   24.1284 H   0  0  0  0  0  0  0  0  0  0  0  0
    6.7232   -1.5664   21.7089 N   0  0  0  0  0  0  0  0  0  0  0  0
    7.3630   -0.6516   20.9373 N   0  0  0  0  0  0  0  0  0  0  0  0
    6.6661    0.0068   19.8888 C   0  0  0  0  0  0  0  0  0  0  0  0
    5.4464    0.6363   20.1492 C   0  0  0  0  0  0  0  0  0  0  0  0
    4.8159    1.3101   19.1019 C   0  0  0  0  0  0  0  0  0  0  0  0
    5.4081    1.3040   17.8327 C   0  0  0  0  0  0  0  0  0  0  0  0
    6.5613    0.6701   17.5663 N   0  0  0  0  0  0  0  0  0  0  0  0
    7.1706    0.0402   18.5769 C   0  0  0  0  0  0  0  0  0  0  0  0
    8.1038   -0.4711   18.3395 H   0  0  0  0  0  0  0  0  0  0  0  0
    4.9362    1.8148   16.9974 H   0  0  0  0  0  0  0  0  0  0  0  0
    3.8809    1.8370   19.2586 H   0  0  0  0  0  0  0  0  0  0  0  0
    5.0161    0.5810   21.1510 H   0  0  0  0  0  0  0  0  0  0  0  0
   10.5133    0.4449   21.3456 H   0  0  0  0  0  0  0  0  0  0  0  0
    9.6032    0.5746   19.8344 H   0  0  0  0  0  0  0  0  0  0  0  0
    9.7413    2.7727   21.0353 H   0  0  0  0  0  0  0  0  0  0  0  0
    8.0660    2.2614   20.8835 H   0  0  0  0  0  0  0  0  0  0  0  0
   10.0776    2.0642   23.6559 C   0  0  0  0  0  0  0  0  0  0  0  0
   11.0636    2.1810   23.2028 H   0  0  0  0  0  0  0  0  0  0  0  0
    6.7459    1.9658   22.9877 H   0  0  0  0  0  0  0  0  0  0  0  0
    8.6001    1.7610   26.6993 H   0  0  0  0  0  0  0  0  0  0  0  0
  1  2  1  0
  2  3  2  0
  3  4  1  0
  4  5  2  0
  5  6  1  0
  6  7  1  0
  7  8  1  0
  8  9  1  0
  9 10  2  0
 10 11  1  0
 11 12  1  0
 12 13  1  0
 13 14  1  0
 14 15  1  0
 15 16  1  0
 15 17  1  0
 14 18  1  0
 14 19  1  0
 13 20  1  0
 13 21  1  0
 12 22  1  0
 11 23  2  0
 23 24  1  0
 24 25  1  0
 25 26  2  0
 26 27  1  0
 27 28  2  0
 28 29  1  0
 29 30  2  0
 30 31  1  0
 28 32  1  0
 27 33  1  0
 26 34  1  0
  8 35  1  0
  8 36  1  0
  7 37  1  0
  7 38  1  0
  6 39  2  0
 39 40  1  0
  5 41  1  0
  3 42  1  0
 39  2  1  0
 24  9  1  0
 30 25  1  0
 15 12  1  0
M  END
>  <cnnaffinity>  (1) 
-6.1657

>  <filename>  (1) 
Fc1cncc(CCc2nc(C3CCC3)nn2-c2cccnc2)c1

$$$$
