
     RDKit          3D

 42 45  0  0  0  0  0  0  0  0999 V2000
    6.0818    3.5975   28.9174 F   0  0  0  0  0  0  0  0  0  0  0  0
    6.4342    3.0857   27.7282 C   0  0  0  0  0  0  0  0  0  0  0  0
    7.5919    3.5532   27.1137 C   0  0  0  0  0  0  0  0  0  0  0  0
    7.9474    3.0294   25.8734 C   0  0  0  0  0  0  0  0  0  0  0  0
    7.1494    2.0509   25.2428 C   0  0  0  0  0  0  0  0  0  0  0  0
    7.5677    1.5239   23.9259 C   0  0  0  0  0  0  0  0  0  0  0  0
    6.9354    0.5650   23.2664 N   0  0  0  0  0  0  0  0  0  0  0  0
    7.7090    0.3678   22.1750 N   0  0  0  0  0  0  0  0  0  0  0  0
    7.2986   -0.5729   21.1326 C   0  0  0  0  0  0  0  0  0  0  0  0
    6.6355    0.0868   19.9371 C   0  0  0  0  0  0  0  0  0  0  0  0
    5.4236    0.7658   20.1128 C   0  0  0  0  0  0  0  0  0  0  0  0
    4.8298    1.3755   19.0068 C   0  0  0  0  0  0  0  0  0  0  0  0
    5.4642    1.2892   17.7649 C   0  0  0  0  0  0  0  0  0  0  0  0
    6.6206    0.6371   17.5729 N   0  0  0  0  0  0  0  0  0  0  0  0
    7.1817    0.0591   18.6438 C   0  0  0  0  0  0  0  0  0  0  0  0
    8.1211   -0.4605   18.4463 H   0  0  0  0  0  0  0  0  0  0  0  0
    5.0230    1.7596   16.8872 H   0  0  0  0  0  0  0  0  0  0  0  0
    3.8979    1.9216   19.0937 H   0  0  0  0  0  0  0  0  0  0  0  0
    4.9664    0.8166   21.1026 H   0  0  0  0  0  0  0  0  0  0  0  0
    6.6084   -1.2667   21.6231 H   0  0  0  0  0  0  0  0  0  0  0  0
    8.1658   -1.1615   20.8144 H   0  0  0  0  0  0  0  0  0  0  0  0
    8.7590    1.2185   22.2181 C   0  0  0  0  0  0  0  0  0  0  0  0
    9.8967    1.2311   21.2422 C   0  0  0  0  0  0  0  0  0  0  0  0
   11.0358    0.2844   21.6005 C   0  0  0  0  0  0  0  0  0  0  0  0
   12.0826    0.7246   22.4189 C   0  0  0  0  0  0  0  0  0  0  0  0
   13.1037   -0.1644   22.7571 C   0  0  0  0  0  0  0  0  0  0  0  0
   13.0913   -1.4448   22.2003 C   0  0  0  0  0  0  0  0  0  0  0  0
   12.0828   -1.8978   21.4489 N   0  0  0  0  0  0  0  0  0  0  0  0
   11.0815   -1.0526   21.1758 C   0  0  0  0  0  0  0  0  0  0  0  0
   10.2775   -1.4558   20.5620 H   0  0  0  0  0  0  0  0  0  0  0  0
   13.9304   -2.1219   22.3745 H   0  0  0  0  0  0  0  0  0  0  0  0
   13.9024    0.1286   23.4285 H   0  0  0  0  0  0  0  0  0  0  0  0
   12.1088    1.7683   22.7391 H   0  0  0  0  0  0  0  0  0  0  0  0
   10.2647    2.2621   21.2187 H   0  0  0  0  0  0  0  0  0  0  0  0
    9.5217    1.0148   20.2388 H   0  0  0  0  0  0  0  0  0  0  0  0
    8.6900    1.9702   23.2944 N   0  0  0  0  0  0  0  0  0  0  0  0
    5.9948    1.5818   25.9062 C   0  0  0  0  0  0  0  0  0  0  0  0
    5.6339    2.1025   27.1500 C   0  0  0  0  0  0  0  0  0  0  0  0
    4.7555    1.7605   27.6867 H   0  0  0  0  0  0  0  0  0  0  0  0
    5.3926    0.7948   25.4532 H   0  0  0  0  0  0  0  0  0  0  0  0
    8.8590    3.3596   25.3796 H   0  0  0  0  0  0  0  0  0  0  0  0
    8.1901    4.3060   27.6134 H   0  0  0  0  0  0  0  0  0  0  0  0
  1  2  1  0
  2  3  2  0
  3  4  1  0
  4  5  2  0
  5  6  1  0
  6  7  2  0
  7  8  1  0
  8  9  1  0
  9 10  1  0
 10 11  2  0
 11 12  1  0
 12 13  2  0
 13 14  1  0
 14 15  2  0
 15 16  1  0
 13 17  1  0
 12 18  1  0
 11 19  1  0
  9 20  1  0
  9 21  1  0
  8 22  1  0
 22 23  1  0
 23 24  1  0
 24 25  2  0
 25 26  1  0
 26 27  2  0
 27 28  1  0
 28 29  2  0
 29 30  1  0
 27 31  1  0
 26 32  1  0
 25 33  1  0
 23 34  1  0
 23 35  1  0
 22 36  2  0
  5 37  1  0
 37 38  2  0
 38 39  1  0
 37 40  1  0
  4 41  1  0
  3 42  1  0
 38  2  1  0
 36  6  1  0
 15 10  1  0
 29 24  1  0
M  END
>  <cnnaffinity>  (1) 
-6.28042

>  <filename>  (1) 
Fc1ccc(-c2nc(Cc3cccnc3)n(Cc3cccnc3)n2)cc1

$$$$
