
     RDKit          3D

 38 41  0  0  0  0  0  0  0  0999 V2000
    7.1232    1.1425   25.7720 F   0  0  0  0  0  0  0  0  0  0  0  0
    8.2211    1.4970   25.0891 C   0  0  0  0  0  0  0  0  0  0  0  0
    9.4257    1.6912   25.6599 C   0  0  0  0  0  0  0  0  0  0  0  0
   10.5556    2.3042   24.5141 S   0  0  0  0  0  0  0  0  0  0  0  0
    9.3760    2.2280   23.2664 C   0  0  0  0  0  0  0  0  0  0  0  0
    8.1845    1.7101   23.6748 C   0  0  0  0  0  0  0  0  0  0  0  0
    7.0753    1.2133   22.7742 C   0  0  0  0  0  0  0  0  0  0  0  0
    7.3682   -0.1562   22.2162 C   0  0  0  0  0  0  0  0  0  0  0  0
    7.8660   -1.1570   22.9191 N   0  0  0  0  0  0  0  0  0  0  0  0
    8.0580   -2.1288   21.9946 C   0  0  0  0  0  0  0  0  0  0  0  0
    8.5916   -3.5024   22.3073 C   0  0  0  0  0  0  0  0  0  0  0  0
    7.6202   -4.3998   23.1287 C   0  0  0  0  0  0  0  0  0  0  0  0
    8.5922   -5.2541   23.9560 C   0  0  0  0  0  0  0  0  0  0  0  0
    9.7111   -4.2453   24.2277 C   0  0  0  0  0  0  0  0  0  0  0  0
    9.8173   -3.4749   23.0376 O   0  0  0  0  0  0  0  0  0  0  0  0
    9.4665   -3.5887   25.0796 H   0  0  0  0  0  0  0  0  0  0  0  0
   10.6977   -4.6777   24.4176 H   0  0  0  0  0  0  0  0  0  0  0  0
    8.9694   -6.0987   23.3611 H   0  0  0  0  0  0  0  0  0  0  0  0
    8.1508   -5.6642   24.8731 H   0  0  0  0  0  0  0  0  0  0  0  0
    6.9381   -4.9758   22.4887 H   0  0  0  0  0  0  0  0  0  0  0  0
    7.0024   -3.7649   23.7813 H   0  0  0  0  0  0  0  0  0  0  0  0
    8.7818   -3.9345   21.3195 H   0  0  0  0  0  0  0  0  0  0  0  0
    7.6671   -1.8135   20.7741 N   0  0  0  0  0  0  0  0  0  0  0  0
    7.1913   -0.5537   20.9171 N   0  0  0  0  0  0  0  0  0  0  0  0
    6.5472    0.0903   19.8308 C   0  0  0  0  0  0  0  0  0  0  0  0
    5.3424    0.7754   20.0035 C   0  0  0  0  0  0  0  0  0  0  0  0
    4.7782    1.4045   18.8904 C   0  0  0  0  0  0  0  0  0  0  0  0
    5.4378    1.3182   17.6583 C   0  0  0  0  0  0  0  0  0  0  0  0
    6.5794    0.6283   17.4821 N   0  0  0  0  0  0  0  0  0  0  0  0
    7.1042    0.0079   18.5424 C   0  0  0  0  0  0  0  0  0  0  0  0
    7.9973   -0.5894   18.3805 H   0  0  0  0  0  0  0  0  0  0  0  0
    5.0394    1.8127   16.7761 H   0  0  0  0  0  0  0  0  0  0  0  0
    3.8482    1.9573   18.9714 H   0  0  0  0  0  0  0  0  0  0  0  0
    4.8486    0.7880   20.9769 H   0  0  0  0  0  0  0  0  0  0  0  0
    6.1534    1.1453   23.3637 H   0  0  0  0  0  0  0  0  0  0  0  0
    6.9151    1.9292   21.9608 H   0  0  0  0  0  0  0  0  0  0  0  0
    9.6274    2.5811   22.2776 H   0  0  0  0  0  0  0  0  0  0  0  0
    9.7061    1.4196   26.6618 H   0  0  0  0  0  0  0  0  0  0  0  0
  1  2  1  0
  2  3  2  0
  3  4  1  0
  4  5  1  0
  5  6  2  0
  6  7  1  0
  7  8  1  0
  8  9  2  0
  9 10  1  0
 10 11  1  0
 11 12  1  0
 12 13  1  0
 13 14  1  0
 14 15  1  0
 14 16  1  0
 14 17  1  0
 13 18  1  0
 13 19  1  0
 12 20  1  0
 12 21  1  0
 11 22  1  0
 10 23  2  0
 23 24  1  0
 24 25  1  0
 25 26  2  0
 26 27  1  0
 27 28  2  0
 28 29  1  0
 29 30  2  0
 30 31  1  0
 28 32  1  0
 27 33  1  0
 26 34  1  0
  7 35  1  0
  7 36  1  0
  5 37  1  0
  3 38  1  0
  6  2  1  0
 24  8  1  0
 30 25  1  0
 15 11  1  0
M  END
>  <cnnaffinity>  (1) 
-6.19696

>  <filename>  (1) 
Fc1cscc1Cc1nc(C2CCCO2)nn1-c1cccnc1

$$$$
