
     RDKit          3D

 42 45  0  0  0  0  0  0  0  0999 V2000
    7.2167    6.1403   26.0616 F   0  0  0  0  0  0  0  0  0  0  0  0
    7.6376    5.1499   25.2608 C   0  0  0  0  0  0  0  0  0  0  0  0
    7.6939    5.3250   23.8892 C   0  0  0  0  0  0  0  0  0  0  0  0
    8.1360    4.2830   23.0573 C   0  0  0  0  0  0  0  0  0  0  0  0
    8.5242    3.0556   23.6104 C   0  0  0  0  0  0  0  0  0  0  0  0
    8.9734    1.9867   22.9020 O   0  0  0  0  0  0  0  0  0  0  0  0
    9.0396    2.0169   21.4781 C   0  0  0  0  0  0  0  0  0  0  0  0
    9.5121    0.6389   21.0041 C   0  0  0  0  0  0  0  0  0  0  0  0
    8.6266   -0.4656   21.4547 C   0  0  0  0  0  0  0  0  0  0  0  0
    8.8619   -1.3110   22.4400 N   0  0  0  0  0  0  0  0  0  0  0  0
    7.6819   -1.9644   22.5644 C   0  0  0  0  0  0  0  0  0  0  0  0
    7.4249   -2.9606   23.6474 C   0  0  0  0  0  0  0  0  0  0  0  0
    6.8091   -4.2987   23.1572 C   0  0  0  0  0  0  0  0  0  0  0  0
    5.3076   -4.0493   24.1640 S   0  0  0  0  0  0  0  0  0  0  0  0
    6.2731   -2.5687   24.6221 C   0  0  0  0  0  0  0  0  0  0  0  0
    5.7682   -1.6310   24.3708 H   0  0  0  0  0  0  0  0  0  0  0  0
    6.5533   -2.5454   25.6799 H   0  0  0  0  0  0  0  0  0  0  0  0
    7.3732   -5.1911   23.4447 H   0  0  0  0  0  0  0  0  0  0  0  0
    6.5963   -4.3280   22.0835 H   0  0  0  0  0  0  0  0  0  0  0  0
    8.3741   -3.0936   24.1634 H   0  0  0  0  0  0  0  0  0  0  0  0
    6.7556   -1.6160   21.6949 N   0  0  0  0  0  0  0  0  0  0  0  0
    7.3713   -0.6609   20.9520 N   0  0  0  0  0  0  0  0  0  0  0  0
    6.6620    0.0077   19.9078 C   0  0  0  0  0  0  0  0  0  0  0  0
    5.4409    0.6394   20.1701 C   0  0  0  0  0  0  0  0  0  0  0  0
    4.8145    1.3075   19.1119 C   0  0  0  0  0  0  0  0  0  0  0  0
    5.4012    1.2956   17.8395 C   0  0  0  0  0  0  0  0  0  0  0  0
    6.5603    0.6720   17.5787 N   0  0  0  0  0  0  0  0  0  0  0  0
    7.1686    0.0511   18.5959 C   0  0  0  0  0  0  0  0  0  0  0  0
    8.1115   -0.4373   18.3656 H   0  0  0  0  0  0  0  0  0  0  0  0
    4.9216    1.7866   16.9946 H   0  0  0  0  0  0  0  0  0  0  0  0
    3.8819    1.8375   19.2603 H   0  0  0  0  0  0  0  0  0  0  0  0
    5.0129    0.6073   21.1766 H   0  0  0  0  0  0  0  0  0  0  0  0
   10.5138    0.4226   21.3746 H   0  0  0  0  0  0  0  0  0  0  0  0
    9.5657    0.6450   19.9135 H   0  0  0  0  0  0  0  0  0  0  0  0
    9.7521    2.7828   21.1452 H   0  0  0  0  0  0  0  0  0  0  0  0
    8.0553    2.2457   21.0438 H   0  0  0  0  0  0  0  0  0  0  0  0
    8.4682    2.8763   25.0069 C   0  0  0  0  0  0  0  0  0  0  0  0
    8.0275    3.9192   25.8086 C   0  0  0  0  0  0  0  0  0  0  0  0
    7.9687    3.7548   27.1340 F   0  0  0  0  0  0  0  0  0  0  0  0
    8.7601    1.9434   25.4760 H   0  0  0  0  0  0  0  0  0  0  0  0
    8.1805    4.4326   21.9847 H   0  0  0  0  0  0  0  0  0  0  0  0
    7.3856    6.2824   23.4830 H   0  0  0  0  0  0  0  0  0  0  0  0
  1  2  1  0
  2  3  2  0
  3  4  1  0
  4  5  2  0
  5  6  1  0
  6  7  1  0
  7  8  1  0
  8  9  1  0
  9 10  2  0
 10 11  1  0
 11 12  1  0
 12 13  1  0
 13 14  1  0
 14 15  1  0
 15 16  1  0
 15 17  1  0
 13 18  1  0
 13 19  1  0
 12 20  1  0
 11 21  2  0
 21 22  1  0
 22 23  1  0
 23 24  2  0
 24 25  1  0
 25 26  2  0
 26 27  1  0
 27 28  2  0
 28 29  1  0
 26 30  1  0
 25 31  1  0
 24 32  1  0
  8 33  1  0
  8 34  1  0
  7 35  1  0
  7 36  1  0
  5 37  1  0
 37 38  2  0
 38 39  1  0
 37 40  1  0
  4 41  1  0
  3 42  1  0
 38  2  1  0
 22  9  1  0
 28 23  1  0
 15 12  1  0
M  END
>  <cnnaffinity>  (1) 
-6.13441

>  <filename>  (1) 
Fc1ccc(OCCc2nc(C3CSC3)nn2-c2cccnc2)cc1F

$$$$
