
     RDKit          3D

 42 45  0  0  0  0  0  0  0  0999 V2000
    2.8907    1.8801   25.3735 F   0  0  0  0  0  0  0  0  0  0  0  0
    4.1851    2.2094   25.5074 C   0  0  0  0  0  0  0  0  0  0  0  0
    4.5538    3.2685   26.3444 C   0  0  0  0  0  0  0  0  0  0  0  0
    5.8283    3.6523   26.4973 N   0  0  0  0  0  0  0  0  0  0  0  0
    6.7748    2.9694   25.8334 C   0  0  0  0  0  0  0  0  0  0  0  0
    6.4991    1.8655   25.0092 C   0  0  0  0  0  0  0  0  0  0  0  0
    7.5729    1.1136   24.2827 C   0  0  0  0  0  0  0  0  0  0  0  0
    7.7526    1.6315   22.8397 C   0  0  0  0  0  0  0  0  0  0  0  0
    8.7272    0.7907   22.1018 C   0  0  0  0  0  0  0  0  0  0  0  0
   10.0232    0.9091   22.2788 N   0  0  0  0  0  0  0  0  0  0  0  0
   10.5260   -0.2005   21.6812 C   0  0  0  0  0  0  0  0  0  0  0  0
   11.9540   -0.4564   21.7344 C   0  0  0  0  0  0  0  0  0  0  0  0
   12.6977   -1.4816   21.2047 C   0  0  0  0  0  0  0  0  0  0  0  0
   14.0842   -1.3387   21.4822 C   0  0  0  0  0  0  0  0  0  0  0  0
   14.3436   -0.2016   22.1903 C   0  0  0  0  0  0  0  0  0  0  0  0
   12.9408    0.6815   22.5878 S   0  0  0  0  0  0  0  0  0  0  0  0
   15.2846    0.2227   22.4860 H   0  0  0  0  0  0  0  0  0  0  0  0
   14.8390   -2.0473   21.1658 H   0  0  0  0  0  0  0  0  0  0  0  0
   12.2864   -2.3091   20.6393 H   0  0  0  0  0  0  0  0  0  0  0  0
    9.6137   -0.9804   21.1261 N   0  0  0  0  0  0  0  0  0  0  0  0
    8.4548   -0.3434   21.4141 N   0  0  0  0  0  0  0  0  0  0  0  0
    7.1720   -0.8469   20.9421 C   0  0  0  0  0  0  0  0  0  0  0  0
    6.5496   -0.0030   19.8541 C   0  0  0  0  0  0  0  0  0  0  0  0
    5.3464    0.6829   20.0324 C   0  0  0  0  0  0  0  0  0  0  0  0
    4.8075    1.3889   18.9540 C   0  0  0  0  0  0  0  0  0  0  0  0
    5.5001    1.3802   17.7398 C   0  0  0  0  0  0  0  0  0  0  0  0
    6.6706    0.7510   17.5565 N   0  0  0  0  0  0  0  0  0  0  0  0
    7.1817    0.0917   18.6035 C   0  0  0  0  0  0  0  0  0  0  0  0
    8.1390   -0.4032   18.4420 H   0  0  0  0  0  0  0  0  0  0  0  0
    5.0900    1.8871   16.8689 H   0  0  0  0  0  0  0  0  0  0  0  0
    3.8776    1.9373   19.0414 H   0  0  0  0  0  0  0  0  0  0  0  0
    4.8384    0.6604   20.9993 H   0  0  0  0  0  0  0  0  0  0  0  0
    7.3543   -1.8643   20.5873 H   0  0  0  0  0  0  0  0  0  0  0  0
    6.4848   -0.9274   21.7927 H   0  0  0  0  0  0  0  0  0  0  0  0
    6.7977    1.6766   22.3105 H   0  0  0  0  0  0  0  0  0  0  0  0
    8.1555    2.6471   22.8758 H   0  0  0  0  0  0  0  0  0  0  0  0
    7.3124    0.0460   24.2609 H   0  0  0  0  0  0  0  0  0  0  0  0
    8.5352    1.1809   24.8062 H   0  0  0  0  0  0  0  0  0  0  0  0
    5.1571    1.5017   24.8162 C   0  0  0  0  0  0  0  0  0  0  0  0
    4.8805    0.6902   24.1430 H   0  0  0  0  0  0  0  0  0  0  0  0
    7.7988    3.3210   25.9609 H   0  0  0  0  0  0  0  0  0  0  0  0
    3.7909    3.8090   26.8998 H   0  0  0  0  0  0  0  0  0  0  0  0
  1  2  1  0
  2  3  2  0
  3  4  1  0
  4  5  2  0
  5  6  1  0
  6  7  1  0
  7  8  1  0
  8  9  1  0
  9 10  2  0
 10 11  1  0
 11 12  1  0
 12 13  2  0
 13 14  1  0
 14 15  2  0
 15 16  1  0
 15 17  1  0
 14 18  1  0
 13 19  1  0
 11 20  2  0
 20 21  1  0
 21 22  1  0
 22 23  1  0
 23 24  2  0
 24 25  1  0
 25 26  2  0
 26 27  1  0
 27 28  2  0
 28 29  1  0
 26 30  1  0
 25 31  1  0
 24 32  1  0
 22 33  1  0
 22 34  1  0
  8 35  1  0
  8 36  1  0
  7 37  1  0
  7 38  1  0
  6 39  2  0
 39 40  1  0
  5 41  1  0
  3 42  1  0
 39  2  1  0
 21  9  1  0
 28 23  1  0
 16 12  1  0
M  END
>  <cnnaffinity>  (1) 
-6.68396

>  <filename>  (1) 
Fc1cncc(CCc2nc(-c3cccs3)nn2Cc2cccnc2)c1

$$$$
