
     RDKit          3D

 45 48  0  0  0  0  0  0  0  0999 V2000
   14.3901    4.3154   23.8865 F   0  0  0  0  0  0  0  0  0  0  0  0
   13.5775    3.6968   23.0241 C   0  0  0  0  0  0  0  0  0  0  0  0
   13.3190    4.3409   21.8065 C   0  0  0  0  0  0  0  0  0  0  0  0
   12.3405    3.8372   20.9459 C   0  0  0  0  0  0  0  0  0  0  0  0
   11.5897    2.7253   21.3554 C   0  0  0  0  0  0  0  0  0  0  0  0
   10.4952    2.3800   20.6513 O   0  0  0  0  0  0  0  0  0  0  0  0
    9.4017    1.7034   21.2569 C   0  0  0  0  0  0  0  0  0  0  0  0
    9.5358    0.2326   20.8801 C   0  0  0  0  0  0  0  0  0  0  0  0
    8.5180   -0.6951   21.4307 C   0  0  0  0  0  0  0  0  0  0  0  0
    8.7040   -1.4633   22.4782 N   0  0  0  0  0  0  0  0  0  0  0  0
    7.5412   -2.1653   22.5570 C   0  0  0  0  0  0  0  0  0  0  0  0
    7.1936   -3.1030   23.6882 C   0  0  0  0  0  0  0  0  0  0  0  0
    6.9144   -2.3399   25.0163 C   0  0  0  0  0  0  0  0  0  0  0  0
    7.4605   -3.3041   26.0711 C   0  0  0  0  0  0  0  0  0  0  0  0
    8.6684   -3.8640   25.3303 C   0  0  0  0  0  0  0  0  0  0  0  0
    8.2174   -4.0489   23.9921 O   0  0  0  0  0  0  0  0  0  0  0  0
    9.5022   -3.1445   25.3414 H   0  0  0  0  0  0  0  0  0  0  0  0
    9.0290   -4.8271   25.7015 H   0  0  0  0  0  0  0  0  0  0  0  0
    6.7474   -4.1095   26.2824 H   0  0  0  0  0  0  0  0  0  0  0  0
    7.7177   -2.8184   27.0185 H   0  0  0  0  0  0  0  0  0  0  0  0
    7.5081   -1.4139   25.0246 H   0  0  0  0  0  0  0  0  0  0  0  0
    5.8612   -2.0647   25.1354 H   0  0  0  0  0  0  0  0  0  0  0  0
    6.3140   -3.6588   23.3413 H   0  0  0  0  0  0  0  0  0  0  0  0
    6.6410   -1.8468   21.6463 N   0  0  0  0  0  0  0  0  0  0  0  0
    7.2798   -0.9142   20.8955 N   0  0  0  0  0  0  0  0  0  0  0  0
    6.6111   -0.2086   19.8606 C   0  0  0  0  0  0  0  0  0  0  0  0
    5.4337    0.4953   20.1336 C   0  0  0  0  0  0  0  0  0  0  0  0
    4.8766    1.2550   19.1025 C   0  0  0  0  0  0  0  0  0  0  0  0
    5.4882    1.2625   17.8453 C   0  0  0  0  0  0  0  0  0  0  0  0
    6.5921    0.5523   17.5669 N   0  0  0  0  0  0  0  0  0  0  0  0
    7.1320   -0.1648   18.5579 C   0  0  0  0  0  0  0  0  0  0  0  0
    8.0288   -0.7310   18.3108 H   0  0  0  0  0  0  0  0  0  0  0  0
    5.0756    1.8577   17.0336 H   0  0  0  0  0  0  0  0  0  0  0  0
    3.9840    1.8462   19.2664 H   0  0  0  0  0  0  0  0  0  0  0  0
    4.9897    0.4406   21.1277 H   0  0  0  0  0  0  0  0  0  0  0  0
    9.5206    0.1848   19.7931 H   0  0  0  0  0  0  0  0  0  0  0  0
   10.5180   -0.1368   21.1863 H   0  0  0  0  0  0  0  0  0  0  0  0
    9.3575    1.8734   22.3422 H   0  0  0  0  0  0  0  0  0  0  0  0
    8.4989    2.1465   20.8232 H   0  0  0  0  0  0  0  0  0  0  0  0
   11.9524    2.0027   22.4800 C   0  0  0  0  0  0  0  0  0  0  0  0
   12.9457    2.4784   23.3233 C   0  0  0  0  0  0  0  0  0  0  0  0
   13.2420    1.4237   24.6602 Cl  0  0  0  0  0  0  0  0  0  0  0  0
   11.4188    1.0933   22.7333 H   0  0  0  0  0  0  0  0  0  0  0  0
   12.1024    4.2921   19.9870 H   0  0  0  0  0  0  0  0  0  0  0  0
   13.8805    5.2483   21.5867 H   0  0  0  0  0  0  0  0  0  0  0  0
  1  2  1  0
  2  3  2  0
  3  4  1  0
  4  5  2  0
  5  6  1  0
  6  7  1  0
  7  8  1  0
  8  9  1  0
  9 10  2  0
 10 11  1  0
 11 12  1  0
 12 13  1  0
 13 14  1  0
 14 15  1  0
 15 16  1  0
 15 17  1  0
 15 18  1  0
 14 19  1  0
 14 20  1  0
 13 21  1  0
 13 22  1  0
 12 23  1  0
 11 24  2  0
 24 25  1  0
 25 26  1  0
 26 27  2  0
 27 28  1  0
 28 29  2  0
 29 30  1  0
 30 31  2  0
 31 32  1  0
 29 33  1  0
 28 34  1  0
 27 35  1  0
  8 36  1  0
  8 37  1  0
  7 38  1  0
  7 39  1  0
  5 40  1  0
 40 41  2  0
 41 42  1  0
 40 43  1  0
  4 44  1  0
  3 45  1  0
 41  2  1  0
 25  9  1  0
 31 26  1  0
 16 12  1  0
M  END
>  <cnnaffinity>  (1) 
-6.33867

>  <filename>  (1) 
Fc1ccc(OCCc2nc(C3CCCO3)nn2-c2cccnc2)cc1Cl

$$$$
