
     RDKit          3D

 42 45  0  0  0  0  0  0  0  0999 V2000
   11.0116   -0.3199   26.1424 F   0  0  0  0  0  0  0  0  0  0  0  0
   11.6511   -0.0671   24.9879 C   0  0  0  0  0  0  0  0  0  0  0  0
   12.8565    0.6234   24.9878 C   0  0  0  0  0  0  0  0  0  0  0  0
   13.4109    1.0409   23.7753 C   0  0  0  0  0  0  0  0  0  0  0  0
   12.7871    0.7237   22.5766 C   0  0  0  0  0  0  0  0  0  0  0  0
   11.6465   -0.0976   22.5585 C   0  0  0  0  0  0  0  0  0  0  0  0
   10.9203   -0.3794   21.2663 C   0  0  0  0  0  0  0  0  0  0  0  0
   10.0178    0.8372   20.9085 C   0  0  0  0  0  0  0  0  0  0  0  0
    8.9283    1.0942   21.9069 C   0  0  0  0  0  0  0  0  0  0  0  0
    8.9166    1.9915   22.8772 N   0  0  0  0  0  0  0  0  0  0  0  0
    7.8509    1.6134   23.6435 C   0  0  0  0  0  0  0  0  0  0  0  0
    7.4747    2.2301   24.9504 C   0  0  0  0  0  0  0  0  0  0  0  0
    8.1761    3.0999   25.6424 N   0  0  0  0  0  0  0  0  0  0  0  0
    7.4812    3.4068   26.7776 N   0  0  0  0  0  0  0  0  0  0  0  0
    6.3739    2.7164   26.7637 C   0  0  0  0  0  0  0  0  0  0  0  0
    6.3145    1.9573   25.6442 N   0  0  0  0  0  0  0  0  0  0  0  0
    5.6161    1.2744   25.3958 H   0  0  0  0  0  0  0  0  0  0  0  0
    5.6026    2.7533   27.5235 H   0  0  0  0  0  0  0  0  0  0  0  0
    7.1709    0.5865   23.1439 N   0  0  0  0  0  0  0  0  0  0  0  0
    7.8710    0.2590   22.0334 N   0  0  0  0  0  0  0  0  0  0  0  0
    7.3509   -0.6832   21.0453 C   0  0  0  0  0  0  0  0  0  0  0  0
    6.6450   -0.0114   19.8760 C   0  0  0  0  0  0  0  0  0  0  0  0
    5.4359    0.6543   20.1145 C   0  0  0  0  0  0  0  0  0  0  0  0
    4.8124    1.3125   19.0525 C   0  0  0  0  0  0  0  0  0  0  0  0
    5.4193    1.2981   17.7940 C   0  0  0  0  0  0  0  0  0  0  0  0
    6.5640    0.6472   17.5379 N   0  0  0  0  0  0  0  0  0  0  0  0
    7.1499    0.0143   18.5643 C   0  0  0  0  0  0  0  0  0  0  0  0
    8.0757   -0.5051   18.3107 H   0  0  0  0  0  0  0  0  0  0  0  0
    4.9656    1.8292   16.9573 H   0  0  0  0  0  0  0  0  0  0  0  0
    3.8778    1.8437   19.1911 H   0  0  0  0  0  0  0  0  0  0  0  0
    5.0011    0.6618   21.1172 H   0  0  0  0  0  0  0  0  0  0  0  0
    8.1836   -1.3054   20.6999 H   0  0  0  0  0  0  0  0  0  0  0  0
    6.6606   -1.3321   21.5921 H   0  0  0  0  0  0  0  0  0  0  0  0
   10.6441    1.7352   20.8702 H   0  0  0  0  0  0  0  0  0  0  0  0
    9.5591    0.7127   19.9225 H   0  0  0  0  0  0  0  0  0  0  0  0
   10.3412   -1.3090   21.3471 H   0  0  0  0  0  0  0  0  0  0  0  0
   11.6538   -0.5483   20.4750 H   0  0  0  0  0  0  0  0  0  0  0  0
   11.0979   -0.4996   23.7822 C   0  0  0  0  0  0  0  0  0  0  0  0
   10.0547   -1.3475   23.8209 F   0  0  0  0  0  0  0  0  0  0  0  0
   13.1892    1.1099   21.6447 H   0  0  0  0  0  0  0  0  0  0  0  0
   14.3210    1.6217   23.7530 H   0  0  0  0  0  0  0  0  0  0  0  0
   13.3684    0.7509   25.9247 H   0  0  0  0  0  0  0  0  0  0  0  0
  1  2  1  0
  2  3  2  0
  3  4  1  0
  4  5  2  0
  5  6  1  0
  6  7  1  0
  7  8  1  0
  8  9  1  0
  9 10  2  0
 10 11  1  0
 11 12  1  0
 12 13  2  0
 13 14  1  0
 14 15  2  0
 15 16  1  0
 16 17  1  0
 15 18  1  0
 11 19  2  0
 19 20  1  0
 20 21  1  0
 21 22  1  0
 22 23  2  0
 23 24  1  0
 24 25  2  0
 25 26  1  0
 26 27  2  0
 27 28  1  0
 25 29  1  0
 24 30  1  0
 23 31  1  0
 21 32  1  0
 21 33  1  0
  8 34  1  0
  8 35  1  0
  7 36  1  0
  7 37  1  0
  6 38  2  0
 38 39  1  0
  5 40  1  0
  4 41  1  0
  3 42  1  0
 38  2  1  0
 20  9  1  0
 27 22  1  0
 16 12  1  0
M  END
>  <cnnaffinity>  (1) 
-5.99797

>  <filename>  (1) 
Fc1cccc(CCc2nc(-c3nnc[nH]3)nn2Cc2cccnc2)c1F

$$$$
