
     RDKit          3D

 40 43  0  0  0  0  0  0  0  0999 V2000
   14.5361   -1.9274   21.1436 F   0  0  0  0  0  0  0  0  0  0  0  0
   13.7606   -0.9903   21.6981 C   0  0  0  0  0  0  0  0  0  0  0  0
   14.3193    0.0265   22.4784 C   0  0  0  0  0  0  0  0  0  0  0  0
   13.6020    0.9683   23.0930 N   0  0  0  0  0  0  0  0  0  0  0  0
   12.2860    0.9794   22.8748 C   0  0  0  0  0  0  0  0  0  0  0  0
   11.6530    0.0216   22.0632 C   0  0  0  0  0  0  0  0  0  0  0  0
   10.2208    0.1832   21.8901 C   0  0  0  0  0  0  0  0  0  0  0  0
    9.4121   -0.7111   21.3636 N   0  0  0  0  0  0  0  0  0  0  0  0
    8.1878   -0.1744   21.5820 N   0  0  0  0  0  0  0  0  0  0  0  0
    6.9972   -0.8426   21.0713 C   0  0  0  0  0  0  0  0  0  0  0  0
    6.3843   -0.0934   19.9129 C   0  0  0  0  0  0  0  0  0  0  0  0
    5.1663    0.5848   20.0020 C   0  0  0  0  0  0  0  0  0  0  0  0
    4.7369    1.3425   18.9089 C   0  0  0  0  0  0  0  0  0  0  0  0
    5.5387    1.3751   17.7634 C   0  0  0  0  0  0  0  0  0  0  0  0
    6.7069    0.7235   17.6535 N   0  0  0  0  0  0  0  0  0  0  0  0
    7.1116    0.0217   18.7173 C   0  0  0  0  0  0  0  0  0  0  0  0
    8.0740   -0.4798   18.6270 H   0  0  0  0  0  0  0  0  0  0  0  0
    5.2401    1.9621   16.8986 H   0  0  0  0  0  0  0  0  0  0  0  0
    3.8149    1.9141   18.9385 H   0  0  0  0  0  0  0  0  0  0  0  0
    4.5751    0.5433   20.9203 H   0  0  0  0  0  0  0  0  0  0  0  0
    7.3196   -1.8457   20.7764 H   0  0  0  0  0  0  0  0  0  0  0  0
    6.2782   -0.9625   21.8882 H   0  0  0  0  0  0  0  0  0  0  0  0
    8.3238    1.0371   22.1608 C   0  0  0  0  0  0  0  0  0  0  0  0
    7.2158    1.7954   22.8316 C   0  0  0  0  0  0  0  0  0  0  0  0
    6.9568    1.2054   24.1988 C   0  0  0  0  0  0  0  0  0  0  0  0
    5.8654    0.5063   24.6246 C   0  0  0  0  0  0  0  0  0  0  0  0
    6.1411   -0.0068   25.8677 N   0  0  0  0  0  0  0  0  0  0  0  0
    7.4094    0.3597   26.2435 C   0  0  0  0  0  0  0  0  0  0  0  0
    7.9365    1.1138   25.2313 C   0  0  0  0  0  0  0  0  0  0  0  0
    8.9408    1.5136   25.1588 H   0  0  0  0  0  0  0  0  0  0  0  0
    7.8375    0.0446   27.1859 H   0  0  0  0  0  0  0  0  0  0  0  0
    5.5423   -0.6405   26.3680 H   0  0  0  0  0  0  0  0  0  0  0  0
    4.9201    0.3476   24.1320 H   0  0  0  0  0  0  0  0  0  0  0  0
    7.5579    2.8305   22.9105 H   0  0  0  0  0  0  0  0  0  0  0  0
    6.3142    1.8002   22.2131 H   0  0  0  0  0  0  0  0  0  0  0  0
    9.6021    1.3061   22.3403 N   0  0  0  0  0  0  0  0  0  0  0  0
   12.3967   -1.0194   21.4792 C   0  0  0  0  0  0  0  0  0  0  0  0
   11.9539   -1.7950   20.8534 H   0  0  0  0  0  0  0  0  0  0  0  0
   11.7117    1.7667   23.3552 H   0  0  0  0  0  0  0  0  0  0  0  0
   15.3835    0.0912   22.5693 H   0  0  0  0  0  0  0  0  0  0  0  0
  1  2  1  0
  2  3  2  0
  3  4  1  0
  4  5  2  0
  5  6  1  0
  6  7  1  0
  7  8  2  0
  8  9  1  0
  9 10  1  0
 10 11  1  0
 11 12  2  0
 12 13  1  0
 13 14  2  0
 14 15  1  0
 15 16  2  0
 16 17  1  0
 14 18  1  0
 13 19  1  0
 12 20  1  0
 10 21  1  0
 10 22  1  0
  9 23  1  0
 23 24  1  0
 24 25  1  0
 25 26  2  0
 26 27  1  0
 27 28  1  0
 28 29  2  0
 29 30  1  0
 28 31  1  0
 27 32  1  0
 26 33  1  0
 24 34  1  0
 24 35  1  0
 23 36  2  0
  6 37  2  0
 37 38  1  0
  5 39  1  0
  3 40  1  0
 37  2  1  0
 36  7  1  0
 16 11  1  0
 29 25  1  0
M  END
>  <cnnaffinity>  (1) 
-6.57628

>  <filename>  (1) 
Fc1cncc(-c2nc(Cc3cc[nH]c3)n(Cc3cccnc3)n2)c1

$$$$
