
     RDKit          3D

 40 43  0  0  0  0  0  0  0  0999 V2000
    9.3979    2.6208   22.1473 F   0  0  0  0  0  0  0  0  0  0  0  0
   10.4958    1.8776   22.3704 C   0  0  0  0  0  0  0  0  0  0  0  0
   11.4054    2.2812   23.3486 C   0  0  0  0  0  0  0  0  0  0  0  0
   12.5029    1.5739   23.6445 N   0  0  0  0  0  0  0  0  0  0  0  0
   12.7060    0.4379   22.9712 C   0  0  0  0  0  0  0  0  0  0  0  0
   11.8367   -0.0223   21.9750 C   0  0  0  0  0  0  0  0  0  0  0  0
   12.1669   -1.5426   21.2179 Cl  0  0  0  0  0  0  0  0  0  0  0  0
   10.6956    0.7109   21.6300 C   0  0  0  0  0  0  0  0  0  0  0  0
    9.6467    0.2219   20.6652 C   0  0  0  0  0  0  0  0  0  0  0  0
    8.6265   -0.6316   21.3330 C   0  0  0  0  0  0  0  0  0  0  0  0
    8.8451   -1.4703   22.3232 N   0  0  0  0  0  0  0  0  0  0  0  0
    7.6211   -1.9933   22.5582 C   0  0  0  0  0  0  0  0  0  0  0  0
    7.3792   -2.9954   23.6403 C   0  0  0  0  0  0  0  0  0  0  0  0
    8.2572   -4.2632   23.4906 C   0  0  0  0  0  0  0  0  0  0  0  0
    9.4939   -3.9614   24.3572 C   0  0  0  0  0  0  0  0  0  0  0  0
    9.1568   -2.8687   25.1896 O   0  0  0  0  0  0  0  0  0  0  0  0
    7.8141   -2.4728   25.0227 C   0  0  0  0  0  0  0  0  0  0  0  0
    7.1718   -2.8978   25.8138 H   0  0  0  0  0  0  0  0  0  0  0  0
    7.7833   -1.3806   25.1138 H   0  0  0  0  0  0  0  0  0  0  0  0
   10.3562   -3.6612   23.7470 H   0  0  0  0  0  0  0  0  0  0  0  0
    9.7894   -4.8328   24.9626 H   0  0  0  0  0  0  0  0  0  0  0  0
    8.5362   -4.4645   22.4515 H   0  0  0  0  0  0  0  0  0  0  0  0
    7.7173   -5.1397   23.8639 H   0  0  0  0  0  0  0  0  0  0  0  0
    6.3136   -3.2074   23.6088 H   0  0  0  0  0  0  0  0  0  0  0  0
    6.6661   -1.5580   21.7608 N   0  0  0  0  0  0  0  0  0  0  0  0
    7.3221   -0.6986   20.9344 N   0  0  0  0  0  0  0  0  0  0  0  0
    6.6468    0.0003   19.9005 C   0  0  0  0  0  0  0  0  0  0  0  0
    5.4357    0.6470   20.1645 C   0  0  0  0  0  0  0  0  0  0  0  0
    4.8112    1.3129   19.1090 C   0  0  0  0  0  0  0  0  0  0  0  0
    5.3997    1.2957   17.8377 C   0  0  0  0  0  0  0  0  0  0  0  0
    6.5586    0.6720   17.5786 N   0  0  0  0  0  0  0  0  0  0  0  0
    7.1656    0.0496   18.5935 C   0  0  0  0  0  0  0  0  0  0  0  0
    8.1134   -0.4306   18.3629 H   0  0  0  0  0  0  0  0  0  0  0  0
    4.9206    1.7845   16.9937 H   0  0  0  0  0  0  0  0  0  0  0  0
    3.8796    1.8414   19.2599 H   0  0  0  0  0  0  0  0  0  0  0  0
    5.0166    0.6106   21.1731 H   0  0  0  0  0  0  0  0  0  0  0  0
   10.0875   -0.4174   19.8961 H   0  0  0  0  0  0  0  0  0  0  0  0
    9.1747    1.0859   20.1922 H   0  0  0  0  0  0  0  0  0  0  0  0
   13.5894   -0.1415   23.2165 H   0  0  0  0  0  0  0  0  0  0  0  0
   11.2277    3.2038   23.8911 H   0  0  0  0  0  0  0  0  0  0  0  0
  1  2  1  0
  2  3  2  0
  3  4  1  0
  4  5  2  0
  5  6  1  0
  6  7  1  0
  6  8  2  0
  8  9  1  0
  9 10  1  0
 10 11  2  0
 11 12  1  0
 12 13  1  0
 13 14  1  0
 14 15  1  0
 15 16  1  0
 16 17  1  0
 17 18  1  0
 17 19  1  0
 15 20  1  0
 15 21  1  0
 14 22  1  0
 14 23  1  0
 13 24  1  0
 12 25  2  0
 25 26  1  0
 26 27  1  0
 27 28  2  0
 28 29  1  0
 29 30  2  0
 30 31  1  0
 31 32  2  0
 32 33  1  0
 30 34  1  0
 29 35  1  0
 28 36  1  0
  9 37  1  0
  9 38  1  0
  5 39  1  0
  3 40  1  0
  8  2  1  0
 26 10  1  0
 32 27  1  0
 17 13  1  0
M  END
>  <cnnaffinity>  (1) 
-6.5777

>  <filename>  (1) 
Fc1cncc(Cl)c1Cc1nc(C2CCOC2)nn1-c1cccnc1

$$$$
