
     RDKit          3D

 25 27  0  0  0  0  0  0  0  0999 V2000
    4.9262    1.7750   17.0027 H   0  0  0  0  0  0  0  0  0  0  0  0
    5.4075    1.2863   17.8473 C   0  0  0  0  0  0  0  0  0  0  0  0
    6.5702    0.6701   17.5915 N   0  0  0  0  0  0  0  0  0  0  0  0
    7.1796    0.0547   18.6079 C   0  0  0  0  0  0  0  0  0  0  0  0
    8.1244   -0.4280   18.3717 H   0  0  0  0  0  0  0  0  0  0  0  0
    6.6571    0.0089   19.9091 C   0  0  0  0  0  0  0  0  0  0  0  0
    7.3908   -0.7035   20.9558 C   0  0  0  0  0  0  0  0  0  0  0  0
    8.5250   -1.3212   20.7572 N   0  0  0  0  0  0  0  0  0  0  0  0
    8.8318   -1.8398   22.0058 O   0  0  0  0  0  0  0  0  0  0  0  0
    7.8461   -1.4785   22.8318 C   0  0  0  0  0  0  0  0  0  0  0  0
    7.9178   -1.8983   24.2310 C   0  0  0  0  0  0  0  0  0  0  0  0
    6.8815   -1.5200   25.1010 C   0  0  0  0  0  0  0  0  0  0  0  0
    6.0413   -0.9289   24.7524 H   0  0  0  0  0  0  0  0  0  0  0  0
    6.8628   -1.8578   26.3961 N   0  0  0  0  0  0  0  0  0  0  0  0
    7.8791   -2.5876   26.8652 C   0  0  0  0  0  0  0  0  0  0  0  0
    7.8776   -2.8745   27.9065 H   0  0  0  0  0  0  0  0  0  0  0  0
    8.9444   -3.0080   26.0655 C   0  0  0  0  0  0  0  0  0  0  0  0
    9.9108   -3.7576   26.6059 F   0  0  0  0  0  0  0  0  0  0  0  0
    8.9914   -2.6684   24.7257 C   0  0  0  0  0  0  0  0  0  0  0  0
    9.8313   -3.0017   24.1169 H   0  0  0  0  0  0  0  0  0  0  0  0
    6.9240   -0.7773   22.2468 N   0  0  0  0  0  0  0  0  0  0  0  0
    5.4364    0.6515   20.1696 C   0  0  0  0  0  0  0  0  0  0  0  0
    5.0035    0.6331   21.1735 H   0  0  0  0  0  0  0  0  0  0  0  0
    4.8088    1.3063   19.1128 C   0  0  0  0  0  0  0  0  0  0  0  0
    3.8776    1.8407   19.2587 H   0  0  0  0  0  0  0  0  0  0  0  0
  1  2  1  0
  2  3  2  0
  3  4  1  0
  4  5  1  0
  4  6  2  0
  6  7  1  0
  7  8  2  0
  8  9  1  0
  9 10  1  0
 10 11  1  0
 11 12  2  0
 12 13  1  0
 12 14  1  0
 14 15  2  0
 15 16  1  0
 15 17  1  0
 17 18  1  0
 17 19  2  0
 19 20  1  0
 10 21  2  0
  6 22  1  0
 22 23  1  0
 22 24  2  0
 24 25  1  0
 24  2  1  0
 21  7  1  0
 19 11  1  0
M  END
>  <cnnaffinity>  (1) 
-4.93254

>  <filename>  (1) 
Fc1cncc(-c2nc(-c3cccnc3)no2)c1

$$$$
