
     RDKit          3D

 42 45  0  0  0  0  0  0  0  0999 V2000
    6.8083   -6.1108   26.2749 F   0  0  0  0  0  0  0  0  0  0  0  0
    7.0182   -5.1441   25.3717 C   0  0  0  0  0  0  0  0  0  0  0  0
    5.9826   -4.8045   24.5035 C   0  0  0  0  0  0  0  0  0  0  0  0
    6.2028   -3.7999   23.5668 C   0  0  0  0  0  0  0  0  0  0  0  0
    7.4477   -3.1389   23.4914 C   0  0  0  0  0  0  0  0  0  0  0  0
    7.6647   -2.0739   22.4865 C   0  0  0  0  0  0  0  0  0  0  0  0
    6.7267   -1.6674   21.6436 N   0  0  0  0  0  0  0  0  0  0  0  0
    7.3443   -0.7022   20.9258 N   0  0  0  0  0  0  0  0  0  0  0  0
    6.6529    0.0017   19.8969 C   0  0  0  0  0  0  0  0  0  0  0  0
    5.4355    0.6375   20.1683 C   0  0  0  0  0  0  0  0  0  0  0  0
    4.8123    1.3098   19.1091 C   0  0  0  0  0  0  0  0  0  0  0  0
    5.4023    1.2949   17.8386 C   0  0  0  0  0  0  0  0  0  0  0  0
    6.5587    0.6705   17.5723 N   0  0  0  0  0  0  0  0  0  0  0  0
    7.1667    0.0536   18.5912 C   0  0  0  0  0  0  0  0  0  0  0  0
    8.1125   -0.4339   18.3681 H   0  0  0  0  0  0  0  0  0  0  0  0
    4.9182    1.7842   16.9938 H   0  0  0  0  0  0  0  0  0  0  0  0
    3.8793    1.8415   19.2622 H   0  0  0  0  0  0  0  0  0  0  0  0
    5.0139    0.6128   21.1761 H   0  0  0  0  0  0  0  0  0  0  0  0
    8.6100   -0.5372   21.3995 C   0  0  0  0  0  0  0  0  0  0  0  0
    9.5531    0.5383   20.9708 C   0  0  0  0  0  0  0  0  0  0  0  0
    9.5733    1.7700   21.8977 C   0  0  0  0  0  0  0  0  0  0  0  0
    9.9508    1.4159   23.3376 C   0  0  0  0  0  0  0  0  0  0  0  0
   10.5319    2.8461   24.2954 S   0  0  0  0  0  0  0  0  0  0  0  0
    9.3877    4.1152   23.6601 C   0  0  0  0  0  0  0  0  0  0  0  0
    7.9948    3.5653   23.3677 C   0  0  0  0  0  0  0  0  0  0  0  0
    7.9385    2.5949   21.8222 S   0  0  0  0  0  0  0  0  0  0  0  0
    7.2724    4.3780   23.2555 H   0  0  0  0  0  0  0  0  0  0  0  0
    7.6545    2.9418   24.1986 H   0  0  0  0  0  0  0  0  0  0  0  0
    9.8016    4.5673   22.7538 H   0  0  0  0  0  0  0  0  0  0  0  0
    9.3463    4.8947   24.4237 H   0  0  0  0  0  0  0  0  0  0  0  0
   10.7488    0.6709   23.3460 H   0  0  0  0  0  0  0  0  0  0  0  0
    9.1021    0.9376   23.8402 H   0  0  0  0  0  0  0  0  0  0  0  0
   10.3105    2.4750   21.4970 H   0  0  0  0  0  0  0  0  0  0  0  0
    9.3331    0.8574   19.9527 H   0  0  0  0  0  0  0  0  0  0  0  0
   10.5550    0.0988   20.9553 H   0  0  0  0  0  0  0  0  0  0  0  0
    8.8452   -1.4087   22.3567 N   0  0  0  0  0  0  0  0  0  0  0  0
    8.4711   -3.5094   24.3897 C   0  0  0  0  0  0  0  0  0  0  0  0
    8.2607   -4.5143   25.3324 C   0  0  0  0  0  0  0  0  0  0  0  0
    9.0327   -4.8196   26.0346 H   0  0  0  0  0  0  0  0  0  0  0  0
    9.4388   -3.0142   24.3564 H   0  0  0  0  0  0  0  0  0  0  0  0
    5.4047   -3.5139   22.8852 H   0  0  0  0  0  0  0  0  0  0  0  0
    5.0308   -5.3232   24.5771 H   0  0  0  0  0  0  0  0  0  0  0  0
  1  2  1  0
  2  3  2  0
  3  4  1  0
  4  5  2  0
  5  6  1  0
  6  7  2  0
  7  8  1  0
  8  9  1  0
  9 10  2  0
 10 11  1  0
 11 12  2  0
 12 13  1  0
 13 14  2  0
 14 15  1  0
 12 16  1  0
 11 17  1  0
 10 18  1  0
  8 19  1  0
 19 20  1  0
 20 21  1  0
 21 22  1  0
 22 23  1  0
 23 24  1  0
 24 25  1  0
 25 26  1  0
 25 27  1  0
 25 28  1  0
 24 29  1  0
 24 30  1  0
 22 31  1  0
 22 32  1  0
 21 33  1  0
 20 34  1  0
 20 35  1  0
 19 36  2  0
  5 37  1  0
 37 38  2  0
 38 39  1  0
 37 40  1  0
  4 41  1  0
  3 42  1  0
 38  2  1  0
 36  6  1  0
 14  9  1  0
 26 21  1  0
M  END
>  <cnnaffinity>  (1) 
-5.87285

>  <filename>  (1) 
Fc1ccc(-c2nc(CC3CSCCS3)n(-c3cccnc3)n2)cc1

$$$$
