
     RDKit          3D

 39 42  0  0  0  0  0  0  0  0999 V2000
   15.3843   -1.1828   19.9083 F   0  0  0  0  0  0  0  0  0  0  0  0
   14.3642   -1.1319   20.7712 C   0  0  0  0  0  0  0  0  0  0  0  0
   14.2668   -0.1086   21.7306 C   0  0  0  0  0  0  0  0  0  0  0  0
   12.9995    0.1898   22.2367 C   0  0  0  0  0  0  0  0  0  0  0  0
   11.9033   -0.5882   21.8374 C   0  0  0  0  0  0  0  0  0  0  0  0
   10.5091   -0.1528   21.9087 C   0  0  0  0  0  0  0  0  0  0  0  0
    9.5464   -0.9404   21.4508 N   0  0  0  0  0  0  0  0  0  0  0  0
    8.4427   -0.1912   21.5675 N   0  0  0  0  0  0  0  0  0  0  0  0
    7.1769   -0.7296   21.0736 C   0  0  0  0  0  0  0  0  0  0  0  0
    6.5402    0.0514   19.9444 C   0  0  0  0  0  0  0  0  0  0  0  0
    5.3139    0.7058   20.0881 C   0  0  0  0  0  0  0  0  0  0  0  0
    4.7648    1.3719   18.9901 C   0  0  0  0  0  0  0  0  0  0  0  0
    5.4656    1.3535   17.7812 C   0  0  0  0  0  0  0  0  0  0  0  0
    6.6408    0.7261   17.6182 N   0  0  0  0  0  0  0  0  0  0  0  0
    7.1602    0.1042   18.6835 C   0  0  0  0  0  0  0  0  0  0  0  0
    8.1148   -0.3951   18.5207 H   0  0  0  0  0  0  0  0  0  0  0  0
    5.0662    1.8601   16.9045 H   0  0  0  0  0  0  0  0  0  0  0  0
    3.8249    1.9076   19.0597 H   0  0  0  0  0  0  0  0  0  0  0  0
    4.7910    0.6899   21.0471 H   0  0  0  0  0  0  0  0  0  0  0  0
    7.4167   -1.7438   20.7408 H   0  0  0  0  0  0  0  0  0  0  0  0
    6.4848   -0.8277   21.9141 H   0  0  0  0  0  0  0  0  0  0  0  0
    8.7727    0.9895   22.1262 C   0  0  0  0  0  0  0  0  0  0  0  0
    7.7469    1.8495   22.8018 C   0  0  0  0  0  0  0  0  0  0  0  0
    7.3311    1.2124   24.1244 C   0  0  0  0  0  0  0  0  0  0  0  0
    6.1901    0.6131   24.5325 C   0  0  0  0  0  0  0  0  0  0  0  0
    6.3565    0.0353   25.7328 O   0  0  0  0  0  0  0  0  0  0  0  0
    7.6465    0.2404   26.1603 N   0  0  0  0  0  0  0  0  0  0  0  0
    8.2176    0.9320   25.2151 C   0  0  0  0  0  0  0  0  0  0  0  0
    9.2665    1.1981   25.2955 H   0  0  0  0  0  0  0  0  0  0  0  0
    5.2021    0.5045   24.1057 H   0  0  0  0  0  0  0  0  0  0  0  0
    8.2140    2.8229   22.9694 H   0  0  0  0  0  0  0  0  0  0  0  0
    6.8951    1.9915   22.1290 H   0  0  0  0  0  0  0  0  0  0  0  0
   10.0807    1.0639   22.3190 N   0  0  0  0  0  0  0  0  0  0  0  0
   12.1274   -1.7820   21.1396 C   0  0  0  0  0  0  0  0  0  0  0  0
   13.3478   -2.0459   20.5462 C   0  0  0  0  0  0  0  0  0  0  0  0
   13.5118   -2.8780   19.8669 H   0  0  0  0  0  0  0  0  0  0  0  0
   11.2731   -2.4280   21.0272 H   0  0  0  0  0  0  0  0  0  0  0  0
   12.8483    1.0539   22.8763 H   0  0  0  0  0  0  0  0  0  0  0  0
   15.1157    0.5186   21.9923 H   0  0  0  0  0  0  0  0  0  0  0  0
  1  2  1  0
  2  3  2  0
  3  4  1  0
  4  5  2  0
  5  6  1  0
  6  7  2  0
  7  8  1  0
  8  9  1  0
  9 10  1  0
 10 11  2  0
 11 12  1  0
 12 13  2  0
 13 14  1  0
 14 15  2  0
 15 16  1  0
 13 17  1  0
 12 18  1  0
 11 19  1  0
  9 20  1  0
  9 21  1  0
  8 22  1  0
 22 23  1  0
 23 24  1  0
 24 25  2  0
 25 26  1  0
 26 27  1  0
 27 28  2  0
 28 29  1  0
 25 30  1  0
 23 31  1  0
 23 32  1  0
 22 33  2  0
  5 34  1  0
 34 35  2  0
 35 36  1  0
 34 37  1  0
  4 38  1  0
  3 39  1  0
 35  2  1  0
 33  6  1  0
 15 10  1  0
 28 24  1  0
M  END
>  <cnnaffinity>  (1) 
-6.36348

>  <filename>  (1) 
Fc1ccc(-c2nc(Cc3cnoc3)n(Cc3cccnc3)n2)cc1

$$$$
