
     RDKit          3D

 42 45  0  0  0  0  0  0  0  0999 V2000
   14.2256    1.1006   23.3905 F   0  0  0  0  0  0  0  0  0  0  0  0
   13.3923    0.2759   22.7439 C   0  0  0  0  0  0  0  0  0  0  0  0
   13.9105   -0.8629   22.1411 C   0  0  0  0  0  0  0  0  0  0  0  0
   13.0472   -1.6830   21.4195 C   0  0  0  0  0  0  0  0  0  0  0  0
   11.6802   -1.4152   21.3615 C   0  0  0  0  0  0  0  0  0  0  0  0
   11.1632   -0.2787   22.0108 C   0  0  0  0  0  0  0  0  0  0  0  0
    9.7054   -0.0129   22.0075 C   0  0  0  0  0  0  0  0  0  0  0  0
    8.7991   -0.8398   21.5002 N   0  0  0  0  0  0  0  0  0  0  0  0
    7.6321   -0.2106   21.7653 N   0  0  0  0  0  0  0  0  0  0  0  0
    6.3638   -0.6653   21.2096 C   0  0  0  0  0  0  0  0  0  0  0  0
    5.9913    0.0549   19.9300 C   0  0  0  0  0  0  0  0  0  0  0  0
    4.8266    0.8149   19.7954 C   0  0  0  0  0  0  0  0  0  0  0  0
    4.6303    1.5415   18.6183 C   0  0  0  0  0  0  0  0  0  0  0  0
    5.5922    1.4575   17.6099 C   0  0  0  0  0  0  0  0  0  0  0  0
    6.6895    0.6900   17.6942 N   0  0  0  0  0  0  0  0  0  0  0  0
    6.8696    0.0107   18.8319 C   0  0  0  0  0  0  0  0  0  0  0  0
    7.7597   -0.6159   18.8845 H   0  0  0  0  0  0  0  0  0  0  0  0
    5.4742    2.0232   16.6879 H   0  0  0  0  0  0  0  0  0  0  0  0
    3.7645    2.1805   18.4818 H   0  0  0  0  0  0  0  0  0  0  0  0
    4.0815    0.8343   20.5941 H   0  0  0  0  0  0  0  0  0  0  0  0
    6.4491   -1.7442   21.0617 H   0  0  0  0  0  0  0  0  0  0  0  0
    5.6262   -0.4888   21.9931 H   0  0  0  0  0  0  0  0  0  0  0  0
    7.8839    0.9460   22.4063 C   0  0  0  0  0  0  0  0  0  0  0  0
    6.8861    1.7714   23.1387 C   0  0  0  0  0  0  0  0  0  0  0  0
    6.7671    1.1538   24.5050 C   0  0  0  0  0  0  0  0  0  0  0  0
    7.6552    1.5012   25.5328 C   0  0  0  0  0  0  0  0  0  0  0  0
    7.6001    0.8128   26.7440 C   0  0  0  0  0  0  0  0  0  0  0  0
    6.6401   -0.1958   26.8790 C   0  0  0  0  0  0  0  0  0  0  0  0
    5.7797   -0.4523   25.8056 C   0  0  0  0  0  0  0  0  0  0  0  0
    5.8475    0.1949   24.6297 N   0  0  0  0  0  0  0  0  0  0  0  0
    5.0066   -1.2137   25.8807 H   0  0  0  0  0  0  0  0  0  0  0  0
    6.5541   -0.7799   27.7873 H   0  0  0  0  0  0  0  0  0  0  0  0
    8.2944    1.0485   27.5530 H   0  0  0  0  0  0  0  0  0  0  0  0
    8.3820    2.2819   25.3405 H   0  0  0  0  0  0  0  0  0  0  0  0
    5.9167    1.7793   22.6391 H   0  0  0  0  0  0  0  0  0  0  0  0
    7.2761    2.7894   23.1967 H   0  0  0  0  0  0  0  0  0  0  0  0
    9.1755    1.1054   22.5671 N   0  0  0  0  0  0  0  0  0  0  0  0
   12.0423    0.5970   22.6826 C   0  0  0  0  0  0  0  0  0  0  0  0
   11.7017    1.5176   23.1517 H   0  0  0  0  0  0  0  0  0  0  0  0
   11.0056   -2.0624   20.8059 H   0  0  0  0  0  0  0  0  0  0  0  0
   13.4630   -2.5276   20.8884 H   0  0  0  0  0  0  0  0  0  0  0  0
   14.9544   -1.1157   22.2576 H   0  0  0  0  0  0  0  0  0  0  0  0
  1  2  1  0
  2  3  2  0
  3  4  1  0
  4  5  2  0
  5  6  1  0
  6  7  1  0
  7  8  2  0
  8  9  1  0
  9 10  1  0
 10 11  1  0
 11 12  2  0
 12 13  1  0
 13 14  2  0
 14 15  1  0
 15 16  2  0
 16 17  1  0
 14 18  1  0
 13 19  1  0
 12 20  1  0
 10 21  1  0
 10 22  1  0
  9 23  1  0
 23 24  1  0
 24 25  1  0
 25 26  2  0
 26 27  1  0
 27 28  2  0
 28 29  1  0
 29 30  2  0
 29 31  1  0
 28 32  1  0
 27 33  1  0
 26 34  1  0
 24 35  1  0
 24 36  1  0
 23 37  2  0
  6 38  2  0
 38 39  1  0
  5 40  1  0
  4 41  1  0
  3 42  1  0
 38  2  1  0
 37  7  1  0
 16 11  1  0
 30 25  1  0
M  END
>  <cnnaffinity>  (1) 
-6.3225

>  <filename>  (1) 
Fc1cccc(-c2nc(Cc3ccccn3)n(Cc3cccnc3)n2)c1

$$$$
