
     RDKit          3D

 42 45  0  0  0  0  0  0  0  0999 V2000
    7.1687    6.1270   26.0477 F   0  0  0  0  0  0  0  0  0  0  0  0
    7.6015    5.1305   25.2682 C   0  0  0  0  0  0  0  0  0  0  0  0
    7.6686    5.3121   23.8960 C   0  0  0  0  0  0  0  0  0  0  0  0
    8.1179    4.2780   23.0638 C   0  0  0  0  0  0  0  0  0  0  0  0
    8.5073    3.0501   23.6140 C   0  0  0  0  0  0  0  0  0  0  0  0
    8.9644    1.9849   22.9057 O   0  0  0  0  0  0  0  0  0  0  0  0
    9.0340    2.0196   21.4824 C   0  0  0  0  0  0  0  0  0  0  0  0
    9.5098    0.6433   21.0072 C   0  0  0  0  0  0  0  0  0  0  0  0
    8.6269   -0.4633   21.4569 C   0  0  0  0  0  0  0  0  0  0  0  0
    8.8626   -1.3094   22.4415 N   0  0  0  0  0  0  0  0  0  0  0  0
    7.6824   -1.9626   22.5652 C   0  0  0  0  0  0  0  0  0  0  0  0
    7.4243   -2.9547   23.6513 C   0  0  0  0  0  0  0  0  0  0  0  0
    6.2804   -2.5526   24.6323 C   0  0  0  0  0  0  0  0  0  0  0  0
    5.3043   -4.0290   24.1820 S   0  0  0  0  0  0  0  0  0  0  0  0
    6.7986   -4.2909   23.1674 C   0  0  0  0  0  0  0  0  0  0  0  0
    6.5805   -4.3226   22.0946 H   0  0  0  0  0  0  0  0  0  0  0  0
    7.3588   -5.1866   23.4528 H   0  0  0  0  0  0  0  0  0  0  0  0
    5.7797   -1.6117   24.3832 H   0  0  0  0  0  0  0  0  0  0  0  0
    6.5658   -2.5275   25.6889 H   0  0  0  0  0  0  0  0  0  0  0  0
    8.3765   -3.0899   24.1607 H   0  0  0  0  0  0  0  0  0  0  0  0
    6.7567   -1.6151   21.6952 N   0  0  0  0  0  0  0  0  0  0  0  0
    7.3722   -0.6594   20.9528 N   0  0  0  0  0  0  0  0  0  0  0  0
    6.6622    0.0079   19.9081 C   0  0  0  0  0  0  0  0  0  0  0  0
    5.4407    0.6390   20.1703 C   0  0  0  0  0  0  0  0  0  0  0  0
    4.8147    1.3072   19.1117 C   0  0  0  0  0  0  0  0  0  0  0  0
    5.4011    1.2957   17.8392 C   0  0  0  0  0  0  0  0  0  0  0  0
    6.5598    0.6715   17.5782 N   0  0  0  0  0  0  0  0  0  0  0  0
    7.1681    0.0507   18.5958 C   0  0  0  0  0  0  0  0  0  0  0  0
    8.1108   -0.4374   18.3647 H   0  0  0  0  0  0  0  0  0  0  0  0
    4.9224    1.7873   16.9941 H   0  0  0  0  0  0  0  0  0  0  0  0
    3.8823    1.8371   19.2599 H   0  0  0  0  0  0  0  0  0  0  0  0
    5.0130    0.6065   21.1771 H   0  0  0  0  0  0  0  0  0  0  0  0
   10.5118    0.4290   21.3774 H   0  0  0  0  0  0  0  0  0  0  0  0
    9.5628    0.6512   19.9167 H   0  0  0  0  0  0  0  0  0  0  0  0
    8.0505    2.2489   21.0461 H   0  0  0  0  0  0  0  0  0  0  0  0
    9.7460    2.7883   21.1542 H   0  0  0  0  0  0  0  0  0  0  0  0
    8.4396    2.8678   25.0083 C   0  0  0  0  0  0  0  0  0  0  0  0
    7.9799    3.9014   25.8243 C   0  0  0  0  0  0  0  0  0  0  0  0
    7.8278    3.6585   27.5234 Cl  0  0  0  0  0  0  0  0  0  0  0  0
    8.7356    1.9251   25.4559 H   0  0  0  0  0  0  0  0  0  0  0  0
    8.1683    4.4333   21.9927 H   0  0  0  0  0  0  0  0  0  0  0  0
    7.3577    6.2703   23.4957 H   0  0  0  0  0  0  0  0  0  0  0  0
  1  2  1  0
  2  3  2  0
  3  4  1  0
  4  5  2  0
  5  6  1  0
  6  7  1  0
  7  8  1  0
  8  9  1  0
  9 10  2  0
 10 11  1  0
 11 12  1  0
 12 13  1  0
 13 14  1  0
 14 15  1  0
 15 16  1  0
 15 17  1  0
 13 18  1  0
 13 19  1  0
 12 20  1  0
 11 21  2  0
 21 22  1  0
 22 23  1  0
 23 24  2  0
 24 25  1  0
 25 26  2  0
 26 27  1  0
 27 28  2  0
 28 29  1  0
 26 30  1  0
 25 31  1  0
 24 32  1  0
  8 33  1  0
  8 34  1  0
  7 35  1  0
  7 36  1  0
  5 37  1  0
 37 38  2  0
 38 39  1  0
 37 40  1  0
  4 41  1  0
  3 42  1  0
 38  2  1  0
 22  9  1  0
 28 23  1  0
 15 12  1  0
M  END
>  <cnnaffinity>  (1) 
-6.25681

>  <filename>  (1) 
Fc1ccc(OCCc2nc(C3CSC3)nn2-c2cccnc2)cc1Cl

$$$$
