
     RDKit          3D

 40 43  0  0  0  0  0  0  0  0999 V2000
   14.1899   -1.9455   21.6511 F   0  0  0  0  0  0  0  0  0  0  0  0
   13.4022   -0.9529   22.0862 C   0  0  0  0  0  0  0  0  0  0  0  0
   14.0041    0.0970   22.7750 C   0  0  0  0  0  0  0  0  0  0  0  0
   13.2021    1.1312   23.2520 C   0  0  0  0  0  0  0  0  0  0  0  0
   11.8322    1.1159   23.0203 C   0  0  0  0  0  0  0  0  0  0  0  0
   11.2342    0.0524   22.3100 C   0  0  0  0  0  0  0  0  0  0  0  0
    9.7661    0.1058   22.1099 C   0  0  0  0  0  0  0  0  0  0  0  0
    9.0001   -0.8655   21.6384 N   0  0  0  0  0  0  0  0  0  0  0  0
    7.7444   -0.3669   21.7947 N   0  0  0  0  0  0  0  0  0  0  0  0
    6.5909   -0.9595   21.1148 C   0  0  0  0  0  0  0  0  0  0  0  0
    6.1296   -0.1422   19.9177 C   0  0  0  0  0  0  0  0  0  0  0  0
    4.9165    0.5587   19.8594 C   0  0  0  0  0  0  0  0  0  0  0  0
    4.6655    1.3758   18.7512 C   0  0  0  0  0  0  0  0  0  0  0  0
    5.6182    1.4432   17.7328 C   0  0  0  0  0  0  0  0  0  0  0  0
    6.7676    0.7539   17.7529 N   0  0  0  0  0  0  0  0  0  0  0  0
    7.0114    0.0027   18.8327 C   0  0  0  0  0  0  0  0  0  0  0  0
    7.9742   -0.5081   18.8494 H   0  0  0  0  0  0  0  0  0  0  0  0
    5.4527    2.0751   16.8611 H   0  0  0  0  0  0  0  0  0  0  0  0
    3.7681    1.9791   18.6781 H   0  0  0  0  0  0  0  0  0  0  0  0
    4.1743    0.4857   20.6590 H   0  0  0  0  0  0  0  0  0  0  0  0
    6.9067   -1.9646   20.8262 H   0  0  0  0  0  0  0  0  0  0  0  0
    5.7854   -1.0720   21.8440 H   0  0  0  0  0  0  0  0  0  0  0  0
    7.8182    0.8635   22.3436 C   0  0  0  0  0  0  0  0  0  0  0  0
    6.6617    1.5558   23.0020 C   0  0  0  0  0  0  0  0  0  0  0  0
    6.4075    1.0534   24.4142 C   0  0  0  0  0  0  0  0  0  0  0  0
    5.3061    0.5089   24.9963 C   0  0  0  0  0  0  0  0  0  0  0  0
    5.5710    0.1399   26.2766 O   0  0  0  0  0  0  0  0  0  0  0  0
    6.8610    0.4677   26.5309 C   0  0  0  0  0  0  0  0  0  0  0  0
    7.4150    1.0466   25.4423 C   0  0  0  0  0  0  0  0  0  0  0  0
    8.4220    1.4232   25.3291 H   0  0  0  0  0  0  0  0  0  0  0  0
    7.2228    0.2257   27.5198 H   0  0  0  0  0  0  0  0  0  0  0  0
    4.2914    0.3424   24.6728 H   0  0  0  0  0  0  0  0  0  0  0  0
    6.9410    2.6134   23.0343 H   0  0  0  0  0  0  0  0  0  0  0  0
    5.7799    1.4686   22.3634 H   0  0  0  0  0  0  0  0  0  0  0  0
    9.0738    1.2179   22.4889 N   0  0  0  0  0  0  0  0  0  0  0  0
   12.0333   -1.0101   21.8441 C   0  0  0  0  0  0  0  0  0  0  0  0
   11.6085   -1.8546   21.3033 H   0  0  0  0  0  0  0  0  0  0  0  0
   11.1994    1.9155   23.3924 H   0  0  0  0  0  0  0  0  0  0  0  0
   13.6472    1.9684   23.7783 H   0  0  0  0  0  0  0  0  0  0  0  0
   15.0744    0.0984   22.8836 H   0  0  0  0  0  0  0  0  0  0  0  0
  1  2  1  0
  2  3  2  0
  3  4  1  0
  4  5  2  0
  5  6  1  0
  6  7  1  0
  7  8  2  0
  8  9  1  0
  9 10  1  0
 10 11  1  0
 11 12  2  0
 12 13  1  0
 13 14  2  0
 14 15  1  0
 15 16  2  0
 16 17  1  0
 14 18  1  0
 13 19  1  0
 12 20  1  0
 10 21  1  0
 10 22  1  0
  9 23  1  0
 23 24  1  0
 24 25  1  0
 25 26  2  0
 26 27  1  0
 27 28  1  0
 28 29  2  0
 29 30  1  0
 28 31  1  0
 26 32  1  0
 24 33  1  0
 24 34  1  0
 23 35  2  0
  6 36  2  0
 36 37  1  0
  5 38  1  0
  4 39  1  0
  3 40  1  0
 36  2  1  0
 35  7  1  0
 16 11  1  0
 29 25  1  0
M  END
>  <cnnaffinity>  (1) 
-6.21553

>  <filename>  (1) 
Fc1cccc(-c2nc(Cc3ccoc3)n(Cc3cccnc3)n2)c1

$$$$
