
     RDKit          3D

 44 47  0  0  0  0  0  0  0  0999 V2000
   14.6800   -1.7973   21.0058 F   0  0  0  0  0  0  0  0  0  0  0  0
   13.8399   -0.9595   21.6165 C   0  0  0  0  0  0  0  0  0  0  0  0
   14.3277    0.0882   22.4062 C   0  0  0  0  0  0  0  0  0  0  0  0
   13.5246    0.9341   23.0591 N   0  0  0  0  0  0  0  0  0  0  0  0
   12.2120    0.8040   22.8693 C   0  0  0  0  0  0  0  0  0  0  0  0
   11.6422   -0.1559   22.0098 C   0  0  0  0  0  0  0  0  0  0  0  0
   10.1997   -0.0279   21.8001 C   0  0  0  0  0  0  0  0  0  0  0  0
    9.3761   -0.8994   21.2454 N   0  0  0  0  0  0  0  0  0  0  0  0
    8.1597   -0.3162   21.4298 N   0  0  0  0  0  0  0  0  0  0  0  0
    6.9120   -0.8923   20.9380 C   0  0  0  0  0  0  0  0  0  0  0  0
    6.3077   -0.0767   19.8149 C   0  0  0  0  0  0  0  0  0  0  0  0
    5.1097    0.6375   19.9310 C   0  0  0  0  0  0  0  0  0  0  0  0
    4.6703    1.3975   18.8436 C   0  0  0  0  0  0  0  0  0  0  0  0
    5.4506    1.4265   17.6861 C   0  0  0  0  0  0  0  0  0  0  0  0
    6.5991    0.7451   17.5552 N   0  0  0  0  0  0  0  0  0  0  0  0
    7.0111    0.0274   18.6058 C   0  0  0  0  0  0  0  0  0  0  0  0
    7.9620   -0.4944   18.4929 H   0  0  0  0  0  0  0  0  0  0  0  0
    5.1380    2.0137   16.8233 H   0  0  0  0  0  0  0  0  0  0  0  0
    3.7553    1.9760   18.8863 H   0  0  0  0  0  0  0  0  0  0  0  0
    4.5359    0.6223   20.8595 H   0  0  0  0  0  0  0  0  0  0  0  0
    7.1434   -1.9144   20.6243 H   0  0  0  0  0  0  0  0  0  0  0  0
    6.1981   -0.9602   21.7686 H   0  0  0  0  0  0  0  0  0  0  0  0
    8.3154    0.8679   22.0609 C   0  0  0  0  0  0  0  0  0  0  0  0
    7.2678    1.6598   22.7582 C   0  0  0  0  0  0  0  0  0  0  0  0
    7.2575    1.2609   24.2509 C   0  0  0  0  0  0  0  0  0  0  0  0
    6.2204    1.9714   25.0679 C   0  0  0  0  0  0  0  0  0  0  0  0
    4.8740    1.5896   25.0031 C   0  0  0  0  0  0  0  0  0  0  0  0
    3.9368    2.2756   25.7750 C   0  0  0  0  0  0  0  0  0  0  0  0
    4.3793    3.3275   26.5842 C   0  0  0  0  0  0  0  0  0  0  0  0
    5.6590    3.7116   26.6596 N   0  0  0  0  0  0  0  0  0  0  0  0
    6.5480    3.0400   25.9157 C   0  0  0  0  0  0  0  0  0  0  0  0
    7.5863    3.3667   25.9998 H   0  0  0  0  0  0  0  0  0  0  0  0
    3.6781    3.8809   27.2072 H   0  0  0  0  0  0  0  0  0  0  0  0
    2.8865    2.0091   25.7571 H   0  0  0  0  0  0  0  0  0  0  0  0
    4.5818    0.7620   24.3528 H   0  0  0  0  0  0  0  0  0  0  0  0
    7.0982    0.1757   24.3301 H   0  0  0  0  0  0  0  0  0  0  0  0
    8.2626    1.4540   24.6490 H   0  0  0  0  0  0  0  0  0  0  0  0
    6.2836    1.5425   22.2995 H   0  0  0  0  0  0  0  0  0  0  0  0
    7.5384    2.7141   22.6609 H   0  0  0  0  0  0  0  0  0  0  0  0
    9.5920    1.0791   22.2964 N   0  0  0  0  0  0  0  0  0  0  0  0
   12.4755   -1.1134   21.4069 C   0  0  0  0  0  0  0  0  0  0  0  0
   12.1123   -1.8979   20.7441 H   0  0  0  0  0  0  0  0  0  0  0  0
   11.5778    1.5195   23.3781 H   0  0  0  0  0  0  0  0  0  0  0  0
   15.3839    0.2726   22.4840 H   0  0  0  0  0  0  0  0  0  0  0  0
  1  2  1  0
  2  3  2  0
  3  4  1  0
  4  5  2  0
  5  6  1  0
  6  7  1  0
  7  8  2  0
  8  9  1  0
  9 10  1  0
 10 11  1  0
 11 12  2  0
 12 13  1  0
 13 14  2  0
 14 15  1  0
 15 16  2  0
 16 17  1  0
 14 18  1  0
 13 19  1  0
 12 20  1  0
 10 21  1  0
 10 22  1  0
  9 23  1  0
 23 24  1  0
 24 25  1  0
 25 26  1  0
 26 27  2  0
 27 28  1  0
 28 29  2  0
 29 30  1  0
 30 31  2  0
 31 32  1  0
 29 33  1  0
 28 34  1  0
 27 35  1  0
 25 36  1  0
 25 37  1  0
 24 38  1  0
 24 39  1  0
 23 40  2  0
  6 41  2  0
 41 42  1  0
  5 43  1  0
  3 44  1  0
 41  2  1  0
 40  7  1  0
 16 11  1  0
 31 26  1  0
M  END
>  <cnnaffinity>  (1) 
-6.57569

>  <filename>  (1) 
Fc1cncc(-c2nc(CCc3cccnc3)n(Cc3cccnc3)n2)c1

$$$$
