
     RDKit          3D

 42 45  0  0  0  0  0  0  0  0999 V2000
    4.9517    0.8448   23.9566 F   0  0  0  0  0  0  0  0  0  0  0  0
    5.3075    1.7245   24.9173 C   0  0  0  0  0  0  0  0  0  0  0  0
    4.2965    2.3030   25.6787 C   0  0  0  0  0  0  0  0  0  0  0  0
    4.6445    3.2638   26.6341 C   0  0  0  0  0  0  0  0  0  0  0  0
    5.9844    3.6271   26.8046 C   0  0  0  0  0  0  0  0  0  0  0  0
    6.9798    2.9996   26.0426 C   0  0  0  0  0  0  0  0  0  0  0  0
    6.6667    2.0045   25.1014 C   0  0  0  0  0  0  0  0  0  0  0  0
    7.7112    1.2270   24.3322 C   0  0  0  0  0  0  0  0  0  0  0  0
    7.8401    1.6393   22.8368 C   0  0  0  0  0  0  0  0  0  0  0  0
    8.7435    0.7228   22.0802 C   0  0  0  0  0  0  0  0  0  0  0  0
   10.0468    0.7750   22.1981 N   0  0  0  0  0  0  0  0  0  0  0  0
   10.4779   -0.3799   21.6192 C   0  0  0  0  0  0  0  0  0  0  0  0
   11.9300   -0.6691   21.7021 C   0  0  0  0  0  0  0  0  0  0  0  0
   12.6376   -1.6207   21.1549 N   0  0  0  0  0  0  0  0  0  0  0  0
   13.9706   -1.4555   21.4313 C   0  0  0  0  0  0  0  0  0  0  0  0
   14.2792   -0.3662   22.1899 C   0  0  0  0  0  0  0  0  0  0  0  0
   12.8746    0.4925   22.5924 S   0  0  0  0  0  0  0  0  0  0  0  0
   15.2372    0.0014   22.5107 H   0  0  0  0  0  0  0  0  0  0  0  0
   14.6892   -2.1427   21.0036 H   0  0  0  0  0  0  0  0  0  0  0  0
    9.5051   -1.1172   21.1020 N   0  0  0  0  0  0  0  0  0  0  0  0
    8.3967   -0.3953   21.3953 N   0  0  0  0  0  0  0  0  0  0  0  0
    7.0563   -0.8319   21.0171 C   0  0  0  0  0  0  0  0  0  0  0  0
    6.4282    0.0007   19.9133 C   0  0  0  0  0  0  0  0  0  0  0  0
    5.2366    0.7162   20.0820 C   0  0  0  0  0  0  0  0  0  0  0  0
    4.7033    1.4051   18.9893 C   0  0  0  0  0  0  0  0  0  0  0  0
    5.3958    1.3775   17.7757 C   0  0  0  0  0  0  0  0  0  0  0  0
    6.5546    0.7227   17.6006 N   0  0  0  0  0  0  0  0  0  0  0  0
    7.0550    0.0706   18.6566 C   0  0  0  0  0  0  0  0  0  0  0  0
    8.0134   -0.4237   18.5033 H   0  0  0  0  0  0  0  0  0  0  0  0
    5.0042    1.9008   16.9055 H   0  0  0  0  0  0  0  0  0  0  0  0
    3.7828    1.9740   19.0659 H   0  0  0  0  0  0  0  0  0  0  0  0
    4.7521    0.7653   21.0609 H   0  0  0  0  0  0  0  0  0  0  0  0
    6.4180   -0.8238   21.9099 H   0  0  0  0  0  0  0  0  0  0  0  0
    7.1481   -1.8782   20.7133 H   0  0  0  0  0  0  0  0  0  0  0  0
    6.8601    1.7194   22.3576 H   0  0  0  0  0  0  0  0  0  0  0  0
    8.3096    2.6263   22.7838 H   0  0  0  0  0  0  0  0  0  0  0  0
    8.6928    1.3458   24.8097 H   0  0  0  0  0  0  0  0  0  0  0  0
    7.4734    0.1551   24.4072 H   0  0  0  0  0  0  0  0  0  0  0  0
    8.0217    3.2846   26.1803 H   0  0  0  0  0  0  0  0  0  0  0  0
    6.2558    4.3830   27.5366 H   0  0  0  0  0  0  0  0  0  0  0  0
    3.8688    3.7205   27.2453 H   0  0  0  0  0  0  0  0  0  0  0  0
    3.2717    1.9874   25.5152 H   0  0  0  0  0  0  0  0  0  0  0  0
  1  2  1  0
  2  3  2  0
  3  4  1  0
  4  5  2  0
  5  6  1  0
  6  7  2  0
  7  8  1  0
  8  9  1  0
  9 10  1  0
 10 11  2  0
 11 12  1  0
 12 13  1  0
 13 14  2  0
 14 15  1  0
 15 16  2  0
 16 17  1  0
 16 18  1  0
 15 19  1  0
 12 20  2  0
 20 21  1  0
 21 22  1  0
 22 23  1  0
 23 24  2  0
 24 25  1  0
 25 26  2  0
 26 27  1  0
 27 28  2  0
 28 29  1  0
 26 30  1  0
 25 31  1  0
 24 32  1  0
 22 33  1  0
 22 34  1  0
  9 35  1  0
  9 36  1  0
  8 37  1  0
  8 38  1  0
  6 39  1  0
  5 40  1  0
  4 41  1  0
  3 42  1  0
  7  2  1  0
 21 10  1  0
 28 23  1  0
 17 13  1  0
M  END
>  <cnnaffinity>  (1) 
-6.47856

>  <filename>  (1) 
Fc1ccccc1CCc1nc(-c2nccs2)nn1Cc1cccnc1

$$$$
