
     RDKit          3D

 45 48  0  0  0  0  0  0  0  0999 V2000
   12.9569    0.0424   24.3119 F   0  0  0  0  0  0  0  0  0  0  0  0
   12.2952    1.1616   23.9995 C   0  0  0  0  0  0  0  0  0  0  0  0
   13.0206    2.3193   23.7375 C   0  0  0  0  0  0  0  0  0  0  0  0
   12.3367    3.5168   23.4983 C   0  0  0  0  0  0  0  0  0  0  0  0
   10.9463    3.5000   23.4309 C   0  0  0  0  0  0  0  0  0  0  0  0
   10.3170    4.6497   23.1474 F   0  0  0  0  0  0  0  0  0  0  0  0
   10.2177    2.3023   23.5645 C   0  0  0  0  0  0  0  0  0  0  0  0
    8.5233    2.2099   23.0305 S   0  0  0  0  0  0  0  0  0  0  0  0
    8.8978    1.9908   21.2498 C   0  0  0  0  0  0  0  0  0  0  0  0
    9.4745    0.6042   20.9015 C   0  0  0  0  0  0  0  0  0  0  0  0
    8.6195   -0.5201   21.3955 C   0  0  0  0  0  0  0  0  0  0  0  0
    8.8621   -1.3736   22.3728 N   0  0  0  0  0  0  0  0  0  0  0  0
    7.6620   -1.9919   22.5485 C   0  0  0  0  0  0  0  0  0  0  0  0
    7.4681   -3.0022   23.6369 C   0  0  0  0  0  0  0  0  0  0  0  0
    6.8598   -4.3403   23.1588 C   0  0  0  0  0  0  0  0  0  0  0  0
    5.3450   -4.0978   23.2847 C   0  0  0  0  0  0  0  0  0  0  0  0
    5.1733   -2.9849   24.1418 O   0  0  0  0  0  0  0  0  0  0  0  0
    6.4095   -2.5513   24.6603 C   0  0  0  0  0  0  0  0  0  0  0  0
    6.3511   -1.4648   24.7904 H   0  0  0  0  0  0  0  0  0  0  0  0
    6.6227   -3.0066   25.6441 H   0  0  0  0  0  0  0  0  0  0  0  0
    4.9043   -3.8485   22.3130 H   0  0  0  0  0  0  0  0  0  0  0  0
    4.8224   -4.9734   23.6965 H   0  0  0  0  0  0  0  0  0  0  0  0
    7.1877   -5.1508   23.8235 H   0  0  0  0  0  0  0  0  0  0  0  0
    7.1530   -4.6023   22.1356 H   0  0  0  0  0  0  0  0  0  0  0  0
    8.4472   -3.1231   24.0972 H   0  0  0  0  0  0  0  0  0  0  0  0
    6.7063   -1.5916   21.7336 N   0  0  0  0  0  0  0  0  0  0  0  0
    7.3421   -0.6753   20.9567 N   0  0  0  0  0  0  0  0  0  0  0  0
    6.6544   -0.0221   19.8962 C   0  0  0  0  0  0  0  0  0  0  0  0
    5.4400    0.6135   20.1578 C   0  0  0  0  0  0  0  0  0  0  0  0
    4.8239    1.2989   19.1080 C   0  0  0  0  0  0  0  0  0  0  0  0
    5.4206    1.3025   17.8421 C   0  0  0  0  0  0  0  0  0  0  0  0
    6.5660    0.6567   17.5764 N   0  0  0  0  0  0  0  0  0  0  0  0
    7.1621    0.0102   18.5855 C   0  0  0  0  0  0  0  0  0  0  0  0
    8.0877   -0.5117   18.3458 H   0  0  0  0  0  0  0  0  0  0  0  0
    4.9585    1.8314   17.0097 H   0  0  0  0  0  0  0  0  0  0  0  0
    3.8915    1.8262   19.2632 H   0  0  0  0  0  0  0  0  0  0  0  0
    5.0167    0.5676   21.1629 H   0  0  0  0  0  0  0  0  0  0  0  0
    9.5695    0.5351   19.8148 H   0  0  0  0  0  0  0  0  0  0  0  0
   10.4711    0.4845   21.3311 H   0  0  0  0  0  0  0  0  0  0  0  0
    7.9695    2.1835   20.7037 H   0  0  0  0  0  0  0  0  0  0  0  0
    9.6135    2.7742   20.9804 H   0  0  0  0  0  0  0  0  0  0  0  0
   10.9060    1.1222   23.8950 C   0  0  0  0  0  0  0  0  0  0  0  0
   10.3853    0.1678   23.9298 H   0  0  0  0  0  0  0  0  0  0  0  0
   12.8369    4.4637   23.3095 H   0  0  0  0  0  0  0  0  0  0  0  0
   14.0967    2.2522   23.6816 H   0  0  0  0  0  0  0  0  0  0  0  0
  1  2  1  0
  2  3  2  0
  3  4  1  0
  4  5  2  0
  5  6  1  0
  5  7  1  0
  7  8  1  0
  8  9  1  0
  9 10  1  0
 10 11  1  0
 11 12  2  0
 12 13  1  0
 13 14  1  0
 14 15  1  0
 15 16  1  0
 16 17  1  0
 17 18  1  0
 18 19  1  0
 18 20  1  0
 16 21  1  0
 16 22  1  0
 15 23  1  0
 15 24  1  0
 14 25  1  0
 13 26  2  0
 26 27  1  0
 27 28  1  0
 28 29  2  0
 29 30  1  0
 30 31  2  0
 31 32  1  0
 32 33  2  0
 33 34  1  0
 31 35  1  0
 30 36  1  0
 29 37  1  0
 10 38  1  0
 10 39  1  0
  9 40  1  0
  9 41  1  0
  7 42  2  0
 42 43  1  0
  4 44  1  0
  3 45  1  0
 42  2  1  0
 27 11  1  0
 33 28  1  0
 18 14  1  0
M  END
>  <cnnaffinity>  (1) 
-6.55345

>  <filename>  (1) 
Fc1ccc(F)c(SCCc2nc(C3CCOC3)nn2-c2cccnc2)c1

$$$$
