
     RDKit          3D

 45 48  0  0  0  0  0  0  0  0999 V2000
   11.0080    0.1184   26.9953 F   0  0  0  0  0  0  0  0  0  0  0  0
   10.4793    0.7043   25.9129 C   0  0  0  0  0  0  0  0  0  0  0  0
    9.1045    0.6468   25.7488 C   0  0  0  0  0  0  0  0  0  0  0  0
    8.5460    1.1956   24.6001 C   0  0  0  0  0  0  0  0  0  0  0  0
    9.3404    1.8119   23.6185 C   0  0  0  0  0  0  0  0  0  0  0  0
    8.6460    2.2883   22.5510 O   0  0  0  0  0  0  0  0  0  0  0  0
    9.0404    2.0119   21.2143 C   0  0  0  0  0  0  0  0  0  0  0  0
    9.5348    0.5819   20.9407 C   0  0  0  0  0  0  0  0  0  0  0  0
    8.6180   -0.5022   21.4083 C   0  0  0  0  0  0  0  0  0  0  0  0
    8.8528   -1.4037   22.3404 N   0  0  0  0  0  0  0  0  0  0  0  0
    7.6425   -2.0231   22.4997 C   0  0  0  0  0  0  0  0  0  0  0  0
    7.4344   -2.9874   23.6593 C   0  0  0  0  0  0  0  0  0  0  0  0
    6.8307   -2.2829   24.9115 C   0  0  0  0  0  0  0  0  0  0  0  0
    5.9766   -3.3705   25.5619 C   0  0  0  0  0  0  0  0  0  0  0  0
    5.5241   -4.1709   24.3443 C   0  0  0  0  0  0  0  0  0  0  0  0
    6.5997   -4.1166   23.4061 O   0  0  0  0  0  0  0  0  0  0  0  0
    5.3153   -5.2188   24.5828 H   0  0  0  0  0  0  0  0  0  0  0  0
    4.6282   -3.7211   23.8921 H   0  0  0  0  0  0  0  0  0  0  0  0
    5.1264   -2.9603   26.1180 H   0  0  0  0  0  0  0  0  0  0  0  0
    6.5718   -3.9882   26.2467 H   0  0  0  0  0  0  0  0  0  0  0  0
    6.1915   -1.4449   24.5965 H   0  0  0  0  0  0  0  0  0  0  0  0
    7.6097   -1.8903   25.5733 H   0  0  0  0  0  0  0  0  0  0  0  0
    8.4406   -3.3626   23.8763 H   0  0  0  0  0  0  0  0  0  0  0  0
    6.6914   -1.5786   21.6981 N   0  0  0  0  0  0  0  0  0  0  0  0
    7.3401   -0.6463   20.9524 N   0  0  0  0  0  0  0  0  0  0  0  0
    6.6640    0.0124   19.8853 C   0  0  0  0  0  0  0  0  0  0  0  0
    5.4491    0.6488   20.1406 C   0  0  0  0  0  0  0  0  0  0  0  0
    4.8280    1.3242   19.0880 C   0  0  0  0  0  0  0  0  0  0  0  0
    5.4265    1.3264   17.8196 C   0  0  0  0  0  0  0  0  0  0  0  0
    6.5770    0.6856   17.5576 N   0  0  0  0  0  0  0  0  0  0  0  0
    7.1701    0.0424   18.5715 C   0  0  0  0  0  0  0  0  0  0  0  0
    8.0868   -0.4884   18.3275 H   0  0  0  0  0  0  0  0  0  0  0  0
    4.9533    1.8389   16.9828 H   0  0  0  0  0  0  0  0  0  0  0  0
    3.8844    1.8376   19.2373 H   0  0  0  0  0  0  0  0  0  0  0  0
    5.0164    0.6010   21.1430 H   0  0  0  0  0  0  0  0  0  0  0  0
    9.6477    0.5063   19.8590 H   0  0  0  0  0  0  0  0  0  0  0  0
   10.5163    0.4061   21.3896 H   0  0  0  0  0  0  0  0  0  0  0  0
    8.1357    2.2205   20.6334 H   0  0  0  0  0  0  0  0  0  0  0  0
    9.8157    2.7228   20.9159 H   0  0  0  0  0  0  0  0  0  0  0  0
   10.7305    1.9141   23.8446 C   0  0  0  0  0  0  0  0  0  0  0  0
   11.8062    2.7512   22.7508 Cl  0  0  0  0  0  0  0  0  0  0  0  0
   11.3022    1.3330   24.9877 C   0  0  0  0  0  0  0  0  0  0  0  0
   12.3702    1.3605   25.1566 H   0  0  0  0  0  0  0  0  0  0  0  0
    7.4788    1.1379   24.3950 H   0  0  0  0  0  0  0  0  0  0  0  0
    8.5078    0.1794   26.5258 H   0  0  0  0  0  0  0  0  0  0  0  0
  1  2  1  0
  2  3  2  0
  3  4  1  0
  4  5  2  0
  5  6  1  0
  6  7  1  0
  7  8  1  0
  8  9  1  0
  9 10  2  0
 10 11  1  0
 11 12  1  0
 12 13  1  0
 13 14  1  0
 14 15  1  0
 15 16  1  0
 15 17  1  0
 15 18  1  0
 14 19  1  0
 14 20  1  0
 13 21  1  0
 13 22  1  0
 12 23  1  0
 11 24  2  0
 24 25  1  0
 25 26  1  0
 26 27  2  0
 27 28  1  0
 28 29  2  0
 29 30  1  0
 30 31  2  0
 31 32  1  0
 29 33  1  0
 28 34  1  0
 27 35  1  0
  8 36  1  0
  8 37  1  0
  7 38  1  0
  7 39  1  0
  5 40  1  0
 40 41  1  0
 40 42  2  0
 42 43  1  0
  4 44  1  0
  3 45  1  0
 42  2  1  0
 25  9  1  0
 31 26  1  0
 16 12  1  0
M  END
>  <cnnaffinity>  (1) 
-6.28031

>  <filename>  (1) 
Fc1ccc(OCCc2nc(C3CCCO3)nn2-c2cccnc2)c(Cl)c1

$$$$
