
     RDKit          3D

 41 44  0  0  0  0  0  0  0  0999 V2000
    4.4820    1.2868   27.8377 F   0  0  0  0  0  0  0  0  0  0  0  0
    5.5551    1.7225   27.1623 C   0  0  0  0  0  0  0  0  0  0  0  0
    6.3570    2.7227   27.7272 C   0  0  0  0  0  0  0  0  0  0  0  0
    7.4414    3.2062   27.1130 N   0  0  0  0  0  0  0  0  0  0  0  0
    7.7600    2.7157   25.9112 C   0  0  0  0  0  0  0  0  0  0  0  0
    7.0037    1.7276   25.2650 C   0  0  0  0  0  0  0  0  0  0  0  0
    7.4824    1.3130   23.9451 C   0  0  0  0  0  0  0  0  0  0  0  0
    6.9546    0.3381   23.2362 N   0  0  0  0  0  0  0  0  0  0  0  0
    7.7560    0.2721   22.1441 N   0  0  0  0  0  0  0  0  0  0  0  0
    7.3795   -0.6313   21.0566 C   0  0  0  0  0  0  0  0  0  0  0  0
    6.6786    0.0533   19.9041 C   0  0  0  0  0  0  0  0  0  0  0  0
    5.4590    0.7046   20.1267 C   0  0  0  0  0  0  0  0  0  0  0  0
    4.8325    1.3345   19.0513 C   0  0  0  0  0  0  0  0  0  0  0  0
    5.4509    1.2916   17.7968 C   0  0  0  0  0  0  0  0  0  0  0  0
    6.6061    0.6515   17.5587 N   0  0  0  0  0  0  0  0  0  0  0  0
    7.1895    0.0453   18.6004 C   0  0  0  0  0  0  0  0  0  0  0  0
    8.1086   -0.5019   18.3834 H   0  0  0  0  0  0  0  0  0  0  0  0
    4.9925    1.7801   16.9398 H   0  0  0  0  0  0  0  0  0  0  0  0
    3.8868    1.8539   19.1728 H   0  0  0  0  0  0  0  0  0  0  0  0
    5.0197    0.7090   21.1268 H   0  0  0  0  0  0  0  0  0  0  0  0
    6.6962   -1.3548   21.5109 H   0  0  0  0  0  0  0  0  0  0  0  0
    8.2553   -1.1886   20.7081 H   0  0  0  0  0  0  0  0  0  0  0  0
    8.7201    1.2227   22.2450 C   0  0  0  0  0  0  0  0  0  0  0  0
    9.9200    1.3838   21.3527 C   0  0  0  0  0  0  0  0  0  0  0  0
   11.1013    0.4928   21.7314 C   0  0  0  0  0  0  0  0  0  0  0  0
   11.2292   -0.7677   21.1425 C   0  0  0  0  0  0  0  0  0  0  0  0
   12.3884   -1.5157   21.3312 C   0  0  0  0  0  0  0  0  0  0  0  0
   13.3581   -1.0160   22.2000 C   0  0  0  0  0  0  0  0  0  0  0  0
   13.2174    0.1354   22.8702 N   0  0  0  0  0  0  0  0  0  0  0  0
   12.1251    0.8469   22.6455 C   0  0  0  0  0  0  0  0  0  0  0  0
   11.9625    2.3027   23.5884 Cl  0  0  0  0  0  0  0  0  0  0  0  0
   14.2787   -1.5586   22.3793 H   0  0  0  0  0  0  0  0  0  0  0  0
   12.5717   -2.4146   20.7670 H   0  0  0  0  0  0  0  0  0  0  0  0
   10.4231   -1.1516   20.5209 H   0  0  0  0  0  0  0  0  0  0  0  0
    9.6244    1.1693   20.3218 H   0  0  0  0  0  0  0  0  0  0  0  0
   10.2168    2.4392   21.3915 H   0  0  0  0  0  0  0  0  0  0  0  0
    8.5603    1.9010   23.3623 N   0  0  0  0  0  0  0  0  0  0  0  0
    5.8678    1.1940   25.9170 C   0  0  0  0  0  0  0  0  0  0  0  0
    5.2477    0.4017   25.4955 H   0  0  0  0  0  0  0  0  0  0  0  0
    8.6520    3.1233   25.4396 H   0  0  0  0  0  0  0  0  0  0  0  0
    6.1043    3.1350   28.7002 H   0  0  0  0  0  0  0  0  0  0  0  0
  1  2  1  0
  2  3  2  0
  3  4  1  0
  4  5  2  0
  5  6  1  0
  6  7  1  0
  7  8  2  0
  8  9  1  0
  9 10  1  0
 10 11  1  0
 11 12  2  0
 12 13  1  0
 13 14  2  0
 14 15  1  0
 15 16  2  0
 16 17  1  0
 14 18  1  0
 13 19  1  0
 12 20  1  0
 10 21  1  0
 10 22  1  0
  9 23  1  0
 23 24  1  0
 24 25  1  0
 25 26  2  0
 26 27  1  0
 27 28  2  0
 28 29  1  0
 29 30  2  0
 30 31  1  0
 28 32  1  0
 27 33  1  0
 26 34  1  0
 24 35  1  0
 24 36  1  0
 23 37  2  0
  6 38  2  0
 38 39  1  0
  5 40  1  0
  3 41  1  0
 38  2  1  0
 37  7  1  0
 16 11  1  0
 30 25  1  0
M  END
>  <cnnaffinity>  (1) 
-6.38066

>  <filename>  (1) 
Fc1cncc(-c2nc(Cc3cccnc3Cl)n(Cc3cccnc3)n2)c1

$$$$
