
     RDKit          3D

 45 48  0  0  0  0  0  0  0  0999 V2000
    2.9134    1.6413   25.4526 F   0  0  0  0  0  0  0  0  0  0  0  0
    4.1853    2.0555   25.5922 C   0  0  0  0  0  0  0  0  0  0  0  0
    4.4613    3.1583   26.3970 C   0  0  0  0  0  0  0  0  0  0  0  0
    5.7872    3.5941   26.5284 C   0  0  0  0  0  0  0  0  0  0  0  0
    6.7936    2.9170   25.8461 C   0  0  0  0  0  0  0  0  0  0  0  0
    8.0656    3.3528   25.9659 F   0  0  0  0  0  0  0  0  0  0  0  0
    6.5241    1.8090   25.0330 C   0  0  0  0  0  0  0  0  0  0  0  0
    7.5962    1.1768   24.1995 C   0  0  0  0  0  0  0  0  0  0  0  0
    7.6873    1.8349   22.7961 C   0  0  0  0  0  0  0  0  0  0  0  0
    8.6449    1.0722   21.9560 C   0  0  0  0  0  0  0  0  0  0  0  0
    9.9493    1.2445   22.0594 N   0  0  0  0  0  0  0  0  0  0  0  0
   10.4551    0.0915   21.5685 C   0  0  0  0  0  0  0  0  0  0  0  0
   11.8857   -0.2821   21.7198 C   0  0  0  0  0  0  0  0  0  0  0  0
   12.7968    0.5356   22.4071 C   0  0  0  0  0  0  0  0  0  0  0  0
   14.1189    0.1061   22.5176 C   0  0  0  0  0  0  0  0  0  0  0  0
   14.5516   -1.0859   22.0950 N   0  0  0  0  0  0  0  0  0  0  0  0
   13.6746   -1.8810   21.4801 C   0  0  0  0  0  0  0  0  0  0  0  0
   12.3503   -1.5241   21.2629 C   0  0  0  0  0  0  0  0  0  0  0  0
   11.6746   -2.1873   20.7462 H   0  0  0  0  0  0  0  0  0  0  0  0
   14.0495   -2.8320   21.1075 H   0  0  0  0  0  0  0  0  0  0  0  0
   14.8680    0.7456   22.9669 H   0  0  0  0  0  0  0  0  0  0  0  0
   12.4792    1.4654   22.8685 H   0  0  0  0  0  0  0  0  0  0  0  0
    9.5445   -0.7555   21.1232 N   0  0  0  0  0  0  0  0  0  0  0  0
    8.3842   -0.1241   21.3791 N   0  0  0  0  0  0  0  0  0  0  0  0
    7.1352   -0.7574   20.9791 C   0  0  0  0  0  0  0  0  0  0  0  0
    6.4587   -0.0036   19.8673 C   0  0  0  0  0  0  0  0  0  0  0  0
    5.2594    0.6829   20.0589 C   0  0  0  0  0  0  0  0  0  0  0  0
    4.7042    1.3752   18.9819 C   0  0  0  0  0  0  0  0  0  0  0  0
    5.3802    1.3607   17.7581 C   0  0  0  0  0  0  0  0  0  0  0  0
    6.5427    0.7189   17.5596 N   0  0  0  0  0  0  0  0  0  0  0  0
    7.0651    0.0640   18.6020 C   0  0  0  0  0  0  0  0  0  0  0  0
    8.0130   -0.4454   18.4211 H   0  0  0  0  0  0  0  0  0  0  0  0
    4.9686    1.8817   16.8959 H   0  0  0  0  0  0  0  0  0  0  0  0
    3.7740    1.9223   19.0813 H   0  0  0  0  0  0  0  0  0  0  0  0
    4.7732    0.6727   21.0377 H   0  0  0  0  0  0  0  0  0  0  0  0
    7.4112   -1.7701   20.6687 H   0  0  0  0  0  0  0  0  0  0  0  0
    6.4695   -0.8553   21.8465 H   0  0  0  0  0  0  0  0  0  0  0  0
    8.0689    2.8540   22.9011 H   0  0  0  0  0  0  0  0  0  0  0  0
    6.7071    1.8894   22.3122 H   0  0  0  0  0  0  0  0  0  0  0  0
    8.5684    1.2450   24.7040 H   0  0  0  0  0  0  0  0  0  0  0  0
    7.3767    0.1057   24.0844 H   0  0  0  0  0  0  0  0  0  0  0  0
    5.1949    1.3772   24.9183 C   0  0  0  0  0  0  0  0  0  0  0  0
    4.9439    0.5182   24.3015 H   0  0  0  0  0  0  0  0  0  0  0  0
    6.0622    4.4465   27.1417 H   0  0  0  0  0  0  0  0  0  0  0  0
    3.6418    3.6615   26.8976 H   0  0  0  0  0  0  0  0  0  0  0  0
  1  2  1  0
  2  3  2  0
  3  4  1  0
  4  5  2  0
  5  6  1  0
  5  7  1  0
  7  8  1  0
  8  9  1  0
  9 10  1  0
 10 11  2  0
 11 12  1  0
 12 13  1  0
 13 14  2  0
 14 15  1  0
 15 16  2  0
 16 17  1  0
 17 18  2  0
 18 19  1  0
 17 20  1  0
 15 21  1  0
 14 22  1  0
 12 23  2  0
 23 24  1  0
 24 25  1  0
 25 26  1  0
 26 27  2  0
 27 28  1  0
 28 29  2  0
 29 30  1  0
 30 31  2  0
 31 32  1  0
 29 33  1  0
 28 34  1  0
 27 35  1  0
 25 36  1  0
 25 37  1  0
  9 38  1  0
  9 39  1  0
  8 40  1  0
  8 41  1  0
  7 42  2  0
 42 43  1  0
  4 44  1  0
  3 45  1  0
 42  2  1  0
 24 10  1  0
 31 26  1  0
 18 13  1  0
M  END
>  <cnnaffinity>  (1) 
-6.69536

>  <filename>  (1) 
Fc1ccc(F)c(CCc2nc(-c3ccncc3)nn2Cc2cccnc2)c1

$$$$
