
     RDKit          3D

 43 46  0  0  0  0  0  0  0  0999 V2000
   15.1507   -1.2864   20.1123 F   0  0  0  0  0  0  0  0  0  0  0  0
   14.0799   -1.2044   20.9053 C   0  0  0  0  0  0  0  0  0  0  0  0
   13.0056   -1.9941   20.5343 C   0  0  0  0  0  0  0  0  0  0  0  0
   11.7875   -1.7772   21.1420 C   0  0  0  0  0  0  0  0  0  0  0  0
   11.5896   -0.6750   21.9827 C   0  0  0  0  0  0  0  0  0  0  0  0
   10.1981   -0.2207   22.1339 C   0  0  0  0  0  0  0  0  0  0  0  0
    9.1830   -0.9766   21.7342 N   0  0  0  0  0  0  0  0  0  0  0  0
    8.1036   -0.1812   21.8863 N   0  0  0  0  0  0  0  0  0  0  0  0
    6.8384   -0.6269   21.2856 C   0  0  0  0  0  0  0  0  0  0  0  0
    6.4001    0.1635   20.0644 C   0  0  0  0  0  0  0  0  0  0  0  0
    5.1903    0.8664   20.0327 C   0  0  0  0  0  0  0  0  0  0  0  0
    4.8042    1.5089   18.8528 C   0  0  0  0  0  0  0  0  0  0  0  0
    5.6480    1.4292   17.7424 C   0  0  0  0  0  0  0  0  0  0  0  0
    6.8240    0.7823   17.7571 N   0  0  0  0  0  0  0  0  0  0  0  0
    7.1874    0.1791   18.8967 C   0  0  0  0  0  0  0  0  0  0  0  0
    8.1488   -0.3380   18.8680 H   0  0  0  0  0  0  0  0  0  0  0  0
    5.3640    1.8917   16.7963 H   0  0  0  0  0  0  0  0  0  0  0  0
    3.8648    2.0470   18.7782 H   0  0  0  0  0  0  0  0  0  0  0  0
    4.5491    0.9014   20.9165 H   0  0  0  0  0  0  0  0  0  0  0  0
    6.0520   -0.6307   22.0461 H   0  0  0  0  0  0  0  0  0  0  0  0
    7.0134   -1.6763   21.0225 H   0  0  0  0  0  0  0  0  0  0  0  0
    8.5185    1.0051   22.4029 C   0  0  0  0  0  0  0  0  0  0  0  0
    7.6119    1.9939   23.0626 C   0  0  0  0  0  0  0  0  0  0  0  0
    7.2052    1.3983   24.3830 C   0  0  0  0  0  0  0  0  0  0  0  0
    8.0448    1.3634   25.3969 N   0  0  0  0  0  0  0  0  0  0  0  0
    7.5147    0.5149   26.3050 N   0  0  0  0  0  0  0  0  0  0  0  0
    8.3240    0.1560   27.4358 C   0  0  0  0  0  0  0  0  0  0  0  0
    7.7241    0.5404   28.5895 F   0  0  0  0  0  0  0  0  0  0  0  0
    8.4991   -1.1925   27.5131 F   0  0  0  0  0  0  0  0  0  0  0  0
    9.2794    0.6586   27.2881 H   0  0  0  0  0  0  0  0  0  0  0  0
    6.3098    0.0279   25.8838 C   0  0  0  0  0  0  0  0  0  0  0  0
    6.0764    0.5974   24.6582 C   0  0  0  0  0  0  0  0  0  0  0  0
    5.2221    0.4581   24.0150 H   0  0  0  0  0  0  0  0  0  0  0  0
    5.7471   -0.6892   26.4701 H   0  0  0  0  0  0  0  0  0  0  0  0
    6.7356    2.1880   22.4404 H   0  0  0  0  0  0  0  0  0  0  0  0
    8.1738    2.9151   23.2175 H   0  0  0  0  0  0  0  0  0  0  0  0
    9.8290    1.0176   22.5369 N   0  0  0  0  0  0  0  0  0  0  0  0
   12.7170    0.0345   22.4443 C   0  0  0  0  0  0  0  0  0  0  0  0
   13.9878   -0.2586   21.9349 C   0  0  0  0  0  0  0  0  0  0  0  0
   14.8645    0.3106   22.2302 H   0  0  0  0  0  0  0  0  0  0  0  0
   12.5933    0.8627   23.1384 H   0  0  0  0  0  0  0  0  0  0  0  0
   10.9202   -2.3689   20.8735 H   0  0  0  0  0  0  0  0  0  0  0  0
   13.1214   -2.7303   19.7479 H   0  0  0  0  0  0  0  0  0  0  0  0
  1  2  1  0
  2  3  2  0
  3  4  1  0
  4  5  2  0
  5  6  1  0
  6  7  2  0
  7  8  1  0
  8  9  1  0
  9 10  1  0
 10 11  2  0
 11 12  1  0
 12 13  2  0
 13 14  1  0
 14 15  2  0
 15 16  1  0
 13 17  1  0
 12 18  1  0
 11 19  1  0
  9 20  1  0
  9 21  1  0
  8 22  1  0
 22 23  1  0
 23 24  1  0
 24 25  2  0
 25 26  1  0
 26 27  1  0
 27 28  1  0
 27 29  1  0
 27 30  1  0
 26 31  1  0
 31 32  2  0
 32 33  1  0
 31 34  1  0
 23 35  1  0
 23 36  1  0
 22 37  2  0
  5 38  1  0
 38 39  2  0
 39 40  1  0
 38 41  1  0
  4 42  1  0
  3 43  1  0
 39  2  1  0
 37  6  1  0
 15 10  1  0
 32 24  1  0
M  END
>  <cnnaffinity>  (1) 
-6.70666

>  <filename>  (1) 
Fc1ccc(-c2nc(Cc3ccn(C(F)F)n3)n(Cc3cccnc3)n2)cc1

$$$$
