
     RDKit          3D

 47 50  0  0  0  0  0  0  0  0999 V2000
   13.5386    0.5757   25.0796 F   0  0  0  0  0  0  0  0  0  0  0  0
   12.3645    1.0987   24.6928 C   0  0  0  0  0  0  0  0  0  0  0  0
   11.1892    0.4450   25.0343 C   0  0  0  0  0  0  0  0  0  0  0  0
    9.9855    0.8885   24.4825 C   0  0  0  0  0  0  0  0  0  0  0  0
    9.9562    1.9871   23.6022 C   0  0  0  0  0  0  0  0  0  0  0  0
    8.7274    2.2665   22.7549 C   0  0  0  0  0  0  0  0  0  0  0  0
    8.9881    2.0251   21.2470 C   0  0  0  0  0  0  0  0  0  0  0  0
    9.5145    0.6091   20.9146 C   0  0  0  0  0  0  0  0  0  0  0  0
    8.6254   -0.4923   21.3861 C   0  0  0  0  0  0  0  0  0  0  0  0
    8.8721   -1.3533   22.3550 N   0  0  0  0  0  0  0  0  0  0  0  0
    7.6641   -1.9452   22.5672 C   0  0  0  0  0  0  0  0  0  0  0  0
    7.4375   -3.0068   23.6304 C   0  0  0  0  0  0  0  0  0  0  0  0
    8.2952   -4.2841   23.4052 C   0  0  0  0  0  0  0  0  0  0  0  0
    8.6836   -4.7107   24.8219 C   0  0  0  0  0  0  0  0  0  0  0  0
    8.7245   -3.3757   25.5615 C   0  0  0  0  0  0  0  0  0  0  0  0
    7.7245   -2.5630   24.9611 O   0  0  0  0  0  0  0  0  0  0  0  0
    9.7094   -2.8871   25.4649 H   0  0  0  0  0  0  0  0  0  0  0  0
    8.4764   -3.4744   26.6236 H   0  0  0  0  0  0  0  0  0  0  0  0
    9.6512   -5.2217   24.8541 H   0  0  0  0  0  0  0  0  0  0  0  0
    7.9287   -5.3747   25.2632 H   0  0  0  0  0  0  0  0  0  0  0  0
    9.1964   -4.0252   22.8343 H   0  0  0  0  0  0  0  0  0  0  0  0
    7.7455   -5.0578   22.8576 H   0  0  0  0  0  0  0  0  0  0  0  0
    6.3649   -3.2257   23.5867 H   0  0  0  0  0  0  0  0  0  0  0  0
    6.7137   -1.5580   21.7356 N   0  0  0  0  0  0  0  0  0  0  0  0
    7.3404   -0.6432   20.9488 N   0  0  0  0  0  0  0  0  0  0  0  0
    6.6487    0.0058   19.8860 C   0  0  0  0  0  0  0  0  0  0  0  0
    5.4279    0.6397   20.1391 C   0  0  0  0  0  0  0  0  0  0  0  0
    4.8076    1.3166   19.0869 C   0  0  0  0  0  0  0  0  0  0  0  0
    5.4061    1.3130   17.8214 C   0  0  0  0  0  0  0  0  0  0  0  0
    6.5568    0.6758   17.5609 N   0  0  0  0  0  0  0  0  0  0  0  0
    7.1584    0.0391   18.5730 C   0  0  0  0  0  0  0  0  0  0  0  0
    8.0916   -0.4704   18.3328 H   0  0  0  0  0  0  0  0  0  0  0  0
    4.9382    1.8271   16.9851 H   0  0  0  0  0  0  0  0  0  0  0  0
    3.8760    1.8465   19.2371 H   0  0  0  0  0  0  0  0  0  0  0  0
    5.0012    0.6002   21.1425 H   0  0  0  0  0  0  0  0  0  0  0  0
    9.6281    0.5194   19.8323 H   0  0  0  0  0  0  0  0  0  0  0  0
   10.5002    0.4521   21.3682 H   0  0  0  0  0  0  0  0  0  0  0  0
    9.7488    2.7413   20.9155 H   0  0  0  0  0  0  0  0  0  0  0  0
    8.0736    2.2298   20.6723 H   0  0  0  0  0  0  0  0  0  0  0  0
    7.8993    1.6194   23.0778 H   0  0  0  0  0  0  0  0  0  0  0  0
    8.3742    3.2983   22.8925 H   0  0  0  0  0  0  0  0  0  0  0  0
   11.1434    2.7291   23.4144 C   0  0  0  0  0  0  0  0  0  0  0  0
   12.3589    2.2647   23.9347 C   0  0  0  0  0  0  0  0  0  0  0  0
   13.3131    2.7423   23.7597 H   0  0  0  0  0  0  0  0  0  0  0  0
   11.1160    3.6529   22.8331 H   0  0  0  0  0  0  0  0  0  0  0  0
    9.0662    0.3342   24.6794 H   0  0  0  0  0  0  0  0  0  0  0  0
   11.2238   -0.3843   25.7317 H   0  0  0  0  0  0  0  0  0  0  0  0
  1  2  1  0
  2  3  2  0
  3  4  1  0
  4  5  2  0
  5  6  1  0
  6  7  1  0
  7  8  1  0
  8  9  1  0
  9 10  2  0
 10 11  1  0
 11 12  1  0
 12 13  1  0
 13 14  1  0
 14 15  1  0
 15 16  1  0
 15 17  1  0
 15 18  1  0
 14 19  1  0
 14 20  1  0
 13 21  1  0
 13 22  1  0
 12 23  1  0
 11 24  2  0
 24 25  1  0
 25 26  1  0
 26 27  2  0
 27 28  1  0
 28 29  2  0
 29 30  1  0
 30 31  2  0
 31 32  1  0
 29 33  1  0
 28 34  1  0
 27 35  1  0
  8 36  1  0
  8 37  1  0
  7 38  1  0
  7 39  1  0
  6 40  1  0
  6 41  1  0
  5 42  1  0
 42 43  2  0
 43 44  1  0
 42 45  1  0
  4 46  1  0
  3 47  1  0
 43  2  1  0
 25  9  1  0
 31 26  1  0
 16 12  1  0
M  END
>  <cnnaffinity>  (1) 
-6.30799

>  <filename>  (1) 
Fc1ccc(CCCc2nc(C3CCCO3)nn2-c2cccnc2)cc1

$$$$
