
     RDKit          3D

 42 45  0  0  0  0  0  0  0  0999 V2000
    5.4534   -6.3573   26.1638 F   0  0  0  0  0  0  0  0  0  0  0  0
    5.4987   -5.0999   25.6941 C   0  0  0  0  0  0  0  0  0  0  0  0
    5.6333   -4.0480   26.5994 C   0  0  0  0  0  0  0  0  0  0  0  0
    5.6991   -2.7514   26.0841 C   0  0  0  0  0  0  0  0  0  0  0  0
    5.6344   -2.5034   24.7020 C   0  0  0  0  0  0  0  0  0  0  0  0
    5.4831   -3.5883   23.8232 C   0  0  0  0  0  0  0  0  0  0  0  0
    5.3665   -3.5311   22.4651 O   0  0  0  0  0  0  0  0  0  0  0  0
    5.7528   -2.4882   21.5856 C   0  0  0  0  0  0  0  0  0  0  0  0
    7.0843   -1.7993   21.7658 C   0  0  0  0  0  0  0  0  0  0  0  0
    8.1116   -2.1245   22.5330 N   0  0  0  0  0  0  0  0  0  0  0  0
    9.0501   -1.2008   22.2134 C   0  0  0  0  0  0  0  0  0  0  0  0
   10.4007   -1.1871   22.8579 C   0  0  0  0  0  0  0  0  0  0  0  0
   11.0039    0.1665   23.3256 C   0  0  0  0  0  0  0  0  0  0  0  0
   12.5231   -0.0048   23.0826 C   0  0  0  0  0  0  0  0  0  0  0  0
   12.7056   -1.2309   22.3955 O   0  0  0  0  0  0  0  0  0  0  0  0
   11.4787   -1.7112   21.8990 C   0  0  0  0  0  0  0  0  0  0  0  0
   11.5240   -2.8011   21.9309 H   0  0  0  0  0  0  0  0  0  0  0  0
   11.2992   -1.3653   20.8664 H   0  0  0  0  0  0  0  0  0  0  0  0
   13.0960   -0.0595   24.0165 H   0  0  0  0  0  0  0  0  0  0  0  0
   12.9515    0.8263   22.5017 H   0  0  0  0  0  0  0  0  0  0  0  0
   10.6119    1.0102   22.7463 H   0  0  0  0  0  0  0  0  0  0  0  0
   10.7947    0.3643   24.3823 H   0  0  0  0  0  0  0  0  0  0  0  0
   10.3286   -1.8677   23.7112 H   0  0  0  0  0  0  0  0  0  0  0  0
    8.7066   -0.3764   21.2467 N   0  0  0  0  0  0  0  0  0  0  0  0
    7.4255   -0.7348   20.9786 N   0  0  0  0  0  0  0  0  0  0  0  0
    6.7023   -0.0306   19.9731 C   0  0  0  0  0  0  0  0  0  0  0  0
    5.4742    0.6086   20.2140 C   0  0  0  0  0  0  0  0  0  0  0  0
    4.8588    1.2643   19.1372 C   0  0  0  0  0  0  0  0  0  0  0  0
    5.4781    1.2499   17.8834 C   0  0  0  0  0  0  0  0  0  0  0  0
    6.6605    0.6481   17.6604 N   0  0  0  0  0  0  0  0  0  0  0  0
    7.2673    0.0565   18.6902 C   0  0  0  0  0  0  0  0  0  0  0  0
    8.2474   -0.3831   18.5070 H   0  0  0  0  0  0  0  0  0  0  0  0
    5.0291    1.7513   17.0250 H   0  0  0  0  0  0  0  0  0  0  0  0
    3.9171    1.7875   19.2589 H   0  0  0  0  0  0  0  0  0  0  0  0
    5.0273    0.6263   21.2110 H   0  0  0  0  0  0  0  0  0  0  0  0
    5.7478   -2.9774   20.6092 H   0  0  0  0  0  0  0  0  0  0  0  0
    4.9690   -1.7295   21.5213 H   0  0  0  0  0  0  0  0  0  0  0  0
    5.4105   -4.8976   24.3273 C   0  0  0  0  0  0  0  0  0  0  0  0
    5.3098   -5.7388   23.6529 H   0  0  0  0  0  0  0  0  0  0  0  0
    5.7711   -1.4988   24.3139 H   0  0  0  0  0  0  0  0  0  0  0  0
    5.8126   -1.9169   26.7696 H   0  0  0  0  0  0  0  0  0  0  0  0
    5.6843   -4.2633   27.6623 H   0  0  0  0  0  0  0  0  0  0  0  0
  1  2  1  0
  2  3  2  0
  3  4  1  0
  4  5  2  0
  5  6  1  0
  6  7  1  0
  7  8  1  0
  8  9  1  0
  9 10  2  0
 10 11  1  0
 11 12  1  0
 12 13  1  0
 13 14  1  0
 14 15  1  0
 15 16  1  0
 16 17  1  0
 16 18  1  0
 14 19  1  0
 14 20  1  0
 13 21  1  0
 13 22  1  0
 12 23  1  0
 11 24  2  0
 24 25  1  0
 25 26  1  0
 26 27  2  0
 27 28  1  0
 28 29  2  0
 29 30  1  0
 30 31  2  0
 31 32  1  0
 29 33  1  0
 28 34  1  0
 27 35  1  0
  8 36  1  0
  8 37  1  0
  6 38  2  0
 38 39  1  0
  5 40  1  0
  4 41  1  0
  3 42  1  0
 38  2  1  0
 25  9  1  0
 31 26  1  0
 16 12  1  0
M  END
>  <cnnaffinity>  (1) 
-5.92728

>  <filename>  (1) 
Fc1cccc(OCc2nc(C3CCOC3)nn2-c2cccnc2)c1

$$$$
