
     RDKit          3D

 42 45  0  0  0  0  0  0  0  0999 V2000
    4.7067    2.2563   27.2693 F   0  0  0  0  0  0  0  0  0  0  0  0
    5.8924    2.5427   26.7122 C   0  0  0  0  0  0  0  0  0  0  0  0
    6.7226    3.4664   27.3426 C   0  0  0  0  0  0  0  0  0  0  0  0
    7.9555    3.7556   26.7485 C   0  0  0  0  0  0  0  0  0  0  0  0
    8.3416    3.1322   25.5597 C   0  0  0  0  0  0  0  0  0  0  0  0
    7.4818    2.2017   24.9349 C   0  0  0  0  0  0  0  0  0  0  0  0
    7.8744    1.5413   23.6672 C   0  0  0  0  0  0  0  0  0  0  0  0
    7.1556    0.5881   23.0924 N   0  0  0  0  0  0  0  0  0  0  0  0
    7.9048    0.2383   22.0234 N   0  0  0  0  0  0  0  0  0  0  0  0
    7.3852   -0.6847   21.0158 C   0  0  0  0  0  0  0  0  0  0  0  0
    6.6507    0.0029   19.8848 C   0  0  0  0  0  0  0  0  0  0  0  0
    5.4339    0.6455   20.1435 C   0  0  0  0  0  0  0  0  0  0  0  0
    4.8017    1.3087   19.0909 C   0  0  0  0  0  0  0  0  0  0  0  0
    5.3955    1.2988   17.8253 C   0  0  0  0  0  0  0  0  0  0  0  0
    6.5572    0.6812   17.5582 N   0  0  0  0  0  0  0  0  0  0  0  0
    7.1586    0.0579   18.5789 C   0  0  0  0  0  0  0  0  0  0  0  0
    8.1078   -0.4256   18.3411 H   0  0  0  0  0  0  0  0  0  0  0  0
    4.9201    1.7968   16.9827 H   0  0  0  0  0  0  0  0  0  0  0  0
    3.8752    1.8434   19.2440 H   0  0  0  0  0  0  0  0  0  0  0  0
    5.0300    0.6382   21.1618 H   0  0  0  0  0  0  0  0  0  0  0  0
    8.2261   -1.2741   20.6337 H   0  0  0  0  0  0  0  0  0  0  0  0
    6.7270   -1.3634   21.5647 H   0  0  0  0  0  0  0  0  0  0  0  0
    9.0074    1.0181   21.9802 C   0  0  0  0  0  0  0  0  0  0  0  0
   10.0845    0.8364   20.9686 C   0  0  0  0  0  0  0  0  0  0  0  0
   11.0653   -0.3153   21.3193 C   0  0  0  0  0  0  0  0  0  0  0  0
   11.8046   -0.0174   22.5961 C   0  0  0  0  0  0  0  0  0  0  0  0
   12.8852    0.7803   22.7958 C   0  0  0  0  0  0  0  0  0  0  0  0
   13.1782    0.8802   24.0984 O   0  0  0  0  0  0  0  0  0  0  0  0
   12.2620    0.1558   24.8214 N   0  0  0  0  0  0  0  0  0  0  0  0
   11.4503   -0.3607   23.9399 C   0  0  0  0  0  0  0  0  0  0  0  0
   10.6426   -1.0023   24.2784 H   0  0  0  0  0  0  0  0  0  0  0  0
   13.5223    1.3537   22.1400 H   0  0  0  0  0  0  0  0  0  0  0  0
   11.7675   -0.4967   20.4995 H   0  0  0  0  0  0  0  0  0  0  0  0
   10.5104   -1.2593   21.4142 H   0  0  0  0  0  0  0  0  0  0  0  0
   10.6306    1.7820   20.9141 H   0  0  0  0  0  0  0  0  0  0  0  0
    9.6236    0.6802   19.9872 H   0  0  0  0  0  0  0  0  0  0  0  0
    9.0130    1.8575   22.9938 N   0  0  0  0  0  0  0  0  0  0  0  0
    6.2385    1.9041   25.5283 C   0  0  0  0  0  0  0  0  0  0  0  0
    5.5491    1.1885   25.0841 H   0  0  0  0  0  0  0  0  0  0  0  0
    9.3034    3.3676   25.1095 H   0  0  0  0  0  0  0  0  0  0  0  0
    8.6162    4.4780   27.2191 H   0  0  0  0  0  0  0  0  0  0  0  0
    6.3896    3.9291   28.2676 H   0  0  0  0  0  0  0  0  0  0  0  0
  1  2  1  0
  2  3  2  0
  3  4  1  0
  4  5  2  0
  5  6  1  0
  6  7  1  0
  7  8  2  0
  8  9  1  0
  9 10  1  0
 10 11  1  0
 11 12  2  0
 12 13  1  0
 13 14  2  0
 14 15  1  0
 15 16  2  0
 16 17  1  0
 14 18  1  0
 13 19  1  0
 12 20  1  0
 10 21  1  0
 10 22  1  0
  9 23  1  0
 23 24  1  0
 24 25  1  0
 25 26  1  0
 26 27  2  0
 27 28  1  0
 28 29  1  0
 29 30  2  0
 30 31  1  0
 27 32  1  0
 25 33  1  0
 25 34  1  0
 24 35  1  0
 24 36  1  0
 23 37  2  0
  6 38  2  0
 38 39  1  0
  5 40  1  0
  4 41  1  0
  3 42  1  0
 38  2  1  0
 37  7  1  0
 16 11  1  0
 30 26  1  0
M  END
>  <cnnaffinity>  (1) 
-5.73202

>  <filename>  (1) 
Fc1cccc(-c2nc(CCc3cnoc3)n(Cc3cccnc3)n2)c1

$$$$
