
     RDKit          3D

 40 43  0  0  0  0  0  0  0  0999 V2000
   12.2192   -1.0533   21.2423 F   0  0  0  0  0  0  0  0  0  0  0  0
   11.8957    0.0635   21.9051 C   0  0  0  0  0  0  0  0  0  0  0  0
   12.7781    0.5966   22.8679 C   0  0  0  0  0  0  0  0  0  0  0  0
   14.3269   -0.1416   23.0938 Cl  0  0  0  0  0  0  0  0  0  0  0  0
   12.5086    1.6648   23.6016 N   0  0  0  0  0  0  0  0  0  0  0  0
   11.3455    2.2899   23.3745 C   0  0  0  0  0  0  0  0  0  0  0  0
   10.4335    1.8798   22.4030 C   0  0  0  0  0  0  0  0  0  0  0  0
   10.6947    0.7272   21.6519 C   0  0  0  0  0  0  0  0  0  0  0  0
    9.6552    0.1872   20.7011 C   0  0  0  0  0  0  0  0  0  0  0  0
    8.5789   -0.5904   21.3771 C   0  0  0  0  0  0  0  0  0  0  0  0
    8.7542   -1.3919   22.4049 N   0  0  0  0  0  0  0  0  0  0  0  0
    7.5332   -1.9611   22.5769 C   0  0  0  0  0  0  0  0  0  0  0  0
    7.3875   -3.0620   23.5995 C   0  0  0  0  0  0  0  0  0  0  0  0
    7.4481   -4.4964   22.9918 C   0  0  0  0  0  0  0  0  0  0  0  0
    6.4917   -5.2902   23.8901 C   0  0  0  0  0  0  0  0  0  0  0  0
    5.4873   -4.2272   24.3392 C   0  0  0  0  0  0  0  0  0  0  0  0
    6.1904   -2.9943   24.3564 O   0  0  0  0  0  0  0  0  0  0  0  0
    5.1080   -4.3909   25.3528 H   0  0  0  0  0  0  0  0  0  0  0  0
    4.6334   -4.1481   23.6504 H   0  0  0  0  0  0  0  0  0  0  0  0
    6.0004   -6.1161   23.3681 H   0  0  0  0  0  0  0  0  0  0  0  0
    7.0167   -5.7059   24.7571 H   0  0  0  0  0  0  0  0  0  0  0  0
    7.0868   -4.4827   21.9557 H   0  0  0  0  0  0  0  0  0  0  0  0
    8.4696   -4.8940   22.9876 H   0  0  0  0  0  0  0  0  0  0  0  0
    8.2329   -2.8896   24.2777 H   0  0  0  0  0  0  0  0  0  0  0  0
    6.6150   -1.5751   21.7087 N   0  0  0  0  0  0  0  0  0  0  0  0
    7.2903   -0.6938   20.9277 N   0  0  0  0  0  0  0  0  0  0  0  0
    6.6256   -0.0173   19.8672 C   0  0  0  0  0  0  0  0  0  0  0  0
    5.4154    0.6312   20.1282 C   0  0  0  0  0  0  0  0  0  0  0  0
    4.7958    1.3165   19.0832 C   0  0  0  0  0  0  0  0  0  0  0  0
    5.3945    1.3073   17.8193 C   0  0  0  0  0  0  0  0  0  0  0  0
    6.5403    0.6609   17.5523 N   0  0  0  0  0  0  0  0  0  0  0  0
    7.1435    0.0184   18.5606 C   0  0  0  0  0  0  0  0  0  0  0  0
    8.0845   -0.4788   18.3168 H   0  0  0  0  0  0  0  0  0  0  0  0
    4.9352    1.8380   16.9903 H   0  0  0  0  0  0  0  0  0  0  0  0
    3.8700    1.8567   19.2453 H   0  0  0  0  0  0  0  0  0  0  0  0
    4.9988    0.5853   21.1340 H   0  0  0  0  0  0  0  0  0  0  0  0
    9.1975    1.0018   20.1404 H   0  0  0  0  0  0  0  0  0  0  0  0
   10.1190   -0.4895   19.9808 H   0  0  0  0  0  0  0  0  0  0  0  0
    9.5335    2.4578   22.2300 H   0  0  0  0  0  0  0  0  0  0  0  0
   11.1425    3.1562   23.9952 H   0  0  0  0  0  0  0  0  0  0  0  0
  1  2  1  0
  2  3  2  0
  3  4  1  0
  3  5  1  0
  5  6  2  0
  6  7  1  0
  7  8  2  0
  8  9  1  0
  9 10  1  0
 10 11  2  0
 11 12  1  0
 12 13  1  0
 13 14  1  0
 14 15  1  0
 15 16  1  0
 16 17  1  0
 16 18  1  0
 16 19  1  0
 15 20  1  0
 15 21  1  0
 14 22  1  0
 14 23  1  0
 13 24  1  0
 12 25  2  0
 25 26  1  0
 26 27  1  0
 27 28  2  0
 28 29  1  0
 29 30  2  0
 30 31  1  0
 31 32  2  0
 32 33  1  0
 30 34  1  0
 29 35  1  0
 28 36  1  0
  9 37  1  0
  9 38  1  0
  7 39  1  0
  6 40  1  0
  8  2  1  0
 26 10  1  0
 32 27  1  0
 17 13  1  0
M  END
>  <cnnaffinity>  (1) 
-6.66852

>  <filename>  (1) 
Fc1c(Cc2nc(C3CCCO3)nn2-c2cccnc2)ccnc1Cl

$$$$
