
     RDKit          3D

 41 44  0  0  0  0  0  0  0  0999 V2000
    9.5999    4.5607   25.2877 F   0  0  0  0  0  0  0  0  0  0  0  0
    9.8093    3.6426   24.3314 C   0  0  0  0  0  0  0  0  0  0  0  0
    8.7392    3.1714   23.5874 C   0  0  0  0  0  0  0  0  0  0  0  0
    8.9768    2.2215   22.5838 C   0  0  0  0  0  0  0  0  0  0  0  0
   10.2563    1.6918   22.3599 C   0  0  0  0  0  0  0  0  0  0  0  0
   10.5775    0.7266   21.4501 O   0  0  0  0  0  0  0  0  0  0  0  0
    9.5963    0.1137   20.6267 C   0  0  0  0  0  0  0  0  0  0  0  0
    8.5386   -0.6728   21.3344 C   0  0  0  0  0  0  0  0  0  0  0  0
    8.7313   -1.4666   22.3670 N   0  0  0  0  0  0  0  0  0  0  0  0
    7.5075   -2.0165   22.5644 C   0  0  0  0  0  0  0  0  0  0  0  0
    7.2751   -2.9812   23.6780 C   0  0  0  0  0  0  0  0  0  0  0  0
    6.4470   -4.2687   23.3746 C   0  0  0  0  0  0  0  0  0  0  0  0
    5.3384   -3.7853   24.3377 C   0  0  0  0  0  0  0  0  0  0  0  0
    6.2182   -2.5868   24.7605 C   0  0  0  0  0  0  0  0  0  0  0  0
    6.6146   -2.6504   25.7792 H   0  0  0  0  0  0  0  0  0  0  0  0
    5.7657   -1.5978   24.6364 H   0  0  0  0  0  0  0  0  0  0  0  0
    5.0602   -4.4782   25.1393 H   0  0  0  0  0  0  0  0  0  0  0  0
    4.4203   -3.4857   23.8209 H   0  0  0  0  0  0  0  0  0  0  0  0
    6.9565   -5.1794   23.7059 H   0  0  0  0  0  0  0  0  0  0  0  0
    6.1472   -4.4069   22.3305 H   0  0  0  0  0  0  0  0  0  0  0  0
    8.2658   -3.1900   24.0940 H   0  0  0  0  0  0  0  0  0  0  0  0
    6.5813   -1.6278   21.7069 N   0  0  0  0  0  0  0  0  0  0  0  0
    7.2555   -0.7883   20.8793 N   0  0  0  0  0  0  0  0  0  0  0  0
    6.5738   -0.1030   19.8316 C   0  0  0  0  0  0  0  0  0  0  0  0
    5.3835    0.5824   20.1028 C   0  0  0  0  0  0  0  0  0  0  0  0
    4.7945    1.3126   19.0675 C   0  0  0  0  0  0  0  0  0  0  0  0
    5.3983    1.3168   17.8036 C   0  0  0  0  0  0  0  0  0  0  0  0
    6.5123    0.6248   17.5231 N   0  0  0  0  0  0  0  0  0  0  0  0
    7.0750   -0.0745   18.5149 C   0  0  0  0  0  0  0  0  0  0  0  0
    7.9755   -0.6313   18.2599 H   0  0  0  0  0  0  0  0  0  0  0  0
    4.9646    1.8803   16.9812 H   0  0  0  0  0  0  0  0  0  0  0  0
    3.8813    1.8752   19.2281 H   0  0  0  0  0  0  0  0  0  0  0  0
    4.9547    0.5405   21.1058 H   0  0  0  0  0  0  0  0  0  0  0  0
   10.1757   -0.6082   20.0529 H   0  0  0  0  0  0  0  0  0  0  0  0
    9.1737    0.8481   19.9348 H   0  0  0  0  0  0  0  0  0  0  0  0
   11.3058    2.1899   23.1712 C   0  0  0  0  0  0  0  0  0  0  0  0
   12.5407    1.6790   23.0346 F   0  0  0  0  0  0  0  0  0  0  0  0
   11.1069    3.1822   24.1212 C   0  0  0  0  0  0  0  0  0  0  0  0
   11.9325    3.5711   24.7070 H   0  0  0  0  0  0  0  0  0  0  0  0
    8.1405    1.8917   21.9730 H   0  0  0  0  0  0  0  0  0  0  0  0
    7.7405    3.5333   23.8168 H   0  0  0  0  0  0  0  0  0  0  0  0
  1  2  1  0
  2  3  2  0
  3  4  1  0
  4  5  2  0
  5  6  1  0
  6  7  1  0
  7  8  1  0
  8  9  2  0
  9 10  1  0
 10 11  1  0
 11 12  1  0
 12 13  1  0
 13 14  1  0
 14 15  1  0
 14 16  1  0
 13 17  1  0
 13 18  1  0
 12 19  1  0
 12 20  1  0
 11 21  1  0
 10 22  2  0
 22 23  1  0
 23 24  1  0
 24 25  2  0
 25 26  1  0
 26 27  2  0
 27 28  1  0
 28 29  2  0
 29 30  1  0
 27 31  1  0
 26 32  1  0
 25 33  1  0
  7 34  1  0
  7 35  1  0
  5 36  1  0
 36 37  1  0
 36 38  2  0
 38 39  1  0
  4 40  1  0
  3 41  1  0
 38  2  1  0
 23  8  1  0
 29 24  1  0
 14 11  1  0
M  END
>  <cnnaffinity>  (1) 
-6.34107

>  <filename>  (1) 
Fc1ccc(OCc2nc(C3CCC3)nn2-c2cccnc2)c(F)c1

$$$$
