
     RDKit          3D

 41 44  0  0  0  0  0  0  0  0999 V2000
   12.1654   -1.0440   21.2703 F   0  0  0  0  0  0  0  0  0  0  0  0
   11.8741    0.0815   21.9385 C   0  0  0  0  0  0  0  0  0  0  0  0
   12.7811    0.5637   22.8899 C   0  0  0  0  0  0  0  0  0  0  0  0
   14.3185   -0.2098   23.0937 Cl  0  0  0  0  0  0  0  0  0  0  0  0
   12.4465    1.6848   23.6566 C   0  0  0  0  0  0  0  0  0  0  0  0
   11.2519    2.3713   23.4071 C   0  0  0  0  0  0  0  0  0  0  0  0
   10.3815    1.9130   22.4107 C   0  0  0  0  0  0  0  0  0  0  0  0
   10.6716    0.7547   21.6763 C   0  0  0  0  0  0  0  0  0  0  0  0
    9.6593    0.1986   20.6938 C   0  0  0  0  0  0  0  0  0  0  0  0
    8.6050   -0.6366   21.3364 C   0  0  0  0  0  0  0  0  0  0  0  0
    8.8025   -1.4929   22.3149 N   0  0  0  0  0  0  0  0  0  0  0  0
    7.5749   -2.0373   22.5076 C   0  0  0  0  0  0  0  0  0  0  0  0
    7.3753   -2.9551   23.6788 C   0  0  0  0  0  0  0  0  0  0  0  0
    6.9076   -2.2006   24.9585 C   0  0  0  0  0  0  0  0  0  0  0  0
    5.9917   -3.2214   25.6454 C   0  0  0  0  0  0  0  0  0  0  0  0
    5.4513   -4.0416   24.4689 C   0  0  0  0  0  0  0  0  0  0  0  0
    6.4255   -3.9783   23.4356 O   0  0  0  0  0  0  0  0  0  0  0  0
    4.4981   -3.6437   24.0940 H   0  0  0  0  0  0  0  0  0  0  0  0
    5.2976   -5.1005   24.7050 H   0  0  0  0  0  0  0  0  0  0  0  0
    6.5594   -3.8638   26.3278 H   0  0  0  0  0  0  0  0  0  0  0  0
    5.1878   -2.7562   26.2294 H   0  0  0  0  0  0  0  0  0  0  0  0
    7.7589   -1.8757   25.5703 H   0  0  0  0  0  0  0  0  0  0  0  0
    6.3501   -1.2954   24.6778 H   0  0  0  0  0  0  0  0  0  0  0  0
    8.3671   -3.4102   23.8203 H   0  0  0  0  0  0  0  0  0  0  0  0
    6.6277   -1.5754   21.7111 N   0  0  0  0  0  0  0  0  0  0  0  0
    7.2985   -0.6890   20.9374 N   0  0  0  0  0  0  0  0  0  0  0  0
    6.6423    0.0000   19.8844 C   0  0  0  0  0  0  0  0  0  0  0  0
    5.4292    0.6438   20.1408 C   0  0  0  0  0  0  0  0  0  0  0  0
    4.7957    1.3171   19.0948 C   0  0  0  0  0  0  0  0  0  0  0  0
    5.3920    1.3001   17.8283 C   0  0  0  0  0  0  0  0  0  0  0  0
    6.5422    0.6610   17.5676 N   0  0  0  0  0  0  0  0  0  0  0  0
    7.1557    0.0333   18.5761 C   0  0  0  0  0  0  0  0  0  0  0  0
    8.0982   -0.4573   18.3323 H   0  0  0  0  0  0  0  0  0  0  0  0
    4.9319    1.8217   16.9924 H   0  0  0  0  0  0  0  0  0  0  0  0
    3.8628    1.8555   19.2481 H   0  0  0  0  0  0  0  0  0  0  0  0
    5.0111    0.5946   21.1437 H   0  0  0  0  0  0  0  0  0  0  0  0
   10.1489   -0.4642   19.9743 H   0  0  0  0  0  0  0  0  0  0  0  0
    9.1764    1.0113   20.1431 H   0  0  0  0  0  0  0  0  0  0  0  0
    9.4559    2.4491   22.1980 H   0  0  0  0  0  0  0  0  0  0  0  0
   10.9958    3.2587   23.9830 H   0  0  0  0  0  0  0  0  0  0  0  0
   13.1333    1.9940   24.4378 H   0  0  0  0  0  0  0  0  0  0  0  0
  1  2  1  0
  2  3  2  0
  3  4  1  0
  3  5  1  0
  5  6  2  0
  6  7  1  0
  7  8  2  0
  8  9  1  0
  9 10  1  0
 10 11  2  0
 11 12  1  0
 12 13  1  0
 13 14  1  0
 14 15  1  0
 15 16  1  0
 16 17  1  0
 16 18  1  0
 16 19  1  0
 15 20  1  0
 15 21  1  0
 14 22  1  0
 14 23  1  0
 13 24  1  0
 12 25  2  0
 25 26  1  0
 26 27  1  0
 27 28  2  0
 28 29  1  0
 29 30  2  0
 30 31  1  0
 31 32  2  0
 32 33  1  0
 30 34  1  0
 29 35  1  0
 28 36  1  0
  9 37  1  0
  9 38  1  0
  7 39  1  0
  6 40  1  0
  5 41  1  0
  8  2  1  0
 26 10  1  0
 32 27  1  0
 17 13  1  0
M  END
>  <cnnaffinity>  (1) 
-6.70161

>  <filename>  (1) 
Fc1c(Cl)cccc1Cc1nc(C2CCCO2)nn1-c1cccnc1

$$$$
