
     RDKit          3D

 38 41  0  0  0  0  0  0  0  0999 V2000
    9.0137    7.4452   23.0835 F   0  0  0  0  0  0  0  0  0  0  0  0
    8.6554    6.1578   23.0497 C   0  0  0  0  0  0  0  0  0  0  0  0
    9.2435    5.2392   23.9092 C   0  0  0  0  0  0  0  0  0  0  0  0
    8.9192    3.9490   23.8858 N   0  0  0  0  0  0  0  0  0  0  0  0
    7.9976    3.5686   22.9938 C   0  0  0  0  0  0  0  0  0  0  0  0
    7.6740    2.1093   22.9420 C   0  0  0  0  0  0  0  0  0  0  0  0
    8.5853    1.2969   21.9678 C   0  0  0  0  0  0  0  0  0  0  0  0
    8.2359   -0.1573   21.8597 C   0  0  0  0  0  0  0  0  0  0  0  0
    8.6634   -1.1448   22.6172 N   0  0  0  0  0  0  0  0  0  0  0  0
    8.0197   -2.2294   22.1079 C   0  0  0  0  0  0  0  0  0  0  0  0
    8.1674   -3.5574   22.7301 C   0  0  0  0  0  0  0  0  0  0  0  0
    8.2549   -4.8237   21.9060 C   0  0  0  0  0  0  0  0  0  0  0  0
    7.0327   -4.5611   22.7180 C   0  0  0  0  0  0  0  0  0  0  0  0
    6.8906   -5.1720   23.6056 H   0  0  0  0  0  0  0  0  0  0  0  0
    6.1221   -4.2818   22.1910 H   0  0  0  0  0  0  0  0  0  0  0  0
    8.1924   -4.7102   20.8255 H   0  0  0  0  0  0  0  0  0  0  0  0
    8.9129   -5.6155   22.2576 H   0  0  0  0  0  0  0  0  0  0  0  0
    8.7767   -3.4861   23.6250 H   0  0  0  0  0  0  0  0  0  0  0  0
    7.2514   -1.9770   21.0602 N   0  0  0  0  0  0  0  0  0  0  0  0
    7.3720   -0.6416   20.9221 N   0  0  0  0  0  0  0  0  0  0  0  0
    6.6613    0.0309   19.8851 C   0  0  0  0  0  0  0  0  0  0  0  0
    5.4412    0.6633   20.1398 C   0  0  0  0  0  0  0  0  0  0  0  0
    4.8053    1.3097   19.0763 C   0  0  0  0  0  0  0  0  0  0  0  0
    5.4133    1.2862   17.8173 C   0  0  0  0  0  0  0  0  0  0  0  0
    6.5651    0.6404   17.5610 N   0  0  0  0  0  0  0  0  0  0  0  0
    7.1721    0.0206   18.5793 C   0  0  0  0  0  0  0  0  0  0  0  0
    8.1042   -0.5022   18.3600 H   0  0  0  0  0  0  0  0  0  0  0  0
    4.9644    1.8183   16.9833 H   0  0  0  0  0  0  0  0  0  0  0  0
    3.8697    1.8399   19.2248 H   0  0  0  0  0  0  0  0  0  0  0  0
    4.9943    0.6214   21.1357 H   0  0  0  0  0  0  0  0  0  0  0  0
    9.6324    1.3857   22.2813 H   0  0  0  0  0  0  0  0  0  0  0  0
    8.5163    1.7180   20.9579 H   0  0  0  0  0  0  0  0  0  0  0  0
    6.6308    2.0229   22.6296 H   0  0  0  0  0  0  0  0  0  0  0  0
    7.7684    1.7305   23.9624 H   0  0  0  0  0  0  0  0  0  0  0  0
    7.3853    4.3754   22.1267 N   0  0  0  0  0  0  0  0  0  0  0  0
    7.7158    5.6692   22.1511 C   0  0  0  0  0  0  0  0  0  0  0  0
    7.2115    6.3200   21.4361 H   0  0  0  0  0  0  0  0  0  0  0  0
    9.9951    5.5475   24.6353 H   0  0  0  0  0  0  0  0  0  0  0  0
  1  2  1  0
  2  3  2  0
  3  4  1  0
  4  5  2  0
  5  6  1  0
  6  7  1  0
  7  8  1  0
  8  9  2  0
  9 10  1  0
 10 11  1  0
 11 12  1  0
 12 13  1  0
 13 14  1  0
 13 15  1  0
 12 16  1  0
 12 17  1  0
 11 18  1  0
 10 19  2  0
 19 20  1  0
 20 21  1  0
 21 22  2  0
 22 23  1  0
 23 24  2  0
 24 25  1  0
 25 26  2  0
 26 27  1  0
 24 28  1  0
 23 29  1  0
 22 30  1  0
  7 31  1  0
  7 32  1  0
  6 33  1  0
  6 34  1  0
  5 35  1  0
 35 36  2  0
 36 37  1  0
  3 38  1  0
 36  2  1  0
 20  8  1  0
 26 21  1  0
 13 11  1  0
M  END
>  <cnnaffinity>  (1) 
-5.60975

>  <filename>  (1) 
Fc1cnc(CCc2nc(C3CC3)nn2-c2cccnc2)nc1

$$$$
