
     RDKit          3D

 44 48  0  0  0  0  0  0  0  0999 V2000
    8.2255    7.7122   23.8234 F   0  0  0  0  0  0  0  0  0  0  0  0
    8.1664    6.4425   23.4031 C   0  0  0  0  0  0  0  0  0  0  0  0
    9.2835    5.6214   23.5226 C   0  0  0  0  0  0  0  0  0  0  0  0
    9.2148    4.3095   23.0430 C   0  0  0  0  0  0  0  0  0  0  0  0
    8.0487    3.8219   22.4423 C   0  0  0  0  0  0  0  0  0  0  0  0
    7.9931    2.4221   21.9060 C   0  0  0  0  0  0  0  0  0  0  0  0
    7.2811    1.4772   22.8937 C   0  0  0  0  0  0  0  0  0  0  0  0
    7.3581    0.0443   22.5023 C   0  0  0  0  0  0  0  0  0  0  0  0
    8.0270   -0.8613   23.1842 N   0  0  0  0  0  0  0  0  0  0  0  0
    7.9339   -1.9658   22.4029 C   0  0  0  0  0  0  0  0  0  0  0  0
    8.7097   -3.2002   22.6443 C   0  0  0  0  0  0  0  0  0  0  0  0
    8.0610   -4.5805   22.5255 C   0  0  0  0  0  0  0  0  0  0  0  0
    8.6147   -4.0963   23.8303 C   0  0  0  0  0  0  0  0  0  0  0  0
    9.6535   -4.5191   24.8059 C   0  0  0  0  0  0  0  0  0  0  0  0
    8.2315   -4.1930   25.2713 C   0  0  0  0  0  0  0  0  0  0  0  0
    8.0350   -3.2785   25.8265 H   0  0  0  0  0  0  0  0  0  0  0  0
    7.5879   -5.0370   25.5267 H   0  0  0  0  0  0  0  0  0  0  0  0
    9.9906   -5.5538   24.7902 H   0  0  0  0  0  0  0  0  0  0  0  0
   10.4283   -3.7793   25.0231 H   0  0  0  0  0  0  0  0  0  0  0  0
    8.5708   -5.3943   22.0079 H   0  0  0  0  0  0  0  0  0  0  0  0
    6.9728   -4.5960   22.4573 H   0  0  0  0  0  0  0  0  0  0  0  0
    9.7271   -3.0614   22.2720 H   0  0  0  0  0  0  0  0  0  0  0  0
    7.2828   -1.7967   21.2697 N   0  0  0  0  0  0  0  0  0  0  0  0
    6.8892   -0.4917   21.3306 N   0  0  0  0  0  0  0  0  0  0  0  0
    6.3696    0.1140   20.1471 C   0  0  0  0  0  0  0  0  0  0  0  0
    5.3818    1.1106   20.1267 C   0  0  0  0  0  0  0  0  0  0  0  0
    5.0768    1.7045   18.8916 C   0  0  0  0  0  0  0  0  0  0  0  0
    5.7333    1.2705   17.7366 C   0  0  0  0  0  0  0  0  0  0  0  0
    6.6342    0.2712   17.7448 N   0  0  0  0  0  0  0  0  0  0  0  0
    6.9262   -0.2913   18.9174 C   0  0  0  0  0  0  0  0  0  0  0  0
    7.6608   -1.0943   18.9125 H   0  0  0  0  0  0  0  0  0  0  0  0
    5.5304    1.7229   16.7665 H   0  0  0  0  0  0  0  0  0  0  0  0
    4.3450    2.5036   18.8187 H   0  0  0  0  0  0  0  0  0  0  0  0
    4.8686    1.4252   21.0368 H   0  0  0  0  0  0  0  0  0  0  0  0
    6.2356    1.7694   23.0211 H   0  0  0  0  0  0  0  0  0  0  0  0
    7.7519    1.5575   23.8802 H   0  0  0  0  0  0  0  0  0  0  0  0
    9.0086    2.0457   21.7331 H   0  0  0  0  0  0  0  0  0  0  0  0
    7.4800    2.4271   20.9363 H   0  0  0  0  0  0  0  0  0  0  0  0
    6.9238    4.6542   22.3548 C   0  0  0  0  0  0  0  0  0  0  0  0
    6.9892    5.9571   22.8188 C   0  0  0  0  0  0  0  0  0  0  0  0
    5.9267    6.7668   22.6914 F   0  0  0  0  0  0  0  0  0  0  0  0
    5.9929    4.3164   21.9005 H   0  0  0  0  0  0  0  0  0  0  0  0
   10.0800    3.6589   23.1146 H   0  0  0  0  0  0  0  0  0  0  0  0
   10.1920    6.0255   23.9510 H   0  0  0  0  0  0  0  0  0  0  0  0
  1  2  1  0
  2  3  2  0
  3  4  1  0
  4  5  2  0
  5  6  1  0
  6  7  1  0
  7  8  1  0
  8  9  2  0
  9 10  1  0
 10 11  1  0
 11 12  1  0
 12 13  1  0
 13 14  1  0
 14 15  1  0
 15 16  1  0
 15 17  1  0
 14 18  1  0
 14 19  1  0
 12 20  1  0
 12 21  1  0
 11 22  1  0
 10 23  2  0
 23 24  1  0
 24 25  1  0
 25 26  2  0
 26 27  1  0
 27 28  2  0
 28 29  1  0
 29 30  2  0
 30 31  1  0
 28 32  1  0
 27 33  1  0
 26 34  1  0
  7 35  1  0
  7 36  1  0
  6 37  1  0
  6 38  1  0
  5 39  1  0
 39 40  2  0
 40 41  1  0
 39 42  1  0
  4 43  1  0
  3 44  1  0
 40  2  1  0
 24  8  1  0
 30 25  1  0
 13 11  1  0
 15 13  1  0
M  END
>  <cnnaffinity>  (1) 
-6.4222

>  <filename>  (1) 
Fc1ccc(CCc2nc(C3CC34CC4)nn2-c2cccnc2)cc1F

$$$$
