
     RDKit          3D

 42 45  0  0  0  0  0  0  0  0999 V2000
    7.9129    4.6185   27.6708 F   0  0  0  0  0  0  0  0  0  0  0  0
    7.3098    3.5845   27.0695 C   0  0  0  0  0  0  0  0  0  0  0  0
    6.1934    2.9766   27.6607 C   0  0  0  0  0  0  0  0  0  0  0  0
    5.5717    1.9253   27.1106 N   0  0  0  0  0  0  0  0  0  0  0  0
    6.0347    1.4416   25.9511 C   0  0  0  0  0  0  0  0  0  0  0  0
    7.1273    2.0164   25.2853 C   0  0  0  0  0  0  0  0  0  0  0  0
    7.5659    1.4555   24.0107 C   0  0  0  0  0  0  0  0  0  0  0  0
    6.9189    0.5208   23.3365 N   0  0  0  0  0  0  0  0  0  0  0  0
    7.6948    0.3483   22.2388 N   0  0  0  0  0  0  0  0  0  0  0  0
    7.3148   -0.5801   21.1769 C   0  0  0  0  0  0  0  0  0  0  0  0
    6.6480    0.0742   19.9760 C   0  0  0  0  0  0  0  0  0  0  0  0
    5.4382    0.7612   20.1413 C   0  0  0  0  0  0  0  0  0  0  0  0
    4.8552    1.3696   19.0274 C   0  0  0  0  0  0  0  0  0  0  0  0
    5.4963    1.2709   17.7886 C   0  0  0  0  0  0  0  0  0  0  0  0
    6.6474    0.6076   17.6055 N   0  0  0  0  0  0  0  0  0  0  0  0
    7.1974    0.0322   18.6837 C   0  0  0  0  0  0  0  0  0  0  0  0
    8.1395   -0.4859   18.5010 H   0  0  0  0  0  0  0  0  0  0  0  0
    5.0632    1.7353   16.9040 H   0  0  0  0  0  0  0  0  0  0  0  0
    3.9301    1.9308   19.1028 H   0  0  0  0  0  0  0  0  0  0  0  0
    4.9794    0.8349   21.1312 H   0  0  0  0  0  0  0  0  0  0  0  0
    8.1996   -1.1482   20.8663 H   0  0  0  0  0  0  0  0  0  0  0  0
    6.6338   -1.2910   21.6499 H   0  0  0  0  0  0  0  0  0  0  0  0
    8.7580    1.1781   22.3102 C   0  0  0  0  0  0  0  0  0  0  0  0
    9.8523    1.2861   21.3006 C   0  0  0  0  0  0  0  0  0  0  0  0
   11.1061    0.5111   21.6703 C   0  0  0  0  0  0  0  0  0  0  0  0
   11.3828   -0.7430   21.1245 C   0  0  0  0  0  0  0  0  0  0  0  0
   12.6057   -1.3841   21.3675 C   0  0  0  0  0  0  0  0  0  0  0  0
   13.5025   -0.8003   22.2536 C   0  0  0  0  0  0  0  0  0  0  0  0
   14.6730   -1.4002   22.5097 F   0  0  0  0  0  0  0  0  0  0  0  0
   13.1817    0.4053   22.8986 C   0  0  0  0  0  0  0  0  0  0  0  0
   14.0350    0.9120   23.7970 F   0  0  0  0  0  0  0  0  0  0  0  0
   12.0079    1.0790   22.5817 C   0  0  0  0  0  0  0  0  0  0  0  0
   11.7846    2.0291   23.0649 H   0  0  0  0  0  0  0  0  0  0  0  0
   12.8895   -2.3139   20.8828 H   0  0  0  0  0  0  0  0  0  0  0  0
   10.6199   -1.2117   20.5121 H   0  0  0  0  0  0  0  0  0  0  0  0
   10.1025    2.3498   21.2281 H   0  0  0  0  0  0  0  0  0  0  0  0
    9.4821    0.9933   20.3160 H   0  0  0  0  0  0  0  0  0  0  0  0
    8.7026    1.8879   23.4149 N   0  0  0  0  0  0  0  0  0  0  0  0
    7.7907    3.1186   25.8594 C   0  0  0  0  0  0  0  0  0  0  0  0
    8.6465    3.5931   25.3770 H   0  0  0  0  0  0  0  0  0  0  0  0
    5.5274    0.5698   25.5404 H   0  0  0  0  0  0  0  0  0  0  0  0
    5.8058    3.3639   28.5986 H   0  0  0  0  0  0  0  0  0  0  0  0
  1  2  1  0
  2  3  2  0
  3  4  1  0
  4  5  2  0
  5  6  1  0
  6  7  1  0
  7  8  2  0
  8  9  1  0
  9 10  1  0
 10 11  1  0
 11 12  2  0
 12 13  1  0
 13 14  2  0
 14 15  1  0
 15 16  2  0
 16 17  1  0
 14 18  1  0
 13 19  1  0
 12 20  1  0
 10 21  1  0
 10 22  1  0
  9 23  1  0
 23 24  1  0
 24 25  1  0
 25 26  2  0
 26 27  1  0
 27 28  2  0
 28 29  1  0
 28 30  1  0
 30 31  1  0
 30 32  2  0
 32 33  1  0
 27 34  1  0
 26 35  1  0
 24 36  1  0
 24 37  1  0
 23 38  2  0
  6 39  2  0
 39 40  1  0
  5 41  1  0
  3 42  1  0
 39  2  1  0
 38  7  1  0
 16 11  1  0
 32 25  1  0
M  END
>  <cnnaffinity>  (1) 
-6.53606

>  <filename>  (1) 
Fc1cncc(-c2nc(Cc3ccc(F)c(F)c3)n(Cc3cccnc3)n2)c1

$$$$
