
     RDKit          3D

 44 47  0  0  0  0  0  0  0  0999 V2000
    8.4835    7.5569   23.5390 F   0  0  0  0  0  0  0  0  0  0  0  0
    8.5217    6.2760   23.1507 C   0  0  0  0  0  0  0  0  0  0  0  0
    7.6783    5.7891   22.1632 C   0  0  0  0  0  0  0  0  0  0  0  0
    7.7231    4.5163   21.7760 N   0  0  0  0  0  0  0  0  0  0  0  0
    8.6349    3.7221   22.3468 C   0  0  0  0  0  0  0  0  0  0  0  0
    8.6880    2.2928   21.8806 C   0  0  0  0  0  0  0  0  0  0  0  0
    7.6716    1.3808   22.6354 C   0  0  0  0  0  0  0  0  0  0  0  0
    7.6599   -0.0555   22.2147 C   0  0  0  0  0  0  0  0  0  0  0  0
    8.1075   -1.0501   22.9543 N   0  0  0  0  0  0  0  0  0  0  0  0
    8.0981   -2.1089   22.1043 C   0  0  0  0  0  0  0  0  0  0  0  0
    8.6013   -3.4800   22.4900 C   0  0  0  0  0  0  0  0  0  0  0  0
    7.7430   -4.6448   21.9402 C   0  0  0  0  0  0  0  0  0  0  0  0
    8.1139   -5.8551   22.8099 C   0  0  0  0  0  0  0  0  0  0  0  0
    8.5539   -5.2970   24.1857 C   0  0  0  0  0  0  0  0  0  0  0  0
    8.7038   -3.7610   24.0154 C   0  0  0  0  0  0  0  0  0  0  0  0
    7.9062   -3.2304   24.5509 H   0  0  0  0  0  0  0  0  0  0  0  0
    9.6531   -3.3803   24.4149 H   0  0  0  0  0  0  0  0  0  0  0  0
    7.8190   -5.5433   24.9639 H   0  0  0  0  0  0  0  0  0  0  0  0
    9.4943   -5.7668   24.5052 H   0  0  0  0  0  0  0  0  0  0  0  0
    8.9405   -6.4172   22.3623 H   0  0  0  0  0  0  0  0  0  0  0  0
    7.2793   -6.5588   22.9053 H   0  0  0  0  0  0  0  0  0  0  0  0
    6.6808   -4.3895   22.0772 H   0  0  0  0  0  0  0  0  0  0  0  0
    7.9154   -4.8317   20.8713 H   0  0  0  0  0  0  0  0  0  0  0  0
    9.6164   -3.5108   22.0760 H   0  0  0  0  0  0  0  0  0  0  0  0
    7.6601   -1.8296   20.8863 N   0  0  0  0  0  0  0  0  0  0  0  0
    7.3219   -0.5156   20.9739 N   0  0  0  0  0  0  0  0  0  0  0  0
    6.6251    0.0974   19.8906 C   0  0  0  0  0  0  0  0  0  0  0  0
    5.4201    0.7861   20.0873 C   0  0  0  0  0  0  0  0  0  0  0  0
    4.8210    1.3989   18.9824 C   0  0  0  0  0  0  0  0  0  0  0  0
    5.4483    1.3167   17.7377 C   0  0  0  0  0  0  0  0  0  0  0  0
    6.5806    0.6200   17.5347 N   0  0  0  0  0  0  0  0  0  0  0  0
    7.1350    0.0013   18.5825 C   0  0  0  0  0  0  0  0  0  0  0  0
    8.0267   -0.5874   18.3761 H   0  0  0  0  0  0  0  0  0  0  0  0
    5.0215    1.8115   16.8676 H   0  0  0  0  0  0  0  0  0  0  0  0
    3.8814    1.9323   19.0796 H   0  0  0  0  0  0  0  0  0  0  0  0
    4.9516    0.8200   21.0706 H   0  0  0  0  0  0  0  0  0  0  0  0
    6.6575    1.7860   22.5337 H   0  0  0  0  0  0  0  0  0  0  0  0
    7.9135    1.3670   23.7035 H   0  0  0  0  0  0  0  0  0  0  0  0
    9.7103    1.9264   22.0297 H   0  0  0  0  0  0  0  0  0  0  0  0
    8.4702    2.2826   20.8086 H   0  0  0  0  0  0  0  0  0  0  0  0
    9.4637    4.0988   23.3316 N   0  0  0  0  0  0  0  0  0  0  0  0
    9.4087    5.3733   23.7198 C   0  0  0  0  0  0  0  0  0  0  0  0
   10.0883    5.7031   24.5079 H   0  0  0  0  0  0  0  0  0  0  0  0
    6.9472    6.4445   21.6873 H   0  0  0  0  0  0  0  0  0  0  0  0
  1  2  1  0
  2  3  2  0
  3  4  1  0
  4  5  2  0
  5  6  1  0
  6  7  1  0
  7  8  1  0
  8  9  2  0
  9 10  1  0
 10 11  1  0
 11 12  1  0
 12 13  1  0
 13 14  1  0
 14 15  1  0
 15 16  1  0
 15 17  1  0
 14 18  1  0
 14 19  1  0
 13 20  1  0
 13 21  1  0
 12 22  1  0
 12 23  1  0
 11 24  1  0
 10 25  2  0
 25 26  1  0
 26 27  1  0
 27 28  2  0
 28 29  1  0
 29 30  2  0
 30 31  1  0
 31 32  2  0
 32 33  1  0
 30 34  1  0
 29 35  1  0
 28 36  1  0
  7 37  1  0
  7 38  1  0
  6 39  1  0
  6 40  1  0
  5 41  1  0
 41 42  2  0
 42 43  1  0
  3 44  1  0
 42  2  1  0
 26  8  1  0
 32 27  1  0
 15 11  1  0
M  END
>  <cnnaffinity>  (1) 
-6.20936

>  <filename>  (1) 
Fc1cnc(CCc2nc(C3CCCC3)nn2-c2cccnc2)nc1

$$$$
