
     RDKit          3D

 27 29  0  0  0  0  0  0  0  0999 V2000
    4.8646    1.9444   16.8672 H   0  0  0  0  0  0  0  0  0  0  0  0
    5.3618    1.4000   17.6642 C   0  0  0  0  0  0  0  0  0  0  0  0
    6.5092    0.7863   17.3346 N   0  0  0  0  0  0  0  0  0  0  0  0
    7.1519    0.1164   18.2946 C   0  0  0  0  0  0  0  0  0  0  0  0
    8.0730   -0.3836   17.9868 H   0  0  0  0  0  0  0  0  0  0  0  0
    6.6967    0.0352   19.6192 C   0  0  0  0  0  0  0  0  0  0  0  0
    7.4485   -0.6832   20.6476 C   0  0  0  0  0  0  0  0  0  0  0  0
    6.9511   -0.7405   21.9442 N   0  0  0  0  0  0  0  0  0  0  0  0
    7.8231   -1.4218   22.6078 C   0  0  0  0  0  0  0  0  0  0  0  0
    7.8301   -1.7940   24.0408 C   0  0  0  0  0  0  0  0  0  0  0  0
    8.9073   -2.5509   24.5310 C   0  0  0  0  0  0  0  0  0  0  0  0
    9.6985   -2.8553   23.8549 H   0  0  0  0  0  0  0  0  0  0  0  0
    8.9635   -2.9136   25.8739 C   0  0  0  0  0  0  0  0  0  0  0  0
    9.8089   -3.5012   26.2169 H   0  0  0  0  0  0  0  0  0  0  0  0
    7.9513   -2.5294   26.7541 C   0  0  0  0  0  0  0  0  0  0  0  0
    7.9610   -2.7983   27.8019 H   0  0  0  0  0  0  0  0  0  0  0  0
    6.8872   -1.7804   26.2607 C   0  0  0  0  0  0  0  0  0  0  0  0
    5.9216   -1.4154   27.1204 F   0  0  0  0  0  0  0  0  0  0  0  0
    6.7965   -1.4062   24.9204 C   0  0  0  0  0  0  0  0  0  0  0  0
    5.9338   -0.8336   24.5906 H   0  0  0  0  0  0  0  0  0  0  0  0
    8.8754   -1.8352   21.8509 O   0  0  0  0  0  0  0  0  0  0  0  0
    8.6256   -1.3530   20.6073 C   0  0  0  0  0  0  0  0  0  0  0  0
    9.3656   -1.5702   19.8515 H   0  0  0  0  0  0  0  0  0  0  0  0
    5.4882    0.6760   19.9423 C   0  0  0  0  0  0  0  0  0  0  0  0
    5.1135    0.6267   20.9627 H   0  0  0  0  0  0  0  0  0  0  0  0
    4.8053    1.3606   18.9453 C   0  0  0  0  0  0  0  0  0  0  0  0
    3.8671    1.8652   19.1499 H   0  0  0  0  0  0  0  0  0  0  0  0
  1  2  1  0
  2  3  2  0
  3  4  1  0
  4  5  1  0
  4  6  2  0
  6  7  1  0
  7  8  1  0
  8  9  2  0
  9 10  1  0
 10 11  2  0
 11 12  1  0
 11 13  1  0
 13 14  1  0
 13 15  2  0
 15 16  1  0
 15 17  1  0
 17 18  1  0
 17 19  2  0
 19 20  1  0
  9 21  1  0
 21 22  1  0
 22 23  1  0
  6 24  1  0
 24 25  1  0
 24 26  2  0
 26 27  1  0
 26  2  1  0
 22  7  2  0
 19 10  1  0
M  END
>  <cnnaffinity>  (1) 
-4.68232

>  <filename>  (1) 
Fc1cccc(-c2nc(-c3cccnc3)co2)c1

$$$$
