
     RDKit          3D

 45 49  0  0  0  0  0  0  0  0999 V2000
    3.8244    4.8526   21.2046 F   0  0  0  0  0  0  0  0  0  0  0  0
    4.7617    4.9307   22.1658 C   0  0  0  0  0  0  0  0  0  0  0  0
    5.0972    6.1736   22.6767 C   0  0  0  0  0  0  0  0  0  0  0  0
    5.9815    6.2359   23.7625 C   0  0  0  0  0  0  0  0  0  0  0  0
    6.4934    5.0657   24.3031 C   0  0  0  0  0  0  0  0  0  0  0  0
    7.3039    5.1386   25.3740 F   0  0  0  0  0  0  0  0  0  0  0  0
    6.1950    3.8029   23.7424 C   0  0  0  0  0  0  0  0  0  0  0  0
    6.7539    2.7320   24.3573 O   0  0  0  0  0  0  0  0  0  0  0  0
    6.6804    1.4462   23.7672 C   0  0  0  0  0  0  0  0  0  0  0  0
    7.6636    1.3367   22.5982 C   0  0  0  0  0  0  0  0  0  0  0  0
    7.7570   -0.0645   22.1312 C   0  0  0  0  0  0  0  0  0  0  0  0
    8.3135   -1.0137   22.8623 N   0  0  0  0  0  0  0  0  0  0  0  0
    8.1922   -2.1027   22.0707 C   0  0  0  0  0  0  0  0  0  0  0  0
    8.8393   -3.4145   22.3225 C   0  0  0  0  0  0  0  0  0  0  0  0
    8.0241   -4.6673   22.2123 C   0  0  0  0  0  0  0  0  0  0  0  0
    8.8361   -4.4406   23.5019 C   0  0  0  0  0  0  0  0  0  0  0  0
    8.9858   -5.5291   24.5756 C   0  0  0  0  0  0  0  0  0  0  0  0
    9.9489   -4.3825   24.5182 C   0  0  0  0  0  0  0  0  0  0  0  0
   10.9749   -4.5538   24.1788 H   0  0  0  0  0  0  0  0  0  0  0  0
    9.8297   -3.6162   25.2870 H   0  0  0  0  0  0  0  0  0  0  0  0
    8.2742   -5.5479   25.4033 H   0  0  0  0  0  0  0  0  0  0  0  0
    9.3333   -6.5068   24.2277 H   0  0  0  0  0  0  0  0  0  0  0  0
    8.3113   -5.4743   21.5368 H   0  0  0  0  0  0  0  0  0  0  0  0
    6.9404   -4.5484   22.3265 H   0  0  0  0  0  0  0  0  0  0  0  0
    9.8396   -3.3230   21.8952 H   0  0  0  0  0  0  0  0  0  0  0  0
    7.6021   -1.8969   20.9039 N   0  0  0  0  0  0  0  0  0  0  0  0
    7.3041   -0.5777   20.9539 N   0  0  0  0  0  0  0  0  0  0  0  0
    6.6023    0.0598   19.8893 C   0  0  0  0  0  0  0  0  0  0  0  0
    5.3970    0.7271   20.1215 C   0  0  0  0  0  0  0  0  0  0  0  0
    4.7770    1.3692   19.0457 C   0  0  0  0  0  0  0  0  0  0  0  0
    5.3953    1.3254   17.7917 C   0  0  0  0  0  0  0  0  0  0  0  0
    6.5431    0.6644   17.5575 N   0  0  0  0  0  0  0  0  0  0  0  0
    7.1223    0.0323   18.5825 C   0  0  0  0  0  0  0  0  0  0  0  0
    8.0446   -0.5028   18.3670 H   0  0  0  0  0  0  0  0  0  0  0  0
    4.9468    1.8242   16.9369 H   0  0  0  0  0  0  0  0  0  0  0  0
    3.8313    1.8882   19.1585 H   0  0  0  0  0  0  0  0  0  0  0  0
    4.9398    0.7166   21.1146 H   0  0  0  0  0  0  0  0  0  0  0  0
    7.3827    2.0058   21.7783 H   0  0  0  0  0  0  0  0  0  0  0  0
    8.6503    1.6420   22.9639 H   0  0  0  0  0  0  0  0  0  0  0  0
    5.6459    1.2144   23.4686 H   0  0  0  0  0  0  0  0  0  0  0  0
    6.9634    0.7440   24.5594 H   0  0  0  0  0  0  0  0  0  0  0  0
    5.3332    3.7466   22.6350 C   0  0  0  0  0  0  0  0  0  0  0  0
    5.1110    2.8191   22.1195 H   0  0  0  0  0  0  0  0  0  0  0  0
    6.2816    7.1807   24.2075 H   0  0  0  0  0  0  0  0  0  0  0  0
    4.6680    7.0641   22.2288 H   0  0  0  0  0  0  0  0  0  0  0  0
  1  2  1  0
  2  3  2  0
  3  4  1  0
  4  5  2  0
  5  6  1  0
  5  7  1  0
  7  8  1  0
  8  9  1  0
  9 10  1  0
 10 11  1  0
 11 12  2  0
 12 13  1  0
 13 14  1  0
 14 15  1  0
 15 16  1  0
 16 17  1  0
 17 18  1  0
 18 19  1  0
 18 20  1  0
 17 21  1  0
 17 22  1  0
 15 23  1  0
 15 24  1  0
 14 25  1  0
 13 26  2  0
 26 27  1  0
 27 28  1  0
 28 29  2  0
 29 30  1  0
 30 31  2  0
 31 32  1  0
 32 33  2  0
 33 34  1  0
 31 35  1  0
 30 36  1  0
 29 37  1  0
 10 38  1  0
 10 39  1  0
  9 40  1  0
  9 41  1  0
  7 42  2  0
 42 43  1  0
  4 44  1  0
  3 45  1  0
 42  2  1  0
 27 11  1  0
 33 28  1  0
 16 14  1  0
 18 16  1  0
M  END
>  <cnnaffinity>  (1) 
-6.17579

>  <filename>  (1) 
Fc1ccc(F)c(OCCc2nc(C3CC34CC4)nn2-c2cccnc2)c1

$$$$
