
     RDKit          3D

 39 42  0  0  0  0  0  0  0  0999 V2000
   14.1356   -2.1005   21.1518 F   0  0  0  0  0  0  0  0  0  0  0  0
   13.3403   -1.2084   21.7585 C   0  0  0  0  0  0  0  0  0  0  0  0
   13.9092   -0.2606   22.6167 C   0  0  0  0  0  0  0  0  0  0  0  0
   13.1851    0.6582   23.2629 N   0  0  0  0  0  0  0  0  0  0  0  0
   11.8669    0.6704   23.0435 C   0  0  0  0  0  0  0  0  0  0  0  0
   11.2199   -0.2372   22.1924 C   0  0  0  0  0  0  0  0  0  0  0  0
    9.7790   -0.0576   22.0637 C   0  0  0  0  0  0  0  0  0  0  0  0
    8.9287   -0.9457   21.5947 N   0  0  0  0  0  0  0  0  0  0  0  0
    7.7246   -0.3409   21.7800 N   0  0  0  0  0  0  0  0  0  0  0  0
    6.5257   -0.8625   21.1297 C   0  0  0  0  0  0  0  0  0  0  0  0
    6.1107   -0.0567   19.9132 C   0  0  0  0  0  0  0  0  0  0  0  0
    4.9171    0.6717   19.8503 C   0  0  0  0  0  0  0  0  0  0  0  0
    4.6736    1.4608   18.7214 C   0  0  0  0  0  0  0  0  0  0  0  0
    5.6194    1.4719   17.6920 C   0  0  0  0  0  0  0  0  0  0  0  0
    6.7554    0.7590   17.7214 N   0  0  0  0  0  0  0  0  0  0  0  0
    6.9882    0.0241   18.8155 C   0  0  0  0  0  0  0  0  0  0  0  0
    7.9333   -0.5216   18.8306 H   0  0  0  0  0  0  0  0  0  0  0  0
    5.4541    2.0670   16.7951 H   0  0  0  0  0  0  0  0  0  0  0  0
    3.7876    2.0809   18.6389 H   0  0  0  0  0  0  0  0  0  0  0  0
    4.1901    0.6301   20.6684 H   0  0  0  0  0  0  0  0  0  0  0  0
    6.7598   -1.8947   20.8618 H   0  0  0  0  0  0  0  0  0  0  0  0
    5.7249   -0.9069   21.8689 H   0  0  0  0  0  0  0  0  0  0  0  0
    7.9172    0.8738   22.3438 C   0  0  0  0  0  0  0  0  0  0  0  0
    6.8601    1.6919   23.0254 C   0  0  0  0  0  0  0  0  0  0  0  0
    6.6291    1.2162   24.4559 C   0  0  0  0  0  0  0  0  0  0  0  0
    5.5321    0.5732   24.9403 C   0  0  0  0  0  0  0  0  0  0  0  0
    5.7238    0.0937   26.5834 S   0  0  0  0  0  0  0  0  0  0  0  0
    7.2910    0.7895   26.6452 C   0  0  0  0  0  0  0  0  0  0  0  0
    7.6408    1.3572   25.4610 C   0  0  0  0  0  0  0  0  0  0  0  0
    8.5955    1.8447   25.2742 H   0  0  0  0  0  0  0  0  0  0  0  0
    7.8754    0.7095   27.5513 H   0  0  0  0  0  0  0  0  0  0  0  0
    4.6114    0.3311   24.4277 H   0  0  0  0  0  0  0  0  0  0  0  0
    5.9333    1.6731   22.4508 H   0  0  0  0  0  0  0  0  0  0  0  0
    7.2162    2.7290   23.0333 H   0  0  0  0  0  0  0  0  0  0  0  0
    9.2046    1.0982   22.4934 N   0  0  0  0  0  0  0  0  0  0  0  0
   11.9746   -1.2164   21.5214 C   0  0  0  0  0  0  0  0  0  0  0  0
   11.5466   -1.9521   20.8399 H   0  0  0  0  0  0  0  0  0  0  0  0
   11.2892    1.4138   23.5822 H   0  0  0  0  0  0  0  0  0  0  0  0
   14.9806   -0.2685   22.7877 H   0  0  0  0  0  0  0  0  0  0  0  0
  1  2  1  0
  2  3  2  0
  3  4  1  0
  4  5  2  0
  5  6  1  0
  6  7  1  0
  7  8  2  0
  8  9  1  0
  9 10  1  0
 10 11  1  0
 11 12  2  0
 12 13  1  0
 13 14  2  0
 14 15  1  0
 15 16  2  0
 16 17  1  0
 14 18  1  0
 13 19  1  0
 12 20  1  0
 10 21  1  0
 10 22  1  0
  9 23  1  0
 23 24  1  0
 24 25  1  0
 25 26  2  0
 26 27  1  0
 27 28  1  0
 28 29  2  0
 29 30  1  0
 28 31  1  0
 26 32  1  0
 24 33  1  0
 24 34  1  0
 23 35  2  0
  6 36  2  0
 36 37  1  0
  5 38  1  0
  3 39  1  0
 36  2  1  0
 35  7  1  0
 16 11  1  0
 29 25  1  0
M  END
>  <cnnaffinity>  (1) 
-6.2234

>  <filename>  (1) 
Fc1cncc(-c2nc(Cc3ccsc3)n(Cc3cccnc3)n2)c1

$$$$
