
     RDKit          3D

 41 44  0  0  0  0  0  0  0  0999 V2000
   13.5447   -2.2615   20.4654 F   0  0  0  0  0  0  0  0  0  0  0  0
   12.9421   -1.4341   21.3306 C   0  0  0  0  0  0  0  0  0  0  0  0
   13.7330   -0.7112   22.2201 C   0  0  0  0  0  0  0  0  0  0  0  0
   13.0898    0.2246   23.0266 C   0  0  0  0  0  0  0  0  0  0  0  0
   13.8236    0.9089   23.9126 F   0  0  0  0  0  0  0  0  0  0  0  0
   11.7241    0.4556   22.9635 C   0  0  0  0  0  0  0  0  0  0  0  0
   10.9470   -0.3289   22.0924 C   0  0  0  0  0  0  0  0  0  0  0  0
    9.4861   -0.0921   22.0320 C   0  0  0  0  0  0  0  0  0  0  0  0
    8.6360   -0.9101   21.4345 N   0  0  0  0  0  0  0  0  0  0  0  0
    7.4366   -0.3394   21.6789 N   0  0  0  0  0  0  0  0  0  0  0  0
    6.2561   -0.8383   20.9826 C   0  0  0  0  0  0  0  0  0  0  0  0
    5.9058   -0.0188   19.7590 C   0  0  0  0  0  0  0  0  0  0  0  0
    4.7219    0.7142   19.6353 C   0  0  0  0  0  0  0  0  0  0  0  0
    4.5455    1.5080   18.4979 C   0  0  0  0  0  0  0  0  0  0  0  0
    5.5526    1.5257   17.5295 C   0  0  0  0  0  0  0  0  0  0  0  0
    6.6814    0.8056   17.6129 N   0  0  0  0  0  0  0  0  0  0  0  0
    6.8430    0.0648   18.7135 C   0  0  0  0  0  0  0  0  0  0  0  0
    7.7693   -0.5058   18.7878 H   0  0  0  0  0  0  0  0  0  0  0  0
    5.4615    2.1551   16.6469 H   0  0  0  0  0  0  0  0  0  0  0  0
    3.6582    2.1156   18.3548 H   0  0  0  0  0  0  0  0  0  0  0  0
    3.9597    0.6871   20.4186 H   0  0  0  0  0  0  0  0  0  0  0  0
    5.4355   -0.8596   21.6936 H   0  0  0  0  0  0  0  0  0  0  0  0
    6.4841   -1.8760   20.7191 H   0  0  0  0  0  0  0  0  0  0  0  0
    7.6106    0.7908   22.4047 C   0  0  0  0  0  0  0  0  0  0  0  0
    6.5354    1.5980   23.0788 C   0  0  0  0  0  0  0  0  0  0  0  0
    6.3403    1.1863   24.5273 C   0  0  0  0  0  0  0  0  0  0  0  0
    7.3009    1.3635   25.4900 C   0  0  0  0  0  0  0  0  0  0  0  0
    6.8715    0.7719   26.6441 N   0  0  0  0  0  0  0  0  0  0  0  0
    5.6459    0.1989   26.4346 C   0  0  0  0  0  0  0  0  0  0  0  0
    5.2823    0.4511   25.1363 C   0  0  0  0  0  0  0  0  0  0  0  0
    4.3553    0.1381   24.6751 H   0  0  0  0  0  0  0  0  0  0  0  0
    5.1536   -0.3878   27.2021 H   0  0  0  0  0  0  0  0  0  0  0  0
    7.4123    0.7218   27.4940 H   0  0  0  0  0  0  0  0  0  0  0  0
    8.2863    1.8020   25.3873 H   0  0  0  0  0  0  0  0  0  0  0  0
    6.8649    2.6425   23.0346 H   0  0  0  0  0  0  0  0  0  0  0  0
    5.6035    1.5465   22.5090 H   0  0  0  0  0  0  0  0  0  0  0  0
    8.8992    0.9880   22.6061 N   0  0  0  0  0  0  0  0  0  0  0  0
   11.5580   -1.3242   21.3062 C   0  0  0  0  0  0  0  0  0  0  0  0
   10.9552   -2.0309   20.7477 H   0  0  0  0  0  0  0  0  0  0  0  0
   11.2652    1.2234   23.5813 H   0  0  0  0  0  0  0  0  0  0  0  0
   14.7948   -0.8844   22.3004 H   0  0  0  0  0  0  0  0  0  0  0  0
  1  2  1  0
  2  3  2  0
  3  4  1  0
  4  5  1  0
  4  6  2  0
  6  7  1  0
  7  8  1  0
  8  9  2  0
  9 10  1  0
 10 11  1  0
 11 12  1  0
 12 13  2  0
 13 14  1  0
 14 15  2  0
 15 16  1  0
 16 17  2  0
 17 18  1  0
 15 19  1  0
 14 20  1  0
 13 21  1  0
 11 22  1  0
 11 23  1  0
 10 24  1  0
 24 25  1  0
 25 26  1  0
 26 27  2  0
 27 28  1  0
 28 29  1  0
 29 30  2  0
 30 31  1  0
 29 32  1  0
 28 33  1  0
 27 34  1  0
 25 35  1  0
 25 36  1  0
 24 37  2  0
  7 38  2  0
 38 39  1  0
  6 40  1  0
  3 41  1  0
 38  2  1  0
 37  8  1  0
 17 12  1  0
 30 26  1  0
M  END
>  <cnnaffinity>  (1) 
-6.17062

>  <filename>  (1) 
Fc1cc(F)cc(-c2nc(Cc3cc[nH]c3)n(Cc3cccnc3)n2)c1

$$$$
