
     RDKit          3D

 45 48  0  0  0  0  0  0  0  0999 V2000
    7.6714    3.6038   24.0270 F   0  0  0  0  0  0  0  0  0  0  0  0
    8.8703    3.0277   23.8497 C   0  0  0  0  0  0  0  0  0  0  0  0
    9.8846    3.3010   24.7546 C   0  0  0  0  0  0  0  0  0  0  0  0
   11.1317    2.6874   24.5622 C   0  0  0  0  0  0  0  0  0  0  0  0
   11.3404    1.8295   23.4964 C   0  0  0  0  0  0  0  0  0  0  0  0
   10.3020    1.5916   22.5931 C   0  0  0  0  0  0  0  0  0  0  0  0
   10.6462    0.7550   21.5747 O   0  0  0  0  0  0  0  0  0  0  0  0
    9.6476    0.2488   20.7215 C   0  0  0  0  0  0  0  0  0  0  0  0
    8.6192   -0.6158   21.3737 C   0  0  0  0  0  0  0  0  0  0  0  0
    8.8349   -1.4756   22.3445 N   0  0  0  0  0  0  0  0  0  0  0  0
    7.5956   -1.9807   22.5780 C   0  0  0  0  0  0  0  0  0  0  0  0
    7.3562   -2.8998   23.7395 C   0  0  0  0  0  0  0  0  0  0  0  0
    8.2861   -4.1399   23.6841 C   0  0  0  0  0  0  0  0  0  0  0  0
    8.1111   -4.9864   24.9447 C   0  0  0  0  0  0  0  0  0  0  0  0
    8.3375   -4.2280   26.1184 O   0  0  0  0  0  0  0  0  0  0  0  0
    7.4435   -3.1395   26.2576 C   0  0  0  0  0  0  0  0  0  0  0  0
    7.5663   -2.1564   25.0931 C   0  0  0  0  0  0  0  0  0  0  0  0
    8.5645   -1.6926   25.1068 H   0  0  0  0  0  0  0  0  0  0  0  0
    6.8340   -1.3480   25.2156 H   0  0  0  0  0  0  0  0  0  0  0  0
    6.4030   -3.5092   26.3167 H   0  0  0  0  0  0  0  0  0  0  0  0
    7.6903   -2.6731   27.2161 H   0  0  0  0  0  0  0  0  0  0  0  0
    7.0911   -5.4128   24.9603 H   0  0  0  0  0  0  0  0  0  0  0  0
    8.8255   -5.8140   24.9828 H   0  0  0  0  0  0  0  0  0  0  0  0
    8.0716   -4.7448   22.7954 H   0  0  0  0  0  0  0  0  0  0  0  0
    9.3319   -3.8091   23.6069 H   0  0  0  0  0  0  0  0  0  0  0  0
    6.3028   -3.2068   23.6532 H   0  0  0  0  0  0  0  0  0  0  0  0
    6.6535   -1.5387   21.7752 N   0  0  0  0  0  0  0  0  0  0  0  0
    7.3224   -0.6737   20.9650 N   0  0  0  0  0  0  0  0  0  0  0  0
    6.6548   -0.0016   19.9018 C   0  0  0  0  0  0  0  0  0  0  0  0
    5.4386    0.6429   20.1546 C   0  0  0  0  0  0  0  0  0  0  0  0
    4.8069    1.3124   19.1027 C   0  0  0  0  0  0  0  0  0  0  0  0
    5.3990    1.2963   17.8338 C   0  0  0  0  0  0  0  0  0  0  0  0
    6.5510    0.6604   17.5745 N   0  0  0  0  0  0  0  0  0  0  0  0
    7.1621    0.0351   18.5874 C   0  0  0  0  0  0  0  0  0  0  0  0
    8.1021   -0.4540   18.3353 H   0  0  0  0  0  0  0  0  0  0  0  0
    4.9325    1.8060   16.9926 H   0  0  0  0  0  0  0  0  0  0  0  0
    3.8736    1.8469   19.2536 H   0  0  0  0  0  0  0  0  0  0  0  0
    5.0186    0.6007   21.1595 H   0  0  0  0  0  0  0  0  0  0  0  0
   10.1889   -0.4118   20.0421 H   0  0  0  0  0  0  0  0  0  0  0  0
    9.1612    1.0759   20.1916 H   0  0  0  0  0  0  0  0  0  0  0  0
    9.0420    2.1784   22.7598 C   0  0  0  0  0  0  0  0  0  0  0  0
    8.2049    1.9903   22.1000 H   0  0  0  0  0  0  0  0  0  0  0  0
   12.2842    1.3191   23.3352 H   0  0  0  0  0  0  0  0  0  0  0  0
   11.9720    2.8547   25.2225 H   0  0  0  0  0  0  0  0  0  0  0  0
    9.6625    3.9720   25.5740 H   0  0  0  0  0  0  0  0  0  0  0  0
  1  2  1  0
  2  3  2  0
  3  4  1  0
  4  5  2  0
  5  6  1  0
  6  7  1  0
  7  8  1  0
  8  9  1  0
  9 10  2  0
 10 11  1  0
 11 12  1  0
 12 13  1  0
 13 14  1  0
 14 15  1  0
 15 16  1  0
 16 17  1  0
 17 18  1  0
 17 19  1  0
 16 20  1  0
 16 21  1  0
 14 22  1  0
 14 23  1  0
 13 24  1  0
 13 25  1  0
 12 26  1  0
 11 27  2  0
 27 28  1  0
 28 29  1  0
 29 30  2  0
 30 31  1  0
 31 32  2  0
 32 33  1  0
 33 34  2  0
 34 35  1  0
 32 36  1  0
 31 37  1  0
 30 38  1  0
  8 39  1  0
  8 40  1  0
  6 41  2  0
 41 42  1  0
  5 43  1  0
  4 44  1  0
  3 45  1  0
 41  2  1  0
 28  9  1  0
 34 29  1  0
 17 12  1  0
M  END
>  <cnnaffinity>  (1) 
-6.05652

>  <filename>  (1) 
Fc1cccc(OCc2nc(C3CCOCC3)nn2-c2cccnc2)c1

$$$$
