
     RDKit          3D

 36 39  0  0  0  0  0  0  0  0999 V2000
    4.8880   -5.3914   24.8848 F   0  0  0  0  0  0  0  0  0  0  0  0
    6.0469   -4.7271   24.7628 C   0  0  0  0  0  0  0  0  0  0  0  0
    7.0655   -5.0131   25.6693 C   0  0  0  0  0  0  0  0  0  0  0  0
    8.2564   -4.3051   25.5366 C   0  0  0  0  0  0  0  0  0  0  0  0
    9.2482   -4.5328   26.4086 F   0  0  0  0  0  0  0  0  0  0  0  0
    8.4521   -3.3699   24.5311 C   0  0  0  0  0  0  0  0  0  0  0  0
    7.4201   -3.1161   23.6064 C   0  0  0  0  0  0  0  0  0  0  0  0
    7.6682   -2.1133   22.5292 C   0  0  0  0  0  0  0  0  0  0  0  0
    6.7559   -1.6547   21.6941 N   0  0  0  0  0  0  0  0  0  0  0  0
    7.4348   -0.7125   20.9821 N   0  0  0  0  0  0  0  0  0  0  0  0
    6.7642   -0.0159   19.9341 C   0  0  0  0  0  0  0  0  0  0  0  0
    5.5461    0.6193   20.1998 C   0  0  0  0  0  0  0  0  0  0  0  0
    4.9057    1.2808   19.1526 C   0  0  0  0  0  0  0  0  0  0  0  0
    5.4882    1.2710   17.8812 C   0  0  0  0  0  0  0  0  0  0  0  0
    6.6348    0.6274   17.6094 N   0  0  0  0  0  0  0  0  0  0  0  0
    7.2510   -0.0035   18.6168 C   0  0  0  0  0  0  0  0  0  0  0  0
    8.1507   -0.5594   18.3535 H   0  0  0  0  0  0  0  0  0  0  0  0
    5.0092    1.7857   17.0515 H   0  0  0  0  0  0  0  0  0  0  0  0
    3.9601    1.7870   19.3089 H   0  0  0  0  0  0  0  0  0  0  0  0
    5.1152    0.5652   21.1998 H   0  0  0  0  0  0  0  0  0  0  0  0
    8.7021   -0.6135   21.4801 C   0  0  0  0  0  0  0  0  0  0  0  0
    9.6782    0.5074   21.2679 C   0  0  0  0  0  0  0  0  0  0  0  0
    9.2363    1.7849   21.9373 C   0  0  0  0  0  0  0  0  0  0  0  0
    8.3477    2.6450   21.3745 C   0  0  0  0  0  0  0  0  0  0  0  0
    8.0680    3.7331   22.2479 C   0  0  0  0  0  0  0  0  0  0  0  0
    8.6738    3.7069   23.4095 N   0  0  0  0  0  0  0  0  0  0  0  0
    9.6236    2.3499   23.5081 S   0  0  0  0  0  0  0  0  0  0  0  0
    7.4148    4.5728   22.0242 H   0  0  0  0  0  0  0  0  0  0  0  0
    7.9318    2.4661   20.3938 H   0  0  0  0  0  0  0  0  0  0  0  0
    9.7917    0.6948   20.1982 H   0  0  0  0  0  0  0  0  0  0  0  0
   10.6306    0.1570   21.6684 H   0  0  0  0  0  0  0  0  0  0  0  0
    8.8904   -1.5264   22.3961 N   0  0  0  0  0  0  0  0  0  0  0  0
    6.1845   -3.7857   23.7444 C   0  0  0  0  0  0  0  0  0  0  0  0
    5.3416   -3.5641   23.0976 H   0  0  0  0  0  0  0  0  0  0  0  0
    9.3903   -2.8279   24.4734 H   0  0  0  0  0  0  0  0  0  0  0  0
    6.9427   -5.7533   26.4475 H   0  0  0  0  0  0  0  0  0  0  0  0
  1  2  1  0
  2  3  2  0
  3  4  1  0
  4  5  1  0
  4  6  2  0
  6  7  1  0
  7  8  1  0
  8  9  2  0
  9 10  1  0
 10 11  1  0
 11 12  2  0
 12 13  1  0
 13 14  2  0
 14 15  1  0
 15 16  2  0
 16 17  1  0
 14 18  1  0
 13 19  1  0
 12 20  1  0
 10 21  1  0
 21 22  1  0
 22 23  1  0
 23 24  2  0
 24 25  1  0
 25 26  2  0
 26 27  1  0
 25 28  1  0
 24 29  1  0
 22 30  1  0
 22 31  1  0
 21 32  2  0
  7 33  2  0
 33 34  1  0
  6 35  1  0
  3 36  1  0
 33  2  1  0
 32  8  1  0
 16 11  1  0
 27 23  1  0
M  END
>  <cnnaffinity>  (1) 
-6.00746

>  <filename>  (1) 
Fc1cc(F)cc(-c2nc(Cc3ccns3)n(-c3cccnc3)n2)c1

$$$$
