
     RDKit          3D

 42 45  0  0  0  0  0  0  0  0999 V2000
   13.5402    1.9020   23.8875 F   0  0  0  0  0  0  0  0  0  0  0  0
   13.0030    0.9412   23.1277 C   0  0  0  0  0  0  0  0  0  0  0  0
   13.8318   -0.0468   22.6137 C   0  0  0  0  0  0  0  0  0  0  0  0
   13.2332   -1.0440   21.8484 C   0  0  0  0  0  0  0  0  0  0  0  0
   14.0204   -2.0042   21.3401 F   0  0  0  0  0  0  0  0  0  0  0  0
   11.8665   -1.0852   21.5881 C   0  0  0  0  0  0  0  0  0  0  0  0
   11.0528   -0.0580   22.1196 C   0  0  0  0  0  0  0  0  0  0  0  0
    9.5737   -0.0134   21.9739 C   0  0  0  0  0  0  0  0  0  0  0  0
    8.8327   -0.8784   21.3018 N   0  0  0  0  0  0  0  0  0  0  0  0
    7.5645   -0.4681   21.5617 N   0  0  0  0  0  0  0  0  0  0  0  0
    6.4427   -1.0720   20.8443 C   0  0  0  0  0  0  0  0  0  0  0  0
    5.9957   -0.2234   19.6737 C   0  0  0  0  0  0  0  0  0  0  0  0
    4.8196    0.5323   19.6632 C   0  0  0  0  0  0  0  0  0  0  0  0
    4.5891    1.3987   18.5910 C   0  0  0  0  0  0  0  0  0  0  0  0
    5.5253    1.4483   17.5549 C   0  0  0  0  0  0  0  0  0  0  0  0
    6.6486    0.7145   17.5356 N   0  0  0  0  0  0  0  0  0  0  0  0
    6.8702   -0.0847   18.5836 C   0  0  0  0  0  0  0  0  0  0  0  0
    7.8050   -0.6467   18.5775 H   0  0  0  0  0  0  0  0  0  0  0  0
    5.3626    2.0912   16.6920 H   0  0  0  0  0  0  0  0  0  0  0  0
    3.7240    2.0525   18.5650 H   0  0  0  0  0  0  0  0  0  0  0  0
    4.1026    0.4527   20.4836 H   0  0  0  0  0  0  0  0  0  0  0  0
    5.6202   -1.2483   21.5449 H   0  0  0  0  0  0  0  0  0  0  0  0
    6.7979   -2.0517   20.5128 H   0  0  0  0  0  0  0  0  0  0  0  0
    7.5956    0.6248   22.3628 C   0  0  0  0  0  0  0  0  0  0  0  0
    6.4495    1.3331   23.0408 C   0  0  0  0  0  0  0  0  0  0  0  0
    6.5216    1.1763   24.5926 C   0  0  0  0  0  0  0  0  0  0  0  0
    5.6524    2.0697   25.4375 C   0  0  0  0  0  0  0  0  0  0  0  0
    6.0991    3.0436   26.2767 C   0  0  0  0  0  0  0  0  0  0  0  0
    4.7913    3.7537   27.1357 S   0  0  0  0  0  0  0  0  0  0  0  0
    3.7258    2.6854   26.3003 C   0  0  0  0  0  0  0  0  0  0  0  0
    4.2866    1.8756   25.4605 N   0  0  0  0  0  0  0  0  0  0  0  0
    2.6599    2.7087   26.4991 H   0  0  0  0  0  0  0  0  0  0  0  0
    7.1218    3.3508   26.4373 H   0  0  0  0  0  0  0  0  0  0  0  0
    6.2700    0.1406   24.8526 H   0  0  0  0  0  0  0  0  0  0  0  0
    7.5634    1.3330   24.8984 H   0  0  0  0  0  0  0  0  0  0  0  0
    5.4906    0.9728   22.6525 H   0  0  0  0  0  0  0  0  0  0  0  0
    6.5279    2.3944   22.7708 H   0  0  0  0  0  0  0  0  0  0  0  0
    8.8475    0.9464   22.6100 N   0  0  0  0  0  0  0  0  0  0  0  0
   11.6394    0.9571   22.8996 C   0  0  0  0  0  0  0  0  0  0  0  0
   11.0054    1.7212   23.3423 H   0  0  0  0  0  0  0  0  0  0  0  0
   11.4808   -1.8859   20.9607 H   0  0  0  0  0  0  0  0  0  0  0  0
   14.8914   -0.0174   22.8230 H   0  0  0  0  0  0  0  0  0  0  0  0
  1  2  1  0
  2  3  2  0
  3  4  1  0
  4  5  1  0
  4  6  2  0
  6  7  1  0
  7  8  1  0
  8  9  2  0
  9 10  1  0
 10 11  1  0
 11 12  1  0
 12 13  2  0
 13 14  1  0
 14 15  2  0
 15 16  1  0
 16 17  2  0
 17 18  1  0
 15 19  1  0
 14 20  1  0
 13 21  1  0
 11 22  1  0
 11 23  1  0
 10 24  1  0
 24 25  1  0
 25 26  1  0
 26 27  1  0
 27 28  2  0
 28 29  1  0
 29 30  1  0
 30 31  2  0
 30 32  1  0
 28 33  1  0
 26 34  1  0
 26 35  1  0
 25 36  1  0
 25 37  1  0
 24 38  2  0
  7 39  2  0
 39 40  1  0
  6 41  1  0
  3 42  1  0
 39  2  1  0
 38  8  1  0
 17 12  1  0
 31 27  1  0
M  END
>  <cnnaffinity>  (1) 
-6.37747

>  <filename>  (1) 
Fc1cc(F)cc(-c2nc(CCc3cscn3)n(Cc3cccnc3)n2)c1

$$$$
