
     RDKit          3D

 43 46  0  0  0  0  0  0  0  0999 V2000
   12.1840   -0.3453   21.8412 F   0  0  0  0  0  0  0  0  0  0  0  0
   11.5587    0.7202   22.3653 C   0  0  0  0  0  0  0  0  0  0  0  0
   12.1440    1.4008   23.4337 C   0  0  0  0  0  0  0  0  0  0  0  0
   11.5667    2.4548   24.0206 N   0  0  0  0  0  0  0  0  0  0  0  0
   10.3753    2.8455   23.5547 C   0  0  0  0  0  0  0  0  0  0  0  0
    9.7304    2.2077   22.4892 C   0  0  0  0  0  0  0  0  0  0  0  0
    8.1652    2.7591   21.9962 Cl  0  0  0  0  0  0  0  0  0  0  0  0
   10.3290    1.1168   21.8457 C   0  0  0  0  0  0  0  0  0  0  0  0
    9.6225    0.3258   20.7758 C   0  0  0  0  0  0  0  0  0  0  0  0
    8.6046   -0.5876   21.3508 C   0  0  0  0  0  0  0  0  0  0  0  0
    8.8425   -1.4460   22.3182 N   0  0  0  0  0  0  0  0  0  0  0  0
    7.6301   -2.0253   22.5166 C   0  0  0  0  0  0  0  0  0  0  0  0
    7.4115   -3.0345   23.6037 C   0  0  0  0  0  0  0  0  0  0  0  0
    7.5957   -2.4112   25.0132 C   0  0  0  0  0  0  0  0  0  0  0  0
    7.4872   -3.4893   26.0922 C   0  0  0  0  0  0  0  0  0  0  0  0
    8.4058   -4.5457   25.8714 O   0  0  0  0  0  0  0  0  0  0  0  0
    8.1718   -5.2107   24.6420 C   0  0  0  0  0  0  0  0  0  0  0  0
    8.3361   -4.2681   23.4487 C   0  0  0  0  0  0  0  0  0  0  0  0
    8.1120   -4.8061   22.5192 H   0  0  0  0  0  0  0  0  0  0  0  0
    9.3812   -3.9364   23.3957 H   0  0  0  0  0  0  0  0  0  0  0  0
    7.1537   -5.6413   24.6426 H   0  0  0  0  0  0  0  0  0  0  0  0
    8.8848   -6.0372   24.5953 H   0  0  0  0  0  0  0  0  0  0  0  0
    7.7111   -3.0839   27.0819 H   0  0  0  0  0  0  0  0  0  0  0  0
    6.4581   -3.8923   26.1167 H   0  0  0  0  0  0  0  0  0  0  0  0
    8.5848   -1.9387   25.0752 H   0  0  0  0  0  0  0  0  0  0  0  0
    6.8452   -1.6312   25.1952 H   0  0  0  0  0  0  0  0  0  0  0  0
    6.3686   -3.3525   23.4944 H   0  0  0  0  0  0  0  0  0  0  0  0
    6.6767   -1.6014   21.7134 N   0  0  0  0  0  0  0  0  0  0  0  0
    7.3167   -0.6957   20.9275 N   0  0  0  0  0  0  0  0  0  0  0  0
    6.6419    0.0009   19.8949 C   0  0  0  0  0  0  0  0  0  0  0  0
    5.4319    0.6466   20.1628 C   0  0  0  0  0  0  0  0  0  0  0  0
    4.8104    1.3150   19.1077 C   0  0  0  0  0  0  0  0  0  0  0  0
    5.3977    1.2969   17.8364 C   0  0  0  0  0  0  0  0  0  0  0  0
    6.5545    0.6703   17.5735 N   0  0  0  0  0  0  0  0  0  0  0  0
    7.1622    0.0482   18.5876 C   0  0  0  0  0  0  0  0  0  0  0  0
    8.1120   -0.4314   18.3615 H   0  0  0  0  0  0  0  0  0  0  0  0
    4.9208    1.7868   16.9923 H   0  0  0  0  0  0  0  0  0  0  0  0
    3.8800    1.8421   19.2588 H   0  0  0  0  0  0  0  0  0  0  0  0
    5.0161    0.6049   21.1732 H   0  0  0  0  0  0  0  0  0  0  0  0
   10.3215   -0.3349   20.2634 H   0  0  0  0  0  0  0  0  0  0  0  0
    9.1629    1.0258   20.0775 H   0  0  0  0  0  0  0  0  0  0  0  0
    9.9043    3.6960   24.0360 H   0  0  0  0  0  0  0  0  0  0  0  0
   13.1086    1.0686   23.8018 H   0  0  0  0  0  0  0  0  0  0  0  0
  1  2  1  0
  2  3  2  0
  3  4  1  0
  4  5  2  0
  5  6  1  0
  6  7  1  0
  6  8  2  0
  8  9  1  0
  9 10  1  0
 10 11  2  0
 11 12  1  0
 12 13  1  0
 13 14  1  0
 14 15  1  0
 15 16  1  0
 16 17  1  0
 17 18  1  0
 18 19  1  0
 18 20  1  0
 17 21  1  0
 17 22  1  0
 15 23  1  0
 15 24  1  0
 14 25  1  0
 14 26  1  0
 13 27  1  0
 12 28  2  0
 28 29  1  0
 29 30  1  0
 30 31  2  0
 31 32  1  0
 32 33  2  0
 33 34  1  0
 34 35  2  0
 35 36  1  0
 33 37  1  0
 32 38  1  0
 31 39  1  0
  9 40  1  0
  9 41  1  0
  5 42  1  0
  3 43  1  0
  8  2  1  0
 29 10  1  0
 35 30  1  0
 18 13  1  0
M  END
>  <cnnaffinity>  (1) 
-6.57044

>  <filename>  (1) 
Fc1cncc(Cl)c1Cc1nc(C2CCOCC2)nn1-c1cccnc1

$$$$
