
     RDKit          3D

 39 42  0  0  0  0  0  0  0  0999 V2000
   14.9352    0.5729   22.4106 F   0  0  0  0  0  0  0  0  0  0  0  0
   13.9225   -0.1794   21.9653 C   0  0  0  0  0  0  0  0  0  0  0  0
   14.1754   -1.2777   21.1417 C   0  0  0  0  0  0  0  0  0  0  0  0
   13.1037   -2.0188   20.6642 C   0  0  0  0  0  0  0  0  0  0  0  0
   11.8117   -1.6983   21.0465 C   0  0  0  0  0  0  0  0  0  0  0  0
   11.5537   -0.5201   21.7606 C   0  0  0  0  0  0  0  0  0  0  0  0
   10.1400   -0.1284   21.8706 C   0  0  0  0  0  0  0  0  0  0  0  0
    9.1724   -0.9338   21.4501 N   0  0  0  0  0  0  0  0  0  0  0  0
    8.0484   -0.2317   21.6767 N   0  0  0  0  0  0  0  0  0  0  0  0
    6.7901   -0.7351   21.1345 C   0  0  0  0  0  0  0  0  0  0  0  0
    6.2812    0.0524   19.9503 C   0  0  0  0  0  0  0  0  0  0  0  0
    5.0810    0.7670   19.9935 C   0  0  0  0  0  0  0  0  0  0  0  0
    4.6692    1.4650   18.8587 C   0  0  0  0  0  0  0  0  0  0  0  0
    5.4796    1.4319   17.7214 C   0  0  0  0  0  0  0  0  0  0  0  0
    6.6424    0.7623   17.6634 N   0  0  0  0  0  0  0  0  0  0  0  0
    7.0268    0.1006   18.7597 C   0  0  0  0  0  0  0  0  0  0  0  0
    7.9760   -0.4326   18.6848 H   0  0  0  0  0  0  0  0  0  0  0  0
    5.1815    1.9554   16.8153 H   0  0  0  0  0  0  0  0  0  0  0  0
    3.7455    2.0325   18.8461 H   0  0  0  0  0  0  0  0  0  0  0  0
    4.4812    0.7702   20.9060 H   0  0  0  0  0  0  0  0  0  0  0  0
    6.0465   -0.7614   21.9349 H   0  0  0  0  0  0  0  0  0  0  0  0
    6.9932   -1.7740   20.8543 H   0  0  0  0  0  0  0  0  0  0  0  0
    8.3831    0.9666   22.2060 C   0  0  0  0  0  0  0  0  0  0  0  0
    7.3930    1.8632   22.8889 C   0  0  0  0  0  0  0  0  0  0  0  0
    7.0873    1.3081   24.2722 C   0  0  0  0  0  0  0  0  0  0  0  0
    5.9671    0.6472   24.6583 C   0  0  0  0  0  0  0  0  0  0  0  0
    6.1768   -0.0231   26.2159 S   0  0  0  0  0  0  0  0  0  0  0  0
    7.7307    0.5424   26.3893 N   0  0  0  0  0  0  0  0  0  0  0  0
    8.0743    1.2056   25.3209 C   0  0  0  0  0  0  0  0  0  0  0  0
    9.0860    1.6133   25.2429 H   0  0  0  0  0  0  0  0  0  0  0  0
    5.0510    0.5116   24.0986 H   0  0  0  0  0  0  0  0  0  0  0  0
    6.4834    1.9546   22.2827 H   0  0  0  0  0  0  0  0  0  0  0  0
    7.8540    2.8537   22.9502 H   0  0  0  0  0  0  0  0  0  0  0  0
    9.6948    1.0647   22.3301 N   0  0  0  0  0  0  0  0  0  0  0  0
   12.6283    0.2365   22.2632 C   0  0  0  0  0  0  0  0  0  0  0  0
   12.4821    1.1581   22.8191 H   0  0  0  0  0  0  0  0  0  0  0  0
   10.9661   -2.3023   20.7383 H   0  0  0  0  0  0  0  0  0  0  0  0
   13.2992   -2.8223   19.9612 H   0  0  0  0  0  0  0  0  0  0  0  0
   15.1612   -1.5505   20.8216 H   0  0  0  0  0  0  0  0  0  0  0  0
  1  2  1  0
  2  3  2  0
  3  4  1  0
  4  5  2  0
  5  6  1  0
  6  7  1  0
  7  8  2  0
  8  9  1  0
  9 10  1  0
 10 11  1  0
 11 12  2  0
 12 13  1  0
 13 14  2  0
 14 15  1  0
 15 16  2  0
 16 17  1  0
 14 18  1  0
 13 19  1  0
 12 20  1  0
 10 21  1  0
 10 22  1  0
  9 23  1  0
 23 24  1  0
 24 25  1  0
 25 26  2  0
 26 27  1  0
 27 28  1  0
 28 29  2  0
 29 30  1  0
 26 31  1  0
 24 32  1  0
 24 33  1  0
 23 34  2  0
  6 35  2  0
 35 36  1  0
  5 37  1  0
  4 38  1  0
  3 39  1  0
 35  2  1  0
 34  7  1  0
 16 11  1  0
 29 25  1  0
M  END
>  <cnnaffinity>  (1) 
-6.41898

>  <filename>  (1) 
Fc1cccc(-c2nc(Cc3cnsc3)n(Cc3cccnc3)n2)c1

$$$$
