
     RDKit          3D

 42 45  0  0  0  0  0  0  0  0999 V2000
    4.6900    2.2151   27.2973 F   0  0  0  0  0  0  0  0  0  0  0  0
    5.8732    2.5024   26.7377 C   0  0  0  0  0  0  0  0  0  0  0  0
    6.6965    3.4404   27.3545 C   0  0  0  0  0  0  0  0  0  0  0  0
    7.8977    3.7521   26.7243 C   0  0  0  0  0  0  0  0  0  0  0  0
    8.6640    4.7283   27.2295 F   0  0  0  0  0  0  0  0  0  0  0  0
    8.3145    3.1209   25.5615 C   0  0  0  0  0  0  0  0  0  0  0  0
    7.4564    2.1822   24.9508 C   0  0  0  0  0  0  0  0  0  0  0  0
    7.8422    1.5400   23.6682 C   0  0  0  0  0  0  0  0  0  0  0  0
    7.1544    0.5530   23.1143 N   0  0  0  0  0  0  0  0  0  0  0  0
    7.8804    0.2486   22.0207 N   0  0  0  0  0  0  0  0  0  0  0  0
    7.3831   -0.6889   21.0237 C   0  0  0  0  0  0  0  0  0  0  0  0
    6.6514   -0.0059   19.8825 C   0  0  0  0  0  0  0  0  0  0  0  0
    5.4391    0.6492   20.1355 C   0  0  0  0  0  0  0  0  0  0  0  0
    4.7977    1.3086   19.0844 C   0  0  0  0  0  0  0  0  0  0  0  0
    5.3928    1.2983   17.8197 C   0  0  0  0  0  0  0  0  0  0  0  0
    6.5524    0.6761   17.5587 N   0  0  0  0  0  0  0  0  0  0  0  0
    7.1582    0.0512   18.5756 C   0  0  0  0  0  0  0  0  0  0  0  0
    8.1052   -0.4323   18.3251 H   0  0  0  0  0  0  0  0  0  0  0  0
    4.9253    1.8091   16.9782 H   0  0  0  0  0  0  0  0  0  0  0  0
    3.8684    1.8464   19.2325 H   0  0  0  0  0  0  0  0  0  0  0  0
    5.0309    0.6464   21.1484 H   0  0  0  0  0  0  0  0  0  0  0  0
    6.7241   -1.3623   21.5793 H   0  0  0  0  0  0  0  0  0  0  0  0
    8.2303   -1.2776   20.6512 H   0  0  0  0  0  0  0  0  0  0  0  0
    8.9612    1.0546   21.9621 C   0  0  0  0  0  0  0  0  0  0  0  0
   10.0638    0.8495   20.9782 C   0  0  0  0  0  0  0  0  0  0  0  0
   11.0449   -0.3048   21.3572 C   0  0  0  0  0  0  0  0  0  0  0  0
   11.8017   -0.0018   22.6240 C   0  0  0  0  0  0  0  0  0  0  0  0
   11.4060   -0.4705   23.7805 N   0  0  0  0  0  0  0  0  0  0  0  0
   12.2310    0.0828   24.7312 O   0  0  0  0  0  0  0  0  0  0  0  0
   13.1004    0.8980   24.1228 C   0  0  0  0  0  0  0  0  0  0  0  0
   12.8978    0.9010   22.7902 C   0  0  0  0  0  0  0  0  0  0  0  0
   13.4034    1.4801   22.0367 H   0  0  0  0  0  0  0  0  0  0  0  0
   13.7812    1.4063   24.7714 H   0  0  0  0  0  0  0  0  0  0  0  0
   11.7721   -0.4659   20.5598 H   0  0  0  0  0  0  0  0  0  0  0  0
   10.5057   -1.2564   21.4691 H   0  0  0  0  0  0  0  0  0  0  0  0
    9.6101    0.6709   19.9999 H   0  0  0  0  0  0  0  0  0  0  0  0
   10.6021    1.7999   20.9099 H   0  0  0  0  0  0  0  0  0  0  0  0
    8.9519    1.9015   22.9687 N   0  0  0  0  0  0  0  0  0  0  0  0
    6.2183    1.8704   25.5516 C   0  0  0  0  0  0  0  0  0  0  0  0
    5.5316    1.1574   25.1050 H   0  0  0  0  0  0  0  0  0  0  0  0
    9.2812    3.3841   25.1432 H   0  0  0  0  0  0  0  0  0  0  0  0
    6.4043    3.9174   28.2762 H   0  0  0  0  0  0  0  0  0  0  0  0
  1  2  1  0
  2  3  2  0
  3  4  1  0
  4  5  1  0
  4  6  2  0
  6  7  1  0
  7  8  1  0
  8  9  2  0
  9 10  1  0
 10 11  1  0
 11 12  1  0
 12 13  2  0
 13 14  1  0
 14 15  2  0
 15 16  1  0
 16 17  2  0
 17 18  1  0
 15 19  1  0
 14 20  1  0
 13 21  1  0
 11 22  1  0
 11 23  1  0
 10 24  1  0
 24 25  1  0
 25 26  1  0
 26 27  1  0
 27 28  2  0
 28 29  1  0
 29 30  1  0
 30 31  2  0
 31 32  1  0
 30 33  1  0
 26 34  1  0
 26 35  1  0
 25 36  1  0
 25 37  1  0
 24 38  2  0
  7 39  2  0
 39 40  1  0
  6 41  1  0
  3 42  1  0
 39  2  1  0
 38  8  1  0
 17 12  1  0
 31 27  1  0
M  END
>  <cnnaffinity>  (1) 
-5.5792

>  <filename>  (1) 
Fc1cc(F)cc(-c2nc(CCc3ccon3)n(Cc3cccnc3)n2)c1

$$$$
