
     RDKit          3D

 38 41  0  0  0  0  0  0  0  0999 V2000
    9.3886    1.4748   26.5681 F   0  0  0  0  0  0  0  0  0  0  0  0
    9.3318    1.8130   25.2809 C   0  0  0  0  0  0  0  0  0  0  0  0
   10.4931    2.0919   24.5678 C   0  0  0  0  0  0  0  0  0  0  0  0
   10.3680    2.3443   23.1957 C   0  0  0  0  0  0  0  0  0  0  0  0
    9.1078    2.2421   22.5906 C   0  0  0  0  0  0  0  0  0  0  0  0
    8.9727    2.4416   20.8804 Cl  0  0  0  0  0  0  0  0  0  0  0  0
    7.9507    1.9139   23.3161 C   0  0  0  0  0  0  0  0  0  0  0  0
    6.7032    1.3808   22.6214 C   0  0  0  0  0  0  0  0  0  0  0  0
    6.9698   -0.0409   22.1892 C   0  0  0  0  0  0  0  0  0  0  0  0
    7.5685   -0.9315   22.9609 N   0  0  0  0  0  0  0  0  0  0  0  0
    7.8993   -1.9302   22.1060 C   0  0  0  0  0  0  0  0  0  0  0  0
    8.7501   -3.0619   22.5607 C   0  0  0  0  0  0  0  0  0  0  0  0
   10.0862   -2.6905   23.2539 C   0  0  0  0  0  0  0  0  0  0  0  0
    9.9127   -4.0999   24.4072 S   0  0  0  0  0  0  0  0  0  0  0  0
    8.2194   -3.8641   23.7643 C   0  0  0  0  0  0  0  0  0  0  0  0
    7.6843   -4.7803   23.5124 H   0  0  0  0  0  0  0  0  0  0  0  0
    7.6280   -3.2440   24.4464 H   0  0  0  0  0  0  0  0  0  0  0  0
   10.0175   -1.7330   23.7858 H   0  0  0  0  0  0  0  0  0  0  0  0
   10.9896   -2.7093   22.6425 H   0  0  0  0  0  0  0  0  0  0  0  0
    8.9244   -3.7264   21.7136 H   0  0  0  0  0  0  0  0  0  0  0  0
    7.5061   -1.7478   20.8643 N   0  0  0  0  0  0  0  0  0  0  0  0
    6.8474   -0.5538   20.9278 N   0  0  0  0  0  0  0  0  0  0  0  0
    6.3092    0.0258   19.7563 C   0  0  0  0  0  0  0  0  0  0  0  0
    5.1255    0.7772   19.7558 C   0  0  0  0  0  0  0  0  0  0  0  0
    4.7350    1.3676   18.5490 C   0  0  0  0  0  0  0  0  0  0  0  0
    5.5304    1.1918   17.4134 C   0  0  0  0  0  0  0  0  0  0  0  0
    6.6472    0.4448   17.4035 N   0  0  0  0  0  0  0  0  0  0  0  0
    7.0120   -0.1348   18.5473 C   0  0  0  0  0  0  0  0  0  0  0  0
    7.9165   -0.7393   18.5362 H   0  0  0  0  0  0  0  0  0  0  0  0
    5.2663    1.6622   16.4715 H   0  0  0  0  0  0  0  0  0  0  0  0
    3.8380    1.9721   18.4832 H   0  0  0  0  0  0  0  0  0  0  0  0
    4.5283    0.9064   20.6611 H   0  0  0  0  0  0  0  0  0  0  0  0
    5.8539    1.3822   23.3116 H   0  0  0  0  0  0  0  0  0  0  0  0
    6.4552    2.0130   21.7659 H   0  0  0  0  0  0  0  0  0  0  0  0
    8.0673    1.8124   24.7022 C   0  0  0  0  0  0  0  0  0  0  0  0
    7.2010    1.6777   25.3418 H   0  0  0  0  0  0  0  0  0  0  0  0
   11.2283    2.5716   22.5739 H   0  0  0  0  0  0  0  0  0  0  0  0
   11.4561    2.0955   25.0769 H   0  0  0  0  0  0  0  0  0  0  0  0
  1  2  1  0
  2  3  2  0
  3  4  1  0
  4  5  2  0
  5  6  1  0
  5  7  1  0
  7  8  1  0
  8  9  1  0
  9 10  2  0
 10 11  1  0
 11 12  1  0
 12 13  1  0
 13 14  1  0
 14 15  1  0
 15 16  1  0
 15 17  1  0
 13 18  1  0
 13 19  1  0
 12 20  1  0
 11 21  2  0
 21 22  1  0
 22 23  1  0
 23 24  2  0
 24 25  1  0
 25 26  2  0
 26 27  1  0
 27 28  2  0
 28 29  1  0
 26 30  1  0
 25 31  1  0
 24 32  1  0
  8 33  1  0
  8 34  1  0
  7 35  2  0
 35 36  1  0
  4 37  1  0
  3 38  1  0
 35  2  1  0
 22  9  1  0
 28 23  1  0
 15 12  1  0
M  END
>  <cnnaffinity>  (1) 
-6.30503

>  <filename>  (1) 
Fc1ccc(Cl)c(Cc2nc(C3CSC3)nn2-c2cccnc2)c1

$$$$
