
     RDKit          3D

 28 30  0  0  0  0  0  0  0  0999 V2000
    6.3243    0.0368   24.7453 F   0  0  0  0  0  0  0  0  0  0  0  0
    6.6296    1.1361   24.0464 C   0  0  0  0  0  0  0  0  0  0  0  0
    6.3416    2.3842   24.6015 C   0  0  0  0  0  0  0  0  0  0  0  0
    5.6078    2.4900   26.1640 Cl  0  0  0  0  0  0  0  0  0  0  0  0
    6.6539    3.5422   23.8921 C   0  0  0  0  0  0  0  0  0  0  0  0
    7.2590    3.4497   22.6353 C   0  0  0  0  0  0  0  0  0  0  0  0
    7.5441    2.2030   22.0892 C   0  0  0  0  0  0  0  0  0  0  0  0
    7.2173    1.0208   22.7779 C   0  0  0  0  0  0  0  0  0  0  0  0
    7.5517   -0.3099   22.2402 C   0  0  0  0  0  0  0  0  0  0  0  0
    8.2010   -1.3436   22.8735 C   0  0  0  0  0  0  0  0  0  0  0  0
    8.3869   -2.3024   21.8671 C   0  0  0  0  0  0  0  0  0  0  0  0
    7.8947   -1.9161   20.7000 N   0  0  0  0  0  0  0  0  0  0  0  0
    7.3687   -0.6986   20.9311 N   0  0  0  0  0  0  0  0  0  0  0  0
    6.6516   -0.0155   19.9093 C   0  0  0  0  0  0  0  0  0  0  0  0
    5.4334    0.6305   20.1682 C   0  0  0  0  0  0  0  0  0  0  0  0
    4.8121    1.2977   19.1080 C   0  0  0  0  0  0  0  0  0  0  0  0
    5.4108    1.2902   17.8427 C   0  0  0  0  0  0  0  0  0  0  0  0
    6.5764    0.6703   17.5943 N   0  0  0  0  0  0  0  0  0  0  0  0
    7.1747    0.0383   18.6056 C   0  0  0  0  0  0  0  0  0  0  0  0
    8.1221   -0.4396   18.3776 H   0  0  0  0  0  0  0  0  0  0  0  0
    4.9277    1.7818   16.9962 H   0  0  0  0  0  0  0  0  0  0  0  0
    3.8802    1.8376   19.2590 H   0  0  0  0  0  0  0  0  0  0  0  0
    5.0088    0.6370   21.1758 H   0  0  0  0  0  0  0  0  0  0  0  0
    8.8619   -3.2670   21.9565 H   0  0  0  0  0  0  0  0  0  0  0  0
    8.5215   -1.3459   23.9050 H   0  0  0  0  0  0  0  0  0  0  0  0
    8.0077    2.1105   21.1112 H   0  0  0  0  0  0  0  0  0  0  0  0
    7.4999    4.3489   22.0777 H   0  0  0  0  0  0  0  0  0  0  0  0
    6.4227    4.5024   24.3353 H   0  0  0  0  0  0  0  0  0  0  0  0
  1  2  1  0
  2  3  2  0
  3  4  1  0
  3  5  1  0
  5  6  2  0
  6  7  1  0
  7  8  2  0
  8  9  1  0
  9 10  2  0
 10 11  1  0
 11 12  2  0
 12 13  1  0
 13 14  1  0
 14 15  2  0
 15 16  1  0
 16 17  2  0
 17 18  1  0
 18 19  2  0
 19 20  1  0
 17 21  1  0
 16 22  1  0
 15 23  1  0
 11 24  1  0
 10 25  1  0
  7 26  1  0
  6 27  1  0
  5 28  1  0
  8  2  1  0
 13  9  1  0
 19 14  1  0
M  END
>  <cnnaffinity>  (1) 
-5.38476

>  <filename>  (1) 
Fc1c(Cl)cccc1-c1ccnn1-c1cccnc1

$$$$
