
     RDKit          3D

 43 46  0  0  0  0  0  0  0  0999 V2000
    9.9495    0.0234   20.5263 F   0  0  0  0  0  0  0  0  0  0  0  0
   10.6619    0.6038   21.5211 C   0  0  0  0  0  0  0  0  0  0  0  0
   11.9070    0.0740   21.8323 C   0  0  0  0  0  0  0  0  0  0  0  0
   12.6248    0.6175   22.9003 C   0  0  0  0  0  0  0  0  0  0  0  0
   12.0862    1.6766   23.6310 C   0  0  0  0  0  0  0  0  0  0  0  0
   10.8182    2.1468   23.3003 C   0  0  0  0  0  0  0  0  0  0  0  0
   10.2931    3.1323   24.0558 F   0  0  0  0  0  0  0  0  0  0  0  0
   10.0703    1.6589   22.2204 C   0  0  0  0  0  0  0  0  0  0  0  0
    8.6773    2.1483   21.8983 C   0  0  0  0  0  0  0  0  0  0  0  0
    7.6059    1.3033   22.6438 C   0  0  0  0  0  0  0  0  0  0  0  0
    7.6122   -0.1443   22.2527 C   0  0  0  0  0  0  0  0  0  0  0  0
    8.1560   -1.1368   22.9354 N   0  0  0  0  0  0  0  0  0  0  0  0
    8.1930   -2.1458   22.0279 C   0  0  0  0  0  0  0  0  0  0  0  0
    8.8134   -3.4729   22.2761 C   0  0  0  0  0  0  0  0  0  0  0  0
    7.8945   -4.4439   22.9876 C   0  0  0  0  0  0  0  0  0  0  0  0
    6.9698   -5.2631   22.1367 C   0  0  0  0  0  0  0  0  0  0  0  0
    8.1211   -5.9180   22.8490 C   0  0  0  0  0  0  0  0  0  0  0  0
    8.9646   -6.2687   22.2610 H   0  0  0  0  0  0  0  0  0  0  0  0
    7.9053   -6.5291   23.7179 H   0  0  0  0  0  0  0  0  0  0  0  0
    7.0629   -5.1315   21.0590 H   0  0  0  0  0  0  0  0  0  0  0  0
    5.9554   -5.4511   22.4763 H   0  0  0  0  0  0  0  0  0  0  0  0
    7.5250   -4.1015   23.9539 H   0  0  0  0  0  0  0  0  0  0  0  0
    9.7533   -3.3361   22.8199 H   0  0  0  0  0  0  0  0  0  0  0  0
    9.0149   -3.8487   21.2733 H   0  0  0  0  0  0  0  0  0  0  0  0
    7.6671   -1.8617   20.8579 N   0  0  0  0  0  0  0  0  0  0  0  0
    7.2548   -0.5849   21.0118 N   0  0  0  0  0  0  0  0  0  0  0  0
    6.5931    0.0673   19.9433 C   0  0  0  0  0  0  0  0  0  0  0  0
    5.3767    0.7202   20.1478 C   0  0  0  0  0  0  0  0  0  0  0  0
    4.7853    1.3501   19.0513 C   0  0  0  0  0  0  0  0  0  0  0  0
    5.4297    1.3012   17.8111 C   0  0  0  0  0  0  0  0  0  0  0  0
    6.5916    0.6541   17.6078 N   0  0  0  0  0  0  0  0  0  0  0  0
    7.1524    0.0375   18.6541 C   0  0  0  0  0  0  0  0  0  0  0  0
    8.0891   -0.4920   18.4770 H   0  0  0  0  0  0  0  0  0  0  0  0
    4.9902    1.7885   16.9443 H   0  0  0  0  0  0  0  0  0  0  0  0
    3.8412    1.8705   19.1578 H   0  0  0  0  0  0  0  0  0  0  0  0
    4.9081    0.6986   21.1315 H   0  0  0  0  0  0  0  0  0  0  0  0
    6.6169    1.7289   22.4702 H   0  0  0  0  0  0  0  0  0  0  0  0
    7.7935    1.3542   23.7205 H   0  0  0  0  0  0  0  0  0  0  0  0
    8.5889    3.2033   22.1857 H   0  0  0  0  0  0  0  0  0  0  0  0
    8.5248    2.1123   20.8119 H   0  0  0  0  0  0  0  0  0  0  0  0
   12.6201    2.1373   24.4500 H   0  0  0  0  0  0  0  0  0  0  0  0
   13.5937    0.2046   23.1649 H   0  0  0  0  0  0  0  0  0  0  0  0
   12.2922   -0.7307   21.2261 H   0  0  0  0  0  0  0  0  0  0  0  0
  1  2  1  0
  2  3  2  0
  3  4  1  0
  4  5  2  0
  5  6  1  0
  6  7  1  0
  6  8  2  0
  8  9  1  0
  9 10  1  0
 10 11  1  0
 11 12  2  0
 12 13  1  0
 13 14  1  0
 14 15  1  0
 15 16  1  0
 16 17  1  0
 17 18  1  0
 17 19  1  0
 16 20  1  0
 16 21  1  0
 15 22  1  0
 14 23  1  0
 14 24  1  0
 13 25  2  0
 25 26  1  0
 26 27  1  0
 27 28  2  0
 28 29  1  0
 29 30  2  0
 30 31  1  0
 31 32  2  0
 32 33  1  0
 30 34  1  0
 29 35  1  0
 28 36  1  0
 10 37  1  0
 10 38  1  0
  9 39  1  0
  9 40  1  0
  5 41  1  0
  4 42  1  0
  3 43  1  0
  8  2  1  0
 26 11  1  0
 32 27  1  0
 17 15  1  0
M  END
>  <cnnaffinity>  (1) 
-6.28207

>  <filename>  (1) 
Fc1cccc(F)c1CCc1nc(CC2CC2)nn1-c1cccnc1

$$$$
