
     RDKit          3D

 44 47  0  0  0  0  0  0  0  0999 V2000
   13.5670   -2.2472   20.4741 F   0  0  0  0  0  0  0  0  0  0  0  0
   12.9310   -1.4881   21.3753 C   0  0  0  0  0  0  0  0  0  0  0  0
   13.6950   -0.6936   22.2249 C   0  0  0  0  0  0  0  0  0  0  0  0
   13.0097    0.1185   23.1231 C   0  0  0  0  0  0  0  0  0  0  0  0
   13.7134    0.8703   23.9778 F   0  0  0  0  0  0  0  0  0  0  0  0
   11.6257    0.2061   23.1489 C   0  0  0  0  0  0  0  0  0  0  0  0
   10.8791   -0.5854   22.2555 C   0  0  0  0  0  0  0  0  0  0  0  0
    9.4054   -0.3895   22.1918 C   0  0  0  0  0  0  0  0  0  0  0  0
    8.5781   -1.1548   21.5027 N   0  0  0  0  0  0  0  0  0  0  0  0
    7.3789   -0.5457   21.6607 N   0  0  0  0  0  0  0  0  0  0  0  0
    6.2328   -1.0075   20.8766 C   0  0  0  0  0  0  0  0  0  0  0  0
    5.8858   -0.0904   19.7209 C   0  0  0  0  0  0  0  0  0  0  0  0
    4.7125    0.6679   19.6480 C   0  0  0  0  0  0  0  0  0  0  0  0
    4.5214    1.5049   18.5435 C   0  0  0  0  0  0  0  0  0  0  0  0
    5.5040    1.5433   17.5504 C   0  0  0  0  0  0  0  0  0  0  0  0
    6.6294    0.8130   17.5961 N   0  0  0  0  0  0  0  0  0  0  0  0
    6.8021    0.0233   18.6617 C   0  0  0  0  0  0  0  0  0  0  0  0
    7.7166   -0.5723   18.6804 H   0  0  0  0  0  0  0  0  0  0  0  0
    5.3820    2.1738   16.6696 H   0  0  0  0  0  0  0  0  0  0  0  0
    3.6448    2.1366   18.4495 H   0  0  0  0  0  0  0  0  0  0  0  0
    3.9512    0.5971   20.4288 H   0  0  0  0  0  0  0  0  0  0  0  0
    5.3756   -1.1569   21.5361 H   0  0  0  0  0  0  0  0  0  0  0  0
    6.5165   -1.9965   20.5017 H   0  0  0  0  0  0  0  0  0  0  0  0
    7.5338    0.5462   22.4502 C   0  0  0  0  0  0  0  0  0  0  0  0
    6.4805    1.4436   23.0250 C   0  0  0  0  0  0  0  0  0  0  0  0
    6.5249    1.3831   24.5714 C   0  0  0  0  0  0  0  0  0  0  0  0
    5.5857    2.2549   25.2638 N   0  0  0  0  0  0  0  0  0  0  0  0
    4.2504    1.9855   25.4326 C   0  0  0  0  0  0  0  0  0  0  0  0
    3.7320    2.8812   26.3332 C   0  0  0  0  0  0  0  0  0  0  0  0
    4.8017    3.7225   26.7496 C   0  0  0  0  0  0  0  0  0  0  0  0
    5.9261    3.3078   26.0799 C   0  0  0  0  0  0  0  0  0  0  0  0
    6.9445    3.6754   26.1061 H   0  0  0  0  0  0  0  0  0  0  0  0
    4.7556    4.5243   27.4783 H   0  0  0  0  0  0  0  0  0  0  0  0
    2.7057    2.9158   26.6839 H   0  0  0  0  0  0  0  0  0  0  0  0
    3.7902    1.1661   24.8949 H   0  0  0  0  0  0  0  0  0  0  0  0
    6.3330    0.3526   24.9016 H   0  0  0  0  0  0  0  0  0  0  0  0
    7.5313    1.6475   24.9150 H   0  0  0  0  0  0  0  0  0  0  0  0
    6.6882    2.4664   22.6897 H   0  0  0  0  0  0  0  0  0  0  0  0
    5.4906    1.1645   22.6491 H   0  0  0  0  0  0  0  0  0  0  0  0
    8.8024    0.6643   22.7956 N   0  0  0  0  0  0  0  0  0  0  0  0
   11.5425   -1.4817   21.3940 C   0  0  0  0  0  0  0  0  0  0  0  0
   10.9923   -2.1427   20.7373 H   0  0  0  0  0  0  0  0  0  0  0  0
   11.1377    0.9050   23.8248 H   0  0  0  0  0  0  0  0  0  0  0  0
   14.7716   -0.7360   22.2046 H   0  0  0  0  0  0  0  0  0  0  0  0
  1  2  1  0
  2  3  2  0
  3  4  1  0
  4  5  1  0
  4  6  2  0
  6  7  1  0
  7  8  1  0
  8  9  2  0
  9 10  1  0
 10 11  1  0
 11 12  1  0
 12 13  2  0
 13 14  1  0
 14 15  2  0
 15 16  1  0
 16 17  2  0
 17 18  1  0
 15 19  1  0
 14 20  1  0
 13 21  1  0
 11 22  1  0
 11 23  1  0
 10 24  1  0
 24 25  1  0
 25 26  1  0
 26 27  1  0
 27 28  1  0
 28 29  2  0
 29 30  1  0
 30 31  2  0
 31 32  1  0
 30 33  1  0
 29 34  1  0
 28 35  1  0
 26 36  1  0
 26 37  1  0
 25 38  1  0
 25 39  1  0
 24 40  2  0
  7 41  2  0
 41 42  1  0
  6 43  1  0
  3 44  1  0
 41  2  1  0
 40  8  1  0
 17 12  1  0
 31 27  1  0
M  END
>  <cnnaffinity>  (1) 
-6.39698

>  <filename>  (1) 
Fc1cc(F)cc(-c2nc(CCn3cccc3)n(Cc3cccnc3)n2)c1

$$$$
