
     RDKit          3D

 45 48  0  0  0  0  0  0  0  0999 V2000
    6.4426    4.1020   28.4261 F   0  0  0  0  0  0  0  0  0  0  0  0
    6.7912    3.4914   27.2836 C   0  0  0  0  0  0  0  0  0  0  0  0
    5.9020    2.5903   26.7045 C   0  0  0  0  0  0  0  0  0  0  0  0
    6.2653    1.9572   25.5176 C   0  0  0  0  0  0  0  0  0  0  0  0
    7.5112    2.2336   24.9164 C   0  0  0  0  0  0  0  0  0  0  0  0
    7.8838    1.5705   23.6559 C   0  0  0  0  0  0  0  0  0  0  0  0
    7.1776    0.5922   23.1063 N   0  0  0  0  0  0  0  0  0  0  0  0
    7.9120    0.2540   22.0247 N   0  0  0  0  0  0  0  0  0  0  0  0
    7.3917   -0.6793   21.0299 C   0  0  0  0  0  0  0  0  0  0  0  0
    6.6549   -0.0006   19.8865 C   0  0  0  0  0  0  0  0  0  0  0  0
    5.4401    0.6482   20.1364 C   0  0  0  0  0  0  0  0  0  0  0  0
    4.7981    1.3067   19.0847 C   0  0  0  0  0  0  0  0  0  0  0  0
    5.3918    1.2986   17.8193 C   0  0  0  0  0  0  0  0  0  0  0  0
    6.5516    0.6764   17.5583 N   0  0  0  0  0  0  0  0  0  0  0  0
    7.1586    0.0531   18.5767 C   0  0  0  0  0  0  0  0  0  0  0  0
    8.1052   -0.4299   18.3248 H   0  0  0  0  0  0  0  0  0  0  0  0
    4.9244    1.8094   16.9774 H   0  0  0  0  0  0  0  0  0  0  0  0
    3.8698    1.8443   19.2341 H   0  0  0  0  0  0  0  0  0  0  0  0
    5.0313    0.6453   21.1486 H   0  0  0  0  0  0  0  0  0  0  0  0
    6.7286   -1.3402   21.5946 H   0  0  0  0  0  0  0  0  0  0  0  0
    8.2259   -1.2828   20.6520 H   0  0  0  0  0  0  0  0  0  0  0  0
    9.0130    1.0340   21.9684 C   0  0  0  0  0  0  0  0  0  0  0  0
   10.1002    0.8103   20.9769 C   0  0  0  0  0  0  0  0  0  0  0  0
   11.0485   -0.3628   21.3444 C   0  0  0  0  0  0  0  0  0  0  0  0
   11.7565   -0.0724   22.6441 C   0  0  0  0  0  0  0  0  0  0  0  0
   12.8664    0.7795   22.6699 C   0  0  0  0  0  0  0  0  0  0  0  0
   13.4671    1.0810   23.8848 C   0  0  0  0  0  0  0  0  0  0  0  0
   12.9443    0.5244   25.0558 C   0  0  0  0  0  0  0  0  0  0  0  0
   11.8332   -0.2155   25.0675 N   0  0  0  0  0  0  0  0  0  0  0  0
   11.2585   -0.5036   23.8882 C   0  0  0  0  0  0  0  0  0  0  0  0
   10.3933   -1.1713   23.9385 H   0  0  0  0  0  0  0  0  0  0  0  0
   13.4497    0.6328   26.0156 H   0  0  0  0  0  0  0  0  0  0  0  0
   14.2872    1.7704   23.8884 H   0  0  0  0  0  0  0  0  0  0  0  0
   13.2531    1.2279   21.7532 H   0  0  0  0  0  0  0  0  0  0  0  0
   11.7872   -0.5239   20.5520 H   0  0  0  0  0  0  0  0  0  0  0  0
   10.4938   -1.3088   21.4198 H   0  0  0  0  0  0  0  0  0  0  0  0
    9.6359    0.6428   20.0019 H   0  0  0  0  0  0  0  0  0  0  0  0
   10.6681    1.7440   20.9072 H   0  0  0  0  0  0  0  0  0  0  0  0
    9.0102    1.8959   22.9648 N   0  0  0  0  0  0  0  0  0  0  0  0
    8.3944    3.1467   25.5334 C   0  0  0  0  0  0  0  0  0  0  0  0
    8.0294    3.7823   26.7190 C   0  0  0  0  0  0  0  0  0  0  0  0
    8.6705    4.5014   27.2136 H   0  0  0  0  0  0  0  0  0  0  0  0
    9.3612    3.3601   25.0765 H   0  0  0  0  0  0  0  0  0  0  0  0
    5.5922    1.2426   25.0425 H   0  0  0  0  0  0  0  0  0  0  0  0
    4.9525    2.4053   27.1915 H   0  0  0  0  0  0  0  0  0  0  0  0
  1  2  1  0
  2  3  2  0
  3  4  1  0
  4  5  2  0
  5  6  1  0
  6  7  2  0
  7  8  1  0
  8  9  1  0
  9 10  1  0
 10 11  2  0
 11 12  1  0
 12 13  2  0
 13 14  1  0
 14 15  2  0
 15 16  1  0
 13 17  1  0
 12 18  1  0
 11 19  1  0
  9 20  1  0
  9 21  1  0
  8 22  1  0
 22 23  1  0
 23 24  1  0
 24 25  1  0
 25 26  2  0
 26 27  1  0
 27 28  2  0
 28 29  1  0
 29 30  2  0
 30 31  1  0
 28 32  1  0
 27 33  1  0
 26 34  1  0
 24 35  1  0
 24 36  1  0
 23 37  1  0
 23 38  1  0
 22 39  2  0
  5 40  1  0
 40 41  2  0
 41 42  1  0
 40 43  1  0
  4 44  1  0
  3 45  1  0
 41  2  1  0
 39  6  1  0
 15 10  1  0
 30 25  1  0
M  END
>  <cnnaffinity>  (1) 
-6.00237

>  <filename>  (1) 
Fc1ccc(-c2nc(CCc3cccnc3)n(Cc3cccnc3)n2)cc1

$$$$
