
     RDKit          3D

 41 44  0  0  0  0  0  0  0  0999 V2000
    4.6108    5.6118   21.7642 F   0  0  0  0  0  0  0  0  0  0  0  0
    5.8100    5.1737   22.1753 C   0  0  0  0  0  0  0  0  0  0  0  0
    6.4702    5.9087   23.1568 C   0  0  0  0  0  0  0  0  0  0  0  0
    7.7105    5.4387   23.5762 C   0  0  0  0  0  0  0  0  0  0  0  0
    8.2742    4.2735   23.0355 C   0  0  0  0  0  0  0  0  0  0  0  0
    7.5815    3.5514   22.0479 C   0  0  0  0  0  0  0  0  0  0  0  0
    8.0314    2.4035   21.4595 O   0  0  0  0  0  0  0  0  0  0  0  0
    9.3139    1.8730   21.7862 C   0  0  0  0  0  0  0  0  0  0  0  0
    9.5192    0.5838   20.9870 C   0  0  0  0  0  0  0  0  0  0  0  0
    8.5986   -0.4993   21.4185 C   0  0  0  0  0  0  0  0  0  0  0  0
    8.8260   -1.3190   22.4238 N   0  0  0  0  0  0  0  0  0  0  0  0
    7.6450   -1.9825   22.5449 C   0  0  0  0  0  0  0  0  0  0  0  0
    7.4286   -3.0551   23.5491 C   0  0  0  0  0  0  0  0  0  0  0  0
    6.9681   -4.4168   23.0961 C   0  0  0  0  0  0  0  0  0  0  0  0
    8.3699   -4.2317   23.6055 C   0  0  0  0  0  0  0  0  0  0  0  0
    9.1911   -4.2332   22.8917 H   0  0  0  0  0  0  0  0  0  0  0  0
    8.6384   -4.6459   24.5752 H   0  0  0  0  0  0  0  0  0  0  0  0
    6.8145   -4.5405   22.0258 H   0  0  0  0  0  0  0  0  0  0  0  0
    6.2485   -4.9579   23.7072 H   0  0  0  0  0  0  0  0  0  0  0  0
    7.0450   -2.6754   24.4932 H   0  0  0  0  0  0  0  0  0  0  0  0
    6.7090   -1.6153   21.6897 N   0  0  0  0  0  0  0  0  0  0  0  0
    7.3397   -0.6811   20.9326 N   0  0  0  0  0  0  0  0  0  0  0  0
    6.6536    0.0054   19.8985 C   0  0  0  0  0  0  0  0  0  0  0  0
    5.4366    0.6408   20.1642 C   0  0  0  0  0  0  0  0  0  0  0  0
    4.8100    1.3061   19.1080 C   0  0  0  0  0  0  0  0  0  0  0  0
    5.3986    1.2944   17.8376 C   0  0  0  0  0  0  0  0  0  0  0  0
    6.5566    0.6697   17.5733 N   0  0  0  0  0  0  0  0  0  0  0  0
    7.1662    0.0523   18.5919 C   0  0  0  0  0  0  0  0  0  0  0  0
    8.1122   -0.4329   18.3637 H   0  0  0  0  0  0  0  0  0  0  0  0
    4.9201    1.7868   16.9958 H   0  0  0  0  0  0  0  0  0  0  0  0
    3.8798    1.8410   19.2566 H   0  0  0  0  0  0  0  0  0  0  0  0
    5.0194    0.6133   21.1751 H   0  0  0  0  0  0  0  0  0  0  0  0
   10.5355    0.2196   21.1472 H   0  0  0  0  0  0  0  0  0  0  0  0
    9.4138    0.7872   19.9227 H   0  0  0  0  0  0  0  0  0  0  0  0
   10.1093    2.5935   21.5495 H   0  0  0  0  0  0  0  0  0  0  0  0
    9.3657    1.6339   22.8569 H   0  0  0  0  0  0  0  0  0  0  0  0
    6.3260    4.0116   21.6118 C   0  0  0  0  0  0  0  0  0  0  0  0
    5.7697    3.4947   20.8404 H   0  0  0  0  0  0  0  0  0  0  0  0
    9.2446    3.9345   23.3756 H   0  0  0  0  0  0  0  0  0  0  0  0
    8.2516    5.9902   24.3403 H   0  0  0  0  0  0  0  0  0  0  0  0
    6.0072    6.8089   23.5563 H   0  0  0  0  0  0  0  0  0  0  0  0
  1  2  1  0
  2  3  2  0
  3  4  1  0
  4  5  2  0
  5  6  1  0
  6  7  1  0
  7  8  1  0
  8  9  1  0
  9 10  1  0
 10 11  2  0
 11 12  1  0
 12 13  1  0
 13 14  1  0
 14 15  1  0
 15 16  1  0
 15 17  1  0
 14 18  1  0
 14 19  1  0
 13 20  1  0
 12 21  2  0
 21 22  1  0
 22 23  1  0
 23 24  2  0
 24 25  1  0
 25 26  2  0
 26 27  1  0
 27 28  2  0
 28 29  1  0
 26 30  1  0
 25 31  1  0
 24 32  1  0
  9 33  1  0
  9 34  1  0
  8 35  1  0
  8 36  1  0
  6 37  2  0
 37 38  1  0
  5 39  1  0
  4 40  1  0
  3 41  1  0
 37  2  1  0
 22 10  1  0
 28 23  1  0
 15 13  1  0
M  END
>  <cnnaffinity>  (1) 
-5.83598

>  <filename>  (1) 
Fc1cccc(OCCc2nc(C3CC3)nn2-c2cccnc2)c1

$$$$
