
     RDKit          3D

 42 45  0  0  0  0  0  0  0  0999 V2000
    7.4125    5.8133   26.4902 F   0  0  0  0  0  0  0  0  0  0  0  0
    7.8062    4.8725   25.6180 C   0  0  0  0  0  0  0  0  0  0  0  0
    7.8056    5.1521   24.2606 C   0  0  0  0  0  0  0  0  0  0  0  0
    8.2187    4.1597   23.3572 C   0  0  0  0  0  0  0  0  0  0  0  0
    8.6279    2.8930   23.8003 C   0  0  0  0  0  0  0  0  0  0  0  0
    9.0460    1.8725   23.0059 O   0  0  0  0  0  0  0  0  0  0  0  0
    9.0514    1.9968   21.5854 C   0  0  0  0  0  0  0  0  0  0  0  0
    9.4961    0.6469   21.0165 C   0  0  0  0  0  0  0  0  0  0  0  0
    8.6073   -0.4656   21.4504 C   0  0  0  0  0  0  0  0  0  0  0  0
    8.8405   -1.2953   22.4408 N   0  0  0  0  0  0  0  0  0  0  0  0
    7.6644   -1.9616   22.5712 C   0  0  0  0  0  0  0  0  0  0  0  0
    7.4431   -2.9272   23.6833 C   0  0  0  0  0  0  0  0  0  0  0  0
    7.4939   -2.2770   25.1022 C   0  0  0  0  0  0  0  0  0  0  0  0
    8.8888   -3.3400   25.6050 S   0  0  0  0  0  0  0  0  0  0  0  0
    8.5980   -3.9409   23.9067 C   0  0  0  0  0  0  0  0  0  0  0  0
    8.2892   -4.9902   23.8828 H   0  0  0  0  0  0  0  0  0  0  0  0
    9.4666   -3.7995   23.2546 H   0  0  0  0  0  0  0  0  0  0  0  0
    6.5960   -2.4499   25.7032 H   0  0  0  0  0  0  0  0  0  0  0  0
    7.7459   -1.2077   25.1201 H   0  0  0  0  0  0  0  0  0  0  0  0
    6.4897   -3.4159   23.4851 H   0  0  0  0  0  0  0  0  0  0  0  0
    6.7365   -1.6308   21.7000 N   0  0  0  0  0  0  0  0  0  0  0  0
    7.3520   -0.6715   20.9483 N   0  0  0  0  0  0  0  0  0  0  0  0
    6.6571    0.0069   19.9043 C   0  0  0  0  0  0  0  0  0  0  0  0
    5.4393    0.6454   20.1662 C   0  0  0  0  0  0  0  0  0  0  0  0
    4.8132    1.3111   19.1087 C   0  0  0  0  0  0  0  0  0  0  0  0
    5.4010    1.2960   17.8375 C   0  0  0  0  0  0  0  0  0  0  0  0
    6.5595    0.6711   17.5771 N   0  0  0  0  0  0  0  0  0  0  0  0
    7.1680    0.0499   18.5936 C   0  0  0  0  0  0  0  0  0  0  0  0
    8.1124   -0.4381   18.3652 H   0  0  0  0  0  0  0  0  0  0  0  0
    4.9212    1.7865   16.9931 H   0  0  0  0  0  0  0  0  0  0  0  0
    3.8805    1.8395   19.2591 H   0  0  0  0  0  0  0  0  0  0  0  0
    5.0136    0.6091   21.1727 H   0  0  0  0  0  0  0  0  0  0  0  0
   10.5132    0.4165   21.3385 H   0  0  0  0  0  0  0  0  0  0  0  0
    9.5174    0.7162   19.9274 H   0  0  0  0  0  0  0  0  0  0  0  0
    9.7467    2.7885   21.2722 H   0  0  0  0  0  0  0  0  0  0  0  0
    8.0470    2.2542   21.2176 H   0  0  0  0  0  0  0  0  0  0  0  0
    8.6050    2.6636   25.1991 C   0  0  0  0  0  0  0  0  0  0  0  0
    8.9753    1.4625   25.6804 F   0  0  0  0  0  0  0  0  0  0  0  0
    8.2059    3.6319   26.1114 C   0  0  0  0  0  0  0  0  0  0  0  0
    8.1985    3.4256   27.1764 H   0  0  0  0  0  0  0  0  0  0  0  0
    8.2227    4.3786   22.2932 H   0  0  0  0  0  0  0  0  0  0  0  0
    7.4836    6.1304   23.9207 H   0  0  0  0  0  0  0  0  0  0  0  0
  1  2  1  0
  2  3  2  0
  3  4  1  0
  4  5  2  0
  5  6  1  0
  6  7  1  0
  7  8  1  0
  8  9  1  0
  9 10  2  0
 10 11  1  0
 11 12  1  0
 12 13  1  0
 13 14  1  0
 14 15  1  0
 15 16  1  0
 15 17  1  0
 13 18  1  0
 13 19  1  0
 12 20  1  0
 11 21  2  0
 21 22  1  0
 22 23  1  0
 23 24  2  0
 24 25  1  0
 25 26  2  0
 26 27  1  0
 27 28  2  0
 28 29  1  0
 26 30  1  0
 25 31  1  0
 24 32  1  0
  8 33  1  0
  8 34  1  0
  7 35  1  0
  7 36  1  0
  5 37  1  0
 37 38  1  0
 37 39  2  0
 39 40  1  0
  4 41  1  0
  3 42  1  0
 39  2  1  0
 22  9  1  0
 28 23  1  0
 15 12  1  0
M  END
>  <cnnaffinity>  (1) 
-6.13418

>  <filename>  (1) 
Fc1ccc(OCCc2nc(C3CSC3)nn2-c2cccnc2)c(F)c1

$$$$
