
     RDKit          3D

 41 44  0  0  0  0  0  0  0  0999 V2000
    6.7831   -5.7135   26.6325 F   0  0  0  0  0  0  0  0  0  0  0  0
    6.9993   -4.8140   25.6637 C   0  0  0  0  0  0  0  0  0  0  0  0
    5.9779   -4.5613   24.7513 C   0  0  0  0  0  0  0  0  0  0  0  0
    6.2022   -3.6244   23.7470 C   0  0  0  0  0  0  0  0  0  0  0  0
    7.4381   -2.9509   23.6542 C   0  0  0  0  0  0  0  0  0  0  0  0
    7.6663   -1.9721   22.5719 C   0  0  0  0  0  0  0  0  0  0  0  0
    6.7332   -1.6054   21.7069 N   0  0  0  0  0  0  0  0  0  0  0  0
    7.3627   -0.6860   20.9362 N   0  0  0  0  0  0  0  0  0  0  0  0
    6.6558   -0.0019   19.9001 C   0  0  0  0  0  0  0  0  0  0  0  0
    5.4397    0.6381   20.1674 C   0  0  0  0  0  0  0  0  0  0  0  0
    4.8140    1.3083   19.1094 C   0  0  0  0  0  0  0  0  0  0  0  0
    5.4011    1.2964   17.8364 C   0  0  0  0  0  0  0  0  0  0  0  0
    6.5583    0.6713   17.5727 N   0  0  0  0  0  0  0  0  0  0  0  0
    7.1646    0.0487   18.5899 C   0  0  0  0  0  0  0  0  0  0  0  0
    8.1099   -0.4356   18.3631 H   0  0  0  0  0  0  0  0  0  0  0  0
    4.9223    1.7885   16.9918 H   0  0  0  0  0  0  0  0  0  0  0  0
    3.8818    1.8392   19.2590 H   0  0  0  0  0  0  0  0  0  0  0  0
    5.0205    0.6094   21.1789 H   0  0  0  0  0  0  0  0  0  0  0  0
    8.6356   -0.5193   21.4039 C   0  0  0  0  0  0  0  0  0  0  0  0
    9.5177    0.6122   20.9740 C   0  0  0  0  0  0  0  0  0  0  0  0
    9.0609    2.0083   21.5084 C   0  0  0  0  0  0  0  0  0  0  0  0
    8.9809    2.0700   23.0069 C   0  0  0  0  0  0  0  0  0  0  0  0
   10.1301    2.2388   23.6701 N   0  0  0  0  0  0  0  0  0  0  0  0
   10.0802    2.1632   25.0003 C   0  0  0  0  0  0  0  0  0  0  0  0
    8.8817    1.9551   25.6711 C   0  0  0  0  0  0  0  0  0  0  0  0
    8.7478    1.9370   26.9982 F   0  0  0  0  0  0  0  0  0  0  0  0
    7.7531    1.7713   24.8982 C   0  0  0  0  0  0  0  0  0  0  0  0
    7.7878    1.8492   23.5710 N   0  0  0  0  0  0  0  0  0  0  0  0
    6.8086    1.5627   25.4018 H   0  0  0  0  0  0  0  0  0  0  0  0
   11.0334    2.2361   25.5184 H   0  0  0  0  0  0  0  0  0  0  0  0
    8.0719    2.2538   21.1228 H   0  0  0  0  0  0  0  0  0  0  0  0
    9.7617    2.7759   21.1842 H   0  0  0  0  0  0  0  0  0  0  0  0
    9.5606    0.6398   19.8820 H   0  0  0  0  0  0  0  0  0  0  0  0
   10.5295    0.3871   21.3236 H   0  0  0  0  0  0  0  0  0  0  0  0
    8.8637   -1.3486   22.3993 N   0  0  0  0  0  0  0  0  0  0  0  0
    8.4491   -3.2338   24.5992 C   0  0  0  0  0  0  0  0  0  0  0  0
    8.2325   -4.1694   25.6093 C   0  0  0  0  0  0  0  0  0  0  0  0
    8.9888   -4.4112   26.3509 H   0  0  0  0  0  0  0  0  0  0  0  0
    9.4076   -2.7210   24.5442 H   0  0  0  0  0  0  0  0  0  0  0  0
    5.4190   -3.4008   23.0258 H   0  0  0  0  0  0  0  0  0  0  0  0
    5.0361   -5.0914   24.8459 H   0  0  0  0  0  0  0  0  0  0  0  0
  1  2  1  0
  2  3  2  0
  3  4  1  0
  4  5  2  0
  5  6  1  0
  6  7  2  0
  7  8  1  0
  8  9  1  0
  9 10  2  0
 10 11  1  0
 11 12  2  0
 12 13  1  0
 13 14  2  0
 14 15  1  0
 12 16  1  0
 11 17  1  0
 10 18  1  0
  8 19  1  0
 19 20  1  0
 20 21  1  0
 21 22  1  0
 22 23  2  0
 23 24  1  0
 24 25  2  0
 25 26  1  0
 25 27  1  0
 27 28  2  0
 27 29  1  0
 24 30  1  0
 21 31  1  0
 21 32  1  0
 20 33  1  0
 20 34  1  0
 19 35  2  0
  5 36  1  0
 36 37  2  0
 37 38  1  0
 36 39  1  0
  4 40  1  0
  3 41  1  0
 37  2  1  0
 35  6  1  0
 14  9  1  0
 28 22  1  0
M  END
>  <cnnaffinity>  (1) 
-6.23561

>  <filename>  (1) 
Fc1ccc(-c2nc(CCc3ncc(F)cn3)n(-c3cccnc3)n2)cc1

$$$$
