
     RDKit          3D

 29 31  0  0  0  0  0  0  0  0999 V2000
    4.9347    1.7981   16.9974 H   0  0  0  0  0  0  0  0  0  0  0  0
    5.3984    1.2888   17.8360 C   0  0  0  0  0  0  0  0  0  0  0  0
    6.5531    0.6583   17.5693 N   0  0  0  0  0  0  0  0  0  0  0  0
    7.1709    0.0415   18.5820 C   0  0  0  0  0  0  0  0  0  0  0  0
    8.1255   -0.4336   18.3636 H   0  0  0  0  0  0  0  0  0  0  0  0
    6.6499   -0.0024   19.8907 C   0  0  0  0  0  0  0  0  0  0  0  0
    7.3315   -0.6857   20.9440 N   0  0  0  0  0  0  0  0  0  0  0  0
    6.7344   -1.6067   21.7968 C   0  0  0  0  0  0  0  0  0  0  0  0
    5.6853   -1.8396   21.6957 H   0  0  0  0  0  0  0  0  0  0  0  0
    7.6768   -2.0672   22.6558 C   0  0  0  0  0  0  0  0  0  0  0  0
    7.5624   -3.0149   23.7756 C   0  0  0  0  0  0  0  0  0  0  0  0
    8.6708   -3.6859   24.3292 C   0  0  0  0  0  0  0  0  0  0  0  0
    9.6641   -3.5039   23.9295 H   0  0  0  0  0  0  0  0  0  0  0  0
    8.5012   -4.5994   25.3761 C   0  0  0  0  0  0  0  0  0  0  0  0
    9.3686   -5.1115   25.7956 H   0  0  0  0  0  0  0  0  0  0  0  0
    7.2220   -4.8608   25.8886 C   0  0  0  0  0  0  0  0  0  0  0  0
    7.0363   -5.5618   26.6970 H   0  0  0  0  0  0  0  0  0  0  0  0
    6.1378   -4.1855   25.3334 C   0  0  0  0  0  0  0  0  0  0  0  0
    4.9052   -4.4295   25.8107 F   0  0  0  0  0  0  0  0  0  0  0  0
    6.2847   -3.2721   24.2996 C   0  0  0  0  0  0  0  0  0  0  0  0
    5.4069   -2.7629   23.9212 H   0  0  0  0  0  0  0  0  0  0  0  0
    8.8497   -1.4128   22.2999 N   0  0  0  0  0  0  0  0  0  0  0  0
    9.7505   -1.3991   22.7432 H   0  0  0  0  0  0  0  0  0  0  0  0
    8.6519   -0.5176   21.3037 C   0  0  0  0  0  0  0  0  0  0  0  0
    9.8117    0.5429   20.7821 S   0  0  0  0  0  0  0  0  0  0  0  0
    5.4397    0.6447   20.1557 C   0  0  0  0  0  0  0  0  0  0  0  0
    5.0320    0.6335   21.1698 H   0  0  0  0  0  0  0  0  0  0  0  0
    4.8067    1.3096   19.1040 C   0  0  0  0  0  0  0  0  0  0  0  0
    3.8767    1.8419   19.2612 H   0  0  0  0  0  0  0  0  0  0  0  0
  1  2  1  0
  2  3  2  0
  3  4  1  0
  4  5  1  0
  4  6  2  0
  6  7  1  0
  7  8  1  0
  8  9  1  0
  8 10  2  0
 10 11  1  0
 11 12  2  0
 12 13  1  0
 12 14  1  0
 14 15  1  0
 14 16  2  0
 16 17  1  0
 16 18  1  0
 18 19  1  0
 18 20  2  0
 20 21  1  0
 10 22  1  0
 22 23  1  0
 22 24  1  0
 24 25  2  0
  6 26  1  0
 26 27  1  0
 26 28  2  0
 28 29  1  0
 28  2  1  0
 24  7  1  0
 20 11  1  0
M  END
>  <cnnaffinity>  (1) 
-5.50339

>  <filename>  (1) 
Fc1cccc(-c2cn(-c3cccnc3)c(=S)[nH]2)c1

$$$$
