
     RDKit          3D

 42 45  0  0  0  0  0  0  0  0999 V2000
    4.6985    2.2460   27.2876 F   0  0  0  0  0  0  0  0  0  0  0  0
    5.8843    2.5309   26.7268 C   0  0  0  0  0  0  0  0  0  0  0  0
    6.7234    3.4517   27.3465 C   0  0  0  0  0  0  0  0  0  0  0  0
    7.9563    3.7476   26.7566 C   0  0  0  0  0  0  0  0  0  0  0  0
    8.3353    3.1263   25.5643 C   0  0  0  0  0  0  0  0  0  0  0  0
    7.4696    2.2017   24.9404 C   0  0  0  0  0  0  0  0  0  0  0  0
    7.8612    1.5515   23.6666 C   0  0  0  0  0  0  0  0  0  0  0  0
    7.1745    0.5606   23.1160 N   0  0  0  0  0  0  0  0  0  0  0  0
    7.9000    0.2503   22.0217 N   0  0  0  0  0  0  0  0  0  0  0  0
    7.3875   -0.6860   21.0284 C   0  0  0  0  0  0  0  0  0  0  0  0
    6.6519   -0.0059   19.8846 C   0  0  0  0  0  0  0  0  0  0  0  0
    5.4412    0.6510   20.1338 C   0  0  0  0  0  0  0  0  0  0  0  0
    4.7957    1.3090   19.0834 C   0  0  0  0  0  0  0  0  0  0  0  0
    5.3925    1.2982   17.8183 C   0  0  0  0  0  0  0  0  0  0  0  0
    6.5511    0.6745   17.5576 N   0  0  0  0  0  0  0  0  0  0  0  0
    7.1586    0.0505   18.5753 C   0  0  0  0  0  0  0  0  0  0  0  0
    8.1033   -0.4341   18.3226 H   0  0  0  0  0  0  0  0  0  0  0  0
    4.9264    1.8119   16.9775 H   0  0  0  0  0  0  0  0  0  0  0  0
    3.8649    1.8483   19.2297 H   0  0  0  0  0  0  0  0  0  0  0  0
    5.0290    0.6492   21.1454 H   0  0  0  0  0  0  0  0  0  0  0  0
    8.2221   -1.2847   20.6460 H   0  0  0  0  0  0  0  0  0  0  0  0
    6.7233   -1.3539   21.5851 H   0  0  0  0  0  0  0  0  0  0  0  0
    8.9861    1.0503   21.9600 C   0  0  0  0  0  0  0  0  0  0  0  0
   10.0927    0.8560   20.9792 C   0  0  0  0  0  0  0  0  0  0  0  0
   11.0701   -0.3033   21.3373 C   0  0  0  0  0  0  0  0  0  0  0  0
   11.7578   -0.0837   22.6504 C   0  0  0  0  0  0  0  0  0  0  0  0
   11.4290   -0.3912   23.9255 C   0  0  0  0  0  0  0  0  0  0  0  0
   12.3405    0.1888   24.8055 N   0  0  0  0  0  0  0  0  0  0  0  0
   13.1456    0.8206   24.0256 C   0  0  0  0  0  0  0  0  0  0  0  0
   12.8692    0.7112   22.7072 O   0  0  0  0  0  0  0  0  0  0  0  0
   14.0028    1.4262   24.2836 H   0  0  0  0  0  0  0  0  0  0  0  0
   10.6322   -1.0433   24.2713 H   0  0  0  0  0  0  0  0  0  0  0  0
   11.8059   -0.4632   20.5486 H   0  0  0  0  0  0  0  0  0  0  0  0
   10.5191   -1.2471   21.4167 H   0  0  0  0  0  0  0  0  0  0  0  0
   10.6276    1.8087   20.9094 H   0  0  0  0  0  0  0  0  0  0  0  0
    9.6325    0.6779   20.0036 H   0  0  0  0  0  0  0  0  0  0  0  0
    8.9772    1.9006   22.9674 N   0  0  0  0  0  0  0  0  0  0  0  0
    6.2306    1.8975   25.5414 C   0  0  0  0  0  0  0  0  0  0  0  0
    5.5431    1.1821   25.1001 H   0  0  0  0  0  0  0  0  0  0  0  0
    9.2941    3.3554   25.1059 H   0  0  0  0  0  0  0  0  0  0  0  0
    8.6242    4.4709   27.2181 H   0  0  0  0  0  0  0  0  0  0  0  0
    6.3937    3.9110   28.2690 H   0  0  0  0  0  0  0  0  0  0  0  0
  1  2  1  0
  2  3  2  0
  3  4  1  0
  4  5  2  0
  5  6  1  0
  6  7  1  0
  7  8  2  0
  8  9  1  0
  9 10  1  0
 10 11  1  0
 11 12  2  0
 12 13  1  0
 13 14  2  0
 14 15  1  0
 15 16  2  0
 16 17  1  0
 14 18  1  0
 13 19  1  0
 12 20  1  0
 10 21  1  0
 10 22  1  0
  9 23  1  0
 23 24  1  0
 24 25  1  0
 25 26  1  0
 26 27  2  0
 27 28  1  0
 28 29  2  0
 29 30  1  0
 29 31  1  0
 27 32  1  0
 25 33  1  0
 25 34  1  0
 24 35  1  0
 24 36  1  0
 23 37  2  0
  6 38  2  0
 38 39  1  0
  5 40  1  0
  4 41  1  0
  3 42  1  0
 38  2  1  0
 37  7  1  0
 16 11  1  0
 30 26  1  0
M  END
>  <cnnaffinity>  (1) 
-5.4597

>  <filename>  (1) 
Fc1cccc(-c2nc(CCc3cnco3)n(Cc3cccnc3)n2)c1

$$$$
