
     RDKit          3D

 47 50  0  0  0  0  0  0  0  0999 V2000
    8.4070    7.0490   25.2969 F   0  0  0  0  0  0  0  0  0  0  0  0
    8.2514    5.9887   24.4815 C   0  0  0  0  0  0  0  0  0  0  0  0
    8.4840    6.1433   23.1174 C   0  0  0  0  0  0  0  0  0  0  0  0
    8.3562    5.0210   22.2856 C   0  0  0  0  0  0  0  0  0  0  0  0
    8.0768    3.7438   22.8074 C   0  0  0  0  0  0  0  0  0  0  0  0
    8.1333    2.4918   21.9506 C   0  0  0  0  0  0  0  0  0  0  0  0
    9.5100    1.7951   21.9468 C   0  0  0  0  0  0  0  0  0  0  0  0
    9.5583    0.5483   21.0314 C   0  0  0  0  0  0  0  0  0  0  0  0
    8.6006   -0.5304   21.4233 C   0  0  0  0  0  0  0  0  0  0  0  0
    8.8148   -1.3829   22.4063 N   0  0  0  0  0  0  0  0  0  0  0  0
    7.6282   -2.0265   22.5374 C   0  0  0  0  0  0  0  0  0  0  0  0
    7.4461   -3.0414   23.6273 C   0  0  0  0  0  0  0  0  0  0  0  0
    6.4797   -2.6107   24.7691 C   0  0  0  0  0  0  0  0  0  0  0  0
    5.1890   -3.4119   24.4906 C   0  0  0  0  0  0  0  0  0  0  0  0
    5.3912   -4.0877   23.2643 O   0  0  0  0  0  0  0  0  0  0  0  0
    6.7716   -4.3271   23.1257 C   0  0  0  0  0  0  0  0  0  0  0  0
    7.1108   -5.1728   23.7480 H   0  0  0  0  0  0  0  0  0  0  0  0
    6.9697   -4.5621   22.0758 H   0  0  0  0  0  0  0  0  0  0  0  0
    4.9925   -4.1118   25.3246 H   0  0  0  0  0  0  0  0  0  0  0  0
    4.3093   -2.7758   24.3633 H   0  0  0  0  0  0  0  0  0  0  0  0
    6.2974   -1.5299   24.7873 H   0  0  0  0  0  0  0  0  0  0  0  0
    6.8855   -2.8887   25.7473 H   0  0  0  0  0  0  0  0  0  0  0  0
    8.4469   -3.2227   24.0220 H   0  0  0  0  0  0  0  0  0  0  0  0
    6.6995   -1.6610   21.6749 N   0  0  0  0  0  0  0  0  0  0  0  0
    7.3387   -0.7162   20.9296 N   0  0  0  0  0  0  0  0  0  0  0  0
    6.6517   -0.0399   19.8839 C   0  0  0  0  0  0  0  0  0  0  0  0
    5.4414    0.6049   20.1536 C   0  0  0  0  0  0  0  0  0  0  0  0
    4.8203    1.2965   19.1089 C   0  0  0  0  0  0  0  0  0  0  0  0
    5.4102    1.2966   17.8403 C   0  0  0  0  0  0  0  0  0  0  0  0
    6.5528    0.6491   17.5650 N   0  0  0  0  0  0  0  0  0  0  0  0
    7.1531   -0.0029   18.5696 C   0  0  0  0  0  0  0  0  0  0  0  0
    8.0750   -0.5262   18.3214 H   0  0  0  0  0  0  0  0  0  0  0  0
    4.9453    1.8271   17.0109 H   0  0  0  0  0  0  0  0  0  0  0  0
    3.8918    1.8320   19.2685 H   0  0  0  0  0  0  0  0  0  0  0  0
    5.0126    0.5505   21.1558 H   0  0  0  0  0  0  0  0  0  0  0  0
   10.5569    0.1039   21.0741 H   0  0  0  0  0  0  0  0  0  0  0  0
    9.3719    0.8328   19.9933 H   0  0  0  0  0  0  0  0  0  0  0  0
    9.7767    1.4948   22.9703 H   0  0  0  0  0  0  0  0  0  0  0  0
   10.2855    2.4952   21.6079 H   0  0  0  0  0  0  0  0  0  0  0  0
    7.3713    1.7835   22.3055 H   0  0  0  0  0  0  0  0  0  0  0  0
    7.8573    2.7202   20.9160 H   0  0  0  0  0  0  0  0  0  0  0  0
    7.7948    3.6420   24.1837 C   0  0  0  0  0  0  0  0  0  0  0  0
    7.8724    4.7614   25.0244 C   0  0  0  0  0  0  0  0  0  0  0  0
    7.6718    4.6866   26.0858 H   0  0  0  0  0  0  0  0  0  0  0  0
    7.5158    2.6756   24.6050 H   0  0  0  0  0  0  0  0  0  0  0  0
    8.4469    5.1558   21.2090 H   0  0  0  0  0  0  0  0  0  0  0  0
    8.7719    7.1190   22.7345 H   0  0  0  0  0  0  0  0  0  0  0  0
  1  2  1  0
  2  3  2  0
  3  4  1  0
  4  5  2  0
  5  6  1  0
  6  7  1  0
  7  8  1  0
  8  9  1  0
  9 10  2  0
 10 11  1  0
 11 12  1  0
 12 13  1  0
 13 14  1  0
 14 15  1  0
 15 16  1  0
 16 17  1  0
 16 18  1  0
 14 19  1  0
 14 20  1  0
 13 21  1  0
 13 22  1  0
 12 23  1  0
 11 24  2  0
 24 25  1  0
 25 26  1  0
 26 27  2  0
 27 28  1  0
 28 29  2  0
 29 30  1  0
 30 31  2  0
 31 32  1  0
 29 33  1  0
 28 34  1  0
 27 35  1  0
  8 36  1  0
  8 37  1  0
  7 38  1  0
  7 39  1  0
  6 40  1  0
  6 41  1  0
  5 42  1  0
 42 43  2  0
 43 44  1  0
 42 45  1  0
  4 46  1  0
  3 47  1  0
 43  2  1  0
 25  9  1  0
 31 26  1  0
 16 12  1  0
M  END
>  <cnnaffinity>  (1) 
-5.95792

>  <filename>  (1) 
Fc1ccc(CCCc2nc(C3CCOC3)nn2-c2cccnc2)cc1

$$$$
