
     RDKit          3D

 42 45  0  0  0  0  0  0  0  0999 V2000
   13.7304    1.9073   23.6747 F   0  0  0  0  0  0  0  0  0  0  0  0
   13.1599    0.9376   22.9501 C   0  0  0  0  0  0  0  0  0  0  0  0
   13.9556   -0.0667   22.4171 C   0  0  0  0  0  0  0  0  0  0  0  0
   13.3104   -1.0890   21.7230 C   0  0  0  0  0  0  0  0  0  0  0  0
   14.0493   -2.0654   21.1822 F   0  0  0  0  0  0  0  0  0  0  0  0
   11.9257   -1.1351   21.5639 C   0  0  0  0  0  0  0  0  0  0  0  0
   11.1476   -0.0938   22.1063 C   0  0  0  0  0  0  0  0  0  0  0  0
    9.6634   -0.0605   22.0160 C   0  0  0  0  0  0  0  0  0  0  0  0
    8.9013   -0.8947   21.3293 N   0  0  0  0  0  0  0  0  0  0  0  0
    7.6441   -0.4754   21.6228 N   0  0  0  0  0  0  0  0  0  0  0  0
    6.5034   -1.0272   20.8973 C   0  0  0  0  0  0  0  0  0  0  0  0
    6.0613   -0.1646   19.7270 C   0  0  0  0  0  0  0  0  0  0  0  0
    4.8742    0.5772   19.7041 C   0  0  0  0  0  0  0  0  0  0  0  0
    4.6243    1.4172   18.6140 C   0  0  0  0  0  0  0  0  0  0  0  0
    5.5557    1.4657   17.5751 C   0  0  0  0  0  0  0  0  0  0  0  0
    6.6844    0.7419   17.5623 N   0  0  0  0  0  0  0  0  0  0  0  0
    6.9230   -0.0380   18.6238 C   0  0  0  0  0  0  0  0  0  0  0  0
    7.8568   -0.6009   18.6130 H   0  0  0  0  0  0  0  0  0  0  0  0
    5.3988    2.1215   16.7189 H   0  0  0  0  0  0  0  0  0  0  0  0
    3.7440    2.0476   18.5611 H   0  0  0  0  0  0  0  0  0  0  0  0
    4.1514    0.5237   20.5217 H   0  0  0  0  0  0  0  0  0  0  0  0
    6.8258   -2.0155   20.5547 H   0  0  0  0  0  0  0  0  0  0  0  0
    5.6845   -1.1782   21.6064 H   0  0  0  0  0  0  0  0  0  0  0  0
    7.7052    0.5847   22.4636 C   0  0  0  0  0  0  0  0  0  0  0  0
    6.5902    1.2948   23.1767 C   0  0  0  0  0  0  0  0  0  0  0  0
    6.6900    1.1161   24.7183 C   0  0  0  0  0  0  0  0  0  0  0  0
    5.8596    2.0358   25.5467 C   0  0  0  0  0  0  0  0  0  0  0  0
    6.1219    3.0653   26.3890 C   0  0  0  0  0  0  0  0  0  0  0  0
    4.9380    3.5444   26.9358 N   0  0  0  0  0  0  0  0  0  0  0  0
    4.0351    2.7885   26.4136 C   0  0  0  0  0  0  0  0  0  0  0  0
    4.5022    1.8453   25.5662 O   0  0  0  0  0  0  0  0  0  0  0  0
    2.9655    2.8148   26.5774 H   0  0  0  0  0  0  0  0  0  0  0  0
    7.0767    3.5020   26.6486 H   0  0  0  0  0  0  0  0  0  0  0  0
    7.7354    1.2678   25.0096 H   0  0  0  0  0  0  0  0  0  0  0  0
    6.4273    0.0852   24.9839 H   0  0  0  0  0  0  0  0  0  0  0  0
    6.7070    2.3564   22.9324 H   0  0  0  0  0  0  0  0  0  0  0  0
    5.6106    0.9808   22.8013 H   0  0  0  0  0  0  0  0  0  0  0  0
    8.9653    0.8819   22.7012 N   0  0  0  0  0  0  0  0  0  0  0  0
   11.7840    0.9588   22.7927 C   0  0  0  0  0  0  0  0  0  0  0  0
   11.2191    1.7928   23.1960 H   0  0  0  0  0  0  0  0  0  0  0  0
   11.4757   -1.9702   21.0376 H   0  0  0  0  0  0  0  0  0  0  0  0
   15.0279   -0.0309   22.5293 H   0  0  0  0  0  0  0  0  0  0  0  0
  1  2  1  0
  2  3  2  0
  3  4  1  0
  4  5  1  0
  4  6  2  0
  6  7  1  0
  7  8  1  0
  8  9  2  0
  9 10  1  0
 10 11  1  0
 11 12  1  0
 12 13  2  0
 13 14  1  0
 14 15  2  0
 15 16  1  0
 16 17  2  0
 17 18  1  0
 15 19  1  0
 14 20  1  0
 13 21  1  0
 11 22  1  0
 11 23  1  0
 10 24  1  0
 24 25  1  0
 25 26  1  0
 26 27  1  0
 27 28  2  0
 28 29  1  0
 29 30  2  0
 30 31  1  0
 30 32  1  0
 28 33  1  0
 26 34  1  0
 26 35  1  0
 25 36  1  0
 25 37  1  0
 24 38  2  0
  7 39  2  0
 39 40  1  0
  6 41  1  0
  3 42  1  0
 39  2  1  0
 38  8  1  0
 17 12  1  0
 31 27  1  0
M  END
>  <cnnaffinity>  (1) 
-6.27621

>  <filename>  (1) 
Fc1cc(F)cc(-c2nc(CCc3cnco3)n(Cc3cccnc3)n2)c1

$$$$
