
     RDKit          3D

 44 47  0  0  0  0  0  0  0  0999 V2000
   11.9294   -0.4334   25.3577 F   0  0  0  0  0  0  0  0  0  0  0  0
   11.6728    0.6898   24.6723 C   0  0  0  0  0  0  0  0  0  0  0  0
   12.7125    1.5667   24.4002 C   0  0  0  0  0  0  0  0  0  0  0  0
   12.4193    2.7853   23.7779 C   0  0  0  0  0  0  0  0  0  0  0  0
   11.1144    3.0461   23.3729 C   0  0  0  0  0  0  0  0  0  0  0  0
   10.8723    4.2266   22.7653 F   0  0  0  0  0  0  0  0  0  0  0  0
   10.0756    2.1143   23.5368 C   0  0  0  0  0  0  0  0  0  0  0  0
    8.7632    2.2657   22.7928 C   0  0  0  0  0  0  0  0  0  0  0  0
    8.9631    2.0215   21.2788 C   0  0  0  0  0  0  0  0  0  0  0  0
    9.4987    0.6156   20.9310 C   0  0  0  0  0  0  0  0  0  0  0  0
    8.6234   -0.4938   21.4118 C   0  0  0  0  0  0  0  0  0  0  0  0
    8.8664   -1.3464   22.3890 N   0  0  0  0  0  0  0  0  0  0  0  0
    7.6749   -1.9783   22.5604 C   0  0  0  0  0  0  0  0  0  0  0  0
    7.4405   -2.9406   23.6739 C   0  0  0  0  0  0  0  0  0  0  0  0
    8.6154   -3.9138   23.9434 C   0  0  0  0  0  0  0  0  0  0  0  0
    8.8807   -3.2569   25.6266 S   0  0  0  0  0  0  0  0  0  0  0  0
    7.4434   -2.2734   25.0829 C   0  0  0  0  0  0  0  0  0  0  0  0
    6.5449   -2.4743   25.6730 H   0  0  0  0  0  0  0  0  0  0  0  0
    7.6486   -1.1958   25.0767 H   0  0  0  0  0  0  0  0  0  0  0  0
    8.3275   -4.9685   23.9451 H   0  0  0  0  0  0  0  0  0  0  0  0
    9.4865   -3.7592   23.2993 H   0  0  0  0  0  0  0  0  0  0  0  0
    6.4979   -3.4516   23.4614 H   0  0  0  0  0  0  0  0  0  0  0  0
    6.7267   -1.6077   21.7298 N   0  0  0  0  0  0  0  0  0  0  0  0
    7.3472   -0.6708   20.9584 N   0  0  0  0  0  0  0  0  0  0  0  0
    6.6556   -0.0146   19.9034 C   0  0  0  0  0  0  0  0  0  0  0  0
    5.4372    0.6227   20.1600 C   0  0  0  0  0  0  0  0  0  0  0  0
    4.8182    1.3013   19.1064 C   0  0  0  0  0  0  0  0  0  0  0  0
    5.4165    1.2961   17.8427 C   0  0  0  0  0  0  0  0  0  0  0  0
    6.5666    0.6562   17.5812 N   0  0  0  0  0  0  0  0  0  0  0  0
    7.1663    0.0195   18.5946 C   0  0  0  0  0  0  0  0  0  0  0  0
    8.1001   -0.4929   18.3606 H   0  0  0  0  0  0  0  0  0  0  0  0
    4.9527    1.8159   17.0063 H   0  0  0  0  0  0  0  0  0  0  0  0
    3.8881    1.8360   19.2576 H   0  0  0  0  0  0  0  0  0  0  0  0
    5.0106    0.5811   21.1615 H   0  0  0  0  0  0  0  0  0  0  0  0
   10.4988    0.4664   21.3509 H   0  0  0  0  0  0  0  0  0  0  0  0
    9.5925    0.5310   19.8464 H   0  0  0  0  0  0  0  0  0  0  0  0
    9.6865    2.7570   20.9135 H   0  0  0  0  0  0  0  0  0  0  0  0
    8.0243    2.2003   20.7392 H   0  0  0  0  0  0  0  0  0  0  0  0
    8.0251    1.5550   23.1946 H   0  0  0  0  0  0  0  0  0  0  0  0
    8.3406    3.2658   22.9443 H   0  0  0  0  0  0  0  0  0  0  0  0
   10.3693    0.9406   24.2537 C   0  0  0  0  0  0  0  0  0  0  0  0
    9.6091    0.1828   24.4144 H   0  0  0  0  0  0  0  0  0  0  0  0
   13.1893    3.5224   23.5931 H   0  0  0  0  0  0  0  0  0  0  0  0
   13.7283    1.2905   24.6512 H   0  0  0  0  0  0  0  0  0  0  0  0
  1  2  1  0
  2  3  2  0
  3  4  1  0
  4  5  2  0
  5  6  1  0
  5  7  1  0
  7  8  1  0
  8  9  1  0
  9 10  1  0
 10 11  1  0
 11 12  2  0
 12 13  1  0
 13 14  1  0
 14 15  1  0
 15 16  1  0
 16 17  1  0
 17 18  1  0
 17 19  1  0
 15 20  1  0
 15 21  1  0
 14 22  1  0
 13 23  2  0
 23 24  1  0
 24 25  1  0
 25 26  2  0
 26 27  1  0
 27 28  2  0
 28 29  1  0
 29 30  2  0
 30 31  1  0
 28 32  1  0
 27 33  1  0
 26 34  1  0
 10 35  1  0
 10 36  1  0
  9 37  1  0
  9 38  1  0
  8 39  1  0
  8 40  1  0
  7 41  2  0
 41 42  1  0
  4 43  1  0
  3 44  1  0
 41  2  1  0
 24 11  1  0
 30 25  1  0
 17 14  1  0
M  END
>  <cnnaffinity>  (1) 
-6.45063

>  <filename>  (1) 
Fc1ccc(F)c(CCCc2nc(C3CSC3)nn2-c2cccnc2)c1

$$$$
