
     RDKit          3D

 39 42  0  0  0  0  0  0  0  0999 V2000
    8.5442    1.3173   27.0411 F   0  0  0  0  0  0  0  0  0  0  0  0
    8.6313    1.5837   25.7245 C   0  0  0  0  0  0  0  0  0  0  0  0
    9.8764    1.8952   25.1756 C   0  0  0  0  0  0  0  0  0  0  0  0
    9.9594    2.2103   23.8122 C   0  0  0  0  0  0  0  0  0  0  0  0
    8.8179    2.1117   22.9997 C   0  0  0  0  0  0  0  0  0  0  0  0
    8.9646    2.2359   21.2221 S   0  0  0  0  0  0  0  0  0  0  0  0
    9.5220    0.5272   20.8406 C   0  0  0  0  0  0  0  0  0  0  0  0
    8.6182   -0.5495   21.3458 C   0  0  0  0  0  0  0  0  0  0  0  0
    8.8242   -1.3536   22.3727 N   0  0  0  0  0  0  0  0  0  0  0  0
    7.6078   -1.9291   22.5603 C   0  0  0  0  0  0  0  0  0  0  0  0
    7.3428   -2.8240   23.7264 C   0  0  0  0  0  0  0  0  0  0  0  0
    6.5262   -4.1096   23.4325 C   0  0  0  0  0  0  0  0  0  0  0  0
    5.1966   -3.6329   24.5898 S   0  0  0  0  0  0  0  0  0  0  0  0
    6.3634   -2.2438   24.7918 C   0  0  0  0  0  0  0  0  0  0  0  0
    5.9211   -1.2749   24.5335 H   0  0  0  0  0  0  0  0  0  0  0  0
    6.7968   -2.1958   25.7949 H   0  0  0  0  0  0  0  0  0  0  0  0
    6.1757   -4.2008   22.3995 H   0  0  0  0  0  0  0  0  0  0  0  0
    7.0388   -5.0247   23.7401 H   0  0  0  0  0  0  0  0  0  0  0  0
    8.3294   -3.0262   24.1518 H   0  0  0  0  0  0  0  0  0  0  0  0
    6.6840   -1.5669   21.6924 N   0  0  0  0  0  0  0  0  0  0  0  0
    7.3513   -0.7106   20.8815 N   0  0  0  0  0  0  0  0  0  0  0  0
    6.6622   -0.0532   19.8330 C   0  0  0  0  0  0  0  0  0  0  0  0
    5.4627    0.5956   20.1178 C   0  0  0  0  0  0  0  0  0  0  0  0
    4.8334    1.2950   19.0888 C   0  0  0  0  0  0  0  0  0  0  0  0
    5.4104    1.2988   17.8130 C   0  0  0  0  0  0  0  0  0  0  0  0
    6.5329    0.6239   17.5227 N   0  0  0  0  0  0  0  0  0  0  0  0
    7.1362   -0.0412   18.5137 C   0  0  0  0  0  0  0  0  0  0  0  0
    8.0398   -0.5883   18.2567 H   0  0  0  0  0  0  0  0  0  0  0  0
    4.9499    1.8523   16.9946 H   0  0  0  0  0  0  0  0  0  0  0  0
    3.9094    1.8326   19.2686 H   0  0  0  0  0  0  0  0  0  0  0  0
    5.0544    0.5389   21.1279 H   0  0  0  0  0  0  0  0  0  0  0  0
    9.5774    0.4885   19.7527 H   0  0  0  0  0  0  0  0  0  0  0  0
   10.5148    0.3599   21.2600 H   0  0  0  0  0  0  0  0  0  0  0  0
    7.5733    1.8068   23.5827 C   0  0  0  0  0  0  0  0  0  0  0  0
    7.4719    1.5591   24.9549 C   0  0  0  0  0  0  0  0  0  0  0  0
    6.5216    1.3280   25.4314 H   0  0  0  0  0  0  0  0  0  0  0  0
    6.6919    1.7521   22.9451 H   0  0  0  0  0  0  0  0  0  0  0  0
   10.9023    2.5392   23.3673 H   0  0  0  0  0  0  0  0  0  0  0  0
   10.7536    1.8556   25.8117 H   0  0  0  0  0  0  0  0  0  0  0  0
  1  2  1  0
  2  3  2  0
  3  4  1  0
  4  5  2  0
  5  6  1  0
  6  7  1  0
  7  8  1  0
  8  9  2  0
  9 10  1  0
 10 11  1  0
 11 12  1  0
 12 13  1  0
 13 14  1  0
 14 15  1  0
 14 16  1  0
 12 17  1  0
 12 18  1  0
 11 19  1  0
 10 20  2  0
 20 21  1  0
 21 22  1  0
 22 23  2  0
 23 24  1  0
 24 25  2  0
 25 26  1  0
 26 27  2  0
 27 28  1  0
 25 29  1  0
 24 30  1  0
 23 31  1  0
  7 32  1  0
  7 33  1  0
  5 34  1  0
 34 35  2  0
 35 36  1  0
 34 37  1  0
  4 38  1  0
  3 39  1  0
 35  2  1  0
 21  8  1  0
 27 22  1  0
 14 11  1  0
M  END
>  <cnnaffinity>  (1) 
-5.84524

>  <filename>  (1) 
Fc1ccc(SCc2nc(C3CSC3)nn2-c2cccnc2)cc1

$$$$
