
     RDKit          3D

 44 48  0  0  0  0  0  0  0  0999 V2000
    6.9041    6.7342   25.7203 F   0  0  0  0  0  0  0  0  0  0  0  0
    7.2628    5.5157   25.2806 C   0  0  0  0  0  0  0  0  0  0  0  0
    8.0747    5.4165   24.1540 C   0  0  0  0  0  0  0  0  0  0  0  0
    8.4416    4.1457   23.7023 C   0  0  0  0  0  0  0  0  0  0  0  0
    8.0029    2.9850   24.3617 C   0  0  0  0  0  0  0  0  0  0  0  0
    8.3249    1.6219   23.8036 C   0  0  0  0  0  0  0  0  0  0  0  0
    7.2629    1.1530   22.7886 C   0  0  0  0  0  0  0  0  0  0  0  0
    7.5265   -0.2018   22.2330 C   0  0  0  0  0  0  0  0  0  0  0  0
    8.1422   -1.1646   22.8991 N   0  0  0  0  0  0  0  0  0  0  0  0
    8.1513   -2.1876   22.0182 C   0  0  0  0  0  0  0  0  0  0  0  0
    8.9165   -3.4432   22.2314 C   0  0  0  0  0  0  0  0  0  0  0  0
    8.2592   -4.7673   21.9632 C   0  0  0  0  0  0  0  0  0  0  0  0
    8.9402   -4.5474   23.3215 C   0  0  0  0  0  0  0  0  0  0  0  0
    8.9077   -5.5825   24.4382 C   0  0  0  0  0  0  0  0  0  0  0  0
    9.9196   -4.4643   24.4656 C   0  0  0  0  0  0  0  0  0  0  0  0
   10.9688   -4.7159   24.2783 H   0  0  0  0  0  0  0  0  0  0  0  0
    9.7699   -3.6055   25.1249 H   0  0  0  0  0  0  0  0  0  0  0  0
    9.3076   -6.5615   24.1545 H   0  0  0  0  0  0  0  0  0  0  0  0
    8.0476   -5.6178   25.1057 H   0  0  0  0  0  0  0  0  0  0  0  0
    7.1715   -4.7569   22.0551 H   0  0  0  0  0  0  0  0  0  0  0  0
    8.6177   -5.5255   21.2647 H   0  0  0  0  0  0  0  0  0  0  0  0
    9.9465   -3.2332   21.9372 H   0  0  0  0  0  0  0  0  0  0  0  0
    7.6033   -1.9282   20.8427 N   0  0  0  0  0  0  0  0  0  0  0  0
    7.1590   -0.6543   20.9971 N   0  0  0  0  0  0  0  0  0  0  0  0
    6.5247    0.0287   19.9217 C   0  0  0  0  0  0  0  0  0  0  0  0
    5.3294    0.7352   20.0978 C   0  0  0  0  0  0  0  0  0  0  0  0
    4.7731    1.3768   18.9883 C   0  0  0  0  0  0  0  0  0  0  0  0
    5.4344    1.3048   17.7587 C   0  0  0  0  0  0  0  0  0  0  0  0
    6.5729    0.6060   17.5812 N   0  0  0  0  0  0  0  0  0  0  0  0
    7.0907   -0.0248   18.6375 C   0  0  0  0  0  0  0  0  0  0  0  0
    7.9995   -0.6035   18.4769 H   0  0  0  0  0  0  0  0  0  0  0  0
    5.0381    1.8197   16.8856 H   0  0  0  0  0  0  0  0  0  0  0  0
    3.8493    1.9396   19.0760 H   0  0  0  0  0  0  0  0  0  0  0  0
    4.8451    0.7524   21.0738 H   0  0  0  0  0  0  0  0  0  0  0  0
    7.1786    1.8862   21.9797 H   0  0  0  0  0  0  0  0  0  0  0  0
    6.2794    1.1181   23.2739 H   0  0  0  0  0  0  0  0  0  0  0  0
    8.4030    0.8874   24.6134 H   0  0  0  0  0  0  0  0  0  0  0  0
    9.3094    1.6392   23.3175 H   0  0  0  0  0  0  0  0  0  0  0  0
    7.1981    3.1274   25.5052 C   0  0  0  0  0  0  0  0  0  0  0  0
    6.8180    4.3901   25.9706 C   0  0  0  0  0  0  0  0  0  0  0  0
    6.1860    4.5129   26.8431 H   0  0  0  0  0  0  0  0  0  0  0  0
    6.8590    2.2404   26.0395 H   0  0  0  0  0  0  0  0  0  0  0  0
    9.0748    4.0545   22.8204 H   0  0  0  0  0  0  0  0  0  0  0  0
    8.3986    6.3173   23.6445 H   0  0  0  0  0  0  0  0  0  0  0  0
  1  2  1  0
  2  3  2  0
  3  4  1  0
  4  5  2  0
  5  6  1  0
  6  7  1  0
  7  8  1  0
  8  9  2  0
  9 10  1  0
 10 11  1  0
 11 12  1  0
 12 13  1  0
 13 14  1  0
 14 15  1  0
 15 16  1  0
 15 17  1  0
 14 18  1  0
 14 19  1  0
 12 20  1  0
 12 21  1  0
 11 22  1  0
 10 23  2  0
 23 24  1  0
 24 25  1  0
 25 26  2  0
 26 27  1  0
 27 28  2  0
 28 29  1  0
 29 30  2  0
 30 31  1  0
 28 32  1  0
 27 33  1  0
 26 34  1  0
  7 35  1  0
  7 36  1  0
  6 37  1  0
  6 38  1  0
  5 39  1  0
 39 40  2  0
 40 41  1  0
 39 42  1  0
  4 43  1  0
  3 44  1  0
 40  2  1  0
 24  8  1  0
 30 25  1  0
 13 11  1  0
 15 13  1  0
M  END
>  <cnnaffinity>  (1) 
-6.14364

>  <filename>  (1) 
Fc1ccc(CCc2nc(C3CC34CC4)nn2-c2cccnc2)cc1

$$$$
