
     RDKit          3D

 43 46  0  0  0  0  0  0  0  0999 V2000
    7.0046    5.3294   25.1260 F   0  0  0  0  0  0  0  0  0  0  0  0
    7.1360    4.0040   25.0404 C   0  0  0  0  0  0  0  0  0  0  0  0
    8.4140    3.4564   25.1700 C   0  0  0  0  0  0  0  0  0  0  0  0
    8.5315    2.0727   25.0794 C   0  0  0  0  0  0  0  0  0  0  0  0
    7.3713    1.3057   24.8663 C   0  0  0  0  0  0  0  0  0  0  0  0
    7.4299   -0.1137   24.7415 N   0  0  0  0  0  0  0  0  0  0  0  0
    6.5975   -0.9280   25.4549 N   0  0  0  0  0  0  0  0  0  0  0  0
    6.9512   -2.1318   25.0579 C   0  0  0  0  0  0  0  0  0  0  0  0
    6.3011   -3.3951   25.5295 C   0  0  0  0  0  0  0  0  0  0  0  0
    7.2769   -4.5397   25.9305 C   0  0  0  0  0  0  0  0  0  0  0  0
    6.6043   -5.6575   24.6549 S   0  0  0  0  0  0  0  0  0  0  0  0
    5.5584   -4.1865   24.4111 C   0  0  0  0  0  0  0  0  0  0  0  0
    4.5033   -4.3854   24.6198 H   0  0  0  0  0  0  0  0  0  0  0  0
    5.6635   -3.7615   23.4078 H   0  0  0  0  0  0  0  0  0  0  0  0
    7.1277   -4.9275   26.9433 H   0  0  0  0  0  0  0  0  0  0  0  0
    8.3364   -4.3157   25.7735 H   0  0  0  0  0  0  0  0  0  0  0  0
    5.6344   -3.1223   26.3459 H   0  0  0  0  0  0  0  0  0  0  0  0
    7.9326   -2.1613   24.1193 N   0  0  0  0  0  0  0  0  0  0  0  0
    8.2136   -0.8879   23.9321 C   0  0  0  0  0  0  0  0  0  0  0  0
    9.1115   -0.3387   22.8682 C   0  0  0  0  0  0  0  0  0  0  0  0
    8.3244    0.3207   21.7220 C   0  0  0  0  0  0  0  0  0  0  0  0
    7.4050   -0.6755   20.9996 C   0  0  0  0  0  0  0  0  0  0  0  0
    6.6435   -0.0095   19.8904 C   0  0  0  0  0  0  0  0  0  0  0  0
    5.4336    0.6482   20.1462 C   0  0  0  0  0  0  0  0  0  0  0  0
    4.7998    1.3147   19.0970 C   0  0  0  0  0  0  0  0  0  0  0  0
    5.3964    1.2990   17.8311 C   0  0  0  0  0  0  0  0  0  0  0  0
    6.5603    0.6876   17.5656 N   0  0  0  0  0  0  0  0  0  0  0  0
    7.1603    0.0614   18.5869 C   0  0  0  0  0  0  0  0  0  0  0  0
    8.1114   -0.4196   18.3583 H   0  0  0  0  0  0  0  0  0  0  0  0
    4.9143    1.7886   16.9889 H   0  0  0  0  0  0  0  0  0  0  0  0
    3.8702    1.8475   19.2524 H   0  0  0  0  0  0  0  0  0  0  0  0
    5.0108    0.6365   21.1562 H   0  0  0  0  0  0  0  0  0  0  0  0
    8.0073   -1.5051   20.6030 H   0  0  0  0  0  0  0  0  0  0  0  0
    6.7044   -1.1250   21.7188 H   0  0  0  0  0  0  0  0  0  0  0  0
    9.0232    0.7551   20.9965 H   0  0  0  0  0  0  0  0  0  0  0  0
    7.7293    1.1596   22.1082 H   0  0  0  0  0  0  0  0  0  0  0  0
    9.7076   -1.1688   22.4737 H   0  0  0  0  0  0  0  0  0  0  0  0
    9.8171    0.3806   23.2938 H   0  0  0  0  0  0  0  0  0  0  0  0
    6.1493    1.9838   24.7715 C   0  0  0  0  0  0  0  0  0  0  0  0
    6.0316    3.3162   24.8492 N   0  0  0  0  0  0  0  0  0  0  0  0
    5.2237    1.4405   24.6172 H   0  0  0  0  0  0  0  0  0  0  0  0
    9.4996    1.5913   25.1975 H   0  0  0  0  0  0  0  0  0  0  0  0
    9.2638    4.1061   25.3322 H   0  0  0  0  0  0  0  0  0  0  0  0
  1  2  1  0
  2  3  2  0
  3  4  1  0
  4  5  2  0
  5  6  1  0
  6  7  1  0
  7  8  2  0
  8  9  1  0
  9 10  1  0
 10 11  1  0
 11 12  1  0
 12 13  1  0
 12 14  1  0
 10 15  1  0
 10 16  1  0
  9 17  1  0
  8 18  1  0
 18 19  2  0
 19 20  1  0
 20 21  1  0
 21 22  1  0
 22 23  1  0
 23 24  2  0
 24 25  1  0
 25 26  2  0
 26 27  1  0
 27 28  2  0
 28 29  1  0
 26 30  1  0
 25 31  1  0
 24 32  1  0
 22 33  1  0
 22 34  1  0
 21 35  1  0
 21 36  1  0
 20 37  1  0
 20 38  1  0
  5 39  1  0
 39 40  2  0
 39 41  1  0
  4 42  1  0
  3 43  1  0
 40  2  1  0
 19  6  1  0
 28 23  1  0
 12  9  1  0
M  END
>  <cnnaffinity>  (1) 
-5.80382

>  <filename>  (1) 
Fc1ccc(-n2nc(C3CSC3)nc2CCCc2cccnc2)cn1

$$$$
