
     RDKit          3D

 42 45  0  0  0  0  0  0  0  0999 V2000
   13.4307    1.6992   24.4634 F   0  0  0  0  0  0  0  0  0  0  0  0
   12.5008    1.4030   23.5568 C   0  0  0  0  0  0  0  0  0  0  0  0
   11.3302    2.1478   23.4936 C   0  0  0  0  0  0  0  0  0  0  0  0
   10.4171    1.7511   22.5132 C   0  0  0  0  0  0  0  0  0  0  0  0
   10.7079    0.6626   21.6696 C   0  0  0  0  0  0  0  0  0  0  0  0
    9.6821    0.2046   20.6823 C   0  0  0  0  0  0  0  0  0  0  0  0
    8.6470   -0.6237   21.3357 C   0  0  0  0  0  0  0  0  0  0  0  0
    8.8618   -1.4594   22.3246 N   0  0  0  0  0  0  0  0  0  0  0  0
    7.6351   -1.9825   22.5628 C   0  0  0  0  0  0  0  0  0  0  0  0
    7.3698   -2.9265   23.7002 C   0  0  0  0  0  0  0  0  0  0  0  0
    8.3921   -4.0858   23.7698 C   0  0  0  0  0  0  0  0  0  0  0  0
    9.5245   -3.6196   24.7142 C   0  0  0  0  0  0  0  0  0  0  0  0
    8.9818   -2.4012   25.4952 C   0  0  0  0  0  0  0  0  0  0  0  0
    7.5083   -2.2248   25.0762 C   0  0  0  0  0  0  0  0  0  0  0  0
    7.2109   -1.1700   25.0333 H   0  0  0  0  0  0  0  0  0  0  0  0
    6.8391   -2.7054   25.7997 H   0  0  0  0  0  0  0  0  0  0  0  0
    9.5567   -1.5062   25.2384 H   0  0  0  0  0  0  0  0  0  0  0  0
    9.0680   -2.5314   26.5796 H   0  0  0  0  0  0  0  0  0  0  0  0
    9.8309   -4.4330   25.3814 H   0  0  0  0  0  0  0  0  0  0  0  0
   10.4129   -3.3373   24.1406 H   0  0  0  0  0  0  0  0  0  0  0  0
    7.9002   -4.9784   24.1736 H   0  0  0  0  0  0  0  0  0  0  0  0
    8.7681   -4.3619   22.7784 H   0  0  0  0  0  0  0  0  0  0  0  0
    6.3532   -3.2857   23.5353 H   0  0  0  0  0  0  0  0  0  0  0  0
    6.6838   -1.5434   21.7615 N   0  0  0  0  0  0  0  0  0  0  0  0
    7.3407   -0.6844   20.9360 N   0  0  0  0  0  0  0  0  0  0  0  0
    6.6523    0.0035   19.9013 C   0  0  0  0  0  0  0  0  0  0  0  0
    5.4369    0.6454   20.1648 C   0  0  0  0  0  0  0  0  0  0  0  0
    4.8118    1.3116   19.1090 C   0  0  0  0  0  0  0  0  0  0  0  0
    5.4003    1.2955   17.8372 C   0  0  0  0  0  0  0  0  0  0  0  0
    6.5591    0.6723   17.5777 N   0  0  0  0  0  0  0  0  0  0  0  0
    7.1671    0.0511   18.5933 C   0  0  0  0  0  0  0  0  0  0  0  0
    8.1146   -0.4297   18.3647 H   0  0  0  0  0  0  0  0  0  0  0  0
    4.9213    1.7848   16.9930 H   0  0  0  0  0  0  0  0  0  0  0  0
    3.8798    1.8407   19.2597 H   0  0  0  0  0  0  0  0  0  0  0  0
    5.0166    0.6094   21.1732 H   0  0  0  0  0  0  0  0  0  0  0  0
   10.1334   -0.4359   19.9234 H   0  0  0  0  0  0  0  0  0  0  0  0
    9.2181    1.0692   20.2073 H   0  0  0  0  0  0  0  0  0  0  0  0
   11.8502   -0.0285   21.7431 N   0  0  0  0  0  0  0  0  0  0  0  0
   12.7313    0.3388   22.6838 C   0  0  0  0  0  0  0  0  0  0  0  0
   13.6601   -0.2225   22.7743 H   0  0  0  0  0  0  0  0  0  0  0  0
    9.4734    2.2677   22.4005 H   0  0  0  0  0  0  0  0  0  0  0  0
   11.1586    2.9783   24.1815 H   0  0  0  0  0  0  0  0  0  0  0  0
  1  2  1  0
  2  3  2  0
  3  4  1  0
  4  5  2  0
  5  6  1  0
  6  7  1  0
  7  8  2  0
  8  9  1  0
  9 10  1  0
 10 11  1  0
 11 12  1  0
 12 13  1  0
 13 14  1  0
 14 15  1  0
 14 16  1  0
 13 17  1  0
 13 18  1  0
 12 19  1  0
 12 20  1  0
 11 21  1  0
 11 22  1  0
 10 23  1  0
  9 24  2  0
 24 25  1  0
 25 26  1  0
 26 27  2  0
 27 28  1  0
 28 29  2  0
 29 30  1  0
 30 31  2  0
 31 32  1  0
 29 33  1  0
 28 34  1  0
 27 35  1  0
  6 36  1  0
  6 37  1  0
  5 38  1  0
 38 39  2  0
 39 40  1  0
  4 41  1  0
  3 42  1  0
 39  2  1  0
 25  7  1  0
 31 26  1  0
 14 10  1  0
M  END
>  <cnnaffinity>  (1) 
-6.43825

>  <filename>  (1) 
Fc1ccc(Cc2nc(C3CCCC3)nn2-c2cccnc2)nc1

$$$$
