
     RDKit          3D

 27 29  0  0  0  0  0  0  0  0999 V2000
    4.9184    1.7805   16.9964 H   0  0  0  0  0  0  0  0  0  0  0  0
    5.4033    1.2908   17.8406 C   0  0  0  0  0  0  0  0  0  0  0  0
    6.5709    0.6742   17.5849 N   0  0  0  0  0  0  0  0  0  0  0  0
    7.1805    0.0532   18.5979 C   0  0  0  0  0  0  0  0  0  0  0  0
    8.1266   -0.4361   18.3755 H   0  0  0  0  0  0  0  0  0  0  0  0
    6.6525    0.0199   19.9062 C   0  0  0  0  0  0  0  0  0  0  0  0
    7.3469   -0.6343   20.9745 N   0  0  0  0  0  0  0  0  0  0  0  0
    8.1055   -1.7395   20.7339 N   0  0  0  0  0  0  0  0  0  0  0  0
    8.5931   -2.1118   21.8516 N   0  0  0  0  0  0  0  0  0  0  0  0
    8.2111   -1.2963   22.8641 N   0  0  0  0  0  0  0  0  0  0  0  0
    7.4399   -0.3928   22.3079 C   0  0  0  0  0  0  0  0  0  0  0  0
    6.7945    0.6351   22.8748 O   0  0  0  0  0  0  0  0  0  0  0  0
    7.0829    1.0793   24.1703 C   0  0  0  0  0  0  0  0  0  0  0  0
    8.3640    1.0150   24.7251 C   0  0  0  0  0  0  0  0  0  0  0  0
    9.1756    0.5699   24.1607 H   0  0  0  0  0  0  0  0  0  0  0  0
    8.5612    1.5059   26.0202 C   0  0  0  0  0  0  0  0  0  0  0  0
    9.5451    1.4207   26.4665 H   0  0  0  0  0  0  0  0  0  0  0  0
    7.5253    2.0809   26.7560 C   0  0  0  0  0  0  0  0  0  0  0  0
    7.6730    2.4568   27.7667 H   0  0  0  0  0  0  0  0  0  0  0  0
    6.2758    2.1640   26.1424 C   0  0  0  0  0  0  0  0  0  0  0  0
    5.2733    2.7326   26.8266 F   0  0  0  0  0  0  0  0  0  0  0  0
    6.0260    1.6855   24.8571 C   0  0  0  0  0  0  0  0  0  0  0  0
    5.0364    1.7956   24.4282 H   0  0  0  0  0  0  0  0  0  0  0  0
    5.4347    0.6492   20.1677 C   0  0  0  0  0  0  0  0  0  0  0  0
    5.0090    0.6354   21.1712 H   0  0  0  0  0  0  0  0  0  0  0  0
    4.8062    1.3036   19.1045 C   0  0  0  0  0  0  0  0  0  0  0  0
    3.8768    1.8397   19.2606 H   0  0  0  0  0  0  0  0  0  0  0  0
  1  2  1  0
  2  3  2  0
  3  4  1  0
  4  5  1  0
  4  6  2  0
  6  7  1  0
  7  8  1  0
  8  9  2  0
  9 10  1  0
 10 11  2  0
 11 12  1  0
 12 13  1  0
 13 14  2  0
 14 15  1  0
 14 16  1  0
 16 17  1  0
 16 18  2  0
 18 19  1  0
 18 20  1  0
 20 21  1  0
 20 22  2  0
 22 23  1  0
  6 24  1  0
 24 25  1  0
 24 26  2  0
 26 27  1  0
 26  2  1  0
 11  7  1  0
 22 13  1  0
M  END
>  <cnnaffinity>  (1) 
-4.97163

>  <filename>  (1) 
Fc1cccc(Oc2nnnn2-c2cccnc2)c1

$$$$
