
     RDKit          3D

 40 43  0  0  0  0  0  0  0  0999 V2000
   15.3948   -1.1980   19.9199 F   0  0  0  0  0  0  0  0  0  0  0  0
   14.3675   -1.1491   20.7760 C   0  0  0  0  0  0  0  0  0  0  0  0
   14.2692   -0.1120   21.7208 C   0  0  0  0  0  0  0  0  0  0  0  0
   13.0061    0.1992   22.2296 C   0  0  0  0  0  0  0  0  0  0  0  0
   11.9098   -0.5875   21.8403 C   0  0  0  0  0  0  0  0  0  0  0  0
   10.5154   -0.1502   21.9080 C   0  0  0  0  0  0  0  0  0  0  0  0
    9.5531   -0.9389   21.4495 N   0  0  0  0  0  0  0  0  0  0  0  0
    8.4475   -0.1938   21.5710 N   0  0  0  0  0  0  0  0  0  0  0  0
    7.1823   -0.7370   21.0843 C   0  0  0  0  0  0  0  0  0  0  0  0
    6.5471    0.0426   19.9524 C   0  0  0  0  0  0  0  0  0  0  0  0
    5.3219    0.6998   20.0933 C   0  0  0  0  0  0  0  0  0  0  0  0
    4.7716    1.3639   18.9942 C   0  0  0  0  0  0  0  0  0  0  0  0
    5.4716    1.3465   17.7858 C   0  0  0  0  0  0  0  0  0  0  0  0
    6.6470    0.7187   17.6255 N   0  0  0  0  0  0  0  0  0  0  0  0
    7.1677    0.0991   18.6920 C   0  0  0  0  0  0  0  0  0  0  0  0
    8.1263   -0.3922   18.5296 H   0  0  0  0  0  0  0  0  0  0  0  0
    5.0712    1.8522   16.9078 H   0  0  0  0  0  0  0  0  0  0  0  0
    3.8332    1.9020   19.0638 H   0  0  0  0  0  0  0  0  0  0  0  0
    4.8006    0.6910   21.0520 H   0  0  0  0  0  0  0  0  0  0  0  0
    7.4202   -1.7538   20.7536 H   0  0  0  0  0  0  0  0  0  0  0  0
    6.4910   -0.8265   21.9281 H   0  0  0  0  0  0  0  0  0  0  0  0
    8.7769    0.9913   22.1262 C   0  0  0  0  0  0  0  0  0  0  0  0
    7.7429    1.8429   22.7984 C   0  0  0  0  0  0  0  0  0  0  0  0
    7.3553    1.2113   24.1268 C   0  0  0  0  0  0  0  0  0  0  0  0
    6.1990    0.6399   24.5471 C   0  0  0  0  0  0  0  0  0  0  0  0
    6.3627    0.0474   25.7582 O   0  0  0  0  0  0  0  0  0  0  0  0
    7.6515    0.2501   26.1278 C   0  0  0  0  0  0  0  0  0  0  0  0
    8.3046    0.9523   25.1778 C   0  0  0  0  0  0  0  0  0  0  0  0
    9.3524    1.2247   25.1544 H   0  0  0  0  0  0  0  0  0  0  0  0
    7.9531   -0.1709   27.0772 H   0  0  0  0  0  0  0  0  0  0  0  0
    5.2117    0.5558   24.1215 H   0  0  0  0  0  0  0  0  0  0  0  0
    6.8804    1.9740   22.1353 H   0  0  0  0  0  0  0  0  0  0  0  0
    8.2080    2.8177   22.9606 H   0  0  0  0  0  0  0  0  0  0  0  0
   10.0872    1.0701   22.3064 N   0  0  0  0  0  0  0  0  0  0  0  0
   12.1293   -1.8015   21.1709 C   0  0  0  0  0  0  0  0  0  0  0  0
   13.3478   -2.0625   20.5685 C   0  0  0  0  0  0  0  0  0  0  0  0
   13.5165   -2.8909   19.8856 H   0  0  0  0  0  0  0  0  0  0  0  0
   11.2653   -2.4480   21.0685 H   0  0  0  0  0  0  0  0  0  0  0  0
   12.8696    1.0599   22.8840 H   0  0  0  0  0  0  0  0  0  0  0  0
   15.1195    0.5110   21.9668 H   0  0  0  0  0  0  0  0  0  0  0  0
  1  2  1  0
  2  3  2  0
  3  4  1  0
  4  5  2  0
  5  6  1  0
  6  7  2  0
  7  8  1  0
  8  9  1  0
  9 10  1  0
 10 11  2  0
 11 12  1  0
 12 13  2  0
 13 14  1  0
 14 15  2  0
 15 16  1  0
 13 17  1  0
 12 18  1  0
 11 19  1  0
  9 20  1  0
  9 21  1  0
  8 22  1  0
 22 23  1  0
 23 24  1  0
 24 25  2  0
 25 26  1  0
 26 27  1  0
 27 28  2  0
 28 29  1  0
 27 30  1  0
 25 31  1  0
 23 32  1  0
 23 33  1  0
 22 34  2  0
  5 35  1  0
 35 36  2  0
 36 37  1  0
 35 38  1  0
  4 39  1  0
  3 40  1  0
 36  2  1  0
 34  6  1  0
 15 10  1  0
 28 24  1  0
M  END
>  <cnnaffinity>  (1) 
-6.41432

>  <filename>  (1) 
Fc1ccc(-c2nc(Cc3ccoc3)n(Cc3cccnc3)n2)cc1

$$$$
