
     RDKit          3D

 42 45  0  0  0  0  0  0  0  0999 V2000
   13.3566   -2.7750   19.8578 F   0  0  0  0  0  0  0  0  0  0  0  0
   13.0336   -1.8776   20.7961 C   0  0  0  0  0  0  0  0  0  0  0  0
   14.0734   -1.1462   21.3381 C   0  0  0  0  0  0  0  0  0  0  0  0
   13.7872   -0.0609   22.1658 C   0  0  0  0  0  0  0  0  0  0  0  0
   12.4556    0.2842   22.4365 C   0  0  0  0  0  0  0  0  0  0  0  0
   11.4131   -0.4864   21.8807 C   0  0  0  0  0  0  0  0  0  0  0  0
    9.9862   -0.0894   21.9549 C   0  0  0  0  0  0  0  0  0  0  0  0
    9.0321   -0.9120   21.5356 N   0  0  0  0  0  0  0  0  0  0  0  0
    7.8989   -0.2124   21.7248 N   0  0  0  0  0  0  0  0  0  0  0  0
    6.6344   -0.7179   21.1944 C   0  0  0  0  0  0  0  0  0  0  0  0
    6.1595    0.0461   19.9771 C   0  0  0  0  0  0  0  0  0  0  0  0
    4.9742    0.7846   19.9719 C   0  0  0  0  0  0  0  0  0  0  0  0
    4.6247    1.4840   18.8142 C   0  0  0  0  0  0  0  0  0  0  0  0
    5.4818    1.4238   17.7117 C   0  0  0  0  0  0  0  0  0  0  0  0
    6.6295    0.7293   17.6996 N   0  0  0  0  0  0  0  0  0  0  0  0
    6.9596    0.0771   18.8200 C   0  0  0  0  0  0  0  0  0  0  0  0
    7.9166   -0.4466   18.8054 H   0  0  0  0  0  0  0  0  0  0  0  0
    5.2554    1.9809   16.8053 H   0  0  0  0  0  0  0  0  0  0  0  0
    3.7274    2.0898   18.7646 H   0  0  0  0  0  0  0  0  0  0  0  0
    4.3565    0.8339   20.8725 H   0  0  0  0  0  0  0  0  0  0  0  0
    5.9027   -0.6831   22.0061 H   0  0  0  0  0  0  0  0  0  0  0  0
    6.8099   -1.7731   20.9592 H   0  0  0  0  0  0  0  0  0  0  0  0
    8.2053    0.9924   22.2526 C   0  0  0  0  0  0  0  0  0  0  0  0
    7.2134    1.8733   22.9504 C   0  0  0  0  0  0  0  0  0  0  0  0
    7.0003    1.3245   24.3507 C   0  0  0  0  0  0  0  0  0  0  0  0
    5.8692    0.5943   24.7028 C   0  0  0  0  0  0  0  0  0  0  0  0
    5.8659   -0.1079   25.9126 C   0  0  0  0  0  0  0  0  0  0  0  0
    6.8824   -0.0909   26.7806 N   0  0  0  0  0  0  0  0  0  0  0  0
    7.9505    0.6527   26.4597 C   0  0  0  0  0  0  0  0  0  0  0  0
    8.0458    1.3853   25.2790 C   0  0  0  0  0  0  0  0  0  0  0  0
    8.9495    1.9404   25.0550 H   0  0  0  0  0  0  0  0  0  0  0  0
    8.7741    0.6410   27.1703 H   0  0  0  0  0  0  0  0  0  0  0  0
    5.0077   -0.7153   26.1889 H   0  0  0  0  0  0  0  0  0  0  0  0
    4.9987    0.5660   24.0596 H   0  0  0  0  0  0  0  0  0  0  0  0
    7.6443    2.8738   22.9864 H   0  0  0  0  0  0  0  0  0  0  0  0
    6.2774    1.9425   22.3919 H   0  0  0  0  0  0  0  0  0  0  0  0
    9.5169    1.1031   22.3970 N   0  0  0  0  0  0  0  0  0  0  0  0
   11.7153   -1.6360   21.1273 C   0  0  0  0  0  0  0  0  0  0  0  0
   10.9155   -2.2790   20.7766 H   0  0  0  0  0  0  0  0  0  0  0  0
   12.2350    1.1644   23.0359 H   0  0  0  0  0  0  0  0  0  0  0  0
   14.6121    0.5386   22.5374 H   0  0  0  0  0  0  0  0  0  0  0  0
   15.0511   -1.4720   21.0267 H   0  0  0  0  0  0  0  0  0  0  0  0
  1  2  1  0
  2  3  2  0
  3  4  1  0
  4  5  2  0
  5  6  1  0
  6  7  1  0
  7  8  2  0
  8  9  1  0
  9 10  1  0
 10 11  1  0
 11 12  2  0
 12 13  1  0
 13 14  2  0
 14 15  1  0
 15 16  2  0
 16 17  1  0
 14 18  1  0
 13 19  1  0
 12 20  1  0
 10 21  1  0
 10 22  1  0
  9 23  1  0
 23 24  1  0
 24 25  1  0
 25 26  2  0
 26 27  1  0
 27 28  2  0
 28 29  1  0
 29 30  2  0
 30 31  1  0
 29 32  1  0
 27 33  1  0
 26 34  1  0
 24 35  1  0
 24 36  1  0
 23 37  2  0
  6 38  2  0
 38 39  1  0
  5 40  1  0
  4 41  1  0
  3 42  1  0
 38  2  1  0
 37  7  1  0
 16 11  1  0
 30 25  1  0
M  END
>  <cnnaffinity>  (1) 
-6.4277

>  <filename>  (1) 
Fc1cccc(-c2nc(Cc3ccncc3)n(Cc3cccnc3)n2)c1

$$$$
