
     RDKit          3D

 41 44  0  0  0  0  0  0  0  0999 V2000
    9.3421    2.5965   22.1613 F   0  0  0  0  0  0  0  0  0  0  0  0
   10.4716    1.8991   22.3941 C   0  0  0  0  0  0  0  0  0  0  0  0
   11.3346    2.3641   23.3802 C   0  0  0  0  0  0  0  0  0  0  0  0
   12.4888    1.6242   23.6464 C   0  0  0  0  0  0  0  0  0  0  0  0
   12.7566    0.4447   22.9549 C   0  0  0  0  0  0  0  0  0  0  0  0
   11.8600    0.0166   21.9721 C   0  0  0  0  0  0  0  0  0  0  0  0
   12.1902   -1.4962   21.1842 Cl  0  0  0  0  0  0  0  0  0  0  0  0
   10.7013    0.7371   21.6435 C   0  0  0  0  0  0  0  0  0  0  0  0
    9.6498    0.2336   20.6742 C   0  0  0  0  0  0  0  0  0  0  0  0
    8.6262   -0.6230   21.3329 C   0  0  0  0  0  0  0  0  0  0  0  0
    8.8411   -1.4525   22.3308 N   0  0  0  0  0  0  0  0  0  0  0  0
    7.6158   -1.9682   22.5696 C   0  0  0  0  0  0  0  0  0  0  0  0
    7.3798   -2.9187   23.6957 C   0  0  0  0  0  0  0  0  0  0  0  0
    8.5817   -3.8136   24.0755 C   0  0  0  0  0  0  0  0  0  0  0  0
    7.9076   -5.0587   24.6652 C   0  0  0  0  0  0  0  0  0  0  0  0
    6.5690   -5.0702   24.1888 O   0  0  0  0  0  0  0  0  0  0  0  0
    6.2820   -3.9434   23.3857 C   0  0  0  0  0  0  0  0  0  0  0  0
    6.2861   -4.2146   22.3179 H   0  0  0  0  0  0  0  0  0  0  0  0
    5.2785   -3.5813   23.6371 H   0  0  0  0  0  0  0  0  0  0  0  0
    8.4079   -5.9889   24.3637 H   0  0  0  0  0  0  0  0  0  0  0  0
    7.8867   -5.0374   25.7645 H   0  0  0  0  0  0  0  0  0  0  0  0
    9.1638   -4.0655   23.1814 H   0  0  0  0  0  0  0  0  0  0  0  0
    9.2620   -3.3373   24.7869 H   0  0  0  0  0  0  0  0  0  0  0  0
    7.0850   -2.3182   24.5648 H   0  0  0  0  0  0  0  0  0  0  0  0
    6.6620   -1.5433   21.7586 N   0  0  0  0  0  0  0  0  0  0  0  0
    7.3259   -0.6994   20.9272 N   0  0  0  0  0  0  0  0  0  0  0  0
    6.6452   -0.0026   19.8981 C   0  0  0  0  0  0  0  0  0  0  0  0
    5.4350    0.6438   20.1651 C   0  0  0  0  0  0  0  0  0  0  0  0
    4.8115    1.3117   19.1099 C   0  0  0  0  0  0  0  0  0  0  0  0
    5.3990    1.2956   17.8382 C   0  0  0  0  0  0  0  0  0  0  0  0
    6.5576    0.6719   17.5772 N   0  0  0  0  0  0  0  0  0  0  0  0
    7.1641    0.0483   18.5917 C   0  0  0  0  0  0  0  0  0  0  0  0
    8.1130   -0.4309   18.3621 H   0  0  0  0  0  0  0  0  0  0  0  0
    4.9214    1.7852   16.9944 H   0  0  0  0  0  0  0  0  0  0  0  0
    3.8805    1.8409   19.2601 H   0  0  0  0  0  0  0  0  0  0  0  0
    5.0170    0.6110   21.1746 H   0  0  0  0  0  0  0  0  0  0  0  0
    9.1667    1.0874   20.1925 H   0  0  0  0  0  0  0  0  0  0  0  0
   10.0865   -0.4104   19.9059 H   0  0  0  0  0  0  0  0  0  0  0  0
   13.6384   -0.1507   23.1587 H   0  0  0  0  0  0  0  0  0  0  0  0
   13.1881    1.9661   24.3984 H   0  0  0  0  0  0  0  0  0  0  0  0
   11.0896    3.2832   23.9012 H   0  0  0  0  0  0  0  0  0  0  0  0
  1  2  1  0
  2  3  2  0
  3  4  1  0
  4  5  2  0
  5  6  1  0
  6  7  1  0
  6  8  2  0
  8  9  1  0
  9 10  1  0
 10 11  2  0
 11 12  1  0
 12 13  1  0
 13 14  1  0
 14 15  1  0
 15 16  1  0
 16 17  1  0
 17 18  1  0
 17 19  1  0
 15 20  1  0
 15 21  1  0
 14 22  1  0
 14 23  1  0
 13 24  1  0
 12 25  2  0
 25 26  1  0
 26 27  1  0
 27 28  2  0
 28 29  1  0
 29 30  2  0
 30 31  1  0
 31 32  2  0
 32 33  1  0
 30 34  1  0
 29 35  1  0
 28 36  1  0
  9 37  1  0
  9 38  1  0
  5 39  1  0
  4 40  1  0
  3 41  1  0
  8  2  1  0
 26 10  1  0
 32 27  1  0
 17 13  1  0
M  END
>  <cnnaffinity>  (1) 
-6.64077

>  <filename>  (1) 
Fc1cccc(Cl)c1Cc1nc(C2CCOC2)nn1-c1cccnc1

$$$$
