
     RDKit          3D

 41 44  0  0  0  0  0  0  0  0999 V2000
   12.0572   -1.1889   21.2829 F   0  0  0  0  0  0  0  0  0  0  0  0
   11.8400   -0.0409   21.9365 C   0  0  0  0  0  0  0  0  0  0  0  0
   12.7602    0.3813   22.9008 C   0  0  0  0  0  0  0  0  0  0  0  0
   14.2697   -0.4485   23.0422 Cl  0  0  0  0  0  0  0  0  0  0  0  0
   12.5073    1.5355   23.6462 C   0  0  0  0  0  0  0  0  0  0  0  0
   11.3625    2.2925   23.3819 C   0  0  0  0  0  0  0  0  0  0  0  0
   10.4750    1.8815   22.3833 C   0  0  0  0  0  0  0  0  0  0  0  0
   10.7028    0.7159   21.6424 C   0  0  0  0  0  0  0  0  0  0  0  0
    9.6560    0.2063   20.6764 C   0  0  0  0  0  0  0  0  0  0  0  0
    8.6245   -0.6365   21.3412 C   0  0  0  0  0  0  0  0  0  0  0  0
    8.8346   -1.4780   22.3294 N   0  0  0  0  0  0  0  0  0  0  0  0
    7.6091   -1.9925   22.5618 C   0  0  0  0  0  0  0  0  0  0  0  0
    7.3670   -2.9771   23.6577 C   0  0  0  0  0  0  0  0  0  0  0  0
    8.2900   -4.2211   23.5711 C   0  0  0  0  0  0  0  0  0  0  0  0
    9.4870   -3.8624   24.4734 C   0  0  0  0  0  0  0  0  0  0  0  0
    9.0921   -2.7490   25.2519 O   0  0  0  0  0  0  0  0  0  0  0  0
    7.7418   -2.4052   25.0394 C   0  0  0  0  0  0  0  0  0  0  0  0
    7.6781   -1.3124   25.1081 H   0  0  0  0  0  0  0  0  0  0  0  0
    7.0857   -2.8281   25.8217 H   0  0  0  0  0  0  0  0  0  0  0  0
    9.7842   -4.7046   25.1204 H   0  0  0  0  0  0  0  0  0  0  0  0
   10.3707   -3.5626   23.8933 H   0  0  0  0  0  0  0  0  0  0  0  0
    7.7637   -5.1072   23.9436 H   0  0  0  0  0  0  0  0  0  0  0  0
    8.6129   -4.4419   22.5488 H   0  0  0  0  0  0  0  0  0  0  0  0
    6.3081   -3.2127   23.5895 H   0  0  0  0  0  0  0  0  0  0  0  0
    6.6578   -1.5500   21.7628 N   0  0  0  0  0  0  0  0  0  0  0  0
    7.3215   -0.6952   20.9383 N   0  0  0  0  0  0  0  0  0  0  0  0
    6.6455   -0.0002   19.9006 C   0  0  0  0  0  0  0  0  0  0  0  0
    5.4334    0.6455   20.1642 C   0  0  0  0  0  0  0  0  0  0  0  0
    4.8117    1.3126   19.1076 C   0  0  0  0  0  0  0  0  0  0  0  0
    5.3995    1.2966   17.8357 C   0  0  0  0  0  0  0  0  0  0  0  0
    6.5565    0.6708   17.5763 N   0  0  0  0  0  0  0  0  0  0  0  0
    7.1627    0.0485   18.5921 C   0  0  0  0  0  0  0  0  0  0  0  0
    8.1108   -0.4295   18.3598 H   0  0  0  0  0  0  0  0  0  0  0  0
    4.9243    1.7879   16.9907 H   0  0  0  0  0  0  0  0  0  0  0  0
    3.8804    1.8408   19.2576 H   0  0  0  0  0  0  0  0  0  0  0  0
    5.0168    0.6071   21.1746 H   0  0  0  0  0  0  0  0  0  0  0  0
   10.0818   -0.4413   19.9041 H   0  0  0  0  0  0  0  0  0  0  0  0
    9.1811    1.0620   20.1923 H   0  0  0  0  0  0  0  0  0  0  0  0
    9.5715    2.4507   22.1825 H   0  0  0  0  0  0  0  0  0  0  0  0
   11.1758    3.2080   23.9336 H   0  0  0  0  0  0  0  0  0  0  0  0
   13.2327    1.8301   24.3969 H   0  0  0  0  0  0  0  0  0  0  0  0
  1  2  1  0
  2  3  2  0
  3  4  1  0
  3  5  1  0
  5  6  2  0
  6  7  1  0
  7  8  2  0
  8  9  1  0
  9 10  1  0
 10 11  2  0
 11 12  1  0
 12 13  1  0
 13 14  1  0
 14 15  1  0
 15 16  1  0
 16 17  1  0
 17 18  1  0
 17 19  1  0
 15 20  1  0
 15 21  1  0
 14 22  1  0
 14 23  1  0
 13 24  1  0
 12 25  2  0
 25 26  1  0
 26 27  1  0
 27 28  2  0
 28 29  1  0
 29 30  2  0
 30 31  1  0
 31 32  2  0
 32 33  1  0
 30 34  1  0
 29 35  1  0
 28 36  1  0
  9 37  1  0
  9 38  1  0
  7 39  1  0
  6 40  1  0
  5 41  1  0
  8  2  1  0
 26 10  1  0
 32 27  1  0
 17 13  1  0
M  END
>  <cnnaffinity>  (1) 
-6.70785

>  <filename>  (1) 
Fc1c(Cl)cccc1Cc1nc(C2CCOC2)nn1-c1cccnc1

$$$$
