
     RDKit          3D

 28 30  0  0  0  0  0  0  0  0999 V2000
    4.9179    1.7949   16.9783 H   0  0  0  0  0  0  0  0  0  0  0  0
    5.3904    1.3008   17.8228 C   0  0  0  0  0  0  0  0  0  0  0  0
    6.5512    0.6840   17.5599 N   0  0  0  0  0  0  0  0  0  0  0  0
    7.1654    0.0762   18.5826 C   0  0  0  0  0  0  0  0  0  0  0  0
    8.1042   -0.4212   18.3455 H   0  0  0  0  0  0  0  0  0  0  0  0
    6.6656    0.0237   19.8967 C   0  0  0  0  0  0  0  0  0  0  0  0
    7.3966   -0.6931   20.9610 C   0  0  0  0  0  0  0  0  0  0  0  0
    8.7529   -0.7783   21.0770 C   0  0  0  0  0  0  0  0  0  0  0  0
    9.4704   -0.3132   20.4218 H   0  0  0  0  0  0  0  0  0  0  0  0
    9.2533   -1.6926   22.4404 S   0  0  0  0  0  0  0  0  0  0  0  0
    7.6045   -1.9909   22.9166 C   0  0  0  0  0  0  0  0  0  0  0  0
    7.2206   -2.7586   24.1133 C   0  0  0  0  0  0  0  0  0  0  0  0
    5.9906   -2.5251   24.7602 C   0  0  0  0  0  0  0  0  0  0  0  0
    5.3506   -1.7361   24.3976 H   0  0  0  0  0  0  0  0  0  0  0  0
    5.5874   -3.2325   25.8902 C   0  0  0  0  0  0  0  0  0  0  0  0
    4.6360   -3.0493   26.3764 H   0  0  0  0  0  0  0  0  0  0  0  0
    6.4519   -4.1944   26.4007 C   0  0  0  0  0  0  0  0  0  0  0  0
    6.0936   -4.8777   27.4940 F   0  0  0  0  0  0  0  0  0  0  0  0
    7.6829   -4.4717   25.8170 C   0  0  0  0  0  0  0  0  0  0  0  0
    8.3495   -5.2176   26.2267 H   0  0  0  0  0  0  0  0  0  0  0  0
    8.0416   -3.7517   24.6812 C   0  0  0  0  0  0  0  0  0  0  0  0
    9.2180   -4.0192   24.1182 F   0  0  0  0  0  0  0  0  0  0  0  0
    6.7566   -1.4067   22.0166 C   0  0  0  0  0  0  0  0  0  0  0  0
    5.6854   -1.5194   22.0203 H   0  0  0  0  0  0  0  0  0  0  0  0
    5.4348    0.6587   20.1426 C   0  0  0  0  0  0  0  0  0  0  0  0
    5.0211    0.6430   21.1537 H   0  0  0  0  0  0  0  0  0  0  0  0
    4.7996    1.3179   19.0904 C   0  0  0  0  0  0  0  0  0  0  0  0
    3.8703    1.8454   19.2444 H   0  0  0  0  0  0  0  0  0  0  0  0
  1  2  1  0
  2  3  2  0
  3  4  1  0
  4  5  1  0
  4  6  2  0
  6  7  1  0
  7  8  2  0
  8  9  1  0
  8 10  1  0
 10 11  1  0
 11 12  1  0
 12 13  2  0
 13 14  1  0
 13 15  1  0
 15 16  1  0
 15 17  2  0
 17 18  1  0
 17 19  1  0
 19 20  1  0
 19 21  2  0
 21 22  1  0
 11 23  2  0
 23 24  1  0
  6 25  1  0
 25 26  1  0
 25 27  2  0
 27 28  1  0
 27  2  1  0
 23  7  1  0
 21 12  1  0
M  END
>  <cnnaffinity>  (1) 
-5.17478

>  <filename>  (1) 
Fc1ccc(-c2cc(-c3cccnc3)cs2)c(F)c1

$$$$
