
     RDKit          3D

 44 47  0  0  0  0  0  0  0  0999 V2000
    7.0451    7.4338   23.9098 F   0  0  0  0  0  0  0  0  0  0  0  0
    7.4839    6.1939   23.6569 C   0  0  0  0  0  0  0  0  0  0  0  0
    6.5744    5.1616   23.4542 C   0  0  0  0  0  0  0  0  0  0  0  0
    7.0553    3.8733   23.2030 C   0  0  0  0  0  0  0  0  0  0  0  0
    8.4286    3.6073   23.1636 C   0  0  0  0  0  0  0  0  0  0  0  0
    8.9270    2.2293   22.8240 C   0  0  0  0  0  0  0  0  0  0  0  0
    9.0292    2.0179   21.3101 C   0  0  0  0  0  0  0  0  0  0  0  0
    9.5255    0.6119   20.9377 C   0  0  0  0  0  0  0  0  0  0  0  0
    8.6243   -0.4747   21.4331 C   0  0  0  0  0  0  0  0  0  0  0  0
    8.8482   -1.2834   22.4461 N   0  0  0  0  0  0  0  0  0  0  0  0
    7.6719   -1.9485   22.5786 C   0  0  0  0  0  0  0  0  0  0  0  0
    7.4684   -2.9326   23.6784 C   0  0  0  0  0  0  0  0  0  0  0  0
    8.5996   -3.9830   23.8328 C   0  0  0  0  0  0  0  0  0  0  0  0
    8.9763   -3.4329   25.5302 S   0  0  0  0  0  0  0  0  0  0  0  0
    7.5916   -2.3263   25.1048 C   0  0  0  0  0  0  0  0  0  0  0  0
    7.8750   -1.2679   25.1260 H   0  0  0  0  0  0  0  0  0  0  0  0
    6.7146   -2.4826   25.7415 H   0  0  0  0  0  0  0  0  0  0  0  0
    8.2573   -5.0225   23.7982 H   0  0  0  0  0  0  0  0  0  0  0  0
    9.4460   -3.8485   23.1504 H   0  0  0  0  0  0  0  0  0  0  0  0
    6.4951   -3.3896   23.5092 H   0  0  0  0  0  0  0  0  0  0  0  0
    6.7432   -1.6151   21.7078 N   0  0  0  0  0  0  0  0  0  0  0  0
    7.3613   -0.6707   20.9448 N   0  0  0  0  0  0  0  0  0  0  0  0
    6.6608    0.0080   19.9052 C   0  0  0  0  0  0  0  0  0  0  0  0
    5.4407    0.6441   20.1669 C   0  0  0  0  0  0  0  0  0  0  0  0
    4.8132    1.3094   19.1092 C   0  0  0  0  0  0  0  0  0  0  0  0
    5.4027    1.2959   17.8362 C   0  0  0  0  0  0  0  0  0  0  0  0
    6.5615    0.6737   17.5775 N   0  0  0  0  0  0  0  0  0  0  0  0
    7.1703    0.0562   18.5939 C   0  0  0  0  0  0  0  0  0  0  0  0
    8.1128   -0.4338   18.3713 H   0  0  0  0  0  0  0  0  0  0  0  0
    4.9181    1.7851   16.9926 H   0  0  0  0  0  0  0  0  0  0  0  0
    3.8788    1.8400   19.2605 H   0  0  0  0  0  0  0  0  0  0  0  0
    5.0144    0.6093   21.1737 H   0  0  0  0  0  0  0  0  0  0  0  0
    9.6210    0.5416   19.8509 H   0  0  0  0  0  0  0  0  0  0  0  0
   10.5188    0.4368   21.3636 H   0  0  0  0  0  0  0  0  0  0  0  0
    9.7159    2.7615   20.8955 H   0  0  0  0  0  0  0  0  0  0  0  0
    8.0558    2.2058   20.8396 H   0  0  0  0  0  0  0  0  0  0  0  0
    9.9094    2.0588   23.2800 H   0  0  0  0  0  0  0  0  0  0  0  0
    8.2650    1.4689   23.2567 H   0  0  0  0  0  0  0  0  0  0  0  0
    9.3339    4.6618   23.3516 C   0  0  0  0  0  0  0  0  0  0  0  0
    8.8602    5.9447   23.6004 C   0  0  0  0  0  0  0  0  0  0  0  0
    9.7255    6.9496   23.7951 F   0  0  0  0  0  0  0  0  0  0  0  0
   10.4079    4.5120   23.2989 H   0  0  0  0  0  0  0  0  0  0  0  0
    6.3520    3.0655   23.0207 H   0  0  0  0  0  0  0  0  0  0  0  0
    5.5136    5.3841   23.4915 H   0  0  0  0  0  0  0  0  0  0  0  0
  1  2  1  0
  2  3  2  0
  3  4  1  0
  4  5  2  0
  5  6  1  0
  6  7  1  0
  7  8  1  0
  8  9  1  0
  9 10  2  0
 10 11  1  0
 11 12  1  0
 12 13  1  0
 13 14  1  0
 14 15  1  0
 15 16  1  0
 15 17  1  0
 13 18  1  0
 13 19  1  0
 12 20  1  0
 11 21  2  0
 21 22  1  0
 22 23  1  0
 23 24  2  0
 24 25  1  0
 25 26  2  0
 26 27  1  0
 27 28  2  0
 28 29  1  0
 26 30  1  0
 25 31  1  0
 24 32  1  0
  8 33  1  0
  8 34  1  0
  7 35  1  0
  7 36  1  0
  6 37  1  0
  6 38  1  0
  5 39  1  0
 39 40  2  0
 40 41  1  0
 39 42  1  0
  4 43  1  0
  3 44  1  0
 40  2  1  0
 22  9  1  0
 28 23  1  0
 15 12  1  0
M  END
>  <cnnaffinity>  (1) 
-6.14747

>  <filename>  (1) 
Fc1ccc(CCCc2nc(C3CSC3)nn2-c2cccnc2)cc1F

$$$$
