
     RDKit          3D

 40 43  0  0  0  0  0  0  0  0999 V2000
   13.7575   -2.1968   20.9330 F   0  0  0  0  0  0  0  0  0  0  0  0
   13.0864   -1.2800   21.6454 C   0  0  0  0  0  0  0  0  0  0  0  0
   13.8079   -0.4384   22.4881 C   0  0  0  0  0  0  0  0  0  0  0  0
   13.1298    0.5546   23.1958 C   0  0  0  0  0  0  0  0  0  0  0  0
   11.7518    0.7052   23.0476 C   0  0  0  0  0  0  0  0  0  0  0  0
   11.0187   -0.1879   22.2368 C   0  0  0  0  0  0  0  0  0  0  0  0
    9.5410   -0.0330   22.1759 C   0  0  0  0  0  0  0  0  0  0  0  0
    8.7174   -0.8789   21.5769 N   0  0  0  0  0  0  0  0  0  0  0  0
    7.4960   -0.3219   21.7748 N   0  0  0  0  0  0  0  0  0  0  0  0
    6.3476   -0.8326   21.0274 C   0  0  0  0  0  0  0  0  0  0  0  0
    5.9895   -0.0081   19.8068 C   0  0  0  0  0  0  0  0  0  0  0  0
    4.7916    0.7054   19.6817 C   0  0  0  0  0  0  0  0  0  0  0  0
    4.6007    1.4938   18.5426 C   0  0  0  0  0  0  0  0  0  0  0  0
    5.6113    1.5388   17.5772 C   0  0  0  0  0  0  0  0  0  0  0  0
    6.7429    0.8212   17.6556 N   0  0  0  0  0  0  0  0  0  0  0  0
    6.9138    0.0707   18.7499 C   0  0  0  0  0  0  0  0  0  0  0  0
    7.8383   -0.5074   18.8079 H   0  0  0  0  0  0  0  0  0  0  0  0
    5.5093    2.1705   16.6957 H   0  0  0  0  0  0  0  0  0  0  0  0
    3.6991    2.0780   18.3953 H   0  0  0  0  0  0  0  0  0  0  0  0
    4.0206    0.6492   20.4568 H   0  0  0  0  0  0  0  0  0  0  0  0
    5.5049   -0.9017   21.7120 H   0  0  0  0  0  0  0  0  0  0  0  0
    6.6192   -1.8514   20.7365 H   0  0  0  0  0  0  0  0  0  0  0  0
    7.6429    0.8287   22.4724 C   0  0  0  0  0  0  0  0  0  0  0  0
    6.5632    1.6789   23.0703 C   0  0  0  0  0  0  0  0  0  0  0  0
    6.2764    1.2278   24.4709 C   0  0  0  0  0  0  0  0  0  0  0  0
    5.2653    0.5457   25.0607 C   0  0  0  0  0  0  0  0  0  0  0  0
    5.6693    0.3257   26.4198 C   0  0  0  0  0  0  0  0  0  0  0  0
    6.8869    0.9025   26.5470 C   0  0  0  0  0  0  0  0  0  0  0  0
    7.2622    1.4620   25.3687 O   0  0  0  0  0  0  0  0  0  0  0  0
    7.6013    0.9691   27.3575 H   0  0  0  0  0  0  0  0  0  0  0  0
    5.1275   -0.2028   27.1891 H   0  0  0  0  0  0  0  0  0  0  0  0
    4.3518    0.2115   24.5901 H   0  0  0  0  0  0  0  0  0  0  0  0
    6.9494    2.7009   23.0994 H   0  0  0  0  0  0  0  0  0  0  0  0
    5.6449    1.6679   22.4822 H   0  0  0  0  0  0  0  0  0  0  0  0
    8.9100    1.0377   22.7289 N   0  0  0  0  0  0  0  0  0  0  0  0
   11.7039   -1.1917   21.5188 C   0  0  0  0  0  0  0  0  0  0  0  0
   11.1878   -1.9066   20.8870 H   0  0  0  0  0  0  0  0  0  0  0  0
   11.2241    1.5071   23.5564 H   0  0  0  0  0  0  0  0  0  0  0  0
   13.6864    1.2029   23.8671 H   0  0  0  0  0  0  0  0  0  0  0  0
   14.8764   -0.5600   22.5605 H   0  0  0  0  0  0  0  0  0  0  0  0
  1  2  1  0
  2  3  2  0
  3  4  1  0
  4  5  2  0
  5  6  1  0
  6  7  1  0
  7  8  2  0
  8  9  1  0
  9 10  1  0
 10 11  1  0
 11 12  2  0
 12 13  1  0
 13 14  2  0
 14 15  1  0
 15 16  2  0
 16 17  1  0
 14 18  1  0
 13 19  1  0
 12 20  1  0
 10 21  1  0
 10 22  1  0
  9 23  1  0
 23 24  1  0
 24 25  1  0
 25 26  2  0
 26 27  1  0
 27 28  2  0
 28 29  1  0
 28 30  1  0
 27 31  1  0
 26 32  1  0
 24 33  1  0
 24 34  1  0
 23 35  2  0
  6 36  2  0
 36 37  1  0
  5 38  1  0
  4 39  1  0
  3 40  1  0
 36  2  1  0
 35  7  1  0
 16 11  1  0
 29 25  1  0
M  END
>  <cnnaffinity>  (1) 
-6.26661

>  <filename>  (1) 
Fc1cccc(-c2nc(Cc3ccco3)n(Cc3cccnc3)n2)c1

$$$$
