
     RDKit          3D

 41 44  0  0  0  0  0  0  0  0999 V2000
    7.0525   -1.0303   27.6020 F   0  0  0  0  0  0  0  0  0  0  0  0
    7.1650   -0.2447   26.5210 C   0  0  0  0  0  0  0  0  0  0  0  0
    8.2765    0.5824   26.3806 C   0  0  0  0  0  0  0  0  0  0  0  0
    8.3485    1.3509   25.2185 C   0  0  0  0  0  0  0  0  0  0  0  0
    7.3397    1.2445   24.2472 C   0  0  0  0  0  0  0  0  0  0  0  0
    7.5029    1.8948   22.8967 C   0  0  0  0  0  0  0  0  0  0  0  0
    8.4706    1.0360   22.1624 C   0  0  0  0  0  0  0  0  0  0  0  0
    9.7778    1.1300   22.3080 N   0  0  0  0  0  0  0  0  0  0  0  0
   10.2217   -0.0386   21.8005 C   0  0  0  0  0  0  0  0  0  0  0  0
   11.6138   -0.4332   21.7762 C   0  0  0  0  0  0  0  0  0  0  0  0
   12.6666    0.3709   22.2448 C   0  0  0  0  0  0  0  0  0  0  0  0
   13.9486   -0.0984   22.0077 C   0  0  0  0  0  0  0  0  0  0  0  0
   15.0024    0.6366   22.3644 F   0  0  0  0  0  0  0  0  0  0  0  0
   14.1441   -1.3066   21.3245 C   0  0  0  0  0  0  0  0  0  0  0  0
   13.1308   -2.0522   20.8930 N   0  0  0  0  0  0  0  0  0  0  0  0
   11.8888   -1.6527   21.1502 C   0  0  0  0  0  0  0  0  0  0  0  0
   11.0711   -2.2849   20.8146 H   0  0  0  0  0  0  0  0  0  0  0  0
   15.1255   -1.6698   21.0741 H   0  0  0  0  0  0  0  0  0  0  0  0
   12.5167    1.3289   22.7422 H   0  0  0  0  0  0  0  0  0  0  0  0
    9.2755   -0.8262   21.3195 N   0  0  0  0  0  0  0  0  0  0  0  0
    8.1503   -0.1280   21.5598 N   0  0  0  0  0  0  0  0  0  0  0  0
    6.8673   -0.6581   21.1188 C   0  0  0  0  0  0  0  0  0  0  0  0
    6.2930    0.0816   19.9332 C   0  0  0  0  0  0  0  0  0  0  0  0
    5.0778    0.7690   19.9946 C   0  0  0  0  0  0  0  0  0  0  0  0
    4.6280    1.4354   18.8531 C   0  0  0  0  0  0  0  0  0  0  0  0
    5.4116    1.3883   17.6966 C   0  0  0  0  0  0  0  0  0  0  0  0
    6.5729    0.7207   17.6118 N   0  0  0  0  0  0  0  0  0  0  0  0
    6.9929    0.0889   18.7132 C   0  0  0  0  0  0  0  0  0  0  0  0
    7.9303   -0.4620   18.6266 H   0  0  0  0  0  0  0  0  0  0  0  0
    5.0966    1.9091   16.7959 H   0  0  0  0  0  0  0  0  0  0  0  0
    3.7021    1.9980   18.8540 H   0  0  0  0  0  0  0  0  0  0  0  0
    4.4957    0.7776   20.9206 H   0  0  0  0  0  0  0  0  0  0  0  0
    7.0702   -1.7077   20.8788 H   0  0  0  0  0  0  0  0  0  0  0  0
    6.1955   -0.6265   21.9818 H   0  0  0  0  0  0  0  0  0  0  0  0
    7.9171    2.9049   22.9714 H   0  0  0  0  0  0  0  0  0  0  0  0
    6.5493    1.9191   22.3700 H   0  0  0  0  0  0  0  0  0  0  0  0
    6.2804    0.4407   24.3941 N   0  0  0  0  0  0  0  0  0  0  0  0
    6.1819   -0.2784   25.5279 C   0  0  0  0  0  0  0  0  0  0  0  0
    5.3123   -0.9192   25.6583 H   0  0  0  0  0  0  0  0  0  0  0  0
    9.2044    1.9779   24.9929 H   0  0  0  0  0  0  0  0  0  0  0  0
    9.0537    0.5924   27.1427 H   0  0  0  0  0  0  0  0  0  0  0  0
  1  2  1  0
  2  3  2  0
  3  4  1  0
  4  5  2  0
  5  6  1  0
  6  7  1  0
  7  8  2  0
  8  9  1  0
  9 10  1  0
 10 11  2  0
 11 12  1  0
 12 13  1  0
 12 14  2  0
 14 15  1  0
 15 16  2  0
 16 17  1  0
 14 18  1  0
 11 19  1  0
  9 20  2  0
 20 21  1  0
 21 22  1  0
 22 23  1  0
 23 24  2  0
 24 25  1  0
 25 26  2  0
 26 27  1  0
 27 28  2  0
 28 29  1  0
 26 30  1  0
 25 31  1  0
 24 32  1  0
 22 33  1  0
 22 34  1  0
  6 35  1  0
  6 36  1  0
  5 37  1  0
 37 38  2  0
 38 39  1  0
  4 40  1  0
  3 41  1  0
 38  2  1  0
 21  7  1  0
 28 23  1  0
 16 10  1  0
M  END
>  <cnnaffinity>  (1) 
-6.93389

>  <filename>  (1) 
Fc1ccc(Cc2nc(-c3cncc(F)c3)nn2Cc2cccnc2)nc1

$$$$
