
     RDKit          3D

 32 35  0  0  0  0  0  0  0  0999 V2000
    4.9959    1.8334   17.2481 H   0  0  0  0  0  0  0  0  0  0  0  0
    5.4841    1.1971   17.9853 C   0  0  0  0  0  0  0  0  0  0  0  0
    6.5916    0.5586   17.5739 N   0  0  0  0  0  0  0  0  0  0  0  0
    7.2465   -0.1853   18.4727 C   0  0  0  0  0  0  0  0  0  0  0  0
    8.1483   -0.6825   18.1072 H   0  0  0  0  0  0  0  0  0  0  0  0
    6.8347   -0.3417   19.8163 C   0  0  0  0  0  0  0  0  0  0  0  0
    7.7029   -1.0020   20.8024 C   0  0  0  0  0  0  0  0  0  0  0  0
    9.0519   -0.8693   21.0294 C   0  0  0  0  0  0  0  0  0  0  0  0
    9.7216   -0.2703   20.4220 H   0  0  0  0  0  0  0  0  0  0  0  0
    9.4705   -1.5183   22.1635 N   0  0  0  0  0  0  0  0  0  0  0  0
    8.3617   -2.0278   22.6374 C   0  0  0  0  0  0  0  0  0  0  0  0
    7.8860   -2.8498   24.1000 S   0  0  0  0  0  0  0  0  0  0  0  0
    6.2453   -2.7254   23.5041 C   0  0  0  0  0  0  0  0  0  0  0  0
    5.1268   -3.0906   24.1747 N   0  0  0  0  0  0  0  0  0  0  0  0
    4.3678   -2.5556   23.7741 H   0  0  0  0  0  0  0  0  0  0  0  0
    4.8954   -3.9160   25.2886 C   0  0  0  0  0  0  0  0  0  0  0  0
    4.0423   -3.4506   26.2995 C   0  0  0  0  0  0  0  0  0  0  0  0
    3.6479   -2.4425   26.2166 H   0  0  0  0  0  0  0  0  0  0  0  0
    3.7027   -4.2672   27.3877 C   0  0  0  0  0  0  0  0  0  0  0  0
    3.0494   -3.9226   28.1829 H   0  0  0  0  0  0  0  0  0  0  0  0
    4.2204   -5.5599   27.4462 C   0  0  0  0  0  0  0  0  0  0  0  0
    3.9111   -6.3474   28.4931 F   0  0  0  0  0  0  0  0  0  0  0  0
    5.0569   -6.0521   26.4474 C   0  0  0  0  0  0  0  0  0  0  0  0
    5.4267   -7.0704   26.5283 H   0  0  0  0  0  0  0  0  0  0  0  0
    5.4004   -5.2213   25.3699 C   0  0  0  0  0  0  0  0  0  0  0  0
    6.0317   -5.5896   24.5679 H   0  0  0  0  0  0  0  0  0  0  0  0
    6.0577   -2.1566   22.3435 N   0  0  0  0  0  0  0  0  0  0  0  0
    7.2718   -1.7766   21.8653 N   0  0  0  0  0  0  0  0  0  0  0  0
    5.6228    0.2616   20.1962 C   0  0  0  0  0  0  0  0  0  0  0  0
    5.2321    0.0916   21.2000 H   0  0  0  0  0  0  0  0  0  0  0  0
    4.9568    1.0670   19.2750 C   0  0  0  0  0  0  0  0  0  0  0  0
    4.0527    1.6040   19.5414 H   0  0  0  0  0  0  0  0  0  0  0  0
  1  2  1  0
  2  3  2  0
  3  4  1  0
  4  5  1  0
  4  6  2  0
  6  7  1  0
  7  8  2  0
  8  9  1  0
  8 10  1  0
 10 11  2  0
 11 12  1  0
 12 13  1  0
 13 14  1  0
 14 15  1  0
 14 16  1  0
 16 17  2  0
 17 18  1  0
 17 19  1  0
 19 20  1  0
 19 21  2  0
 21 22  1  0
 21 23  1  0
 23 24  1  0
 23 25  2  0
 25 26  1  0
 13 27  2  0
 27 28  1  0
  6 29  1  0
 29 30  1  0
 29 31  2  0
 31 32  1  0
 31  2  1  0
 28  7  1  0
 28 11  1  0
 25 16  1  0
M  END
>  <cnnaffinity>  (1) 
-5.28006

>  <filename>  (1) 
Fc1ccc(Nc2nn3c(-c4cccnc4)cnc3s2)cc1

$$$$
