
     RDKit          3D

 42 46  0  0  0  0  0  0  0  0999 V2000
    5.2014    5.8026   24.5819 F   0  0  0  0  0  0  0  0  0  0  0  0
    6.2883    5.0392   24.7861 C   0  0  0  0  0  0  0  0  0  0  0  0
    7.3000    5.5035   25.6151 C   0  0  0  0  0  0  0  0  0  0  0  0
    8.4229    4.6865   25.8199 C   0  0  0  0  0  0  0  0  0  0  0  0
    8.5207    3.4396   25.2026 C   0  0  0  0  0  0  0  0  0  0  0  0
    7.4790    3.0024   24.3676 C   0  0  0  0  0  0  0  0  0  0  0  0
    7.6423    1.7716   23.8167 O   0  0  0  0  0  0  0  0  0  0  0  0
    6.6711    1.2875   22.9072 C   0  0  0  0  0  0  0  0  0  0  0  0
    7.0472   -0.0864   22.4568 C   0  0  0  0  0  0  0  0  0  0  0  0
    7.6770   -0.9893   23.1778 N   0  0  0  0  0  0  0  0  0  0  0  0
    7.7408   -2.0577   22.3529 C   0  0  0  0  0  0  0  0  0  0  0  0
    8.5700   -3.2502   22.6494 C   0  0  0  0  0  0  0  0  0  0  0  0
    8.0252   -4.6620   22.4435 C   0  0  0  0  0  0  0  0  0  0  0  0
    8.4139   -4.1760   23.8107 C   0  0  0  0  0  0  0  0  0  0  0  0
    7.8696   -4.1986   25.1943 C   0  0  0  0  0  0  0  0  0  0  0  0
    9.2971   -4.6648   24.9071 C   0  0  0  0  0  0  0  0  0  0  0  0
   10.1066   -4.0140   25.2340 H   0  0  0  0  0  0  0  0  0  0  0  0
    9.5176   -5.7304   24.9223 H   0  0  0  0  0  0  0  0  0  0  0  0
    7.1074   -4.9389   25.4139 H   0  0  0  0  0  0  0  0  0  0  0  0
    7.7480   -3.2444   25.6930 H   0  0  0  0  0  0  0  0  0  0  0  0
    8.6624   -5.3876   21.9371 H   0  0  0  0  0  0  0  0  0  0  0  0
    6.9628   -4.7698   22.2308 H   0  0  0  0  0  0  0  0  0  0  0  0
    9.6074   -3.0607   22.3730 H   0  0  0  0  0  0  0  0  0  0  0  0
    7.2050   -1.8738   21.1577 N   0  0  0  0  0  0  0  0  0  0  0  0
    6.7284   -0.6014   21.2257 N   0  0  0  0  0  0  0  0  0  0  0  0
    6.2399    0.0412   20.0484 C   0  0  0  0  0  0  0  0  0  0  0  0
    5.2057    0.9878   20.0596 C   0  0  0  0  0  0  0  0  0  0  0  0
    4.8977    1.6441   18.8621 C   0  0  0  0  0  0  0  0  0  0  0  0
    5.5967    1.3122   17.6998 C   0  0  0  0  0  0  0  0  0  0  0  0
    6.5536    0.3696   17.6706 N   0  0  0  0  0  0  0  0  0  0  0  0
    6.8489   -0.2546   18.8125 C   0  0  0  0  0  0  0  0  0  0  0  0
    7.6202   -1.0181   18.7686 H   0  0  0  0  0  0  0  0  0  0  0  0
    5.3783    1.7998   16.7532 H   0  0  0  0  0  0  0  0  0  0  0  0
    4.1510    2.4287   18.8284 H   0  0  0  0  0  0  0  0  0  0  0  0
    4.6388    1.2137   20.9635 H   0  0  0  0  0  0  0  0  0  0  0  0
    6.6026    1.9537   22.0406 H   0  0  0  0  0  0  0  0  0  0  0  0
    5.6842    1.2489   23.3920 H   0  0  0  0  0  0  0  0  0  0  0  0
    6.3479    3.7995   24.1532 C   0  0  0  0  0  0  0  0  0  0  0  0
    5.5328    3.4738   23.5221 H   0  0  0  0  0  0  0  0  0  0  0  0
    9.3770    2.7870   25.3473 H   0  0  0  0  0  0  0  0  0  0  0  0
    9.2291    5.0237   26.4668 H   0  0  0  0  0  0  0  0  0  0  0  0
    7.1987    6.4776   26.0795 H   0  0  0  0  0  0  0  0  0  0  0  0
  1  2  1  0
  2  3  2  0
  3  4  1  0
  4  5  2  0
  5  6  1  0
  6  7  1  0
  7  8  1  0
  8  9  1  0
  9 10  2  0
 10 11  1  0
 11 12  1  0
 12 13  1  0
 13 14  1  0
 14 15  1  0
 15 16  1  0
 16 17  1  0
 16 18  1  0
 15 19  1  0
 15 20  1  0
 13 21  1  0
 13 22  1  0
 12 23  1  0
 11 24  2  0
 24 25  1  0
 25 26  1  0
 26 27  2  0
 27 28  1  0
 28 29  2  0
 29 30  1  0
 30 31  2  0
 31 32  1  0
 29 33  1  0
 28 34  1  0
 27 35  1  0
  8 36  1  0
  8 37  1  0
  6 38  2  0
 38 39  1  0
  5 40  1  0
  4 41  1  0
  3 42  1  0
 38  2  1  0
 25  9  1  0
 31 26  1  0
 14 12  1  0
 16 14  1  0
M  END
>  <cnnaffinity>  (1) 
-6.03289

>  <filename>  (1) 
Fc1cccc(OCc2nc(C3CC34CC4)nn2-c2cccnc2)c1

$$$$
