
     RDKit          3D

 47 51  0  0  0  0  0  0  0  0999 V2000
   14.4013   -1.8103   21.3191 F   0  0  0  0  0  0  0  0  0  0  0  0
   13.6142   -0.8492   21.8198 C   0  0  0  0  0  0  0  0  0  0  0  0
   14.2078    0.1934   22.5244 C   0  0  0  0  0  0  0  0  0  0  0  0
   13.4030    1.1652   23.1165 C   0  0  0  0  0  0  0  0  0  0  0  0
   12.0318    1.1434   22.8989 C   0  0  0  0  0  0  0  0  0  0  0  0
   11.4455    0.1267   22.1115 C   0  0  0  0  0  0  0  0  0  0  0  0
    9.9890    0.2128   21.9018 C   0  0  0  0  0  0  0  0  0  0  0  0
    9.1907   -0.7360   21.4393 N   0  0  0  0  0  0  0  0  0  0  0  0
    7.9583   -0.2094   21.6434 N   0  0  0  0  0  0  0  0  0  0  0  0
    6.7360   -0.8433   21.1699 C   0  0  0  0  0  0  0  0  0  0  0  0
    6.1833   -0.1037   19.9679 C   0  0  0  0  0  0  0  0  0  0  0  0
    4.9957    0.6373   19.9795 C   0  0  0  0  0  0  0  0  0  0  0  0
    4.6620    1.3882   18.8469 C   0  0  0  0  0  0  0  0  0  0  0  0
    5.5110    1.3521   17.7388 C   0  0  0  0  0  0  0  0  0  0  0  0
    6.6427    0.6318   17.6986 N   0  0  0  0  0  0  0  0  0  0  0  0
    6.9643   -0.0561   18.7988 C   0  0  0  0  0  0  0  0  0  0  0  0
    7.9035   -0.6076   18.7581 H   0  0  0  0  0  0  0  0  0  0  0  0
    5.2770    1.9242   16.8432 H   0  0  0  0  0  0  0  0  0  0  0  0
    3.7698    2.0043   18.8175 H   0  0  0  0  0  0  0  0  0  0  0  0
    4.3409    0.6435   20.8546 H   0  0  0  0  0  0  0  0  0  0  0  0
    7.0013   -1.8802   20.9383 H   0  0  0  0  0  0  0  0  0  0  0  0
    6.0246   -0.8441   22.0072 H   0  0  0  0  0  0  0  0  0  0  0  0
    8.0768    1.0279   22.1586 C   0  0  0  0  0  0  0  0  0  0  0  0
    6.9815    1.7548   22.8582 C   0  0  0  0  0  0  0  0  0  0  0  0
    6.8840    1.2366   24.2196 N   0  0  0  0  0  0  0  0  0  0  0  0
    7.7659    1.4580   25.2221 C   0  0  0  0  0  0  0  0  0  0  0  0
    7.4511    0.5845   26.2352 C   0  0  0  0  0  0  0  0  0  0  0  0
    6.3461   -0.1484   25.7414 C   0  0  0  0  0  0  0  0  0  0  0  0
    5.5622   -1.2180   26.3858 C   0  0  0  0  0  0  0  0  0  0  0  0
    6.2322   -2.3464   27.1381 C   0  0  0  0  0  0  0  0  0  0  0  0
    5.4348   -1.3279   27.8880 C   0  0  0  0  0  0  0  0  0  0  0  0
    4.4696   -1.6213   28.2879 H   0  0  0  0  0  0  0  0  0  0  0  0
    5.9713   -0.6090   28.5043 H   0  0  0  0  0  0  0  0  0  0  0  0
    5.8338   -3.3479   27.0155 H   0  0  0  0  0  0  0  0  0  0  0  0
    7.3153   -2.3173   27.2280 H   0  0  0  0  0  0  0  0  0  0  0  0
    4.6705   -1.4614   25.8125 H   0  0  0  0  0  0  0  0  0  0  0  0
    6.0393    0.2435   24.5051 N   0  0  0  0  0  0  0  0  0  0  0  0
    7.9633    0.4336   27.1770 H   0  0  0  0  0  0  0  0  0  0  0  0
    8.5450    2.1978   25.0838 H   0  0  0  0  0  0  0  0  0  0  0  0
    7.2259    2.8182   22.8957 H   0  0  0  0  0  0  0  0  0  0  0  0
    6.0249    1.6084   22.3617 H   0  0  0  0  0  0  0  0  0  0  0  0
    9.3377    1.3415   22.3034 N   0  0  0  0  0  0  0  0  0  0  0  0
   12.2413   -0.9190   21.6029 C   0  0  0  0  0  0  0  0  0  0  0  0
   11.8479   -1.7553   21.0297 H   0  0  0  0  0  0  0  0  0  0  0  0
   11.3968    1.9207   23.3175 H   0  0  0  0  0  0  0  0  0  0  0  0
   13.8501    1.9683   23.6971 H   0  0  0  0  0  0  0  0  0  0  0  0
   15.2779    0.2526   22.5509 H   0  0  0  0  0  0  0  0  0  0  0  0
  1  2  1  0
  2  3  2  0
  3  4  1  0
  4  5  2  0
  5  6  1  0
  6  7  1  0
  7  8  2  0
  8  9  1  0
  9 10  1  0
 10 11  1  0
 11 12  2  0
 12 13  1  0
 13 14  2  0
 14 15  1  0
 15 16  2  0
 16 17  1  0
 14 18  1  0
 13 19  1  0
 12 20  1  0
 10 21  1  0
 10 22  1  0
  9 23  1  0
 23 24  1  0
 24 25  1  0
 25 26  1  0
 26 27  2  0
 27 28  1  0
 28 29  1  0
 29 30  1  0
 30 31  1  0
 31 32  1  0
 31 33  1  0
 30 34  1  0
 30 35  1  0
 29 36  1  0
 28 37  2  0
 27 38  1  0
 26 39  1  0
 24 40  1  0
 24 41  1  0
 23 42  2  0
  6 43  2  0
 43 44  1  0
  5 45  1  0
  4 46  1  0
  3 47  1  0
 43  2  1  0
 42  7  1  0
 16 11  1  0
 37 25  1  0
 31 29  1  0
M  END
>  <cnnaffinity>  (1) 
-6.72469

>  <filename>  (1) 
Fc1cccc(-c2nc(Cn3ccc(C4CC4)n3)n(Cc3cccnc3)n2)c1

$$$$
