
     RDKit          3D

 47 50  0  0  0  0  0  0  0  0999 V2000
    6.6471    6.0180   21.2435 F   0  0  0  0  0  0  0  0  0  0  0  0
    6.7768    4.8292   21.8316 C   0  0  0  0  0  0  0  0  0  0  0  0
    8.0616    4.3823   22.1435 C   0  0  0  0  0  0  0  0  0  0  0  0
    8.2010    3.1545   22.7836 C   0  0  0  0  0  0  0  0  0  0  0  0
    7.0288    2.4358   23.0722 C   0  0  0  0  0  0  0  0  0  0  0  0
    7.0005    1.2439   23.8323 N   0  0  0  0  0  0  0  0  0  0  0  0
    6.0596    1.1334   24.8020 N   0  0  0  0  0  0  0  0  0  0  0  0
    6.4267    0.0613   25.4669 C   0  0  0  0  0  0  0  0  0  0  0  0
    5.6603   -0.4099   26.6656 C   0  0  0  0  0  0  0  0  0  0  0  0
    6.5343   -0.4447   27.9432 C   0  0  0  0  0  0  0  0  0  0  0  0
    5.7718   -1.0320   29.1102 C   0  0  0  0  0  0  0  0  0  0  0  0
    4.7801   -1.9092   28.9677 C   0  0  0  0  0  0  0  0  0  0  0  0
    4.1784   -2.2742   27.6305 C   0  0  0  0  0  0  0  0  0  0  0  0
    5.0302   -1.8074   26.4331 C   0  0  0  0  0  0  0  0  0  0  0  0
    4.4256   -1.8042   25.5184 H   0  0  0  0  0  0  0  0  0  0  0  0
    5.8496   -2.5172   26.2534 H   0  0  0  0  0  0  0  0  0  0  0  0
    3.1683   -1.8437   27.5701 H   0  0  0  0  0  0  0  0  0  0  0  0
    4.0167   -3.3575   27.5726 H   0  0  0  0  0  0  0  0  0  0  0  0
    4.3407   -2.3838   29.8480 H   0  0  0  0  0  0  0  0  0  0  0  0
    6.0666   -0.7264   30.1135 H   0  0  0  0  0  0  0  0  0  0  0  0
    6.9313    0.5480   28.1976 H   0  0  0  0  0  0  0  0  0  0  0  0
    7.4122   -1.0717   27.7304 H   0  0  0  0  0  0  0  0  0  0  0  0
    4.8620    0.3329   26.8015 H   0  0  0  0  0  0  0  0  0  0  0  0
    7.5246   -0.5715   24.9575 N   0  0  0  0  0  0  0  0  0  0  0  0
    7.8380    0.1726   23.9070 C   0  0  0  0  0  0  0  0  0  0  0  0
    8.8472   -0.1330   22.8291 C   0  0  0  0  0  0  0  0  0  0  0  0
    8.3954    0.1623   21.5170 O   0  0  0  0  0  0  0  0  0  0  0  0
    7.3934   -0.7098   20.9906 C   0  0  0  0  0  0  0  0  0  0  0  0
    6.6537    0.0206   19.8973 C   0  0  0  0  0  0  0  0  0  0  0  0
    5.4347    0.6742   20.1206 C   0  0  0  0  0  0  0  0  0  0  0  0
    4.8310    1.3563   19.0604 C   0  0  0  0  0  0  0  0  0  0  0  0
    5.4670    1.3447   17.8142 C   0  0  0  0  0  0  0  0  0  0  0  0
    6.6314    0.7210   17.5776 N   0  0  0  0  0  0  0  0  0  0  0  0
    7.2044    0.0892   18.6103 C   0  0  0  0  0  0  0  0  0  0  0  0
    8.1503   -0.4104   18.3951 H   0  0  0  0  0  0  0  0  0  0  0  0
    5.0180    1.8513   16.9623 H   0  0  0  0  0  0  0  0  0  0  0  0
    3.8918    1.8869   19.1843 H   0  0  0  0  0  0  0  0  0  0  0  0
    4.9630    0.6350   21.1065 H   0  0  0  0  0  0  0  0  0  0  0  0
    7.8709   -1.6243   20.5986 H   0  0  0  0  0  0  0  0  0  0  0  0
    6.6881   -1.0148   21.7810 H   0  0  0  0  0  0  0  0  0  0  0  0
    9.7368    0.4881   22.9719 H   0  0  0  0  0  0  0  0  0  0  0  0
    9.1605   -1.1825   22.9350 H   0  0  0  0  0  0  0  0  0  0  0  0
    5.7922    3.0026   22.7210 C   0  0  0  0  0  0  0  0  0  0  0  0
    5.6658    4.1853   22.1153 N   0  0  0  0  0  0  0  0  0  0  0  0
    4.8631    2.4878   22.9533 H   0  0  0  0  0  0  0  0  0  0  0  0
    9.1890    2.8094   23.0941 H   0  0  0  0  0  0  0  0  0  0  0  0
    8.9089    5.0068   21.9090 H   0  0  0  0  0  0  0  0  0  0  0  0
  1  2  1  0
  2  3  2  0
  3  4  1  0
  4  5  2  0
  5  6  1  0
  6  7  1  0
  7  8  2  0
  8  9  1  0
  9 10  1  0
 10 11  1  0
 11 12  2  0
 12 13  1  0
 13 14  1  0
 14 15  1  0
 14 16  1  0
 13 17  1  0
 13 18  1  0
 12 19  1  0
 11 20  1  0
 10 21  1  0
 10 22  1  0
  9 23  1  0
  8 24  1  0
 24 25  2  0
 25 26  1  0
 26 27  1  0
 27 28  1  0
 28 29  1  0
 29 30  2  0
 30 31  1  0
 31 32  2  0
 32 33  1  0
 33 34  2  0
 34 35  1  0
 32 36  1  0
 31 37  1  0
 30 38  1  0
 28 39  1  0
 28 40  1  0
 26 41  1  0
 26 42  1  0
  5 43  1  0
 43 44  2  0
 43 45  1  0
  4 46  1  0
  3 47  1  0
 44  2  1  0
 25  6  1  0
 34 29  1  0
 14  9  1  0
M  END
>  <cnnaffinity>  (1) 
-6.36361

>  <filename>  (1) 
Fc1ccc(-n2nc(C3CC=CCC3)nc2COCc2cccnc2)cn1

$$$$
