
     RDKit          3D

 48 51  0  0  0  0  0  0  0  0999 V2000
    5.9249    0.6937   26.9836 F   0  0  0  0  0  0  0  0  0  0  0  0
    6.7630    1.0129   25.9809 C   0  0  0  0  0  0  0  0  0  0  0  0
    8.1159    1.1892   26.2574 C   0  0  0  0  0  0  0  0  0  0  0  0
    8.9800    1.4980   25.2063 C   0  0  0  0  0  0  0  0  0  0  0  0
    8.5001    1.6440   23.8886 C   0  0  0  0  0  0  0  0  0  0  0  0
    9.4415    1.9813   22.9581 O   0  0  0  0  0  0  0  0  0  0  0  0
    9.2106    1.9286   21.5555 C   0  0  0  0  0  0  0  0  0  0  0  0
    9.5463    0.5545   20.9617 C   0  0  0  0  0  0  0  0  0  0  0  0
    8.6251   -0.5175   21.4161 C   0  0  0  0  0  0  0  0  0  0  0  0
    8.8492   -1.3731   22.3864 N   0  0  0  0  0  0  0  0  0  0  0  0
    7.6559   -2.0165   22.5175 C   0  0  0  0  0  0  0  0  0  0  0  0
    7.4281   -3.0355   23.5966 C   0  0  0  0  0  0  0  0  0  0  0  0
    8.5818   -4.0646   23.6847 C   0  0  0  0  0  0  0  0  0  0  0  0
    8.3816   -4.9951   24.8817 C   0  0  0  0  0  0  0  0  0  0  0  0
    8.2465   -4.2706   26.0921 O   0  0  0  0  0  0  0  0  0  0  0  0
    7.1200   -3.4121   26.0847 C   0  0  0  0  0  0  0  0  0  0  0  0
    7.2116   -2.3626   24.9782 C   0  0  0  0  0  0  0  0  0  0  0  0
    6.3007   -1.7492   24.9732 H   0  0  0  0  0  0  0  0  0  0  0  0
    8.0541   -1.6939   25.1931 H   0  0  0  0  0  0  0  0  0  0  0  0
    6.2016   -4.0110   25.9525 H   0  0  0  0  0  0  0  0  0  0  0  0
    7.0798   -2.9500   27.0745 H   0  0  0  0  0  0  0  0  0  0  0  0
    9.2353   -5.6638   25.0185 H   0  0  0  0  0  0  0  0  0  0  0  0
    7.4843   -5.6196   24.7231 H   0  0  0  0  0  0  0  0  0  0  0  0
    8.6503   -4.6521   22.7613 H   0  0  0  0  0  0  0  0  0  0  0  0
    9.5347   -3.5345   23.8010 H   0  0  0  0  0  0  0  0  0  0  0  0
    6.5031   -3.5507   23.3140 H   0  0  0  0  0  0  0  0  0  0  0  0
    6.7246   -1.6326   21.6673 N   0  0  0  0  0  0  0  0  0  0  0  0
    7.3549   -0.6767   20.9342 N   0  0  0  0  0  0  0  0  0  0  0  0
    6.6600    0.0113   19.9026 C   0  0  0  0  0  0  0  0  0  0  0  0
    5.4427    0.6463   20.1666 C   0  0  0  0  0  0  0  0  0  0  0  0
    4.8128    1.3109   19.1091 C   0  0  0  0  0  0  0  0  0  0  0  0
    5.3991    1.2982   17.8370 C   0  0  0  0  0  0  0  0  0  0  0  0
    6.5555    0.6711   17.5739 N   0  0  0  0  0  0  0  0  0  0  0  0
    7.1643    0.0508   18.5900 C   0  0  0  0  0  0  0  0  0  0  0  0
    8.1079   -0.4369   18.3624 H   0  0  0  0  0  0  0  0  0  0  0  0
    4.9234    1.7898   16.9914 H   0  0  0  0  0  0  0  0  0  0  0  0
    3.8805    1.8380   19.2608 H   0  0  0  0  0  0  0  0  0  0  0  0
    5.0172    0.6031   21.1747 H   0  0  0  0  0  0  0  0  0  0  0  0
   10.5598    0.2790   21.2560 H   0  0  0  0  0  0  0  0  0  0  0  0
    9.5264    0.6134   19.8707 H   0  0  0  0  0  0  0  0  0  0  0  0
    8.1924    2.2464   21.2837 H   0  0  0  0  0  0  0  0  0  0  0  0
    9.9019    2.6695   21.1507 H   0  0  0  0  0  0  0  0  0  0  0  0
    7.1303    1.4701   23.6404 C   0  0  0  0  0  0  0  0  0  0  0  0
    6.2572    1.1469   24.6906 C   0  0  0  0  0  0  0  0  0  0  0  0
    5.1948    0.9755   24.5349 H   0  0  0  0  0  0  0  0  0  0  0  0
    6.7416    1.5606   22.6292 H   0  0  0  0  0  0  0  0  0  0  0  0
   10.0383    1.6456   25.3886 H   0  0  0  0  0  0  0  0  0  0  0  0
    8.4602    1.0737   27.2825 H   0  0  0  0  0  0  0  0  0  0  0  0
  1  2  1  0
  2  3  2  0
  3  4  1  0
  4  5  2  0
  5  6  1  0
  6  7  1  0
  7  8  1  0
  8  9  1  0
  9 10  2  0
 10 11  1  0
 11 12  1  0
 12 13  1  0
 13 14  1  0
 14 15  1  0
 15 16  1  0
 16 17  1  0
 17 18  1  0
 17 19  1  0
 16 20  1  0
 16 21  1  0
 14 22  1  0
 14 23  1  0
 13 24  1  0
 13 25  1  0
 12 26  1  0
 11 27  2  0
 27 28  1  0
 28 29  1  0
 29 30  2  0
 30 31  1  0
 31 32  2  0
 32 33  1  0
 33 34  2  0
 34 35  1  0
 32 36  1  0
 31 37  1  0
 30 38  1  0
  8 39  1  0
  8 40  1  0
  7 41  1  0
  7 42  1  0
  5 43  1  0
 43 44  2  0
 44 45  1  0
 43 46  1  0
  4 47  1  0
  3 48  1  0
 44  2  1  0
 28  9  1  0
 34 29  1  0
 17 12  1  0
M  END
>  <cnnaffinity>  (1) 
-5.93061

>  <filename>  (1) 
Fc1ccc(OCCc2nc(C3CCOCC3)nn2-c2cccnc2)cc1

$$$$
