
     RDKit          3D

 39 42  0  0  0  0  0  0  0  0999 V2000
   14.0992    0.7456   23.8622 F   0  0  0  0  0  0  0  0  0  0  0  0
   13.2548    0.2835   22.9302 C   0  0  0  0  0  0  0  0  0  0  0  0
   13.5501   -0.9053   22.2641 C   0  0  0  0  0  0  0  0  0  0  0  0
   12.5960   -1.4419   21.3934 C   0  0  0  0  0  0  0  0  0  0  0  0
   11.3870   -0.7713   21.1731 C   0  0  0  0  0  0  0  0  0  0  0  0
   11.1549    0.5015   21.7190 C   0  0  0  0  0  0  0  0  0  0  0  0
    9.9347    1.3364   21.3550 C   0  0  0  0  0  0  0  0  0  0  0  0
    8.8035    1.2297   22.3230 C   0  0  0  0  0  0  0  0  0  0  0  0
    8.7302    1.9319   23.4316 N   0  0  0  0  0  0  0  0  0  0  0  0
    7.5710    1.5072   24.0005 C   0  0  0  0  0  0  0  0  0  0  0  0
    7.0775    1.9873   25.3100 C   0  0  0  0  0  0  0  0  0  0  0  0
    7.6417    2.9242   26.0332 N   0  0  0  0  0  0  0  0  0  0  0  0
    6.9405    3.0511   27.1954 N   0  0  0  0  0  0  0  0  0  0  0  0
    5.9596    2.1897   27.1642 C   0  0  0  0  0  0  0  0  0  0  0  0
    5.9835    1.4971   25.9965 N   0  0  0  0  0  0  0  0  0  0  0  0
    5.3733    0.7527   25.7051 H   0  0  0  0  0  0  0  0  0  0  0  0
    5.2408    2.0324   27.9564 H   0  0  0  0  0  0  0  0  0  0  0  0
    6.9295    0.5891   23.2911 N   0  0  0  0  0  0  0  0  0  0  0  0
    7.7314    0.4056   22.2215 N   0  0  0  0  0  0  0  0  0  0  0  0
    7.3568   -0.5438   21.1784 C   0  0  0  0  0  0  0  0  0  0  0  0
    6.6735    0.0889   19.9796 C   0  0  0  0  0  0  0  0  0  0  0  0
    5.4531    0.7546   20.1475 C   0  0  0  0  0  0  0  0  0  0  0  0
    4.8595    1.3506   19.0331 C   0  0  0  0  0  0  0  0  0  0  0  0
    5.4988    1.2627   17.7934 C   0  0  0  0  0  0  0  0  0  0  0  0
    6.6573    0.6120   17.6082 N   0  0  0  0  0  0  0  0  0  0  0  0
    7.2159    0.0445   18.6854 C   0  0  0  0  0  0  0  0  0  0  0  0
    8.1553   -0.4783   18.4993 H   0  0  0  0  0  0  0  0  0  0  0  0
    5.0609    1.7297   16.9114 H   0  0  0  0  0  0  0  0  0  0  0  0
    3.9250    1.8933   19.1118 H   0  0  0  0  0  0  0  0  0  0  0  0
    4.9952    0.8114   21.1381 H   0  0  0  0  0  0  0  0  0  0  0  0
    8.2480   -1.0997   20.8702 H   0  0  0  0  0  0  0  0  0  0  0  0
    6.6847   -1.2514   21.6752 H   0  0  0  0  0  0  0  0  0  0  0  0
    9.5826    1.0728   20.3551 H   0  0  0  0  0  0  0  0  0  0  0  0
   10.2188    2.3959   21.3478 H   0  0  0  0  0  0  0  0  0  0  0  0
   12.0928    1.0040   22.6276 C   0  0  0  0  0  0  0  0  0  0  0  0
   11.9053    2.2072   23.1969 F   0  0  0  0  0  0  0  0  0  0  0  0
   10.6004   -1.2200   20.5723 H   0  0  0  0  0  0  0  0  0  0  0  0
   12.8150   -2.3764   20.8835 H   0  0  0  0  0  0  0  0  0  0  0  0
   14.5092   -1.3881   22.4332 H   0  0  0  0  0  0  0  0  0  0  0  0
  1  2  1  0
  2  3  2  0
  3  4  1  0
  4  5  2  0
  5  6  1  0
  6  7  1  0
  7  8  1  0
  8  9  2  0
  9 10  1  0
 10 11  1  0
 11 12  2  0
 12 13  1  0
 13 14  2  0
 14 15  1  0
 15 16  1  0
 14 17  1  0
 10 18  2  0
 18 19  1  0
 19 20  1  0
 20 21  1  0
 21 22  2  0
 22 23  1  0
 23 24  2  0
 24 25  1  0
 25 26  2  0
 26 27  1  0
 24 28  1  0
 23 29  1  0
 22 30  1  0
 20 31  1  0
 20 32  1  0
  7 33  1  0
  7 34  1  0
  6 35  2  0
 35 36  1  0
  5 37  1  0
  4 38  1  0
  3 39  1  0
 35  2  1  0
 19  8  1  0
 26 21  1  0
 15 11  1  0
M  END
>  <cnnaffinity>  (1) 
-6.25696

>  <filename>  (1) 
Fc1cccc(Cc2nc(-c3nnc[nH]3)nn2Cc2cccnc2)c1F

$$$$
