
     RDKit          3D

 43 46  0  0  0  0  0  0  0  0999 V2000
    1.7748   -6.5062   24.8177 F   0  0  0  0  0  0  0  0  0  0  0  0
    2.5288   -5.4056   24.9762 C   0  0  0  0  0  0  0  0  0  0  0  0
    2.4418   -4.7016   26.1738 C   0  0  0  0  0  0  0  0  0  0  0  0
    3.2334   -3.5595   26.3359 C   0  0  0  0  0  0  0  0  0  0  0  0
    4.0816   -3.1268   25.3148 C   0  0  0  0  0  0  0  0  0  0  0  0
    4.1445   -3.8407   24.0999 C   0  0  0  0  0  0  0  0  0  0  0  0
    4.9873   -3.3113   22.9657 C   0  0  0  0  0  0  0  0  0  0  0  0
    5.9508   -2.4037   23.1807 N   0  0  0  0  0  0  0  0  0  0  0  0
    6.1754   -1.8843   21.9593 N   0  0  0  0  0  0  0  0  0  0  0  0
    6.7840   -0.5782   21.7582 C   0  0  0  0  0  0  0  0  0  0  0  0
    6.4401    0.0745   20.4237 C   0  0  0  0  0  0  0  0  0  0  0  0
    5.2832    0.8545   20.2829 C   0  0  0  0  0  0  0  0  0  0  0  0
    4.9998    1.4291   19.0404 C   0  0  0  0  0  0  0  0  0  0  0  0
    5.8683    1.1888   17.9741 C   0  0  0  0  0  0  0  0  0  0  0  0
    6.9732    0.4378   18.0798 N   0  0  0  0  0  0  0  0  0  0  0  0
    7.2447   -0.0916   19.2818 C   0  0  0  0  0  0  0  0  0  0  0  0
    8.1623   -0.6815   19.3388 H   0  0  0  0  0  0  0  0  0  0  0  0
    5.6761    1.6226   16.9927 H   0  0  0  0  0  0  0  0  0  0  0  0
    4.1291    2.0578   18.8891 H   0  0  0  0  0  0  0  0  0  0  0  0
    4.6179    1.0162   21.1336 H   0  0  0  0  0  0  0  0  0  0  0  0
    6.4204    0.0286   22.5958 H   0  0  0  0  0  0  0  0  0  0  0  0
    7.8762   -0.6537   21.8804 H   0  0  0  0  0  0  0  0  0  0  0  0
    5.7127   -2.8568   20.9638 C   0  0  0  0  0  0  0  0  0  0  0  0
    6.7685   -3.7974   20.5769 C   0  0  0  0  0  0  0  0  0  0  0  0
    7.9802   -3.9809   21.2920 C   0  0  0  0  0  0  0  0  0  0  0  0
    8.2163   -5.5403   21.8033 C   0  0  0  0  0  0  0  0  0  0  0  0
    8.3913   -5.7205   21.4142 C   0  0  0  0  0  0  0  0  0  0  0  0
    6.0224   -6.1630   22.2964 O   0  0  0  0  0  0  0  0  0  0  0  0
    6.6312   -5.8298   23.3251 C   0  0  0  0  0  0  0  0  0  0  0  0
    7.9079   -5.4169   23.3397 C   0  0  0  0  0  0  0  0  0  0  0  0
    8.5078   -5.0244   24.1631 H   0  0  0  0  0  0  0  0  0  0  0  0
    6.0658   -5.8967   24.2705 H   0  0  0  0  0  0  0  0  0  0  0  0
    9.0714   -6.0930   20.6045 H   0  0  0  0  0  0  0  0  0  0  0  0
    7.9271   -3.2763   22.1802 H   0  0  0  0  0  0  0  0  0  0  0  0
    8.8933   -3.5506   20.7314 H   0  0  0  0  0  0  0  0  0  0  0  0
    5.3199   -2.3866   19.9959 H   0  0  0  0  0  0  0  0  0  0  0  0
    6.4891   -4.4240   19.7500 H   0  0  0  0  0  0  0  0  0  0  0  0
    4.6970   -3.5955   21.7113 N   0  0  0  0  0  0  0  0  0  0  0  0
    3.3690   -5.0091   23.9365 C   0  0  0  0  0  0  0  0  0  0  0  0
    3.4112   -5.6106   23.0317 H   0  0  0  0  0  0  0  0  0  0  0  0
    4.6929   -2.2333   25.4398 H   0  0  0  0  0  0  0  0  0  0  0  0
    3.1882   -2.9984   27.2644 H   0  0  0  0  0  0  0  0  0  0  0  0
    1.7651   -5.0561   26.9447 H   0  0  0  0  0  0  0  0  0  0  0  0
  1  2  1  0
  2  3  2  0
  3  4  1  0
  4  5  2  0
  5  6  1  0
  6  7  1  0
  7  8  2  0
  8  9  1  0
  9 10  1  0
 10 11  1  0
 11 12  2  0
 12 13  1  0
 13 14  2  0
 14 15  1  0
 15 16  2  0
 16 17  1  0
 14 18  1  0
 13 19  1  0
 12 20  1  0
 10 21  1  0
 10 22  1  0
  9 23  1  0
 23 24  1  0
 24 25  1  0
 25 26  1  0
 26 27  2  0
 27 28  1  0
 28 29  1  0
 29 30  2  0
 30 31  1  0
 29 32  1  0
 27 33  1  0
 25 34  1  0
 25 35  1  0
 24 36  1  0
 24 37  1  0
 23 38  2  0
  6 39  2  0
 39 40  1  0
  5 41  1  0
  4 42  1  0
  3 43  1  0
 39  2  1  0
 38  7  1  0
 16 11  1  0
 30 26  1  0
M  END
>  <cnnaffinity>  (1) 
-5.81737

>  <filename>  (1) 
Fc1cccc(-c2nc(CCc3ccoc3)n(Cc3cccnc3)n2)c1

$$$$
