
     RDKit          3D

 45 48  0  0  0  0  0  0  0  0999 V2000
    7.3852    1.9352   24.8276 F   0  0  0  0  0  0  0  0  0  0  0  0
    7.9968    3.1200   24.6674 C   0  0  0  0  0  0  0  0  0  0  0  0
    8.3021    3.8527   25.8137 C   0  0  0  0  0  0  0  0  0  0  0  0
    8.9688    5.0738   25.6851 C   0  0  0  0  0  0  0  0  0  0  0  0
    9.3310    5.5512   24.4217 C   0  0  0  0  0  0  0  0  0  0  0  0
    9.0172    4.8058   23.2816 C   0  0  0  0  0  0  0  0  0  0  0  0
    8.3365    3.5823   23.3833 C   0  0  0  0  0  0  0  0  0  0  0  0
    8.0267    2.6104   21.9274 S   0  0  0  0  0  0  0  0  0  0  0  0
    9.6045    1.7012   21.9496 C   0  0  0  0  0  0  0  0  0  0  0  0
    9.5626    0.5363   20.9616 C   0  0  0  0  0  0  0  0  0  0  0  0
    8.6197   -0.5298   21.3922 C   0  0  0  0  0  0  0  0  0  0  0  0
    8.8655   -1.3818   22.3724 N   0  0  0  0  0  0  0  0  0  0  0  0
    7.6853   -2.0264   22.5143 C   0  0  0  0  0  0  0  0  0  0  0  0
    7.4310   -3.0300   23.5846 C   0  0  0  0  0  0  0  0  0  0  0  0
    6.4146   -2.5735   24.6603 C   0  0  0  0  0  0  0  0  0  0  0  0
    5.7865   -3.8864   25.1350 C   0  0  0  0  0  0  0  0  0  0  0  0
    6.0494   -4.8568   24.1317 O   0  0  0  0  0  0  0  0  0  0  0  0
    6.8066   -4.3328   23.0598 C   0  0  0  0  0  0  0  0  0  0  0  0
    6.1645   -4.1483   22.1824 H   0  0  0  0  0  0  0  0  0  0  0  0
    7.5578   -5.0833   22.7812 H   0  0  0  0  0  0  0  0  0  0  0  0
    6.2213   -4.2345   26.0824 H   0  0  0  0  0  0  0  0  0  0  0  0
    4.7005   -3.7975   25.2822 H   0  0  0  0  0  0  0  0  0  0  0  0
    6.8784   -2.0094   25.4742 H   0  0  0  0  0  0  0  0  0  0  0  0
    5.6585   -1.9274   24.2074 H   0  0  0  0  0  0  0  0  0  0  0  0
    8.3931   -3.2451   24.0532 H   0  0  0  0  0  0  0  0  0  0  0  0
    6.7365   -1.6478   21.6737 N   0  0  0  0  0  0  0  0  0  0  0  0
    7.3515   -0.6968   20.9264 N   0  0  0  0  0  0  0  0  0  0  0  0
    6.6507   -0.0026   19.8990 C   0  0  0  0  0  0  0  0  0  0  0  0
    5.4366    0.6364   20.1667 C   0  0  0  0  0  0  0  0  0  0  0  0
    4.8124    1.3095   19.1109 C   0  0  0  0  0  0  0  0  0  0  0  0
    5.3992    1.2953   17.8387 C   0  0  0  0  0  0  0  0  0  0  0  0
    6.5558    0.6691   17.5753 N   0  0  0  0  0  0  0  0  0  0  0  0
    7.1651    0.0481   18.5910 C   0  0  0  0  0  0  0  0  0  0  0  0
    8.1117   -0.4358   18.3609 H   0  0  0  0  0  0  0  0  0  0  0  0
    4.9216    1.7865   16.9942 H   0  0  0  0  0  0  0  0  0  0  0  0
    3.8814    1.8405   19.2607 H   0  0  0  0  0  0  0  0  0  0  0  0
    5.0133    0.6096   21.1758 H   0  0  0  0  0  0  0  0  0  0  0  0
   10.5549    0.0804   20.9065 H   0  0  0  0  0  0  0  0  0  0  0  0
    9.2978    0.9040   19.9726 H   0  0  0  0  0  0  0  0  0  0  0  0
    9.7644    1.3155   22.9615 H   0  0  0  0  0  0  0  0  0  0  0  0
   10.4081    2.4020   21.7088 H   0  0  0  0  0  0  0  0  0  0  0  0
    9.3064    5.1578   22.2942 H   0  0  0  0  0  0  0  0  0  0  0  0
    9.8489    6.4990   24.3174 H   0  0  0  0  0  0  0  0  0  0  0  0
    9.1990    5.6526   26.5746 H   0  0  0  0  0  0  0  0  0  0  0  0
    8.0059    3.4404   26.7740 H   0  0  0  0  0  0  0  0  0  0  0  0
  1  2  1  0
  2  3  2  0
  3  4  1  0
  4  5  2  0
  5  6  1  0
  6  7  2  0
  7  8  1  0
  8  9  1  0
  9 10  1  0
 10 11  1  0
 11 12  2  0
 12 13  1  0
 13 14  1  0
 14 15  1  0
 15 16  1  0
 16 17  1  0
 17 18  1  0
 18 19  1  0
 18 20  1  0
 16 21  1  0
 16 22  1  0
 15 23  1  0
 15 24  1  0
 14 25  1  0
 13 26  2  0
 26 27  1  0
 27 28  1  0
 28 29  2  0
 29 30  1  0
 30 31  2  0
 31 32  1  0
 32 33  2  0
 33 34  1  0
 31 35  1  0
 30 36  1  0
 29 37  1  0
 10 38  1  0
 10 39  1  0
  9 40  1  0
  9 41  1  0
  6 42  1  0
  5 43  1  0
  4 44  1  0
  3 45  1  0
  7  2  1  0
 27 11  1  0
 33 28  1  0
 18 14  1  0
M  END
>  <cnnaffinity>  (1) 
-6.0525

>  <filename>  (1) 
Fc1ccccc1SCCc1nc(C2CCOC2)nn1-c1cccnc1

$$$$
