
     RDKit          3D

 41 44  0  0  0  0  0  0  0  0999 V2000
    7.0166   -0.7179   27.7080 F   0  0  0  0  0  0  0  0  0  0  0  0
    7.1243   -0.1316   26.5057 C   0  0  0  0  0  0  0  0  0  0  0  0
    6.0549   -0.1533   25.6165 C   0  0  0  0  0  0  0  0  0  0  0  0
    6.2439    0.4819   24.3804 C   0  0  0  0  0  0  0  0  0  0  0  0
    7.4660    1.1041   24.0894 C   0  0  0  0  0  0  0  0  0  0  0  0
    7.7418    1.7624   22.7589 C   0  0  0  0  0  0  0  0  0  0  0  0
    8.7190    0.9163   22.0226 C   0  0  0  0  0  0  0  0  0  0  0  0
   10.0145    1.0465   22.1832 N   0  0  0  0  0  0  0  0  0  0  0  0
   10.4933   -0.1392   21.7597 C   0  0  0  0  0  0  0  0  0  0  0  0
   11.9036   -0.4458   21.9797 C   0  0  0  0  0  0  0  0  0  0  0  0
   12.5051   -1.5371   21.3694 C   0  0  0  0  0  0  0  0  0  0  0  0
   13.9606   -1.7641   21.4814 C   0  0  0  0  0  0  0  0  0  0  0  0
   14.4558   -0.7388   22.3969 C   0  0  0  0  0  0  0  0  0  0  0  0
   14.7921   -1.6331   19.8368 Cl  0  0  0  0  0  0  0  0  0  0  0  0
   14.0615    0.2121   23.0721 N   0  0  0  0  0  0  0  0  0  0  0  0
   12.6340    0.3714   22.8441 C   0  0  0  0  0  0  0  0  0  0  0  0
   12.1528    1.1666   23.4085 H   0  0  0  0  0  0  0  0  0  0  0  0
   14.1727   -2.7763   21.8651 H   0  0  0  0  0  0  0  0  0  0  0  0
   11.9573   -2.1875   20.7133 H   0  0  0  0  0  0  0  0  0  0  0  0
    9.5904   -0.9699   21.2805 N   0  0  0  0  0  0  0  0  0  0  0  0
    8.4382   -0.2696   21.4376 N   0  0  0  0  0  0  0  0  0  0  0  0
    7.1672   -0.8324   20.9853 C   0  0  0  0  0  0  0  0  0  0  0  0
    6.5203   -0.0350   19.8723 C   0  0  0  0  0  0  0  0  0  0  0  0
    5.3003    0.6350   20.0171 C   0  0  0  0  0  0  0  0  0  0  0  0
    4.8002    1.3635   18.9338 C   0  0  0  0  0  0  0  0  0  0  0  0
    5.5266    1.3735   17.7395 C   0  0  0  0  0  0  0  0  0  0  0  0
    6.6888    0.7223   17.5728 N   0  0  0  0  0  0  0  0  0  0  0  0
    7.1647    0.0469   18.6248 C   0  0  0  0  0  0  0  0  0  0  0  0
    8.1047   -0.4801   18.4635 H   0  0  0  0  0  0  0  0  0  0  0  0
    5.1559    1.9214   16.8754 H   0  0  0  0  0  0  0  0  0  0  0  0
    3.8714    1.9200   19.0028 H   0  0  0  0  0  0  0  0  0  0  0  0
    4.7427    0.5834   20.9565 H   0  0  0  0  0  0  0  0  0  0  0  0
    7.4075   -1.8448   20.6494 H   0  0  0  0  0  0  0  0  0  0  0  0
    6.4923   -0.9358   21.8443 H   0  0  0  0  0  0  0  0  0  0  0  0
    6.8307    1.9074   22.1767 H   0  0  0  0  0  0  0  0  0  0  0  0
    8.2309    2.7211   22.9324 H   0  0  0  0  0  0  0  0  0  0  0  0
    8.4835    1.1049   24.9644 N   0  0  0  0  0  0  0  0  0  0  0  0
    8.3211    0.5001   26.1467 C   0  0  0  0  0  0  0  0  0  0  0  0
    9.1601    0.5099   26.8404 H   0  0  0  0  0  0  0  0  0  0  0  0
    5.4504    0.5118   23.6426 H   0  0  0  0  0  0  0  0  0  0  0  0
    5.1242   -0.6439   25.8991 H   0  0  0  0  0  0  0  0  0  0  0  0
  1  2  1  0
  2  3  2  0
  3  4  1  0
  4  5  2  0
  5  6  1  0
  6  7  1  0
  7  8  2  0
  8  9  1  0
  9 10  1  0
 10 11  2  0
 11 12  1  0
 12 13  2  0
 13 14  1  0
 13 15  1  0
 15 16  2  0
 16 17  1  0
 12 18  1  0
 11 19  1  0
  9 20  2  0
 20 21  1  0
 21 22  1  0
 22 23  1  0
 23 24  2  0
 24 25  1  0
 25 26  2  0
 26 27  1  0
 27 28  2  0
 28 29  1  0
 26 30  1  0
 25 31  1  0
 24 32  1  0
 22 33  1  0
 22 34  1  0
  6 35  1  0
  6 36  1  0
  5 37  1  0
 37 38  2  0
 38 39  1  0
  4 40  1  0
  3 41  1  0
 38  2  1  0
 21  7  1  0
 28 23  1  0
 16 10  1  0
M  END
>  <cnnaffinity>  (1) 
-6.95632

>  <filename>  (1) 
Fc1ccc(Cc2nc(-c3ccc(Cl)nc3)nn2Cc2cccnc2)nc1

$$$$
