
     RDKit          3D

 39 42  0  0  0  0  0  0  0  0999 V2000
    4.6660    1.9308   27.7228 F   0  0  0  0  0  0  0  0  0  0  0  0
    5.7764    2.2249   27.0319 C   0  0  0  0  0  0  0  0  0  0  0  0
    6.6714    3.1720   27.5443 C   0  0  0  0  0  0  0  0  0  0  0  0
    7.7978    3.5134   26.9093 N   0  0  0  0  0  0  0  0  0  0  0  0
    8.0609    2.9328   25.7336 C   0  0  0  0  0  0  0  0  0  0  0  0
    7.2099    1.9838   25.1395 C   0  0  0  0  0  0  0  0  0  0  0  0
    7.6347    1.4398   23.8441 C   0  0  0  0  0  0  0  0  0  0  0  0
    7.0225    0.4692   23.1944 N   0  0  0  0  0  0  0  0  0  0  0  0
    7.8067    0.2866   22.0991 N   0  0  0  0  0  0  0  0  0  0  0  0
    7.3965   -0.6474   21.0525 C   0  0  0  0  0  0  0  0  0  0  0  0
    6.6879    0.0306   19.8980 C   0  0  0  0  0  0  0  0  0  0  0  0
    5.4733    0.6950   20.1211 C   0  0  0  0  0  0  0  0  0  0  0  0
    4.8516    1.3316   19.0452 C   0  0  0  0  0  0  0  0  0  0  0  0
    5.4650    1.2815   17.7896 C   0  0  0  0  0  0  0  0  0  0  0  0
    6.6168    0.6332   17.5544 N   0  0  0  0  0  0  0  0  0  0  0  0
    7.2012    0.0246   18.5945 C   0  0  0  0  0  0  0  0  0  0  0  0
    8.1293   -0.5117   18.3750 H   0  0  0  0  0  0  0  0  0  0  0  0
    5.0085    1.7696   16.9291 H   0  0  0  0  0  0  0  0  0  0  0  0
    3.9152    1.8685   19.1656 H   0  0  0  0  0  0  0  0  0  0  0  0
    5.0416    0.7133   21.1244 H   0  0  0  0  0  0  0  0  0  0  0  0
    8.2712   -1.2072   20.6995 H   0  0  0  0  0  0  0  0  0  0  0  0
    6.7240   -1.3600   21.5397 H   0  0  0  0  0  0  0  0  0  0  0  0
    8.8321    1.1662   22.1388 C   0  0  0  0  0  0  0  0  0  0  0  0
    9.9755    1.2482   21.1823 C   0  0  0  0  0  0  0  0  0  0  0  0
   11.0986    0.3265   21.5527 C   0  0  0  0  0  0  0  0  0  0  0  0
   12.0363    0.3076   22.5304 C   0  0  0  0  0  0  0  0  0  0  0  0
   12.8643   -0.8390   22.2692 C   0  0  0  0  0  0  0  0  0  0  0  0
   12.3171   -1.4562   21.1949 C   0  0  0  0  0  0  0  0  0  0  0  0
   11.2376   -0.7581   20.7624 O   0  0  0  0  0  0  0  0  0  0  0  0
   12.5761   -2.3253   20.6100 H   0  0  0  0  0  0  0  0  0  0  0  0
   13.7432   -1.1572   22.8002 H   0  0  0  0  0  0  0  0  0  0  0  0
   12.1302    0.9942   23.3591 H   0  0  0  0  0  0  0  0  0  0  0  0
    9.6419    1.0177   20.1701 H   0  0  0  0  0  0  0  0  0  0  0  0
   10.3234    2.2829   21.2250 H   0  0  0  0  0  0  0  0  0  0  0  0
    8.7462    1.9106   23.2141 N   0  0  0  0  0  0  0  0  0  0  0  0
    6.0332    1.5993   25.8198 C   0  0  0  0  0  0  0  0  0  0  0  0
    5.3461    0.8367   25.4505 H   0  0  0  0  0  0  0  0  0  0  0  0
    8.9879    3.2273   25.2478 H   0  0  0  0  0  0  0  0  0  0  0  0
    6.4569    3.6629   28.4889 H   0  0  0  0  0  0  0  0  0  0  0  0
  1  2  1  0
  2  3  2  0
  3  4  1  0
  4  5  2  0
  5  6  1  0
  6  7  1  0
  7  8  2  0
  8  9  1  0
  9 10  1  0
 10 11  1  0
 11 12  2  0
 12 13  1  0
 13 14  2  0
 14 15  1  0
 15 16  2  0
 16 17  1  0
 14 18  1  0
 13 19  1  0
 12 20  1  0
 10 21  1  0
 10 22  1  0
  9 23  1  0
 23 24  1  0
 24 25  1  0
 25 26  2  0
 26 27  1  0
 27 28  2  0
 28 29  1  0
 28 30  1  0
 27 31  1  0
 26 32  1  0
 24 33  1  0
 24 34  1  0
 23 35  2  0
  6 36  2  0
 36 37  1  0
  5 38  1  0
  3 39  1  0
 36  2  1  0
 35  7  1  0
 16 11  1  0
 29 25  1  0
M  END
>  <cnnaffinity>  (1) 
-6.45916

>  <filename>  (1) 
Fc1cncc(-c2nc(Cc3ccco3)n(Cc3cccnc3)n2)c1

$$$$
