
     RDKit          3D

 31 33  0  0  0  0  0  0  0  0999 V2000
    4.9116    1.7964   16.9832 H   0  0  0  0  0  0  0  0  0  0  0  0
    5.3886    1.3039   17.8251 C   0  0  0  0  0  0  0  0  0  0  0  0
    6.5520    0.6885   17.5535 N   0  0  0  0  0  0  0  0  0  0  0  0
    7.1556    0.0604   18.5671 C   0  0  0  0  0  0  0  0  0  0  0  0
    8.1144   -0.4050   18.3409 H   0  0  0  0  0  0  0  0  0  0  0  0
    6.6498   -0.0006   19.8775 C   0  0  0  0  0  0  0  0  0  0  0  0
    7.3924   -0.6756   20.9477 C   0  0  0  0  0  0  0  0  0  0  0  0
    7.7926   -0.2068   22.1796 C   0  0  0  0  0  0  0  0  0  0  0  0
    7.5808    1.1686   22.7527 C   0  0  0  0  0  0  0  0  0  0  0  0
    7.5213    1.9101   21.9509 H   0  0  0  0  0  0  0  0  0  0  0  0
    8.4576    1.4389   23.3493 H   0  0  0  0  0  0  0  0  0  0  0  0
    6.3499    1.3079   23.6328 C   0  0  0  0  0  0  0  0  0  0  0  0
    6.2094    0.5010   24.7685 C   0  0  0  0  0  0  0  0  0  0  0  0
    6.9618   -0.2287   25.0473 H   0  0  0  0  0  0  0  0  0  0  0  0
    5.0735    0.6308   25.5595 C   0  0  0  0  0  0  0  0  0  0  0  0
    4.9473   -0.1441   26.6457 F   0  0  0  0  0  0  0  0  0  0  0  0
    4.0607    1.5418   25.2833 C   0  0  0  0  0  0  0  0  0  0  0  0
    3.1887    1.6312   25.9217 H   0  0  0  0  0  0  0  0  0  0  0  0
    4.2335    2.3402   24.1591 C   0  0  0  0  0  0  0  0  0  0  0  0
    3.2748    3.2289   23.8603 F   0  0  0  0  0  0  0  0  0  0  0  0
    5.3537    2.2471   23.3349 C   0  0  0  0  0  0  0  0  0  0  0  0
    5.4156    2.8813   22.4548 H   0  0  0  0  0  0  0  0  0  0  0  0
    8.4670   -1.3000   22.7616 C   0  0  0  0  0  0  0  0  0  0  0  0
    8.9402   -1.3352   23.7348 H   0  0  0  0  0  0  0  0  0  0  0  0
    8.5015   -2.3618   21.9690 N   0  0  0  0  0  0  0  0  0  0  0  0
    7.8526   -1.9480   20.8667 N   0  0  0  0  0  0  0  0  0  0  0  0
    7.7320   -2.5657   20.0775 H   0  0  0  0  0  0  0  0  0  0  0  0
    5.4384    0.6561   20.1418 C   0  0  0  0  0  0  0  0  0  0  0  0
    5.0235    0.6271   21.1524 H   0  0  0  0  0  0  0  0  0  0  0  0
    4.7975    1.3200   19.0929 C   0  0  0  0  0  0  0  0  0  0  0  0
    3.8661    1.8489   19.2499 H   0  0  0  0  0  0  0  0  0  0  0  0
  1  2  1  0
  2  3  2  0
  3  4  1  0
  4  5  1  0
  4  6  2  0
  6  7  1  0
  7  8  2  0
  8  9  1  0
  9 10  1  0
  9 11  1  0
  9 12  1  0
 12 13  2  0
 13 14  1  0
 13 15  1  0
 15 16  1  0
 15 17  2  0
 17 18  1  0
 17 19  1  0
 19 20  1  0
 19 21  2  0
 21 22  1  0
  8 23  1  0
 23 24  1  0
 23 25  2  0
 25 26  1  0
 26 27  1  0
  6 28  1  0
 28 29  1  0
 28 30  2  0
 30 31  1  0
 30  2  1  0
 26  7  1  0
 21 12  1  0
M  END
>  <cnnaffinity>  (1) 
-5.15988

>  <filename>  (1) 
Fc1cc(F)cc(Cc2cn[nH]c2-c2cccnc2)c1

$$$$
