
     RDKit          3D

 45 48  0  0  0  0  0  0  0  0999 V2000
    3.5025    3.9763   27.0711 F   0  0  0  0  0  0  0  0  0  0  0  0
    4.4694    3.3092   26.4158 C   0  0  0  0  0  0  0  0  0  0  0  0
    4.1161    2.2337   25.6039 C   0  0  0  0  0  0  0  0  0  0  0  0
    5.1268    1.5586   24.9117 C   0  0  0  0  0  0  0  0  0  0  0  0
    6.4731    1.9479   25.0174 C   0  0  0  0  0  0  0  0  0  0  0  0
    7.5302    1.2673   24.1840 C   0  0  0  0  0  0  0  0  0  0  0  0
    7.6585    1.8412   22.7431 C   0  0  0  0  0  0  0  0  0  0  0  0
    8.6567    1.0488   21.9678 C   0  0  0  0  0  0  0  0  0  0  0  0
    9.9658    1.1691   22.1079 N   0  0  0  0  0  0  0  0  0  0  0  0
   10.4368   -0.0136   21.6444 C   0  0  0  0  0  0  0  0  0  0  0  0
   11.8691   -0.4085   21.7277 C   0  0  0  0  0  0  0  0  0  0  0  0
   12.2704   -1.6585   21.2291 C   0  0  0  0  0  0  0  0  0  0  0  0
   13.6197   -2.0000   21.2368 C   0  0  0  0  0  0  0  0  0  0  0  0
   14.5531   -1.2257   21.7867 N   0  0  0  0  0  0  0  0  0  0  0  0
   14.1742   -0.0522   22.3015 C   0  0  0  0  0  0  0  0  0  0  0  0
   12.8629    0.4193   22.2831 C   0  0  0  0  0  0  0  0  0  0  0  0
   12.6574    1.4208   22.6497 H   0  0  0  0  0  0  0  0  0  0  0  0
   14.9624    0.5613   22.7212 H   0  0  0  0  0  0  0  0  0  0  0  0
   13.9838   -2.8955   20.7446 H   0  0  0  0  0  0  0  0  0  0  0  0
   11.5119   -2.3173   20.8413 H   0  0  0  0  0  0  0  0  0  0  0  0
    9.4959   -0.8339   21.1959 N   0  0  0  0  0  0  0  0  0  0  0  0
    8.3628   -0.1332   21.3831 N   0  0  0  0  0  0  0  0  0  0  0  0
    7.0737   -0.7069   21.0079 C   0  0  0  0  0  0  0  0  0  0  0  0
    6.3864    0.0275   19.8772 C   0  0  0  0  0  0  0  0  0  0  0  0
    5.1712    0.7047   20.0162 C   0  0  0  0  0  0  0  0  0  0  0  0
    4.6589    1.4063   18.9199 C   0  0  0  0  0  0  0  0  0  0  0  0
    5.3740    1.3884   17.7193 C   0  0  0  0  0  0  0  0  0  0  0  0
    6.5231    0.7145   17.5548 N   0  0  0  0  0  0  0  0  0  0  0  0
    7.0082    0.0657   18.6188 C   0  0  0  0  0  0  0  0  0  0  0  0
    7.9545   -0.4526   18.4729 H   0  0  0  0  0  0  0  0  0  0  0  0
    5.0121    1.9351   16.8495 H   0  0  0  0  0  0  0  0  0  0  0  0
    3.7426    1.9838   18.9861 H   0  0  0  0  0  0  0  0  0  0  0  0
    4.6404    0.7081   20.9707 H   0  0  0  0  0  0  0  0  0  0  0  0
    6.4294   -0.7471   21.8950 H   0  0  0  0  0  0  0  0  0  0  0  0
    7.2873   -1.7389   20.7200 H   0  0  0  0  0  0  0  0  0  0  0  0
    6.6872    1.8393   22.2378 H   0  0  0  0  0  0  0  0  0  0  0  0
    7.9970    2.8775   22.7845 H   0  0  0  0  0  0  0  0  0  0  0  0
    8.5111    1.3393   24.6742 H   0  0  0  0  0  0  0  0  0  0  0  0
    7.3097    0.1911   24.1130 H   0  0  0  0  0  0  0  0  0  0  0  0
    6.7912    3.0145   25.8765 C   0  0  0  0  0  0  0  0  0  0  0  0
    5.7946    3.7074   26.5754 C   0  0  0  0  0  0  0  0  0  0  0  0
    6.0197    4.5475   27.2259 H   0  0  0  0  0  0  0  0  0  0  0  0
    7.8310    3.3134   26.0008 H   0  0  0  0  0  0  0  0  0  0  0  0
    4.8661    0.7165   24.2712 H   0  0  0  0  0  0  0  0  0  0  0  0
    3.0705    1.9544   25.5229 H   0  0  0  0  0  0  0  0  0  0  0  0
  1  2  1  0
  2  3  2  0
  3  4  1  0
  4  5  2  0
  5  6  1  0
  6  7  1  0
  7  8  1  0
  8  9  2  0
  9 10  1  0
 10 11  1  0
 11 12  2  0
 12 13  1  0
 13 14  2  0
 14 15  1  0
 15 16  2  0
 16 17  1  0
 15 18  1  0
 13 19  1  0
 12 20  1  0
 10 21  2  0
 21 22  1  0
 22 23  1  0
 23 24  1  0
 24 25  2  0
 25 26  1  0
 26 27  2  0
 27 28  1  0
 28 29  2  0
 29 30  1  0
 27 31  1  0
 26 32  1  0
 25 33  1  0
 23 34  1  0
 23 35  1  0
  7 36  1  0
  7 37  1  0
  6 38  1  0
  6 39  1  0
  5 40  1  0
 40 41  2  0
 41 42  1  0
 40 43  1  0
  4 44  1  0
  3 45  1  0
 41  2  1  0
 22  8  1  0
 29 24  1  0
 16 11  1  0
M  END
>  <cnnaffinity>  (1) 
-6.50516

>  <filename>  (1) 
Fc1ccc(CCc2nc(-c3ccncc3)nn2Cc2cccnc2)cc1

$$$$
