
     RDKit          3D

 42 45  0  0  0  0  0  0  0  0999 V2000
    6.7716   -5.6694   26.6777 F   0  0  0  0  0  0  0  0  0  0  0  0
    6.9905   -4.7780   25.7008 C   0  0  0  0  0  0  0  0  0  0  0  0
    8.2271   -4.1379   25.6345 C   0  0  0  0  0  0  0  0  0  0  0  0
    8.4460   -3.2118   24.6159 C   0  0  0  0  0  0  0  0  0  0  0  0
    7.4384   -2.9273   23.6707 C   0  0  0  0  0  0  0  0  0  0  0  0
    7.6662   -1.9432   22.5871 C   0  0  0  0  0  0  0  0  0  0  0  0
    6.7392   -1.5928   21.7112 N   0  0  0  0  0  0  0  0  0  0  0  0
    7.3634   -0.6699   20.9420 N   0  0  0  0  0  0  0  0  0  0  0  0
    6.6606    0.0053   19.9022 C   0  0  0  0  0  0  0  0  0  0  0  0
    5.4423    0.6437   20.1660 C   0  0  0  0  0  0  0  0  0  0  0  0
    4.8127    1.3104   19.1104 C   0  0  0  0  0  0  0  0  0  0  0  0
    5.4016    1.2953   17.8390 C   0  0  0  0  0  0  0  0  0  0  0  0
    6.5623    0.6743   17.5789 N   0  0  0  0  0  0  0  0  0  0  0  0
    7.1705    0.0541   18.5943 C   0  0  0  0  0  0  0  0  0  0  0  0
    8.1155   -0.4350   18.3722 H   0  0  0  0  0  0  0  0  0  0  0  0
    4.9156    1.7826   16.9954 H   0  0  0  0  0  0  0  0  0  0  0  0
    3.8785    1.8402   19.2640 H   0  0  0  0  0  0  0  0  0  0  0  0
    5.0112    0.6116   21.1701 H   0  0  0  0  0  0  0  0  0  0  0  0
    8.6322   -0.4888   21.4146 C   0  0  0  0  0  0  0  0  0  0  0  0
    9.5201    0.6202   20.9503 C   0  0  0  0  0  0  0  0  0  0  0  0
    9.0508    2.0166   21.4339 C   0  0  0  0  0  0  0  0  0  0  0  0
    8.9429    2.0867   22.9395 C   0  0  0  0  0  0  0  0  0  0  0  0
    7.7189    1.8351   23.5830 C   0  0  0  0  0  0  0  0  0  0  0  0
    7.7011    1.8281   24.9712 C   0  0  0  0  0  0  0  0  0  0  0  0
    6.5501    1.6037   25.6219 F   0  0  0  0  0  0  0  0  0  0  0  0
    8.8771    2.0574   25.6902 C   0  0  0  0  0  0  0  0  0  0  0  0
   10.0538    2.2756   25.0896 N   0  0  0  0  0  0  0  0  0  0  0  0
   10.0760    2.2755   23.7492 C   0  0  0  0  0  0  0  0  0  0  0  0
   11.0470    2.4438   23.2905 H   0  0  0  0  0  0  0  0  0  0  0  0
    8.8526    2.0666   26.7761 H   0  0  0  0  0  0  0  0  0  0  0  0
    6.8099    1.6244   23.0221 H   0  0  0  0  0  0  0  0  0  0  0  0
    9.7544    2.7707   21.0675 H   0  0  0  0  0  0  0  0  0  0  0  0
    8.0801    2.2460   20.9779 H   0  0  0  0  0  0  0  0  0  0  0  0
    9.5869    0.6122   19.8588 H   0  0  0  0  0  0  0  0  0  0  0  0
   10.5202    0.4075   21.3350 H   0  0  0  0  0  0  0  0  0  0  0  0
    8.8571   -1.3009   22.4247 N   0  0  0  0  0  0  0  0  0  0  0  0
    6.2000   -3.5954   23.7725 C   0  0  0  0  0  0  0  0  0  0  0  0
    5.9722   -4.5226   24.7855 C   0  0  0  0  0  0  0  0  0  0  0  0
    5.0240   -5.0427   24.8785 H   0  0  0  0  0  0  0  0  0  0  0  0
    5.4137   -3.3778   23.0541 H   0  0  0  0  0  0  0  0  0  0  0  0
    9.4082   -2.7060   24.5599 H   0  0  0  0  0  0  0  0  0  0  0  0
    8.9887   -4.3719   26.3726 H   0  0  0  0  0  0  0  0  0  0  0  0
  1  2  1  0
  2  3  2  0
  3  4  1  0
  4  5  2  0
  5  6  1  0
  6  7  2  0
  7  8  1  0
  8  9  1  0
  9 10  2  0
 10 11  1  0
 11 12  2  0
 12 13  1  0
 13 14  2  0
 14 15  1  0
 12 16  1  0
 11 17  1  0
 10 18  1  0
  8 19  1  0
 19 20  1  0
 20 21  1  0
 21 22  1  0
 22 23  2  0
 23 24  1  0
 24 25  1  0
 24 26  2  0
 26 27  1  0
 27 28  2  0
 28 29  1  0
 26 30  1  0
 23 31  1  0
 21 32  1  0
 21 33  1  0
 20 34  1  0
 20 35  1  0
 19 36  2  0
  5 37  1  0
 37 38  2  0
 38 39  1  0
 37 40  1  0
  4 41  1  0
  3 42  1  0
 38  2  1  0
 36  6  1  0
 14  9  1  0
 28 22  1  0
M  END
>  <cnnaffinity>  (1) 
-6.07517

>  <filename>  (1) 
Fc1ccc(-c2nc(CCc3cncc(F)c3)n(-c3cccnc3)n2)cc1

$$$$
