
     RDKit          3D

 45 48  0  0  0  0  0  0  0  0999 V2000
   10.9490    1.5713   25.8029 F   0  0  0  0  0  0  0  0  0  0  0  0
   11.2250    1.2556   24.5375 C   0  0  0  0  0  0  0  0  0  0  0  0
   10.3264    1.6689   23.5658 C   0  0  0  0  0  0  0  0  0  0  0  0
   10.5187    1.2672   22.2436 C   0  0  0  0  0  0  0  0  0  0  0  0
    9.6746    1.5576   21.2192 O   0  0  0  0  0  0  0  0  0  0  0  0
    8.4531    2.2500   21.4725 C   0  0  0  0  0  0  0  0  0  0  0  0
    7.4635    1.5213   22.4173 C   0  0  0  0  0  0  0  0  0  0  0  0
    7.5182    0.0430   22.2014 C   0  0  0  0  0  0  0  0  0  0  0  0
    8.0372   -0.8562   23.0174 N   0  0  0  0  0  0  0  0  0  0  0  0
    8.2248   -1.9356   22.2068 C   0  0  0  0  0  0  0  0  0  0  0  0
    8.8983   -3.2382   22.6183 C   0  0  0  0  0  0  0  0  0  0  0  0
    8.3123   -3.9643   23.8717 C   0  0  0  0  0  0  0  0  0  0  0  0
    9.5675   -4.3116   24.6952 C   0  0  0  0  0  0  0  0  0  0  0  0
   10.5354   -3.2306   24.2493 C   0  0  0  0  0  0  0  0  0  0  0  0
   10.2971   -3.0794   22.8632 O   0  0  0  0  0  0  0  0  0  0  0  0
   10.3310   -2.2854   24.7775 H   0  0  0  0  0  0  0  0  0  0  0  0
   11.5835   -3.5039   24.3812 H   0  0  0  0  0  0  0  0  0  0  0  0
    9.4158   -4.2662   25.7777 H   0  0  0  0  0  0  0  0  0  0  0  0
    9.9660   -5.3025   24.4459 H   0  0  0  0  0  0  0  0  0  0  0  0
    7.7289   -4.8468   23.5726 H   0  0  0  0  0  0  0  0  0  0  0  0
    7.6661   -3.2754   24.4316 H   0  0  0  0  0  0  0  0  0  0  0  0
    8.7952   -3.8619   21.7278 H   0  0  0  0  0  0  0  0  0  0  0  0
    7.8012   -1.7679   20.9641 N   0  0  0  0  0  0  0  0  0  0  0  0
    7.3155   -0.5031   20.9725 N   0  0  0  0  0  0  0  0  0  0  0  0
    6.6443    0.0727   19.8602 C   0  0  0  0  0  0  0  0  0  0  0  0
    5.4523    0.7823   20.0550 C   0  0  0  0  0  0  0  0  0  0  0  0
    4.8568    1.3913   18.9517 C   0  0  0  0  0  0  0  0  0  0  0  0
    5.4711    1.2772   17.7020 C   0  0  0  0  0  0  0  0  0  0  0  0
    6.6036    0.5792   17.5041 N   0  0  0  0  0  0  0  0  0  0  0  0
    7.1707   -0.0193   18.5587 C   0  0  0  0  0  0  0  0  0  0  0  0
    8.0886   -0.5720   18.3621 H   0  0  0  0  0  0  0  0  0  0  0  0
    5.0355    1.7566   16.8291 H   0  0  0  0  0  0  0  0  0  0  0  0
    3.9389    1.9583   19.0592 H   0  0  0  0  0  0  0  0  0  0  0  0
    5.0105    0.8531   21.0498 H   0  0  0  0  0  0  0  0  0  0  0  0
    7.6776    1.6962   23.4733 H   0  0  0  0  0  0  0  0  0  0  0  0
    6.4697    1.9368   22.2357 H   0  0  0  0  0  0  0  0  0  0  0  0
    8.0156    2.3318   20.4780 H   0  0  0  0  0  0  0  0  0  0  0  0
    8.6574    3.2646   21.8397 H   0  0  0  0  0  0  0  0  0  0  0  0
   11.6344    0.4821   21.9183 C   0  0  0  0  0  0  0  0  0  0  0  0
   12.5706    0.1302   22.8923 C   0  0  0  0  0  0  0  0  0  0  0  0
   12.3706    0.5276   24.2187 C   0  0  0  0  0  0  0  0  0  0  0  0
   13.5181    0.1675   25.4531 Cl  0  0  0  0  0  0  0  0  0  0  0  0
   13.4512   -0.4614   22.6347 H   0  0  0  0  0  0  0  0  0  0  0  0
   11.7144    0.1430   20.8951 H   0  0  0  0  0  0  0  0  0  0  0  0
    9.4947    2.2769   23.8847 H   0  0  0  0  0  0  0  0  0  0  0  0
  1  2  1  0
  2  3  2  0
  3  4  1  0
  4  5  1  0
  5  6  1  0
  6  7  1  0
  7  8  1  0
  8  9  2  0
  9 10  1  0
 10 11  1  0
 11 12  1  0
 12 13  1  0
 13 14  1  0
 14 15  1  0
 14 16  1  0
 14 17  1  0
 13 18  1  0
 13 19  1  0
 12 20  1  0
 12 21  1  0
 11 22  1  0
 10 23  2  0
 23 24  1  0
 24 25  1  0
 25 26  2  0
 26 27  1  0
 27 28  2  0
 28 29  1  0
 29 30  2  0
 30 31  1  0
 28 32  1  0
 27 33  1  0
 26 34  1  0
  7 35  1  0
  7 36  1  0
  6 37  1  0
  6 38  1  0
  4 39  2  0
 39 40  1  0
 40 41  2  0
 41 42  1  0
 40 43  1  0
 39 44  1  0
  3 45  1  0
 41  2  1  0
 24  8  1  0
 30 25  1  0
 15 11  1  0
M  END
>  <cnnaffinity>  (1) 
-6.49152

>  <filename>  (1) 
Fc1cc(OCCc2nc(C3CCCO3)nn2-c2cccnc2)ccc1Cl

$$$$
