
     RDKit          3D

 31 33  0  0  0  0  0  0  0  0999 V2000
    6.6768   -1.3365   21.6248 H   0  0  0  0  0  0  0  0  0  0  0  0
    7.3260   -0.7230   20.9956 C   0  0  0  0  0  0  0  0  0  0  0  0
    8.6081   -0.5378   21.3471 C   0  0  0  0  0  0  0  0  0  0  0  0
    9.3596   -1.1583   22.4526 C   0  0  0  0  0  0  0  0  0  0  0  0
    8.8466   -2.3395   23.1823 C   0  0  0  0  0  0  0  0  0  0  0  0
    9.0798   -2.4292   24.5616 C   0  0  0  0  0  0  0  0  0  0  0  0
    9.5991   -1.6337   25.0856 H   0  0  0  0  0  0  0  0  0  0  0  0
    8.6896   -3.4687   25.3067 N   0  0  0  0  0  0  0  0  0  0  0  0
    8.0585   -4.4823   24.7003 C   0  0  0  0  0  0  0  0  0  0  0  0
    7.7493   -5.3296   25.3095 H   0  0  0  0  0  0  0  0  0  0  0  0
    7.7939   -4.4803   23.3265 C   0  0  0  0  0  0  0  0  0  0  0  0
    7.1610   -5.5199   22.7669 F   0  0  0  0  0  0  0  0  0  0  0  0
    8.1797   -3.4021   22.5411 C   0  0  0  0  0  0  0  0  0  0  0  0
    7.9819   -3.4100   21.4702 H   0  0  0  0  0  0  0  0  0  0  0  0
   10.4762   -0.5835   22.7196 N   0  0  0  0  0  0  0  0  0  0  0  0
   10.6963    0.5059   21.7573 C   0  0  0  0  0  0  0  0  0  0  0  0
   11.6646    0.3698   21.2706 H   0  0  0  0  0  0  0  0  0  0  0  0
   10.7382    1.4496   22.3084 H   0  0  0  0  0  0  0  0  0  0  0  0
    9.5133    0.5096   20.7558 C   0  0  0  0  0  0  0  0  0  0  0  0
    9.7577    0.1820   19.7461 H   0  0  0  0  0  0  0  0  0  0  0  0
    9.0291    1.4872   20.6591 H   0  0  0  0  0  0  0  0  0  0  0  0
    6.6438   -0.0157   19.8970 C   0  0  0  0  0  0  0  0  0  0  0  0
    7.1647    0.0653   18.5911 C   0  0  0  0  0  0  0  0  0  0  0  0
    8.1091   -0.4279   18.3737 H   0  0  0  0  0  0  0  0  0  0  0  0
    6.5631    0.6861   17.5685 N   0  0  0  0  0  0  0  0  0  0  0  0
    5.3994    1.2991   17.8345 C   0  0  0  0  0  0  0  0  0  0  0  0
    4.9143    1.7853   16.9924 H   0  0  0  0  0  0  0  0  0  0  0  0
    4.7996    1.3136   19.1013 C   0  0  0  0  0  0  0  0  0  0  0  0
    3.8692    1.8486   19.2556 H   0  0  0  0  0  0  0  0  0  0  0  0
    5.4225    0.6345   20.1471 C   0  0  0  0  0  0  0  0  0  0  0  0
    5.0065    0.6238   21.1587 H   0  0  0  0  0  0  0  0  0  0  0  0
  1  2  1  0
  2  3  2  3
  3  4  1  0
  4  5  1  0
  5  6  2  0
  6  7  1  0
  6  8  1  0
  8  9  2  0
  9 10  1  0
  9 11  1  0
 11 12  1  0
 11 13  2  0
 13 14  1  0
  4 15  2  0
 15 16  1  0
 16 17  1  0
 16 18  1  0
 16 19  1  0
 19 20  1  0
 19 21  1  0
  2 22  1  0
 22 23  2  0
 23 24  1  0
 23 25  1  0
 25 26  2  0
 26 27  1  0
 26 28  1  0
 28 29  1  0
 28 30  2  0
 30 31  1  0
 19  3  1  0
 30 22  1  0
 13  5  1  0
M  END
>  <cnnaffinity>  (1) 
-5.46642

>  <filename>  (1) 
Fc1cncc(C2=NCCC2=Cc2cccnc2)c1

$$$$
