
     RDKit          3D

 45 48  0  0  0  0  0  0  0  0999 V2000
    6.0492    4.7885   27.4307 F   0  0  0  0  0  0  0  0  0  0  0  0
    5.7306    3.7679   26.6198 C   0  0  0  0  0  0  0  0  0  0  0  0
    4.3953    3.3716   26.4843 C   0  0  0  0  0  0  0  0  0  0  0  0
    4.0230    2.3574   25.6911 N   0  0  0  0  0  0  0  0  0  0  0  0
    4.9829    1.7052   25.0193 C   0  0  0  0  0  0  0  0  0  0  0  0
    6.3457    2.0307   25.1030 C   0  0  0  0  0  0  0  0  0  0  0  0
    7.3636    1.2872   24.3041 C   0  0  0  0  0  0  0  0  0  0  0  0
    7.4970    1.7996   22.8525 C   0  0  0  0  0  0  0  0  0  0  0  0
    8.4732    0.9224   22.1607 C   0  0  0  0  0  0  0  0  0  0  0  0
    9.7761    0.9883   22.3587 N   0  0  0  0  0  0  0  0  0  0  0  0
   10.2268   -0.1704   21.8281 C   0  0  0  0  0  0  0  0  0  0  0  0
   11.6434   -0.5488   21.7296 C   0  0  0  0  0  0  0  0  0  0  0  0
   12.7001    0.2286   22.2309 C   0  0  0  0  0  0  0  0  0  0  0  0
   13.9988   -0.1568   21.9118 C   0  0  0  0  0  0  0  0  0  0  0  0
   14.9929    0.6261   22.3473 F   0  0  0  0  0  0  0  0  0  0  0  0
   14.2607   -1.2468   21.0717 C   0  0  0  0  0  0  0  0  0  0  0  0
   13.2081   -2.0285   20.6219 C   0  0  0  0  0  0  0  0  0  0  0  0
   11.9157   -1.7211   21.0154 C   0  0  0  0  0  0  0  0  0  0  0  0
   11.0728   -2.3310   20.7366 H   0  0  0  0  0  0  0  0  0  0  0  0
   13.4058   -2.8489   19.9356 H   0  0  0  0  0  0  0  0  0  0  0  0
   15.2277   -1.4932   20.6881 H   0  0  0  0  0  0  0  0  0  0  0  0
   12.5306    1.1219   22.8246 H   0  0  0  0  0  0  0  0  0  0  0  0
    9.2701   -0.9365   21.3171 N   0  0  0  0  0  0  0  0  0  0  0  0
    8.1499   -0.2376   21.5439 N   0  0  0  0  0  0  0  0  0  0  0  0
    6.8775   -0.7537   21.0512 C   0  0  0  0  0  0  0  0  0  0  0  0
    6.3181    0.0284   19.8891 C   0  0  0  0  0  0  0  0  0  0  0  0
    5.1153    0.7326   19.9843 C   0  0  0  0  0  0  0  0  0  0  0  0
    4.6651    1.4463   18.8726 C   0  0  0  0  0  0  0  0  0  0  0  0
    5.4352    1.4235   17.7064 C   0  0  0  0  0  0  0  0  0  0  0  0
    6.5938    0.7549   17.5959 N   0  0  0  0  0  0  0  0  0  0  0  0
    7.0188    0.0819   18.6715 C   0  0  0  0  0  0  0  0  0  0  0  0
    7.9636   -0.4533   18.5583 H   0  0  0  0  0  0  0  0  0  0  0  0
    5.1008    1.9545   16.8162 H   0  0  0  0  0  0  0  0  0  0  0  0
    3.7365    2.0043   18.8997 H   0  0  0  0  0  0  0  0  0  0  0  0
    4.5448    0.7185   20.9162 H   0  0  0  0  0  0  0  0  0  0  0  0
    6.1612   -0.7734   21.8785 H   0  0  0  0  0  0  0  0  0  0  0  0
    7.0778   -1.7925   20.7693 H   0  0  0  0  0  0  0  0  0  0  0  0
    6.5361    1.7970   22.3283 H   0  0  0  0  0  0  0  0  0  0  0  0
    7.8761    2.8249   22.8415 H   0  0  0  0  0  0  0  0  0  0  0  0
    7.1131    0.2169   24.2795 H   0  0  0  0  0  0  0  0  0  0  0  0
    8.3512    1.3615   24.7780 H   0  0  0  0  0  0  0  0  0  0  0  0
    6.7283    3.1004   25.9245 C   0  0  0  0  0  0  0  0  0  0  0  0
    7.7702    3.4001   26.0281 H   0  0  0  0  0  0  0  0  0  0  0  0
    4.6580    0.8689   24.3992 H   0  0  0  0  0  0  0  0  0  0  0  0
    3.6169    3.9013   27.0270 H   0  0  0  0  0  0  0  0  0  0  0  0
  1  2  1  0
  2  3  2  0
  3  4  1  0
  4  5  2  0
  5  6  1  0
  6  7  1  0
  7  8  1  0
  8  9  1  0
  9 10  2  0
 10 11  1  0
 11 12  1  0
 12 13  2  0
 13 14  1  0
 14 15  1  0
 14 16  2  0
 16 17  1  0
 17 18  2  0
 18 19  1  0
 17 20  1  0
 16 21  1  0
 13 22  1  0
 11 23  2  0
 23 24  1  0
 24 25  1  0
 25 26  1  0
 26 27  2  0
 27 28  1  0
 28 29  2  0
 29 30  1  0
 30 31  2  0
 31 32  1  0
 29 33  1  0
 28 34  1  0
 27 35  1  0
 25 36  1  0
 25 37  1  0
  8 38  1  0
  8 39  1  0
  7 40  1  0
  7 41  1  0
  6 42  2  0
 42 43  1  0
  5 44  1  0
  3 45  1  0
 42  2  1  0
 24  9  1  0
 31 26  1  0
 18 12  1  0
M  END
>  <cnnaffinity>  (1) 
-6.66564

>  <filename>  (1) 
Fc1cncc(CCc2nc(-c3cccc(F)c3)nn2Cc2cccnc2)c1

$$$$
