
     RDKit          3D

 45 48  0  0  0  0  0  0  0  0999 V2000
   14.0856   -2.0037   20.9735 F   0  0  0  0  0  0  0  0  0  0  0  0
   13.3061   -1.1080   21.6026 C   0  0  0  0  0  0  0  0  0  0  0  0
   13.9144   -0.0294   22.2477 C   0  0  0  0  0  0  0  0  0  0  0  0
   13.1017    0.8854   22.9182 C   0  0  0  0  0  0  0  0  0  0  0  0
   11.7199    0.7182   22.9295 C   0  0  0  0  0  0  0  0  0  0  0  0
   11.0929   -0.3195   22.1971 C   0  0  0  0  0  0  0  0  0  0  0  0
    9.5938   -0.2810   22.1358 C   0  0  0  0  0  0  0  0  0  0  0  0
    8.7984   -1.0202   21.3761 N   0  0  0  0  0  0  0  0  0  0  0  0
    7.5640   -0.5129   21.6374 N   0  0  0  0  0  0  0  0  0  0  0  0
    6.3925   -0.9776   20.9082 C   0  0  0  0  0  0  0  0  0  0  0  0
    6.0235   -0.1027   19.7291 C   0  0  0  0  0  0  0  0  0  0  0  0
    4.8469    0.6523   19.6899 C   0  0  0  0  0  0  0  0  0  0  0  0
    4.6049    1.4600   18.5782 C   0  0  0  0  0  0  0  0  0  0  0  0
    5.5437    1.4697   17.5435 C   0  0  0  0  0  0  0  0  0  0  0  0
    6.6778    0.7529   17.5579 N   0  0  0  0  0  0  0  0  0  0  0  0
    6.9060    0.0024   18.6419 C   0  0  0  0  0  0  0  0  0  0  0  0
    7.8481   -0.5439   18.6612 H   0  0  0  0  0  0  0  0  0  0  0  0
    5.3788    2.0710   16.6542 H   0  0  0  0  0  0  0  0  0  0  0  0
    3.7130    2.0723   18.5003 H   0  0  0  0  0  0  0  0  0  0  0  0
    4.1265    0.6086   20.5085 H   0  0  0  0  0  0  0  0  0  0  0  0
    6.6207   -2.0017   20.6066 H   0  0  0  0  0  0  0  0  0  0  0  0
    5.5512   -1.0312   21.6012 H   0  0  0  0  0  0  0  0  0  0  0  0
    7.6675    0.5230   22.5019 C   0  0  0  0  0  0  0  0  0  0  0  0
    6.5873    1.4209   23.0339 C   0  0  0  0  0  0  0  0  0  0  0  0
    6.5711    1.3725   24.5750 C   0  0  0  0  0  0  0  0  0  0  0  0
    5.5493    2.2269   25.2876 C   0  0  0  0  0  0  0  0  0  0  0  0
    4.1947    1.8690   25.3237 C   0  0  0  0  0  0  0  0  0  0  0  0
    3.3279    2.5584   26.1771 C   0  0  0  0  0  0  0  0  0  0  0  0
    3.8418    3.6081   26.9460 C   0  0  0  0  0  0  0  0  0  0  0  0
    5.1156    4.0118   26.8788 N   0  0  0  0  0  0  0  0  0  0  0  0
    5.9324    3.3361   26.0604 C   0  0  0  0  0  0  0  0  0  0  0  0
    6.9656    3.6827   26.0274 H   0  0  0  0  0  0  0  0  0  0  0  0
    3.2064    4.1565   27.6417 H   0  0  0  0  0  0  0  0  0  0  0  0
    2.2802    2.2908   26.2620 H   0  0  0  0  0  0  0  0  0  0  0  0
    3.8393    1.0364   24.7129 H   0  0  0  0  0  0  0  0  0  0  0  0
    7.5786    1.6415   24.9179 H   0  0  0  0  0  0  0  0  0  0  0  0
    6.4200    0.3302   24.8892 H   0  0  0  0  0  0  0  0  0  0  0  0
    6.8134    2.4426   22.7043 H   0  0  0  0  0  0  0  0  0  0  0  0
    5.6200    1.1702   22.5934 H   0  0  0  0  0  0  0  0  0  0  0  0
    8.9250    0.6675   22.8504 N   0  0  0  0  0  0  0  0  0  0  0  0
   11.9191   -1.2750   21.5573 C   0  0  0  0  0  0  0  0  0  0  0  0
   11.5382   -2.1536   21.0404 H   0  0  0  0  0  0  0  0  0  0  0  0
   11.0924    1.3849   23.5160 H   0  0  0  0  0  0  0  0  0  0  0  0
   13.5453    1.7560   23.4021 H   0  0  0  0  0  0  0  0  0  0  0  0
   14.9870    0.1106   22.2062 H   0  0  0  0  0  0  0  0  0  0  0  0
  1  2  1  0
  2  3  2  0
  3  4  1  0
  4  5  2  0
  5  6  1  0
  6  7  1  0
  7  8  2  0
  8  9  1  0
  9 10  1  0
 10 11  1  0
 11 12  2  0
 12 13  1  0
 13 14  2  0
 14 15  1  0
 15 16  2  0
 16 17  1  0
 14 18  1  0
 13 19  1  0
 12 20  1  0
 10 21  1  0
 10 22  1  0
  9 23  1  0
 23 24  1  0
 24 25  1  0
 25 26  1  0
 26 27  2  0
 27 28  1  0
 28 29  2  0
 29 30  1  0
 30 31  2  0
 31 32  1  0
 29 33  1  0
 28 34  1  0
 27 35  1  0
 25 36  1  0
 25 37  1  0
 24 38  1  0
 24 39  1  0
 23 40  2  0
  6 41  2  0
 41 42  1  0
  5 43  1  0
  4 44  1  0
  3 45  1  0
 41  2  1  0
 40  7  1  0
 16 11  1  0
 31 26  1  0
M  END
>  <cnnaffinity>  (1) 
-6.34812

>  <filename>  (1) 
Fc1cccc(-c2nc(CCc3cccnc3)n(Cc3cccnc3)n2)c1

$$$$
