
     RDKit          3D

 44 47  0  0  0  0  0  0  0  0999 V2000
   14.8589   -1.4804   20.7161 F   0  0  0  0  0  0  0  0  0  0  0  0
   13.6856   -1.1740   21.2723 C   0  0  0  0  0  0  0  0  0  0  0  0
   12.6018   -1.8679   20.7718 C   0  0  0  0  0  0  0  0  0  0  0  0
   11.3342   -1.5295   21.2151 C   0  0  0  0  0  0  0  0  0  0  0  0
   11.1436   -0.4254   22.0707 C   0  0  0  0  0  0  0  0  0  0  0  0
    9.7536    0.0188   22.2742 C   0  0  0  0  0  0  0  0  0  0  0  0
    8.7776   -0.6158   21.6291 N   0  0  0  0  0  0  0  0  0  0  0  0
    7.6684    0.0610   21.9617 N   0  0  0  0  0  0  0  0  0  0  0  0
    6.4126   -0.2729   21.2981 C   0  0  0  0  0  0  0  0  0  0  0  0
    6.1868    0.4372   19.9722 C   0  0  0  0  0  0  0  0  0  0  0  0
    5.0105    1.1345   19.6740 C   0  0  0  0  0  0  0  0  0  0  0  0
    4.8726    1.7143   18.4091 C   0  0  0  0  0  0  0  0  0  0  0  0
    5.9169    1.5812   17.4922 C   0  0  0  0  0  0  0  0  0  0  0  0
    7.0526    0.9176   17.7556 N   0  0  0  0  0  0  0  0  0  0  0  0
    7.1750    0.3742   18.9714 C   0  0  0  0  0  0  0  0  0  0  0  0
    8.1091   -0.1443   19.1819 H   0  0  0  0  0  0  0  0  0  0  0  0
    5.8491    2.0315   16.5034 H   0  0  0  0  0  0  0  0  0  0  0  0
    3.9797    2.2607   18.1262 H   0  0  0  0  0  0  0  0  0  0  0  0
    4.2150    1.2325   20.4174 H   0  0  0  0  0  0  0  0  0  0  0  0
    5.5929   -0.0665   21.9885 H   0  0  0  0  0  0  0  0  0  0  0  0
    6.4508   -1.3580   21.1487 H   0  0  0  0  0  0  0  0  0  0  0  0
    8.0069    1.0798   22.7889 C   0  0  0  0  0  0  0  0  0  0  0  0
    7.0024    1.9709   23.4422 C   0  0  0  0  0  0  0  0  0  0  0  0
    6.8819    1.7892   24.9750 C   0  0  0  0  0  0  0  0  0  0  0  0
    6.8320    0.3419   25.4134 C   0  0  0  0  0  0  0  0  0  0  0  0
    7.9843   -0.3674   25.7691 C   0  0  0  0  0  0  0  0  0  0  0  0
    7.9973   -1.6690   26.0664 N   0  0  0  0  0  0  0  0  0  0  0  0
    6.8291   -2.3001   25.9974 C   0  0  0  0  0  0  0  0  0  0  0  0
    5.6576   -1.7425   25.6981 N   0  0  0  0  0  0  0  0  0  0  0  0
    5.6763   -0.4380   25.4076 C   0  0  0  0  0  0  0  0  0  0  0  0
    4.7036    0.0082   25.1695 H   0  0  0  0  0  0  0  0  0  0  0  0
    6.8367   -3.3723   26.2068 H   0  0  0  0  0  0  0  0  0  0  0  0
    8.9536    0.1436   25.7943 H   0  0  0  0  0  0  0  0  0  0  0  0
    5.9924    2.3291   25.3240 H   0  0  0  0  0  0  0  0  0  0  0  0
    7.7483    2.2703   25.4407 H   0  0  0  0  0  0  0  0  0  0  0  0
    6.0243    1.8151   22.9815 H   0  0  0  0  0  0  0  0  0  0  0  0
    7.2670    3.0072   23.2172 H   0  0  0  0  0  0  0  0  0  0  0  0
    9.3170    1.0776   23.0042 N   0  0  0  0  0  0  0  0  0  0  0  0
   12.2701    0.2444   22.5904 C   0  0  0  0  0  0  0  0  0  0  0  0
   13.5601   -0.1381   22.1962 C   0  0  0  0  0  0  0  0  0  0  0  0
   14.4508    0.3906   22.5228 H   0  0  0  0  0  0  0  0  0  0  0  0
   12.1419    1.0678   23.2882 H   0  0  0  0  0  0  0  0  0  0  0  0
   10.4540   -2.0686   20.8720 H   0  0  0  0  0  0  0  0  0  0  0  0
   12.8105   -2.6074   20.0039 H   0  0  0  0  0  0  0  0  0  0  0  0
  1  2  1  0
  2  3  2  0
  3  4  1  0
  4  5  2  0
  5  6  1  0
  6  7  2  0
  7  8  1  0
  8  9  1  0
  9 10  1  0
 10 11  2  0
 11 12  1  0
 12 13  2  0
 13 14  1  0
 14 15  2  0
 15 16  1  0
 13 17  1  0
 12 18  1  0
 11 19  1  0
  9 20  1  0
  9 21  1  0
  8 22  1  0
 22 23  1  0
 23 24  1  0
 24 25  1  0
 25 26  2  0
 26 27  1  0
 27 28  2  0
 28 29  1  0
 29 30  2  0
 30 31  1  0
 28 32  1  0
 26 33  1  0
 24 34  1  0
 24 35  1  0
 23 36  1  0
 23 37  1  0
 22 38  2  0
  5 39  1  0
 39 40  2  0
 40 41  1  0
 39 42  1  0
  4 43  1  0
  3 44  1  0
 40  2  1  0
 38  6  1  0
 15 10  1  0
 30 25  1  0
M  END
>  <cnnaffinity>  (1) 
-6.52357

>  <filename>  (1) 
Fc1ccc(-c2nc(CCc3cncnc3)n(Cc3cccnc3)n2)cc1

$$$$
