
     RDKit          3D

 40 43  0  0  0  0  0  0  0  0999 V2000
   13.7702   -2.2229   21.5964 F   0  0  0  0  0  0  0  0  0  0  0  0
   13.0356   -1.2292   22.1189 C   0  0  0  0  0  0  0  0  0  0  0  0
   13.6814   -0.2422   22.8615 C   0  0  0  0  0  0  0  0  0  0  0  0
   12.9165    0.7724   23.4386 C   0  0  0  0  0  0  0  0  0  0  0  0
   11.5350    0.7963   23.2696 C   0  0  0  0  0  0  0  0  0  0  0  0
   10.8945   -0.1960   22.5000 C   0  0  0  0  0  0  0  0  0  0  0  0
    9.4219   -0.1166   22.3351 C   0  0  0  0  0  0  0  0  0  0  0  0
    8.6694   -0.9994   21.6992 N   0  0  0  0  0  0  0  0  0  0  0  0
    7.4128   -0.5012   21.8386 N   0  0  0  0  0  0  0  0  0  0  0  0
    6.3171   -1.0195   21.0174 C   0  0  0  0  0  0  0  0  0  0  0  0
    5.9913   -0.1284   19.8362 C   0  0  0  0  0  0  0  0  0  0  0  0
    4.7788    0.5481   19.6659 C   0  0  0  0  0  0  0  0  0  0  0  0
    4.6392    1.4059   18.5705 C   0  0  0  0  0  0  0  0  0  0  0  0
    5.7000    1.5232   17.6696 C   0  0  0  0  0  0  0  0  0  0  0  0
    6.8523    0.8484   17.7920 N   0  0  0  0  0  0  0  0  0  0  0  0
    6.9831    0.0559   18.8594 C   0  0  0  0  0  0  0  0  0  0  0  0
    7.9209   -0.4922   18.9490 H   0  0  0  0  0  0  0  0  0  0  0  0
    5.6253    2.1801   16.8053 H   0  0  0  0  0  0  0  0  0  0  0  0
    3.7367    1.9829   18.4054 H   0  0  0  0  0  0  0  0  0  0  0  0
    3.9491    0.4035   20.3613 H   0  0  0  0  0  0  0  0  0  0  0  0
    6.6387   -2.0114   20.6845 H   0  0  0  0  0  0  0  0  0  0  0  0
    5.4371   -1.1612   21.6432 H   0  0  0  0  0  0  0  0  0  0  0  0
    7.4650    0.6425   22.5581 C   0  0  0  0  0  0  0  0  0  0  0  0
    6.2907    1.3846   23.1328 C   0  0  0  0  0  0  0  0  0  0  0  0
    6.0703    1.0711   24.6025 C   0  0  0  0  0  0  0  0  0  0  0  0
    4.9949    0.7774   25.4038 C   0  0  0  0  0  0  0  0  0  0  0  0
    5.3968    0.5643   26.7010 N   0  0  0  0  0  0  0  0  0  0  0  0
    6.6930    0.7307   26.6964 C   0  0  0  0  0  0  0  0  0  0  0  0
    7.1459    1.0458   25.4597 N   0  0  0  0  0  0  0  0  0  0  0  0
    8.1086    1.1289   25.1629 H   0  0  0  0  0  0  0  0  0  0  0  0
    7.3637    0.6267   27.5447 H   0  0  0  0  0  0  0  0  0  0  0  0
    3.9462    0.7110   25.1466 H   0  0  0  0  0  0  0  0  0  0  0  0
    6.5427    2.4449   23.0255 H   0  0  0  0  0  0  0  0  0  0  0  0
    5.3886    1.2042   22.5410 H   0  0  0  0  0  0  0  0  0  0  0  0
    8.7176    0.9298   22.8517 N   0  0  0  0  0  0  0  0  0  0  0  0
   11.6595   -1.2204   21.9037 C   0  0  0  0  0  0  0  0  0  0  0  0
   11.2091   -1.9647   21.2509 H   0  0  0  0  0  0  0  0  0  0  0  0
   10.9485    1.6056   23.6977 H   0  0  0  0  0  0  0  0  0  0  0  0
   13.4024    1.5519   24.0175 H   0  0  0  0  0  0  0  0  0  0  0  0
   14.7613   -0.2508   22.9463 H   0  0  0  0  0  0  0  0  0  0  0  0
  1  2  1  0
  2  3  2  0
  3  4  1  0
  4  5  2  0
  5  6  1  0
  6  7  1  0
  7  8  2  0
  8  9  1  0
  9 10  1  0
 10 11  1  0
 11 12  2  0
 12 13  1  0
 13 14  2  0
 14 15  1  0
 15 16  2  0
 16 17  1  0
 14 18  1  0
 13 19  1  0
 12 20  1  0
 10 21  1  0
 10 22  1  0
  9 23  1  0
 23 24  1  0
 24 25  1  0
 25 26  2  0
 26 27  1  0
 27 28  2  0
 28 29  1  0
 29 30  1  0
 28 31  1  0
 26 32  1  0
 24 33  1  0
 24 34  1  0
 23 35  2  0
  6 36  2  0
 36 37  1  0
  5 38  1  0
  4 39  1  0
  3 40  1  0
 36  2  1  0
 35  7  1  0
 16 11  1  0
 29 25  1  0
M  END
>  <cnnaffinity>  (1) 
-6.035

>  <filename>  (1) 
Fc1cccc(-c2nc(Cc3cnc[nH]3)n(Cc3cccnc3)n2)c1

$$$$
