
     RDKit          3D

 41 45  0  0  0  0  0  0  0  0999 V2000
   11.2661    2.8638   22.4542 F   0  0  0  0  0  0  0  0  0  0  0  0
   10.2713    2.3324   23.1835 C   0  0  0  0  0  0  0  0  0  0  0  0
   10.5197    2.0079   24.5182 C   0  0  0  0  0  0  0  0  0  0  0  0
    9.4786    1.4848   25.2900 C   0  0  0  0  0  0  0  0  0  0  0  0
    8.2188    1.2746   24.7161 C   0  0  0  0  0  0  0  0  0  0  0  0
    7.9920    1.5597   23.3602 C   0  0  0  0  0  0  0  0  0  0  0  0
    6.7053    1.1131   22.6700 C   0  0  0  0  0  0  0  0  0  0  0  0
    6.7875   -0.3082   22.1767 C   0  0  0  0  0  0  0  0  0  0  0  0
    7.2839   -1.3017   22.8898 N   0  0  0  0  0  0  0  0  0  0  0  0
    7.3112   -2.3461   22.0242 C   0  0  0  0  0  0  0  0  0  0  0  0
    8.1285   -3.5711   22.2742 C   0  0  0  0  0  0  0  0  0  0  0  0
    7.6253   -5.0201   22.2380 C   0  0  0  0  0  0  0  0  0  0  0  0
    8.0835   -4.3838   23.5221 C   0  0  0  0  0  0  0  0  0  0  0  0
    7.6417   -4.1018   24.9171 C   0  0  0  0  0  0  0  0  0  0  0  0
    9.0601   -4.6023   24.6213 C   0  0  0  0  0  0  0  0  0  0  0  0
    9.3170   -5.6263   24.8881 H   0  0  0  0  0  0  0  0  0  0  0  0
    9.8747   -3.8846   24.7159 H   0  0  0  0  0  0  0  0  0  0  0  0
    7.5211   -3.0368   25.1310 H   0  0  0  0  0  0  0  0  0  0  0  0
    6.9512   -4.7875   25.4039 H   0  0  0  0  0  0  0  0  0  0  0  0
    8.3023   -5.7411   21.7731 H   0  0  0  0  0  0  0  0  0  0  0  0
    6.5633   -5.2473   22.1314 H   0  0  0  0  0  0  0  0  0  0  0  0
    9.1512   -3.4033   21.9215 H   0  0  0  0  0  0  0  0  0  0  0  0
    6.8418   -2.0675   20.8229 N   0  0  0  0  0  0  0  0  0  0  0  0
    6.4539   -0.7627   20.9223 N   0  0  0  0  0  0  0  0  0  0  0  0
    6.0418   -0.0664   19.7441 C   0  0  0  0  0  0  0  0  0  0  0  0
    5.1088    0.9854   19.7340 C   0  0  0  0  0  0  0  0  0  0  0  0
    4.8745    1.6489   18.5206 C   0  0  0  0  0  0  0  0  0  0  0  0
    5.5526    1.2397   17.3718 C   0  0  0  0  0  0  0  0  0  0  0  0
    6.4100    0.2054   17.3648 N   0  0  0  0  0  0  0  0  0  0  0  0
    6.6270   -0.4349   18.5152 C   0  0  0  0  0  0  0  0  0  0  0  0
    7.3126   -1.2786   18.4833 H   0  0  0  0  0  0  0  0  0  0  0  0
    5.4126    1.7565   16.4243 H   0  0  0  0  0  0  0  0  0  0  0  0
    4.1888    2.4877   18.4544 H   0  0  0  0  0  0  0  0  0  0  0  0
    4.5693    1.2873   20.6333 H   0  0  0  0  0  0  0  0  0  0  0  0
    6.5086    1.7814   21.8305 H   0  0  0  0  0  0  0  0  0  0  0  0
    5.8437    1.1827   23.3445 H   0  0  0  0  0  0  0  0  0  0  0  0
    9.0236    2.1245   22.5923 C   0  0  0  0  0  0  0  0  0  0  0  0
    8.8811    2.4202   21.5547 H   0  0  0  0  0  0  0  0  0  0  0  0
    7.4164    0.8328   25.3046 H   0  0  0  0  0  0  0  0  0  0  0  0
    9.6545    1.2405   26.3388 H   0  0  0  0  0  0  0  0  0  0  0  0
   11.5102    2.1794   24.9225 H   0  0  0  0  0  0  0  0  0  0  0  0
  1  2  1  0
  2  3  2  0
  3  4  1  0
  4  5  2  0
  5  6  1  0
  6  7  1  0
  7  8  1  0
  8  9  2  0
  9 10  1  0
 10 11  1  0
 11 12  1  0
 12 13  1  0
 13 14  1  0
 14 15  1  0
 15 16  1  0
 15 17  1  0
 14 18  1  0
 14 19  1  0
 12 20  1  0
 12 21  1  0
 11 22  1  0
 10 23  2  0
 23 24  1  0
 24 25  1  0
 25 26  2  0
 26 27  1  0
 27 28  2  0
 28 29  1  0
 29 30  2  0
 30 31  1  0
 28 32  1  0
 27 33  1  0
 26 34  1  0
  7 35  1  0
  7 36  1  0
  6 37  2  0
 37 38  1  0
  5 39  1  0
  4 40  1  0
  3 41  1  0
 37  2  1  0
 24  8  1  0
 30 25  1  0
 13 11  1  0
 15 13  1  0
M  END
>  <cnnaffinity>  (1) 
-6.21928

>  <filename>  (1) 
Fc1cccc(Cc2nc(C3CC34CC4)nn2-c2cccnc2)c1

$$$$
