
     RDKit          3D

 44 47  0  0  0  0  0  0  0  0999 V2000
   15.2541    0.7444   22.1722 F   0  0  0  0  0  0  0  0  0  0  0  0
   14.2189   -0.0258   21.8208 C   0  0  0  0  0  0  0  0  0  0  0  0
   14.3820   -1.1745   21.0227 C   0  0  0  0  0  0  0  0  0  0  0  0
   13.3668   -1.9589   20.6733 N   0  0  0  0  0  0  0  0  0  0  0  0
   12.1492   -1.6013   21.0674 C   0  0  0  0  0  0  0  0  0  0  0  0
   11.8761   -0.3924   21.7179 C   0  0  0  0  0  0  0  0  0  0  0  0
   10.4700   -0.0124   21.7020 C   0  0  0  0  0  0  0  0  0  0  0  0
    9.5387   -0.8430   21.2576 N   0  0  0  0  0  0  0  0  0  0  0  0
    8.3967   -0.1514   21.4280 N   0  0  0  0  0  0  0  0  0  0  0  0
    7.1276   -0.7380   21.0005 C   0  0  0  0  0  0  0  0  0  0  0  0
    6.4495    0.0152   19.8769 C   0  0  0  0  0  0  0  0  0  0  0  0
    5.2362    0.6880   20.0507 C   0  0  0  0  0  0  0  0  0  0  0  0
    4.6875    1.3836   18.9698 C   0  0  0  0  0  0  0  0  0  0  0  0
    5.3709    1.3679   17.7496 C   0  0  0  0  0  0  0  0  0  0  0  0
    6.5275    0.7135   17.5542 N   0  0  0  0  0  0  0  0  0  0  0  0
    7.0451    0.0645   18.6040 C   0  0  0  0  0  0  0  0  0  0  0  0
    7.9833   -0.4580   18.4213 H   0  0  0  0  0  0  0  0  0  0  0  0
    4.9708    1.9021   16.8896 H   0  0  0  0  0  0  0  0  0  0  0  0
    3.7617    1.9437   19.0648 H   0  0  0  0  0  0  0  0  0  0  0  0
    4.7325    0.6744   21.0205 H   0  0  0  0  0  0  0  0  0  0  0  0
    7.3850   -1.7515   20.6816 H   0  0  0  0  0  0  0  0  0  0  0  0
    6.4605   -0.8285   21.8689 H   0  0  0  0  0  0  0  0  0  0  0  0
    8.6894    1.0461   21.9885 C   0  0  0  0  0  0  0  0  0  0  0  0
    7.7128    1.8579   22.7613 C   0  0  0  0  0  0  0  0  0  0  0  0
    7.6051    1.2276   24.1763 C   0  0  0  0  0  0  0  0  0  0  0  0
    6.5583    1.8877   25.0132 C   0  0  0  0  0  0  0  0  0  0  0  0
    5.2355    1.4337   24.9500 C   0  0  0  0  0  0  0  0  0  0  0  0
    4.2306    2.1258   25.6253 C   0  0  0  0  0  0  0  0  0  0  0  0
    4.5917    3.2614   26.3525 C   0  0  0  0  0  0  0  0  0  0  0  0
    5.8490    3.7119   26.4446 N   0  0  0  0  0  0  0  0  0  0  0  0
    6.7860    3.0410   25.7944 C   0  0  0  0  0  0  0  0  0  0  0  0
    8.4002    3.6862   25.9558 Cl  0  0  0  0  0  0  0  0  0  0  0  0
    3.8456    3.8411   26.8893 H   0  0  0  0  0  0  0  0  0  0  0  0
    3.1978    1.8021   25.5878 H   0  0  0  0  0  0  0  0  0  0  0  0
    5.0123    0.5416   24.3618 H   0  0  0  0  0  0  0  0  0  0  0  0
    8.5905    1.2754   24.6553 H   0  0  0  0  0  0  0  0  0  0  0  0
    7.3628    0.1589   24.0737 H   0  0  0  0  0  0  0  0  0  0  0  0
    8.0865    2.8825   22.8347 H   0  0  0  0  0  0  0  0  0  0  0  0
    6.7355    1.8979   22.2656 H   0  0  0  0  0  0  0  0  0  0  0  0
   10.0006    1.1721   22.1332 N   0  0  0  0  0  0  0  0  0  0  0  0
   12.9496    0.3915   22.1913 C   0  0  0  0  0  0  0  0  0  0  0  0
   12.8799    1.2939   22.8045 H   0  0  0  0  0  0  0  0  0  0  0  0
   11.3364   -2.2848   20.8615 H   0  0  0  0  0  0  0  0  0  0  0  0
   15.3217   -1.4499   20.5733 H   0  0  0  0  0  0  0  0  0  0  0  0
  1  2  1  0
  2  3  2  0
  3  4  1  0
  4  5  2  0
  5  6  1  0
  6  7  1  0
  7  8  2  0
  8  9  1  0
  9 10  1  0
 10 11  1  0
 11 12  2  0
 12 13  1  0
 13 14  2  0
 14 15  1  0
 15 16  2  0
 16 17  1  0
 14 18  1  0
 13 19  1  0
 12 20  1  0
 10 21  1  0
 10 22  1  0
  9 23  1  0
 23 24  1  0
 24 25  1  0
 25 26  1  0
 26 27  2  0
 27 28  1  0
 28 29  2  0
 29 30  1  0
 30 31  2  0
 31 32  1  0
 29 33  1  0
 28 34  1  0
 27 35  1  0
 25 36  1  0
 25 37  1  0
 24 38  1  0
 24 39  1  0
 23 40  2  0
  6 41  2  0
 41 42  1  0
  5 43  1  0
  3 44  1  0
 41  2  1  0
 40  7  1  0
 16 11  1  0
 31 26  1  0
M  END
>  <cnnaffinity>  (1) 
-6.87415

>  <filename>  (1) 
Fc1cncc(-c2nc(CCc3cccnc3Cl)n(Cc3cccnc3)n2)c1

$$$$
