
     RDKit          3D

 41 44  0  0  0  0  0  0  0  0999 V2000
   11.5237    1.7305   25.3902 F   0  0  0  0  0  0  0  0  0  0  0  0
   10.3011    1.8525   24.8517 C   0  0  0  0  0  0  0  0  0  0  0  0
    9.1702    1.7315   25.6536 C   0  0  0  0  0  0  0  0  0  0  0  0
    7.9036    1.7644   25.0499 C   0  0  0  0  0  0  0  0  0  0  0  0
    7.8156    1.9013   23.6599 C   0  0  0  0  0  0  0  0  0  0  0  0
    6.5882    1.8718   23.0960 F   0  0  0  0  0  0  0  0  0  0  0  0
    8.9537    2.0544   22.8470 C   0  0  0  0  0  0  0  0  0  0  0  0
    8.9569    2.0062   21.3288 C   0  0  0  0  0  0  0  0  0  0  0  0
    9.4614    0.6055   20.8752 C   0  0  0  0  0  0  0  0  0  0  0  0
    8.6058   -0.5249   21.3565 C   0  0  0  0  0  0  0  0  0  0  0  0
    8.8701   -1.3567   22.3448 N   0  0  0  0  0  0  0  0  0  0  0  0
    7.6835   -1.9954   22.5378 C   0  0  0  0  0  0  0  0  0  0  0  0
    7.4411   -2.9349   23.6702 C   0  0  0  0  0  0  0  0  0  0  0  0
    7.5036   -2.2658   25.0766 C   0  0  0  0  0  0  0  0  0  0  0  0
    8.8622   -3.3580   25.6140 S   0  0  0  0  0  0  0  0  0  0  0  0
    8.5756   -3.9598   23.9141 C   0  0  0  0  0  0  0  0  0  0  0  0
    8.2484   -5.0021   23.8817 H   0  0  0  0  0  0  0  0  0  0  0  0
    9.4494   -3.8191   23.2691 H   0  0  0  0  0  0  0  0  0  0  0  0
    7.7839   -1.2046   25.0643 H   0  0  0  0  0  0  0  0  0  0  0  0
    6.5946   -2.4000   25.6689 H   0  0  0  0  0  0  0  0  0  0  0  0
    6.4678   -3.3993   23.4794 H   0  0  0  0  0  0  0  0  0  0  0  0
    6.7257   -1.6498   21.7063 N   0  0  0  0  0  0  0  0  0  0  0  0
    7.3295   -0.7174   20.9209 N   0  0  0  0  0  0  0  0  0  0  0  0
    6.6336   -0.0618   19.8741 C   0  0  0  0  0  0  0  0  0  0  0  0
    5.4380    0.6038   20.1466 C   0  0  0  0  0  0  0  0  0  0  0  0
    4.8238    1.2999   19.1039 C   0  0  0  0  0  0  0  0  0  0  0  0
    5.4130    1.2958   17.8345 C   0  0  0  0  0  0  0  0  0  0  0  0
    6.5422    0.6268   17.5590 N   0  0  0  0  0  0  0  0  0  0  0  0
    7.1327   -0.0344   18.5593 C   0  0  0  0  0  0  0  0  0  0  0  0
    8.0506   -0.5659   18.3150 H   0  0  0  0  0  0  0  0  0  0  0  0
    4.9641    1.8480   17.0103 H   0  0  0  0  0  0  0  0  0  0  0  0
    3.9062    1.8497   19.2656 H   0  0  0  0  0  0  0  0  0  0  0  0
    5.0325    0.5771   21.1587 H   0  0  0  0  0  0  0  0  0  0  0  0
    9.5418    0.5599   19.7893 H   0  0  0  0  0  0  0  0  0  0  0  0
   10.4659    0.4400   21.2800 H   0  0  0  0  0  0  0  0  0  0  0  0
    9.6667    2.7536   20.9515 H   0  0  0  0  0  0  0  0  0  0  0  0
    7.9747    2.2396   20.8971 H   0  0  0  0  0  0  0  0  0  0  0  0
   10.2067    2.0469   23.4830 C   0  0  0  0  0  0  0  0  0  0  0  0
   11.1197    2.1529   22.8975 H   0  0  0  0  0  0  0  0  0  0  0  0
    6.9923    1.6286   25.6334 H   0  0  0  0  0  0  0  0  0  0  0  0
    9.3007    1.5823   26.7193 H   0  0  0  0  0  0  0  0  0  0  0  0
  1  2  1  0
  2  3  2  0
  3  4  1  0
  4  5  2  0
  5  6  1  0
  5  7  1  0
  7  8  1  0
  8  9  1  0
  9 10  1  0
 10 11  2  0
 11 12  1  0
 12 13  1  0
 13 14  1  0
 14 15  1  0
 15 16  1  0
 16 17  1  0
 16 18  1  0
 14 19  1  0
 14 20  1  0
 13 21  1  0
 12 22  2  0
 22 23  1  0
 23 24  1  0
 24 25  2  0
 25 26  1  0
 26 27  2  0
 27 28  1  0
 28 29  2  0
 29 30  1  0
 27 31  1  0
 26 32  1  0
 25 33  1  0
  9 34  1  0
  9 35  1  0
  8 36  1  0
  8 37  1  0
  7 38  2  0
 38 39  1  0
  4 40  1  0
  3 41  1  0
 38  2  1  0
 23 10  1  0
 29 24  1  0
 16 13  1  0
M  END
>  <cnnaffinity>  (1) 
-6.16604

>  <filename>  (1) 
Fc1ccc(F)c(CCc2nc(C3CSC3)nn2-c2cccnc2)c1

$$$$
