
     RDKit          3D

 44 47  0  0  0  0  0  0  0  0999 V2000
   14.5063   -1.9453   21.1281 F   0  0  0  0  0  0  0  0  0  0  0  0
   13.7095   -1.0375   21.6977 C   0  0  0  0  0  0  0  0  0  0  0  0
   14.2483   -0.0270   22.5044 C   0  0  0  0  0  0  0  0  0  0  0  0
   13.5037    0.8901   23.1291 N   0  0  0  0  0  0  0  0  0  0  0  0
   12.1916    0.8789   22.8895 C   0  0  0  0  0  0  0  0  0  0  0  0
   11.5929   -0.0343   22.0120 C   0  0  0  0  0  0  0  0  0  0  0  0
   10.1626    0.1173   21.8062 C   0  0  0  0  0  0  0  0  0  0  0  0
    9.3970   -0.7615   21.1933 N   0  0  0  0  0  0  0  0  0  0  0  0
    8.1530   -0.2814   21.4215 N   0  0  0  0  0  0  0  0  0  0  0  0
    6.9880   -0.9590   20.8776 C   0  0  0  0  0  0  0  0  0  0  0  0
    6.3675   -0.1621   19.7588 C   0  0  0  0  0  0  0  0  0  0  0  0
    5.1579    0.5238   19.8802 C   0  0  0  0  0  0  0  0  0  0  0  0
    4.7427    1.3354   18.8219 C   0  0  0  0  0  0  0  0  0  0  0  0
    5.5470    1.4132   17.6821 C   0  0  0  0  0  0  0  0  0  0  0  0
    6.7112    0.7600   17.5457 N   0  0  0  0  0  0  0  0  0  0  0  0
    7.1045    0.0065   18.5765 C   0  0  0  0  0  0  0  0  0  0  0  0
    8.0662   -0.4959   18.4740 H   0  0  0  0  0  0  0  0  0  0  0  0
    5.2455    2.0248   16.8363 H   0  0  0  0  0  0  0  0  0  0  0  0
    3.8265    1.9115   18.8770 H   0  0  0  0  0  0  0  0  0  0  0  0
    4.5628    0.4420   20.7920 H   0  0  0  0  0  0  0  0  0  0  0  0
    7.3598   -1.9240   20.5240 H   0  0  0  0  0  0  0  0  0  0  0  0
    6.2703   -1.1515   21.6851 H   0  0  0  0  0  0  0  0  0  0  0  0
    8.2286    0.8706   22.1254 C   0  0  0  0  0  0  0  0  0  0  0  0
    7.1110    1.5435   22.8510 C   0  0  0  0  0  0  0  0  0  0  0  0
    7.1228    1.1469   24.3482 C   0  0  0  0  0  0  0  0  0  0  0  0
    6.1179    1.8971   25.1774 C   0  0  0  0  0  0  0  0  0  0  0  0
    6.4965    2.9361   26.0432 C   0  0  0  0  0  0  0  0  0  0  0  0
    5.5239    3.5963   26.7916 C   0  0  0  0  0  0  0  0  0  0  0  0
    4.1967    3.1805   26.6352 C   0  0  0  0  0  0  0  0  0  0  0  0
    2.9614    3.9612   27.5789 Cl  0  0  0  0  0  0  0  0  0  0  0  0
    3.7998    2.2176   25.8209 N   0  0  0  0  0  0  0  0  0  0  0  0
    4.7510    1.5941   25.1090 C   0  0  0  0  0  0  0  0  0  0  0  0
    4.3983    0.7963   24.4551 H   0  0  0  0  0  0  0  0  0  0  0  0
    5.7607    4.3913   27.4866 H   0  0  0  0  0  0  0  0  0  0  0  0
    7.5474    3.2190   26.1256 H   0  0  0  0  0  0  0  0  0  0  0  0
    6.9461    0.0645   24.4490 H   0  0  0  0  0  0  0  0  0  0  0  0
    8.1350    1.3287   24.7327 H   0  0  0  0  0  0  0  0  0  0  0  0
    6.1438    1.3120   22.4007 H   0  0  0  0  0  0  0  0  0  0  0  0
    7.2519    2.6250   22.7606 H   0  0  0  0  0  0  0  0  0  0  0  0
    9.4960    1.1577   22.3606 N   0  0  0  0  0  0  0  0  0  0  0  0
   12.3510   -1.0629   21.4295 C   0  0  0  0  0  0  0  0  0  0  0  0
   11.9068   -1.8125   20.7757 H   0  0  0  0  0  0  0  0  0  0  0  0
   11.5688    1.5936   23.4205 H   0  0  0  0  0  0  0  0  0  0  0  0
   15.3121    0.0714   22.6036 H   0  0  0  0  0  0  0  0  0  0  0  0
  1  2  1  0
  2  3  2  0
  3  4  1  0
  4  5  2  0
  5  6  1  0
  6  7  1  0
  7  8  2  0
  8  9  1  0
  9 10  1  0
 10 11  1  0
 11 12  2  0
 12 13  1  0
 13 14  2  0
 14 15  1  0
 15 16  2  0
 16 17  1  0
 14 18  1  0
 13 19  1  0
 12 20  1  0
 10 21  1  0
 10 22  1  0
  9 23  1  0
 23 24  1  0
 24 25  1  0
 25 26  1  0
 26 27  2  0
 27 28  1  0
 28 29  2  0
 29 30  1  0
 29 31  1  0
 31 32  2  0
 32 33  1  0
 28 34  1  0
 27 35  1  0
 25 36  1  0
 25 37  1  0
 24 38  1  0
 24 39  1  0
 23 40  2  0
  6 41  2  0
 41 42  1  0
  5 43  1  0
  3 44  1  0
 41  2  1  0
 40  7  1  0
 16 11  1  0
 32 26  1  0
M  END
>  <cnnaffinity>  (1) 
-6.72495

>  <filename>  (1) 
Fc1cncc(-c2nc(CCc3ccc(Cl)nc3)n(Cc3cccnc3)n2)c1

$$$$
