
     RDKit          3D

 45 48  0  0  0  0  0  0  0  0999 V2000
    7.3590    5.8883   26.4095 F   0  0  0  0  0  0  0  0  0  0  0  0
    7.7586    4.9424   25.5461 C   0  0  0  0  0  0  0  0  0  0  0  0
    7.7784    5.1870   24.1846 C   0  0  0  0  0  0  0  0  0  0  0  0
    8.1976    4.1879   23.2896 C   0  0  0  0  0  0  0  0  0  0  0  0
    8.6009    2.9343   23.7675 C   0  0  0  0  0  0  0  0  0  0  0  0
    9.0285    1.9002   22.9953 O   0  0  0  0  0  0  0  0  0  0  0  0
    9.0482    2.0012   21.5742 C   0  0  0  0  0  0  0  0  0  0  0  0
    9.4984    0.6458   21.0215 C   0  0  0  0  0  0  0  0  0  0  0  0
    8.6078   -0.4647   21.4533 C   0  0  0  0  0  0  0  0  0  0  0  0
    8.8285   -1.2930   22.4485 N   0  0  0  0  0  0  0  0  0  0  0  0
    7.6468   -1.9569   22.5618 C   0  0  0  0  0  0  0  0  0  0  0  0
    7.4234   -2.9372   23.6561 C   0  0  0  0  0  0  0  0  0  0  0  0
    8.5153   -4.0201   23.7946 C   0  0  0  0  0  0  0  0  0  0  0  0
    8.4664   -4.3749   25.2850 C   0  0  0  0  0  0  0  0  0  0  0  0
    7.8501   -3.2801   25.9467 O   0  0  0  0  0  0  0  0  0  0  0  0
    7.4273   -2.2750   25.0478 C   0  0  0  0  0  0  0  0  0  0  0  0
    6.4294   -1.9404   25.3618 H   0  0  0  0  0  0  0  0  0  0  0  0
    8.1055   -1.4026   25.0950 H   0  0  0  0  0  0  0  0  0  0  0  0
    7.8757   -5.2829   25.4799 H   0  0  0  0  0  0  0  0  0  0  0  0
    9.4653   -4.5409   25.7131 H   0  0  0  0  0  0  0  0  0  0  0  0
    8.3323   -4.8901   23.1580 H   0  0  0  0  0  0  0  0  0  0  0  0
    9.4934   -3.6039   23.5264 H   0  0  0  0  0  0  0  0  0  0  0  0
    6.4477   -3.3934   23.4780 H   0  0  0  0  0  0  0  0  0  0  0  0
    6.7260   -1.6132   21.6912 N   0  0  0  0  0  0  0  0  0  0  0  0
    7.3546   -0.6623   20.9440 N   0  0  0  0  0  0  0  0  0  0  0  0
    6.6593    0.0129   19.9017 C   0  0  0  0  0  0  0  0  0  0  0  0
    5.4392    0.6465   20.1654 C   0  0  0  0  0  0  0  0  0  0  0  0
    4.8131    1.3114   19.1083 C   0  0  0  0  0  0  0  0  0  0  0  0
    5.4008    1.2966   17.8368 C   0  0  0  0  0  0  0  0  0  0  0  0
    6.5588    0.6716   17.5748 N   0  0  0  0  0  0  0  0  0  0  0  0
    7.1681    0.0514   18.5913 C   0  0  0  0  0  0  0  0  0  0  0  0
    8.1119   -0.4379   18.3643 H   0  0  0  0  0  0  0  0  0  0  0  0
    4.9217    1.7872   16.9925 H   0  0  0  0  0  0  0  0  0  0  0  0
    3.8807    1.8392   19.2586 H   0  0  0  0  0  0  0  0  0  0  0  0
    5.0142    0.6074   21.1727 H   0  0  0  0  0  0  0  0  0  0  0  0
    9.5254    0.7041   19.9319 H   0  0  0  0  0  0  0  0  0  0  0  0
   10.5138    0.4173   21.3476 H   0  0  0  0  0  0  0  0  0  0  0  0
    8.0502    2.2526   21.1869 H   0  0  0  0  0  0  0  0  0  0  0  0
    9.7464    2.7858   21.2527 H   0  0  0  0  0  0  0  0  0  0  0  0
    8.5822    2.6851   25.1535 C   0  0  0  0  0  0  0  0  0  0  0  0
    8.1590    3.6844   26.0173 C   0  0  0  0  0  0  0  0  0  0  0  0
    8.1131    3.4466   27.3303 F   0  0  0  0  0  0  0  0  0  0  0  0
    8.8825    1.7273   25.5644 H   0  0  0  0  0  0  0  0  0  0  0  0
    8.2108    4.3950   22.2256 H   0  0  0  0  0  0  0  0  0  0  0  0
    7.4575    6.1635   23.8374 H   0  0  0  0  0  0  0  0  0  0  0  0
  1  2  1  0
  2  3  2  0
  3  4  1  0
  4  5  2  0
  5  6  1  0
  6  7  1  0
  7  8  1  0
  8  9  1  0
  9 10  2  0
 10 11  1  0
 11 12  1  0
 12 13  1  0
 13 14  1  0
 14 15  1  0
 15 16  1  0
 16 17  1  0
 16 18  1  0
 14 19  1  0
 14 20  1  0
 13 21  1  0
 13 22  1  0
 12 23  1  0
 11 24  2  0
 24 25  1  0
 25 26  1  0
 26 27  2  0
 27 28  1  0
 28 29  2  0
 29 30  1  0
 30 31  2  0
 31 32  1  0
 29 33  1  0
 28 34  1  0
 27 35  1  0
  8 36  1  0
  8 37  1  0
  7 38  1  0
  7 39  1  0
  5 40  1  0
 40 41  2  0
 41 42  1  0
 40 43  1  0
  4 44  1  0
  3 45  1  0
 41  2  1  0
 25  9  1  0
 31 26  1  0
 16 12  1  0
M  END
>  <cnnaffinity>  (1) 
-6.10881

>  <filename>  (1) 
Fc1ccc(OCCc2nc(C3CCOC3)nn2-c2cccnc2)cc1F

$$$$
