
     RDKit          3D

 42 46  0  0  0  0  0  0  0  0999 V2000
    5.2123    5.9334   24.2488 F   0  0  0  0  0  0  0  0  0  0  0  0
    6.2426    5.1441   24.5985 C   0  0  0  0  0  0  0  0  0  0  0  0
    7.1274    5.5664   25.5777 C   0  0  0  0  0  0  0  0  0  0  0  0
    8.2079    4.7331   25.9145 C   0  0  0  0  0  0  0  0  0  0  0  0
    8.3630    3.5016   25.2931 C   0  0  0  0  0  0  0  0  0  0  0  0
    9.4086    2.7242   25.6248 F   0  0  0  0  0  0  0  0  0  0  0  0
    7.4289    3.0580   24.3269 C   0  0  0  0  0  0  0  0  0  0  0  0
    7.6017    1.8095   23.8243 O   0  0  0  0  0  0  0  0  0  0  0  0
    6.6687    1.3397   22.8647 C   0  0  0  0  0  0  0  0  0  0  0  0
    6.9773   -0.0622   22.4615 C   0  0  0  0  0  0  0  0  0  0  0  0
    7.6101   -0.9648   23.1790 N   0  0  0  0  0  0  0  0  0  0  0  0
    7.6140   -2.0578   22.3788 C   0  0  0  0  0  0  0  0  0  0  0  0
    8.4944   -3.2251   22.6622 C   0  0  0  0  0  0  0  0  0  0  0  0
    8.0292   -4.6723   22.4695 C   0  0  0  0  0  0  0  0  0  0  0  0
    8.4186   -4.1595   23.8244 C   0  0  0  0  0  0  0  0  0  0  0  0
    7.8791   -4.2518   25.2064 C   0  0  0  0  0  0  0  0  0  0  0  0
    9.3603   -4.5141   24.9265 C   0  0  0  0  0  0  0  0  0  0  0  0
   10.0332   -3.7193   25.2474 H   0  0  0  0  0  0  0  0  0  0  0  0
    9.7651   -5.5246   24.9965 H   0  0  0  0  0  0  0  0  0  0  0  0
    7.2279   -5.1003   25.4084 H   0  0  0  0  0  0  0  0  0  0  0  0
    7.5889   -3.3263   25.6991 H   0  0  0  0  0  0  0  0  0  0  0  0
    8.6882   -5.4027   22.0015 H   0  0  0  0  0  0  0  0  0  0  0  0
    6.9648   -4.8524   22.3060 H   0  0  0  0  0  0  0  0  0  0  0  0
    9.5237   -2.9689   22.3969 H   0  0  0  0  0  0  0  0  0  0  0  0
    7.0301   -1.8868   21.2057 N   0  0  0  0  0  0  0  0  0  0  0  0
    6.5826   -0.5998   21.2588 N   0  0  0  0  0  0  0  0  0  0  0  0
    6.1374    0.0349   20.0554 C   0  0  0  0  0  0  0  0  0  0  0  0
    5.1268    1.0065   19.9945 C   0  0  0  0  0  0  0  0  0  0  0  0
    4.8879    1.6348   18.7625 C   0  0  0  0  0  0  0  0  0  0  0  0
    5.6467    1.2713   17.6469 C   0  0  0  0  0  0  0  0  0  0  0  0
    6.5771    0.3030   17.6870 N   0  0  0  0  0  0  0  0  0  0  0  0
    6.7925   -0.3073   18.8542 C   0  0  0  0  0  0  0  0  0  0  0  0
    7.5384   -1.0958   18.8757 H   0  0  0  0  0  0  0  0  0  0  0  0
    5.5187    1.7715   16.6881 H   0  0  0  0  0  0  0  0  0  0  0  0
    4.1436    2.4164   18.6605 H   0  0  0  0  0  0  0  0  0  0  0  0
    4.5244    1.2647   20.8670 H   0  0  0  0  0  0  0  0  0  0  0  0
    5.6565    1.3517   23.2899 H   0  0  0  0  0  0  0  0  0  0  0  0
    6.6967    1.9928   21.9851 H   0  0  0  0  0  0  0  0  0  0  0  0
    6.3786    3.9137   23.9615 C   0  0  0  0  0  0  0  0  0  0  0  0
    5.6636    3.6478   23.1928 H   0  0  0  0  0  0  0  0  0  0  0  0
    8.9443    5.0125   26.6630 H   0  0  0  0  0  0  0  0  0  0  0  0
    6.9599    6.5245   26.0559 H   0  0  0  0  0  0  0  0  0  0  0  0
  1  2  1  0
  2  3  2  0
  3  4  1  0
  4  5  2  0
  5  6  1  0
  5  7  1  0
  7  8  1  0
  8  9  1  0
  9 10  1  0
 10 11  2  0
 11 12  1  0
 12 13  1  0
 13 14  1  0
 14 15  1  0
 15 16  1  0
 16 17  1  0
 17 18  1  0
 17 19  1  0
 16 20  1  0
 16 21  1  0
 14 22  1  0
 14 23  1  0
 13 24  1  0
 12 25  2  0
 25 26  1  0
 26 27  1  0
 27 28  2  0
 28 29  1  0
 29 30  2  0
 30 31  1  0
 31 32  2  0
 32 33  1  0
 30 34  1  0
 29 35  1  0
 28 36  1  0
  9 37  1  0
  9 38  1  0
  7 39  2  0
 39 40  1  0
  4 41  1  0
  3 42  1  0
 39  2  1  0
 26 10  1  0
 32 27  1  0
 15 13  1  0
 17 15  1  0
M  END
>  <cnnaffinity>  (1) 
-5.98646

>  <filename>  (1) 
Fc1ccc(F)c(OCc2nc(C3CC34CC4)nn2-c2cccnc2)c1

$$$$
