
     RDKit          3D

 48 51  0  0  0  0  0  0  0  0999 V2000
    7.2040    6.0315   26.1789 F   0  0  0  0  0  0  0  0  0  0  0  0
    7.6294    5.0612   25.3561 C   0  0  0  0  0  0  0  0  0  0  0  0
    7.6879    5.2669   23.9890 C   0  0  0  0  0  0  0  0  0  0  0  0
    8.1348    4.2441   23.1354 C   0  0  0  0  0  0  0  0  0  0  0  0
    8.5248    3.0068   23.6625 C   0  0  0  0  0  0  0  0  0  0  0  0
    8.9787    1.9535   22.9345 O   0  0  0  0  0  0  0  0  0  0  0  0
    9.0386    2.0148   21.5126 C   0  0  0  0  0  0  0  0  0  0  0  0
    9.5096    0.6507   21.0085 C   0  0  0  0  0  0  0  0  0  0  0  0
    8.6249   -0.4534   21.4461 C   0  0  0  0  0  0  0  0  0  0  0  0
    8.8672   -1.2936   22.4303 N   0  0  0  0  0  0  0  0  0  0  0  0
    7.6897   -1.9525   22.5602 C   0  0  0  0  0  0  0  0  0  0  0  0
    7.4342   -2.9313   23.6743 C   0  0  0  0  0  0  0  0  0  0  0  0
    6.8464   -4.2638   23.1561 C   0  0  0  0  0  0  0  0  0  0  0  0
    6.4561   -5.1727   24.3205 C   0  0  0  0  0  0  0  0  0  0  0  0
    5.5648   -4.5284   25.2142 O   0  0  0  0  0  0  0  0  0  0  0  0
    6.1412   -3.3790   25.8118 C   0  0  0  0  0  0  0  0  0  0  0  0
    6.5127   -2.3267   24.7690 C   0  0  0  0  0  0  0  0  0  0  0  0
    5.5946   -1.9619   24.3015 H   0  0  0  0  0  0  0  0  0  0  0  0
    6.9935   -1.4677   25.2544 H   0  0  0  0  0  0  0  0  0  0  0  0
    5.3993   -2.9937   26.5162 H   0  0  0  0  0  0  0  0  0  0  0  0
    7.0394   -3.6684   26.3850 H   0  0  0  0  0  0  0  0  0  0  0  0
    7.3628   -5.4907   24.8662 H   0  0  0  0  0  0  0  0  0  0  0  0
    5.9419   -6.0694   23.9666 H   0  0  0  0  0  0  0  0  0  0  0  0
    7.5658   -4.7764   22.5054 H   0  0  0  0  0  0  0  0  0  0  0  0
    5.9559   -4.0454   22.5546 H   0  0  0  0  0  0  0  0  0  0  0  0
    8.4192   -3.1143   24.1177 H   0  0  0  0  0  0  0  0  0  0  0  0
    6.7565   -1.6050   21.6918 N   0  0  0  0  0  0  0  0  0  0  0  0
    7.3711   -0.6517   20.9470 N   0  0  0  0  0  0  0  0  0  0  0  0
    6.6610    0.0118   19.9042 C   0  0  0  0  0  0  0  0  0  0  0  0
    5.4390    0.6405   20.1682 C   0  0  0  0  0  0  0  0  0  0  0  0
    4.8132    1.3083   19.1099 C   0  0  0  0  0  0  0  0  0  0  0  0
    5.4006    1.2966   17.8377 C   0  0  0  0  0  0  0  0  0  0  0  0
    6.5583    0.6716   17.5752 N   0  0  0  0  0  0  0  0  0  0  0  0
    7.1675    0.0519   18.5925 C   0  0  0  0  0  0  0  0  0  0  0  0
    8.1104   -0.4363   18.3627 H   0  0  0  0  0  0  0  0  0  0  0  0
    4.9234    1.7884   16.9926 H   0  0  0  0  0  0  0  0  0  0  0  0
    3.8814    1.8381   19.2585 H   0  0  0  0  0  0  0  0  0  0  0  0
    5.0136    0.6071   21.1763 H   0  0  0  0  0  0  0  0  0  0  0  0
    9.5529    0.6711   19.9194 H   0  0  0  0  0  0  0  0  0  0  0  0
   10.5118    0.4235   21.3700 H   0  0  0  0  0  0  0  0  0  0  0  0
    9.7471    2.7877   21.1909 H   0  0  0  0  0  0  0  0  0  0  0  0
    8.0519    2.2495   21.0884 H   0  0  0  0  0  0  0  0  0  0  0  0
    8.4665    2.7965   25.0540 C   0  0  0  0  0  0  0  0  0  0  0  0
    8.0211    3.8201   25.8759 C   0  0  0  0  0  0  0  0  0  0  0  0
    7.9582    3.6251   27.1967 F   0  0  0  0  0  0  0  0  0  0  0  0
    8.7600    1.8547   25.5030 H   0  0  0  0  0  0  0  0  0  0  0  0
    8.1809    4.4179   22.0660 H   0  0  0  0  0  0  0  0  0  0  0  0
    7.3768    6.2327   23.6063 H   0  0  0  0  0  0  0  0  0  0  0  0
  1  2  1  0
  2  3  2  0
  3  4  1  0
  4  5  2  0
  5  6  1  0
  6  7  1  0
  7  8  1  0
  8  9  1  0
  9 10  2  0
 10 11  1  0
 11 12  1  0
 12 13  1  0
 13 14  1  0
 14 15  1  0
 15 16  1  0
 16 17  1  0
 17 18  1  0
 17 19  1  0
 16 20  1  0
 16 21  1  0
 14 22  1  0
 14 23  1  0
 13 24  1  0
 13 25  1  0
 12 26  1  0
 11 27  2  0
 27 28  1  0
 28 29  1  0
 29 30  2  0
 30 31  1  0
 31 32  2  0
 32 33  1  0
 33 34  2  0
 34 35  1  0
 32 36  1  0
 31 37  1  0
 30 38  1  0
  8 39  1  0
  8 40  1  0
  7 41  1  0
  7 42  1  0
  5 43  1  0
 43 44  2  0
 44 45  1  0
 43 46  1  0
  4 47  1  0
  3 48  1  0
 44  2  1  0
 28  9  1  0
 34 29  1  0
 17 12  1  0
M  END
>  <cnnaffinity>  (1) 
-6.31962

>  <filename>  (1) 
Fc1ccc(OCCc2nc(C3CCOCC3)nn2-c2cccnc2)cc1F

$$$$
