
     RDKit          3D

 40 43  0  0  0  0  0  0  0  0999 V2000
   13.3176   -2.4351   20.1114 F   0  0  0  0  0  0  0  0  0  0  0  0
   12.8613   -1.6104   21.0593 C   0  0  0  0  0  0  0  0  0  0  0  0
   13.7709   -0.8970   21.8268 C   0  0  0  0  0  0  0  0  0  0  0  0
   13.2600    0.0537   22.7054 C   0  0  0  0  0  0  0  0  0  0  0  0
   14.1191    0.7871   23.4252 F   0  0  0  0  0  0  0  0  0  0  0  0
   11.8980    0.2874   22.8500 C   0  0  0  0  0  0  0  0  0  0  0  0
   11.0029   -0.4859   22.0897 C   0  0  0  0  0  0  0  0  0  0  0  0
    9.5478   -0.2154   22.1007 C   0  0  0  0  0  0  0  0  0  0  0  0
    8.6669   -1.0312   21.5437 N   0  0  0  0  0  0  0  0  0  0  0  0
    7.4898   -0.3928   21.7274 N   0  0  0  0  0  0  0  0  0  0  0  0
    6.3029   -0.8656   21.0264 C   0  0  0  0  0  0  0  0  0  0  0  0
    5.9472   -0.0200   19.8259 C   0  0  0  0  0  0  0  0  0  0  0  0
    4.7517    0.6949   19.7178 C   0  0  0  0  0  0  0  0  0  0  0  0
    4.5461    1.4906   18.5876 C   0  0  0  0  0  0  0  0  0  0  0  0
    5.5391    1.5295   17.6053 C   0  0  0  0  0  0  0  0  0  0  0  0
    6.6873    0.8396   17.6854 N   0  0  0  0  0  0  0  0  0  0  0  0
    6.8739    0.0938   18.7781 C   0  0  0  0  0  0  0  0  0  0  0  0
    7.8161   -0.4500   18.8372 H   0  0  0  0  0  0  0  0  0  0  0  0
    5.4089    2.1322   16.7089 H   0  0  0  0  0  0  0  0  0  0  0  0
    3.6487    2.0861   18.4644 H   0  0  0  0  0  0  0  0  0  0  0  0
    3.9957    0.6297   20.5024 H   0  0  0  0  0  0  0  0  0  0  0  0
    5.4802   -0.8960   21.7343 H   0  0  0  0  0  0  0  0  0  0  0  0
    6.5181   -1.8979   20.7344 H   0  0  0  0  0  0  0  0  0  0  0  0
    7.7094    0.7632   22.3932 C   0  0  0  0  0  0  0  0  0  0  0  0
    6.6508    1.6136   23.0394 C   0  0  0  0  0  0  0  0  0  0  0  0
    6.4064    1.1942   24.4788 C   0  0  0  0  0  0  0  0  0  0  0  0
    5.3329    0.7808   25.2265 C   0  0  0  0  0  0  0  0  0  0  0  0
    5.7303    0.4268   26.4947 N   0  0  0  0  0  0  0  0  0  0  0  0
    7.0242    0.6258   26.5247 C   0  0  0  0  0  0  0  0  0  0  0  0
    7.4772    1.1121   25.3406 N   0  0  0  0  0  0  0  0  0  0  0  0
    8.4416    1.2003   25.0480 H   0  0  0  0  0  0  0  0  0  0  0  0
    7.6723    0.4253   27.3690 H   0  0  0  0  0  0  0  0  0  0  0  0
    4.2927    0.7176   24.9344 H   0  0  0  0  0  0  0  0  0  0  0  0
    5.7297    1.5943   22.4493 H   0  0  0  0  0  0  0  0  0  0  0  0
    7.0385    2.6391   23.0272 H   0  0  0  0  0  0  0  0  0  0  0  0
    9.0007    0.9100   22.6291 N   0  0  0  0  0  0  0  0  0  0  0  0
   11.4933   -1.4831   21.2318 C   0  0  0  0  0  0  0  0  0  0  0  0
   10.8088   -2.1216   20.6921 H   0  0  0  0  0  0  0  0  0  0  0  0
   11.5583    1.0634   23.5295 H   0  0  0  0  0  0  0  0  0  0  0  0
   14.8228   -1.0895   21.7295 H   0  0  0  0  0  0  0  0  0  0  0  0
  1  2  1  0
  2  3  2  0
  3  4  1  0
  4  5  1  0
  4  6  2  0
  6  7  1  0
  7  8  1  0
  8  9  2  0
  9 10  1  0
 10 11  1  0
 11 12  1  0
 12 13  2  0
 13 14  1  0
 14 15  2  0
 15 16  1  0
 16 17  2  0
 17 18  1  0
 15 19  1  0
 14 20  1  0
 13 21  1  0
 11 22  1  0
 11 23  1  0
 10 24  1  0
 24 25  1  0
 25 26  1  0
 26 27  2  0
 27 28  1  0
 28 29  2  0
 29 30  1  0
 30 31  1  0
 29 32  1  0
 27 33  1  0
 25 34  1  0
 25 35  1  0
 24 36  2  0
  7 37  2  0
 37 38  1  0
  6 39  1  0
  3 40  1  0
 37  2  1  0
 36  8  1  0
 17 12  1  0
 30 26  1  0
M  END
>  <cnnaffinity>  (1) 
-6.45738

>  <filename>  (1) 
Fc1cc(F)cc(-c2nc(Cc3cnc[nH]3)n(Cc3cccnc3)n2)c1

$$$$
