
     RDKit          3D

 39 42  0  0  0  0  0  0  0  0999 V2000
   14.9277    0.5448   22.4243 F   0  0  0  0  0  0  0  0  0  0  0  0
   13.9134   -0.2014   21.9778 C   0  0  0  0  0  0  0  0  0  0  0  0
   14.1623   -1.3045   21.1616 C   0  0  0  0  0  0  0  0  0  0  0  0
   13.0943   -2.0387   20.6650 C   0  0  0  0  0  0  0  0  0  0  0  0
   11.8017   -1.7248   21.0602 C   0  0  0  0  0  0  0  0  0  0  0  0
   11.5469   -0.5467   21.7730 C   0  0  0  0  0  0  0  0  0  0  0  0
   10.1344   -0.1320   21.8662 C   0  0  0  0  0  0  0  0  0  0  0  0
    9.1627   -0.9231   21.4307 N   0  0  0  0  0  0  0  0  0  0  0  0
    8.0478   -0.2016   21.6385 N   0  0  0  0  0  0  0  0  0  0  0  0
    6.7701   -0.7065   21.1367 C   0  0  0  0  0  0  0  0  0  0  0  0
    6.2473    0.0688   19.9492 C   0  0  0  0  0  0  0  0  0  0  0  0
    5.0498    0.7859   19.9956 C   0  0  0  0  0  0  0  0  0  0  0  0
    4.6366    1.4833   18.8582 C   0  0  0  0  0  0  0  0  0  0  0  0
    5.4421    1.4417   17.7175 C   0  0  0  0  0  0  0  0  0  0  0  0
    6.5959    0.7594   17.6542 N   0  0  0  0  0  0  0  0  0  0  0  0
    6.9822    0.0992   18.7514 C   0  0  0  0  0  0  0  0  0  0  0  0
    7.9236   -0.4462   18.6738 H   0  0  0  0  0  0  0  0  0  0  0  0
    5.1467    1.9715   16.8131 H   0  0  0  0  0  0  0  0  0  0  0  0
    3.7188    2.0588   18.8493 H   0  0  0  0  0  0  0  0  0  0  0  0
    4.4522    0.7945   20.9098 H   0  0  0  0  0  0  0  0  0  0  0  0
    6.9631   -1.7517   20.8720 H   0  0  0  0  0  0  0  0  0  0  0  0
    6.0464   -0.6952   21.9578 H   0  0  0  0  0  0  0  0  0  0  0  0
    8.3873    0.9840   22.1805 C   0  0  0  0  0  0  0  0  0  0  0  0
    7.3873    1.8861   22.8429 C   0  0  0  0  0  0  0  0  0  0  0  0
    7.0314    1.3155   24.2065 C   0  0  0  0  0  0  0  0  0  0  0  0
    7.8875    1.0438   25.2335 C   0  0  0  0  0  0  0  0  0  0  0  0
    7.3721    0.3895   26.3238 N   0  0  0  0  0  0  0  0  0  0  0  0
    6.1143    0.1400   26.1265 C   0  0  0  0  0  0  0  0  0  0  0  0
    5.4819    0.7036   24.6182 S   0  0  0  0  0  0  0  0  0  0  0  0
    5.4843   -0.3888   26.8328 H   0  0  0  0  0  0  0  0  0  0  0  0
    8.9472    1.2750   25.1928 H   0  0  0  0  0  0  0  0  0  0  0  0
    7.8511    2.8741   22.9407 H   0  0  0  0  0  0  0  0  0  0  0  0
    6.5023    1.9891   22.2039 H   0  0  0  0  0  0  0  0  0  0  0  0
    9.6966    1.0646   22.3331 N   0  0  0  0  0  0  0  0  0  0  0  0
   12.6177    0.2169   22.2706 C   0  0  0  0  0  0  0  0  0  0  0  0
   12.4787    1.1491   22.8094 H   0  0  0  0  0  0  0  0  0  0  0  0
   10.9544   -2.3279   20.7532 H   0  0  0  0  0  0  0  0  0  0  0  0
   13.2743   -2.8268   19.9403 H   0  0  0  0  0  0  0  0  0  0  0  0
   15.1496   -1.5884   20.8637 H   0  0  0  0  0  0  0  0  0  0  0  0
  1  2  1  0
  2  3  2  0
  3  4  1  0
  4  5  2  0
  5  6  1  0
  6  7  1  0
  7  8  2  0
  8  9  1  0
  9 10  1  0
 10 11  1  0
 11 12  2  0
 12 13  1  0
 13 14  2  0
 14 15  1  0
 15 16  2  0
 16 17  1  0
 14 18  1  0
 13 19  1  0
 12 20  1  0
 10 21  1  0
 10 22  1  0
  9 23  1  0
 23 24  1  0
 24 25  1  0
 25 26  2  0
 26 27  1  0
 27 28  2  0
 28 29  1  0
 28 30  1  0
 26 31  1  0
 24 32  1  0
 24 33  1  0
 23 34  2  0
  6 35  2  0
 35 36  1  0
  5 37  1  0
  4 38  1  0
  3 39  1  0
 35  2  1  0
 34  7  1  0
 16 11  1  0
 29 25  1  0
M  END
>  <cnnaffinity>  (1) 
-6.42764

>  <filename>  (1) 
Fc1cccc(-c2nc(Cc3cncs3)n(Cc3cccnc3)n2)c1

$$$$
