
     RDKit          3D

 32 34  0  0  0  0  0  0  0  0999 V2000
    6.6808   -1.3376   21.6216 H   0  0  0  0  0  0  0  0  0  0  0  0
    7.3281   -0.7217   20.9938 C   0  0  0  0  0  0  0  0  0  0  0  0
    8.6105   -0.5340   21.3372 C   0  0  0  0  0  0  0  0  0  0  0  0
    9.3666   -1.1498   22.4383 C   0  0  0  0  0  0  0  0  0  0  0  0
    8.8508   -2.3270   23.2026 C   0  0  0  0  0  0  0  0  0  0  0  0
    9.0789   -2.3801   24.5865 C   0  0  0  0  0  0  0  0  0  0  0  0
    9.5998   -1.5768   25.0986 H   0  0  0  0  0  0  0  0  0  0  0  0
    8.6532   -3.4924   25.3004 C   0  0  0  0  0  0  0  0  0  0  0  0
    8.8877   -3.5428   26.6184 F   0  0  0  0  0  0  0  0  0  0  0  0
    8.0018   -4.5692   24.7058 C   0  0  0  0  0  0  0  0  0  0  0  0
    7.6802   -5.4269   25.2869 H   0  0  0  0  0  0  0  0  0  0  0  0
    7.7918   -4.4903   23.3334 C   0  0  0  0  0  0  0  0  0  0  0  0
    7.1715   -5.5131   22.7298 F   0  0  0  0  0  0  0  0  0  0  0  0
    8.1950   -3.3991   22.5661 C   0  0  0  0  0  0  0  0  0  0  0  0
    8.0093   -3.4080   21.4955 H   0  0  0  0  0  0  0  0  0  0  0  0
   10.4827   -0.5742   22.6998 N   0  0  0  0  0  0  0  0  0  0  0  0
   10.6984    0.5142   21.7460 C   0  0  0  0  0  0  0  0  0  0  0  0
   11.6670    0.3726   21.2637 H   0  0  0  0  0  0  0  0  0  0  0  0
   10.7408    1.4537   22.3038 H   0  0  0  0  0  0  0  0  0  0  0  0
    9.5147    0.5158   20.7504 C   0  0  0  0  0  0  0  0  0  0  0  0
    9.7617    0.1852   19.7420 H   0  0  0  0  0  0  0  0  0  0  0  0
    9.0295    1.4929   20.6581 H   0  0  0  0  0  0  0  0  0  0  0  0
    6.6418   -0.0130   19.8941 C   0  0  0  0  0  0  0  0  0  0  0  0
    7.1657    0.0668   18.5895 C   0  0  0  0  0  0  0  0  0  0  0  0
    8.1094   -0.4278   18.3753 H   0  0  0  0  0  0  0  0  0  0  0  0
    6.5632    0.6861   17.5687 N   0  0  0  0  0  0  0  0  0  0  0  0
    5.4008    1.2983   17.8343 C   0  0  0  0  0  0  0  0  0  0  0  0
    4.9135    1.7837   16.9935 H   0  0  0  0  0  0  0  0  0  0  0  0
    4.8003    1.3138   19.1023 C   0  0  0  0  0  0  0  0  0  0  0  0
    3.8681    1.8492   19.2569 H   0  0  0  0  0  0  0  0  0  0  0  0
    5.4231    0.6356   20.1465 C   0  0  0  0  0  0  0  0  0  0  0  0
    5.0067    0.6242   21.1601 H   0  0  0  0  0  0  0  0  0  0  0  0
  1  2  1  0
  2  3  2  3
  3  4  1  0
  4  5  1  0
  5  6  2  0
  6  7  1  0
  6  8  1  0
  8  9  1  0
  8 10  2  0
 10 11  1  0
 10 12  1  0
 12 13  1  0
 12 14  2  0
 14 15  1  0
  4 16  2  0
 16 17  1  0
 17 18  1  0
 17 19  1  0
 17 20  1  0
 20 21  1  0
 20 22  1  0
  2 23  1  0
 23 24  2  0
 24 25  1  0
 24 26  1  0
 26 27  2  0
 27 28  1  0
 27 29  1  0
 29 30  1  0
 29 31  2  0
 31 32  1  0
 20  3  1  0
 31 23  1  0
 14  5  1  0
M  END
>  <cnnaffinity>  (1) 
-5.48256

>  <filename>  (1) 
Fc1cc(F)cc(C2=NCCC2=Cc2cccnc2)c1

$$$$
