
     RDKit          3D

 41 44  0  0  0  0  0  0  0  0999 V2000
   14.0313   -2.3382   20.9106 F   0  0  0  0  0  0  0  0  0  0  0  0
   13.3209   -1.4061   21.5588 C   0  0  0  0  0  0  0  0  0  0  0  0
   13.9711   -0.5043   22.4122 C   0  0  0  0  0  0  0  0  0  0  0  0
   13.3200    0.4525   23.0825 N   0  0  0  0  0  0  0  0  0  0  0  0
   11.9983    0.5429   22.9148 C   0  0  0  0  0  0  0  0  0  0  0  0
   11.2724   -0.3056   22.0702 C   0  0  0  0  0  0  0  0  0  0  0  0
    9.8328   -0.0618   22.0113 C   0  0  0  0  0  0  0  0  0  0  0  0
    8.9365   -0.8969   21.5285 N   0  0  0  0  0  0  0  0  0  0  0  0
    7.7636   -0.2463   21.7403 N   0  0  0  0  0  0  0  0  0  0  0  0
    6.5290   -0.7539   21.1382 C   0  0  0  0  0  0  0  0  0  0  0  0
    6.0931    0.0332   19.9158 C   0  0  0  0  0  0  0  0  0  0  0  0
    4.9070    0.7715   19.8437 C   0  0  0  0  0  0  0  0  0  0  0  0
    4.6529    1.5271   18.6944 C   0  0  0  0  0  0  0  0  0  0  0  0
    5.5790    1.4899   17.6486 C   0  0  0  0  0  0  0  0  0  0  0  0
    6.7045    0.7604   17.6832 N   0  0  0  0  0  0  0  0  0  0  0  0
    6.9455    0.0634   18.7984 C   0  0  0  0  0  0  0  0  0  0  0  0
    7.8596   -0.5297   18.8049 H   0  0  0  0  0  0  0  0  0  0  0  0
    5.4159    2.0740   16.7442 H   0  0  0  0  0  0  0  0  0  0  0  0
    3.7620    2.1382   18.5965 H   0  0  0  0  0  0  0  0  0  0  0  0
    4.1909    0.7530   20.6686 H   0  0  0  0  0  0  0  0  0  0  0  0
    6.7437   -1.7968   20.8741 H   0  0  0  0  0  0  0  0  0  0  0  0
    5.7558   -0.7469   21.9107 H   0  0  0  0  0  0  0  0  0  0  0  0
    8.0153    0.9355   22.3509 C   0  0  0  0  0  0  0  0  0  0  0  0
    7.0003    1.7944   23.0425 C   0  0  0  0  0  0  0  0  0  0  0  0
    6.7756    1.2895   24.4590 C   0  0  0  0  0  0  0  0  0  0  0  0
    7.7664    1.4747   25.4325 C   0  0  0  0  0  0  0  0  0  0  0  0
    7.6239    0.8554   26.6744 C   0  0  0  0  0  0  0  0  0  0  0  0
    6.5771    0.0842   26.9980 N   0  0  0  0  0  0  0  0  0  0  0  0
    5.6132   -0.0546   26.0812 C   0  0  0  0  0  0  0  0  0  0  0  0
    5.6560    0.5454   24.8200 C   0  0  0  0  0  0  0  0  0  0  0  0
    4.8124    0.4442   24.1505 H   0  0  0  0  0  0  0  0  0  0  0  0
    4.7660   -0.6756   26.3652 H   0  0  0  0  0  0  0  0  0  0  0  0
    8.3829    0.9755   27.4458 H   0  0  0  0  0  0  0  0  0  0  0  0
    8.6474    2.0672   25.2143 H   0  0  0  0  0  0  0  0  0  0  0  0
    7.4019    2.8097   23.0711 H   0  0  0  0  0  0  0  0  0  0  0  0
    6.0738    1.8350   22.4657 H   0  0  0  0  0  0  0  0  0  0  0  0
    9.3139    1.0905   22.5063 N   0  0  0  0  0  0  0  0  0  0  0  0
   11.9491   -1.3224   21.3735 C   0  0  0  0  0  0  0  0  0  0  0  0
   11.4425   -2.0476   20.7465 H   0  0  0  0  0  0  0  0  0  0  0  0
   11.4728    1.3122   23.4692 H   0  0  0  0  0  0  0  0  0  0  0  0
   15.0422   -0.5683   22.5480 H   0  0  0  0  0  0  0  0  0  0  0  0
  1  2  1  0
  2  3  2  0
  3  4  1  0
  4  5  2  0
  5  6  1  0
  6  7  1  0
  7  8  2  0
  8  9  1  0
  9 10  1  0
 10 11  1  0
 11 12  2  0
 12 13  1  0
 13 14  2  0
 14 15  1  0
 15 16  2  0
 16 17  1  0
 14 18  1  0
 13 19  1  0
 12 20  1  0
 10 21  1  0
 10 22  1  0
  9 23  1  0
 23 24  1  0
 24 25  1  0
 25 26  2  0
 26 27  1  0
 27 28  2  0
 28 29  1  0
 29 30  2  0
 30 31  1  0
 29 32  1  0
 27 33  1  0
 26 34  1  0
 24 35  1  0
 24 36  1  0
 23 37  2  0
  6 38  2  0
 38 39  1  0
  5 40  1  0
  3 41  1  0
 38  2  1  0
 37  7  1  0
 16 11  1  0
 30 25  1  0
M  END
>  <cnnaffinity>  (1) 
-6.24985

>  <filename>  (1) 
Fc1cncc(-c2nc(Cc3ccncc3)n(Cc3cccnc3)n2)c1

$$$$
