
     RDKit          3D

 41 44  0  0  0  0  0  0  0  0999 V2000
   13.2799    1.7006   24.5289 F   0  0  0  0  0  0  0  0  0  0  0  0
   12.4506    1.4022   23.5260 C   0  0  0  0  0  0  0  0  0  0  0  0
   12.7443    0.3279   22.6983 C   0  0  0  0  0  0  0  0  0  0  0  0
   11.8161   -0.0353   21.7161 C   0  0  0  0  0  0  0  0  0  0  0  0
   10.6213    0.6728   21.5563 C   0  0  0  0  0  0  0  0  0  0  0  0
    9.5686    0.1451   20.6134 C   0  0  0  0  0  0  0  0  0  0  0  0
    8.5259   -0.6802   21.3000 C   0  0  0  0  0  0  0  0  0  0  0  0
    8.7204   -1.5034   22.3037 N   0  0  0  0  0  0  0  0  0  0  0  0
    7.4931   -2.0556   22.5063 C   0  0  0  0  0  0  0  0  0  0  0  0
    7.3288   -2.9843   23.6943 C   0  0  0  0  0  0  0  0  0  0  0  0
    6.8490   -2.2310   24.9730 C   0  0  0  0  0  0  0  0  0  0  0  0
    5.9795   -3.2718   25.6832 C   0  0  0  0  0  0  0  0  0  0  0  0
    5.4221   -4.0653   24.5034 C   0  0  0  0  0  0  0  0  0  0  0  0
    6.4557   -4.0953   23.5224 O   0  0  0  0  0  0  0  0  0  0  0  0
    4.5347   -3.5734   24.0783 H   0  0  0  0  0  0  0  0  0  0  0  0
    5.1628   -5.0962   24.7656 H   0  0  0  0  0  0  0  0  0  0  0  0
    6.5836   -3.9137   26.3379 H   0  0  0  0  0  0  0  0  0  0  0  0
    5.1835   -2.8168   26.2832 H   0  0  0  0  0  0  0  0  0  0  0  0
    6.2442   -1.3578   24.6893 H   0  0  0  0  0  0  0  0  0  0  0  0
    7.6949   -1.8780   25.5748 H   0  0  0  0  0  0  0  0  0  0  0  0
    8.3415   -3.3787   23.8384 H   0  0  0  0  0  0  0  0  0  0  0  0
    6.5480   -1.6138   21.6974 N   0  0  0  0  0  0  0  0  0  0  0  0
    7.2265   -0.7636   20.8841 N   0  0  0  0  0  0  0  0  0  0  0  0
    6.5679   -0.0608   19.8402 C   0  0  0  0  0  0  0  0  0  0  0  0
    5.3778    0.6194   20.1058 C   0  0  0  0  0  0  0  0  0  0  0  0
    4.7847    1.3310   19.0603 C   0  0  0  0  0  0  0  0  0  0  0  0
    5.3884    1.3308   17.7947 C   0  0  0  0  0  0  0  0  0  0  0  0
    6.5234    0.6652   17.5294 N   0  0  0  0  0  0  0  0  0  0  0  0
    7.0920   -0.0089   18.5353 C   0  0  0  0  0  0  0  0  0  0  0  0
    8.0255   -0.5171   18.3061 H   0  0  0  0  0  0  0  0  0  0  0  0
    4.9462    1.8731   16.9614 H   0  0  0  0  0  0  0  0  0  0  0  0
    3.8627    1.8817   19.2105 H   0  0  0  0  0  0  0  0  0  0  0  0
    4.9503    0.5918   21.1105 H   0  0  0  0  0  0  0  0  0  0  0  0
   10.0202   -0.5207   19.8696 H   0  0  0  0  0  0  0  0  0  0  0  0
    9.0928    0.9720   20.0813 H   0  0  0  0  0  0  0  0  0  0  0  0
   10.3649    1.8044   22.3477 C   0  0  0  0  0  0  0  0  0  0  0  0
   11.2836    2.1572   23.3342 C   0  0  0  0  0  0  0  0  0  0  0  0
   11.0471    3.2055   24.1331 F   0  0  0  0  0  0  0  0  0  0  0  0
    9.4583    2.4067   22.2424 H   0  0  0  0  0  0  0  0  0  0  0  0
   12.0214   -0.8947   21.0772 H   0  0  0  0  0  0  0  0  0  0  0  0
   13.6703   -0.2190   22.8489 H   0  0  0  0  0  0  0  0  0  0  0  0
  1  2  1  0
  2  3  2  0
  3  4  1  0
  4  5  2  0
  5  6  1  0
  6  7  1  0
  7  8  2  0
  8  9  1  0
  9 10  1  0
 10 11  1  0
 11 12  1  0
 12 13  1  0
 13 14  1  0
 13 15  1  0
 13 16  1  0
 12 17  1  0
 12 18  1  0
 11 19  1  0
 11 20  1  0
 10 21  1  0
  9 22  2  0
 22 23  1  0
 23 24  1  0
 24 25  2  0
 25 26  1  0
 26 27  2  0
 27 28  1  0
 28 29  2  0
 29 30  1  0
 27 31  1  0
 26 32  1  0
 25 33  1  0
  6 34  1  0
  6 35  1  0
  5 36  1  0
 36 37  2  0
 37 38  1  0
 36 39  1  0
  4 40  1  0
  3 41  1  0
 37  2  1  0
 23  7  1  0
 29 24  1  0
 14 10  1  0
M  END
>  <cnnaffinity>  (1) 
-6.47996

>  <filename>  (1) 
Fc1ccc(Cc2nc(C3CCCO3)nn2-c2cccnc2)cc1F

$$$$
