
     RDKit          3D

 42 45  0  0  0  0  0  0  0  0999 V2000
    4.9625   -0.7030   26.0801 F   0  0  0  0  0  0  0  0  0  0  0  0
    6.1084   -0.0740   25.7638 C   0  0  0  0  0  0  0  0  0  0  0  0
    7.1738   -0.1300   26.6593 C   0  0  0  0  0  0  0  0  0  0  0  0
    8.3614    0.5310   26.3246 C   0  0  0  0  0  0  0  0  0  0  0  0
    8.4646    1.2208   25.1155 C   0  0  0  0  0  0  0  0  0  0  0  0
    7.3883    1.2521   24.2078 C   0  0  0  0  0  0  0  0  0  0  0  0
    7.6007    1.8906   22.8307 C   0  0  0  0  0  0  0  0  0  0  0  0
    8.5850    1.0757   22.0417 C   0  0  0  0  0  0  0  0  0  0  0  0
    9.8978    1.2171   22.1349 N   0  0  0  0  0  0  0  0  0  0  0  0
   10.3749    0.0304   21.6835 C   0  0  0  0  0  0  0  0  0  0  0  0
   11.8167   -0.3767   21.7504 C   0  0  0  0  0  0  0  0  0  0  0  0
   12.8222    0.4497   22.2942 C   0  0  0  0  0  0  0  0  0  0  0  0
   14.1393   -0.0182   22.2982 C   0  0  0  0  0  0  0  0  0  0  0  0
   14.5058   -1.2078   21.8101 N   0  0  0  0  0  0  0  0  0  0  0  0
   13.5623   -1.9887   21.2786 C   0  0  0  0  0  0  0  0  0  0  0  0
   12.2139   -1.6365   21.2611 C   0  0  0  0  0  0  0  0  0  0  0  0
   11.4647   -2.2987   20.8557 H   0  0  0  0  0  0  0  0  0  0  0  0
   13.9228   -2.9068   20.8249 H   0  0  0  0  0  0  0  0  0  0  0  0
   14.9480    0.5833   22.7082 H   0  0  0  0  0  0  0  0  0  0  0  0
   12.6091    1.4481   22.6654 H   0  0  0  0  0  0  0  0  0  0  0  0
    9.4307   -0.8004   21.2689 N   0  0  0  0  0  0  0  0  0  0  0  0
    8.2904   -0.1148   21.4818 N   0  0  0  0  0  0  0  0  0  0  0  0
    7.0104   -0.6860   21.0635 C   0  0  0  0  0  0  0  0  0  0  0  0
    6.3559    0.0505   19.9125 C   0  0  0  0  0  0  0  0  0  0  0  0
    5.1379    0.7300   20.0179 C   0  0  0  0  0  0  0  0  0  0  0  0
    4.6449    1.4163   18.9041 C   0  0  0  0  0  0  0  0  0  0  0  0
    5.3825    1.3870   17.7179 C   0  0  0  0  0  0  0  0  0  0  0  0
    6.5349    0.7113   17.5857 N   0  0  0  0  0  0  0  0  0  0  0  0
    7.0011    0.0730   18.6645 C   0  0  0  0  0  0  0  0  0  0  0  0
    7.9461   -0.4545   18.5363 H   0  0  0  0  0  0  0  0  0  0  0  0
    5.0395    1.9283   16.8364 H   0  0  0  0  0  0  0  0  0  0  0  0
    3.7286    1.9943   18.9475 H   0  0  0  0  0  0  0  0  0  0  0  0
    4.5847    0.7344   20.9591 H   0  0  0  0  0  0  0  0  0  0  0  0
    6.3489   -0.7244   21.9355 H   0  0  0  0  0  0  0  0  0  0  0  0
    7.2414   -1.7170   20.7776 H   0  0  0  0  0  0  0  0  0  0  0  0
    8.0346    2.8876   22.9408 H   0  0  0  0  0  0  0  0  0  0  0  0
    6.6614    1.9944   22.2801 H   0  0  0  0  0  0  0  0  0  0  0  0
    6.1946    0.6111   24.5519 C   0  0  0  0  0  0  0  0  0  0  0  0
    5.3233    0.6206   23.9021 H   0  0  0  0  0  0  0  0  0  0  0  0
    9.3997    1.6997   24.8338 H   0  0  0  0  0  0  0  0  0  0  0  0
    9.2133    0.4937   27.0021 H   0  0  0  0  0  0  0  0  0  0  0  0
    7.0606   -0.6775   27.5880 H   0  0  0  0  0  0  0  0  0  0  0  0
  1  2  1  0
  2  3  2  0
  3  4  1  0
  4  5  2  0
  5  6  1  0
  6  7  1  0
  7  8  1  0
  8  9  2  0
  9 10  1  0
 10 11  1  0
 11 12  2  0
 12 13  1  0
 13 14  2  0
 14 15  1  0
 15 16  2  0
 16 17  1  0
 15 18  1  0
 13 19  1  0
 12 20  1  0
 10 21  2  0
 21 22  1  0
 22 23  1  0
 23 24  1  0
 24 25  2  0
 25 26  1  0
 26 27  2  0
 27 28  1  0
 28 29  2  0
 29 30  1  0
 27 31  1  0
 26 32  1  0
 25 33  1  0
 23 34  1  0
 23 35  1  0
  7 36  1  0
  7 37  1  0
  6 38  2  0
 38 39  1  0
  5 40  1  0
  4 41  1  0
  3 42  1  0
 38  2  1  0
 22  8  1  0
 29 24  1  0
 16 11  1  0
M  END
>  <cnnaffinity>  (1) 
-6.57374

>  <filename>  (1) 
Fc1cccc(Cc2nc(-c3ccncc3)nn2Cc2cccnc2)c1

$$$$
