
     RDKit          3D

 39 42  0  0  0  0  0  0  0  0999 V2000
   13.7359    1.9756   23.7184 F   0  0  0  0  0  0  0  0  0  0  0  0
   13.1644    0.9770   23.0352 C   0  0  0  0  0  0  0  0  0  0  0  0
   13.9585   -0.0542   22.5514 C   0  0  0  0  0  0  0  0  0  0  0  0
   13.3139   -1.0764   21.8541 C   0  0  0  0  0  0  0  0  0  0  0  0
   14.0527   -2.0765   21.3556 F   0  0  0  0  0  0  0  0  0  0  0  0
   11.9406   -1.0870   21.6240 C   0  0  0  0  0  0  0  0  0  0  0  0
   11.1678   -0.0236   22.1313 C   0  0  0  0  0  0  0  0  0  0  0  0
    9.6955    0.0693   21.9548 C   0  0  0  0  0  0  0  0  0  0  0  0
    8.9164   -0.8717   21.4515 N   0  0  0  0  0  0  0  0  0  0  0  0
    7.6716   -0.3669   21.6496 N   0  0  0  0  0  0  0  0  0  0  0  0
    6.4798   -0.9620   21.0483 C   0  0  0  0  0  0  0  0  0  0  0  0
    5.9983   -0.1534   19.8580 C   0  0  0  0  0  0  0  0  0  0  0  0
    4.8198    0.6015   19.8417 C   0  0  0  0  0  0  0  0  0  0  0  0
    4.5651    1.4225   18.7354 C   0  0  0  0  0  0  0  0  0  0  0  0
    5.4780    1.4288   17.6761 C   0  0  0  0  0  0  0  0  0  0  0  0
    6.6014    0.6953   17.6651 N   0  0  0  0  0  0  0  0  0  0  0  0
    6.8480   -0.0598   18.7416 C   0  0  0  0  0  0  0  0  0  0  0  0
    7.7795   -0.6283   18.7341 H   0  0  0  0  0  0  0  0  0  0  0  0
    5.3000    2.0401   16.7909 H   0  0  0  0  0  0  0  0  0  0  0  0
    3.6920    2.0646   18.6913 H   0  0  0  0  0  0  0  0  0  0  0  0
    4.1056    0.5530   20.6695 H   0  0  0  0  0  0  0  0  0  0  0  0
    5.7097   -1.0357   21.8249 H   0  0  0  0  0  0  0  0  0  0  0  0
    6.7693   -1.9767   20.7638 H   0  0  0  0  0  0  0  0  0  0  0  0
    7.7658    0.8315   22.2577 C   0  0  0  0  0  0  0  0  0  0  0  0
    6.6505    1.5179   22.9803 C   0  0  0  0  0  0  0  0  0  0  0  0
    6.6033    0.9811   24.3831 C   0  0  0  0  0  0  0  0  0  0  0  0
    7.4590    1.1391   25.4245 C   0  0  0  0  0  0  0  0  0  0  0  0
    6.9342    0.2713   26.4181 C   0  0  0  0  0  0  0  0  0  0  0  0
    5.8574   -0.3456   25.9997 N   0  0  0  0  0  0  0  0  0  0  0  0
    5.6532    0.1008   24.7099 O   0  0  0  0  0  0  0  0  0  0  0  0
    7.2986    0.0600   27.4193 H   0  0  0  0  0  0  0  0  0  0  0  0
    8.3520    1.7423   25.4358 H   0  0  0  0  0  0  0  0  0  0  0  0
    5.6990    1.3897   22.4631 H   0  0  0  0  0  0  0  0  0  0  0  0
    6.9016    2.5787   23.0180 H   0  0  0  0  0  0  0  0  0  0  0  0
    9.0209    1.1598   22.4214 N   0  0  0  0  0  0  0  0  0  0  0  0
   11.7937    1.0077   22.8566 C   0  0  0  0  0  0  0  0  0  0  0  0
   11.2042    1.8148   23.2776 H   0  0  0  0  0  0  0  0  0  0  0  0
   11.4948   -1.9120   21.0755 H   0  0  0  0  0  0  0  0  0  0  0  0
   15.0285   -0.0144   22.6772 H   0  0  0  0  0  0  0  0  0  0  0  0
  1  2  1  0
  2  3  2  0
  3  4  1  0
  4  5  1  0
  4  6  2  0
  6  7  1  0
  7  8  1  0
  8  9  2  0
  9 10  1  0
 10 11  1  0
 11 12  1  0
 12 13  2  0
 13 14  1  0
 14 15  2  0
 15 16  1  0
 16 17  2  0
 17 18  1  0
 15 19  1  0
 14 20  1  0
 13 21  1  0
 11 22  1  0
 11 23  1  0
 10 24  1  0
 24 25  1  0
 25 26  1  0
 26 27  2  0
 27 28  1  0
 28 29  2  0
 29 30  1  0
 28 31  1  0
 27 32  1  0
 25 33  1  0
 25 34  1  0
 24 35  2  0
  7 36  2  0
 36 37  1  0
  6 38  1  0
  3 39  1  0
 36  2  1  0
 35  8  1  0
 17 12  1  0
 30 26  1  0
M  END
>  <cnnaffinity>  (1) 
-6.26246

>  <filename>  (1) 
Fc1cc(F)cc(-c2nc(Cc3ccno3)n(Cc3cccnc3)n2)c1

$$$$
