
     RDKit          3D

 30 32  0  0  0  0  0  0  0  0999 V2000
    4.9273    1.8151   16.9714 H   0  0  0  0  0  0  0  0  0  0  0  0
    5.3842    1.2985   17.8141 C   0  0  0  0  0  0  0  0  0  0  0  0
    6.5437    0.6706   17.5582 N   0  0  0  0  0  0  0  0  0  0  0  0
    7.1530    0.0638   18.5839 C   0  0  0  0  0  0  0  0  0  0  0  0
    8.0966   -0.4261   18.3351 H   0  0  0  0  0  0  0  0  0  0  0  0
    6.6595    0.0479   19.9026 C   0  0  0  0  0  0  0  0  0  0  0  0
    7.3624   -0.6768   21.0125 C   0  0  0  0  0  0  0  0  0  0  0  0
    7.7535   -0.0957   22.2500 C   0  0  0  0  0  0  0  0  0  0  0  0
    7.5537    1.3713   22.5249 C   0  0  0  0  0  0  0  0  0  0  0  0
    7.9852    2.3514   21.6044 C   0  0  0  0  0  0  0  0  0  0  0  0
    8.4083    2.0401   20.6504 H   0  0  0  0  0  0  0  0  0  0  0  0
    7.8034    3.7086   21.8951 C   0  0  0  0  0  0  0  0  0  0  0  0
    8.1961    4.4814   21.2347 H   0  0  0  0  0  0  0  0  0  0  0  0
    7.1135    4.0986   23.0455 C   0  0  0  0  0  0  0  0  0  0  0  0
    6.9201    5.1389   23.2659 H   0  0  0  0  0  0  0  0  0  0  0  0
    6.6741    3.1230   23.9351 C   0  0  0  0  0  0  0  0  0  0  0  0
    6.0457    3.4962   25.0638 F   0  0  0  0  0  0  0  0  0  0  0  0
    6.8986    1.7720   23.7046 C   0  0  0  0  0  0  0  0  0  0  0  0
    6.5509    1.0504   24.4383 H   0  0  0  0  0  0  0  0  0  0  0  0
    8.2975   -0.8276   23.2428 N   0  0  0  0  0  0  0  0  0  0  0  0
    8.5686   -2.1156   23.0245 C   0  0  0  0  0  0  0  0  0  0  0  0
    9.0383   -2.6542   23.8515 H   0  0  0  0  0  0  0  0  0  0  0  0
    8.2407   -2.7654   21.8326 C   0  0  0  0  0  0  0  0  0  0  0  0
    8.4932   -3.8075   21.7133 H   0  0  0  0  0  0  0  0  0  0  0  0
    7.5718   -2.0475   20.8450 C   0  0  0  0  0  0  0  0  0  0  0  0
    7.1366   -2.5041   19.9578 H   0  0  0  0  0  0  0  0  0  0  0  0
    5.4329    0.6834   20.1371 C   0  0  0  0  0  0  0  0  0  0  0  0
    5.0212    0.6676   21.1466 H   0  0  0  0  0  0  0  0  0  0  0  0
    4.7847    1.3184   19.0765 C   0  0  0  0  0  0  0  0  0  0  0  0
    3.8506    1.8506   19.2147 H   0  0  0  0  0  0  0  0  0  0  0  0
  1  2  1  0
  2  3  2  0
  3  4  1  0
  4  5  1  0
  4  6  2  0
  6  7  1  0
  7  8  1  0
  8  9  1  0
  9 10  2  0
 10 11  1  0
 10 12  1  0
 12 13  1  0
 12 14  2  0
 14 15  1  0
 14 16  1  0
 16 17  1  0
 16 18  2  0
 18 19  1  0
  8 20  2  0
 20 21  1  0
 21 22  1  0
 21 23  2  0
 23 24  1  0
 23 25  1  0
 25 26  1  0
  6 27  1  0
 27 28  1  0
 27 29  2  0
 29 30  1  0
 29  2  1  0
 25  7  2  0
 18  9  1  0
M  END
>  <cnnaffinity>  (1) 
-4.50316

>  <filename>  (1) 
Fc1cccc(-c2ncccc2-c2cccnc2)c1

$$$$
