
     RDKit          3D

 40 43  0  0  0  0  0  0  0  0999 V2000
   14.5779   -1.8237   21.1358 F   0  0  0  0  0  0  0  0  0  0  0  0
   13.7619   -0.9410   21.7168 C   0  0  0  0  0  0  0  0  0  0  0  0
   14.2937    0.0990   22.4865 C   0  0  0  0  0  0  0  0  0  0  0  0
   13.5430    1.0105   23.1105 N   0  0  0  0  0  0  0  0  0  0  0  0
   12.2259    0.9625   22.9084 C   0  0  0  0  0  0  0  0  0  0  0  0
   11.6127   -0.0097   22.1005 C   0  0  0  0  0  0  0  0  0  0  0  0
   10.1764    0.1241   21.8985 C   0  0  0  0  0  0  0  0  0  0  0  0
    9.3705   -0.7609   21.3407 N   0  0  0  0  0  0  0  0  0  0  0  0
    8.1462   -0.1990   21.5125 N   0  0  0  0  0  0  0  0  0  0  0  0
    6.9391   -0.8370   21.0056 C   0  0  0  0  0  0  0  0  0  0  0  0
    6.3269   -0.0631   19.8605 C   0  0  0  0  0  0  0  0  0  0  0  0
    5.1180    0.6329   19.9549 C   0  0  0  0  0  0  0  0  0  0  0  0
    4.6831    1.3854   18.8586 C   0  0  0  0  0  0  0  0  0  0  0  0
    5.4775    1.4166   17.7095 C   0  0  0  0  0  0  0  0  0  0  0  0
    6.6392    0.7535   17.6017 N   0  0  0  0  0  0  0  0  0  0  0  0
    7.0496    0.0508   18.6628 C   0  0  0  0  0  0  0  0  0  0  0  0
    8.0188   -0.4397   18.5691 H   0  0  0  0  0  0  0  0  0  0  0  0
    5.1747    2.0028   16.8414 H   0  0  0  0  0  0  0  0  0  0  0  0
    3.7635    1.9581   18.8889 H   0  0  0  0  0  0  0  0  0  0  0  0
    4.5361    0.6124   20.8793 H   0  0  0  0  0  0  0  0  0  0  0  0
    7.2306   -1.8455   20.6969 H   0  0  0  0  0  0  0  0  0  0  0  0
    6.2192   -0.9430   21.8244 H   0  0  0  0  0  0  0  0  0  0  0  0
    8.2791    0.9942   22.1289 C   0  0  0  0  0  0  0  0  0  0  0  0
    7.1623    1.7567   22.7815 C   0  0  0  0  0  0  0  0  0  0  0  0
    6.9005    1.2042   24.1570 C   0  0  0  0  0  0  0  0  0  0  0  0
    5.8139    0.5773   24.7101 C   0  0  0  0  0  0  0  0  0  0  0  0
    6.2239    0.0548   25.9706 C   0  0  0  0  0  0  0  0  0  0  0  0
    7.5398    0.3961   26.1503 C   0  0  0  0  0  0  0  0  0  0  0  0
    7.9311    1.1166   25.0533 N   0  0  0  0  0  0  0  0  0  0  0  0
    8.8828    1.3077   24.7725 H   0  0  0  0  0  0  0  0  0  0  0  0
    8.2260    0.1797   26.9607 H   0  0  0  0  0  0  0  0  0  0  0  0
    5.6135   -0.5200   26.6529 H   0  0  0  0  0  0  0  0  0  0  0  0
    4.8410    0.4833   24.2463 H   0  0  0  0  0  0  0  0  0  0  0  0
    6.2500    1.7341   22.1826 H   0  0  0  0  0  0  0  0  0  0  0  0
    7.4880    2.7974   22.8438 H   0  0  0  0  0  0  0  0  0  0  0  0
    9.5495    1.2338   22.3716 N   0  0  0  0  0  0  0  0  0  0  0  0
   12.3929   -1.0183   21.5075 C   0  0  0  0  0  0  0  0  0  0  0  0
   11.9548   -1.8132   20.9086 H   0  0  0  0  0  0  0  0  0  0  0  0
   11.6283    1.7464   23.3638 H   0  0  0  0  0  0  0  0  0  0  0  0
   15.3590    0.2181   22.5564 H   0  0  0  0  0  0  0  0  0  0  0  0
  1  2  1  0
  2  3  2  0
  3  4  1  0
  4  5  2  0
  5  6  1  0
  6  7  1  0
  7  8  2  0
  8  9  1  0
  9 10  1  0
 10 11  1  0
 11 12  2  0
 12 13  1  0
 13 14  2  0
 14 15  1  0
 15 16  2  0
 16 17  1  0
 14 18  1  0
 13 19  1  0
 12 20  1  0
 10 21  1  0
 10 22  1  0
  9 23  1  0
 23 24  1  0
 24 25  1  0
 25 26  2  0
 26 27  1  0
 27 28  2  0
 28 29  1  0
 29 30  1  0
 28 31  1  0
 27 32  1  0
 26 33  1  0
 24 34  1  0
 24 35  1  0
 23 36  2  0
  6 37  2  0
 37 38  1  0
  5 39  1  0
  3 40  1  0
 37  2  1  0
 36  7  1  0
 16 11  1  0
 29 25  1  0
M  END
>  <cnnaffinity>  (1) 
-6.55869

>  <filename>  (1) 
Fc1cncc(-c2nc(Cc3ccc[nH]3)n(Cc3cccnc3)n2)c1

$$$$
