
     RDKit          3D

 43 46  0  0  0  0  0  0  0  0999 V2000
   11.2121    2.2849   23.2167 F   0  0  0  0  0  0  0  0  0  0  0  0
    9.9837    2.1324   23.7591 C   0  0  0  0  0  0  0  0  0  0  0  0
    9.8926    2.0318   25.1454 C   0  0  0  0  0  0  0  0  0  0  0  0
    8.6267    1.9330   25.7294 C   0  0  0  0  0  0  0  0  0  0  0  0
    7.4876    1.8741   24.9232 C   0  0  0  0  0  0  0  0  0  0  0  0
    7.6137    1.9241   23.5321 C   0  0  0  0  0  0  0  0  0  0  0  0
    8.8667    2.0774   22.9093 C   0  0  0  0  0  0  0  0  0  0  0  0
    9.0404    2.0043   21.4027 C   0  0  0  0  0  0  0  0  0  0  0  0
    9.5292    0.6031   20.9341 C   0  0  0  0  0  0  0  0  0  0  0  0
    8.6455   -0.5135   21.3953 C   0  0  0  0  0  0  0  0  0  0  0  0
    8.8763   -1.3434   22.3943 N   0  0  0  0  0  0  0  0  0  0  0  0
    7.6539   -1.9070   22.6182 C   0  0  0  0  0  0  0  0  0  0  0  0
    7.4242   -2.8272   23.7745 C   0  0  0  0  0  0  0  0  0  0  0  0
    7.0353   -2.0842   25.0475 C   0  0  0  0  0  0  0  0  0  0  0  0
    6.2623   -2.7174   26.1626 C   0  0  0  0  0  0  0  0  0  0  0  0
    5.6051   -1.7084   25.2616 C   0  0  0  0  0  0  0  0  0  0  0  0
    5.3573   -0.7074   25.6038 H   0  0  0  0  0  0  0  0  0  0  0  0
    4.8817   -2.1289   24.5717 H   0  0  0  0  0  0  0  0  0  0  0  0
    6.4935   -2.4547   27.1942 H   0  0  0  0  0  0  0  0  0  0  0  0
    5.9386   -3.7451   26.0323 H   0  0  0  0  0  0  0  0  0  0  0  0
    7.7661   -1.3511   25.3818 H   0  0  0  0  0  0  0  0  0  0  0  0
    8.3432   -3.3937   23.9313 H   0  0  0  0  0  0  0  0  0  0  0  0
    6.6449   -3.5430   23.4951 H   0  0  0  0  0  0  0  0  0  0  0  0
    6.7105   -1.5252   21.7807 N   0  0  0  0  0  0  0  0  0  0  0  0
    7.3559   -0.6495   20.9619 N   0  0  0  0  0  0  0  0  0  0  0  0
    6.6678   -0.0079   19.8946 C   0  0  0  0  0  0  0  0  0  0  0  0
    5.4476    0.6311   20.1473 C   0  0  0  0  0  0  0  0  0  0  0  0
    4.8160    1.3068   19.1022 C   0  0  0  0  0  0  0  0  0  0  0  0
    5.4131    1.2969   17.8372 C   0  0  0  0  0  0  0  0  0  0  0  0
    6.5595    0.6530   17.5694 N   0  0  0  0  0  0  0  0  0  0  0  0
    7.1702    0.0173   18.5772 C   0  0  0  0  0  0  0  0  0  0  0  0
    8.1023   -0.4975   18.3312 H   0  0  0  0  0  0  0  0  0  0  0  0
    4.9472    1.8251   17.0086 H   0  0  0  0  0  0  0  0  0  0  0  0
    3.8844    1.8400   19.2612 H   0  0  0  0  0  0  0  0  0  0  0  0
    5.0192    0.5797   21.1481 H   0  0  0  0  0  0  0  0  0  0  0  0
   10.5335    0.4223   21.3248 H   0  0  0  0  0  0  0  0  0  0  0  0
    9.5911    0.5853   19.8439 H   0  0  0  0  0  0  0  0  0  0  0  0
    8.0991    2.2566   20.8938 H   0  0  0  0  0  0  0  0  0  0  0  0
    9.7764    2.7476   21.0811 H   0  0  0  0  0  0  0  0  0  0  0  0
    6.7256    1.7994   22.9156 H   0  0  0  0  0  0  0  0  0  0  0  0
    6.5055    1.7505   25.3761 H   0  0  0  0  0  0  0  0  0  0  0  0
    8.5301    1.8936   26.8109 H   0  0  0  0  0  0  0  0  0  0  0  0
   10.8041    1.9866   25.7302 H   0  0  0  0  0  0  0  0  0  0  0  0
  1  2  1  0
  2  3  2  0
  3  4  1  0
  4  5  2  0
  5  6  1  0
  6  7  2  0
  7  8  1  0
  8  9  1  0
  9 10  1  0
 10 11  2  0
 11 12  1  0
 12 13  1  0
 13 14  1  0
 14 15  1  0
 15 16  1  0
 16 17  1  0
 16 18  1  0
 15 19  1  0
 15 20  1  0
 14 21  1  0
 13 22  1  0
 13 23  1  0
 12 24  2  0
 24 25  1  0
 25 26  1  0
 26 27  2  0
 27 28  1  0
 28 29  2  0
 29 30  1  0
 30 31  2  0
 31 32  1  0
 29 33  1  0
 28 34  1  0
 27 35  1  0
  9 36  1  0
  9 37  1  0
  8 38  1  0
  8 39  1  0
  6 40  1  0
  5 41  1  0
  4 42  1  0
  3 43  1  0
  7  2  1  0
 25 10  1  0
 31 26  1  0
 16 14  1  0
M  END
>  <cnnaffinity>  (1) 
-6.11257

>  <filename>  (1) 
Fc1ccccc1CCc1nc(CC2CC2)nn1-c1cccnc1

$$$$
