
     RDKit          3D

 48 51  0  0  0  0  0  0  0  0999 V2000
    5.9638   -3.2294   27.6867 F   0  0  0  0  0  0  0  0  0  0  0  0
    7.0365   -3.2222   26.8809 C   0  0  0  0  0  0  0  0  0  0  0  0
    7.7638   -4.4020   26.7229 C   0  0  0  0  0  0  0  0  0  0  0  0
    8.8362   -4.4008   25.8269 C   0  0  0  0  0  0  0  0  0  0  0  0
    9.1728   -3.2519   25.1049 C   0  0  0  0  0  0  0  0  0  0  0  0
    8.4381   -2.0746   25.3171 C   0  0  0  0  0  0  0  0  0  0  0  0
    8.7429   -0.8866   24.6069 N   0  0  0  0  0  0  0  0  0  0  0  0
    8.7475    0.3214   25.2357 N   0  0  0  0  0  0  0  0  0  0  0  0
    9.0980    1.1521   24.2824 C   0  0  0  0  0  0  0  0  0  0  0  0
    9.2088    2.6335   24.5175 C   0  0  0  0  0  0  0  0  0  0  0  0
    7.9479    3.3668   23.9555 C   0  0  0  0  0  0  0  0  0  0  0  0
    8.2492    4.8135   23.5640 C   0  0  0  0  0  0  0  0  0  0  0  0
    9.3219    4.9315   22.6351 O   0  0  0  0  0  0  0  0  0  0  0  0
   10.2464    3.8525   22.5415 C   0  0  0  0  0  0  0  0  0  0  0  0
   10.5157    3.2163   23.9017 C   0  0  0  0  0  0  0  0  0  0  0  0
   11.2724    2.4336   23.7976 H   0  0  0  0  0  0  0  0  0  0  0  0
   10.9354    3.9828   24.5654 H   0  0  0  0  0  0  0  0  0  0  0  0
    9.8813    3.0939   21.8274 H   0  0  0  0  0  0  0  0  0  0  0  0
   11.1551    4.2751   22.0983 H   0  0  0  0  0  0  0  0  0  0  0  0
    8.4838    5.4127   24.4566 H   0  0  0  0  0  0  0  0  0  0  0  0
    7.3778    5.2769   23.0843 H   0  0  0  0  0  0  0  0  0  0  0  0
    7.1216    3.3328   24.6723 H   0  0  0  0  0  0  0  0  0  0  0  0
    7.6020    2.8476   23.0523 H   0  0  0  0  0  0  0  0  0  0  0  0
    9.2475    2.7530   25.6041 H   0  0  0  0  0  0  0  0  0  0  0  0
    9.2877    0.5768   23.0656 N   0  0  0  0  0  0  0  0  0  0  0  0
    9.0001   -0.6917   23.2820 C   0  0  0  0  0  0  0  0  0  0  0  0
    8.9454   -1.7370   22.2260 C   0  0  0  0  0  0  0  0  0  0  0  0
    8.5389   -1.1930   20.8698 C   0  0  0  0  0  0  0  0  0  0  0  0
    7.2243   -0.6673   20.9731 O   0  0  0  0  0  0  0  0  0  0  0  0
    6.6808   -0.0373   19.8984 C   0  0  0  0  0  0  0  0  0  0  0  0
    5.4680    0.6192   20.1496 C   0  0  0  0  0  0  0  0  0  0  0  0
    4.8424    1.2833   19.1002 C   0  0  0  0  0  0  0  0  0  0  0  0
    5.4434    1.2795   17.8331 C   0  0  0  0  0  0  0  0  0  0  0  0
    6.5999    0.6494   17.5801 N   0  0  0  0  0  0  0  0  0  0  0  0
    7.2111    0.0106   18.5923 C   0  0  0  0  0  0  0  0  0  0  0  0
    8.1624   -0.4762   18.3604 H   0  0  0  0  0  0  0  0  0  0  0  0
    4.9763    1.8005   16.9998 H   0  0  0  0  0  0  0  0  0  0  0  0
    3.9097    1.8120   19.2571 H   0  0  0  0  0  0  0  0  0  0  0  0
    5.0855    0.5984   21.1685 H   0  0  0  0  0  0  0  0  0  0  0  0
    8.5288   -2.0005   20.1379 H   0  0  0  0  0  0  0  0  0  0  0  0
    9.2268   -0.4132   20.5261 H   0  0  0  0  0  0  0  0  0  0  0  0
    9.9297   -2.2080   22.1234 H   0  0  0  0  0  0  0  0  0  0  0  0
    8.2326   -2.5159   22.5110 H   0  0  0  0  0  0  0  0  0  0  0  0
    7.3786   -2.0433   26.2306 C   0  0  0  0  0  0  0  0  0  0  0  0
    6.8566   -1.1114   26.4339 H   0  0  0  0  0  0  0  0  0  0  0  0
    9.9901   -3.2660   24.3903 H   0  0  0  0  0  0  0  0  0  0  0  0
    9.4165   -5.3048   25.6773 H   0  0  0  0  0  0  0  0  0  0  0  0
    7.4846   -5.2819   27.2954 H   0  0  0  0  0  0  0  0  0  0  0  0
  1  2  1  0
  2  3  2  0
  3  4  1  0
  4  5  2  0
  5  6  1  0
  6  7  1  0
  7  8  1  0
  8  9  2  0
  9 10  1  0
 10 11  1  0
 11 12  1  0
 12 13  1  0
 13 14  1  0
 14 15  1  0
 15 16  1  0
 15 17  1  0
 14 18  1  0
 14 19  1  0
 12 20  1  0
 12 21  1  0
 11 22  1  0
 11 23  1  0
 10 24  1  0
  9 25  1  0
 25 26  2  0
 26 27  1  0
 27 28  1  0
 28 29  1  0
 29 30  1  0
 30 31  2  0
 31 32  1  0
 32 33  2  0
 33 34  1  0
 34 35  2  0
 35 36  1  0
 33 37  1  0
 32 38  1  0
 31 39  1  0
 28 40  1  0
 28 41  1  0
 27 42  1  0
 27 43  1  0
  6 44  2  0
 44 45  1  0
  5 46  1  0
  4 47  1  0
  3 48  1  0
 44  2  1  0
 26  7  1  0
 35 30  1  0
 15 10  1  0
M  END
>  <cnnaffinity>  (1) 
-6.08023

>  <filename>  (1) 
Fc1cccc(-n2nc(C3CCOCC3)nc2CCOc2cccnc2)c1

$$$$
