
     RDKit          3D

 35 37  0  0  0  0  0  0  0  0999 V2000
    9.2413    2.6411   20.9689 F   0  0  0  0  0  0  0  0  0  0  0  0
   10.1325    1.9584   21.7086 C   0  0  0  0  0  0  0  0  0  0  0  0
   11.4564    1.9139   21.2909 C   0  0  0  0  0  0  0  0  0  0  0  0
   12.3340    1.1220   22.0409 C   0  0  0  0  0  0  0  0  0  0  0  0
   11.8947    0.4331   23.1627 C   0  0  0  0  0  0  0  0  0  0  0  0
   10.5642    0.5305   23.5787 C   0  0  0  0  0  0  0  0  0  0  0  0
   10.2608   -0.1714   24.7082 O   0  0  0  0  0  0  0  0  0  0  0  0
    8.9026   -0.3713   25.0601 C   0  0  0  0  0  0  0  0  0  0  0  0
    8.2685   -1.5888   24.3740 C   0  0  0  0  0  0  0  0  0  0  0  0
    8.0485   -1.4529   22.9293 N   0  0  0  0  0  0  0  0  0  0  0  0
    8.8483   -1.8703   21.8950 C   0  0  0  0  0  0  0  0  0  0  0  0
    8.4286   -1.4487   20.7305 N   0  0  0  0  0  0  0  0  0  0  0  0
    7.2926   -0.7158   20.9834 C   0  0  0  0  0  0  0  0  0  0  0  0
    6.5888   -0.0228   19.8955 C   0  0  0  0  0  0  0  0  0  0  0  0
    5.3759    0.6610   20.0900 C   0  0  0  0  0  0  0  0  0  0  0  0
    4.7995    1.3218   19.0076 C   0  0  0  0  0  0  0  0  0  0  0  0
    5.4518    1.2959   17.7708 C   0  0  0  0  0  0  0  0  0  0  0  0
    6.6112    0.6493   17.5657 N   0  0  0  0  0  0  0  0  0  0  0  0
    7.1576    0.0127   18.6065 C   0  0  0  0  0  0  0  0  0  0  0  0
    8.1026   -0.4942   18.4200 H   0  0  0  0  0  0  0  0  0  0  0  0
    5.0273    1.8140   16.9115 H   0  0  0  0  0  0  0  0  0  0  0  0
    3.8670    1.8660   19.1076 H   0  0  0  0  0  0  0  0  0  0  0  0
    4.9026    0.6856   21.0721 H   0  0  0  0  0  0  0  0  0  0  0  0
    7.0417   -0.7183   22.3353 C   0  0  0  0  0  0  0  0  0  0  0  0
    6.2526   -0.2770   22.9301 H   0  0  0  0  0  0  0  0  0  0  0  0
    9.7186   -2.5005   22.0569 H   0  0  0  0  0  0  0  0  0  0  0  0
    7.2932   -1.7607   24.8477 H   0  0  0  0  0  0  0  0  0  0  0  0
    8.8860   -2.4767   24.5495 H   0  0  0  0  0  0  0  0  0  0  0  0
    8.8869   -0.5322   26.1420 H   0  0  0  0  0  0  0  0  0  0  0  0
    8.3101    0.5288   24.8535 H   0  0  0  0  0  0  0  0  0  0  0  0
    9.6583    1.3108   22.8481 C   0  0  0  0  0  0  0  0  0  0  0  0
    8.6085    1.3751   23.0926 H   0  0  0  0  0  0  0  0  0  0  0  0
   12.5672   -0.1884   23.7420 H   0  0  0  0  0  0  0  0  0  0  0  0
   13.3873    1.0348   21.7934 H   0  0  0  0  0  0  0  0  0  0  0  0
   11.7711    2.4893   20.4245 H   0  0  0  0  0  0  0  0  0  0  0  0
  1  2  1  0
  2  3  2  0
  3  4  1  0
  4  5  2  0
  5  6  1  0
  6  7  1  0
  7  8  1  0
  8  9  1  0
  9 10  1  0
 10 11  1  0
 11 12  2  0
 12 13  1  0
 13 14  1  0
 14 15  2  0
 15 16  1  0
 16 17  2  0
 17 18  1  0
 18 19  2  0
 19 20  1  0
 17 21  1  0
 16 22  1  0
 15 23  1  0
 13 24  2  0
 24 25  1  0
 11 26  1  0
  9 27  1  0
  9 28  1  0
  8 29  1  0
  8 30  1  0
  6 31  2  0
 31 32  1  0
  5 33  1  0
  4 34  1  0
  3 35  1  0
 31  2  1  0
 24 10  1  0
 19 14  1  0
M  END
>  <cnnaffinity>  (1) 
-5.24906

>  <filename>  (1) 
Fc1cccc(OCCn2cnc(-c3cccnc3)c2)c1

$$$$
