
     RDKit          3D

 41 44  0  0  0  0  0  0  0  0999 V2000
    8.4990    1.9182   26.9662 F   0  0  0  0  0  0  0  0  0  0  0  0
    8.6328    1.9480   25.6336 C   0  0  0  0  0  0  0  0  0  0  0  0
    7.5483    1.7581   24.8000 C   0  0  0  0  0  0  0  0  0  0  0  0
    7.6535    1.8359   23.4709 N   0  0  0  0  0  0  0  0  0  0  0  0
    8.8710    2.0695   22.9669 C   0  0  0  0  0  0  0  0  0  0  0  0
    9.0407    2.0066   21.4699 C   0  0  0  0  0  0  0  0  0  0  0  0
    9.5276    0.6108   20.9603 C   0  0  0  0  0  0  0  0  0  0  0  0
    8.6531   -0.5223   21.3895 C   0  0  0  0  0  0  0  0  0  0  0  0
    8.8896   -1.3489   22.3943 N   0  0  0  0  0  0  0  0  0  0  0  0
    7.6821   -1.9394   22.5828 C   0  0  0  0  0  0  0  0  0  0  0  0
    7.4100   -2.8344   23.7407 C   0  0  0  0  0  0  0  0  0  0  0  0
    6.4366   -4.0167   23.4671 C   0  0  0  0  0  0  0  0  0  0  0  0
    5.4356   -3.4207   24.4852 C   0  0  0  0  0  0  0  0  0  0  0  0
    6.4120   -2.2651   24.8043 C   0  0  0  0  0  0  0  0  0  0  0  0
    6.7948   -2.2394   25.8285 H   0  0  0  0  0  0  0  0  0  0  0  0
    6.0379   -1.2608   24.5736 H   0  0  0  0  0  0  0  0  0  0  0  0
    4.4871   -3.0995   24.0450 H   0  0  0  0  0  0  0  0  0  0  0  0
    5.1896   -4.0662   25.3321 H   0  0  0  0  0  0  0  0  0  0  0  0
    6.8341   -5.0018   23.7249 H   0  0  0  0  0  0  0  0  0  0  0  0
    6.0800   -4.0610   22.4325 H   0  0  0  0  0  0  0  0  0  0  0  0
    8.3825   -3.1166   24.1463 H   0  0  0  0  0  0  0  0  0  0  0  0
    6.7448   -1.5785   21.7252 N   0  0  0  0  0  0  0  0  0  0  0  0
    7.3761   -0.6770   20.9350 N   0  0  0  0  0  0  0  0  0  0  0  0
    6.6588    0.0001   19.9019 C   0  0  0  0  0  0  0  0  0  0  0  0
    5.4418    0.6382   20.1696 C   0  0  0  0  0  0  0  0  0  0  0  0
    4.8151    1.3078   19.1112 C   0  0  0  0  0  0  0  0  0  0  0  0
    5.4011    1.2960   17.8379 C   0  0  0  0  0  0  0  0  0  0  0  0
    6.5592    0.6722   17.5750 N   0  0  0  0  0  0  0  0  0  0  0  0
    7.1660    0.0504   18.5918 C   0  0  0  0  0  0  0  0  0  0  0  0
    8.1112   -0.4346   18.3642 H   0  0  0  0  0  0  0  0  0  0  0  0
    4.9214    1.7874   16.9932 H   0  0  0  0  0  0  0  0  0  0  0  0
    3.8821    1.8385   19.2602 H   0  0  0  0  0  0  0  0  0  0  0  0
    5.0177    0.6079   21.1784 H   0  0  0  0  0  0  0  0  0  0  0  0
   10.5302    0.3955   21.3382 H   0  0  0  0  0  0  0  0  0  0  0  0
    9.5843    0.6192   19.8692 H   0  0  0  0  0  0  0  0  0  0  0  0
    8.0779    2.2527   21.0218 H   0  0  0  0  0  0  0  0  0  0  0  0
    9.7649    2.7689   21.1820 H   0  0  0  0  0  0  0  0  0  0  0  0
    9.9791    2.2536   23.6948 N   0  0  0  0  0  0  0  0  0  0  0  0
    9.8538    2.1776   25.0188 C   0  0  0  0  0  0  0  0  0  0  0  0
   10.7608    2.2666   25.6059 H   0  0  0  0  0  0  0  0  0  0  0  0
    6.5671    1.5485   25.2260 H   0  0  0  0  0  0  0  0  0  0  0  0
  1  2  1  0
  2  3  2  0
  3  4  1  0
  4  5  2  0
  5  6  1  0
  6  7  1  0
  7  8  1  0
  8  9  2  0
  9 10  1  0
 10 11  1  0
 11 12  1  0
 12 13  1  0
 13 14  1  0
 14 15  1  0
 14 16  1  0
 13 17  1  0
 13 18  1  0
 12 19  1  0
 12 20  1  0
 11 21  1  0
 10 22  2  0
 22 23  1  0
 23 24  1  0
 24 25  2  0
 25 26  1  0
 26 27  2  0
 27 28  1  0
 28 29  2  0
 29 30  1  0
 27 31  1  0
 26 32  1  0
 25 33  1  0
  7 34  1  0
  7 35  1  0
  6 36  1  0
  6 37  1  0
  5 38  1  0
 38 39  2  0
 39 40  1  0
  3 41  1  0
 39  2  1  0
 23  8  1  0
 29 24  1  0
 14 11  1  0
M  END
>  <cnnaffinity>  (1) 
-6.19003

>  <filename>  (1) 
Fc1cnc(CCc2nc(C3CCC3)nn2-c2cccnc2)nc1

$$$$
