
     RDKit          3D

 42 45  0  0  0  0  0  0  0  0999 V2000
    2.9841    1.8033   25.3418 F   0  0  0  0  0  0  0  0  0  0  0  0
    4.2600    2.2051   25.4829 C   0  0  0  0  0  0  0  0  0  0  0  0
    4.5441    3.3251   26.2581 C   0  0  0  0  0  0  0  0  0  0  0  0
    5.8750    3.7459   26.3882 C   0  0  0  0  0  0  0  0  0  0  0  0
    6.8772    3.0359   25.7307 C   0  0  0  0  0  0  0  0  0  0  0  0
    8.1522    3.4649   25.8440 F   0  0  0  0  0  0  0  0  0  0  0  0
    6.6002    1.9077   24.9479 C   0  0  0  0  0  0  0  0  0  0  0  0
    7.6745    1.2295   24.1489 C   0  0  0  0  0  0  0  0  0  0  0  0
    7.8274    1.8308   22.7256 C   0  0  0  0  0  0  0  0  0  0  0  0
    8.7847    0.9986   21.9475 C   0  0  0  0  0  0  0  0  0  0  0  0
   10.0929    1.0993   22.0567 N   0  0  0  0  0  0  0  0  0  0  0  0
   10.5536   -0.0852   21.5539 C   0  0  0  0  0  0  0  0  0  0  0  0
   11.9909   -0.4536   21.6818 C   0  0  0  0  0  0  0  0  0  0  0  0
   12.8608    0.2680   22.4574 C   0  0  0  0  0  0  0  0  0  0  0  0
   14.4211   -0.4108   22.4156 S   0  0  0  0  0  0  0  0  0  0  0  0
   13.8116   -1.6628   21.3886 C   0  0  0  0  0  0  0  0  0  0  0  0
   12.5638   -1.5638   21.0735 N   0  0  0  0  0  0  0  0  0  0  0  0
   14.4460   -2.4790   21.0667 H   0  0  0  0  0  0  0  0  0  0  0  0
   12.6360    1.1657   23.0120 H   0  0  0  0  0  0  0  0  0  0  0  0
    9.5910   -0.8742   21.1020 N   0  0  0  0  0  0  0  0  0  0  0  0
    8.4656   -0.1830   21.3614 N   0  0  0  0  0  0  0  0  0  0  0  0
    7.1714   -0.7450   20.9886 C   0  0  0  0  0  0  0  0  0  0  0  0
    6.4732    0.0113   19.8800 C   0  0  0  0  0  0  0  0  0  0  0  0
    5.2621    0.6829   20.0667 C   0  0  0  0  0  0  0  0  0  0  0  0
    4.6946    1.3698   18.9906 C   0  0  0  0  0  0  0  0  0  0  0  0
    5.3567    1.3489   17.7599 C   0  0  0  0  0  0  0  0  0  0  0  0
    6.5112    0.6954   17.5543 N   0  0  0  0  0  0  0  0  0  0  0  0
    7.0508    0.0566   18.5991 C   0  0  0  0  0  0  0  0  0  0  0  0
    7.9943   -0.4547   18.4082 H   0  0  0  0  0  0  0  0  0  0  0  0
    4.9476    1.8823   16.9032 H   0  0  0  0  0  0  0  0  0  0  0  0
    3.7735    1.9316   19.0960 H   0  0  0  0  0  0  0  0  0  0  0  0
    4.7722    0.6702   21.0431 H   0  0  0  0  0  0  0  0  0  0  0  0
    6.5304   -0.8087   21.8782 H   0  0  0  0  0  0  0  0  0  0  0  0
    7.3909   -1.7704   20.6766 H   0  0  0  0  0  0  0  0  0  0  0  0
    6.8626    1.9008   22.2098 H   0  0  0  0  0  0  0  0  0  0  0  0
    8.2356    2.8430   22.7970 H   0  0  0  0  0  0  0  0  0  0  0  0
    8.6406    1.2921   24.6642 H   0  0  0  0  0  0  0  0  0  0  0  0
    7.4419    0.1586   24.0565 H   0  0  0  0  0  0  0  0  0  0  0  0
    5.2645    1.4908   24.8370 C   0  0  0  0  0  0  0  0  0  0  0  0
    4.9980    0.6187   24.2462 H   0  0  0  0  0  0  0  0  0  0  0  0
    6.1544    4.6141   26.9759 H   0  0  0  0  0  0  0  0  0  0  0  0
    3.7303    3.8493   26.7473 H   0  0  0  0  0  0  0  0  0  0  0  0
  1  2  1  0
  2  3  2  0
  3  4  1  0
  4  5  2  0
  5  6  1  0
  5  7  1  0
  7  8  1  0
  8  9  1  0
  9 10  1  0
 10 11  2  0
 11 12  1  0
 12 13  1  0
 13 14  2  0
 14 15  1  0
 15 16  1  0
 16 17  2  0
 16 18  1  0
 14 19  1  0
 12 20  2  0
 20 21  1  0
 21 22  1  0
 22 23  1  0
 23 24  2  0
 24 25  1  0
 25 26  2  0
 26 27  1  0
 27 28  2  0
 28 29  1  0
 26 30  1  0
 25 31  1  0
 24 32  1  0
 22 33  1  0
 22 34  1  0
  9 35  1  0
  9 36  1  0
  8 37  1  0
  8 38  1  0
  7 39  2  0
 39 40  1  0
  4 41  1  0
  3 42  1  0
 39  2  1  0
 21 10  1  0
 28 23  1  0
 17 13  1  0
M  END
>  <cnnaffinity>  (1) 
-6.72607

>  <filename>  (1) 
Fc1ccc(F)c(CCc2nc(-c3cscn3)nn2Cc2cccnc2)c1

$$$$
