
     RDKit          3D

 40 43  0  0  0  0  0  0  0  0999 V2000
   10.3131    3.1408   24.0393 F   0  0  0  0  0  0  0  0  0  0  0  0
   10.8379    2.1578   23.2831 C   0  0  0  0  0  0  0  0  0  0  0  0
   12.0972    1.6673   23.6282 C   0  0  0  0  0  0  0  0  0  0  0  0
   12.6317    0.6140   22.8782 C   0  0  0  0  0  0  0  0  0  0  0  0
   11.9222    0.0721   21.8011 C   0  0  0  0  0  0  0  0  0  0  0  0
   10.6743    0.6076   21.5070 C   0  0  0  0  0  0  0  0  0  0  0  0
    9.9533    0.0381   20.5155 F   0  0  0  0  0  0  0  0  0  0  0  0
   10.0823    1.6620   22.2097 C   0  0  0  0  0  0  0  0  0  0  0  0
    8.6781    2.1349   21.9010 C   0  0  0  0  0  0  0  0  0  0  0  0
    7.5905    1.2940   22.6303 C   0  0  0  0  0  0  0  0  0  0  0  0
    7.6039   -0.1589   22.2420 C   0  0  0  0  0  0  0  0  0  0  0  0
    8.1694   -1.1246   22.9355 N   0  0  0  0  0  0  0  0  0  0  0  0
    8.2187   -2.1551   22.0507 C   0  0  0  0  0  0  0  0  0  0  0  0
    8.9213   -3.4187   22.3721 C   0  0  0  0  0  0  0  0  0  0  0  0
    8.2107   -4.7344   22.2037 C   0  0  0  0  0  0  0  0  0  0  0  0
    8.5533   -4.2371   23.5769 C   0  0  0  0  0  0  0  0  0  0  0  0
    9.3735   -4.7216   24.1047 H   0  0  0  0  0  0  0  0  0  0  0  0
    7.7549   -3.8651   24.2164 H   0  0  0  0  0  0  0  0  0  0  0  0
    8.7408   -5.5935   21.7975 H   0  0  0  0  0  0  0  0  0  0  0  0
    7.1693   -4.6697   21.8918 H   0  0  0  0  0  0  0  0  0  0  0  0
    9.9879   -3.3211   22.1736 H   0  0  0  0  0  0  0  0  0  0  0  0
    7.6909   -1.9053   20.8684 N   0  0  0  0  0  0  0  0  0  0  0  0
    7.2499   -0.6286   21.0084 N   0  0  0  0  0  0  0  0  0  0  0  0
    6.5884    0.0303   19.9373 C   0  0  0  0  0  0  0  0  0  0  0  0
    5.3764    0.6997   20.1409 C   0  0  0  0  0  0  0  0  0  0  0  0
    4.7912    1.3427   19.0473 C   0  0  0  0  0  0  0  0  0  0  0  0
    5.4379    1.3022   17.8072 C   0  0  0  0  0  0  0  0  0  0  0  0
    6.5969    0.6510   17.6039 N   0  0  0  0  0  0  0  0  0  0  0  0
    7.1519    0.0217   18.6468 C   0  0  0  0  0  0  0  0  0  0  0  0
    8.0906   -0.4995   18.4636 H   0  0  0  0  0  0  0  0  0  0  0  0
    5.0022    1.7947   16.9405 H   0  0  0  0  0  0  0  0  0  0  0  0
    3.8533    1.8771   19.1543 H   0  0  0  0  0  0  0  0  0  0  0  0
    4.9072    0.7000   21.1262 H   0  0  0  0  0  0  0  0  0  0  0  0
    6.5969    1.7206   22.4558 H   0  0  0  0  0  0  0  0  0  0  0  0
    7.7715    1.3229   23.7098 H   0  0  0  0  0  0  0  0  0  0  0  0
    8.5809    3.1809   22.2028 H   0  0  0  0  0  0  0  0  0  0  0  0
    8.5164    2.1014   20.8161 H   0  0  0  0  0  0  0  0  0  0  0  0
   12.2963   -0.7504   21.1977 H   0  0  0  0  0  0  0  0  0  0  0  0
   13.5900    0.1838   23.1533 H   0  0  0  0  0  0  0  0  0  0  0  0
   12.6232    2.1007   24.4721 H   0  0  0  0  0  0  0  0  0  0  0  0
  1  2  1  0
  2  3  2  0
  3  4  1  0
  4  5  2  0
  5  6  1  0
  6  7  1  0
  6  8  2  0
  8  9  1  0
  9 10  1  0
 10 11  1  0
 11 12  2  0
 12 13  1  0
 13 14  1  0
 14 15  1  0
 15 16  1  0
 16 17  1  0
 16 18  1  0
 15 19  1  0
 15 20  1  0
 14 21  1  0
 13 22  2  0
 22 23  1  0
 23 24  1  0
 24 25  2  0
 25 26  1  0
 26 27  2  0
 27 28  1  0
 28 29  2  0
 29 30  1  0
 27 31  1  0
 26 32  1  0
 25 33  1  0
 10 34  1  0
 10 35  1  0
  9 36  1  0
  9 37  1  0
  5 38  1  0
  4 39  1  0
  3 40  1  0
  8  2  1  0
 23 11  1  0
 29 24  1  0
 16 14  1  0
M  END
>  <cnnaffinity>  (1) 
-6.04201

>  <filename>  (1) 
Fc1cccc(F)c1CCc1nc(C2CC2)nn1-c1cccnc1

$$$$
