
     RDKit          3D

 44 47  0  0  0  0  0  0  0  0999 V2000
    7.0878    5.0510   24.8225 F   0  0  0  0  0  0  0  0  0  0  0  0
    7.6129    4.1905   23.9342 C   0  0  0  0  0  0  0  0  0  0  0  0
    8.2125    3.0065   24.3601 C   0  0  0  0  0  0  0  0  0  0  0  0
    8.7390    2.1510   23.3784 C   0  0  0  0  0  0  0  0  0  0  0  0
    8.6511    2.5406   22.0318 C   0  0  0  0  0  0  0  0  0  0  0  0
    9.1629    1.8386   20.9923 O   0  0  0  0  0  0  0  0  0  0  0  0
    9.5652    0.4703   21.0189 C   0  0  0  0  0  0  0  0  0  0  0  0
    8.5846   -0.5388   21.5140 C   0  0  0  0  0  0  0  0  0  0  0  0
    8.7989   -1.3775   22.5031 N   0  0  0  0  0  0  0  0  0  0  0  0
    7.5926   -1.9931   22.6454 C   0  0  0  0  0  0  0  0  0  0  0  0
    7.3679   -2.9509   23.7708 C   0  0  0  0  0  0  0  0  0  0  0  0
    8.2942   -4.1914   23.6486 C   0  0  0  0  0  0  0  0  0  0  0  0
    8.3171   -5.0270   24.9037 C   0  0  0  0  0  0  0  0  0  0  0  0
    7.8571   -4.5977   26.0827 C   0  0  0  0  0  0  0  0  0  0  0  0
    7.3078   -3.2096   26.3069 C   0  0  0  0  0  0  0  0  0  0  0  0
    7.6080   -2.2608   25.1387 C   0  0  0  0  0  0  0  0  0  0  0  0
    8.6578   -1.9397   25.1751 H   0  0  0  0  0  0  0  0  0  0  0  0
    7.0059   -1.3492   25.2259 H   0  0  0  0  0  0  0  0  0  0  0  0
    6.2224   -3.2818   26.4643 H   0  0  0  0  0  0  0  0  0  0  0  0
    7.7084   -2.7917   27.2397 H   0  0  0  0  0  0  0  0  0  0  0  0
    7.8617   -5.2689   26.9400 H   0  0  0  0  0  0  0  0  0  0  0  0
    8.7539   -6.0211   24.8213 H   0  0  0  0  0  0  0  0  0  0  0  0
    9.3191   -3.8581   23.4308 H   0  0  0  0  0  0  0  0  0  0  0  0
    7.9983   -4.8088   22.7912 H   0  0  0  0  0  0  0  0  0  0  0  0
    6.3179   -3.2540   23.6924 H   0  0  0  0  0  0  0  0  0  0  0  0
    6.6801   -1.6229   21.7717 N   0  0  0  0  0  0  0  0  0  0  0  0
    7.3290   -0.6985   21.0142 N   0  0  0  0  0  0  0  0  0  0  0  0
    6.6589   -0.0327   19.9428 C   0  0  0  0  0  0  0  0  0  0  0  0
    5.4454    0.6226   20.1772 C   0  0  0  0  0  0  0  0  0  0  0  0
    4.8473    1.3141   19.1206 C   0  0  0  0  0  0  0  0  0  0  0  0
    5.4610    1.2953   17.8617 C   0  0  0  0  0  0  0  0  0  0  0  0
    6.5952    0.6235   17.6140 N   0  0  0  0  0  0  0  0  0  0  0  0
    7.1733   -0.0242   18.6338 C   0  0  0  0  0  0  0  0  0  0  0  0
    8.0893   -0.5672   18.3993 H   0  0  0  0  0  0  0  0  0  0  0  0
    5.0161    1.8246   17.0201 H   0  0  0  0  0  0  0  0  0  0  0  0
    3.9200    1.8585   19.2629 H   0  0  0  0  0  0  0  0  0  0  0  0
    5.0026    0.5748   21.1720 H   0  0  0  0  0  0  0  0  0  0  0  0
    9.7408    0.2420   19.9664 H   0  0  0  0  0  0  0  0  0  0  0  0
   10.5048    0.3225   21.5650 H   0  0  0  0  0  0  0  0  0  0  0  0
    8.0769    3.6674   21.6459 N   0  0  0  0  0  0  0  0  0  0  0  0
    7.5625    4.4778   22.5712 C   0  0  0  0  0  0  0  0  0  0  0  0
    7.1024    5.3971   22.2165 H   0  0  0  0  0  0  0  0  0  0  0  0
    9.1984    1.1993   23.6060 H   0  0  0  0  0  0  0  0  0  0  0  0
    8.2671    2.7861   25.4249 H   0  0  0  0  0  0  0  0  0  0  0  0
  1  2  1  0
  2  3  2  0
  3  4  1  0
  4  5  2  0
  5  6  1  0
  6  7  1  0
  7  8  1  0
  8  9  2  0
  9 10  1  0
 10 11  1  0
 11 12  1  0
 12 13  1  0
 13 14  2  0
 14 15  1  0
 15 16  1  0
 16 17  1  0
 16 18  1  0
 15 19  1  0
 15 20  1  0
 14 21  1  0
 13 22  1  0
 12 23  1  0
 12 24  1  0
 11 25  1  0
 10 26  2  0
 26 27  1  0
 27 28  1  0
 28 29  2  0
 29 30  1  0
 30 31  2  0
 31 32  1  0
 32 33  2  0
 33 34  1  0
 31 35  1  0
 30 36  1  0
 29 37  1  0
  7 38  1  0
  7 39  1  0
  5 40  1  0
 40 41  2  0
 41 42  1  0
  4 43  1  0
  3 44  1  0
 41  2  1  0
 27  8  1  0
 33 28  1  0
 16 11  1  0
M  END
>  <cnnaffinity>  (1) 
-6.26881

>  <filename>  (1) 
Fc1ccc(OCc2nc(C3CC=CCC3)nn2-c2cccnc2)nc1

$$$$
