
     RDKit          3D

 39 42  0  0  0  0  0  0  0  0999 V2000
    4.6041    1.9382   27.5158 F   0  0  0  0  0  0  0  0  0  0  0  0
    5.7618    2.2790   26.9264 C   0  0  0  0  0  0  0  0  0  0  0  0
    6.5659    3.2439   27.5309 C   0  0  0  0  0  0  0  0  0  0  0  0
    7.7620    3.6107   26.9071 C   0  0  0  0  0  0  0  0  0  0  0  0
    8.1423    3.0212   25.7012 C   0  0  0  0  0  0  0  0  0  0  0  0
    7.3119    2.0557   25.0924 C   0  0  0  0  0  0  0  0  0  0  0  0
    7.7272    1.4751   23.7910 C   0  0  0  0  0  0  0  0  0  0  0  0
    7.0911    0.4814   23.1884 N   0  0  0  0  0  0  0  0  0  0  0  0
    7.8248    0.2731   22.0703 N   0  0  0  0  0  0  0  0  0  0  0  0
    7.3826   -0.6654   21.0396 C   0  0  0  0  0  0  0  0  0  0  0  0
    6.6766    0.0106   19.8810 C   0  0  0  0  0  0  0  0  0  0  0  0
    5.4672    0.6798   20.1157 C   0  0  0  0  0  0  0  0  0  0  0  0
    4.8360    1.3243   19.0531 C   0  0  0  0  0  0  0  0  0  0  0  0
    5.4447    1.2843   17.7944 C   0  0  0  0  0  0  0  0  0  0  0  0
    6.5921    0.6332   17.5424 N   0  0  0  0  0  0  0  0  0  0  0  0
    7.1793    0.0103   18.5716 C   0  0  0  0  0  0  0  0  0  0  0  0
    8.0960   -0.5380   18.3371 H   0  0  0  0  0  0  0  0  0  0  0  0
    4.9942    1.7922   16.9468 H   0  0  0  0  0  0  0  0  0  0  0  0
    3.8969    1.8561   19.1853 H   0  0  0  0  0  0  0  0  0  0  0  0
    5.0447    0.6849   21.1221 H   0  0  0  0  0  0  0  0  0  0  0  0
    8.2618   -1.2298   20.7059 H   0  0  0  0  0  0  0  0  0  0  0  0
    6.6985   -1.3491   21.5529 H   0  0  0  0  0  0  0  0  0  0  0  0
    8.8471    1.1537   22.0476 C   0  0  0  0  0  0  0  0  0  0  0  0
    9.9767    1.1044   21.0862 C   0  0  0  0  0  0  0  0  0  0  0  0
   10.9332    0.0221   21.4732 C   0  0  0  0  0  0  0  0  0  0  0  0
   10.6624   -1.2118   21.1444 N   0  0  0  0  0  0  0  0  0  0  0  0
   11.6927   -1.9765   21.6277 O   0  0  0  0  0  0  0  0  0  0  0  0
   12.5563   -1.1839   22.2725 C   0  0  0  0  0  0  0  0  0  0  0  0
   12.1391    0.1059   22.2252 C   0  0  0  0  0  0  0  0  0  0  0  0
   12.5830    0.9846   22.6759 H   0  0  0  0  0  0  0  0  0  0  0  0
   13.4256   -1.6931   22.6588 H   0  0  0  0  0  0  0  0  0  0  0  0
   10.4865    2.0669   21.1216 H   0  0  0  0  0  0  0  0  0  0  0  0
    9.6049    0.9214   20.0753 H   0  0  0  0  0  0  0  0  0  0  0  0
    8.8189    1.9230   23.1065 N   0  0  0  0  0  0  0  0  0  0  0  0
    6.1100    1.6699   25.7252 C   0  0  0  0  0  0  0  0  0  0  0  0
    5.4518    0.9117   25.3059 H   0  0  0  0  0  0  0  0  0  0  0  0
    9.0762    3.2980   25.2156 H   0  0  0  0  0  0  0  0  0  0  0  0
    8.3928    4.3754   27.3528 H   0  0  0  0  0  0  0  0  0  0  0  0
    6.2368    3.6948   28.4597 H   0  0  0  0  0  0  0  0  0  0  0  0
  1  2  1  0
  2  3  2  0
  3  4  1  0
  4  5  2  0
  5  6  1  0
  6  7  1  0
  7  8  2  0
  8  9  1  0
  9 10  1  0
 10 11  1  0
 11 12  2  0
 12 13  1  0
 13 14  2  0
 14 15  1  0
 15 16  2  0
 16 17  1  0
 14 18  1  0
 13 19  1  0
 12 20  1  0
 10 21  1  0
 10 22  1  0
  9 23  1  0
 23 24  1  0
 24 25  1  0
 25 26  2  0
 26 27  1  0
 27 28  1  0
 28 29  2  0
 29 30  1  0
 28 31  1  0
 24 32  1  0
 24 33  1  0
 23 34  2  0
  6 35  2  0
 35 36  1  0
  5 37  1  0
  4 38  1  0
  3 39  1  0
 35  2  1  0
 34  7  1  0
 16 11  1  0
 29 25  1  0
M  END
>  <cnnaffinity>  (1) 
-6.2835

>  <filename>  (1) 
Fc1cccc(-c2nc(Cc3ccon3)n(Cc3cccnc3)n2)c1

$$$$
