
     RDKit          3D

 43 46  0  0  0  0  0  0  0  0999 V2000
    4.7561    2.4264   27.2211 F   0  0  0  0  0  0  0  0  0  0  0  0
    5.9493    2.6685   26.6621 C   0  0  0  0  0  0  0  0  0  0  0  0
    6.7970    3.5876   27.2718 C   0  0  0  0  0  0  0  0  0  0  0  0
    8.0141    3.8413   26.6480 C   0  0  0  0  0  0  0  0  0  0  0  0
    8.8194    4.7832   27.1558 F   0  0  0  0  0  0  0  0  0  0  0  0
    8.4152    3.1847   25.4926 C   0  0  0  0  0  0  0  0  0  0  0  0
    7.5325    2.2625   24.8913 C   0  0  0  0  0  0  0  0  0  0  0  0
    7.9098    1.5781   23.6288 C   0  0  0  0  0  0  0  0  0  0  0  0
    7.1904    0.6081   23.0846 N   0  0  0  0  0  0  0  0  0  0  0  0
    7.9232    0.2473   22.0107 N   0  0  0  0  0  0  0  0  0  0  0  0
    7.3902   -0.6839   21.0240 C   0  0  0  0  0  0  0  0  0  0  0  0
    6.6525   -0.0011   19.8858 C   0  0  0  0  0  0  0  0  0  0  0  0
    5.4393    0.6480   20.1384 C   0  0  0  0  0  0  0  0  0  0  0  0
    4.7982    1.3076   19.0868 C   0  0  0  0  0  0  0  0  0  0  0  0
    5.3933    1.2981   17.8211 C   0  0  0  0  0  0  0  0  0  0  0  0
    6.5528    0.6774   17.5589 N   0  0  0  0  0  0  0  0  0  0  0  0
    7.1591    0.0542   18.5772 C   0  0  0  0  0  0  0  0  0  0  0  0
    8.1055   -0.4300   18.3294 H   0  0  0  0  0  0  0  0  0  0  0  0
    4.9232    1.8061   16.9795 H   0  0  0  0  0  0  0  0  0  0  0  0
    3.8699    1.8450   19.2365 H   0  0  0  0  0  0  0  0  0  0  0  0
    5.0298    0.6444   21.1511 H   0  0  0  0  0  0  0  0  0  0  0  0
    8.2181   -1.2917   20.6422 H   0  0  0  0  0  0  0  0  0  0  0  0
    6.7246   -1.3407   21.5912 H   0  0  0  0  0  0  0  0  0  0  0  0
    9.0345    1.0130   21.9490 C   0  0  0  0  0  0  0  0  0  0  0  0
   10.1160    0.7829   20.9563 C   0  0  0  0  0  0  0  0  0  0  0  0
   11.0723   -0.3800   21.3292 C   0  0  0  0  0  0  0  0  0  0  0  0
   11.8164   -0.0803   22.6127 C   0  0  0  0  0  0  0  0  0  0  0  0
   12.9382    0.7054   22.7811 C   0  0  0  0  0  0  0  0  0  0  0  0
   13.1623    0.7932   24.1136 N   0  0  0  0  0  0  0  0  0  0  0  0
   12.2577    0.1312   24.8429 N   0  0  0  0  0  0  0  0  0  0  0  0
   11.4297   -0.3934   23.9454 C   0  0  0  0  0  0  0  0  0  0  0  0
   10.6155   -1.0186   24.2970 H   0  0  0  0  0  0  0  0  0  0  0  0
   13.9156    1.2722   24.5892 H   0  0  0  0  0  0  0  0  0  0  0  0
   13.5571    1.2360   22.0677 H   0  0  0  0  0  0  0  0  0  0  0  0
   10.5067   -1.3179   21.4344 H   0  0  0  0  0  0  0  0  0  0  0  0
   11.7822   -0.5718   20.5178 H   0  0  0  0  0  0  0  0  0  0  0  0
   10.6799    1.7162   20.8788 H   0  0  0  0  0  0  0  0  0  0  0  0
    9.6413    0.6141   19.9857 H   0  0  0  0  0  0  0  0  0  0  0  0
    9.0421    1.8833   22.9379 N   0  0  0  0  0  0  0  0  0  0  0  0
    6.2809    2.0037   25.4894 C   0  0  0  0  0  0  0  0  0  0  0  0
    5.5752    1.3028   25.0542 H   0  0  0  0  0  0  0  0  0  0  0  0
    9.3891    3.4181   25.0741 H   0  0  0  0  0  0  0  0  0  0  0  0
    6.5126    4.0916   28.1832 H   0  0  0  0  0  0  0  0  0  0  0  0
  1  2  1  0
  2  3  2  0
  3  4  1  0
  4  5  1  0
  4  6  2  0
  6  7  1  0
  7  8  1  0
  8  9  2  0
  9 10  1  0
 10 11  1  0
 11 12  1  0
 12 13  2  0
 13 14  1  0
 14 15  2  0
 15 16  1  0
 16 17  2  0
 17 18  1  0
 15 19  1  0
 14 20  1  0
 13 21  1  0
 11 22  1  0
 11 23  1  0
 10 24  1  0
 24 25  1  0
 25 26  1  0
 26 27  1  0
 27 28  2  0
 28 29  1  0
 29 30  1  0
 30 31  2  0
 31 32  1  0
 29 33  1  0
 28 34  1  0
 26 35  1  0
 26 36  1  0
 25 37  1  0
 25 38  1  0
 24 39  2  0
  7 40  2  0
 40 41  1  0
  6 42  1  0
  3 43  1  0
 40  2  1  0
 39  8  1  0
 17 12  1  0
 31 27  1  0
M  END
>  <cnnaffinity>  (1) 
-5.78687

>  <filename>  (1) 
Fc1cc(F)cc(-c2nc(CCc3cn[nH]c3)n(Cc3cccnc3)n2)c1

$$$$
