
     RDKit          3D

 42 45  0  0  0  0  0  0  0  0999 V2000
   11.9548    1.5660   21.9174 F   0  0  0  0  0  0  0  0  0  0  0  0
   11.4451    1.4038   23.1477 C   0  0  0  0  0  0  0  0  0  0  0  0
   12.5757    0.9134   24.6341 C   0  0  0  0  0  0  0  0  0  0  0  0
   12.2887    0.7235   24.5534 C   0  0  0  0  0  0  0  0  0  0  0  0
   11.0816    0.8205   25.6372 C   0  0  0  0  0  0  0  0  0  0  0  0
    9.9565    1.2546   24.9162 C   0  0  0  0  0  0  0  0  0  0  0  0
    8.3625    1.3557   25.5792 Cl  0  0  0  0  0  0  0  0  0  0  0  0
   10.1519    1.5785   23.4801 C   0  0  0  0  0  0  0  0  0  0  0  0
    9.0695    1.9782   22.7774 O   0  0  0  0  0  0  0  0  0  0  0  0
    9.0063    1.9310   21.3446 C   0  0  0  0  0  0  0  0  0  0  0  0
    9.3570    0.5592   20.7351 C   0  0  0  0  0  0  0  0  0  0  0  0
    8.5020   -0.5379   21.2649 C   0  0  0  0  0  0  0  0  0  0  0  0
    8.7864   -1.3419   22.2674 N   0  0  0  0  0  0  0  0  0  0  0  0
    7.6301   -2.0343   22.4504 C   0  0  0  0  0  0  0  0  0  0  0  0
    7.3961   -2.9876   23.5770 C   0  0  0  0  0  0  0  0  0  0  0  0
    8.6454   -3.7220   24.1255 C   0  0  0  0  0  0  0  0  0  0  0  0
    8.4290   -3.0053   25.7908 S   0  0  0  0  0  0  0  0  0  0  0  0
    6.9933   -2.2927   24.9189 C   0  0  0  0  0  0  0  0  0  0  0  0
    7.0109   -1.1962   24.9048 H   0  0  0  0  0  0  0  0  0  0  0  0
    6.0369   -2.6318   25.3263 H   0  0  0  0  0  0  0  0  0  0  0  0
    9.5961   -3.4394   23.6640 H   0  0  0  0  0  0  0  0  0  0  0  0
    8.5562   -4.8119   24.1316 H   0  0  0  0  0  0  0  0  0  0  0  0
    6.6186   -3.6777   23.2399 H   0  0  0  0  0  0  0  0  0  0  0  0
    6.6666   -1.7329   21.6068 N   0  0  0  0  0  0  0  0  0  0  0  0
    7.2364   -0.7854   20.8162 N   0  0  0  0  0  0  0  0  0  0  0  0
    6.5165   -0.1352   19.7773 C   0  0  0  0  0  0  0  0  0  0  0  0
    5.3548    0.5886   20.0652 C   0  0  0  0  0  0  0  0  0  0  0  0
    4.7667    1.3241   19.0313 C   0  0  0  0  0  0  0  0  0  0  0  0
    5.3391    1.2802   17.7539 C   0  0  0  0  0  0  0  0  0  0  0  0
    6.4146    0.5334   17.4576 N   0  0  0  0  0  0  0  0  0  0  0  0
    6.9798   -0.1632   18.4488 C   0  0  0  0  0  0  0  0  0  0  0  0
    7.8518   -0.7609   18.1862 H   0  0  0  0  0  0  0  0  0  0  0  0
    4.9164    1.8537   16.9327 H   0  0  0  0  0  0  0  0  0  0  0  0
    3.8864    1.9362   19.2035 H   0  0  0  0  0  0  0  0  0  0  0  0
    4.9435    0.5719   21.0755 H   0  0  0  0  0  0  0  0  0  0  0  0
   10.3969    0.3061   20.9452 H   0  0  0  0  0  0  0  0  0  0  0  0
    9.2661    0.6312   19.6504 H   0  0  0  0  0  0  0  0  0  0  0  0
    9.6264    2.7161   20.8984 H   0  0  0  0  0  0  0  0  0  0  0  0
    7.9644    2.1921   21.1327 H   0  0  0  0  0  0  0  0  0  0  0  0
   10.9632   -0.0823   26.2603 H   0  0  0  0  0  0  0  0  0  0  0  0
   13.2406   -0.1308   24.5355 H   0  0  0  0  0  0  0  0  0  0  0  0
   13.2579    1.8291   24.8519 H   0  0  0  0  0  0  0  0  0  0  0  0
  1  2  1  0
  2  3  2  0
  3  4  1  0
  4  5  2  0
  5  6  1  0
  6  7  1  0
  6  8  2  0
  8  9  1  0
  9 10  1  0
 10 11  1  0
 11 12  1  0
 12 13  2  0
 13 14  1  0
 14 15  1  0
 15 16  1  0
 16 17  1  0
 17 18  1  0
 18 19  1  0
 18 20  1  0
 16 21  1  0
 16 22  1  0
 15 23  1  0
 14 24  2  0
 24 25  1  0
 25 26  1  0
 26 27  2  0
 27 28  1  0
 28 29  2  0
 29 30  1  0
 30 31  2  0
 31 32  1  0
 29 33  1  0
 28 34  1  0
 27 35  1  0
 11 36  1  0
 11 37  1  0
 10 38  1  0
 10 39  1  0
  5 40  1  0
  4 41  1  0
  3 42  1  0
  8  2  1  0
 25 12  1  0
 31 26  1  0
 18 15  1  0
M  END
>  <cnnaffinity>  (1) 
-6.40373

>  <filename>  (1) 
Fc1cccc(Cl)c1OCCc1nc(C2CSC2)nn1-c1cccnc1

$$$$
