
     RDKit          3D

 37 40  0  0  0  0  0  0  0  0999 V2000
   10.5292    1.2106   26.2940 F   0  0  0  0  0  0  0  0  0  0  0  0
   10.1430    1.6589   25.0970 C   0  0  0  0  0  0  0  0  0  0  0  0
   11.0758    2.2818   24.2687 C   0  0  0  0  0  0  0  0  0  0  0  0
   10.6699    2.6866   22.9915 C   0  0  0  0  0  0  0  0  0  0  0  0
    9.3715    2.3799   22.5625 C   0  0  0  0  0  0  0  0  0  0  0  0
    8.9151    2.7446   20.9295 Cl  0  0  0  0  0  0  0  0  0  0  0  0
    8.4449    1.7276   23.3925 C   0  0  0  0  0  0  0  0  0  0  0  0
    7.1592    1.1612   22.8047 C   0  0  0  0  0  0  0  0  0  0  0  0
    7.4297   -0.1986   22.2090 C   0  0  0  0  0  0  0  0  0  0  0  0
    8.0031   -1.1637   22.8973 N   0  0  0  0  0  0  0  0  0  0  0  0
    8.1106   -2.1805   22.0120 C   0  0  0  0  0  0  0  0  0  0  0  0
    8.7702   -3.4526   22.4054 C   0  0  0  0  0  0  0  0  0  0  0  0
    8.2366   -4.3142   23.5278 C   0  0  0  0  0  0  0  0  0  0  0  0
    8.1504   -4.7921   22.1047 C   0  0  0  0  0  0  0  0  0  0  0  0
    7.1813   -4.7496   21.6063 H   0  0  0  0  0  0  0  0  0  0  0  0
    8.7947   -5.6078   21.7822 H   0  0  0  0  0  0  0  0  0  0  0  0
    7.3294   -3.9846   24.0318 H   0  0  0  0  0  0  0  0  0  0  0  0
    8.9783   -4.7683   24.1879 H   0  0  0  0  0  0  0  0  0  0  0  0
    9.8525   -3.3388   22.3852 H   0  0  0  0  0  0  0  0  0  0  0  0
    7.6408   -1.9164   20.8060 N   0  0  0  0  0  0  0  0  0  0  0  0
    7.1814   -0.6396   20.9347 N   0  0  0  0  0  0  0  0  0  0  0  0
    6.5351    0.0111   19.8511 C   0  0  0  0  0  0  0  0  0  0  0  0
    5.3313    0.7068   20.0220 C   0  0  0  0  0  0  0  0  0  0  0  0
    4.7875    1.3687   18.9161 C   0  0  0  0  0  0  0  0  0  0  0  0
    5.4548    1.2993   17.6887 C   0  0  0  0  0  0  0  0  0  0  0  0
    6.5825    0.5891   17.5094 N   0  0  0  0  0  0  0  0  0  0  0  0
    7.0992   -0.0466   18.5642 C   0  0  0  0  0  0  0  0  0  0  0  0
    8.0008   -0.6301   18.4019 H   0  0  0  0  0  0  0  0  0  0  0  0
    5.0770    1.8261   16.8141 H   0  0  0  0  0  0  0  0  0  0  0  0
    3.8743    1.9472   19.0039 H   0  0  0  0  0  0  0  0  0  0  0  0
    4.8318    0.7052   20.9923 H   0  0  0  0  0  0  0  0  0  0  0  0
    6.4207    1.0354   23.6035 H   0  0  0  0  0  0  0  0  0  0  0  0
    6.7533    1.8427   22.0514 H   0  0  0  0  0  0  0  0  0  0  0  0
    8.8289    1.4307   24.7073 C   0  0  0  0  0  0  0  0  0  0  0  0
    8.1525    0.9633   25.4222 H   0  0  0  0  0  0  0  0  0  0  0  0
   11.3336    3.2132   22.3086 H   0  0  0  0  0  0  0  0  0  0  0  0
   12.0851    2.4321   24.6379 H   0  0  0  0  0  0  0  0  0  0  0  0
  1  2  1  0
  2  3  2  0
  3  4  1  0
  4  5  2  0
  5  6  1  0
  5  7  1  0
  7  8  1  0
  8  9  1  0
  9 10  2  0
 10 11  1  0
 11 12  1  0
 12 13  1  0
 13 14  1  0
 14 15  1  0
 14 16  1  0
 13 17  1  0
 13 18  1  0
 12 19  1  0
 11 20  2  0
 20 21  1  0
 21 22  1  0
 22 23  2  0
 23 24  1  0
 24 25  2  0
 25 26  1  0
 26 27  2  0
 27 28  1  0
 25 29  1  0
 24 30  1  0
 23 31  1  0
  8 32  1  0
  8 33  1  0
  7 34  2  0
 34 35  1  0
  4 36  1  0
  3 37  1  0
 34  2  1  0
 21  9  1  0
 27 22  1  0
 14 12  1  0
M  END
>  <cnnaffinity>  (1) 
-6.38573

>  <filename>  (1) 
Fc1ccc(Cl)c(Cc2nc(C3CC3)nn2-c2cccnc2)c1

$$$$
