
     RDKit          3D

 41 44  0  0  0  0  0  0  0  0999 V2000
    3.9997    1.5689   25.7863 F   0  0  0  0  0  0  0  0  0  0  0  0
    5.3230    1.4509   25.5859 C   0  0  0  0  0  0  0  0  0  0  0  0
    6.1672    1.3143   26.6856 C   0  0  0  0  0  0  0  0  0  0  0  0
    7.5446    1.1902   26.4679 C   0  0  0  0  0  0  0  0  0  0  0  0
    8.0353    1.2203   25.1638 C   0  0  0  0  0  0  0  0  0  0  0  0
    9.3622    1.0864   24.9794 F   0  0  0  0  0  0  0  0  0  0  0  0
    7.1925    1.3635   24.0468 C   0  0  0  0  0  0  0  0  0  0  0  0
    7.7251    1.2753   22.6225 C   0  0  0  0  0  0  0  0  0  0  0  0
    7.7231   -0.1382   22.1179 C   0  0  0  0  0  0  0  0  0  0  0  0
    8.3029   -1.1069   22.7981 N   0  0  0  0  0  0  0  0  0  0  0  0
    8.1812   -2.1748   21.9914 C   0  0  0  0  0  0  0  0  0  0  0  0
    8.7883   -3.4827   22.3600 C   0  0  0  0  0  0  0  0  0  0  0  0
    8.8470   -3.8905   23.8552 C   0  0  0  0  0  0  0  0  0  0  0  0
    8.6892   -5.4295   23.8128 C   0  0  0  0  0  0  0  0  0  0  0  0
    8.5939   -5.7852   22.4408 O   0  0  0  0  0  0  0  0  0  0  0  0
    8.0703   -4.6778   21.7412 C   0  0  0  0  0  0  0  0  0  0  0  0
    8.2626   -4.8030   20.6718 H   0  0  0  0  0  0  0  0  0  0  0  0
    6.9819   -4.5871   21.8906 H   0  0  0  0  0  0  0  0  0  0  0  0
    9.5152   -6.0008   24.2542 H   0  0  0  0  0  0  0  0  0  0  0  0
    7.7771   -5.7310   24.3484 H   0  0  0  0  0  0  0  0  0  0  0  0
    8.0123   -3.4592   24.4150 H   0  0  0  0  0  0  0  0  0  0  0  0
    9.7796   -3.5688   24.3272 H   0  0  0  0  0  0  0  0  0  0  0  0
    9.8078   -3.3987   21.9860 H   0  0  0  0  0  0  0  0  0  0  0  0
    7.5994   -1.9377   20.8276 N   0  0  0  0  0  0  0  0  0  0  0  0
    7.2732   -0.6204   20.9194 N   0  0  0  0  0  0  0  0  0  0  0  0
    6.5838    0.0228   19.8513 C   0  0  0  0  0  0  0  0  0  0  0  0
    5.3801    0.7031   20.0736 C   0  0  0  0  0  0  0  0  0  0  0  0
    4.7738    1.3588   18.9985 C   0  0  0  0  0  0  0  0  0  0  0  0
    5.3967    1.3249   17.7474 C   0  0  0  0  0  0  0  0  0  0  0  0
    6.5348    0.6427   17.5196 N   0  0  0  0  0  0  0  0  0  0  0  0
    7.1003   -0.0057   18.5421 C   0  0  0  0  0  0  0  0  0  0  0  0
    8.0103   -0.5596   18.3186 H   0  0  0  0  0  0  0  0  0  0  0  0
    4.9725    1.8575   16.8982 H   0  0  0  0  0  0  0  0  0  0  0  0
    3.8419    1.8996   19.1203 H   0  0  0  0  0  0  0  0  0  0  0  0
    4.9228    0.6961   21.0637 H   0  0  0  0  0  0  0  0  0  0  0  0
    8.7665    1.6133   22.6029 H   0  0  0  0  0  0  0  0  0  0  0  0
    7.1596    1.9271   21.9517 H   0  0  0  0  0  0  0  0  0  0  0  0
    5.8167    1.4698   24.2824 C   0  0  0  0  0  0  0  0  0  0  0  0
    5.1102    1.5673   23.4627 H   0  0  0  0  0  0  0  0  0  0  0  0
    8.2516    1.0631   27.2836 H   0  0  0  0  0  0  0  0  0  0  0  0
    5.7408    1.3040   27.6829 H   0  0  0  0  0  0  0  0  0  0  0  0
  1  2  1  0
  2  3  2  0
  3  4  1  0
  4  5  2  0
  5  6  1  0
  5  7  1  0
  7  8  1  0
  8  9  1  0
  9 10  2  0
 10 11  1  0
 11 12  1  0
 12 13  1  0
 13 14  1  0
 14 15  1  0
 15 16  1  0
 16 17  1  0
 16 18  1  0
 14 19  1  0
 14 20  1  0
 13 21  1  0
 13 22  1  0
 12 23  1  0
 11 24  2  0
 24 25  1  0
 25 26  1  0
 26 27  2  0
 27 28  1  0
 28 29  2  0
 29 30  1  0
 30 31  2  0
 31 32  1  0
 29 33  1  0
 28 34  1  0
 27 35  1  0
  8 36  1  0
  8 37  1  0
  7 38  2  0
 38 39  1  0
  4 40  1  0
  3 41  1  0
 38  2  1  0
 25  9  1  0
 31 26  1  0
 16 12  1  0
M  END
>  <cnnaffinity>  (1) 
-6.4628

>  <filename>  (1) 
Fc1ccc(F)c(Cc2nc(C3CCOC3)nn2-c2cccnc2)c1

$$$$
