
     RDKit          3D

 46 50  0  0  0  0  0  0  0  0999 V2000
   14.4105   -1.7715   21.4054 F   0  0  0  0  0  0  0  0  0  0  0  0
   13.5786   -0.8380   21.8850 C   0  0  0  0  0  0  0  0  0  0  0  0
   14.1400    0.2649   22.5247 C   0  0  0  0  0  0  0  0  0  0  0  0
   13.3075    1.2514   23.0484 C   0  0  0  0  0  0  0  0  0  0  0  0
   11.9363    1.1407   22.8886 C   0  0  0  0  0  0  0  0  0  0  0  0
   11.3773    0.0504   22.1818 C   0  0  0  0  0  0  0  0  0  0  0  0
    9.9150    0.0816   21.9525 C   0  0  0  0  0  0  0  0  0  0  0  0
    9.1655   -0.8521   21.3871 N   0  0  0  0  0  0  0  0  0  0  0  0
    7.9155   -0.3282   21.4949 N   0  0  0  0  0  0  0  0  0  0  0  0
    6.7309   -0.9497   20.9126 C   0  0  0  0  0  0  0  0  0  0  0  0
    6.1680   -0.1327   19.7659 C   0  0  0  0  0  0  0  0  0  0  0  0
    4.9531    0.5615   19.8163 C   0  0  0  0  0  0  0  0  0  0  0  0
    4.5986    1.3732   18.7322 C   0  0  0  0  0  0  0  0  0  0  0  0
    5.4580    1.4424   17.6339 C   0  0  0  0  0  0  0  0  0  0  0  0
    6.6163    0.7692   17.5580 N   0  0  0  0  0  0  0  0  0  0  0  0
    6.9569    0.0235   18.6142 C   0  0  0  0  0  0  0  0  0  0  0  0
    7.9270   -0.4706   18.5611 H   0  0  0  0  0  0  0  0  0  0  0  0
    5.2086    2.0694   16.7800 H   0  0  0  0  0  0  0  0  0  0  0  0
    3.6923    1.9679   18.7389 H   0  0  0  0  0  0  0  0  0  0  0  0
    4.3013    0.4939   20.6911 H   0  0  0  0  0  0  0  0  0  0  0  0
    7.0466   -1.9406   20.5808 H   0  0  0  0  0  0  0  0  0  0  0  0
    5.9857   -1.0805   21.7089 H   0  0  0  0  0  0  0  0  0  0  0  0
    7.9765    0.8785   22.0859 C   0  0  0  0  0  0  0  0  0  0  0  0
    6.8197    1.5727   22.7371 C   0  0  0  0  0  0  0  0  0  0  0  0
    6.6595    0.9875   24.1037 C   0  0  0  0  0  0  0  0  0  0  0  0
    7.5364    0.9838   25.1354 C   0  0  0  0  0  0  0  0  0  0  0  0
    7.0055    0.0164   26.0302 C   0  0  0  0  0  0  0  0  0  0  0  0
    7.6329   -0.4907   27.2671 C   0  0  0  0  0  0  0  0  0  0  0  0
    8.3299    0.4856   28.1803 C   0  0  0  0  0  0  0  0  0  0  0  0
    9.1425   -0.4883   27.3843 C   0  0  0  0  0  0  0  0  0  0  0  0
    9.7048   -0.1068   26.5315 H   0  0  0  0  0  0  0  0  0  0  0  0
    9.6189   -1.3204   27.8924 H   0  0  0  0  0  0  0  0  0  0  0  0
    8.3223    1.5237   27.8512 H   0  0  0  0  0  0  0  0  0  0  0  0
    8.2549    0.3666   29.2569 H   0  0  0  0  0  0  0  0  0  0  0  0
    7.1003   -1.3254   27.7121 H   0  0  0  0  0  0  0  0  0  0  0  0
    5.8589   -0.4526   25.5931 N   0  0  0  0  0  0  0  0  0  0  0  0
    5.6472    0.1649   24.3731 O   0  0  0  0  0  0  0  0  0  0  0  0
    8.4550    1.5455   25.1856 H   0  0  0  0  0  0  0  0  0  0  0  0
    7.1098    2.6160   22.8374 H   0  0  0  0  0  0  0  0  0  0  0  0
    5.9167    1.5039   22.1367 H   0  0  0  0  0  0  0  0  0  0  0  0
    9.2185    1.1823   22.3564 N   0  0  0  0  0  0  0  0  0  0  0  0
   12.2078   -0.9860   21.7063 C   0  0  0  0  0  0  0  0  0  0  0  0
   11.8222   -1.8755   21.2051 H   0  0  0  0  0  0  0  0  0  0  0  0
   11.2837    1.9027   23.3073 H   0  0  0  0  0  0  0  0  0  0  0  0
   13.7108    2.1339   23.5397 H   0  0  0  0  0  0  0  0  0  0  0  0
   15.2074    0.3516   22.5633 H   0  0  0  0  0  0  0  0  0  0  0  0
  1  2  1  0
  2  3  2  0
  3  4  1  0
  4  5  2  0
  5  6  1  0
  6  7  1  0
  7  8  2  0
  8  9  1  0
  9 10  1  0
 10 11  1  0
 11 12  2  0
 12 13  1  0
 13 14  2  0
 14 15  1  0
 15 16  2  0
 16 17  1  0
 14 18  1  0
 13 19  1  0
 12 20  1  0
 10 21  1  0
 10 22  1  0
  9 23  1  0
 23 24  1  0
 24 25  1  0
 25 26  2  0
 26 27  1  0
 27 28  1  0
 28 29  1  0
 29 30  1  0
 30 31  1  0
 30 32  1  0
 29 33  1  0
 29 34  1  0
 28 35  1  0
 27 36  2  0
 36 37  1  0
 26 38  1  0
 24 39  1  0
 24 40  1  0
 23 41  2  0
  6 42  2  0
 42 43  1  0
  5 44  1  0
  4 45  1  0
  3 46  1  0
 42  2  1  0
 41  7  1  0
 16 11  1  0
 37 25  1  0
 30 28  1  0
M  END
>  <cnnaffinity>  (1) 
-6.27701

>  <filename>  (1) 
Fc1cccc(-c2nc(Cc3cc(C4CC4)no3)n(Cc3cccnc3)n2)c1

$$$$
