
     RDKit          3D

 43 46  0  0  0  0  0  0  0  0999 V2000
   11.2378    2.3895   23.2107 F   0  0  0  0  0  0  0  0  0  0  0  0
   10.0230    2.2001   23.7685 C   0  0  0  0  0  0  0  0  0  0  0  0
    9.9473    2.1253   25.1544 C   0  0  0  0  0  0  0  0  0  0  0  0
    8.7051    1.9310   25.7609 C   0  0  0  0  0  0  0  0  0  0  0  0
    7.5681    1.7531   24.9660 C   0  0  0  0  0  0  0  0  0  0  0  0
    7.6821    1.8104   23.5734 C   0  0  0  0  0  0  0  0  0  0  0  0
    8.9080    2.0649   22.9377 C   0  0  0  0  0  0  0  0  0  0  0  0
    9.0547    2.0107   21.4331 C   0  0  0  0  0  0  0  0  0  0  0  0
    9.5318    0.6144   20.9412 C   0  0  0  0  0  0  0  0  0  0  0  0
    8.6534   -0.5003   21.3989 C   0  0  0  0  0  0  0  0  0  0  0  0
    8.8849   -1.3196   22.4103 N   0  0  0  0  0  0  0  0  0  0  0  0
    7.6816   -1.9214   22.5919 C   0  0  0  0  0  0  0  0  0  0  0  0
    7.4048   -2.8070   23.7597 C   0  0  0  0  0  0  0  0  0  0  0  0
    6.3944   -3.9646   23.5164 C   0  0  0  0  0  0  0  0  0  0  0  0
    5.4285   -3.3310   24.5464 C   0  0  0  0  0  0  0  0  0  0  0  0
    6.4410   -2.1986   24.8349 C   0  0  0  0  0  0  0  0  0  0  0  0
    6.8432   -2.1745   25.8512 H   0  0  0  0  0  0  0  0  0  0  0  0
    6.0901   -1.1859   24.6006 H   0  0  0  0  0  0  0  0  0  0  0  0
    4.4807   -2.9908   24.1196 H   0  0  0  0  0  0  0  0  0  0  0  0
    5.1829   -3.9606   25.4055 H   0  0  0  0  0  0  0  0  0  0  0  0
    6.0167   -4.0093   22.4894 H   0  0  0  0  0  0  0  0  0  0  0  0
    6.7690   -4.9573   23.7805 H   0  0  0  0  0  0  0  0  0  0  0  0
    8.3743   -3.1135   24.1550 H   0  0  0  0  0  0  0  0  0  0  0  0
    6.7467   -1.5689   21.7286 N   0  0  0  0  0  0  0  0  0  0  0  0
    7.3772   -0.6655   20.9387 N   0  0  0  0  0  0  0  0  0  0  0  0
    6.6625    0.0038   19.9035 C   0  0  0  0  0  0  0  0  0  0  0  0
    5.4440    0.6402   20.1673 C   0  0  0  0  0  0  0  0  0  0  0  0
    4.8141    1.3088   19.1115 C   0  0  0  0  0  0  0  0  0  0  0  0
    5.3999    1.2962   17.8387 C   0  0  0  0  0  0  0  0  0  0  0  0
    6.5582    0.6719   17.5770 N   0  0  0  0  0  0  0  0  0  0  0  0
    7.1683    0.0510   18.5930 C   0  0  0  0  0  0  0  0  0  0  0  0
    8.1132   -0.4346   18.3655 H   0  0  0  0  0  0  0  0  0  0  0  0
    4.9209    1.7868   16.9937 H   0  0  0  0  0  0  0  0  0  0  0  0
    3.8813    1.8382   19.2623 H   0  0  0  0  0  0  0  0  0  0  0  0
    5.0157    0.6068   21.1739 H   0  0  0  0  0  0  0  0  0  0  0  0
   10.5323    0.4016   21.3222 H   0  0  0  0  0  0  0  0  0  0  0  0
    9.5822    0.6111   19.8506 H   0  0  0  0  0  0  0  0  0  0  0  0
    8.0898    2.2492   20.9682 H   0  0  0  0  0  0  0  0  0  0  0  0
    9.7713    2.7674   21.0960 H   0  0  0  0  0  0  0  0  0  0  0  0
    6.8140    1.6259   22.9468 H   0  0  0  0  0  0  0  0  0  0  0  0
    6.6038    1.5540   25.4258 H   0  0  0  0  0  0  0  0  0  0  0  0
    8.6367    1.8984   26.8462 H   0  0  0  0  0  0  0  0  0  0  0  0
   10.8752    2.1442   25.7064 H   0  0  0  0  0  0  0  0  0  0  0  0
  1  2  1  0
  2  3  2  0
  3  4  1  0
  4  5  2  0
  5  6  1  0
  6  7  2  0
  7  8  1  0
  8  9  1  0
  9 10  1  0
 10 11  2  0
 11 12  1  0
 12 13  1  0
 13 14  1  0
 14 15  1  0
 15 16  1  0
 16 17  1  0
 16 18  1  0
 15 19  1  0
 15 20  1  0
 14 21  1  0
 14 22  1  0
 13 23  1  0
 12 24  2  0
 24 25  1  0
 25 26  1  0
 26 27  2  0
 27 28  1  0
 28 29  2  0
 29 30  1  0
 30 31  2  0
 31 32  1  0
 29 33  1  0
 28 34  1  0
 27 35  1  0
  9 36  1  0
  9 37  1  0
  8 38  1  0
  8 39  1  0
  6 40  1  0
  5 41  1  0
  4 42  1  0
  3 43  1  0
  7  2  1  0
 25 10  1  0
 31 26  1  0
 16 13  1  0
M  END
>  <cnnaffinity>  (1) 
-6.04339

>  <filename>  (1) 
Fc1ccccc1CCc1nc(C2CCC2)nn1-c1cccnc1

$$$$
