
     RDKit          3D

 41 44  0  0  0  0  0  0  0  0999 V2000
    7.6783    4.6048   27.8008 F   0  0  0  0  0  0  0  0  0  0  0  0
    7.1184    3.5622   27.1714 C   0  0  0  0  0  0  0  0  0  0  0  0
    6.0371    2.8835   27.7501 C   0  0  0  0  0  0  0  0  0  0  0  0
    5.4745    1.8075   27.1834 N   0  0  0  0  0  0  0  0  0  0  0  0
    5.9634    1.3693   26.0172 C   0  0  0  0  0  0  0  0  0  0  0  0
    7.0156    2.0154   25.3577 C   0  0  0  0  0  0  0  0  0  0  0  0
    7.4953    1.4832   24.0872 C   0  0  0  0  0  0  0  0  0  0  0  0
    6.8687    0.5687   23.3640 N   0  0  0  0  0  0  0  0  0  0  0  0
    7.6915    0.4103   22.2978 N   0  0  0  0  0  0  0  0  0  0  0  0
    7.3705   -0.5181   21.2181 C   0  0  0  0  0  0  0  0  0  0  0  0
    6.7104    0.1192   20.0013 C   0  0  0  0  0  0  0  0  0  0  0  0
    5.4938    0.7999   20.1464 C   0  0  0  0  0  0  0  0  0  0  0  0
    4.9054    1.3759   19.0181 C   0  0  0  0  0  0  0  0  0  0  0  0
    5.5465    1.2494   17.7826 C   0  0  0  0  0  0  0  0  0  0  0  0
    6.6996    0.5851   17.6158 N   0  0  0  0  0  0  0  0  0  0  0  0
    7.2573    0.0440   18.7085 C   0  0  0  0  0  0  0  0  0  0  0  0
    8.1991   -0.4797   18.5359 H   0  0  0  0  0  0  0  0  0  0  0  0
    5.1098    1.6929   16.8879 H   0  0  0  0  0  0  0  0  0  0  0  0
    3.9794    1.9380   19.0839 H   0  0  0  0  0  0  0  0  0  0  0  0
    5.0300    0.8929   21.1311 H   0  0  0  0  0  0  0  0  0  0  0  0
    6.7044   -1.2630   21.6626 H   0  0  0  0  0  0  0  0  0  0  0  0
    8.2932   -1.0361   20.9333 H   0  0  0  0  0  0  0  0  0  0  0  0
    8.7551    1.2325   22.4325 C   0  0  0  0  0  0  0  0  0  0  0  0
    9.9142    1.3601   21.4924 C   0  0  0  0  0  0  0  0  0  0  0  0
   11.1530    0.5393   21.8550 C   0  0  0  0  0  0  0  0  0  0  0  0
   11.4293   -0.7159   21.2979 C   0  0  0  0  0  0  0  0  0  0  0  0
   12.6562   -1.3297   21.5702 C   0  0  0  0  0  0  0  0  0  0  0  0
   13.5321   -0.7000   22.4591 C   0  0  0  0  0  0  0  0  0  0  0  0
   13.2430    0.4438   23.0924 N   0  0  0  0  0  0  0  0  0  0  0  0
   12.0838    1.0363   22.7879 C   0  0  0  0  0  0  0  0  0  0  0  0
   11.8676    1.9508   23.3330 H   0  0  0  0  0  0  0  0  0  0  0  0
   14.5011   -1.1378   22.6898 H   0  0  0  0  0  0  0  0  0  0  0  0
   12.9273   -2.2670   21.0931 H   0  0  0  0  0  0  0  0  0  0  0  0
   10.7084   -1.2052   20.6468 H   0  0  0  0  0  0  0  0  0  0  0  0
   10.1868    2.4220   21.4938 H   0  0  0  0  0  0  0  0  0  0  0  0
    9.5712    1.1353   20.4794 H   0  0  0  0  0  0  0  0  0  0  0  0
    8.6580    1.9170   23.5493 N   0  0  0  0  0  0  0  0  0  0  0  0
    7.6115    3.1496   25.9462 C   0  0  0  0  0  0  0  0  0  0  0  0
    8.4262    3.6835   25.4583 H   0  0  0  0  0  0  0  0  0  0  0  0
    5.5141    0.4733   25.5902 H   0  0  0  0  0  0  0  0  0  0  0  0
    5.6241    3.2345   28.6911 H   0  0  0  0  0  0  0  0  0  0  0  0
  1  2  1  0
  2  3  2  0
  3  4  1  0
  4  5  2  0
  5  6  1  0
  6  7  1  0
  7  8  2  0
  8  9  1  0
  9 10  1  0
 10 11  1  0
 11 12  2  0
 12 13  1  0
 13 14  2  0
 14 15  1  0
 15 16  2  0
 16 17  1  0
 14 18  1  0
 13 19  1  0
 12 20  1  0
 10 21  1  0
 10 22  1  0
  9 23  1  0
 23 24  1  0
 24 25  1  0
 25 26  2  0
 26 27  1  0
 27 28  2  0
 28 29  1  0
 29 30  2  0
 30 31  1  0
 28 32  1  0
 27 33  1  0
 26 34  1  0
 24 35  1  0
 24 36  1  0
 23 37  2  0
  6 38  2  0
 38 39  1  0
  5 40  1  0
  3 41  1  0
 38  2  1  0
 37  7  1  0
 16 11  1  0
 30 25  1  0
M  END
>  <cnnaffinity>  (1) 
-6.40334

>  <filename>  (1) 
Fc1cncc(-c2nc(Cc3cccnc3)n(Cc3cccnc3)n2)c1

$$$$
