
     RDKit          3D

 45 48  0  0  0  0  0  0  0  0999 V2000
    2.9271    4.2915   27.7255 F   0  0  0  0  0  0  0  0  0  0  0  0
    3.7995    3.6796   26.9041 C   0  0  0  0  0  0  0  0  0  0  0  0
    3.3402    2.6580   26.0729 C   0  0  0  0  0  0  0  0  0  0  0  0
    4.2651    1.9925   25.2592 C   0  0  0  0  0  0  0  0  0  0  0  0
    5.6285    2.3255   25.2729 C   0  0  0  0  0  0  0  0  0  0  0  0
    6.6344    1.4529   24.5501 C   0  0  0  0  0  0  0  0  0  0  0  0
    6.6477    1.5008   23.0003 C   0  0  0  0  0  0  0  0  0  0  0  0
    7.6990    0.5854   22.4580 C   0  0  0  0  0  0  0  0  0  0  0  0
    8.9650    0.7276   22.7893 N   0  0  0  0  0  0  0  0  0  0  0  0
    9.5641   -0.3674   22.2664 C   0  0  0  0  0  0  0  0  0  0  0  0
   11.0053   -0.5415   22.4477 C   0  0  0  0  0  0  0  0  0  0  0  0
   11.8178   -1.4100   21.6996 C   0  0  0  0  0  0  0  0  0  0  0  0
   13.1862   -1.3328   21.9264 C   0  0  0  0  0  0  0  0  0  0  0  0
   14.0206   -2.1370   21.2563 F   0  0  0  0  0  0  0  0  0  0  0  0
   13.7122   -0.4188   22.8519 C   0  0  0  0  0  0  0  0  0  0  0  0
   12.9243    0.3758   23.5857 N   0  0  0  0  0  0  0  0  0  0  0  0
   11.6049    0.3152   23.3869 C   0  0  0  0  0  0  0  0  0  0  0  0
   10.9807    0.9703   23.9893 H   0  0  0  0  0  0  0  0  0  0  0  0
   14.7868   -0.3637   23.0216 H   0  0  0  0  0  0  0  0  0  0  0  0
   11.4197   -2.0933   20.9487 H   0  0  0  0  0  0  0  0  0  0  0  0
    8.7499   -1.1765   21.6177 N   0  0  0  0  0  0  0  0  0  0  0  0
    7.5477   -0.5519   21.7383 N   0  0  0  0  0  0  0  0  0  0  0  0
    6.3844   -1.0063   20.9847 C   0  0  0  0  0  0  0  0  0  0  0  0
    6.0340   -0.1088   19.8116 C   0  0  0  0  0  0  0  0  0  0  0  0
    4.8501    0.6342   19.7313 C   0  0  0  0  0  0  0  0  0  0  0  0
    4.6578    1.4711   18.6283 C   0  0  0  0  0  0  0  0  0  0  0  0
    5.6420    1.5156   17.6375 C   0  0  0  0  0  0  0  0  0  0  0  0
    6.7677    0.7860   17.6785 N   0  0  0  0  0  0  0  0  0  0  0  0
    6.9492    0.0063   18.7505 C   0  0  0  0  0  0  0  0  0  0  0  0
    7.8752   -0.5703   18.7772 H   0  0  0  0  0  0  0  0  0  0  0  0
    5.5147    2.1455   16.7583 H   0  0  0  0  0  0  0  0  0  0  0  0
    3.7744    2.0930   18.5299 H   0  0  0  0  0  0  0  0  0  0  0  0
    4.0850    0.5607   20.5090 H   0  0  0  0  0  0  0  0  0  0  0  0
    5.5405   -1.0941   21.6723 H   0  0  0  0  0  0  0  0  0  0  0  0
    6.6370   -2.0130   20.6423 H   0  0  0  0  0  0  0  0  0  0  0  0
    5.6748    1.2569   22.5666 H   0  0  0  0  0  0  0  0  0  0  0  0
    6.9021    2.5144   22.6751 H   0  0  0  0  0  0  0  0  0  0  0  0
    7.6459    1.6949   24.9046 H   0  0  0  0  0  0  0  0  0  0  0  0
    6.4523    0.4127   24.8580 H   0  0  0  0  0  0  0  0  0  0  0  0
    6.0412    3.3894   26.0955 C   0  0  0  0  0  0  0  0  0  0  0  0
    5.1345    4.0687   26.9209 C   0  0  0  0  0  0  0  0  0  0  0  0
    5.4441    4.8729   27.5835 H   0  0  0  0  0  0  0  0  0  0  0  0
    7.0909    3.6771   26.1059 H   0  0  0  0  0  0  0  0  0  0  0  0
    3.9287    1.1753   24.6230 H   0  0  0  0  0  0  0  0  0  0  0  0
    2.2899    2.3900   26.0942 H   0  0  0  0  0  0  0  0  0  0  0  0
  1  2  1  0
  2  3  2  0
  3  4  1  0
  4  5  2  0
  5  6  1  0
  6  7  1  0
  7  8  1  0
  8  9  2  0
  9 10  1  0
 10 11  1  0
 11 12  2  0
 12 13  1  0
 13 14  1  0
 13 15  2  0
 15 16  1  0
 16 17  2  0
 17 18  1  0
 15 19  1  0
 12 20  1  0
 10 21  2  0
 21 22  1  0
 22 23  1  0
 23 24  1  0
 24 25  2  0
 25 26  1  0
 26 27  2  0
 27 28  1  0
 28 29  2  0
 29 30  1  0
 27 31  1  0
 26 32  1  0
 25 33  1  0
 23 34  1  0
 23 35  1  0
  7 36  1  0
  7 37  1  0
  6 38  1  0
  6 39  1  0
  5 40  1  0
 40 41  2  0
 41 42  1  0
 40 43  1  0
  4 44  1  0
  3 45  1  0
 41  2  1  0
 22  8  1  0
 29 24  1  0
 17 11  1  0
M  END
>  <cnnaffinity>  (1) 
-6.29537

>  <filename>  (1) 
Fc1ccc(CCc2nc(-c3cncc(F)c3)nn2Cc2cccnc2)cc1

$$$$
