
     RDKit          3D

 36 39  0  0  0  0  0  0  0  0999 V2000
    9.4790   -1.9080   27.2521 F   0  0  0  0  0  0  0  0  0  0  0  0
    8.4885   -2.0649   26.3678 C   0  0  0  0  0  0  0  0  0  0  0  0
    7.4047   -2.8486   26.7282 C   0  0  0  0  0  0  0  0  0  0  0  0
    6.3497   -2.9386   25.8265 C   0  0  0  0  0  0  0  0  0  0  0  0
    5.2752   -3.6579   26.1759 F   0  0  0  0  0  0  0  0  0  0  0  0
    6.3812   -2.3212   24.5835 C   0  0  0  0  0  0  0  0  0  0  0  0
    7.5449   -1.6440   24.2143 C   0  0  0  0  0  0  0  0  0  0  0  0
    7.7149   -1.2568   22.8557 N   0  0  0  0  0  0  0  0  0  0  0  0
    6.8014   -0.5433   22.1599 N   0  0  0  0  0  0  0  0  0  0  0  0
    7.2871   -0.5572   20.9336 C   0  0  0  0  0  0  0  0  0  0  0  0
    6.5837    0.1015   19.8368 C   0  0  0  0  0  0  0  0  0  0  0  0
    5.3496    0.7560   20.0184 C   0  0  0  0  0  0  0  0  0  0  0  0
    4.7804    1.3822   18.9134 C   0  0  0  0  0  0  0  0  0  0  0  0
    5.4504    1.3243   17.6841 C   0  0  0  0  0  0  0  0  0  0  0  0
    6.6076    0.6733   17.4971 N   0  0  0  0  0  0  0  0  0  0  0  0
    7.1552    0.0709   18.5588 C   0  0  0  0  0  0  0  0  0  0  0  0
    8.0867   -0.4672   18.3877 H   0  0  0  0  0  0  0  0  0  0  0  0
    5.0338    1.8180   16.8095 H   0  0  0  0  0  0  0  0  0  0  0  0
    3.8433    1.9216   18.9908 H   0  0  0  0  0  0  0  0  0  0  0  0
    4.8656    0.7685   21.0000 H   0  0  0  0  0  0  0  0  0  0  0  0
    8.4399   -1.2766   20.7906 N   0  0  0  0  0  0  0  0  0  0  0  0
    8.6650   -1.7205   22.0055 C   0  0  0  0  0  0  0  0  0  0  0  0
    9.7080   -2.6846   22.4519 C   0  0  0  0  0  0  0  0  0  0  0  0
    9.1066   -4.0074   22.8717 C   0  0  0  0  0  0  0  0  0  0  0  0
    9.5041   -4.5916   23.9711 N   0  0  0  0  0  0  0  0  0  0  0  0
    8.7947   -5.7684   24.0723 O   0  0  0  0  0  0  0  0  0  0  0  0
    7.9827   -5.8754   23.0105 C   0  0  0  0  0  0  0  0  0  0  0  0
    8.1119   -4.7945   22.2103 C   0  0  0  0  0  0  0  0  0  0  0  0
    7.5780   -4.5857   21.2967 H   0  0  0  0  0  0  0  0  0  0  0  0
    7.4041   -6.7863   22.9472 H   0  0  0  0  0  0  0  0  0  0  0  0
   10.2803   -2.2799   23.2912 H   0  0  0  0  0  0  0  0  0  0  0  0
   10.4098   -2.8194   21.6310 H   0  0  0  0  0  0  0  0  0  0  0  0
    8.5896   -1.4494   25.1254 C   0  0  0  0  0  0  0  0  0  0  0  0
    9.4547   -0.8487   24.8829 H   0  0  0  0  0  0  0  0  0  0  0  0
    5.5221   -2.3613   23.9270 H   0  0  0  0  0  0  0  0  0  0  0  0
    7.3986   -3.3826   27.6648 H   0  0  0  0  0  0  0  0  0  0  0  0
  1  2  1  0
  2  3  2  0
  3  4  1  0
  4  5  1  0
  4  6  2  0
  6  7  1  0
  7  8  1  0
  8  9  1  0
  9 10  2  0
 10 11  1  0
 11 12  2  0
 12 13  1  0
 13 14  2  0
 14 15  1  0
 15 16  2  0
 16 17  1  0
 14 18  1  0
 13 19  1  0
 12 20  1  0
 10 21  1  0
 21 22  2  0
 22 23  1  0
 23 24  1  0
 24 25  2  0
 25 26  1  0
 26 27  1  0
 27 28  2  0
 28 29  1  0
 27 30  1  0
 23 31  1  0
 23 32  1  0
  7 33  2  0
 33 34  1  0
  6 35  1  0
  3 36  1  0
 33  2  1  0
 22  8  1  0
 28 24  1  0
 16 11  1  0
M  END
>  <cnnaffinity>  (1) 
-6.10804

>  <filename>  (1) 
Fc1cc(F)cc(-n2nc(-c3cccnc3)nc2Cc2ccon2)c1

$$$$
