
     RDKit          3D

 41 44  0  0  0  0  0  0  0  0999 V2000
   15.4162   -1.1898   19.9019 F   0  0  0  0  0  0  0  0  0  0  0  0
   14.3962   -1.1286   20.7621 C   0  0  0  0  0  0  0  0  0  0  0  0
   13.3802   -2.0435   20.5511 C   0  0  0  0  0  0  0  0  0  0  0  0
   12.1597   -1.7795   21.1368 C   0  0  0  0  0  0  0  0  0  0  0  0
   11.9349   -0.5833   21.8315 C   0  0  0  0  0  0  0  0  0  0  0  0
   10.5385   -0.1375   21.8856 C   0  0  0  0  0  0  0  0  0  0  0  0
    9.5753   -0.9225   21.4203 N   0  0  0  0  0  0  0  0  0  0  0  0
    8.4656   -0.1823   21.5507 N   0  0  0  0  0  0  0  0  0  0  0  0
    7.1984   -0.7286   21.0686 C   0  0  0  0  0  0  0  0  0  0  0  0
    6.5501    0.0455   19.9430 C   0  0  0  0  0  0  0  0  0  0  0  0
    5.3264    0.7030   20.0996 C   0  0  0  0  0  0  0  0  0  0  0  0
    4.7636    1.3628   19.0053 C   0  0  0  0  0  0  0  0  0  0  0  0
    5.4515    1.3427   17.7892 C   0  0  0  0  0  0  0  0  0  0  0  0
    6.6252    0.7154   17.6169 N   0  0  0  0  0  0  0  0  0  0  0  0
    7.1570    0.0962   18.6772 C   0  0  0  0  0  0  0  0  0  0  0  0
    8.1123   -0.3998   18.5086 H   0  0  0  0  0  0  0  0  0  0  0  0
    5.0453    1.8457   16.9131 H   0  0  0  0  0  0  0  0  0  0  0  0
    3.8278    1.9025   19.0833 H   0  0  0  0  0  0  0  0  0  0  0  0
    4.8225    0.6996   21.0688 H   0  0  0  0  0  0  0  0  0  0  0  0
    7.4314   -1.7497   20.7469 H   0  0  0  0  0  0  0  0  0  0  0  0
    6.5159   -0.8088   21.9183 H   0  0  0  0  0  0  0  0  0  0  0  0
    8.7928    0.9988   22.1177 C   0  0  0  0  0  0  0  0  0  0  0  0
    7.7800    1.8679   22.7952 C   0  0  0  0  0  0  0  0  0  0  0  0
    7.4276    1.2352   24.1278 C   0  0  0  0  0  0  0  0  0  0  0  0
    8.3397    1.0171   25.1278 C   0  0  0  0  0  0  0  0  0  0  0  0
    7.7361    0.2814   26.1065 N   0  0  0  0  0  0  0  0  0  0  0  0
    6.4388    0.0185   25.7529 C   0  0  0  0  0  0  0  0  0  0  0  0
    6.2225    0.6028   24.5267 C   0  0  0  0  0  0  0  0  0  0  0  0
    5.3038    0.5694   23.9569 H   0  0  0  0  0  0  0  0  0  0  0  0
    5.7849   -0.5600   26.3914 H   0  0  0  0  0  0  0  0  0  0  0  0
    8.1981   -0.0304   26.9456 H   0  0  0  0  0  0  0  0  0  0  0  0
    9.3895    1.2800   25.1451 H   0  0  0  0  0  0  0  0  0  0  0  0
    6.8956    1.9862   22.1621 H   0  0  0  0  0  0  0  0  0  0  0  0
    8.2336    2.8539   22.9285 H   0  0  0  0  0  0  0  0  0  0  0  0
   10.1025    1.0727   22.3057 N   0  0  0  0  0  0  0  0  0  0  0  0
   13.0359    0.1887   22.2357 C   0  0  0  0  0  0  0  0  0  0  0  0
   14.2999   -0.1034   21.7208 C   0  0  0  0  0  0  0  0  0  0  0  0
   15.1414    0.5361   21.9667 H   0  0  0  0  0  0  0  0  0  0  0  0
   12.8927    1.0633   22.8629 H   0  0  0  0  0  0  0  0  0  0  0  0
   11.3047   -2.4191   20.9949 H   0  0  0  0  0  0  0  0  0  0  0  0
   13.5441   -2.8868   19.8919 H   0  0  0  0  0  0  0  0  0  0  0  0
  1  2  1  0
  2  3  2  0
  3  4  1  0
  4  5  2  0
  5  6  1  0
  6  7  2  0
  7  8  1  0
  8  9  1  0
  9 10  1  0
 10 11  2  0
 11 12  1  0
 12 13  2  0
 13 14  1  0
 14 15  2  0
 15 16  1  0
 13 17  1  0
 12 18  1  0
 11 19  1  0
  9 20  1  0
  9 21  1  0
  8 22  1  0
 22 23  1  0
 23 24  1  0
 24 25  2  0
 25 26  1  0
 26 27  1  0
 27 28  2  0
 28 29  1  0
 27 30  1  0
 26 31  1  0
 25 32  1  0
 23 33  1  0
 23 34  1  0
 22 35  2  0
  5 36  1  0
 36 37  2  0
 37 38  1  0
 36 39  1  0
  4 40  1  0
  3 41  1  0
 37  2  1  0
 35  6  1  0
 15 10  1  0
 28 24  1  0
M  END
>  <cnnaffinity>  (1) 
-6.49539

>  <filename>  (1) 
Fc1ccc(-c2nc(Cc3cc[nH]c3)n(Cc3cccnc3)n2)cc1

$$$$
