
     RDKit          3D

 40 43  0  0  0  0  0  0  0  0999 V2000
   14.0159   -2.1369   21.2472 F   0  0  0  0  0  0  0  0  0  0  0  0
   13.3012   -1.1574   21.8179 C   0  0  0  0  0  0  0  0  0  0  0  0
   13.9830   -0.1943   22.5572 C   0  0  0  0  0  0  0  0  0  0  0  0
   13.2372    0.8531   23.0831 C   0  0  0  0  0  0  0  0  0  0  0  0
   13.8615    1.8132   23.7719 F   0  0  0  0  0  0  0  0  0  0  0  0
   11.8731    0.9705   22.8829 C   0  0  0  0  0  0  0  0  0  0  0  0
   11.1966   -0.0377   22.1672 C   0  0  0  0  0  0  0  0  0  0  0  0
    9.7238    0.0945   22.0321 C   0  0  0  0  0  0  0  0  0  0  0  0
    8.9046   -0.8356   21.5734 N   0  0  0  0  0  0  0  0  0  0  0  0
    7.6801   -0.2791   21.7429 N   0  0  0  0  0  0  0  0  0  0  0  0
    6.4900   -0.8737   21.1422 C   0  0  0  0  0  0  0  0  0  0  0  0
    6.0204   -0.1175   19.9174 C   0  0  0  0  0  0  0  0  0  0  0  0
    4.8442    0.6417   19.8671 C   0  0  0  0  0  0  0  0  0  0  0  0
    4.6107    1.4393   18.7433 C   0  0  0  0  0  0  0  0  0  0  0  0
    5.5367    1.4186   17.6985 C   0  0  0  0  0  0  0  0  0  0  0  0
    6.6438    0.6590   17.7042 N   0  0  0  0  0  0  0  0  0  0  0  0
    6.8650   -0.0807   18.7956 C   0  0  0  0  0  0  0  0  0  0  0  0
    7.7745   -0.6806   18.7918 H   0  0  0  0  0  0  0  0  0  0  0  0
    5.3841    2.0250   16.8099 H   0  0  0  0  0  0  0  0  0  0  0  0
    3.7457    2.0906   18.6745 H   0  0  0  0  0  0  0  0  0  0  0  0
    4.1195    0.6170   20.6840 H   0  0  0  0  0  0  0  0  0  0  0  0
    6.7578   -1.9064   20.9078 H   0  0  0  0  0  0  0  0  0  0  0  0
    5.7184   -0.9055   21.9110 H   0  0  0  0  0  0  0  0  0  0  0  0
    7.8198    0.9482   22.2900 C   0  0  0  0  0  0  0  0  0  0  0  0
    6.7130    1.6935   22.9744 C   0  0  0  0  0  0  0  0  0  0  0  0
    6.5497    1.1184   24.3078 N   0  0  0  0  0  0  0  0  0  0  0  0
    7.3511    1.3488   25.3745 C   0  0  0  0  0  0  0  0  0  0  0  0
    7.1240    0.3286   26.2615 C   0  0  0  0  0  0  0  0  0  0  0  0
    7.9512    0.0642   27.7500 Cl  0  0  0  0  0  0  0  0  0  0  0  0
    6.1612   -0.4940   25.6387 C   0  0  0  0  0  0  0  0  0  0  0  0
    5.8594   -0.0195   24.4346 N   0  0  0  0  0  0  0  0  0  0  0  0
    5.6992   -1.3979   26.0112 H   0  0  0  0  0  0  0  0  0  0  0  0
    8.0220    2.1949   25.4012 H   0  0  0  0  0  0  0  0  0  0  0  0
    5.7619    1.6121   22.4480 H   0  0  0  0  0  0  0  0  0  0  0  0
    6.9890    2.7458   23.0897 H   0  0  0  0  0  0  0  0  0  0  0  0
    9.0925    1.2305   22.4511 N   0  0  0  0  0  0  0  0  0  0  0  0
   11.9193   -1.1352   21.6412 C   0  0  0  0  0  0  0  0  0  0  0  0
   11.4418   -1.9331   21.0832 H   0  0  0  0  0  0  0  0  0  0  0  0
   11.3482    1.8419   23.2638 H   0  0  0  0  0  0  0  0  0  0  0  0
   15.0499   -0.2380   22.6955 H   0  0  0  0  0  0  0  0  0  0  0  0
  1  2  1  0
  2  3  2  0
  3  4  1  0
  4  5  1  0
  4  6  2  0
  6  7  1  0
  7  8  1  0
  8  9  2  0
  9 10  1  0
 10 11  1  0
 11 12  1  0
 12 13  2  0
 13 14  1  0
 14 15  2  0
 15 16  1  0
 16 17  2  0
 17 18  1  0
 15 19  1  0
 14 20  1  0
 13 21  1  0
 11 22  1  0
 11 23  1  0
 10 24  1  0
 24 25  1  0
 25 26  1  0
 26 27  1  0
 27 28  2  0
 28 29  1  0
 28 30  1  0
 30 31  2  0
 30 32  1  0
 27 33  1  0
 25 34  1  0
 25 35  1  0
 24 36  2  0
  7 37  2  0
 37 38  1  0
  6 39  1  0
  3 40  1  0
 37  2  1  0
 36  8  1  0
 17 12  1  0
 31 26  1  0
M  END
>  <cnnaffinity>  (1) 
-6.61196

>  <filename>  (1) 
Fc1cc(F)cc(-c2nc(Cn3cc(Cl)cn3)n(Cc3cccnc3)n2)c1

$$$$
