
     RDKit          3D

 27 29  0  0  0  0  0  0  0  0999 V2000
    9.0561   -2.1489   27.3633 F   0  0  0  0  0  0  0  0  0  0  0  0
    8.2647   -1.4324   26.5597 C   0  0  0  0  0  0  0  0  0  0  0  0
    7.4422   -0.4545   27.1115 C   0  0  0  0  0  0  0  0  0  0  0  0
    6.6261    0.2704   26.2369 C   0  0  0  0  0  0  0  0  0  0  0  0
    6.6539    0.0359   24.8575 C   0  0  0  0  0  0  0  0  0  0  0  0
    7.5281   -0.9324   24.3093 C   0  0  0  0  0  0  0  0  0  0  0  0
    7.6806   -1.0669   22.8318 C   0  0  0  0  0  0  0  0  0  0  0  0
    6.9022   -0.4969   21.9609 N   0  0  0  0  0  0  0  0  0  0  0  0
    7.3867   -0.5979   20.6831 C   0  0  0  0  0  0  0  0  0  0  0  0
    6.6352    0.0884   19.6238 C   0  0  0  0  0  0  0  0  0  0  0  0
    5.4127    0.7385   19.8853 C   0  0  0  0  0  0  0  0  0  0  0  0
    4.7732    1.3985   18.8427 C   0  0  0  0  0  0  0  0  0  0  0  0
    5.3712    1.3982   17.5786 C   0  0  0  0  0  0  0  0  0  0  0  0
    6.5286    0.7763   17.3119 N   0  0  0  0  0  0  0  0  0  0  0  0
    7.1358    0.1392   18.3160 C   0  0  0  0  0  0  0  0  0  0  0  0
    8.0690   -0.3542   18.0468 H   0  0  0  0  0  0  0  0  0  0  0  0
    4.9019    1.9104   16.7435 H   0  0  0  0  0  0  0  0  0  0  0  0
    3.8329    1.9165   18.9946 H   0  0  0  0  0  0  0  0  0  0  0  0
    4.9972    0.7269   20.8935 H   0  0  0  0  0  0  0  0  0  0  0  0
    8.5544   -1.2961   20.5669 C   0  0  0  0  0  0  0  0  0  0  0  0
    9.0495   -1.8773   22.1049 S   0  0  0  0  0  0  0  0  0  0  0  0
    9.1574   -1.4571   19.6890 H   0  0  0  0  0  0  0  0  0  0  0  0
    8.3189   -1.6905   25.1931 C   0  0  0  0  0  0  0  0  0  0  0  0
    8.9959   -2.4676   24.8589 H   0  0  0  0  0  0  0  0  0  0  0  0
    6.0094    0.6153   24.2029 H   0  0  0  0  0  0  0  0  0  0  0  0
    5.9727    1.0383   26.6426 H   0  0  0  0  0  0  0  0  0  0  0  0
    7.4652   -0.2785   28.1825 H   0  0  0  0  0  0  0  0  0  0  0  0
  1  2  1  0
  2  3  2  0
  3  4  1  0
  4  5  2  0
  5  6  1  0
  6  7  1  0
  7  8  2  0
  8  9  1  0
  9 10  1  0
 10 11  2  0
 11 12  1  0
 12 13  2  0
 13 14  1  0
 14 15  2  0
 15 16  1  0
 13 17  1  0
 12 18  1  0
 11 19  1  0
  9 20  2  0
 20 21  1  0
 20 22  1  0
  6 23  2  0
 23 24  1  0
  5 25  1  0
  4 26  1  0
  3 27  1  0
 23  2  1  0
 21  7  1  0
 15 10  1  0
M  END
>  <cnnaffinity>  (1) 
-4.77775

>  <filename>  (1) 
Fc1cccc(-c2nc(-c3cccnc3)cs2)c1

$$$$
