
     RDKit          3D

 42 45  0  0  0  0  0  0  0  0999 V2000
   14.5296   -1.7860   21.1044 F   0  0  0  0  0  0  0  0  0  0  0  0
   13.7058   -0.9137   21.7092 C   0  0  0  0  0  0  0  0  0  0  0  0
   14.2582    0.1157   22.4686 C   0  0  0  0  0  0  0  0  0  0  0  0
   13.4280    1.0289   23.1220 C   0  0  0  0  0  0  0  0  0  0  0  0
   12.0553    0.9441   22.9408 C   0  0  0  0  0  0  0  0  0  0  0  0
   11.4938   -0.0527   22.1051 C   0  0  0  0  0  0  0  0  0  0  0  0
   10.0296    0.0258   21.8722 C   0  0  0  0  0  0  0  0  0  0  0  0
    9.2483   -0.8787   21.3004 N   0  0  0  0  0  0  0  0  0  0  0  0
    8.0046   -0.3562   21.4823 N   0  0  0  0  0  0  0  0  0  0  0  0
    6.8015   -0.9406   20.9055 C   0  0  0  0  0  0  0  0  0  0  0  0
    6.2334   -0.1005   19.7758 C   0  0  0  0  0  0  0  0  0  0  0  0
    5.0362    0.6214   19.8567 C   0  0  0  0  0  0  0  0  0  0  0  0
    4.6438    1.3976   18.7623 C   0  0  0  0  0  0  0  0  0  0  0  0
    5.4690    1.4358   17.6362 C   0  0  0  0  0  0  0  0  0  0  0  0
    6.6221    0.7575   17.5395 N   0  0  0  0  0  0  0  0  0  0  0  0
    6.9860    0.0239   18.5961 C   0  0  0  0  0  0  0  0  0  0  0  0
    7.9423   -0.4916   18.5147 H   0  0  0  0  0  0  0  0  0  0  0  0
    5.1976    2.0434   16.7755 H   0  0  0  0  0  0  0  0  0  0  0  0
    3.7360    1.9904   18.7822 H   0  0  0  0  0  0  0  0  0  0  0  0
    4.4254    0.5971   20.7623 H   0  0  0  0  0  0  0  0  0  0  0  0
    7.0790   -1.9385   20.5565 H   0  0  0  0  0  0  0  0  0  0  0  0
    6.0687   -1.0706   21.7110 H   0  0  0  0  0  0  0  0  0  0  0  0
    8.0923    0.8160   22.1474 C   0  0  0  0  0  0  0  0  0  0  0  0
    7.0160    1.5594   22.8805 C   0  0  0  0  0  0  0  0  0  0  0  0
    7.0548    1.2003   24.3946 C   0  0  0  0  0  0  0  0  0  0  0  0
    6.1976    2.0142   25.2991 C   0  0  0  0  0  0  0  0  0  0  0  0
    6.4840    2.9174   26.2691 C   0  0  0  0  0  0  0  0  0  0  0  0
    5.2095    3.2280   26.7961 C   0  0  0  0  0  0  0  0  0  0  0  0
    4.8980    4.2968   28.0952 Cl  0  0  0  0  0  0  0  0  0  0  0  0
    4.2396    2.5902   26.1968 N   0  0  0  0  0  0  0  0  0  0  0  0
    4.8686    1.8231   25.2426 O   0  0  0  0  0  0  0  0  0  0  0  0
    7.4382    3.3079   26.5816 H   0  0  0  0  0  0  0  0  0  0  0  0
    8.0876    1.3305   24.7384 H   0  0  0  0  0  0  0  0  0  0  0  0
    6.7991    0.1421   24.5370 H   0  0  0  0  0  0  0  0  0  0  0  0
    6.0323    1.3909   22.4333 H   0  0  0  0  0  0  0  0  0  0  0  0
    7.2528    2.6206   22.7494 H   0  0  0  0  0  0  0  0  0  0  0  0
    9.3571    1.1127   22.3421 N   0  0  0  0  0  0  0  0  0  0  0  0
   12.3322   -1.0272   21.5177 C   0  0  0  0  0  0  0  0  0  0  0  0
   11.9507   -1.8429   20.9050 H   0  0  0  0  0  0  0  0  0  0  0  0
   11.3921    1.6419   23.4466 H   0  0  0  0  0  0  0  0  0  0  0  0
   13.8373    1.7926   23.7822 H   0  0  0  0  0  0  0  0  0  0  0  0
   15.3195    0.2303   22.4935 H   0  0  0  0  0  0  0  0  0  0  0  0
  1  2  1  0
  2  3  2  0
  3  4  1  0
  4  5  2  0
  5  6  1  0
  6  7  1  0
  7  8  2  0
  8  9  1  0
  9 10  1  0
 10 11  1  0
 11 12  2  0
 12 13  1  0
 13 14  2  0
 14 15  1  0
 15 16  2  0
 16 17  1  0
 14 18  1  0
 13 19  1  0
 12 20  1  0
 10 21  1  0
 10 22  1  0
  9 23  1  0
 23 24  1  0
 24 25  1  0
 25 26  1  0
 26 27  2  0
 27 28  1  0
 28 29  1  0
 28 30  2  0
 30 31  1  0
 27 32  1  0
 25 33  1  0
 25 34  1  0
 24 35  1  0
 24 36  1  0
 23 37  2  0
  6 38  2  0
 38 39  1  0
  5 40  1  0
  4 41  1  0
  3 42  1  0
 38  2  1  0
 37  7  1  0
 16 11  1  0
 31 26  1  0
M  END
>  <cnnaffinity>  (1) 
-6.72956

>  <filename>  (1) 
Fc1cccc(-c2nc(CCc3cc(Cl)no3)n(Cc3cccnc3)n2)c1

$$$$
