
     RDKit          3D

 44 47  0  0  0  0  0  0  0  0999 V2000
   14.7748    0.5072   22.6269 F   0  0  0  0  0  0  0  0  0  0  0  0
   13.7615   -0.2567   22.1979 C   0  0  0  0  0  0  0  0  0  0  0  0
   14.0139   -1.2171   21.2174 C   0  0  0  0  0  0  0  0  0  0  0  0
   12.9461   -1.9501   20.7133 C   0  0  0  0  0  0  0  0  0  0  0  0
   11.6602   -1.7594   21.2117 C   0  0  0  0  0  0  0  0  0  0  0  0
   11.3977   -0.7526   22.1554 C   0  0  0  0  0  0  0  0  0  0  0  0
    9.9649   -0.4131   22.3752 C   0  0  0  0  0  0  0  0  0  0  0  0
    9.0020   -1.0899   21.7556 N   0  0  0  0  0  0  0  0  0  0  0  0
    7.8897   -0.3744   21.9994 N   0  0  0  0  0  0  0  0  0  0  0  0
    6.6352   -0.7765   21.3609 C   0  0  0  0  0  0  0  0  0  0  0  0
    6.2625    0.0370   20.1389 C   0  0  0  0  0  0  0  0  0  0  0  0
    5.1746    0.9121   20.1522 C   0  0  0  0  0  0  0  0  0  0  0  0
    4.8863    1.6557   19.0070 C   0  0  0  0  0  0  0  0  0  0  0  0
    5.6894    1.4818   17.8743 C   0  0  0  0  0  0  0  0  0  0  0  0
    6.7498    0.6576   17.8469 N   0  0  0  0  0  0  0  0  0  0  0  0
    7.0301   -0.0263   18.9646 C   0  0  0  0  0  0  0  0  0  0  0  0
    7.9165   -0.6630   18.9302 H   0  0  0  0  0  0  0  0  0  0  0  0
    5.4595    2.0076   16.9478 H   0  0  0  0  0  0  0  0  0  0  0  0
    4.0937    2.3974   19.0071 H   0  0  0  0  0  0  0  0  0  0  0  0
    4.6138    1.0738   21.0747 H   0  0  0  0  0  0  0  0  0  0  0  0
    6.7600   -1.8335   21.1084 H   0  0  0  0  0  0  0  0  0  0  0  0
    5.8397   -0.7173   22.1036 H   0  0  0  0  0  0  0  0  0  0  0  0
    8.2232    0.7023   22.7542 C   0  0  0  0  0  0  0  0  0  0  0  0
    7.3508    1.8709   23.0631 C   0  0  0  0  0  0  0  0  0  0  0  0
    7.3690    2.9362   21.9203 C   0  0  0  0  0  0  0  0  0  0  0  0
    6.3479    4.0169   22.0870 C   0  0  0  0  0  0  0  0  0  0  0  0
    5.0869    3.6995   21.7736 N   0  0  0  0  0  0  0  0  0  0  0  0
    4.1872    4.6719   21.9083 C   0  0  0  0  0  0  0  0  0  0  0  0
    4.5012    5.9225   22.4166 C   0  0  0  0  0  0  0  0  0  0  0  0
    5.8308    6.1211   22.7454 C   0  0  0  0  0  0  0  0  0  0  0  0
    6.7595    5.1836   22.5896 N   0  0  0  0  0  0  0  0  0  0  0  0
    6.1824    7.0701   23.1494 H   0  0  0  0  0  0  0  0  0  0  0  0
    3.7544    6.6906   22.5401 H   0  0  0  0  0  0  0  0  0  0  0  0
    3.1737    4.4288   21.5956 H   0  0  0  0  0  0  0  0  0  0  0  0
    7.1729    2.4531   20.9595 H   0  0  0  0  0  0  0  0  0  0  0  0
    8.3599    3.3980   21.8619 H   0  0  0  0  0  0  0  0  0  0  0  0
    6.3339    1.5168   23.2730 H   0  0  0  0  0  0  0  0  0  0  0  0
    7.7390    2.3187   23.9843 H   0  0  0  0  0  0  0  0  0  0  0  0
    9.5167    0.6860   23.0243 N   0  0  0  0  0  0  0  0  0  0  0  0
   12.4802   -0.0242   22.7024 C   0  0  0  0  0  0  0  0  0  0  0  0
   12.3515    0.7472   23.4562 H   0  0  0  0  0  0  0  0  0  0  0  0
   10.8134   -2.3138   20.8192 H   0  0  0  0  0  0  0  0  0  0  0  0
   13.1223   -2.6441   19.8969 H   0  0  0  0  0  0  0  0  0  0  0  0
   14.9919   -1.3636   20.7894 H   0  0  0  0  0  0  0  0  0  0  0  0
  1  2  1  0
  2  3  2  0
  3  4  1  0
  4  5  2  0
  5  6  1  0
  6  7  1  0
  7  8  2  0
  8  9  1  0
  9 10  1  0
 10 11  1  0
 11 12  2  0
 12 13  1  0
 13 14  2  0
 14 15  1  0
 15 16  2  0
 16 17  1  0
 14 18  1  0
 13 19  1  0
 12 20  1  0
 10 21  1  0
 10 22  1  0
  9 23  1  0
 23 24  1  0
 24 25  1  0
 25 26  1  0
 26 27  2  0
 27 28  1  0
 28 29  2  0
 29 30  1  0
 30 31  2  0
 30 32  1  0
 29 33  1  0
 28 34  1  0
 25 35  1  0
 25 36  1  0
 24 37  1  0
 24 38  1  0
 23 39  2  0
  6 40  2  0
 40 41  1  0
  5 42  1  0
  4 43  1  0
  3 44  1  0
 40  2  1  0
 39  7  1  0
 16 11  1  0
 31 26  1  0
M  END
>  <cnnaffinity>  (1) 
-6.55437

>  <filename>  (1) 
Fc1cccc(-c2nc(CCc3ncccn3)n(Cc3cccnc3)n2)c1

$$$$
