
     RDKit          3D

 44 47  0  0  0  0  0  0  0  0999 V2000
    8.5527    1.5807   27.1271 F   0  0  0  0  0  0  0  0  0  0  0  0
    8.7010    1.6970   25.8026 C   0  0  0  0  0  0  0  0  0  0  0  0
    7.5638    1.5714   25.0155 C   0  0  0  0  0  0  0  0  0  0  0  0
    7.7060    1.7130   23.6386 C   0  0  0  0  0  0  0  0  0  0  0  0
    8.9471    1.9820   23.0326 C   0  0  0  0  0  0  0  0  0  0  0  0
    9.0626    2.0003   21.5242 C   0  0  0  0  0  0  0  0  0  0  0  0
    9.5213    0.6232   20.9596 C   0  0  0  0  0  0  0  0  0  0  0  0
    8.6453   -0.5036   21.3958 C   0  0  0  0  0  0  0  0  0  0  0  0
    8.8727   -1.3266   22.4033 N   0  0  0  0  0  0  0  0  0  0  0  0
    7.6711   -1.9342   22.5787 C   0  0  0  0  0  0  0  0  0  0  0  0
    7.4359   -2.9146   23.6867 C   0  0  0  0  0  0  0  0  0  0  0  0
    5.9963   -2.9292   24.2399 C   0  0  0  0  0  0  0  0  0  0  0  0
    6.1688   -3.4065   25.6839 C   0  0  0  0  0  0  0  0  0  0  0  0
    7.5316   -3.1940   26.0231 O   0  0  0  0  0  0  0  0  0  0  0  0
    8.2671   -2.6326   24.9506 C   0  0  0  0  0  0  0  0  0  0  0  0
    9.2563   -3.1043   24.9404 H   0  0  0  0  0  0  0  0  0  0  0  0
    8.4165   -1.5502   25.1043 H   0  0  0  0  0  0  0  0  0  0  0  0
    5.9390   -4.4750   25.7963 H   0  0  0  0  0  0  0  0  0  0  0  0
    5.5236   -2.8541   26.3829 H   0  0  0  0  0  0  0  0  0  0  0  0
    5.6010   -1.9106   24.2309 H   0  0  0  0  0  0  0  0  0  0  0  0
    5.3221   -3.5627   23.6598 H   0  0  0  0  0  0  0  0  0  0  0  0
    7.7092   -3.9015   23.3026 H   0  0  0  0  0  0  0  0  0  0  0  0
    6.7358   -1.5779   21.7172 N   0  0  0  0  0  0  0  0  0  0  0  0
    7.3698   -0.6660   20.9348 N   0  0  0  0  0  0  0  0  0  0  0  0
    6.6605    0.0048   19.9015 C   0  0  0  0  0  0  0  0  0  0  0  0
    5.4424    0.6407   20.1652 C   0  0  0  0  0  0  0  0  0  0  0  0
    4.8136    1.3091   19.1107 C   0  0  0  0  0  0  0  0  0  0  0  0
    5.3990    1.2963   17.8386 C   0  0  0  0  0  0  0  0  0  0  0  0
    6.5571    0.6711   17.5765 N   0  0  0  0  0  0  0  0  0  0  0  0
    7.1673    0.0493   18.5914 C   0  0  0  0  0  0  0  0  0  0  0  0
    8.1134   -0.4358   18.3650 H   0  0  0  0  0  0  0  0  0  0  0  0
    4.9213    1.7873   16.9940 H   0  0  0  0  0  0  0  0  0  0  0  0
    3.8821    1.8379   19.2618 H   0  0  0  0  0  0  0  0  0  0  0  0
    5.0154    0.6063   21.1723 H   0  0  0  0  0  0  0  0  0  0  0  0
    9.5487    0.6689   19.8684 H   0  0  0  0  0  0  0  0  0  0  0  0
   10.5334    0.3934   21.2973 H   0  0  0  0  0  0  0  0  0  0  0  0
    9.7731    2.7711   21.2079 H   0  0  0  0  0  0  0  0  0  0  0  0
    8.0902    2.2643   21.0881 H   0  0  0  0  0  0  0  0  0  0  0  0
   10.0626    2.0742   23.8825 C   0  0  0  0  0  0  0  0  0  0  0  0
   11.6496    2.3634   23.2286 Cl  0  0  0  0  0  0  0  0  0  0  0  0
    9.9608    1.9353   25.2688 C   0  0  0  0  0  0  0  0  0  0  0  0
   10.8337    1.9851   25.9058 H   0  0  0  0  0  0  0  0  0  0  0  0
    6.8370    1.5779   23.0036 H   0  0  0  0  0  0  0  0  0  0  0  0
    6.6155    1.3661   25.5019 H   0  0  0  0  0  0  0  0  0  0  0  0
  1  2  1  0
  2  3  2  0
  3  4  1  0
  4  5  2  0
  5  6  1  0
  6  7  1  0
  7  8  1  0
  8  9  2  0
  9 10  1  0
 10 11  1  0
 11 12  1  0
 12 13  1  0
 13 14  1  0
 14 15  1  0
 15 16  1  0
 15 17  1  0
 13 18  1  0
 13 19  1  0
 12 20  1  0
 12 21  1  0
 11 22  1  0
 10 23  2  0
 23 24  1  0
 24 25  1  0
 25 26  2  0
 26 27  1  0
 27 28  2  0
 28 29  1  0
 29 30  2  0
 30 31  1  0
 28 32  1  0
 27 33  1  0
 26 34  1  0
  7 35  1  0
  7 36  1  0
  6 37  1  0
  6 38  1  0
  5 39  1  0
 39 40  1  0
 39 41  2  0
 41 42  1  0
  4 43  1  0
  3 44  1  0
 41  2  1  0
 24  8  1  0
 30 25  1  0
 15 11  1  0
M  END
>  <cnnaffinity>  (1) 
-6.13733

>  <filename>  (1) 
Fc1ccc(CCc2nc(C3CCOC3)nn2-c2cccnc2)c(Cl)c1

$$$$
