
     RDKit          3D

 45 48  0  0  0  0  0  0  0  0999 V2000
    2.9663    1.9151   25.6204 F   0  0  0  0  0  0  0  0  0  0  0  0
    4.2488    2.2661   25.8011 C   0  0  0  0  0  0  0  0  0  0  0  0
    4.5803    3.1978   26.7774 C   0  0  0  0  0  0  0  0  0  0  0  0
    5.9237    3.5414   26.9615 C   0  0  0  0  0  0  0  0  0  0  0  0
    6.9173    2.9379   26.1830 C   0  0  0  0  0  0  0  0  0  0  0  0
    6.6002    1.9960   25.1897 C   0  0  0  0  0  0  0  0  0  0  0  0
    7.6545    1.2990   24.3550 C   0  0  0  0  0  0  0  0  0  0  0  0
    7.7238    1.7865   22.8787 C   0  0  0  0  0  0  0  0  0  0  0  0
    8.7393    1.0242   22.0818 C   0  0  0  0  0  0  0  0  0  0  0  0
   10.0397    1.1638   22.2436 N   0  0  0  0  0  0  0  0  0  0  0  0
   10.5625    0.0500   21.6584 C   0  0  0  0  0  0  0  0  0  0  0  0
   12.0005   -0.3295   21.8862 C   0  0  0  0  0  0  0  0  0  0  0  0
   12.5945   -1.4900   21.3455 C   0  0  0  0  0  0  0  0  0  0  0  0
   13.8720   -1.8689   21.7688 C   0  0  0  0  0  0  0  0  0  0  0  0
   14.6015   -1.1682   22.6463 N   0  0  0  0  0  0  0  0  0  0  0  0
   14.0550   -0.0538   23.1445 C   0  0  0  0  0  0  0  0  0  0  0  0
   12.7983    0.4258   22.7755 C   0  0  0  0  0  0  0  0  0  0  0  0
   12.4202    1.3412   23.2169 H   0  0  0  0  0  0  0  0  0  0  0  0
   14.6425    0.4570   23.9041 H   0  0  0  0  0  0  0  0  0  0  0  0
   14.3248   -2.7918   21.4101 H   0  0  0  0  0  0  0  0  0  0  0  0
   12.0761   -2.0960   20.6134 H   0  0  0  0  0  0  0  0  0  0  0  0
    9.6549   -0.7291   21.0926 N   0  0  0  0  0  0  0  0  0  0  0  0
    8.4881   -0.0946   21.3619 N   0  0  0  0  0  0  0  0  0  0  0  0
    7.1985   -0.6883   21.0126 C   0  0  0  0  0  0  0  0  0  0  0  0
    6.4606    0.0390   19.9071 C   0  0  0  0  0  0  0  0  0  0  0  0
    5.2358    0.6988   20.0755 C   0  0  0  0  0  0  0  0  0  0  0  0
    4.6865    1.3753   18.9816 C   0  0  0  0  0  0  0  0  0  0  0  0
    5.3752    1.3630   17.7655 C   0  0  0  0  0  0  0  0  0  0  0  0
    6.5329    0.7094   17.5787 N   0  0  0  0  0  0  0  0  0  0  0  0
    7.0500    0.0744   18.6339 C   0  0  0  0  0  0  0  0  0  0  0  0
    7.9950   -0.4444   18.4728 H   0  0  0  0  0  0  0  0  0  0  0  0
    4.9867    1.8950   16.8993 H   0  0  0  0  0  0  0  0  0  0  0  0
    3.7580    1.9309   19.0590 H   0  0  0  0  0  0  0  0  0  0  0  0
    4.7293    0.7029   21.0452 H   0  0  0  0  0  0  0  0  0  0  0  0
    6.5790   -0.7403   21.9161 H   0  0  0  0  0  0  0  0  0  0  0  0
    7.4167   -1.7188   20.7164 H   0  0  0  0  0  0  0  0  0  0  0  0
    6.7413    1.7184   22.4066 H   0  0  0  0  0  0  0  0  0  0  0  0
    8.0101    2.8412   22.8682 H   0  0  0  0  0  0  0  0  0  0  0  0
    7.4602    0.2174   24.3738 H   0  0  0  0  0  0  0  0  0  0  0  0
    8.6464    1.4337   24.8076 H   0  0  0  0  0  0  0  0  0  0  0  0
    5.2466    1.6961   25.0032 C   0  0  0  0  0  0  0  0  0  0  0  0
    4.8833    0.8400   24.0287 F   0  0  0  0  0  0  0  0  0  0  0  0
    7.9616    3.1925   26.3474 H   0  0  0  0  0  0  0  0  0  0  0  0
    6.1947    4.2775   27.7124 H   0  0  0  0  0  0  0  0  0  0  0  0
    3.7808    3.6340   27.3675 H   0  0  0  0  0  0  0  0  0  0  0  0
  1  2  1  0
  2  3  2  0
  3  4  1  0
  4  5  2  0
  5  6  1  0
  6  7  1  0
  7  8  1  0
  8  9  1  0
  9 10  2  0
 10 11  1  0
 11 12  1  0
 12 13  2  0
 13 14  1  0
 14 15  2  0
 15 16  1  0
 16 17  2  0
 17 18  1  0
 16 19  1  0
 14 20  1  0
 13 21  1  0
 11 22  2  0
 22 23  1  0
 23 24  1  0
 24 25  1  0
 25 26  2  0
 26 27  1  0
 27 28  2  0
 28 29  1  0
 29 30  2  0
 30 31  1  0
 28 32  1  0
 27 33  1  0
 26 34  1  0
 24 35  1  0
 24 36  1  0
  8 37  1  0
  8 38  1  0
  7 39  1  0
  7 40  1  0
  6 41  2  0
 41 42  1  0
  5 43  1  0
  4 44  1  0
  3 45  1  0
 41  2  1  0
 23  9  1  0
 30 25  1  0
 17 12  1  0
M  END
>  <cnnaffinity>  (1) 
-6.60667

>  <filename>  (1) 
Fc1cccc(CCc2nc(-c3ccncc3)nn2Cc2cccnc2)c1F

$$$$
