
     RDKit          3D

 25 26  0  0  0  0  0  0  0  0999 V2000
    4.9821    1.7849   17.0239 H   0  0  0  0  0  0  0  0  0  0  0  0
    5.4060    1.2533   17.8725 C   0  0  0  0  0  0  0  0  0  0  0  0
    6.5615    0.6069   17.6503 N   0  0  0  0  0  0  0  0  0  0  0  0
    7.1395    0.0177   18.6954 C   0  0  0  0  0  0  0  0  0  0  0  0
    8.0928   -0.4834   18.5174 H   0  0  0  0  0  0  0  0  0  0  0  0
    6.5988    0.0111   19.9873 C   0  0  0  0  0  0  0  0  0  0  0  0
    7.4268   -0.6513   21.0240 C   0  0  0  0  0  0  0  0  0  0  0  0
    9.0577   -0.4114   21.0806 S   0  0  0  0  0  0  0  0  0  0  0  0
    6.7231   -1.4622   21.8400 N   0  0  0  0  0  0  0  0  0  0  0  0
    5.7229   -1.3870   21.7441 H   0  0  0  0  0  0  0  0  0  0  0  0
    7.2133   -2.4977   22.6858 C   0  0  0  0  0  0  0  0  0  0  0  0
    8.2193   -3.3650   22.2509 C   0  0  0  0  0  0  0  0  0  0  0  0
    8.6358   -3.2066   21.2630 H   0  0  0  0  0  0  0  0  0  0  0  0
    8.6789   -4.3836   23.0857 C   0  0  0  0  0  0  0  0  0  0  0  0
    9.3883   -5.1160   22.7572 H   0  0  0  0  0  0  0  0  0  0  0  0
    8.1796   -4.4913   24.3771 C   0  0  0  0  0  0  0  0  0  0  0  0
    8.6969   -5.4165   25.2053 F   0  0  0  0  0  0  0  0  0  0  0  0
    7.1656   -3.6536   24.8223 C   0  0  0  0  0  0  0  0  0  0  0  0
    6.7868   -3.7878   25.8260 H   0  0  0  0  0  0  0  0  0  0  0  0
    6.6617   -2.6695   23.9578 C   0  0  0  0  0  0  0  0  0  0  0  0
    5.8446   -2.0267   24.2667 H   0  0  0  0  0  0  0  0  0  0  0  0
    5.3667    0.6496   20.2013 C   0  0  0  0  0  0  0  0  0  0  0  0
    4.8962    0.6830   21.1864 H   0  0  0  0  0  0  0  0  0  0  0  0
    4.7721    1.2979   19.1186 C   0  0  0  0  0  0  0  0  0  0  0  0
    3.8452    1.8487   19.2310 H   0  0  0  0  0  0  0  0  0  0  0  0
  1  2  1  0
  2  3  2  0
  3  4  1  0
  4  5  1  0
  4  6  2  0
  6  7  1  0
  7  8  2  0
  7  9  1  0
  9 10  1  0
  9 11  1  0
 11 12  2  0
 12 13  1  0
 12 14  1  0
 14 15  1  0
 14 16  2  0
 16 17  1  0
 16 18  1  0
 18 19  1  0
 18 20  2  0
 20 21  1  0
  6 22  1  0
 22 23  1  0
 22 24  2  0
 24 25  1  0
 24  2  1  0
 20 11  1  0
M  END
>  <cnnaffinity>  (1) 
-4.60706

>  <filename>  (1) 
Fc1ccc(NC(=S)c2cccnc2)cc1

$$$$
