
     RDKit          3D

 39 42  0  0  0  0  0  0  0  0999 V2000
   14.0283   -2.1703   21.5365 F   0  0  0  0  0  0  0  0  0  0  0  0
   13.2896   -1.1457   21.9796 C   0  0  0  0  0  0  0  0  0  0  0  0
   13.9378   -0.1345   22.6812 C   0  0  0  0  0  0  0  0  0  0  0  0
   13.1531    0.9038   23.1620 C   0  0  0  0  0  0  0  0  0  0  0  0
   13.7205    1.8506   23.9132 F   0  0  0  0  0  0  0  0  0  0  0  0
   11.7882    0.9681   22.9362 C   0  0  0  0  0  0  0  0  0  0  0  0
   11.1587   -0.0521   22.1982 C   0  0  0  0  0  0  0  0  0  0  0  0
    9.6842    0.0522   22.0465 C   0  0  0  0  0  0  0  0  0  0  0  0
    8.8935   -0.8513   21.4898 N   0  0  0  0  0  0  0  0  0  0  0  0
    7.6550   -0.3422   21.7045 N   0  0  0  0  0  0  0  0  0  0  0  0
    6.4609   -0.9215   21.0910 C   0  0  0  0  0  0  0  0  0  0  0  0
    6.0111   -0.1365   19.8749 C   0  0  0  0  0  0  0  0  0  0  0  0
    4.8278    0.6101   19.8150 C   0  0  0  0  0  0  0  0  0  0  0  0
    4.6036    1.4196   18.6961 C   0  0  0  0  0  0  0  0  0  0  0  0
    5.5461    1.4130   17.6640 C   0  0  0  0  0  0  0  0  0  0  0  0
    6.6661    0.6759   17.6840 N   0  0  0  0  0  0  0  0  0  0  0  0
    6.8835   -0.0629   18.7767 C   0  0  0  0  0  0  0  0  0  0  0  0
    7.8078   -0.6382   18.7997 H   0  0  0  0  0  0  0  0  0  0  0  0
    5.4005    2.0235   16.7763 H   0  0  0  0  0  0  0  0  0  0  0  0
    3.7322    2.0622   18.6190 H   0  0  0  0  0  0  0  0  0  0  0  0
    4.0938    0.5732   20.6247 H   0  0  0  0  0  0  0  0  0  0  0  0
    5.6829   -0.9367   21.8555 H   0  0  0  0  0  0  0  0  0  0  0  0
    6.7100   -1.9592   20.8461 H   0  0  0  0  0  0  0  0  0  0  0  0
    7.7616    0.8389   22.3433 C   0  0  0  0  0  0  0  0  0  0  0  0
    6.6569    1.6189   22.9639 C   0  0  0  0  0  0  0  0  0  0  0  0
    6.5446    1.1367   24.3748 C   0  0  0  0  0  0  0  0  0  0  0  0
    7.2401    1.6084   25.4426 C   0  0  0  0  0  0  0  0  0  0  0  0
    6.9348    0.6271   26.8212 S   0  0  0  0  0  0  0  0  0  0  0  0
    5.8754   -0.3362   25.8573 C   0  0  0  0  0  0  0  0  0  0  0  0
    5.7828    0.0217   24.6123 N   0  0  0  0  0  0  0  0  0  0  0  0
    5.3279   -1.1624   26.2957 H   0  0  0  0  0  0  0  0  0  0  0  0
    7.9170    2.4483   25.4708 H   0  0  0  0  0  0  0  0  0  0  0  0
    6.9325    2.6748   22.9294 H   0  0  0  0  0  0  0  0  0  0  0  0
    5.7170    1.4782   22.4283 H   0  0  0  0  0  0  0  0  0  0  0  0
    9.0178    1.1201   22.5694 N   0  0  0  0  0  0  0  0  0  0  0  0
   11.9211   -1.1410   21.7205 C   0  0  0  0  0  0  0  0  0  0  0  0
   11.4739   -1.9769   21.1908 H   0  0  0  0  0  0  0  0  0  0  0  0
   11.2204    1.8016   23.3371 H   0  0  0  0  0  0  0  0  0  0  0  0
   15.0033   -0.1514   22.8370 H   0  0  0  0  0  0  0  0  0  0  0  0
  1  2  1  0
  2  3  2  0
  3  4  1  0
  4  5  1  0
  4  6  2  0
  6  7  1  0
  7  8  1  0
  8  9  2  0
  9 10  1  0
 10 11  1  0
 11 12  1  0
 12 13  2  0
 13 14  1  0
 14 15  2  0
 15 16  1  0
 16 17  2  0
 17 18  1  0
 15 19  1  0
 14 20  1  0
 13 21  1  0
 11 22  1  0
 11 23  1  0
 10 24  1  0
 24 25  1  0
 25 26  1  0
 26 27  2  0
 27 28  1  0
 28 29  1  0
 29 30  2  0
 29 31  1  0
 27 32  1  0
 25 33  1  0
 25 34  1  0
 24 35  2  0
  7 36  2  0
 36 37  1  0
  6 38  1  0
  3 39  1  0
 36  2  1  0
 35  8  1  0
 17 12  1  0
 30 26  1  0
M  END
>  <cnnaffinity>  (1) 
-6.52147

>  <filename>  (1) 
Fc1cc(F)cc(-c2nc(Cc3cscn3)n(Cc3cccnc3)n2)c1

$$$$
