
     RDKit          3D

 30 32  0  0  0  0  0  0  0  0999 V2000
    4.9242    1.7950   16.9870 H   0  0  0  0  0  0  0  0  0  0  0  0
    5.4003    1.2998   17.8299 C   0  0  0  0  0  0  0  0  0  0  0  0
    6.5634    0.6801   17.5743 N   0  0  0  0  0  0  0  0  0  0  0  0
    7.1663    0.0644   18.6019 C   0  0  0  0  0  0  0  0  0  0  0  0
    8.1151   -0.4194   18.3679 H   0  0  0  0  0  0  0  0  0  0  0  0
    6.6605    0.0095   19.9136 C   0  0  0  0  0  0  0  0  0  0  0  0
    7.3419   -0.8154   20.9947 C   0  0  0  0  0  0  0  0  0  0  0  0
    6.8687   -2.2675   21.0238 C   0  0  0  0  0  0  0  0  0  0  0  0
    7.3774   -3.1550   21.9997 C   0  0  0  0  0  0  0  0  0  0  0  0
    8.1567   -2.8403   22.6997 H   0  0  0  0  0  0  0  0  0  0  0  0
    7.0199   -4.4448   22.0931 N   0  0  0  0  0  0  0  0  0  0  0  0
    6.2257   -4.9454   21.1463 C   0  0  0  0  0  0  0  0  0  0  0  0
    5.9016   -5.9790   21.2252 H   0  0  0  0  0  0  0  0  0  0  0  0
    5.7664   -4.1683   20.0839 C   0  0  0  0  0  0  0  0  0  0  0  0
    5.1437   -4.7621   19.0621 F   0  0  0  0  0  0  0  0  0  0  0  0
    5.9926   -2.8041   20.0601 C   0  0  0  0  0  0  0  0  0  0  0  0
    5.4834   -2.1745   19.3350 H   0  0  0  0  0  0  0  0  0  0  0  0
    7.3281   -0.1261   22.4019 C   0  0  0  0  0  0  0  0  0  0  0  0
    6.8612   -0.7213   23.1931 H   0  0  0  0  0  0  0  0  0  0  0  0
    6.8434    0.8551   22.3949 H   0  0  0  0  0  0  0  0  0  0  0  0
    8.8734   -0.0532   22.4128 C   0  0  0  0  0  0  0  0  0  0  0  0
    9.2758    0.9619   22.4779 H   0  0  0  0  0  0  0  0  0  0  0  0
    9.3600   -0.6553   23.1891 H   0  0  0  0  0  0  0  0  0  0  0  0
    8.9051   -0.6683   20.9926 C   0  0  0  0  0  0  0  0  0  0  0  0
    9.2720    0.0272   20.2322 H   0  0  0  0  0  0  0  0  0  0  0  0
    9.4603   -1.6058   20.8763 H   0  0  0  0  0  0  0  0  0  0  0  0
    5.4366    0.6580   20.1479 C   0  0  0  0  0  0  0  0  0  0  0  0
    5.0043    0.6432   21.1501 H   0  0  0  0  0  0  0  0  0  0  0  0
    4.8008    1.3164   19.0947 C   0  0  0  0  0  0  0  0  0  0  0  0
    3.8712    1.8508   19.2463 H   0  0  0  0  0  0  0  0  0  0  0  0
  1  2  1  0
  2  3  2  0
  3  4  1  0
  4  5  1  0
  4  6  2  0
  6  7  1  0
  7  8  1  0
  8  9  2  0
  9 10  1  0
  9 11  1  0
 11 12  2  0
 12 13  1  0
 12 14  1  0
 14 15  1  0
 14 16  2  0
 16 17  1  0
  7 18  1  0
 18 19  1  0
 18 20  1  0
 18 21  1  0
 21 22  1  0
 21 23  1  0
 21 24  1  0
 24 25  1  0
 24 26  1  0
  6 27  1  0
 27 28  1  0
 27 29  2  0
 29 30  1  0
 29  2  1  0
 24  7  1  0
 16  8  1  0
M  END
>  <cnnaffinity>  (1) 
-4.14617

>  <filename>  (1) 
Fc1cncc(C2(c3cccnc3)CCC2)c1

$$$$
