
     RDKit          3D

 41 44  0  0  0  0  0  0  0  0999 V2000
    8.1541    4.4608   27.5515 F   0  0  0  0  0  0  0  0  0  0  0  0
    7.5469    3.4398   26.9364 C   0  0  0  0  0  0  0  0  0  0  0  0
    6.3807    2.8993   27.4934 C   0  0  0  0  0  0  0  0  0  0  0  0
    5.6717    1.9429   26.8867 N   0  0  0  0  0  0  0  0  0  0  0  0
    6.1038    1.4786   25.7096 C   0  0  0  0  0  0  0  0  0  0  0  0
    7.2795    1.9462   25.1017 C   0  0  0  0  0  0  0  0  0  0  0  0
    7.6764    1.3901   23.8156 C   0  0  0  0  0  0  0  0  0  0  0  0
    7.0513    0.4006   23.1970 N   0  0  0  0  0  0  0  0  0  0  0  0
    7.7999    0.2243   22.0824 N   0  0  0  0  0  0  0  0  0  0  0  0
    7.3778   -0.6905   21.0304 C   0  0  0  0  0  0  0  0  0  0  0  0
    6.6556    0.0016   19.8881 C   0  0  0  0  0  0  0  0  0  0  0  0
    5.4409    0.6501   20.1390 C   0  0  0  0  0  0  0  0  0  0  0  0
    4.8010    1.3082   19.0872 C   0  0  0  0  0  0  0  0  0  0  0  0
    5.3945    1.2973   17.8215 C   0  0  0  0  0  0  0  0  0  0  0  0
    6.5548    0.6756   17.5605 N   0  0  0  0  0  0  0  0  0  0  0  0
    7.1618    0.0546   18.5806 C   0  0  0  0  0  0  0  0  0  0  0  0
    8.1098   -0.4286   18.3338 H   0  0  0  0  0  0  0  0  0  0  0  0
    4.9240    1.8053   16.9802 H   0  0  0  0  0  0  0  0  0  0  0  0
    3.8713    1.8435   19.2374 H   0  0  0  0  0  0  0  0  0  0  0  0
    5.0298    0.6413   21.1503 H   0  0  0  0  0  0  0  0  0  0  0  0
    6.7300   -1.4152   21.5325 H   0  0  0  0  0  0  0  0  0  0  0  0
    8.2568   -1.2338   20.6634 H   0  0  0  0  0  0  0  0  0  0  0  0
    8.8160    1.1143   22.0791 C   0  0  0  0  0  0  0  0  0  0  0  0
    9.9005    1.1715   21.0510 C   0  0  0  0  0  0  0  0  0  0  0  0
   11.1713    0.4531   21.4837 C   0  0  0  0  0  0  0  0  0  0  0  0
   11.3869   -0.8973   21.1751 C   0  0  0  0  0  0  0  0  0  0  0  0
   12.4503   -1.6063   21.5592 N   0  0  0  0  0  0  0  0  0  0  0  0
   13.3620   -1.0015   22.3262 C   0  0  0  0  0  0  0  0  0  0  0  0
   13.2468    0.3223   22.7474 C   0  0  0  0  0  0  0  0  0  0  0  0
   12.1397    1.0502   22.3056 C   0  0  0  0  0  0  0  0  0  0  0  0
   11.9756    2.7001   22.8199 Cl  0  0  0  0  0  0  0  0  0  0  0  0
   13.9816    0.7735   23.4002 H   0  0  0  0  0  0  0  0  0  0  0  0
   14.2158   -1.6132   22.6273 H   0  0  0  0  0  0  0  0  0  0  0  0
   10.6285   -1.4376   20.6045 H   0  0  0  0  0  0  0  0  0  0  0  0
   10.1174    2.2288   20.8769 H   0  0  0  0  0  0  0  0  0  0  0  0
    9.5260    0.7606   20.1081 H   0  0  0  0  0  0  0  0  0  0  0  0
    8.7559    1.8683   23.1554 N   0  0  0  0  0  0  0  0  0  0  0  0
    8.0397    2.9523   25.7386 C   0  0  0  0  0  0  0  0  0  0  0  0
    8.9673    3.3529   25.3181 H   0  0  0  0  0  0  0  0  0  0  0  0
    5.4870    0.7115   25.2433 H   0  0  0  0  0  0  0  0  0  0  0  0
    6.0187    3.2668   28.4504 H   0  0  0  0  0  0  0  0  0  0  0  0
  1  2  1  0
  2  3  2  0
  3  4  1  0
  4  5  2  0
  5  6  1  0
  6  7  1  0
  7  8  2  0
  8  9  1  0
  9 10  1  0
 10 11  1  0
 11 12  2  0
 12 13  1  0
 13 14  2  0
 14 15  1  0
 15 16  2  0
 16 17  1  0
 14 18  1  0
 13 19  1  0
 12 20  1  0
 10 21  1  0
 10 22  1  0
  9 23  1  0
 23 24  1  0
 24 25  1  0
 25 26  2  0
 26 27  1  0
 27 28  2  0
 28 29  1  0
 29 30  2  0
 30 31  1  0
 29 32  1  0
 28 33  1  0
 26 34  1  0
 24 35  1  0
 24 36  1  0
 23 37  2  0
  6 38  2  0
 38 39  1  0
  5 40  1  0
  3 41  1  0
 38  2  1  0
 37  7  1  0
 16 11  1  0
 30 25  1  0
M  END
>  <cnnaffinity>  (1) 
-6.58562

>  <filename>  (1) 
Fc1cncc(-c2nc(Cc3cnccc3Cl)n(Cc3cccnc3)n2)c1

$$$$
