
     RDKit          3D

 41 44  0  0  0  0  0  0  0  0999 V2000
    7.9731    4.7143   27.5721 F   0  0  0  0  0  0  0  0  0  0  0  0
    7.3166    3.6690   27.0427 C   0  0  0  0  0  0  0  0  0  0  0  0
    6.2392    3.1210   27.7373 C   0  0  0  0  0  0  0  0  0  0  0  0
    5.5681    2.0253   27.1832 C   0  0  0  0  0  0  0  0  0  0  0  0
    5.9682    1.4855   25.9577 C   0  0  0  0  0  0  0  0  0  0  0  0
    7.0568    2.0549   25.2637 C   0  0  0  0  0  0  0  0  0  0  0  0
    7.5187    1.4904   23.9699 C   0  0  0  0  0  0  0  0  0  0  0  0
    6.8599    0.5797   23.2673 N   0  0  0  0  0  0  0  0  0  0  0  0
    7.6631    0.3709   22.2004 N   0  0  0  0  0  0  0  0  0  0  0  0
    7.2997   -0.5619   21.1398 C   0  0  0  0  0  0  0  0  0  0  0  0
    6.6433    0.1003   19.9411 C   0  0  0  0  0  0  0  0  0  0  0  0
    5.4363    0.7931   20.1060 C   0  0  0  0  0  0  0  0  0  0  0  0
    4.8524    1.3939   18.9892 C   0  0  0  0  0  0  0  0  0  0  0  0
    5.4921    1.2857   17.7512 C   0  0  0  0  0  0  0  0  0  0  0  0
    6.6467    0.6283   17.5718 N   0  0  0  0  0  0  0  0  0  0  0  0
    7.2024    0.0637   18.6531 C   0  0  0  0  0  0  0  0  0  0  0  0
    8.1521   -0.4435   18.4745 H   0  0  0  0  0  0  0  0  0  0  0  0
    5.0563    1.7440   16.8647 H   0  0  0  0  0  0  0  0  0  0  0  0
    3.9310    1.9604   19.0651 H   0  0  0  0  0  0  0  0  0  0  0  0
    4.9783    0.8748   21.0950 H   0  0  0  0  0  0  0  0  0  0  0  0
    8.2006   -1.1054   20.8339 H   0  0  0  0  0  0  0  0  0  0  0  0
    6.6308   -1.2955   21.5990 H   0  0  0  0  0  0  0  0  0  0  0  0
    8.7513    1.1644   22.2990 C   0  0  0  0  0  0  0  0  0  0  0  0
    9.8932    1.1989   21.3206 C   0  0  0  0  0  0  0  0  0  0  0  0
   11.0698    0.2626   21.6159 C   0  0  0  0  0  0  0  0  0  0  0  0
   11.1397   -1.0676   21.2038 C   0  0  0  0  0  0  0  0  0  0  0  0
   12.1795   -1.8632   21.4512 N   0  0  0  0  0  0  0  0  0  0  0  0
   13.1779   -1.3392   22.1533 C   0  0  0  0  0  0  0  0  0  0  0  0
   13.2284   -0.0984   22.6327 N   0  0  0  0  0  0  0  0  0  0  0  0
   12.1789    0.6787   22.3654 C   0  0  0  0  0  0  0  0  0  0  0  0
   12.2271    1.6852   22.7826 H   0  0  0  0  0  0  0  0  0  0  0  0
   14.0304   -1.9890   22.3475 H   0  0  0  0  0  0  0  0  0  0  0  0
   10.3246   -1.5032   20.6187 H   0  0  0  0  0  0  0  0  0  0  0  0
   10.2469    2.2360   21.3149 H   0  0  0  0  0  0  0  0  0  0  0  0
    9.4839    1.0137   20.3222 H   0  0  0  0  0  0  0  0  0  0  0  0
    8.6920    1.8790   23.3988 N   0  0  0  0  0  0  0  0  0  0  0  0
    7.7335    3.1641   25.8154 C   0  0  0  0  0  0  0  0  0  0  0  0
    8.5783    3.6149   25.2970 H   0  0  0  0  0  0  0  0  0  0  0  0
    5.4577    0.6171   25.5452 H   0  0  0  0  0  0  0  0  0  0  0  0
    4.7308    1.5791   27.7140 H   0  0  0  0  0  0  0  0  0  0  0  0
    5.9485    3.5493   28.6906 H   0  0  0  0  0  0  0  0  0  0  0  0
  1  2  1  0
  2  3  2  0
  3  4  1  0
  4  5  2  0
  5  6  1  0
  6  7  1  0
  7  8  2  0
  8  9  1  0
  9 10  1  0
 10 11  1  0
 11 12  2  0
 12 13  1  0
 13 14  2  0
 14 15  1  0
 15 16  2  0
 16 17  1  0
 14 18  1  0
 13 19  1  0
 12 20  1  0
 10 21  1  0
 10 22  1  0
  9 23  1  0
 23 24  1  0
 24 25  1  0
 25 26  2  0
 26 27  1  0
 27 28  2  0
 28 29  1  0
 29 30  2  0
 30 31  1  0
 28 32  1  0
 26 33  1  0
 24 34  1  0
 24 35  1  0
 23 36  2  0
  6 37  2  0
 37 38  1  0
  5 39  1  0
  4 40  1  0
  3 41  1  0
 37  2  1  0
 36  7  1  0
 16 11  1  0
 30 25  1  0
M  END
>  <cnnaffinity>  (1) 
-6.27541

>  <filename>  (1) 
Fc1cccc(-c2nc(Cc3cncnc3)n(Cc3cccnc3)n2)c1

$$$$
