
     RDKit          3D

 41 44  0  0  0  0  0  0  0  0999 V2000
    6.8865    1.5273   25.8851 F   0  0  0  0  0  0  0  0  0  0  0  0
    8.0109    1.7375   25.1808 C   0  0  0  0  0  0  0  0  0  0  0  0
    9.2184    1.8581   25.8490 C   0  0  0  0  0  0  0  0  0  0  0  0
   10.3935    2.0225   25.1079 C   0  0  0  0  0  0  0  0  0  0  0  0
   10.3348    2.0980   23.7190 C   0  0  0  0  0  0  0  0  0  0  0  0
    9.1138    2.0057   23.0318 C   0  0  0  0  0  0  0  0  0  0  0  0
    9.0923    1.9933   21.5208 C   0  0  0  0  0  0  0  0  0  0  0  0
    9.5124    0.6075   20.9584 C   0  0  0  0  0  0  0  0  0  0  0  0
    8.6199   -0.5047   21.4139 C   0  0  0  0  0  0  0  0  0  0  0  0
    8.8509   -1.3312   22.4129 N   0  0  0  0  0  0  0  0  0  0  0  0
    7.6605   -1.9668   22.5730 C   0  0  0  0  0  0  0  0  0  0  0  0
    7.4358   -2.9213   23.6940 C   0  0  0  0  0  0  0  0  0  0  0  0
    8.5755   -3.9540   23.9039 C   0  0  0  0  0  0  0  0  0  0  0  0
    8.9016   -3.3503   25.5957 S   0  0  0  0  0  0  0  0  0  0  0  0
    7.5166   -2.2719   25.1091 C   0  0  0  0  0  0  0  0  0  0  0  0
    6.6251   -2.4183   25.7255 H   0  0  0  0  0  0  0  0  0  0  0  0
    7.7806   -1.2072   25.1120 H   0  0  0  0  0  0  0  0  0  0  0  0
    9.4368   -3.8302   23.2385 H   0  0  0  0  0  0  0  0  0  0  0  0
    8.2479   -4.9974   23.8873 H   0  0  0  0  0  0  0  0  0  0  0  0
    6.4704   -3.3899   23.5089 H   0  0  0  0  0  0  0  0  0  0  0  0
    6.7300   -1.6311   21.7055 N   0  0  0  0  0  0  0  0  0  0  0  0
    7.3502   -0.6858   20.9404 N   0  0  0  0  0  0  0  0  0  0  0  0
    6.6549   -0.0035   19.9011 C   0  0  0  0  0  0  0  0  0  0  0  0
    5.4407    0.6410   20.1647 C   0  0  0  0  0  0  0  0  0  0  0  0
    4.8126    1.3103   19.1096 C   0  0  0  0  0  0  0  0  0  0  0  0
    5.3994    1.2963   17.8384 C   0  0  0  0  0  0  0  0  0  0  0  0
    6.5577    0.6713   17.5773 N   0  0  0  0  0  0  0  0  0  0  0  0
    7.1664    0.0477   18.5917 C   0  0  0  0  0  0  0  0  0  0  0  0
    8.1129   -0.4356   18.3642 H   0  0  0  0  0  0  0  0  0  0  0  0
    4.9215    1.7871   16.9929 H   0  0  0  0  0  0  0  0  0  0  0  0
    3.8812    1.8404   19.2610 H   0  0  0  0  0  0  0  0  0  0  0  0
    5.0254    0.6125   21.1758 H   0  0  0  0  0  0  0  0  0  0  0  0
    9.5358    0.6516   19.8679 H   0  0  0  0  0  0  0  0  0  0  0  0
   10.5298    0.3656   21.2807 H   0  0  0  0  0  0  0  0  0  0  0  0
    8.0924    2.2537   21.1573 H   0  0  0  0  0  0  0  0  0  0  0  0
    9.7806    2.7599   21.1482 H   0  0  0  0  0  0  0  0  0  0  0  0
    7.9550    1.7977   23.7880 C   0  0  0  0  0  0  0  0  0  0  0  0
    6.7571    1.6607   23.1895 F   0  0  0  0  0  0  0  0  0  0  0  0
   11.2489    2.2256   23.1439 H   0  0  0  0  0  0  0  0  0  0  0  0
   11.3567    2.0773   25.5985 H   0  0  0  0  0  0  0  0  0  0  0  0
    9.1736    1.8001   26.9256 H   0  0  0  0  0  0  0  0  0  0  0  0
  1  2  1  0
  2  3  2  0
  3  4  1  0
  4  5  2  0
  5  6  1  0
  6  7  1  0
  7  8  1  0
  8  9  1  0
  9 10  2  0
 10 11  1  0
 11 12  1  0
 12 13  1  0
 13 14  1  0
 14 15  1  0
 15 16  1  0
 15 17  1  0
 13 18  1  0
 13 19  1  0
 12 20  1  0
 11 21  2  0
 21 22  1  0
 22 23  1  0
 23 24  2  0
 24 25  1  0
 25 26  2  0
 26 27  1  0
 27 28  2  0
 28 29  1  0
 26 30  1  0
 25 31  1  0
 24 32  1  0
  8 33  1  0
  8 34  1  0
  7 35  1  0
  7 36  1  0
  6 37  2  0
 37 38  1  0
  5 39  1  0
  4 40  1  0
  3 41  1  0
 37  2  1  0
 22  9  1  0
 28 23  1  0
 15 12  1  0
M  END
>  <cnnaffinity>  (1) 
-6.21156

>  <filename>  (1) 
Fc1cccc(CCc2nc(C3CSC3)nn2-c2cccnc2)c1F

$$$$
