
     RDKit          3D

 36 39  0  0  0  0  0  0  0  0999 V2000
    4.8327   -5.4266   24.8980 F   0  0  0  0  0  0  0  0  0  0  0  0
    6.0059   -4.7882   24.7779 C   0  0  0  0  0  0  0  0  0  0  0  0
    7.0140   -5.0796   25.6941 C   0  0  0  0  0  0  0  0  0  0  0  0
    8.2172   -4.3943   25.5629 C   0  0  0  0  0  0  0  0  0  0  0  0
    9.2029   -4.6173   26.4422 F   0  0  0  0  0  0  0  0  0  0  0  0
    8.4334   -3.4714   24.5508 C   0  0  0  0  0  0  0  0  0  0  0  0
    7.4038   -3.1960   23.6318 C   0  0  0  0  0  0  0  0  0  0  0  0
    7.6695   -2.1730   22.5856 C   0  0  0  0  0  0  0  0  0  0  0  0
    6.7962   -1.7518   21.6904 N   0  0  0  0  0  0  0  0  0  0  0  0
    7.4740   -0.7713   21.0324 N   0  0  0  0  0  0  0  0  0  0  0  0
    6.8178   -0.0433   19.9884 C   0  0  0  0  0  0  0  0  0  0  0  0
    5.5984    0.6007   20.2385 C   0  0  0  0  0  0  0  0  0  0  0  0
    4.9768    1.2699   19.1819 C   0  0  0  0  0  0  0  0  0  0  0  0
    5.5740    1.2580   17.9182 C   0  0  0  0  0  0  0  0  0  0  0  0
    6.7316    0.6276   17.6637 N   0  0  0  0  0  0  0  0  0  0  0  0
    7.3347    0.0027   18.6828 C   0  0  0  0  0  0  0  0  0  0  0  0
    8.2654   -0.5112   18.4452 H   0  0  0  0  0  0  0  0  0  0  0  0
    5.1062    1.7728   17.0826 H   0  0  0  0  0  0  0  0  0  0  0  0
    4.0436    1.8024   19.3268 H   0  0  0  0  0  0  0  0  0  0  0  0
    5.1559    0.5608   21.2348 H   0  0  0  0  0  0  0  0  0  0  0  0
    8.7144   -0.6446   21.5970 C   0  0  0  0  0  0  0  0  0  0  0  0
    9.7090    0.4443   21.3112 C   0  0  0  0  0  0  0  0  0  0  0  0
    9.3009    1.7633   21.9243 C   0  0  0  0  0  0  0  0  0  0  0  0
    8.4126    2.6563   21.4073 C   0  0  0  0  0  0  0  0  0  0  0  0
    8.0105    3.6854   22.2221 N   0  0  0  0  0  0  0  0  0  0  0  0
    8.5866    3.5668   23.3798 C   0  0  0  0  0  0  0  0  0  0  0  0
    9.6715    2.2327   23.5390 S   0  0  0  0  0  0  0  0  0  0  0  0
    8.3901    4.1889   24.2436 H   0  0  0  0  0  0  0  0  0  0  0  0
    7.9600    2.5049   20.4386 H   0  0  0  0  0  0  0  0  0  0  0  0
    9.7881    0.5641   20.2318 H   0  0  0  0  0  0  0  0  0  0  0  0
   10.6802    0.1039   21.6862 H   0  0  0  0  0  0  0  0  0  0  0  0
    8.8721   -1.5332   22.5391 N   0  0  0  0  0  0  0  0  0  0  0  0
    6.1619   -3.8585   23.7502 C   0  0  0  0  0  0  0  0  0  0  0  0
    5.3323   -3.6549   23.0797 H   0  0  0  0  0  0  0  0  0  0  0  0
    9.3899   -2.9631   24.4822 H   0  0  0  0  0  0  0  0  0  0  0  0
    6.8708   -5.8006   26.4878 H   0  0  0  0  0  0  0  0  0  0  0  0
  1  2  1  0
  2  3  2  0
  3  4  1  0
  4  5  1  0
  4  6  2  0
  6  7  1  0
  7  8  1  0
  8  9  2  0
  9 10  1  0
 10 11  1  0
 11 12  2  0
 12 13  1  0
 13 14  2  0
 14 15  1  0
 15 16  2  0
 16 17  1  0
 14 18  1  0
 13 19  1  0
 12 20  1  0
 10 21  1  0
 21 22  1  0
 22 23  1  0
 23 24  2  0
 24 25  1  0
 25 26  2  0
 26 27  1  0
 26 28  1  0
 24 29  1  0
 22 30  1  0
 22 31  1  0
 21 32  2  0
  7 33  2  0
 33 34  1  0
  6 35  1  0
  3 36  1  0
 33  2  1  0
 32  8  1  0
 16 11  1  0
 27 23  1  0
M  END
>  <cnnaffinity>  (1) 
-6.11129

>  <filename>  (1) 
Fc1cc(F)cc(-c2nc(Cc3cncs3)n(-c3cccnc3)n2)c1

$$$$
