
     RDKit          3D

 43 46  0  0  0  0  0  0  0  0999 V2000
   14.7212    0.6272   22.5653 F   0  0  0  0  0  0  0  0  0  0  0  0
   13.7129   -0.1277   22.1085 C   0  0  0  0  0  0  0  0  0  0  0  0
   14.0188   -1.2409   21.3292 C   0  0  0  0  0  0  0  0  0  0  0  0
   12.9770   -1.9720   20.7801 C   0  0  0  0  0  0  0  0  0  0  0  0
   11.6616   -1.6760   21.1106 C   0  0  0  0  0  0  0  0  0  0  0  0
   11.3491   -0.5336   21.8598 C   0  0  0  0  0  0  0  0  0  0  0  0
    9.9162   -0.1930   22.0217 C   0  0  0  0  0  0  0  0  0  0  0  0
    8.9619   -0.9197   21.4504 N   0  0  0  0  0  0  0  0  0  0  0  0
    7.8313   -0.2596   21.7598 N   0  0  0  0  0  0  0  0  0  0  0  0
    6.5745   -0.6884   21.1558 C   0  0  0  0  0  0  0  0  0  0  0  0
    6.1536    0.1099   19.9371 C   0  0  0  0  0  0  0  0  0  0  0  0
    4.9450    0.8125   19.8773 C   0  0  0  0  0  0  0  0  0  0  0  0
    4.6249    1.5045   18.7047 C   0  0  0  0  0  0  0  0  0  0  0  0
    5.5236    1.4592   17.6346 C   0  0  0  0  0  0  0  0  0  0  0  0
    6.6880    0.7922   17.6709 N   0  0  0  0  0  0  0  0  0  0  0  0
    6.9873    0.1476   18.8059 C   0  0  0  0  0  0  0  0  0  0  0  0
    7.9406   -0.3807   18.8210 H   0  0  0  0  0  0  0  0  0  0  0  0
    5.3010    1.9781   16.7030 H   0  0  0  0  0  0  0  0  0  0  0  0
    3.7096    2.0819   18.6123 H   0  0  0  0  0  0  0  0  0  0  0  0
    4.2630    0.8224   20.7327 H   0  0  0  0  0  0  0  0  0  0  0  0
    6.7321   -1.7381   20.8926 H   0  0  0  0  0  0  0  0  0  0  0  0
    5.7922   -0.6631   21.9149 H   0  0  0  0  0  0  0  0  0  0  0  0
    8.1417    0.8392   22.4873 C   0  0  0  0  0  0  0  0  0  0  0  0
    7.1649    1.7554   23.1556 C   0  0  0  0  0  0  0  0  0  0  0  0
    6.9107    1.3017   24.6173 C   0  0  0  0  0  0  0  0  0  0  0  0
    5.9918    2.1329   25.4556 C   0  0  0  0  0  0  0  0  0  0  0  0
    6.3138    3.0962   26.3706 C   0  0  0  0  0  0  0  0  0  0  0  0
    5.1217    3.4706   26.9510 N   0  0  0  0  0  0  0  0  0  0  0  0
    4.1461    2.7290   26.3635 C   0  0  0  0  0  0  0  0  0  0  0  0
    4.6324    1.9235   25.4579 N   0  0  0  0  0  0  0  0  0  0  0  0
    3.1021    2.8031   26.6454 H   0  0  0  0  0  0  0  0  0  0  0  0
    4.9861    4.1192   27.7103 H   0  0  0  0  0  0  0  0  0  0  0  0
    7.2732    3.5154   26.6410 H   0  0  0  0  0  0  0  0  0  0  0  0
    7.8878    1.2451   25.1136 H   0  0  0  0  0  0  0  0  0  0  0  0
    6.4982    0.2858   24.5973 H   0  0  0  0  0  0  0  0  0  0  0  0
    6.2314    1.8090   22.5859 H   0  0  0  0  0  0  0  0  0  0  0  0
    7.5970    2.7601   23.1372 H   0  0  0  0  0  0  0  0  0  0  0  0
    9.4497    0.9030   22.6651 N   0  0  0  0  0  0  0  0  0  0  0  0
   12.4002    0.2589   22.3687 C   0  0  0  0  0  0  0  0  0  0  0  0
   12.2254    1.1824   22.9157 H   0  0  0  0  0  0  0  0  0  0  0  0
   10.8385   -2.3037   20.7822 H   0  0  0  0  0  0  0  0  0  0  0  0
   13.2019   -2.7598   20.0686 H   0  0  0  0  0  0  0  0  0  0  0  0
   15.0285   -1.5358   21.1064 H   0  0  0  0  0  0  0  0  0  0  0  0
  1  2  1  0
  2  3  2  0
  3  4  1  0
  4  5  2  0
  5  6  1  0
  6  7  1  0
  7  8  2  0
  8  9  1  0
  9 10  1  0
 10 11  1  0
 11 12  2  0
 12 13  1  0
 13 14  2  0
 14 15  1  0
 15 16  2  0
 16 17  1  0
 14 18  1  0
 13 19  1  0
 12 20  1  0
 10 21  1  0
 10 22  1  0
  9 23  1  0
 23 24  1  0
 24 25  1  0
 25 26  1  0
 26 27  2  0
 27 28  1  0
 28 29  1  0
 29 30  2  0
 29 31  1  0
 28 32  1  0
 27 33  1  0
 25 34  1  0
 25 35  1  0
 24 36  1  0
 24 37  1  0
 23 38  2  0
  6 39  2  0
 39 40  1  0
  5 41  1  0
  4 42  1  0
  3 43  1  0
 39  2  1  0
 38  7  1  0
 16 11  1  0
 30 26  1  0
M  END
>  <cnnaffinity>  (1) 
-6.41894

>  <filename>  (1) 
Fc1cccc(-c2nc(CCc3c[nH]cn3)n(Cc3cccnc3)n2)c1

$$$$
