
     RDKit          3D

 42 45  0  0  0  0  0  0  0  0999 V2000
    5.6963    5.6919   24.7520 F   0  0  0  0  0  0  0  0  0  0  0  0
    6.7458    4.8866   24.9800 C   0  0  0  0  0  0  0  0  0  0  0  0
    7.6707    5.2427   25.9500 C   0  0  0  0  0  0  0  0  0  0  0  0
    8.7455    4.3698   26.1895 C   0  0  0  0  0  0  0  0  0  0  0  0
    8.8620    3.1866   25.4690 C   0  0  0  0  0  0  0  0  0  0  0  0
    9.8664    2.3405   25.7454 F   0  0  0  0  0  0  0  0  0  0  0  0
    7.9305    2.8463   24.4560 C   0  0  0  0  0  0  0  0  0  0  0  0
    8.1412    1.6956   23.7635 O   0  0  0  0  0  0  0  0  0  0  0  0
    7.1395    1.2483   22.8573 C   0  0  0  0  0  0  0  0  0  0  0  0
    7.4776   -0.1124   22.3242 C   0  0  0  0  0  0  0  0  0  0  0  0
    7.9631   -1.1309   23.0030 N   0  0  0  0  0  0  0  0  0  0  0  0
    8.1382   -2.0851   22.0543 C   0  0  0  0  0  0  0  0  0  0  0  0
    8.6277   -3.4885   22.3256 C   0  0  0  0  0  0  0  0  0  0  0  0
    7.6192   -4.3524   23.1384 C   0  0  0  0  0  0  0  0  0  0  0  0
    8.5492   -5.1964   24.0182 C   0  0  0  0  0  0  0  0  0  0  0  0
    9.6921   -4.2196   24.2815 C   0  0  0  0  0  0  0  0  0  0  0  0
    9.8555   -3.5224   23.0522 O   0  0  0  0  0  0  0  0  0  0  0  0
    9.4489   -3.5064   25.0887 H   0  0  0  0  0  0  0  0  0  0  0  0
   10.6451   -4.7031   24.5194 H   0  0  0  0  0  0  0  0  0  0  0  0
    8.0686   -5.5532   24.9326 H   0  0  0  0  0  0  0  0  0  0  0  0
    8.9262   -6.0639   23.4634 H   0  0  0  0  0  0  0  0  0  0  0  0
    6.9630   -4.9411   22.4870 H   0  0  0  0  0  0  0  0  0  0  0  0
    6.9840   -3.7018   23.7583 H   0  0  0  0  0  0  0  0  0  0  0  0
    8.7933   -3.9119   21.3261 H   0  0  0  0  0  0  0  0  0  0  0  0
    7.7468   -1.7332   20.8437 N   0  0  0  0  0  0  0  0  0  0  0  0
    7.2621   -0.4815   21.0260 N   0  0  0  0  0  0  0  0  0  0  0  0
    6.5919    0.1634   19.9529 C   0  0  0  0  0  0  0  0  0  0  0  0
    5.3792    0.8469   20.1129 C   0  0  0  0  0  0  0  0  0  0  0  0
    4.8035    1.4161   18.9724 C   0  0  0  0  0  0  0  0  0  0  0  0
    5.4652    1.3059   17.7453 C   0  0  0  0  0  0  0  0  0  0  0  0
    6.6199    0.6333   17.5894 N   0  0  0  0  0  0  0  0  0  0  0  0
    7.1485    0.0519   18.6670 C   0  0  0  0  0  0  0  0  0  0  0  0
    8.0463   -0.5479   18.5306 H   0  0  0  0  0  0  0  0  0  0  0  0
    5.0591    1.7663   16.8486 H   0  0  0  0  0  0  0  0  0  0  0  0
    3.8576    1.9445   19.0246 H   0  0  0  0  0  0  0  0  0  0  0  0
    4.8792    0.9034   21.0821 H   0  0  0  0  0  0  0  0  0  0  0  0
    7.0578    1.9454   22.0158 H   0  0  0  0  0  0  0  0  0  0  0  0
    6.1671    1.1928   23.3681 H   0  0  0  0  0  0  0  0  0  0  0  0
    6.8569    3.7169   24.2301 C   0  0  0  0  0  0  0  0  0  0  0  0
    6.1025    3.5031   23.4853 H   0  0  0  0  0  0  0  0  0  0  0  0
    9.5042    4.5941   26.9331 H   0  0  0  0  0  0  0  0  0  0  0  0
    7.5349    6.1717   26.4960 H   0  0  0  0  0  0  0  0  0  0  0  0
  1  2  1  0
  2  3  2  0
  3  4  1  0
  4  5  2  0
  5  6  1  0
  5  7  1  0
  7  8  1  0
  8  9  1  0
  9 10  1  0
 10 11  2  0
 11 12  1  0
 12 13  1  0
 13 14  1  0
 14 15  1  0
 15 16  1  0
 16 17  1  0
 16 18  1  0
 16 19  1  0
 15 20  1  0
 15 21  1  0
 14 22  1  0
 14 23  1  0
 13 24  1  0
 12 25  2  0
 25 26  1  0
 26 27  1  0
 27 28  2  0
 28 29  1  0
 29 30  2  0
 30 31  1  0
 31 32  2  0
 32 33  1  0
 30 34  1  0
 29 35  1  0
 28 36  1  0
  9 37  1  0
  9 38  1  0
  7 39  2  0
 39 40  1  0
  4 41  1  0
  3 42  1  0
 39  2  1  0
 26 10  1  0
 32 27  1  0
 17 13  1  0
M  END
>  <cnnaffinity>  (1) 
-5.9725

>  <filename>  (1) 
Fc1ccc(F)c(OCc2nc(C3CCCO3)nn2-c2cccnc2)c1

$$$$
