
     RDKit          3D

 32 34  0  0  0  0  0  0  0  0999 V2000
    6.6807   -1.3374   21.6221 H   0  0  0  0  0  0  0  0  0  0  0  0
    7.3273   -0.7211   20.9936 C   0  0  0  0  0  0  0  0  0  0  0  0
    8.6099   -0.5336   21.3389 C   0  0  0  0  0  0  0  0  0  0  0  0
    9.3677   -1.1509   22.4399 C   0  0  0  0  0  0  0  0  0  0  0  0
    8.8511   -2.3290   23.2020 C   0  0  0  0  0  0  0  0  0  0  0  0
    9.0767   -2.3869   24.5869 C   0  0  0  0  0  0  0  0  0  0  0  0
    9.5999   -1.5690   25.0729 H   0  0  0  0  0  0  0  0  0  0  0  0
    8.6576   -3.4933   25.3263 C   0  0  0  0  0  0  0  0  0  0  0  0
    8.8525   -3.5316   26.3942 H   0  0  0  0  0  0  0  0  0  0  0  0
    8.0052   -4.5630   24.7040 C   0  0  0  0  0  0  0  0  0  0  0  0
    7.6727   -5.4336   25.2624 H   0  0  0  0  0  0  0  0  0  0  0  0
    7.7892   -4.4940   23.3290 C   0  0  0  0  0  0  0  0  0  0  0  0
    7.1672   -5.5172   22.7201 F   0  0  0  0  0  0  0  0  0  0  0  0
    8.1940   -3.3999   22.5646 C   0  0  0  0  0  0  0  0  0  0  0  0
    8.0078   -3.4075   21.4923 H   0  0  0  0  0  0  0  0  0  0  0  0
   10.4834   -0.5743   22.6994 N   0  0  0  0  0  0  0  0  0  0  0  0
   10.6990    0.5144   21.7458 C   0  0  0  0  0  0  0  0  0  0  0  0
   11.6674    0.3732   21.2637 H   0  0  0  0  0  0  0  0  0  0  0  0
   10.7412    1.4539   22.3039 H   0  0  0  0  0  0  0  0  0  0  0  0
    9.5137    0.5164   20.7504 C   0  0  0  0  0  0  0  0  0  0  0  0
    9.7558    0.1837   19.7425 H   0  0  0  0  0  0  0  0  0  0  0  0
    9.0292    1.4929   20.6570 H   0  0  0  0  0  0  0  0  0  0  0  0
    6.6424   -0.0140   19.8946 C   0  0  0  0  0  0  0  0  0  0  0  0
    7.1648    0.0664   18.5903 C   0  0  0  0  0  0  0  0  0  0  0  0
    8.1088   -0.4274   18.3746 H   0  0  0  0  0  0  0  0  0  0  0  0
    6.5632    0.6861   17.5683 N   0  0  0  0  0  0  0  0  0  0  0  0
    5.3998    1.2990   17.8341 C   0  0  0  0  0  0  0  0  0  0  0  0
    4.9142    1.7842   16.9929 H   0  0  0  0  0  0  0  0  0  0  0  0
    4.8000    1.3138   19.1017 C   0  0  0  0  0  0  0  0  0  0  0  0
    3.8687    1.8487   19.2562 H   0  0  0  0  0  0  0  0  0  0  0  0
    5.4226    0.6352   20.1457 C   0  0  0  0  0  0  0  0  0  0  0  0
    5.0064    0.6240   21.1603 H   0  0  0  0  0  0  0  0  0  0  0  0
  1  2  1  0
  2  3  2  3
  3  4  1  0
  4  5  1  0
  5  6  2  0
  6  7  1  0
  6  8  1  0
  8  9  1  0
  8 10  2  0
 10 11  1  0
 10 12  1  0
 12 13  1  0
 12 14  2  0
 14 15  1  0
  4 16  2  0
 16 17  1  0
 17 18  1  0
 17 19  1  0
 17 20  1  0
 20 21  1  0
 20 22  1  0
  2 23  1  0
 23 24  2  0
 24 25  1  0
 24 26  1  0
 26 27  2  0
 27 28  1  0
 27 29  1  0
 29 30  1  0
 29 31  2  0
 31 32  1  0
 20  3  1  0
 31 23  1  0
 14  5  1  0
M  END
>  <cnnaffinity>  (1) 
-5.28053

>  <filename>  (1) 
Fc1cccc(C2=NCCC2=Cc2cccnc2)c1

$$$$
