
     RDKit          3D

 45 48  0  0  0  0  0  0  0  0999 V2000
   14.6928   -1.7949   20.9297 F   0  0  0  0  0  0  0  0  0  0  0  0
   13.8835   -0.9668   21.5958 C   0  0  0  0  0  0  0  0  0  0  0  0
   14.3867    0.0945   22.3665 C   0  0  0  0  0  0  0  0  0  0  0  0
   13.5966    0.9044   23.0787 N   0  0  0  0  0  0  0  0  0  0  0  0
   12.2808    0.7548   22.9486 C   0  0  0  0  0  0  0  0  0  0  0  0
   11.6939   -0.1991   22.0943 C   0  0  0  0  0  0  0  0  0  0  0  0
   10.2563   -0.0541   21.8833 C   0  0  0  0  0  0  0  0  0  0  0  0
    9.4011   -0.9359   21.3977 N   0  0  0  0  0  0  0  0  0  0  0  0
    8.2092   -0.2804   21.5028 N   0  0  0  0  0  0  0  0  0  0  0  0
    6.9471   -0.8306   21.0100 C   0  0  0  0  0  0  0  0  0  0  0  0
    6.3301   -0.0135   19.8868 C   0  0  0  0  0  0  0  0  0  0  0  0
    5.1324    0.7003   20.0210 C   0  0  0  0  0  0  0  0  0  0  0  0
    4.6469    1.4194   18.9234 C   0  0  0  0  0  0  0  0  0  0  0  0
    5.3812    1.4078   17.7345 C   0  0  0  0  0  0  0  0  0  0  0  0
    6.5332    0.7362   17.5892 N   0  0  0  0  0  0  0  0  0  0  0  0
    6.9905    0.0595   18.6494 C   0  0  0  0  0  0  0  0  0  0  0  0
    7.9360   -0.4631   18.5058 H   0  0  0  0  0  0  0  0  0  0  0  0
    5.0349    1.9620   16.8619 H   0  0  0  0  0  0  0  0  0  0  0  0
    3.7362    2.0049   18.9812 H   0  0  0  0  0  0  0  0  0  0  0  0
    4.5965    0.7128   20.9741 H   0  0  0  0  0  0  0  0  0  0  0  0
    6.2366   -0.9021   21.8449 H   0  0  0  0  0  0  0  0  0  0  0  0
    7.1640   -1.8522   20.6839 H   0  0  0  0  0  0  0  0  0  0  0  0
    8.4116    0.9266   22.0768 C   0  0  0  0  0  0  0  0  0  0  0  0
    7.4151    1.7452   22.8117 C   0  0  0  0  0  0  0  0  0  0  0  0
    7.4684    1.3625   24.3172 C   0  0  0  0  0  0  0  0  0  0  0  0
    6.4673    2.0788   25.1807 C   0  0  0  0  0  0  0  0  0  0  0  0
    6.8450    2.9987   26.1711 C   0  0  0  0  0  0  0  0  0  0  0  0
    5.8948    3.6203   26.9900 C   0  0  0  0  0  0  0  0  0  0  0  0
    4.5386    3.3151   26.8318 C   0  0  0  0  0  0  0  0  0  0  0  0
    4.1311    2.4012   25.8527 C   0  0  0  0  0  0  0  0  0  0  0  0
    5.0989    1.8178   25.0424 C   0  0  0  0  0  0  0  0  0  0  0  0
    4.6904    0.9622   24.0784 F   0  0  0  0  0  0  0  0  0  0  0  0
    3.0918    2.1250   25.7040 H   0  0  0  0  0  0  0  0  0  0  0  0
    3.7948    3.7818   27.4725 H   0  0  0  0  0  0  0  0  0  0  0  0
    6.2141    4.3317   27.7484 H   0  0  0  0  0  0  0  0  0  0  0  0
    7.9034    3.2233   26.2978 H   0  0  0  0  0  0  0  0  0  0  0  0
    8.4860    1.5610   24.6841 H   0  0  0  0  0  0  0  0  0  0  0  0
    7.3172    0.2773   24.4237 H   0  0  0  0  0  0  0  0  0  0  0  0
    6.4160    1.6285   22.3895 H   0  0  0  0  0  0  0  0  0  0  0  0
    7.7115    2.7920   22.6919 H   0  0  0  0  0  0  0  0  0  0  0  0
    9.6989    1.1160   22.2749 N   0  0  0  0  0  0  0  0  0  0  0  0
   12.5131   -1.1370   21.4499 C   0  0  0  0  0  0  0  0  0  0  0  0
   12.1239   -1.9166   20.7981 H   0  0  0  0  0  0  0  0  0  0  0  0
   11.6513    1.4398   23.5028 H   0  0  0  0  0  0  0  0  0  0  0  0
   15.4272    0.3764   22.3837 H   0  0  0  0  0  0  0  0  0  0  0  0
  1  2  1  0
  2  3  2  0
  3  4  1  0
  4  5  2  0
  5  6  1  0
  6  7  1  0
  7  8  2  0
  8  9  1  0
  9 10  1  0
 10 11  1  0
 11 12  2  0
 12 13  1  0
 13 14  2  0
 14 15  1  0
 15 16  2  0
 16 17  1  0
 14 18  1  0
 13 19  1  0
 12 20  1  0
 10 21  1  0
 10 22  1  0
  9 23  1  0
 23 24  1  0
 24 25  1  0
 25 26  1  0
 26 27  2  0
 27 28  1  0
 28 29  2  0
 29 30  1  0
 30 31  2  0
 31 32  1  0
 30 33  1  0
 29 34  1  0
 28 35  1  0
 27 36  1  0
 25 37  1  0
 25 38  1  0
 24 39  1  0
 24 40  1  0
 23 41  2  0
  6 42  2  0
 42 43  1  0
  5 44  1  0
  3 45  1  0
 42  2  1  0
 41  7  1  0
 16 11  1  0
 31 26  1  0
M  END
>  <cnnaffinity>  (1) 
-6.69224

>  <filename>  (1) 
Fc1cncc(-c2nc(CCc3ccccc3F)n(Cc3cccnc3)n2)c1

$$$$
