
     RDKit          3D

 45 48  0  0  0  0  0  0  0  0999 V2000
    3.4826    3.9838   27.0481 F   0  0  0  0  0  0  0  0  0  0  0  0
    4.4461    3.3067   26.4044 C   0  0  0  0  0  0  0  0  0  0  0  0
    4.0989    2.1902   25.6506 C   0  0  0  0  0  0  0  0  0  0  0  0
    5.1118    1.5096   24.9675 C   0  0  0  0  0  0  0  0  0  0  0  0
    6.4520    1.9272   25.0187 C   0  0  0  0  0  0  0  0  0  0  0  0
    7.5137    1.2562   24.1903 C   0  0  0  0  0  0  0  0  0  0  0  0
    7.6511    1.8514   22.7607 C   0  0  0  0  0  0  0  0  0  0  0  0
    8.6397    1.0493   21.9874 C   0  0  0  0  0  0  0  0  0  0  0  0
    9.9507    1.1686   22.1112 N   0  0  0  0  0  0  0  0  0  0  0  0
   10.4096   -0.0266   21.6716 C   0  0  0  0  0  0  0  0  0  0  0  0
   11.8423   -0.4336   21.7345 C   0  0  0  0  0  0  0  0  0  0  0  0
   12.8569    0.3878   22.2634 C   0  0  0  0  0  0  0  0  0  0  0  0
   14.1698   -0.0828   22.2313 C   0  0  0  0  0  0  0  0  0  0  0  0
   14.5265   -1.2615   21.7150 N   0  0  0  0  0  0  0  0  0  0  0  0
   13.5715   -2.0347   21.2035 C   0  0  0  0  0  0  0  0  0  0  0  0
   12.2241   -1.6831   21.2179 C   0  0  0  0  0  0  0  0  0  0  0  0
   11.4499   -2.3340   20.8397 H   0  0  0  0  0  0  0  0  0  0  0  0
   13.9313   -2.9415   20.7281 H   0  0  0  0  0  0  0  0  0  0  0  0
   14.9848    0.5129   22.6236 H   0  0  0  0  0  0  0  0  0  0  0  0
   12.6632    1.3762   22.6663 H   0  0  0  0  0  0  0  0  0  0  0  0
    9.4640   -0.8482   21.2414 N   0  0  0  0  0  0  0  0  0  0  0  0
    8.3340   -0.1407   21.4219 N   0  0  0  0  0  0  0  0  0  0  0  0
    7.0442   -0.7016   21.0256 C   0  0  0  0  0  0  0  0  0  0  0  0
    6.3714    0.0401   19.8877 C   0  0  0  0  0  0  0  0  0  0  0  0
    5.1564    0.7228   20.0168 C   0  0  0  0  0  0  0  0  0  0  0  0
    4.6495    1.4174   18.9124 C   0  0  0  0  0  0  0  0  0  0  0  0
    5.3722    1.3925   17.7153 C   0  0  0  0  0  0  0  0  0  0  0  0
    6.5229    0.7182   17.5616 N   0  0  0  0  0  0  0  0  0  0  0  0
    6.9991    0.0712   18.6309 C   0  0  0  0  0  0  0  0  0  0  0  0
    7.9399   -0.4578   18.4886 H   0  0  0  0  0  0  0  0  0  0  0  0
    5.0157    1.9366   16.8409 H   0  0  0  0  0  0  0  0  0  0  0  0
    3.7307    1.9939   18.9697 H   0  0  0  0  0  0  0  0  0  0  0  0
    4.6162    0.7281   20.9672 H   0  0  0  0  0  0  0  0  0  0  0  0
    6.3900   -0.7363   21.9057 H   0  0  0  0  0  0  0  0  0  0  0  0
    7.2542   -1.7349   20.7349 H   0  0  0  0  0  0  0  0  0  0  0  0
    8.0041    2.8829   22.8204 H   0  0  0  0  0  0  0  0  0  0  0  0
    6.6868    1.8601   22.2415 H   0  0  0  0  0  0  0  0  0  0  0  0
    8.4887    1.3166   24.6914 H   0  0  0  0  0  0  0  0  0  0  0  0
    7.2861    0.1836   24.0999 H   0  0  0  0  0  0  0  0  0  0  0  0
    6.7356    3.0449   25.8167 C   0  0  0  0  0  0  0  0  0  0  0  0
    8.0085    3.4730   25.9200 F   0  0  0  0  0  0  0  0  0  0  0  0
    5.7601    3.7518   26.5143 C   0  0  0  0  0  0  0  0  0  0  0  0
    6.0164    4.6208   27.1081 H   0  0  0  0  0  0  0  0  0  0  0  0
    4.8609    0.6299   24.3758 H   0  0  0  0  0  0  0  0  0  0  0  0
    3.0597    1.8840   25.6065 H   0  0  0  0  0  0  0  0  0  0  0  0
  1  2  1  0
  2  3  2  0
  3  4  1  0
  4  5  2  0
  5  6  1  0
  6  7  1  0
  7  8  1  0
  8  9  2  0
  9 10  1  0
 10 11  1  0
 11 12  2  0
 12 13  1  0
 13 14  2  0
 14 15  1  0
 15 16  2  0
 16 17  1  0
 15 18  1  0
 13 19  1  0
 12 20  1  0
 10 21  2  0
 21 22  1  0
 22 23  1  0
 23 24  1  0
 24 25  2  0
 25 26  1  0
 26 27  2  0
 27 28  1  0
 28 29  2  0
 29 30  1  0
 27 31  1  0
 26 32  1  0
 25 33  1  0
 23 34  1  0
 23 35  1  0
  7 36  1  0
  7 37  1  0
  6 38  1  0
  6 39  1  0
  5 40  1  0
 40 41  1  0
 40 42  2  0
 42 43  1  0
  4 44  1  0
  3 45  1  0
 42  2  1  0
 22  8  1  0
 29 24  1  0
 16 11  1  0
M  END
>  <cnnaffinity>  (1) 
-6.67672

>  <filename>  (1) 
Fc1ccc(CCc2nc(-c3ccncc3)nn2Cc2cccnc2)c(F)c1

$$$$
