
     RDKit          3D

 42 45  0  0  0  0  0  0  0  0999 V2000
    6.4885   -0.9145   27.9533 F   0  0  0  0  0  0  0  0  0  0  0  0
    6.6229   -0.1831   26.8373 C   0  0  0  0  0  0  0  0  0  0  0  0
    7.6233    0.7812   26.7495 C   0  0  0  0  0  0  0  0  0  0  0  0
    7.7011    1.4890   25.5448 C   0  0  0  0  0  0  0  0  0  0  0  0
    6.8125    1.1956   24.4966 C   0  0  0  0  0  0  0  0  0  0  0  0
    6.9962    1.8072   23.1319 C   0  0  0  0  0  0  0  0  0  0  0  0
    7.9945    0.9537   22.4292 C   0  0  0  0  0  0  0  0  0  0  0  0
    9.2916    1.1231   22.5199 N   0  0  0  0  0  0  0  0  0  0  0  0
    9.7959   -0.0340   22.0122 C   0  0  0  0  0  0  0  0  0  0  0  0
   11.2446   -0.3130   21.9306 C   0  0  0  0  0  0  0  0  0  0  0  0
   11.6924   -1.5162   21.3538 C   0  0  0  0  0  0  0  0  0  0  0  0
   13.0570   -1.7924   21.3096 C   0  0  0  0  0  0  0  0  0  0  0  0
   13.9657   -0.9347   21.9252 C   0  0  0  0  0  0  0  0  0  0  0  0
   13.5475    0.2905   22.4451 C   0  0  0  0  0  0  0  0  0  0  0  0
   12.1894    0.6127   22.4253 C   0  0  0  0  0  0  0  0  0  0  0  0
   11.8668    1.5818   22.7938 H   0  0  0  0  0  0  0  0  0  0  0  0
   14.2890    0.9971   22.8139 H   0  0  0  0  0  0  0  0  0  0  0  0
   14.9902   -1.2561   22.0131 H   0  0  0  0  0  0  0  0  0  0  0  0
   13.4398   -2.6465   20.7669 H   0  0  0  0  0  0  0  0  0  0  0  0
   10.9585   -2.1803   20.9079 H   0  0  0  0  0  0  0  0  0  0  0  0
    8.8668   -0.8945   21.6136 N   0  0  0  0  0  0  0  0  0  0  0  0
    7.7113   -0.2465   21.8826 N   0  0  0  0  0  0  0  0  0  0  0  0
    6.4251   -0.6822   21.3444 C   0  0  0  0  0  0  0  0  0  0  0  0
    6.0562    0.0326   20.0598 C   0  0  0  0  0  0  0  0  0  0  0  0
    4.8816    0.7772   19.9153 C   0  0  0  0  0  0  0  0  0  0  0  0
    4.6889    1.5052   18.7379 C   0  0  0  0  0  0  0  0  0  0  0  0
    5.6613    1.4343   17.7381 C   0  0  0  0  0  0  0  0  0  0  0  0
    6.7671    0.6813   17.8323 N   0  0  0  0  0  0  0  0  0  0  0  0
    6.9443    0.0022   18.9704 C   0  0  0  0  0  0  0  0  0  0  0  0
    7.8371   -0.6170   19.0372 H   0  0  0  0  0  0  0  0  0  0  0  0
    5.5476    1.9920   16.8111 H   0  0  0  0  0  0  0  0  0  0  0  0
    3.8180    2.1345   18.5912 H   0  0  0  0  0  0  0  0  0  0  0  0
    4.1202    0.7862   20.6981 H   0  0  0  0  0  0  0  0  0  0  0  0
    5.6980   -0.4600   22.1234 H   0  0  0  0  0  0  0  0  0  0  0  0
    6.4773   -1.7678   21.2207 H   0  0  0  0  0  0  0  0  0  0  0  0
    7.4097    2.8170   23.1887 H   0  0  0  0  0  0  0  0  0  0  0  0
    6.0494    1.8271   22.5876 H   0  0  0  0  0  0  0  0  0  0  0  0
    5.8598    0.2600   24.6010 N   0  0  0  0  0  0  0  0  0  0  0  0
    5.7532   -0.4053   25.7639 C   0  0  0  0  0  0  0  0  0  0  0  0
    4.9824   -1.1696   25.8457 H   0  0  0  0  0  0  0  0  0  0  0  0
    8.4724    2.2303   25.3746 H   0  0  0  0  0  0  0  0  0  0  0  0
    8.2971    0.9539   27.5906 H   0  0  0  0  0  0  0  0  0  0  0  0
  1  2  1  0
  2  3  2  0
  3  4  1  0
  4  5  2  0
  5  6  1  0
  6  7  1  0
  7  8  2  0
  8  9  1  0
  9 10  1  0
 10 11  2  0
 11 12  1  0
 12 13  2  0
 13 14  1  0
 14 15  2  0
 15 16  1  0
 14 17  1  0
 13 18  1  0
 12 19  1  0
 11 20  1  0
  9 21  2  0
 21 22  1  0
 22 23  1  0
 23 24  1  0
 24 25  2  0
 25 26  1  0
 26 27  2  0
 27 28  1  0
 28 29  2  0
 29 30  1  0
 27 31  1  0
 26 32  1  0
 25 33  1  0
 23 34  1  0
 23 35  1  0
  6 36  1  0
  6 37  1  0
  5 38  1  0
 38 39  2  0
 39 40  1  0
  4 41  1  0
  3 42  1  0
 39  2  1  0
 22  7  1  0
 29 24  1  0
 15 10  1  0
M  END
>  <cnnaffinity>  (1) 
-6.50976

>  <filename>  (1) 
Fc1ccc(Cc2nc(-c3ccccc3)nn2Cc2cccnc2)nc1

$$$$
