
     RDKit          3D

 40 43  0  0  0  0  0  0  0  0999 V2000
    6.2028    3.6989   28.7739 F   0  0  0  0  0  0  0  0  0  0  0  0
    6.5470    3.1396   27.6050 C   0  0  0  0  0  0  0  0  0  0  0  0
    5.7236    2.1641   27.0509 C   0  0  0  0  0  0  0  0  0  0  0  0
    6.0724    1.5955   25.8250 C   0  0  0  0  0  0  0  0  0  0  0  0
    7.2421    2.0155   25.1516 C   0  0  0  0  0  0  0  0  0  0  0  0
    7.6568    1.4538   23.8447 C   0  0  0  0  0  0  0  0  0  0  0  0
    7.0319    0.4810   23.2000 N   0  0  0  0  0  0  0  0  0  0  0  0
    7.8085    0.2788   22.1049 N   0  0  0  0  0  0  0  0  0  0  0  0
    7.3873   -0.6515   21.0581 C   0  0  0  0  0  0  0  0  0  0  0  0
    6.6801    0.0264   19.9007 C   0  0  0  0  0  0  0  0  0  0  0  0
    5.4662    0.6926   20.1185 C   0  0  0  0  0  0  0  0  0  0  0  0
    4.8510    1.3345   19.0409 C   0  0  0  0  0  0  0  0  0  0  0  0
    5.4723    1.2808   17.7884 C   0  0  0  0  0  0  0  0  0  0  0  0
    6.6217    0.6279   17.5560 N   0  0  0  0  0  0  0  0  0  0  0  0
    7.1989    0.0164   18.5982 C   0  0  0  0  0  0  0  0  0  0  0  0
    8.1245   -0.5262   18.3826 H   0  0  0  0  0  0  0  0  0  0  0  0
    5.0211    1.7671   16.9251 H   0  0  0  0  0  0  0  0  0  0  0  0
    3.9147    1.8739   19.1560 H   0  0  0  0  0  0  0  0  0  0  0  0
    5.0273    0.7066   21.1193 H   0  0  0  0  0  0  0  0  0  0  0  0
    8.2539   -1.2212   20.7000 H   0  0  0  0  0  0  0  0  0  0  0  0
    6.7152   -1.3595   21.5509 H   0  0  0  0  0  0  0  0  0  0  0  0
    8.8340    1.1593   22.1210 C   0  0  0  0  0  0  0  0  0  0  0  0
    9.9661    1.2351   21.1518 C   0  0  0  0  0  0  0  0  0  0  0  0
   11.0979    0.3267   21.5334 C   0  0  0  0  0  0  0  0  0  0  0  0
   12.0386    0.3384   22.5119 C   0  0  0  0  0  0  0  0  0  0  0  0
   12.8740   -0.8078   22.2715 C   0  0  0  0  0  0  0  0  0  0  0  0
   12.3444   -1.4514   21.2038 C   0  0  0  0  0  0  0  0  0  0  0  0
   11.2559   -0.7707   20.7584 O   0  0  0  0  0  0  0  0  0  0  0  0
   12.6233   -2.3243   20.6284 H   0  0  0  0  0  0  0  0  0  0  0  0
   13.7520   -1.1157   22.8129 H   0  0  0  0  0  0  0  0  0  0  0  0
   12.1036    1.0548   23.3239 H   0  0  0  0  0  0  0  0  0  0  0  0
    9.6218    0.9905   20.1441 H   0  0  0  0  0  0  0  0  0  0  0  0
   10.3070    2.2755   21.1815 H   0  0  0  0  0  0  0  0  0  0  0  0
    8.7710    1.9043   23.1979 N   0  0  0  0  0  0  0  0  0  0  0  0
    8.0627    2.9901   25.7624 C   0  0  0  0  0  0  0  0  0  0  0  0
    7.7172    3.5584   26.9834 C   0  0  0  0  0  0  0  0  0  0  0  0
    8.3222    4.3211   27.4575 H   0  0  0  0  0  0  0  0  0  0  0  0
    8.9849    3.2935   25.2715 H   0  0  0  0  0  0  0  0  0  0  0  0
    5.4401    0.8136   25.4048 H   0  0  0  0  0  0  0  0  0  0  0  0
    4.8276    1.8803   27.5908 H   0  0  0  0  0  0  0  0  0  0  0  0
  1  2  1  0
  2  3  2  0
  3  4  1  0
  4  5  2  0
  5  6  1  0
  6  7  2  0
  7  8  1  0
  8  9  1  0
  9 10  1  0
 10 11  2  0
 11 12  1  0
 12 13  2  0
 13 14  1  0
 14 15  2  0
 15 16  1  0
 13 17  1  0
 12 18  1  0
 11 19  1  0
  9 20  1  0
  9 21  1  0
  8 22  1  0
 22 23  1  0
 23 24  1  0
 24 25  2  0
 25 26  1  0
 26 27  2  0
 27 28  1  0
 27 29  1  0
 26 30  1  0
 25 31  1  0
 23 32  1  0
 23 33  1  0
 22 34  2  0
  5 35  1  0
 35 36  2  0
 36 37  1  0
 35 38  1  0
  4 39  1  0
  3 40  1  0
 36  2  1  0
 34  6  1  0
 15 10  1  0
 28 24  1  0
M  END
>  <cnnaffinity>  (1) 
-5.99392

>  <filename>  (1) 
Fc1ccc(-c2nc(Cc3ccco3)n(Cc3cccnc3)n2)cc1

$$$$
