
     RDKit          3D

 41 44  0  0  0  0  0  0  0  0999 V2000
   13.4848   -2.2875   20.4547 F   0  0  0  0  0  0  0  0  0  0  0  0
   12.8877   -1.4803   21.3473 C   0  0  0  0  0  0  0  0  0  0  0  0
   13.6985   -0.7245   22.1883 C   0  0  0  0  0  0  0  0  0  0  0  0
   13.0676    0.1687   23.0482 C   0  0  0  0  0  0  0  0  0  0  0  0
   13.8132    0.9289   23.8636 F   0  0  0  0  0  0  0  0  0  0  0  0
   11.6881    0.3223   23.0868 C   0  0  0  0  0  0  0  0  0  0  0  0
   10.8857   -0.4535   22.2264 C   0  0  0  0  0  0  0  0  0  0  0  0
    9.4149   -0.2265   22.1726 C   0  0  0  0  0  0  0  0  0  0  0  0
    8.5453   -1.0741   21.6469 N   0  0  0  0  0  0  0  0  0  0  0  0
    7.3580   -0.4293   21.7743 N   0  0  0  0  0  0  0  0  0  0  0  0
    6.2072   -0.8912   21.0009 C   0  0  0  0  0  0  0  0  0  0  0  0
    5.9005   -0.0325   19.7916 C   0  0  0  0  0  0  0  0  0  0  0  0
    4.7131    0.7008   19.6786 C   0  0  0  0  0  0  0  0  0  0  0  0
    4.5317    1.5222   18.5627 C   0  0  0  0  0  0  0  0  0  0  0  0
    5.5320    1.5509   17.5860 C   0  0  0  0  0  0  0  0  0  0  0  0
    6.6708    0.8447   17.6682 N   0  0  0  0  0  0  0  0  0  0  0  0
    6.8433    0.0892   18.7596 C   0  0  0  0  0  0  0  0  0  0  0  0
    7.7811   -0.4635   18.8202 H   0  0  0  0  0  0  0  0  0  0  0  0
    5.4149    2.1643   16.6936 H   0  0  0  0  0  0  0  0  0  0  0  0
    3.6412    2.1333   18.4412 H   0  0  0  0  0  0  0  0  0  0  0  0
    3.9460    0.6361   20.4546 H   0  0  0  0  0  0  0  0  0  0  0  0
    6.4261   -1.9271   20.7210 H   0  0  0  0  0  0  0  0  0  0  0  0
    5.3377   -0.9030   21.6482 H   0  0  0  0  0  0  0  0  0  0  0  0
    7.5688    0.7657   22.3760 C   0  0  0  0  0  0  0  0  0  0  0  0
    6.5373    1.6400   23.0244 C   0  0  0  0  0  0  0  0  0  0  0  0
    6.3509    1.2123   24.4568 C   0  0  0  0  0  0  0  0  0  0  0  0
    5.3395    0.5317   25.0862 C   0  0  0  0  0  0  0  0  0  0  0  0
    5.8164    0.1692   26.3793 C   0  0  0  0  0  0  0  0  0  0  0  0
    7.0884    0.6599   26.5025 C   0  0  0  0  0  0  0  0  0  0  0  0
    7.3983    1.3120   25.3374 N   0  0  0  0  0  0  0  0  0  0  0  0
    8.3298    1.5451   25.0225 H   0  0  0  0  0  0  0  0  0  0  0  0
    7.7936    0.6035   27.3238 H   0  0  0  0  0  0  0  0  0  0  0  0
    5.2770   -0.3957   27.1264 H   0  0  0  0  0  0  0  0  0  0  0  0
    4.3660    0.3192   24.6687 H   0  0  0  0  0  0  0  0  0  0  0  0
    6.9253    2.6634   22.9830 H   0  0  0  0  0  0  0  0  0  0  0  0
    5.5927    1.6073   22.4768 H   0  0  0  0  0  0  0  0  0  0  0  0
    8.8563    0.9336   22.6092 N   0  0  0  0  0  0  0  0  0  0  0  0
   11.5011   -1.3898   21.3721 C   0  0  0  0  0  0  0  0  0  0  0  0
   10.9014   -2.0320   20.7399 H   0  0  0  0  0  0  0  0  0  0  0  0
   11.2676    1.0459   23.7789 H   0  0  0  0  0  0  0  0  0  0  0  0
   14.7739   -0.8241   22.1600 H   0  0  0  0  0  0  0  0  0  0  0  0
  1  2  1  0
  2  3  2  0
  3  4  1  0
  4  5  1  0
  4  6  2  0
  6  7  1  0
  7  8  1  0
  8  9  2  0
  9 10  1  0
 10 11  1  0
 11 12  1  0
 12 13  2  0
 13 14  1  0
 14 15  2  0
 15 16  1  0
 16 17  2  0
 17 18  1  0
 15 19  1  0
 14 20  1  0
 13 21  1  0
 11 22  1  0
 11 23  1  0
 10 24  1  0
 24 25  1  0
 25 26  1  0
 26 27  2  0
 27 28  1  0
 28 29  2  0
 29 30  1  0
 30 31  1  0
 29 32  1  0
 28 33  1  0
 27 34  1  0
 25 35  1  0
 25 36  1  0
 24 37  2  0
  7 38  2  0
 38 39  1  0
  6 40  1  0
  3 41  1  0
 38  2  1  0
 37  8  1  0
 17 12  1  0
 30 26  1  0
M  END
>  <cnnaffinity>  (1) 
-6.27508

>  <filename>  (1) 
Fc1cc(F)cc(-c2nc(Cc3ccc[nH]3)n(Cc3cccnc3)n2)c1

$$$$
