
     RDKit          3D

 45 48  0  0  0  0  0  0  0  0999 V2000
    7.3928    6.0429   26.2339 F   0  0  0  0  0  0  0  0  0  0  0  0
    7.7863    5.0579   25.4072 C   0  0  0  0  0  0  0  0  0  0  0  0
    7.7864    5.2768   24.0360 C   0  0  0  0  0  0  0  0  0  0  0  0
    8.1970    4.2475   23.1733 C   0  0  0  0  0  0  0  0  0  0  0  0
    8.6024    3.0078   23.6920 C   0  0  0  0  0  0  0  0  0  0  0  0
    9.0217    1.9436   22.9495 O   0  0  0  0  0  0  0  0  0  0  0  0
    9.0475    2.0130   21.5276 C   0  0  0  0  0  0  0  0  0  0  0  0
    9.5094    0.6515   21.0070 C   0  0  0  0  0  0  0  0  0  0  0  0
    8.6179   -0.4571   21.4287 C   0  0  0  0  0  0  0  0  0  0  0  0
    8.8540   -1.3077   22.3997 N   0  0  0  0  0  0  0  0  0  0  0  0
    7.6674   -1.9496   22.5498 C   0  0  0  0  0  0  0  0  0  0  0  0
    7.4593   -3.0343   23.5814 C   0  0  0  0  0  0  0  0  0  0  0  0
    8.2405   -4.3351   23.2463 C   0  0  0  0  0  0  0  0  0  0  0  0
    9.4613   -4.2638   24.1797 C   0  0  0  0  0  0  0  0  0  0  0  0
    8.9438   -3.4551   25.3726 C   0  0  0  0  0  0  0  0  0  0  0  0
    7.8980   -2.6356   24.8735 O   0  0  0  0  0  0  0  0  0  0  0  0
    8.5373   -4.0878   26.1761 H   0  0  0  0  0  0  0  0  0  0  0  0
    9.6981   -2.7946   25.8173 H   0  0  0  0  0  0  0  0  0  0  0  0
   10.2859   -3.7358   23.6878 H   0  0  0  0  0  0  0  0  0  0  0  0
    9.8246   -5.2478   24.4910 H   0  0  0  0  0  0  0  0  0  0  0  0
    7.6155   -5.2079   23.4594 H   0  0  0  0  0  0  0  0  0  0  0  0
    8.5087   -4.3897   22.1855 H   0  0  0  0  0  0  0  0  0  0  0  0
    6.3760   -3.1817   23.6194 H   0  0  0  0  0  0  0  0  0  0  0  0
    6.7404   -1.6045   21.6748 N   0  0  0  0  0  0  0  0  0  0  0  0
    7.3584   -0.6503   20.9318 N   0  0  0  0  0  0  0  0  0  0  0  0
    6.6573    0.0198   19.8938 C   0  0  0  0  0  0  0  0  0  0  0  0
    5.4368    0.6467   20.1633 C   0  0  0  0  0  0  0  0  0  0  0  0
    4.8113    1.3121   19.1055 C   0  0  0  0  0  0  0  0  0  0  0  0
    5.3997    1.2991   17.8328 C   0  0  0  0  0  0  0  0  0  0  0  0
    6.5559    0.6732   17.5667 N   0  0  0  0  0  0  0  0  0  0  0  0
    7.1656    0.0556   18.5840 C   0  0  0  0  0  0  0  0  0  0  0  0
    8.1083   -0.4354   18.3591 H   0  0  0  0  0  0  0  0  0  0  0  0
    4.9237    1.7910   16.9887 H   0  0  0  0  0  0  0  0  0  0  0  0
    3.8793    1.8398   19.2562 H   0  0  0  0  0  0  0  0  0  0  0  0
    5.0155    0.6051   21.1743 H   0  0  0  0  0  0  0  0  0  0  0  0
   10.5157    0.4258   21.3620 H   0  0  0  0  0  0  0  0  0  0  0  0
    9.5485    0.6836   19.9183 H   0  0  0  0  0  0  0  0  0  0  0  0
    9.7441    2.7926   21.1917 H   0  0  0  0  0  0  0  0  0  0  0  0
    8.0501    2.2517   21.1304 H   0  0  0  0  0  0  0  0  0  0  0  0
    8.5936    2.8145   25.0900 C   0  0  0  0  0  0  0  0  0  0  0  0
    8.1865    3.8376   25.9486 C   0  0  0  0  0  0  0  0  0  0  0  0
    8.1657    3.7151   27.0280 H   0  0  0  0  0  0  0  0  0  0  0  0
    8.9077    1.8562   25.4897 H   0  0  0  0  0  0  0  0  0  0  0  0
    8.2033    4.4172   22.1001 H   0  0  0  0  0  0  0  0  0  0  0  0
    7.4647    6.2429   23.6583 H   0  0  0  0  0  0  0  0  0  0  0  0
  1  2  1  0
  2  3  2  0
  3  4  1  0
  4  5  2  0
  5  6  1  0
  6  7  1  0
  7  8  1  0
  8  9  1  0
  9 10  2  0
 10 11  1  0
 11 12  1  0
 12 13  1  0
 13 14  1  0
 14 15  1  0
 15 16  1  0
 15 17  1  0
 15 18  1  0
 14 19  1  0
 14 20  1  0
 13 21  1  0
 13 22  1  0
 12 23  1  0
 11 24  2  0
 24 25  1  0
 25 26  1  0
 26 27  2  0
 27 28  1  0
 28 29  2  0
 29 30  1  0
 30 31  2  0
 31 32  1  0
 29 33  1  0
 28 34  1  0
 27 35  1  0
  8 36  1  0
  8 37  1  0
  7 38  1  0
  7 39  1  0
  5 40  1  0
 40 41  2  0
 41 42  1  0
 40 43  1  0
  4 44  1  0
  3 45  1  0
 41  2  1  0
 25  9  1  0
 31 26  1  0
 16 12  1  0
M  END
>  <cnnaffinity>  (1) 
-6.07342

>  <filename>  (1) 
Fc1ccc(OCCc2nc(C3CCCO3)nn2-c2cccnc2)cc1

$$$$
