
     RDKit          3D

 39 42  0  0  0  0  0  0  0  0999 V2000
   13.2917   -2.7328   19.8230 F   0  0  0  0  0  0  0  0  0  0  0  0
   12.9693   -1.8432   20.7631 C   0  0  0  0  0  0  0  0  0  0  0  0
   14.0083   -1.1486   21.3524 C   0  0  0  0  0  0  0  0  0  0  0  0
   13.6766   -0.1140   22.2217 C   0  0  0  0  0  0  0  0  0  0  0  0
   14.6600    0.6027   22.7764 F   0  0  0  0  0  0  0  0  0  0  0  0
   12.3548    0.2344   22.4914 C   0  0  0  0  0  0  0  0  0  0  0  0
   11.3246   -0.5036   21.8750 C   0  0  0  0  0  0  0  0  0  0  0  0
    9.8907   -0.1431   21.9717 C   0  0  0  0  0  0  0  0  0  0  0  0
    8.9446   -0.9688   21.5468 N   0  0  0  0  0  0  0  0  0  0  0  0
    7.8060   -0.2800   21.7591 N   0  0  0  0  0  0  0  0  0  0  0  0
    6.5597   -0.7660   21.1685 C   0  0  0  0  0  0  0  0  0  0  0  0
    6.1153    0.0285   19.9540 C   0  0  0  0  0  0  0  0  0  0  0  0
    4.9241    0.7620   19.9176 C   0  0  0  0  0  0  0  0  0  0  0  0
    4.6178    1.4929   18.7653 C   0  0  0  0  0  0  0  0  0  0  0  0
    5.5084    1.4531   17.6887 C   0  0  0  0  0  0  0  0  0  0  0  0
    6.6532    0.7537   17.7012 N   0  0  0  0  0  0  0  0  0  0  0  0
    6.9457    0.0779   18.8190 C   0  0  0  0  0  0  0  0  0  0  0  0
    7.9003   -0.4492   18.8176 H   0  0  0  0  0  0  0  0  0  0  0  0
    5.3046    2.0308   16.7880 H   0  0  0  0  0  0  0  0  0  0  0  0
    3.7193    2.0972   18.6957 H   0  0  0  0  0  0  0  0  0  0  0  0
    4.2409    0.7629   20.7720 H   0  0  0  0  0  0  0  0  0  0  0  0
    6.7609   -1.8097   20.9027 H   0  0  0  0  0  0  0  0  0  0  0  0
    5.7881   -0.7632   21.9405 H   0  0  0  0  0  0  0  0  0  0  0  0
    8.1094    0.9168   22.3075 C   0  0  0  0  0  0  0  0  0  0  0  0
    7.0805    1.7960   22.9709 C   0  0  0  0  0  0  0  0  0  0  0  0
    6.7848    1.2956   24.3892 C   0  0  0  0  0  0  0  0  0  0  0  0
    7.7588    1.2639   25.3473 C   0  0  0  0  0  0  0  0  0  0  0  0
    7.1701    0.5494   26.7720 S   0  0  0  0  0  0  0  0  0  0  0  0
    5.6511    0.2762   26.1665 N   0  0  0  0  0  0  0  0  0  0  0  0
    5.5909    0.7000   24.9293 C   0  0  0  0  0  0  0  0  0  0  0  0
    4.6396    0.5846   24.4057 H   0  0  0  0  0  0  0  0  0  0  0  0
    8.7843    1.6091   25.2233 H   0  0  0  0  0  0  0  0  0  0  0  0
    6.1722    1.8413   22.3547 H   0  0  0  0  0  0  0  0  0  0  0  0
    7.5059    2.8086   23.0016 H   0  0  0  0  0  0  0  0  0  0  0  0
    9.4207    1.0444   22.4266 N   0  0  0  0  0  0  0  0  0  0  0  0
   11.6435   -1.6054   21.0720 C   0  0  0  0  0  0  0  0  0  0  0  0
   10.8383   -2.2185   20.6787 H   0  0  0  0  0  0  0  0  0  0  0  0
   12.1685    1.0941   23.1247 H   0  0  0  0  0  0  0  0  0  0  0  0
   15.0016   -1.4329   21.0580 H   0  0  0  0  0  0  0  0  0  0  0  0
  1  2  1  0
  2  3  2  0
  3  4  1  0
  4  5  1  0
  4  6  2  0
  6  7  1  0
  7  8  1  0
  8  9  2  0
  9 10  1  0
 10 11  1  0
 11 12  1  0
 12 13  2  0
 13 14  1  0
 14 15  2  0
 15 16  1  0
 16 17  2  0
 17 18  1  0
 15 19  1  0
 14 20  1  0
 13 21  1  0
 11 22  1  0
 11 23  1  0
 10 24  1  0
 24 25  1  0
 25 26  1  0
 26 27  2  0
 27 28  1  0
 28 29  1  0
 29 30  2  0
 30 31  1  0
 27 32  1  0
 25 33  1  0
 25 34  1  0
 24 35  2  0
  7 36  2  0
 36 37  1  0
  6 38  1  0
  3 39  1  0
 36  2  1  0
 35  8  1  0
 17 12  1  0
 30 26  1  0
M  END
>  <cnnaffinity>  (1) 
-6.59412

>  <filename>  (1) 
Fc1cc(F)cc(-c2nc(Cc3cnsc3)n(Cc3cccnc3)n2)c1

$$$$
