
     RDKit          3D

 32 34  0  0  0  0  0  0  0  0999 V2000
    9.3181    0.8826   20.1631 H   0  0  0  0  0  0  0  0  0  0  0  0
    9.6225    0.0478   20.8004 C   0  0  0  0  0  0  0  0  0  0  0  0
    8.6996   -0.8218   21.2540 C   0  0  0  0  0  0  0  0  0  0  0  0
    7.2388   -0.8336   20.9899 C   0  0  0  0  0  0  0  0  0  0  0  0
    6.5860   -0.0485   19.9199 C   0  0  0  0  0  0  0  0  0  0  0  0
    7.1698   -0.0036   18.6501 C   0  0  0  0  0  0  0  0  0  0  0  0
    8.1212   -0.5054   18.4669 H   0  0  0  0  0  0  0  0  0  0  0  0
    6.6387    0.6433   17.6068 N   0  0  0  0  0  0  0  0  0  0  0  0
    5.4878    1.3012   17.8132 C   0  0  0  0  0  0  0  0  0  0  0  0
    5.0720    1.8205   16.9522 H   0  0  0  0  0  0  0  0  0  0  0  0
    4.8214    1.3215   19.0449 C   0  0  0  0  0  0  0  0  0  0  0  0
    3.8976    1.8821   19.1443 H   0  0  0  0  0  0  0  0  0  0  0  0
    5.3704    0.6223   20.1178 C   0  0  0  0  0  0  0  0  0  0  0  0
    4.8824    0.5943   21.0942 H   0  0  0  0  0  0  0  0  0  0  0  0
    6.5746   -1.5967   21.7745 N   0  0  0  0  0  0  0  0  0  0  0  0
    7.4760   -2.1957   22.7625 C   0  0  0  0  0  0  0  0  0  0  0  0
    7.2470   -1.7555   23.7389 H   0  0  0  0  0  0  0  0  0  0  0  0
    7.2800   -3.2691   22.8351 H   0  0  0  0  0  0  0  0  0  0  0  0
    8.9232   -1.8637   22.3336 C   0  0  0  0  0  0  0  0  0  0  0  0
    9.5431   -1.4826   23.1508 H   0  0  0  0  0  0  0  0  0  0  0  0
    9.4216   -2.7519   21.9340 H   0  0  0  0  0  0  0  0  0  0  0  0
   11.0289    0.1052   21.2702 C   0  0  0  0  0  0  0  0  0  0  0  0
   11.5493    1.3324   21.7239 C   0  0  0  0  0  0  0  0  0  0  0  0
   10.9435    2.2348   21.6823 H   0  0  0  0  0  0  0  0  0  0  0  0
   12.8057    1.4016   22.3270 C   0  0  0  0  0  0  0  0  0  0  0  0
   13.2107    2.3217   22.7354 H   0  0  0  0  0  0  0  0  0  0  0  0
   13.5632    0.2385   22.4330 C   0  0  0  0  0  0  0  0  0  0  0  0
   14.7478    0.3117   23.0475 F   0  0  0  0  0  0  0  0  0  0  0  0
   13.1244   -0.9823   21.9376 C   0  0  0  0  0  0  0  0  0  0  0  0
   13.7371   -1.8705   22.0601 H   0  0  0  0  0  0  0  0  0  0  0  0
   11.8521   -1.0346   21.3614 C   0  0  0  0  0  0  0  0  0  0  0  0
   11.4645   -1.9732   20.9876 H   0  0  0  0  0  0  0  0  0  0  0  0
  1  2  1  0
  2  3  2  3
  3  4  1  0
  4  5  1  0
  5  6  2  0
  6  7  1  0
  6  8  1  0
  8  9  2  0
  9 10  1  0
  9 11  1  0
 11 12  1  0
 11 13  2  0
 13 14  1  0
  4 15  2  0
 15 16  1  0
 16 17  1  0
 16 18  1  0
 16 19  1  0
 19 20  1  0
 19 21  1  0
  2 22  1  0
 22 23  2  0
 23 24  1  0
 23 25  1  0
 25 26  1  0
 25 27  2  0
 27 28  1  0
 27 29  1  0
 29 30  1  0
 29 31  2  0
 31 32  1  0
 19  3  1  0
 31 22  1  0
 13  5  1  0
M  END
>  <cnnaffinity>  (1) 
-5.79683

>  <filename>  (1) 
Fc1ccc(C=C2CCN=C2c2cccnc2)cc1

$$$$
