
     RDKit          3D

 42 45  0  0  0  0  0  0  0  0999 V2000
   14.6875   -1.4028   22.5598 F   0  0  0  0  0  0  0  0  0  0  0  0
   13.5151   -0.7879   22.3287 C   0  0  0  0  0  0  0  0  0  0  0  0
   12.6331   -1.3623   21.4192 C   0  0  0  0  0  0  0  0  0  0  0  0
   11.4123   -0.7158   21.1875 C   0  0  0  0  0  0  0  0  0  0  0  0
   11.1159    0.5081   21.7917 C   0  0  0  0  0  0  0  0  0  0  0  0
    9.8830    1.3166   21.4372 C   0  0  0  0  0  0  0  0  0  0  0  0
    8.7454    1.1679   22.3888 C   0  0  0  0  0  0  0  0  0  0  0  0
    8.6452    1.8369   23.5091 N   0  0  0  0  0  0  0  0  0  0  0  0
    7.4625    1.3977   24.0484 C   0  0  0  0  0  0  0  0  0  0  0  0
    6.9961    1.9344   25.3788 C   0  0  0  0  0  0  0  0  0  0  0  0
    7.7905    2.9273   25.9984 C   0  0  0  0  0  0  0  0  0  0  0  0
    7.4279    3.4169   27.2468 C   0  0  0  0  0  0  0  0  0  0  0  0
    6.2807    2.9006   27.8476 C   0  0  0  0  0  0  0  0  0  0  0  0
    5.5449    1.9255   27.1673 C   0  0  0  0  0  0  0  0  0  0  0  0
    5.8737    1.4545   25.9602 N   0  0  0  0  0  0  0  0  0  0  0  0
    4.6537    1.4950   27.6194 H   0  0  0  0  0  0  0  0  0  0  0  0
    5.9611    3.2323   28.8258 H   0  0  0  0  0  0  0  0  0  0  0  0
    8.0338    4.1778   27.7358 H   0  0  0  0  0  0  0  0  0  0  0  0
    8.6825    3.2779   25.4916 H   0  0  0  0  0  0  0  0  0  0  0  0
    6.8478    0.4959   23.2930 N   0  0  0  0  0  0  0  0  0  0  0  0
    7.6842    0.3457   22.2435 N   0  0  0  0  0  0  0  0  0  0  0  0
    7.3879   -0.5675   21.1424 C   0  0  0  0  0  0  0  0  0  0  0  0
    6.7065    0.0866   19.9483 C   0  0  0  0  0  0  0  0  0  0  0  0
    5.4941    0.7640   20.1325 C   0  0  0  0  0  0  0  0  0  0  0  0
    4.8851    1.3624   19.0279 C   0  0  0  0  0  0  0  0  0  0  0  0
    5.5014    1.2619   17.7777 C   0  0  0  0  0  0  0  0  0  0  0  0
    6.6533    0.6071   17.5745 N   0  0  0  0  0  0  0  0  0  0  0  0
    7.2323    0.0445   18.6450 C   0  0  0  0  0  0  0  0  0  0  0  0
    8.1778   -0.4587   18.4377 H   0  0  0  0  0  0  0  0  0  0  0  0
    5.0476    1.7248   16.9025 H   0  0  0  0  0  0  0  0  0  0  0  0
    3.9597    1.9193   19.1211 H   0  0  0  0  0  0  0  0  0  0  0  0
    5.0584    0.8382   21.1322 H   0  0  0  0  0  0  0  0  0  0  0  0
    8.3285   -1.0393   20.8389 H   0  0  0  0  0  0  0  0  0  0  0  0
    6.7560   -1.3524   21.5682 H   0  0  0  0  0  0  0  0  0  0  0  0
    9.5360    1.1002   20.4261 H   0  0  0  0  0  0  0  0  0  0  0  0
   10.1509    2.3787   21.4599 H   0  0  0  0  0  0  0  0  0  0  0  0
   12.0002    1.0254   22.7472 C   0  0  0  0  0  0  0  0  0  0  0  0
   13.2097    0.3825   23.0219 C   0  0  0  0  0  0  0  0  0  0  0  0
   13.9178    0.7897   23.7343 H   0  0  0  0  0  0  0  0  0  0  0  0
   11.7136    1.9205   23.2973 H   0  0  0  0  0  0  0  0  0  0  0  0
   10.6750   -1.1488   20.5221 H   0  0  0  0  0  0  0  0  0  0  0  0
   12.9331   -2.2752   20.9101 H   0  0  0  0  0  0  0  0  0  0  0  0
  1  2  1  0
  2  3  2  0
  3  4  1  0
  4  5  2  0
  5  6  1  0
  6  7  1  0
  7  8  2  0
  8  9  1  0
  9 10  1  0
 10 11  2  0
 11 12  1  0
 12 13  2  0
 13 14  1  0
 14 15  2  0
 14 16  1  0
 13 17  1  0
 12 18  1  0
 11 19  1  0
  9 20  2  0
 20 21  1  0
 21 22  1  0
 22 23  1  0
 23 24  2  0
 24 25  1  0
 25 26  2  0
 26 27  1  0
 27 28  2  0
 28 29  1  0
 26 30  1  0
 25 31  1  0
 24 32  1  0
 22 33  1  0
 22 34  1  0
  6 35  1  0
  6 36  1  0
  5 37  1  0
 37 38  2  0
 38 39  1  0
 37 40  1  0
  4 41  1  0
  3 42  1  0
 38  2  1  0
 21  7  1  0
 28 23  1  0
 15 10  1  0
M  END
>  <cnnaffinity>  (1) 
-6.12164

>  <filename>  (1) 
Fc1ccc(Cc2nc(-c3ccccn3)nn2Cc2cccnc2)cc1

$$$$
