
     RDKit          3D

 44 47  0  0  0  0  0  0  0  0999 V2000
   14.2090    5.2990   21.3020 F   0  0  0  0  0  0  0  0  0  0  0  0
   13.5009    4.2783   21.8092 C   0  0  0  0  0  0  0  0  0  0  0  0
   13.9016    3.7263   23.0246 C   0  0  0  0  0  0  0  0  0  0  0  0
   13.1923    2.6358   23.5270 C   0  0  0  0  0  0  0  0  0  0  0  0
   12.0169    2.2060   22.8990 C   0  0  0  0  0  0  0  0  0  0  0  0
   11.6083    2.8369   21.7149 C   0  0  0  0  0  0  0  0  0  0  0  0
   10.4569    2.5879   21.0424 O   0  0  0  0  0  0  0  0  0  0  0  0
    9.3934    1.8441   21.5968 C   0  0  0  0  0  0  0  0  0  0  0  0
    9.5533    0.4473   21.0058 C   0  0  0  0  0  0  0  0  0  0  0  0
    8.5685   -0.5635   21.4470 C   0  0  0  0  0  0  0  0  0  0  0  0
    8.7727   -1.3816   22.4516 N   0  0  0  0  0  0  0  0  0  0  0  0
    7.5973   -2.0609   22.5480 C   0  0  0  0  0  0  0  0  0  0  0  0
    7.4008   -3.0833   23.6166 C   0  0  0  0  0  0  0  0  0  0  0  0
    8.5616   -4.1181   23.7967 C   0  0  0  0  0  0  0  0  0  0  0  0
    8.8290   -3.5798   25.2225 C   0  0  0  0  0  0  0  0  0  0  0  0
    7.6610   -2.5767   25.0761 C   0  0  0  0  0  0  0  0  0  0  0  0
    6.8209   -2.7308   25.7587 H   0  0  0  0  0  0  0  0  0  0  0  0
    7.9535   -1.5224   25.1374 H   0  0  0  0  0  0  0  0  0  0  0  0
    9.8122   -3.1104   25.3434 H   0  0  0  0  0  0  0  0  0  0  0  0
    8.7133   -4.3103   26.0292 H   0  0  0  0  0  0  0  0  0  0  0  0
    8.2442   -5.1632   23.7425 H   0  0  0  0  0  0  0  0  0  0  0  0
    9.3958   -3.9843   23.0996 H   0  0  0  0  0  0  0  0  0  0  0  0
    6.4140   -3.5313   23.4674 H   0  0  0  0  0  0  0  0  0  0  0  0
    6.6845   -1.7122   21.6656 N   0  0  0  0  0  0  0  0  0  0  0  0
    7.3174   -0.7523   20.9305 N   0  0  0  0  0  0  0  0  0  0  0  0
    6.6363   -0.0684   19.8753 C   0  0  0  0  0  0  0  0  0  0  0  0
    5.4324    0.5983   20.1311 C   0  0  0  0  0  0  0  0  0  0  0  0
    4.8322    1.3061   19.0832 C   0  0  0  0  0  0  0  0  0  0  0  0
    5.4452    1.3003   17.8256 C   0  0  0  0  0  0  0  0  0  0  0  0
    6.5777    0.6298   17.5609 N   0  0  0  0  0  0  0  0  0  0  0  0
    7.1518   -0.0424   18.5672 C   0  0  0  0  0  0  0  0  0  0  0  0
    8.0610   -0.5941   18.3216 H   0  0  0  0  0  0  0  0  0  0  0  0
    5.0069    1.8471   16.9948 H   0  0  0  0  0  0  0  0  0  0  0  0
    3.9097    1.8555   19.2362 H   0  0  0  0  0  0  0  0  0  0  0  0
    4.9903    0.5495   21.1256 H   0  0  0  0  0  0  0  0  0  0  0  0
    9.5375    0.5535   19.9200 H   0  0  0  0  0  0  0  0  0  0  0  0
   10.5515    0.0911   21.2821 H   0  0  0  0  0  0  0  0  0  0  0  0
    9.4161    1.8646   22.6938 H   0  0  0  0  0  0  0  0  0  0  0  0
    8.4639    2.3348   21.2759 H   0  0  0  0  0  0  0  0  0  0  0  0
   12.4020    3.8201   21.1144 C   0  0  0  0  0  0  0  0  0  0  0  0
   12.1325    4.2153   20.1421 H   0  0  0  0  0  0  0  0  0  0  0  0
   11.4290    1.4037   23.3267 H   0  0  0  0  0  0  0  0  0  0  0  0
   13.5403    2.0906   24.4014 H   0  0  0  0  0  0  0  0  0  0  0  0
   14.7429    4.1865   23.5251 H   0  0  0  0  0  0  0  0  0  0  0  0
  1  2  1  0
  2  3  2  0
  3  4  1  0
  4  5  2  0
  5  6  1  0
  6  7  1  0
  7  8  1  0
  8  9  1  0
  9 10  1  0
 10 11  2  0
 11 12  1  0
 12 13  1  0
 13 14  1  0
 14 15  1  0
 15 16  1  0
 16 17  1  0
 16 18  1  0
 15 19  1  0
 15 20  1  0
 14 21  1  0
 14 22  1  0
 13 23  1  0
 12 24  2  0
 24 25  1  0
 25 26  1  0
 26 27  2  0
 27 28  1  0
 28 29  2  0
 29 30  1  0
 30 31  2  0
 31 32  1  0
 29 33  1  0
 28 34  1  0
 27 35  1  0
  9 36  1  0
  9 37  1  0
  8 38  1  0
  8 39  1  0
  6 40  2  0
 40 41  1  0
  5 42  1  0
  4 43  1  0
  3 44  1  0
 40  2  1  0
 25 10  1  0
 31 26  1  0
 16 13  1  0
M  END
>  <cnnaffinity>  (1) 
-6.36703

>  <filename>  (1) 
Fc1cccc(OCCc2nc(C3CCC3)nn2-c2cccnc2)c1

$$$$
