
     RDKit          3D

 38 42  0  0  0  0  0  0  0  0999 V2000
    7.3892    4.6329   22.0665 F   0  0  0  0  0  0  0  0  0  0  0  0
    7.1683    3.4970   22.7454 C   0  0  0  0  0  0  0  0  0  0  0  0
    6.6717    3.5837   24.0420 C   0  0  0  0  0  0  0  0  0  0  0  0
    6.4695    2.3926   24.7329 C   0  0  0  0  0  0  0  0  0  0  0  0
    5.9985    2.4426   25.9869 F   0  0  0  0  0  0  0  0  0  0  0  0
    6.7409    1.1540   24.1741 C   0  0  0  0  0  0  0  0  0  0  0  0
    7.2029    1.0941   22.8473 C   0  0  0  0  0  0  0  0  0  0  0  0
    7.4669   -0.2424   22.2723 C   0  0  0  0  0  0  0  0  0  0  0  0
    8.0182   -1.2390   22.9450 N   0  0  0  0  0  0  0  0  0  0  0  0
    8.1454   -2.2038   22.0132 C   0  0  0  0  0  0  0  0  0  0  0  0
    8.8824   -3.4836   22.2008 C   0  0  0  0  0  0  0  0  0  0  0  0
    8.1876   -4.7709   21.8587 C   0  0  0  0  0  0  0  0  0  0  0  0
    8.7922   -4.6137   23.2609 C   0  0  0  0  0  0  0  0  0  0  0  0
    8.8303   -5.7758   24.2728 C   0  0  0  0  0  0  0  0  0  0  0  0
    9.7481   -4.6064   24.4399 C   0  0  0  0  0  0  0  0  0  0  0  0
    9.4996   -3.8744   25.2109 H   0  0  0  0  0  0  0  0  0  0  0  0
   10.8174   -4.7325   24.2503 H   0  0  0  0  0  0  0  0  0  0  0  0
    9.2715   -6.7074   23.9115 H   0  0  0  0  0  0  0  0  0  0  0  0
    7.9920   -5.9071   24.9550 H   0  0  0  0  0  0  0  0  0  0  0  0
    8.5809   -5.5226   21.1727 H   0  0  0  0  0  0  0  0  0  0  0  0
    7.0940   -4.7507   21.8541 H   0  0  0  0  0  0  0  0  0  0  0  0
    9.9257   -3.2818   21.9362 H   0  0  0  0  0  0  0  0  0  0  0  0
    7.7221   -1.8805   20.8032 N   0  0  0  0  0  0  0  0  0  0  0  0
    7.2544   -0.6189   20.9719 N   0  0  0  0  0  0  0  0  0  0  0  0
    6.5820    0.0293   19.9053 C   0  0  0  0  0  0  0  0  0  0  0  0
    5.3711    0.6970   20.1214 C   0  0  0  0  0  0  0  0  0  0  0  0
    4.7882    1.3424   19.0328 C   0  0  0  0  0  0  0  0  0  0  0  0
    5.4273    1.3036   17.7901 C   0  0  0  0  0  0  0  0  0  0  0  0
    6.5802    0.6431   17.5748 N   0  0  0  0  0  0  0  0  0  0  0  0
    7.1326    0.0047   18.6089 C   0  0  0  0  0  0  0  0  0  0  0  0
    8.0609   -0.5316   18.4176 H   0  0  0  0  0  0  0  0  0  0  0  0
    4.9930    1.8096   16.9326 H   0  0  0  0  0  0  0  0  0  0  0  0
    3.8566    1.8847   19.1436 H   0  0  0  0  0  0  0  0  0  0  0  0
    4.9309    0.7411   21.1198 H   0  0  0  0  0  0  0  0  0  0  0  0
    7.4381    2.2859   22.1271 C   0  0  0  0  0  0  0  0  0  0  0  0
    7.8071    2.2931   21.1059 H   0  0  0  0  0  0  0  0  0  0  0  0
    6.6005    0.2504   24.7633 H   0  0  0  0  0  0  0  0  0  0  0  0
    6.4602    4.5381   24.4998 H   0  0  0  0  0  0  0  0  0  0  0  0
  1  2  1  0
  2  3  2  0
  3  4  1  0
  4  5  1  0
  4  6  2  0
  6  7  1  0
  7  8  1  0
  8  9  2  0
  9 10  1  0
 10 11  1  0
 11 12  1  0
 12 13  1  0
 13 14  1  0
 14 15  1  0
 15 16  1  0
 15 17  1  0
 14 18  1  0
 14 19  1  0
 12 20  1  0
 12 21  1  0
 11 22  1  0
 10 23  2  0
 23 24  1  0
 24 25  1  0
 25 26  2  0
 26 27  1  0
 27 28  2  0
 28 29  1  0
 29 30  2  0
 30 31  1  0
 28 32  1  0
 27 33  1  0
 26 34  1  0
  7 35  2  0
 35 36  1  0
  6 37  1  0
  3 38  1  0
 35  2  1  0
 24  8  1  0
 30 25  1  0
 13 11  1  0
 15 13  1  0
M  END
>  <cnnaffinity>  (1) 
-6.22348

>  <filename>  (1) 
Fc1cc(F)cc(-c2nc(C3CC34CC4)nn2-c2cccnc2)c1

$$$$
