
     RDKit          3D

 43 46  0  0  0  0  0  0  0  0999 V2000
   12.0720   -1.1895   21.3161 F   0  0  0  0  0  0  0  0  0  0  0  0
   11.8493   -0.0391   21.9736 C   0  0  0  0  0  0  0  0  0  0  0  0
   12.7521    0.3819   22.9389 C   0  0  0  0  0  0  0  0  0  0  0  0
   12.4506    1.5805   23.5949 C   0  0  0  0  0  0  0  0  0  0  0  0
   11.2857    2.2756   23.2538 C   0  0  0  0  0  0  0  0  0  0  0  0
   10.4164    1.8503   22.3202 N   0  0  0  0  0  0  0  0  0  0  0  0
   10.6901    0.7086   21.6832 C   0  0  0  0  0  0  0  0  0  0  0  0
    9.6672    0.2328   20.6883 C   0  0  0  0  0  0  0  0  0  0  0  0
    8.6367   -0.6089   21.3410 C   0  0  0  0  0  0  0  0  0  0  0  0
    8.8625   -1.4625   22.3108 N   0  0  0  0  0  0  0  0  0  0  0  0
    7.6341   -1.9945   22.5456 C   0  0  0  0  0  0  0  0  0  0  0  0
    7.4090   -3.0003   23.6333 C   0  0  0  0  0  0  0  0  0  0  0  0
    8.1157   -4.3453   23.3206 C   0  0  0  0  0  0  0  0  0  0  0  0
    8.0953   -5.2989   24.4905 C   0  0  0  0  0  0  0  0  0  0  0  0
    7.8547   -4.9147   25.7471 C   0  0  0  0  0  0  0  0  0  0  0  0
    7.5093   -3.4914   26.1207 C   0  0  0  0  0  0  0  0  0  0  0  0
    7.8586   -2.4780   25.0170 C   0  0  0  0  0  0  0  0  0  0  0  0
    7.3890   -1.5122   25.2370 H   0  0  0  0  0  0  0  0  0  0  0  0
    8.9417   -2.2997   24.9904 H   0  0  0  0  0  0  0  0  0  0  0  0
    8.0017   -3.2128   27.0601 H   0  0  0  0  0  0  0  0  0  0  0  0
    6.4319   -3.4442   26.3352 H   0  0  0  0  0  0  0  0  0  0  0  0
    7.8965   -5.6467   26.5545 H   0  0  0  0  0  0  0  0  0  0  0  0
    8.3054   -6.3457   24.2777 H   0  0  0  0  0  0  0  0  0  0  0  0
    9.1617   -4.1460   23.0480 H   0  0  0  0  0  0  0  0  0  0  0  0
    7.6626   -4.8181   22.4408 H   0  0  0  0  0  0  0  0  0  0  0  0
    6.3281   -3.1672   23.6594 H   0  0  0  0  0  0  0  0  0  0  0  0
    6.6826   -1.5559   21.7505 N   0  0  0  0  0  0  0  0  0  0  0  0
    7.3346   -0.6850   20.9353 N   0  0  0  0  0  0  0  0  0  0  0  0
    6.6505    0.0030   19.9001 C   0  0  0  0  0  0  0  0  0  0  0  0
    5.4359    0.6458   20.1656 C   0  0  0  0  0  0  0  0  0  0  0  0
    4.8113    1.3116   19.1091 C   0  0  0  0  0  0  0  0  0  0  0  0
    5.4010    1.2950   17.8380 C   0  0  0  0  0  0  0  0  0  0  0  0
    6.5604    0.6724   17.5779 N   0  0  0  0  0  0  0  0  0  0  0  0
    7.1669    0.0516   18.5936 C   0  0  0  0  0  0  0  0  0  0  0  0
    8.1150   -0.4293   18.3678 H   0  0  0  0  0  0  0  0  0  0  0  0
    4.9193    1.7834   16.9940 H   0  0  0  0  0  0  0  0  0  0  0  0
    3.8794    1.8409   19.2611 H   0  0  0  0  0  0  0  0  0  0  0  0
    5.0159    0.6106   21.1736 H   0  0  0  0  0  0  0  0  0  0  0  0
    9.2055    1.1020   20.2192 H   0  0  0  0  0  0  0  0  0  0  0  0
   10.1040   -0.4105   19.9222 H   0  0  0  0  0  0  0  0  0  0  0  0
   11.0372    3.2058   23.7567 H   0  0  0  0  0  0  0  0  0  0  0  0
   13.1142    1.9620   24.3580 H   0  0  0  0  0  0  0  0  0  0  0  0
   13.6350   -0.2181   23.1541 H   0  0  0  0  0  0  0  0  0  0  0  0
  1  2  1  0
  2  3  2  0
  3  4  1  0
  4  5  2  0
  5  6  1  0
  6  7  2  0
  7  8  1  0
  8  9  1  0
  9 10  2  0
 10 11  1  0
 11 12  1  0
 12 13  1  0
 13 14  1  0
 14 15  2  0
 15 16  1  0
 16 17  1  0
 17 18  1  0
 17 19  1  0
 16 20  1  0
 16 21  1  0
 15 22  1  0
 14 23  1  0
 13 24  1  0
 13 25  1  0
 12 26  1  0
 11 27  2  0
 27 28  1  0
 28 29  1  0
 29 30  2  0
 30 31  1  0
 31 32  2  0
 32 33  1  0
 33 34  2  0
 34 35  1  0
 32 36  1  0
 31 37  1  0
 30 38  1  0
  8 39  1  0
  8 40  1  0
  5 41  1  0
  4 42  1  0
  3 43  1  0
  7  2  1  0
 28  9  1  0
 34 29  1  0
 17 12  1  0
M  END
>  <cnnaffinity>  (1) 
-6.93157

>  <filename>  (1) 
Fc1cccnc1Cc1nc(C2CC=CCC2)nn1-c1cccnc1

$$$$
