
     RDKit          3D

 30 32  0  0  0  0  0  0  0  0999 V2000
    5.0397    1.8448   16.8119 H   0  0  0  0  0  0  0  0  0  0  0  0
    5.4022    1.3357   17.7023 C   0  0  0  0  0  0  0  0  0  0  0  0
    6.5499    0.6549   17.5650 N   0  0  0  0  0  0  0  0  0  0  0  0
    7.0346    0.0568   18.6561 C   0  0  0  0  0  0  0  0  0  0  0  0
    7.9652   -0.4926   18.5437 H   0  0  0  0  0  0  0  0  0  0  0  0
    6.4127    0.0956   19.9213 C   0  0  0  0  0  0  0  0  0  0  0  0
    7.0973   -0.5673   21.0322 C   0  0  0  0  0  0  0  0  0  0  0  0
    8.3104   -1.2090   20.7736 N   0  0  0  0  0  0  0  0  0  0  0  0
    8.7161   -1.6177   21.9242 C   0  0  0  0  0  0  0  0  0  0  0  0
    9.9994   -2.3066   22.2142 C   0  0  0  0  0  0  0  0  0  0  0  0
   10.2605   -2.7832   21.2711 H   0  0  0  0  0  0  0  0  0  0  0  0
    9.8287   -3.0670   22.9847 H   0  0  0  0  0  0  0  0  0  0  0  0
   11.1233   -1.3552   22.6080 C   0  0  0  0  0  0  0  0  0  0  0  0
   12.3035   -1.3309   21.8523 C   0  0  0  0  0  0  0  0  0  0  0  0
   12.3575   -1.9186   20.9363 H   0  0  0  0  0  0  0  0  0  0  0  0
   13.3838   -0.5242   22.2403 C   0  0  0  0  0  0  0  0  0  0  0  0
   14.2953   -0.5333   21.6455 H   0  0  0  0  0  0  0  0  0  0  0  0
   13.2858    0.2982   23.3723 C   0  0  0  0  0  0  0  0  0  0  0  0
   14.1186    0.8990   23.7341 H   0  0  0  0  0  0  0  0  0  0  0  0
   12.0699    0.3219   24.0578 C   0  0  0  0  0  0  0  0  0  0  0  0
   11.9322    1.1616   25.0981 F   0  0  0  0  0  0  0  0  0  0  0  0
   10.9866   -0.4821   23.6971 C   0  0  0  0  0  0  0  0  0  0  0  0
   10.0519   -0.3939   24.2442 H   0  0  0  0  0  0  0  0  0  0  0  0
    7.8802   -1.3349   22.9409 O   0  0  0  0  0  0  0  0  0  0  0  0
    6.8378   -0.6626   22.3596 C   0  0  0  0  0  0  0  0  0  0  0  0
    6.0514   -0.3308   23.0160 H   0  0  0  0  0  0  0  0  0  0  0  0
    5.1981    0.7897   20.0408 C   0  0  0  0  0  0  0  0  0  0  0  0
    4.6591    0.8403   20.9885 H   0  0  0  0  0  0  0  0  0  0  0  0
    4.6910    1.4202   18.9046 C   0  0  0  0  0  0  0  0  0  0  0  0
    3.7733    1.9957   18.9378 H   0  0  0  0  0  0  0  0  0  0  0  0
  1  2  1  0
  2  3  2  0
  3  4  1  0
  4  5  1  0
  4  6  2  0
  6  7  1  0
  7  8  1  0
  8  9  2  0
  9 10  1  0
 10 11  1  0
 10 12  1  0
 10 13  1  0
 13 14  2  0
 14 15  1  0
 14 16  1  0
 16 17  1  0
 16 18  2  0
 18 19  1  0
 18 20  1  0
 20 21  1  0
 20 22  2  0
 22 23  1  0
  9 24  1  0
 24 25  1  0
 25 26  1  0
  6 27  1  0
 27 28  1  0
 27 29  2  0
 29 30  1  0
 29  2  1  0
 25  7  2  0
 22 13  1  0
M  END
>  <cnnaffinity>  (1) 
-5.44445

>  <filename>  (1) 
Fc1cccc(Cc2nc(-c3cccnc3)co2)c1

$$$$
