
     RDKit          3D

 44 48  0  0  0  0  0  0  0  0999 V2000
    9.1324    4.0045   22.4879 F   0  0  0  0  0  0  0  0  0  0  0  0
    8.4229    4.1558   23.6255 C   0  0  0  0  0  0  0  0  0  0  0  0
    8.0855    5.4418   24.0344 C   0  0  0  0  0  0  0  0  0  0  0  0
    7.3311    5.5975   25.2023 C   0  0  0  0  0  0  0  0  0  0  0  0
    6.9412    4.4764   25.9426 C   0  0  0  0  0  0  0  0  0  0  0  0
    7.3080    3.1954   25.5123 C   0  0  0  0  0  0  0  0  0  0  0  0
    8.0508    3.0068   24.3352 C   0  0  0  0  0  0  0  0  0  0  0  0
    8.3678    1.6415   23.7795 C   0  0  0  0  0  0  0  0  0  0  0  0
    7.3077    1.1874   22.7585 C   0  0  0  0  0  0  0  0  0  0  0  0
    7.5588   -0.1798   22.2225 C   0  0  0  0  0  0  0  0  0  0  0  0
    8.1738   -1.1352   22.8911 N   0  0  0  0  0  0  0  0  0  0  0  0
    8.1704   -2.1689   22.0239 C   0  0  0  0  0  0  0  0  0  0  0  0
    8.9374   -3.4229   22.2438 C   0  0  0  0  0  0  0  0  0  0  0  0
    8.2731   -4.7496   21.9990 C   0  0  0  0  0  0  0  0  0  0  0  0
    8.9705   -4.5101   23.3439 C   0  0  0  0  0  0  0  0  0  0  0  0
    9.9803   -4.4290   24.4687 C   0  0  0  0  0  0  0  0  0  0  0  0
    8.9582   -5.5370   24.4734 C   0  0  0  0  0  0  0  0  0  0  0  0
    9.3366   -6.5247   24.1962 H   0  0  0  0  0  0  0  0  0  0  0  0
    8.1218   -5.5638   25.1654 H   0  0  0  0  0  0  0  0  0  0  0  0
   11.0217   -4.6888   24.2625 H   0  0  0  0  0  0  0  0  0  0  0  0
    9.8479   -3.5667   25.1284 H   0  0  0  0  0  0  0  0  0  0  0  0
    7.1863   -4.7355   22.1054 H   0  0  0  0  0  0  0  0  0  0  0  0
    8.6290   -5.5163   21.3064 H   0  0  0  0  0  0  0  0  0  0  0  0
    9.9633   -3.2191   21.9289 H   0  0  0  0  0  0  0  0  0  0  0  0
    7.6231   -1.9154   20.8451 N   0  0  0  0  0  0  0  0  0  0  0  0
    7.1756   -0.6417   20.9952 N   0  0  0  0  0  0  0  0  0  0  0  0
    6.5361    0.0342   19.9200 C   0  0  0  0  0  0  0  0  0  0  0  0
    5.3377    0.7318   20.0982 C   0  0  0  0  0  0  0  0  0  0  0  0
    4.7725    1.3707   18.9918 C   0  0  0  0  0  0  0  0  0  0  0  0
    5.4289    1.3015   17.7587 C   0  0  0  0  0  0  0  0  0  0  0  0
    6.5687    0.6071   17.5785 N   0  0  0  0  0  0  0  0  0  0  0  0
    7.0965   -0.0213   18.6327 C   0  0  0  0  0  0  0  0  0  0  0  0
    8.0052   -0.5961   18.4655 H   0  0  0  0  0  0  0  0  0  0  0  0
    5.0258    1.8165   16.8878 H   0  0  0  0  0  0  0  0  0  0  0  0
    3.8486    1.9296   19.0843 H   0  0  0  0  0  0  0  0  0  0  0  0
    4.8596    0.7478   21.0767 H   0  0  0  0  0  0  0  0  0  0  0  0
    7.2542    1.9164   21.9424 H   0  0  0  0  0  0  0  0  0  0  0  0
    6.3192    1.1717   23.2348 H   0  0  0  0  0  0  0  0  0  0  0  0
    8.4455    0.9095   24.5902 H   0  0  0  0  0  0  0  0  0  0  0  0
    9.3512    1.6572   23.2948 H   0  0  0  0  0  0  0  0  0  0  0  0
    7.0081    2.3252   26.0954 H   0  0  0  0  0  0  0  0  0  0  0  0
    6.3506    4.5942   26.8464 H   0  0  0  0  0  0  0  0  0  0  0  0
    7.0529    6.5957   25.5306 H   0  0  0  0  0  0  0  0  0  0  0  0
    8.4090    6.2839   23.4311 H   0  0  0  0  0  0  0  0  0  0  0  0
  1  2  1  0
  2  3  2  0
  3  4  1  0
  4  5  2  0
  5  6  1  0
  6  7  2  0
  7  8  1  0
  8  9  1  0
  9 10  1  0
 10 11  2  0
 11 12  1  0
 12 13  1  0
 13 14  1  0
 14 15  1  0
 15 16  1  0
 16 17  1  0
 17 18  1  0
 17 19  1  0
 16 20  1  0
 16 21  1  0
 14 22  1  0
 14 23  1  0
 13 24  1  0
 12 25  2  0
 25 26  1  0
 26 27  1  0
 27 28  2  0
 28 29  1  0
 29 30  2  0
 30 31  1  0
 31 32  2  0
 32 33  1  0
 30 34  1  0
 29 35  1  0
 28 36  1  0
  9 37  1  0
  9 38  1  0
  8 39  1  0
  8 40  1  0
  6 41  1  0
  5 42  1  0
  4 43  1  0
  3 44  1  0
  7  2  1  0
 26 10  1  0
 32 27  1  0
 15 13  1  0
 17 15  1  0
M  END
>  <cnnaffinity>  (1) 
-6.26864

>  <filename>  (1) 
Fc1ccccc1CCc1nc(C2CC23CC3)nn1-c1cccnc1

$$$$
