
     RDKit          3D

 42 45  0  0  0  0  0  0  0  0999 V2000
    8.6611    1.0455   27.1549 F   0  0  0  0  0  0  0  0  0  0  0  0
    8.7369    1.3561   25.8517 C   0  0  0  0  0  0  0  0  0  0  0  0
    9.9449    1.7809   25.3012 C   0  0  0  0  0  0  0  0  0  0  0  0
    9.9774    2.0867   23.9356 C   0  0  0  0  0  0  0  0  0  0  0  0
    8.8198    1.9831   23.1511 C   0  0  0  0  0  0  0  0  0  0  0  0
    8.9108    2.2421   21.3842 S   0  0  0  0  0  0  0  0  0  0  0  0
    9.5335    0.5790   20.9194 C   0  0  0  0  0  0  0  0  0  0  0  0
    8.6486   -0.5208   21.3826 C   0  0  0  0  0  0  0  0  0  0  0  0
    8.8880   -1.3355   22.3915 N   0  0  0  0  0  0  0  0  0  0  0  0
    7.6778   -1.9205   22.5922 C   0  0  0  0  0  0  0  0  0  0  0  0
    7.4158   -2.8573   23.7280 C   0  0  0  0  0  0  0  0  0  0  0  0
    6.0648   -2.6349   24.4490 C   0  0  0  0  0  0  0  0  0  0  0  0
    6.3326   -3.1386   25.8738 C   0  0  0  0  0  0  0  0  0  0  0  0
    7.7426   -3.2203   26.0244 O   0  0  0  0  0  0  0  0  0  0  0  0
    8.4268   -2.7455   24.8796 C   0  0  0  0  0  0  0  0  0  0  0  0
    8.7643   -1.7054   25.0214 H   0  0  0  0  0  0  0  0  0  0  0  0
    9.3204   -3.3661   24.7477 H   0  0  0  0  0  0  0  0  0  0  0  0
    5.9129   -2.4663   26.6375 H   0  0  0  0  0  0  0  0  0  0  0  0
    5.9112   -4.1376   26.0488 H   0  0  0  0  0  0  0  0  0  0  0  0
    5.2364   -3.1567   23.9648 H   0  0  0  0  0  0  0  0  0  0  0  0
    5.8217   -1.5643   24.4608 H   0  0  0  0  0  0  0  0  0  0  0  0
    7.4617   -3.8707   23.3199 H   0  0  0  0  0  0  0  0  0  0  0  0
    6.7378   -1.5650   21.7346 N   0  0  0  0  0  0  0  0  0  0  0  0
    7.3722   -0.6715   20.9328 N   0  0  0  0  0  0  0  0  0  0  0  0
    6.6635    0.0069   19.9015 C   0  0  0  0  0  0  0  0  0  0  0  0
    5.4424    0.6393   20.1638 C   0  0  0  0  0  0  0  0  0  0  0  0
    4.8115    1.3073   19.1091 C   0  0  0  0  0  0  0  0  0  0  0  0
    5.3978    1.2944   17.8376 C   0  0  0  0  0  0  0  0  0  0  0  0
    6.5541    0.6676   17.5747 N   0  0  0  0  0  0  0  0  0  0  0  0
    7.1670    0.0488   18.5897 C   0  0  0  0  0  0  0  0  0  0  0  0
    8.1119   -0.4388   18.3621 H   0  0  0  0  0  0  0  0  0  0  0  0
    4.9223    1.7873   16.9925 H   0  0  0  0  0  0  0  0  0  0  0  0
    3.8814    1.8380   19.2619 H   0  0  0  0  0  0  0  0  0  0  0  0
    5.0178    0.6069   21.1716 H   0  0  0  0  0  0  0  0  0  0  0  0
    9.6202    0.5802   19.8347 H   0  0  0  0  0  0  0  0  0  0  0  0
   10.5170    0.4353   21.3679 H   0  0  0  0  0  0  0  0  0  0  0  0
    7.6191    1.5538   23.7423 C   0  0  0  0  0  0  0  0  0  0  0  0
    7.5763    1.2253   25.0961 C   0  0  0  0  0  0  0  0  0  0  0  0
    6.6764    0.8698   25.5930 H   0  0  0  0  0  0  0  0  0  0  0  0
    6.7383    1.4132   23.1235 H   0  0  0  0  0  0  0  0  0  0  0  0
   10.9063    2.4001   23.4634 H   0  0  0  0  0  0  0  0  0  0  0  0
   10.8276    1.8541   25.9268 H   0  0  0  0  0  0  0  0  0  0  0  0
  1  2  1  0
  2  3  2  0
  3  4  1  0
  4  5  2  0
  5  6  1  0
  6  7  1  0
  7  8  1  0
  8  9  2  0
  9 10  1  0
 10 11  1  0
 11 12  1  0
 12 13  1  0
 13 14  1  0
 14 15  1  0
 15 16  1  0
 15 17  1  0
 13 18  1  0
 13 19  1  0
 12 20  1  0
 12 21  1  0
 11 22  1  0
 10 23  2  0
 23 24  1  0
 24 25  1  0
 25 26  2  0
 26 27  1  0
 27 28  2  0
 28 29  1  0
 29 30  2  0
 30 31  1  0
 28 32  1  0
 27 33  1  0
 26 34  1  0
  7 35  1  0
  7 36  1  0
  5 37  1  0
 37 38  2  0
 38 39  1  0
 37 40  1  0
  4 41  1  0
  3 42  1  0
 38  2  1  0
 24  8  1  0
 30 25  1  0
 15 11  1  0
M  END
>  <cnnaffinity>  (1) 
-5.8514

>  <filename>  (1) 
Fc1ccc(SCc2nc(C3CCOC3)nn2-c2cccnc2)cc1

$$$$
