
     RDKit          3D

 45 48  0  0  0  0  0  0  0  0999 V2000
    9.2528    3.6713   25.7349 F   0  0  0  0  0  0  0  0  0  0  0  0
    9.5944    2.9581   24.6495 C   0  0  0  0  0  0  0  0  0  0  0  0
    8.6652    2.8213   23.6238 C   0  0  0  0  0  0  0  0  0  0  0  0
    9.0016    2.0573   22.5000 C   0  0  0  0  0  0  0  0  0  0  0  0
   10.2584    1.4241   22.3984 C   0  0  0  0  0  0  0  0  0  0  0  0
   10.6237    0.5880   21.3824 O   0  0  0  0  0  0  0  0  0  0  0  0
    9.6146    0.0221   20.5581 C   0  0  0  0  0  0  0  0  0  0  0  0
    8.5644   -0.7840   21.2746 C   0  0  0  0  0  0  0  0  0  0  0  0
    8.7603   -1.5572   22.3229 N   0  0  0  0  0  0  0  0  0  0  0  0
    7.5101   -2.0065   22.6227 C   0  0  0  0  0  0  0  0  0  0  0  0
    7.2709   -2.8835   23.8293 C   0  0  0  0  0  0  0  0  0  0  0  0
    7.6017   -2.1425   25.1724 C   0  0  0  0  0  0  0  0  0  0  0  0
    9.0121   -2.4898   25.6611 C   0  0  0  0  0  0  0  0  0  0  0  0
    9.1745   -3.8772   25.9290 O   0  0  0  0  0  0  0  0  0  0  0  0
    8.4561   -4.7830   25.0970 C   0  0  0  0  0  0  0  0  0  0  0  0
    8.1202   -4.1914   23.7264 C   0  0  0  0  0  0  0  0  0  0  0  0
    9.0754   -3.9724   23.2280 H   0  0  0  0  0  0  0  0  0  0  0  0
    7.5997   -4.9343   23.1163 H   0  0  0  0  0  0  0  0  0  0  0  0
    9.0885   -5.6707   24.9813 H   0  0  0  0  0  0  0  0  0  0  0  0
    7.5423   -5.0996   25.6234 H   0  0  0  0  0  0  0  0  0  0  0  0
    9.7428   -2.1699   24.8996 H   0  0  0  0  0  0  0  0  0  0  0  0
    9.2452   -1.9779   26.5994 H   0  0  0  0  0  0  0  0  0  0  0  0
    7.5181   -1.0543   25.0647 H   0  0  0  0  0  0  0  0  0  0  0  0
    6.8833   -2.4421   25.9470 H   0  0  0  0  0  0  0  0  0  0  0  0
    6.2014   -3.1252   23.8122 H   0  0  0  0  0  0  0  0  0  0  0  0
    6.5695   -1.5916   21.8012 N   0  0  0  0  0  0  0  0  0  0  0  0
    7.2510   -0.8238   20.9072 N   0  0  0  0  0  0  0  0  0  0  0  0
    6.5856   -0.1237   19.8657 C   0  0  0  0  0  0  0  0  0  0  0  0
    5.4066    0.5871   20.1264 C   0  0  0  0  0  0  0  0  0  0  0  0
    4.8315    1.3141   19.0834 C   0  0  0  0  0  0  0  0  0  0  0  0
    5.4405    1.3019   17.8236 C   0  0  0  0  0  0  0  0  0  0  0  0
    6.5572    0.6035   17.5591 N   0  0  0  0  0  0  0  0  0  0  0  0
    7.1047   -0.0934   18.5589 C   0  0  0  0  0  0  0  0  0  0  0  0
    8.0133   -0.6463   18.3123 H   0  0  0  0  0  0  0  0  0  0  0  0
    5.0130    1.8596   16.9938 H   0  0  0  0  0  0  0  0  0  0  0  0
    3.9219    1.8879   19.2373 H   0  0  0  0  0  0  0  0  0  0  0  0
    4.9825    0.5607   21.1303 H   0  0  0  0  0  0  0  0  0  0  0  0
   10.1565   -0.6624   19.9080 H   0  0  0  0  0  0  0  0  0  0  0  0
    9.1657    0.8182   19.9521 H   0  0  0  0  0  0  0  0  0  0  0  0
   11.1938    1.6430   23.4275 C   0  0  0  0  0  0  0  0  0  0  0  0
   12.8074    0.9997   23.3539 Cl  0  0  0  0  0  0  0  0  0  0  0  0
   10.8581    2.3735   24.5623 C   0  0  0  0  0  0  0  0  0  0  0  0
   11.5994    2.4302   25.3485 H   0  0  0  0  0  0  0  0  0  0  0  0
    8.2685    1.9345   21.7083 H   0  0  0  0  0  0  0  0  0  0  0  0
    7.6874    3.2884   23.7213 H   0  0  0  0  0  0  0  0  0  0  0  0
  1  2  1  0
  2  3  2  0
  3  4  1  0
  4  5  2  0
  5  6  1  0
  6  7  1  0
  7  8  1  0
  8  9  2  0
  9 10  1  0
 10 11  1  0
 11 12  1  0
 12 13  1  0
 13 14  1  0
 14 15  1  0
 15 16  1  0
 16 17  1  0
 16 18  1  0
 15 19  1  0
 15 20  1  0
 13 21  1  0
 13 22  1  0
 12 23  1  0
 12 24  1  0
 11 25  1  0
 10 26  2  0
 26 27  1  0
 27 28  1  0
 28 29  2  0
 29 30  1  0
 30 31  2  0
 31 32  1  0
 32 33  2  0
 33 34  1  0
 31 35  1  0
 30 36  1  0
 29 37  1  0
  7 38  1  0
  7 39  1  0
  5 40  1  0
 40 41  1  0
 40 42  2  0
 42 43  1  0
  4 44  1  0
  3 45  1  0
 42  2  1  0
 27  8  1  0
 33 28  1  0
 16 11  1  0
M  END
>  <cnnaffinity>  (1) 
-6.48171

>  <filename>  (1) 
Fc1ccc(OCc2nc(C3CCOCC3)nn2-c2cccnc2)c(Cl)c1

$$$$
