
     RDKit          3D

 41 44  0  0  0  0  0  0  0  0999 V2000
    7.3844    6.4006   23.5188 F   0  0  0  0  0  0  0  0  0  0  0  0
    7.7478    5.2290   24.0415 C   0  0  0  0  0  0  0  0  0  0  0  0
    8.1746    4.2267   23.1686 C   0  0  0  0  0  0  0  0  0  0  0  0
    8.5617    2.9892   23.6909 C   0  0  0  0  0  0  0  0  0  0  0  0
    8.9987    1.9419   22.9447 O   0  0  0  0  0  0  0  0  0  0  0  0
    9.0476    2.0076   21.5221 C   0  0  0  0  0  0  0  0  0  0  0  0
    9.5074    0.6396   21.0079 C   0  0  0  0  0  0  0  0  0  0  0  0
    8.6179   -0.4670   21.4447 C   0  0  0  0  0  0  0  0  0  0  0  0
    8.8637   -1.3197   22.4125 N   0  0  0  0  0  0  0  0  0  0  0  0
    7.6841   -1.9861   22.5353 C   0  0  0  0  0  0  0  0  0  0  0  0
    7.4458   -2.9599   23.6297 C   0  0  0  0  0  0  0  0  0  0  0  0
    7.6786   -2.5445   25.0621 C   0  0  0  0  0  0  0  0  0  0  0  0
    6.2798   -2.7578   24.5622 C   0  0  0  0  0  0  0  0  0  0  0  0
    5.6654   -1.8802   24.3779 H   0  0  0  0  0  0  0  0  0  0  0  0
    5.7207   -3.6269   24.8987 H   0  0  0  0  0  0  0  0  0  0  0  0
    8.1031   -3.2641   25.7578 H   0  0  0  0  0  0  0  0  0  0  0  0
    8.0157   -1.5208   25.2232 H   0  0  0  0  0  0  0  0  0  0  0  0
    7.7142   -3.9754   23.3571 H   0  0  0  0  0  0  0  0  0  0  0  0
    6.7538   -1.6401   21.6664 N   0  0  0  0  0  0  0  0  0  0  0  0
    7.3607   -0.6621   20.9460 N   0  0  0  0  0  0  0  0  0  0  0  0
    6.6607    0.0123   19.9050 C   0  0  0  0  0  0  0  0  0  0  0  0
    5.4401    0.6440   20.1675 C   0  0  0  0  0  0  0  0  0  0  0  0
    4.8134    1.3098   19.1098 C   0  0  0  0  0  0  0  0  0  0  0  0
    5.4010    1.2960   17.8384 C   0  0  0  0  0  0  0  0  0  0  0  0
    6.5600    0.6721   17.5774 N   0  0  0  0  0  0  0  0  0  0  0  0
    7.1691    0.0523   18.5945 C   0  0  0  0  0  0  0  0  0  0  0  0
    8.1124   -0.4378   18.3663 H   0  0  0  0  0  0  0  0  0  0  0  0
    4.9208    1.7859   16.9943 H   0  0  0  0  0  0  0  0  0  0  0  0
    3.8807    1.8386   19.2602 H   0  0  0  0  0  0  0  0  0  0  0  0
    5.0131    0.6081   21.1729 H   0  0  0  0  0  0  0  0  0  0  0  0
   10.5136    0.4099   21.3600 H   0  0  0  0  0  0  0  0  0  0  0  0
    9.5503    0.6705   19.9175 H   0  0  0  0  0  0  0  0  0  0  0  0
    9.7586    2.7782   21.1961 H   0  0  0  0  0  0  0  0  0  0  0  0
    8.0577    2.2465   21.1063 H   0  0  0  0  0  0  0  0  0  0  0  0
    8.5155    2.7805   25.0828 C   0  0  0  0  0  0  0  0  0  0  0  0
    8.0866    3.7970   25.9346 C   0  0  0  0  0  0  0  0  0  0  0  0
    7.6950    5.0386   25.4238 C   0  0  0  0  0  0  0  0  0  0  0  0
    7.1602    6.2977   26.4886 Cl  0  0  0  0  0  0  0  0  0  0  0  0
    8.0441    3.6475   27.0094 H   0  0  0  0  0  0  0  0  0  0  0  0
    8.8149    1.8203   25.4836 H   0  0  0  0  0  0  0  0  0  0  0  0
    8.1971    4.4422   22.1069 H   0  0  0  0  0  0  0  0  0  0  0  0
  1  2  1  0
  2  3  2  0
  3  4  1  0
  4  5  1  0
  5  6  1  0
  6  7  1  0
  7  8  1  0
  8  9  2  0
  9 10  1  0
 10 11  1  0
 11 12  1  0
 12 13  1  0
 13 14  1  0
 13 15  1  0
 12 16  1  0
 12 17  1  0
 11 18  1  0
 10 19  2  0
 19 20  1  0
 20 21  1  0
 21 22  2  0
 22 23  1  0
 23 24  2  0
 24 25  1  0
 25 26  2  0
 26 27  1  0
 24 28  1  0
 23 29  1  0
 22 30  1  0
  7 31  1  0
  7 32  1  0
  6 33  1  0
  6 34  1  0
  4 35  2  0
 35 36  1  0
 36 37  2  0
 37 38  1  0
 36 39  1  0
 35 40  1  0
  3 41  1  0
 37  2  1  0
 20  8  1  0
 26 21  1  0
 13 11  1  0
M  END
>  <cnnaffinity>  (1) 
-5.98067

>  <filename>  (1) 
Fc1cc(OCCc2nc(C3CC3)nn2-c2cccnc2)ccc1Cl

$$$$
