
     RDKit          3D

 44 48  0  0  0  0  0  0  0  0999 V2000
   14.3303    0.7875   23.2376 F   0  0  0  0  0  0  0  0  0  0  0  0
   13.3911    0.0684   22.6075 C   0  0  0  0  0  0  0  0  0  0  0  0
   13.7953   -0.9769   21.7816 C   0  0  0  0  0  0  0  0  0  0  0  0
   12.8178   -1.7136   21.1135 C   0  0  0  0  0  0  0  0  0  0  0  0
   11.4642   -1.4665   21.3322 C   0  0  0  0  0  0  0  0  0  0  0  0
   11.0683   -0.4147   22.1808 C   0  0  0  0  0  0  0  0  0  0  0  0
    9.6182   -0.1439   22.3385 C   0  0  0  0  0  0  0  0  0  0  0  0
    8.6933   -0.8237   21.6674 N   0  0  0  0  0  0  0  0  0  0  0  0
    7.5450   -0.1945   21.9784 N   0  0  0  0  0  0  0  0  0  0  0  0
    6.3155   -0.5551   21.2783 C   0  0  0  0  0  0  0  0  0  0  0  0
    6.0550    0.1774   19.9715 C   0  0  0  0  0  0  0  0  0  0  0  0
    4.8620    0.8816   19.7716 C   0  0  0  0  0  0  0  0  0  0  0  0
    4.6719    1.5685   18.5714 C   0  0  0  0  0  0  0  0  0  0  0  0
    5.6751    1.5076   17.6026 C   0  0  0  0  0  0  0  0  0  0  0  0
    6.8141    0.8183   17.7602 N   0  0  0  0  0  0  0  0  0  0  0  0
    6.9965    0.1841   18.9266 C   0  0  0  0  0  0  0  0  0  0  0  0
    7.9445   -0.3409   19.0473 H   0  0  0  0  0  0  0  0  0  0  0  0
    5.5614    2.0250   16.6511 H   0  0  0  0  0  0  0  0  0  0  0  0
    3.7771    2.1498   18.3795 H   0  0  0  0  0  0  0  0  0  0  0  0
    4.0947    0.9124   20.5489 H   0  0  0  0  0  0  0  0  0  0  0  0
    5.4873   -0.3502   21.9502 H   0  0  0  0  0  0  0  0  0  0  0  0
    6.3526   -1.6383   21.1349 H   0  0  0  0  0  0  0  0  0  0  0  0
    7.8184    0.8467   22.8056 C   0  0  0  0  0  0  0  0  0  0  0  0
    6.7595    1.8015   23.2987 C   0  0  0  0  0  0  0  0  0  0  0  0
    6.2781    1.5401   24.7609 C   0  0  0  0  0  0  0  0  0  0  0  0
    7.2756    2.3310   25.6290 C   0  0  0  0  0  0  0  0  0  0  0  0
    7.6402    3.4592   24.7235 C   0  0  0  0  0  0  0  0  0  0  0  0
    8.3010    4.5799   24.8321 N   0  0  0  0  0  0  0  0  0  0  0  0
    8.4216    5.0183   23.5280 C   0  0  0  0  0  0  0  0  0  0  0  0
    7.8210    4.1544   22.6464 C   0  0  0  0  0  0  0  0  0  0  0  0
    7.2918    3.1610   23.4462 N   0  0  0  0  0  0  0  0  0  0  0  0
    7.7539    4.1490   21.5688 H   0  0  0  0  0  0  0  0  0  0  0  0
    8.9579    5.9297   23.2967 H   0  0  0  0  0  0  0  0  0  0  0  0
    6.8789    2.6556   26.5906 H   0  0  0  0  0  0  0  0  0  0  0  0
    8.1821    1.7422   25.8137 H   0  0  0  0  0  0  0  0  0  0  0  0
    5.2727    1.9628   24.8644 H   0  0  0  0  0  0  0  0  0  0  0  0
    6.2166    0.4782   25.0241 H   0  0  0  0  0  0  0  0  0  0  0  0
    5.9230    1.8077   22.5941 H   0  0  0  0  0  0  0  0  0  0  0  0
    9.1117    0.8739   23.0794 N   0  0  0  0  0  0  0  0  0  0  0  0
   12.0505    0.3844   22.8120 C   0  0  0  0  0  0  0  0  0  0  0  0
   11.8113    1.2216   23.4686 H   0  0  0  0  0  0  0  0  0  0  0  0
   10.6979   -2.0754   20.8522 H   0  0  0  0  0  0  0  0  0  0  0  0
   13.1227   -2.4742   20.4042 H   0  0  0  0  0  0  0  0  0  0  0  0
   14.8417   -1.2333   21.6913 H   0  0  0  0  0  0  0  0  0  0  0  0
  1  2  1  0
  2  3  2  0
  3  4  1  0
  4  5  2  0
  5  6  1  0
  6  7  1  0
  7  8  2  0
  8  9  1  0
  9 10  1  0
 10 11  1  0
 11 12  2  0
 12 13  1  0
 13 14  2  0
 14 15  1  0
 15 16  2  0
 16 17  1  0
 14 18  1  0
 13 19  1  0
 12 20  1  0
 10 21  1  0
 10 22  1  0
  9 23  1  0
 23 24  1  0
 24 25  1  0
 25 26  1  0
 26 27  1  0
 27 28  2  0
 28 29  1  0
 29 30  2  0
 30 31  1  0
 30 32  1  0
 29 33  1  0
 26 34  1  0
 26 35  1  0
 25 36  1  0
 25 37  1  0
 24 38  1  0
 23 39  2  0
  6 40  2  0
 40 41  1  0
  5 42  1  0
  4 43  1  0
  3 44  1  0
 40  2  1  0
 39  7  1  0
 16 11  1  0
 31 24  1  0
 31 27  1  0
M  END
>  <cnnaffinity>  (1) 
-6.59231

>  <filename>  (1) 
Fc1cccc(-c2nc(C3CCc4nccn43)n(Cc3cccnc3)n2)c1

$$$$
