
     RDKit          3D

 38 41  0  0  0  0  0  0  0  0999 V2000
    9.9061   -1.4279   25.3639 F   0  0  0  0  0  0  0  0  0  0  0  0
   10.7182   -0.7614   24.5368 C   0  0  0  0  0  0  0  0  0  0  0  0
   11.4636    0.3044   25.0406 C   0  0  0  0  0  0  0  0  0  0  0  0
   12.3827    0.9367   24.2964 N   0  0  0  0  0  0  0  0  0  0  0  0
   12.5562    0.5320   23.0315 C   0  0  0  0  0  0  0  0  0  0  0  0
   11.7978   -0.5024   22.4644 C   0  0  0  0  0  0  0  0  0  0  0  0
   11.9724   -0.9330   20.8109 Cl  0  0  0  0  0  0  0  0  0  0  0  0
   10.8451   -1.1899   23.2179 C   0  0  0  0  0  0  0  0  0  0  0  0
    9.9512   -2.2564   22.6146 C   0  0  0  0  0  0  0  0  0  0  0  0
    8.6917   -1.6767   22.0293 C   0  0  0  0  0  0  0  0  0  0  0  0
    8.4748   -1.2000   20.8174 N   0  0  0  0  0  0  0  0  0  0  0  0
    7.2268   -0.6509   20.9190 C   0  0  0  0  0  0  0  0  0  0  0  0
    6.5376    0.0401   19.8276 C   0  0  0  0  0  0  0  0  0  0  0  0
    5.3204    0.7280   20.0041 C   0  0  0  0  0  0  0  0  0  0  0  0
    4.7774    1.3908   18.9079 C   0  0  0  0  0  0  0  0  0  0  0  0
    5.4483    1.3345   17.6809 C   0  0  0  0  0  0  0  0  0  0  0  0
    6.5916    0.6592   17.4978 N   0  0  0  0  0  0  0  0  0  0  0  0
    7.1209    0.0354   18.5554 C   0  0  0  0  0  0  0  0  0  0  0  0
    8.0602   -0.4836   18.3791 H   0  0  0  0  0  0  0  0  0  0  0  0
    5.0473    1.8431   16.8070 H   0  0  0  0  0  0  0  0  0  0  0  0
    3.8556    1.9560   18.9857 H   0  0  0  0  0  0  0  0  0  0  0  0
    4.8265    0.7459   20.9785 H   0  0  0  0  0  0  0  0  0  0  0  0
    6.6751   -0.7643   22.1123 N   0  0  0  0  0  0  0  0  0  0  0  0
    7.5973   -1.4558   22.8125 N   0  0  0  0  0  0  0  0  0  0  0  0
    7.3781   -1.7770   24.1748 C   0  0  0  0  0  0  0  0  0  0  0  0
    7.5019   -3.0854   24.6693 C   0  0  0  0  0  0  0  0  0  0  0  0
    7.4958   -3.2518   26.0570 C   0  0  0  0  0  0  0  0  0  0  0  0
    7.3401   -2.1288   26.8682 C   0  0  0  0  0  0  0  0  0  0  0  0
    7.1139   -0.8955   26.3878 N   0  0  0  0  0  0  0  0  0  0  0  0
    7.0923   -0.7321   25.0677 C   0  0  0  0  0  0  0  0  0  0  0  0
    6.8858    0.2710   24.6952 H   0  0  0  0  0  0  0  0  0  0  0  0
    7.3854   -2.1991   27.9425 H   0  0  0  0  0  0  0  0  0  0  0  0
    7.6501   -4.2242   26.5086 H   0  0  0  0  0  0  0  0  0  0  0  0
    7.6265   -3.9302   23.9911 H   0  0  0  0  0  0  0  0  0  0  0  0
   10.4800   -2.7898   21.8282 H   0  0  0  0  0  0  0  0  0  0  0  0
    9.7131   -2.9879   23.3893 H   0  0  0  0  0  0  0  0  0  0  0  0
   13.3466    1.0083   22.4566 H   0  0  0  0  0  0  0  0  0  0  0  0
   11.3140    0.5988   26.0752 H   0  0  0  0  0  0  0  0  0  0  0  0
  1  2  1  0
  2  3  2  0
  3  4  1  0
  4  5  2  0
  5  6  1  0
  6  7  1  0
  6  8  2  0
  8  9  1  0
  9 10  1  0
 10 11  2  0
 11 12  1  0
 12 13  1  0
 13 14  2  0
 14 15  1  0
 15 16  2  0
 16 17  1  0
 17 18  2  0
 18 19  1  0
 16 20  1  0
 15 21  1  0
 14 22  1  0
 12 23  2  0
 23 24  1  0
 24 25  1  0
 25 26  2  0
 26 27  1  0
 27 28  2  0
 28 29  1  0
 29 30  2  0
 30 31  1  0
 28 32  1  0
 27 33  1  0
 26 34  1  0
  9 35  1  0
  9 36  1  0
  5 37  1  0
  3 38  1  0
  8  2  1  0
 24 10  1  0
 30 25  1  0
 18 13  1  0
M  END
>  <cnnaffinity>  (1) 
-6.11453

>  <filename>  (1) 
Fc1cncc(Cl)c1Cc1nc(-c2cccnc2)nn1-c1cccnc1

$$$$
