
     RDKit          3D

 45 48  0  0  0  0  0  0  0  0999 V2000
    6.4415    4.0622   28.4494 F   0  0  0  0  0  0  0  0  0  0  0  0
    6.7884    3.4585   27.3028 C   0  0  0  0  0  0  0  0  0  0  0  0
    5.8985    2.5602   26.7204 C   0  0  0  0  0  0  0  0  0  0  0  0
    6.2602    1.9349   25.5292 C   0  0  0  0  0  0  0  0  0  0  0  0
    7.5049    2.2164   24.9272 C   0  0  0  0  0  0  0  0  0  0  0  0
    7.8755    1.5636   23.6607 C   0  0  0  0  0  0  0  0  0  0  0  0
    7.1793    0.5743   23.1171 N   0  0  0  0  0  0  0  0  0  0  0  0
    7.9085    0.2508   22.0275 N   0  0  0  0  0  0  0  0  0  0  0  0
    7.3900   -0.6809   21.0317 C   0  0  0  0  0  0  0  0  0  0  0  0
    6.6547   -0.0018   19.8857 C   0  0  0  0  0  0  0  0  0  0  0  0
    5.4405    0.6487   20.1356 C   0  0  0  0  0  0  0  0  0  0  0  0
    4.7978    1.3069   19.0832 C   0  0  0  0  0  0  0  0  0  0  0  0
    5.3916    1.2991   17.8179 C   0  0  0  0  0  0  0  0  0  0  0  0
    6.5509    0.6757   17.5563 N   0  0  0  0  0  0  0  0  0  0  0  0
    7.1576    0.0526   18.5754 C   0  0  0  0  0  0  0  0  0  0  0  0
    8.1034   -0.4301   18.3215 H   0  0  0  0  0  0  0  0  0  0  0  0
    4.9256    1.8117   16.9761 H   0  0  0  0  0  0  0  0  0  0  0  0
    3.8688    1.8450   19.2321 H   0  0  0  0  0  0  0  0  0  0  0  0
    5.0316    0.6465   21.1477 H   0  0  0  0  0  0  0  0  0  0  0  0
    6.7281   -1.3418   21.5966 H   0  0  0  0  0  0  0  0  0  0  0  0
    8.2258   -1.2825   20.6540 H   0  0  0  0  0  0  0  0  0  0  0  0
    8.9975    1.0434   21.9628 C   0  0  0  0  0  0  0  0  0  0  0  0
   10.0906    0.8182   20.9723 C   0  0  0  0  0  0  0  0  0  0  0  0
   11.0468   -0.3560   21.3393 C   0  0  0  0  0  0  0  0  0  0  0  0
   11.7580   -0.0767   22.6440 C   0  0  0  0  0  0  0  0  0  0  0  0
   12.8786    0.7588   22.6868 C   0  0  0  0  0  0  0  0  0  0  0  0
   13.4489    1.0716   23.9159 C   0  0  0  0  0  0  0  0  0  0  0  0
   12.9892    0.6250   25.0888 N   0  0  0  0  0  0  0  0  0  0  0  0
   11.8937   -0.1426   25.0580 C   0  0  0  0  0  0  0  0  0  0  0  0
   11.2472   -0.5145   23.8730 C   0  0  0  0  0  0  0  0  0  0  0  0
   10.3746   -1.1572   23.9179 H   0  0  0  0  0  0  0  0  0  0  0  0
   11.5263   -0.4981   26.0213 H   0  0  0  0  0  0  0  0  0  0  0  0
   14.2990    1.7402   23.9351 H   0  0  0  0  0  0  0  0  0  0  0  0
   13.2921    1.2191   21.8006 H   0  0  0  0  0  0  0  0  0  0  0  0
   11.7811   -0.5183   20.5434 H   0  0  0  0  0  0  0  0  0  0  0  0
   10.4908   -1.3016   21.4122 H   0  0  0  0  0  0  0  0  0  0  0  0
    9.6233    0.6583   19.9953 H   0  0  0  0  0  0  0  0  0  0  0  0
   10.6574    1.7526   20.9103 H   0  0  0  0  0  0  0  0  0  0  0  0
    8.9885    1.9076   22.9571 N   0  0  0  0  0  0  0  0  0  0  0  0
    8.3898    3.1245   25.5491 C   0  0  0  0  0  0  0  0  0  0  0  0
    8.0256    3.7539   26.7381 C   0  0  0  0  0  0  0  0  0  0  0  0
    8.6640    4.4737   27.2350 H   0  0  0  0  0  0  0  0  0  0  0  0
    9.3560    3.3403   25.0916 H   0  0  0  0  0  0  0  0  0  0  0  0
    5.5875    1.2227   25.0498 H   0  0  0  0  0  0  0  0  0  0  0  0
    4.9501    2.3731   27.2092 H   0  0  0  0  0  0  0  0  0  0  0  0
  1  2  1  0
  2  3  2  0
  3  4  1  0
  4  5  2  0
  5  6  1  0
  6  7  2  0
  7  8  1  0
  8  9  1  0
  9 10  1  0
 10 11  2  0
 11 12  1  0
 12 13  2  0
 13 14  1  0
 14 15  2  0
 15 16  1  0
 13 17  1  0
 12 18  1  0
 11 19  1  0
  9 20  1  0
  9 21  1  0
  8 22  1  0
 22 23  1  0
 23 24  1  0
 24 25  1  0
 25 26  2  0
 26 27  1  0
 27 28  2  0
 28 29  1  0
 29 30  2  0
 30 31  1  0
 29 32  1  0
 27 33  1  0
 26 34  1  0
 24 35  1  0
 24 36  1  0
 23 37  1  0
 23 38  1  0
 22 39  2  0
  5 40  1  0
 40 41  2  0
 41 42  1  0
 40 43  1  0
  4 44  1  0
  3 45  1  0
 41  2  1  0
 39  6  1  0
 15 10  1  0
 30 25  1  0
M  END
>  <cnnaffinity>  (1) 
-6.0249

>  <filename>  (1) 
Fc1ccc(-c2nc(CCc3ccncc3)n(Cc3cccnc3)n2)cc1

$$$$
