
     RDKit          3D

 45 48  0  0  0  0  0  0  0  0999 V2000
    7.1255    5.3502   25.1163 F   0  0  0  0  0  0  0  0  0  0  0  0
    7.1667    4.0200   25.0268 C   0  0  0  0  0  0  0  0  0  0  0  0
    5.9714    3.3297   24.7955 C   0  0  0  0  0  0  0  0  0  0  0  0
    6.0351    1.9430   24.7097 C   0  0  0  0  0  0  0  0  0  0  0  0
    7.2851    1.3137   24.8503 C   0  0  0  0  0  0  0  0  0  0  0  0
    7.3921   -0.1036   24.7431 N   0  0  0  0  0  0  0  0  0  0  0  0
    6.5559   -0.9121   25.4523 N   0  0  0  0  0  0  0  0  0  0  0  0
    6.8970   -2.1202   25.0584 C   0  0  0  0  0  0  0  0  0  0  0  0
    6.2290   -3.3752   25.5210 C   0  0  0  0  0  0  0  0  0  0  0  0
    5.5395   -4.2209   24.4007 C   0  0  0  0  0  0  0  0  0  0  0  0
    6.4933   -5.3976   24.7006 C   0  0  0  0  0  0  0  0  0  0  0  0
    7.1628   -4.5863   25.8322 C   0  0  0  0  0  0  0  0  0  0  0  0
    8.2270   -4.3797   25.6821 H   0  0  0  0  0  0  0  0  0  0  0  0
    7.0322   -5.0099   26.8319 H   0  0  0  0  0  0  0  0  0  0  0  0
    5.9963   -6.3167   25.0250 H   0  0  0  0  0  0  0  0  0  0  0  0
    7.1660   -5.6506   23.8750 H   0  0  0  0  0  0  0  0  0  0  0  0
    4.4816   -4.4312   24.5778 H   0  0  0  0  0  0  0  0  0  0  0  0
    5.6421   -3.7900   23.3989 H   0  0  0  0  0  0  0  0  0  0  0  0
    5.5605   -3.1144   26.3433 H   0  0  0  0  0  0  0  0  0  0  0  0
    7.8867   -2.1549   24.1224 N   0  0  0  0  0  0  0  0  0  0  0  0
    8.1695   -0.8846   23.9325 C   0  0  0  0  0  0  0  0  0  0  0  0
    9.0833   -0.3356   22.8857 C   0  0  0  0  0  0  0  0  0  0  0  0
    8.3114    0.3222   21.7313 C   0  0  0  0  0  0  0  0  0  0  0  0
    7.4037   -0.6767   20.9981 C   0  0  0  0  0  0  0  0  0  0  0  0
    6.6442   -0.0094   19.8897 C   0  0  0  0  0  0  0  0  0  0  0  0
    5.4343    0.6478   20.1457 C   0  0  0  0  0  0  0  0  0  0  0  0
    4.7999    1.3145   19.0978 C   0  0  0  0  0  0  0  0  0  0  0  0
    5.3971    1.2984   17.8320 C   0  0  0  0  0  0  0  0  0  0  0  0
    6.5615    0.6877   17.5662 N   0  0  0  0  0  0  0  0  0  0  0  0
    7.1622    0.0621   18.5874 C   0  0  0  0  0  0  0  0  0  0  0  0
    8.1129   -0.4211   18.3605 H   0  0  0  0  0  0  0  0  0  0  0  0
    4.9133    1.7870   16.9904 H   0  0  0  0  0  0  0  0  0  0  0  0
    3.8698    1.8474   19.2541 H   0  0  0  0  0  0  0  0  0  0  0  0
    5.0111    0.6347   21.1551 H   0  0  0  0  0  0  0  0  0  0  0  0
    8.0127   -1.5000   20.5996 H   0  0  0  0  0  0  0  0  0  0  0  0
    6.6990   -1.1333   21.7086 H   0  0  0  0  0  0  0  0  0  0  0  0
    7.7100    1.1596   22.1108 H   0  0  0  0  0  0  0  0  0  0  0  0
    9.0207    0.7556   21.0165 H   0  0  0  0  0  0  0  0  0  0  0  0
    9.6868   -1.1653   22.5034 H   0  0  0  0  0  0  0  0  0  0  0  0
    9.7811    0.3833   23.3251 H   0  0  0  0  0  0  0  0  0  0  0  0
    8.3962    2.1271   25.0969 C   0  0  0  0  0  0  0  0  0  0  0  0
    8.3462    3.4649   25.1795 N   0  0  0  0  0  0  0  0  0  0  0  0
    9.3760    1.6820   25.2333 H   0  0  0  0  0  0  0  0  0  0  0  0
    5.1412    1.3432   24.5481 H   0  0  0  0  0  0  0  0  0  0  0  0
    5.0448    3.8816   24.7016 H   0  0  0  0  0  0  0  0  0  0  0  0
  1  2  1  0
  2  3  2  0
  3  4  1  0
  4  5  2  0
  5  6  1  0
  6  7  1  0
  7  8  2  0
  8  9  1  0
  9 10  1  0
 10 11  1  0
 11 12  1  0
 12 13  1  0
 12 14  1  0
 11 15  1  0
 11 16  1  0
 10 17  1  0
 10 18  1  0
  9 19  1  0
  8 20  1  0
 20 21  2  0
 21 22  1  0
 22 23  1  0
 23 24  1  0
 24 25  1  0
 25 26  2  0
 26 27  1  0
 27 28  2  0
 28 29  1  0
 29 30  2  0
 30 31  1  0
 28 32  1  0
 27 33  1  0
 26 34  1  0
 24 35  1  0
 24 36  1  0
 23 37  1  0
 23 38  1  0
 22 39  1  0
 22 40  1  0
  5 41  1  0
 41 42  2  0
 41 43  1  0
  4 44  1  0
  3 45  1  0
 42  2  1  0
 21  6  1  0
 30 25  1  0
 12  9  1  0
M  END
>  <cnnaffinity>  (1) 
-5.89835

>  <filename>  (1) 
Fc1ccc(-n2nc(C3CCC3)nc2CCCc2cccnc2)cn1

$$$$
