
     RDKit          3D

 42 45  0  0  0  0  0  0  0  0999 V2000
    9.5634    4.5085   25.3718 F   0  0  0  0  0  0  0  0  0  0  0  0
    9.7984    3.6144   24.3986 C   0  0  0  0  0  0  0  0  0  0  0  0
    8.7434    3.1769   23.6098 C   0  0  0  0  0  0  0  0  0  0  0  0
    8.9835    2.2331   22.6055 C   0  0  0  0  0  0  0  0  0  0  0  0
   10.2663    1.6843   22.4149 C   0  0  0  0  0  0  0  0  0  0  0  0
   10.5885    0.7485   21.4788 O   0  0  0  0  0  0  0  0  0  0  0  0
    9.5976    0.1582   20.6529 C   0  0  0  0  0  0  0  0  0  0  0  0
    8.5420   -0.6341   21.3606 C   0  0  0  0  0  0  0  0  0  0  0  0
    8.7358   -1.4163   22.3990 N   0  0  0  0  0  0  0  0  0  0  0  0
    7.5092   -1.9664   22.6079 C   0  0  0  0  0  0  0  0  0  0  0  0
    7.3633   -3.0516   23.6619 C   0  0  0  0  0  0  0  0  0  0  0  0
    7.3748   -4.4921   23.0650 C   0  0  0  0  0  0  0  0  0  0  0  0
    6.4544   -5.2642   24.0147 C   0  0  0  0  0  0  0  0  0  0  0  0
    5.4613   -4.1845   24.4354 C   0  0  0  0  0  0  0  0  0  0  0  0
    6.1944   -2.9647   24.4705 O   0  0  0  0  0  0  0  0  0  0  0  0
    5.0224   -4.3584   25.4247 H   0  0  0  0  0  0  0  0  0  0  0  0
    4.6460   -4.0872   23.7048 H   0  0  0  0  0  0  0  0  0  0  0  0
    5.9535   -6.1126   23.5364 H   0  0  0  0  0  0  0  0  0  0  0  0
    7.0088   -5.6456   24.8818 H   0  0  0  0  0  0  0  0  0  0  0  0
    6.9640   -4.4882   22.0464 H   0  0  0  0  0  0  0  0  0  0  0  0
    8.3897   -4.9008   23.0182 H   0  0  0  0  0  0  0  0  0  0  0  0
    8.2347   -2.9066   24.3144 H   0  0  0  0  0  0  0  0  0  0  0  0
    6.5869   -1.5999   21.7344 N   0  0  0  0  0  0  0  0  0  0  0  0
    7.2611   -0.7642   20.9028 N   0  0  0  0  0  0  0  0  0  0  0  0
    6.5844   -0.0779   19.8483 C   0  0  0  0  0  0  0  0  0  0  0  0
    5.3907    0.6035   20.1092 C   0  0  0  0  0  0  0  0  0  0  0  0
    4.7966    1.3190   19.0642 C   0  0  0  0  0  0  0  0  0  0  0  0
    5.3981    1.3167   17.8009 C   0  0  0  0  0  0  0  0  0  0  0  0
    6.5249    0.6419   17.5355 N   0  0  0  0  0  0  0  0  0  0  0  0
    7.0952   -0.0395   18.5366 C   0  0  0  0  0  0  0  0  0  0  0  0
    8.0080   -0.5745   18.2839 H   0  0  0  0  0  0  0  0  0  0  0  0
    4.9558    1.8624   16.9684 H   0  0  0  0  0  0  0  0  0  0  0  0
    3.8783    1.8717   19.2183 H   0  0  0  0  0  0  0  0  0  0  0  0
    4.9575    0.5650   21.1090 H   0  0  0  0  0  0  0  0  0  0  0  0
   10.1586   -0.5546   20.0524 H   0  0  0  0  0  0  0  0  0  0  0  0
    9.1692    0.9055   19.9795 H   0  0  0  0  0  0  0  0  0  0  0  0
   11.3081    2.1254   23.2681 C   0  0  0  0  0  0  0  0  0  0  0  0
   12.8729    1.3788   23.2118 Cl  0  0  0  0  0  0  0  0  0  0  0  0
   11.0859    3.1218   24.2204 C   0  0  0  0  0  0  0  0  0  0  0  0
   11.8940    3.5098   24.8240 H   0  0  0  0  0  0  0  0  0  0  0  0
    8.1591    1.9337   21.9584 H   0  0  0  0  0  0  0  0  0  0  0  0
    7.7438    3.5489   23.8093 H   0  0  0  0  0  0  0  0  0  0  0  0
  1  2  1  0
  2  3  2  0
  3  4  1  0
  4  5  2  0
  5  6  1  0
  6  7  1  0
  7  8  1  0
  8  9  2  0
  9 10  1  0
 10 11  1  0
 11 12  1  0
 12 13  1  0
 13 14  1  0
 14 15  1  0
 14 16  1  0
 14 17  1  0
 13 18  1  0
 13 19  1  0
 12 20  1  0
 12 21  1  0
 11 22  1  0
 10 23  2  0
 23 24  1  0
 24 25  1  0
 25 26  2  0
 26 27  1  0
 27 28  2  0
 28 29  1  0
 29 30  2  0
 30 31  1  0
 28 32  1  0
 27 33  1  0
 26 34  1  0
  7 35  1  0
  7 36  1  0
  5 37  1  0
 37 38  1  0
 37 39  2  0
 39 40  1  0
  4 41  1  0
  3 42  1  0
 39  2  1  0
 24  8  1  0
 30 25  1  0
 15 11  1  0
M  END
>  <cnnaffinity>  (1) 
-6.27673

>  <filename>  (1) 
Fc1ccc(OCc2nc(C3CCCO3)nn2-c2cccnc2)c(Cl)c1

$$$$
