
     RDKit          3D

 45 48  0  0  0  0  0  0  0  0999 V2000
    8.6218    4.8523   27.0934 F   0  0  0  0  0  0  0  0  0  0  0  0
    7.8340    3.8812   26.6129 C   0  0  0  0  0  0  0  0  0  0  0  0
    6.6667    3.5704   27.3040 C   0  0  0  0  0  0  0  0  0  0  0  0
    5.8863    2.5421   26.7818 C   0  0  0  0  0  0  0  0  0  0  0  0
    4.7784    2.1901   27.4488 F   0  0  0  0  0  0  0  0  0  0  0  0
    6.2058    1.8618   25.6085 C   0  0  0  0  0  0  0  0  0  0  0  0
    7.3783    2.2286   24.9056 C   0  0  0  0  0  0  0  0  0  0  0  0
    7.7552    1.5647   23.6195 C   0  0  0  0  0  0  0  0  0  0  0  0
    7.1416    0.4947   23.1334 N   0  0  0  0  0  0  0  0  0  0  0  0
    7.8414    0.2121   22.0096 N   0  0  0  0  0  0  0  0  0  0  0  0
    7.3169   -0.7300   21.0166 C   0  0  0  0  0  0  0  0  0  0  0  0
    6.6357   -0.0381   19.8531 C   0  0  0  0  0  0  0  0  0  0  0  0
    5.4509    0.6696   20.0911 C   0  0  0  0  0  0  0  0  0  0  0  0
    4.8421    1.3347   19.0275 C   0  0  0  0  0  0  0  0  0  0  0  0
    5.4544    1.2854   17.7716 C   0  0  0  0  0  0  0  0  0  0  0  0
    6.5861    0.6080   17.5209 N   0  0  0  0  0  0  0  0  0  0  0  0
    7.1484   -0.0431   18.5474 C   0  0  0  0  0  0  0  0  0  0  0  0
    8.0567   -0.6077   18.3157 H   0  0  0  0  0  0  0  0  0  0  0  0
    5.0165    1.8034   16.9228 H   0  0  0  0  0  0  0  0  0  0  0  0
    3.9136    1.8822   19.1594 H   0  0  0  0  0  0  0  0  0  0  0  0
    5.0373    0.6965   21.1018 H   0  0  0  0  0  0  0  0  0  0  0  0
    6.6052   -1.3544   21.5652 H   0  0  0  0  0  0  0  0  0  0  0  0
    8.1313   -1.3741   20.6620 H   0  0  0  0  0  0  0  0  0  0  0  0
    8.8267    1.1264   21.8598 C   0  0  0  0  0  0  0  0  0  0  0  0
    9.9462    0.8950   20.8897 C   0  0  0  0  0  0  0  0  0  0  0  0
   10.8421   -0.3250   21.2871 C   0  0  0  0  0  0  0  0  0  0  0  0
   11.5408   -0.1296   22.6157 C   0  0  0  0  0  0  0  0  0  0  0  0
   10.9262   -0.4847   23.8301 C   0  0  0  0  0  0  0  0  0  0  0  0
   11.5762   -0.1814   25.0268 C   0  0  0  0  0  0  0  0  0  0  0  0
   12.8411    0.4066   24.9646 C   0  0  0  0  0  0  0  0  0  0  0  0
   13.3632    0.7397   23.7132 C   0  0  0  0  0  0  0  0  0  0  0  0
   12.7314    0.4850   22.5632 N   0  0  0  0  0  0  0  0  0  0  0  0
   14.3323    1.2270   23.6161 H   0  0  0  0  0  0  0  0  0  0  0  0
   13.4284    0.5756   25.8565 H   0  0  0  0  0  0  0  0  0  0  0  0
   11.1236   -0.4283   25.9865 H   0  0  0  0  0  0  0  0  0  0  0  0
    9.9591   -0.9798   23.8182 H   0  0  0  0  0  0  0  0  0  0  0  0
   10.2260   -1.2298   21.3268 H   0  0  0  0  0  0  0  0  0  0  0  0
   11.6118   -0.5143   20.5350 H   0  0  0  0  0  0  0  0  0  0  0  0
    9.5203    0.7371   19.8936 H   0  0  0  0  0  0  0  0  0  0  0  0
   10.5548    1.8019   20.8265 H   0  0  0  0  0  0  0  0  0  0  0  0
    8.7854    2.0076   22.8408 N   0  0  0  0  0  0  0  0  0  0  0  0
    8.2107    3.2393   25.4375 C   0  0  0  0  0  0  0  0  0  0  0  0
    9.1400    3.5421   24.9597 H   0  0  0  0  0  0  0  0  0  0  0  0
    5.5458    1.0640   25.2717 H   0  0  0  0  0  0  0  0  0  0  0  0
    6.3797    4.1040   28.2029 H   0  0  0  0  0  0  0  0  0  0  0  0
  1  2  1  0
  2  3  2  0
  3  4  1  0
  4  5  1  0
  4  6  2  0
  6  7  1  0
  7  8  1  0
  8  9  2  0
  9 10  1  0
 10 11  1  0
 11 12  1  0
 12 13  2  0
 13 14  1  0
 14 15  2  0
 15 16  1  0
 16 17  2  0
 17 18  1  0
 15 19  1  0
 14 20  1  0
 13 21  1  0
 11 22  1  0
 11 23  1  0
 10 24  1  0
 24 25  1  0
 25 26  1  0
 26 27  1  0
 27 28  2  0
 28 29  1  0
 29 30  2  0
 30 31  1  0
 31 32  2  0
 31 33  1  0
 30 34  1  0
 29 35  1  0
 28 36  1  0
 26 37  1  0
 26 38  1  0
 25 39  1  0
 25 40  1  0
 24 41  2  0
  7 42  2  0
 42 43  1  0
  6 44  1  0
  3 45  1  0
 42  2  1  0
 41  8  1  0
 17 12  1  0
 32 27  1  0
M  END
>  <cnnaffinity>  (1) 
-6.45489

>  <filename>  (1) 
Fc1cc(F)cc(-c2nc(CCc3ccccn3)n(Cc3cccnc3)n2)c1

$$$$
