
     RDKit          3D

 31 33  0  0  0  0  0  0  0  0999 V2000
    5.3485   -2.5457   20.9446 H   0  0  0  0  0  0  0  0  0  0  0  0
    5.8752   -2.4383   21.8939 C   0  0  0  0  0  0  0  0  0  0  0  0
    7.0120   -1.7189   21.9684 C   0  0  0  0  0  0  0  0  0  0  0  0
    7.5151   -0.7269   20.9693 C   0  0  0  0  0  0  0  0  0  0  0  0
    6.6898   -0.0420   19.9380 C   0  0  0  0  0  0  0  0  0  0  0  0
    7.2272    0.0406   18.6444 C   0  0  0  0  0  0  0  0  0  0  0  0
    8.1920   -0.4127   18.4253 H   0  0  0  0  0  0  0  0  0  0  0  0
    6.6262    0.6455   17.6181 N   0  0  0  0  0  0  0  0  0  0  0  0
    5.4546    1.2539   17.8643 C   0  0  0  0  0  0  0  0  0  0  0  0
    4.9854    1.7572   17.0194 H   0  0  0  0  0  0  0  0  0  0  0  0
    4.8384    1.2489   19.1179 C   0  0  0  0  0  0  0  0  0  0  0  0
    3.9075    1.7893   19.2475 H   0  0  0  0  0  0  0  0  0  0  0  0
    5.4552    0.5835   20.1801 C   0  0  0  0  0  0  0  0  0  0  0  0
    5.0065    0.5887   21.1753 H   0  0  0  0  0  0  0  0  0  0  0  0
    8.7749   -0.5066   21.0554 N   0  0  0  0  0  0  0  0  0  0  0  0
    9.3374   -1.2723   22.1741 C   0  0  0  0  0  0  0  0  0  0  0  0
    9.9930   -2.0576   21.7731 H   0  0  0  0  0  0  0  0  0  0  0  0
    9.9599   -0.6320   22.8042 H   0  0  0  0  0  0  0  0  0  0  0  0
    8.1486   -1.8595   22.9734 C   0  0  0  0  0  0  0  0  0  0  0  0
    8.3231   -2.8857   23.3077 H   0  0  0  0  0  0  0  0  0  0  0  0
    7.9635   -1.2359   23.8592 H   0  0  0  0  0  0  0  0  0  0  0  0
    5.2517   -3.2132   22.9875 C   0  0  0  0  0  0  0  0  0  0  0  0
    4.4548   -4.2244   22.5658 N   0  0  0  0  0  0  0  0  0  0  0  0
    3.8512   -4.9722   23.4917 C   0  0  0  0  0  0  0  0  0  0  0  0
    3.2184   -5.7865   23.1450 H   0  0  0  0  0  0  0  0  0  0  0  0
    3.9742   -4.7371   24.8670 C   0  0  0  0  0  0  0  0  0  0  0  0
    3.3257   -5.5201   25.7392 F   0  0  0  0  0  0  0  0  0  0  0  0
    4.7352   -3.6707   25.3302 C   0  0  0  0  0  0  0  0  0  0  0  0
    4.7862   -3.4544   26.3977 H   0  0  0  0  0  0  0  0  0  0  0  0
    5.3925   -2.9079   24.3613 C   0  0  0  0  0  0  0  0  0  0  0  0
    5.9782   -2.0488   24.6621 H   0  0  0  0  0  0  0  0  0  0  0  0
  1  2  1  0
  2  3  2  3
  3  4  1  0
  4  5  1  0
  5  6  2  0
  6  7  1  0
  6  8  1  0
  8  9  2  0
  9 10  1  0
  9 11  1  0
 11 12  1  0
 11 13  2  0
 13 14  1  0
  4 15  2  0
 15 16  1  0
 16 17  1  0
 16 18  1  0
 16 19  1  0
 19 20  1  0
 19 21  1  0
  2 22  1  0
 22 23  2  0
 23 24  1  0
 24 25  1  0
 24 26  2  0
 26 27  1  0
 26 28  1  0
 28 29  1  0
 28 30  2  0
 30 31  1  0
 19  3  1  0
 30 22  1  0
 13  5  1  0
M  END
>  <cnnaffinity>  (1) 
-5.20479

>  <filename>  (1) 
Fc1ccc(C=C2CCN=C2c2cccnc2)nc1

$$$$
