
     RDKit          3D

 42 45  0  0  0  0  0  0  0  0999 V2000
    4.5579    1.5283   27.7999 F   0  0  0  0  0  0  0  0  0  0  0  0
    5.6162    2.0352   27.1528 C   0  0  0  0  0  0  0  0  0  0  0  0
    6.2801    3.1185   27.7196 C   0  0  0  0  0  0  0  0  0  0  0  0
    7.3857    3.6097   27.0338 C   0  0  0  0  0  0  0  0  0  0  0  0
    8.0645    4.6368   27.5605 F   0  0  0  0  0  0  0  0  0  0  0  0
    7.8082    3.0844   25.8209 C   0  0  0  0  0  0  0  0  0  0  0  0
    7.0933    2.0134   25.2444 C   0  0  0  0  0  0  0  0  0  0  0  0
    7.5366    1.4851   23.9225 C   0  0  0  0  0  0  0  0  0  0  0  0
    6.9377    0.5097   23.2596 N   0  0  0  0  0  0  0  0  0  0  0  0
    7.7263    0.3340   22.1745 N   0  0  0  0  0  0  0  0  0  0  0  0
    7.3217   -0.5919   21.1149 C   0  0  0  0  0  0  0  0  0  0  0  0
    6.6543    0.0815   19.9282 C   0  0  0  0  0  0  0  0  0  0  0  0
    5.4417    0.7572   20.1153 C   0  0  0  0  0  0  0  0  0  0  0  0
    4.8369    1.3706   19.0167 C   0  0  0  0  0  0  0  0  0  0  0  0
    5.4627    1.2925   17.7698 C   0  0  0  0  0  0  0  0  0  0  0  0
    6.6190    0.6425   17.5669 N   0  0  0  0  0  0  0  0  0  0  0  0
    7.1889    0.0584   18.6299 C   0  0  0  0  0  0  0  0  0  0  0  0
    8.1225   -0.4659   18.4178 H   0  0  0  0  0  0  0  0  0  0  0  0
    5.0126    1.7665   16.8976 H   0  0  0  0  0  0  0  0  0  0  0  0
    3.9014    1.9107   19.1137 H   0  0  0  0  0  0  0  0  0  0  0  0
    4.9946    0.7974   21.1107 H   0  0  0  0  0  0  0  0  0  0  0  0
    6.6359   -1.3005   21.5912 H   0  0  0  0  0  0  0  0  0  0  0  0
    8.1907   -1.1696   20.7853 H   0  0  0  0  0  0  0  0  0  0  0  0
    8.7509    1.2158   22.2269 C   0  0  0  0  0  0  0  0  0  0  0  0
    9.9042    1.2426   21.2692 C   0  0  0  0  0  0  0  0  0  0  0  0
   11.0335    0.2831   21.6283 C   0  0  0  0  0  0  0  0  0  0  0  0
   12.0619    0.7146   22.4750 C   0  0  0  0  0  0  0  0  0  0  0  0
   13.0934   -0.1712   22.7968 C   0  0  0  0  0  0  0  0  0  0  0  0
   13.0893   -1.4485   22.2183 C   0  0  0  0  0  0  0  0  0  0  0  0
   12.0874   -1.8925   21.4484 N   0  0  0  0  0  0  0  0  0  0  0  0
   11.0861   -1.0461   21.1740 C   0  0  0  0  0  0  0  0  0  0  0  0
   10.2901   -1.4373   20.5370 H   0  0  0  0  0  0  0  0  0  0  0  0
   13.9298   -2.1256   22.3814 H   0  0  0  0  0  0  0  0  0  0  0  0
   13.8748    0.1183   23.4909 H   0  0  0  0  0  0  0  0  0  0  0  0
   12.0641    1.7512   22.8264 H   0  0  0  0  0  0  0  0  0  0  0  0
   10.2765    2.2728   21.2749 H   0  0  0  0  0  0  0  0  0  0  0  0
    9.5396    1.0408   20.2584 H   0  0  0  0  0  0  0  0  0  0  0  0
    8.6477    1.9692   23.2982 N   0  0  0  0  0  0  0  0  0  0  0  0
    5.9952    1.4631   25.9421 C   0  0  0  0  0  0  0  0  0  0  0  0
    5.4384    0.6074   25.5720 H   0  0  0  0  0  0  0  0  0  0  0  0
    8.6873    3.5048   25.3410 H   0  0  0  0  0  0  0  0  0  0  0  0
    5.9463    3.5661   28.6456 H   0  0  0  0  0  0  0  0  0  0  0  0
  1  2  1  0
  2  3  2  0
  3  4  1  0
  4  5  1  0
  4  6  2  0
  6  7  1  0
  7  8  1  0
  8  9  2  0
  9 10  1  0
 10 11  1  0
 11 12  1  0
 12 13  2  0
 13 14  1  0
 14 15  2  0
 15 16  1  0
 16 17  2  0
 17 18  1  0
 15 19  1  0
 14 20  1  0
 13 21  1  0
 11 22  1  0
 11 23  1  0
 10 24  1  0
 24 25  1  0
 25 26  1  0
 26 27  2  0
 27 28  1  0
 28 29  2  0
 29 30  1  0
 30 31  2  0
 31 32  1  0
 29 33  1  0
 28 34  1  0
 27 35  1  0
 25 36  1  0
 25 37  1  0
 24 38  2  0
  7 39  2  0
 39 40  1  0
  6 41  1  0
  3 42  1  0
 39  2  1  0
 38  8  1  0
 17 12  1  0
 31 26  1  0
M  END
>  <cnnaffinity>  (1) 
-6.47992

>  <filename>  (1) 
Fc1cc(F)cc(-c2nc(Cc3cccnc3)n(Cc3cccnc3)n2)c1

$$$$
