
     RDKit          3D

 37 41  0  0  0  0  0  0  0  0999 V2000
    6.4145    0.1331   24.8844 F   0  0  0  0  0  0  0  0  0  0  0  0
    6.6738    1.2130   24.1467 C   0  0  0  0  0  0  0  0  0  0  0  0
    6.4263    2.4805   24.6810 C   0  0  0  0  0  0  0  0  0  0  0  0
    6.6581    3.6135   24.0050 N   0  0  0  0  0  0  0  0  0  0  0  0
    7.1453    3.5104   22.7759 C   0  0  0  0  0  0  0  0  0  0  0  0
    7.4631    4.9904   21.9250 Cl  0  0  0  0  0  0  0  0  0  0  0  0
    7.4162    2.2954   22.1394 C   0  0  0  0  0  0  0  0  0  0  0  0
    7.1660    1.0931   22.8374 C   0  0  0  0  0  0  0  0  0  0  0  0
    7.4476   -0.2482   22.2854 C   0  0  0  0  0  0  0  0  0  0  0  0
    8.0308   -1.2245   22.9546 N   0  0  0  0  0  0  0  0  0  0  0  0
    8.1699   -2.1835   22.0194 C   0  0  0  0  0  0  0  0  0  0  0  0
    8.9155   -3.4575   22.2066 C   0  0  0  0  0  0  0  0  0  0  0  0
    8.2273   -4.7556   21.8796 C   0  0  0  0  0  0  0  0  0  0  0  0
    8.8418   -4.5783   23.2747 C   0  0  0  0  0  0  0  0  0  0  0  0
    8.8657   -5.7205   24.3066 C   0  0  0  0  0  0  0  0  0  0  0  0
    9.8167   -4.5631   24.4382 C   0  0  0  0  0  0  0  0  0  0  0  0
    9.6038   -3.7898   25.1805 H   0  0  0  0  0  0  0  0  0  0  0  0
   10.8761   -4.7225   24.2311 H   0  0  0  0  0  0  0  0  0  0  0  0
    9.2948   -6.6609   23.9560 H   0  0  0  0  0  0  0  0  0  0  0  0
    8.0234   -5.8362   24.9866 H   0  0  0  0  0  0  0  0  0  0  0  0
    7.1364   -4.7455   21.8847 H   0  0  0  0  0  0  0  0  0  0  0  0
    8.6179   -5.5227   21.2075 H   0  0  0  0  0  0  0  0  0  0  0  0
    9.9548   -3.2564   21.9346 H   0  0  0  0  0  0  0  0  0  0  0  0
    7.7446   -1.8656   20.8068 N   0  0  0  0  0  0  0  0  0  0  0  0
    7.2527   -0.6158   20.9824 N   0  0  0  0  0  0  0  0  0  0  0  0
    6.5858    0.0360   19.9134 C   0  0  0  0  0  0  0  0  0  0  0  0
    5.3735    0.6979   20.1246 C   0  0  0  0  0  0  0  0  0  0  0  0
    4.7915    1.3443   19.0367 C   0  0  0  0  0  0  0  0  0  0  0  0
    5.4319    1.3032   17.7942 C   0  0  0  0  0  0  0  0  0  0  0  0
    6.5827    0.6382   17.5827 N   0  0  0  0  0  0  0  0  0  0  0  0
    7.1353    0.0034   18.6176 C   0  0  0  0  0  0  0  0  0  0  0  0
    8.0595   -0.5413   18.4244 H   0  0  0  0  0  0  0  0  0  0  0  0
    5.0018    1.8134   16.9365 H   0  0  0  0  0  0  0  0  0  0  0  0
    3.8632    1.8919   19.1486 H   0  0  0  0  0  0  0  0  0  0  0  0
    4.9232    0.7286   21.1196 H   0  0  0  0  0  0  0  0  0  0  0  0
    7.8056    2.3070   21.1289 H   0  0  0  0  0  0  0  0  0  0  0  0
    6.0245    2.5559   25.6897 H   0  0  0  0  0  0  0  0  0  0  0  0
  1  2  1  0
  2  3  2  0
  3  4  1  0
  4  5  2  0
  5  6  1  0
  5  7  1  0
  7  8  2  0
  8  9  1  0
  9 10  2  0
 10 11  1  0
 11 12  1  0
 12 13  1  0
 13 14  1  0
 14 15  1  0
 15 16  1  0
 16 17  1  0
 16 18  1  0
 15 19  1  0
 15 20  1  0
 13 21  1  0
 13 22  1  0
 12 23  1  0
 11 24  2  0
 24 25  1  0
 25 26  1  0
 26 27  2  0
 27 28  1  0
 28 29  2  0
 29 30  1  0
 30 31  2  0
 31 32  1  0
 29 33  1  0
 28 34  1  0
 27 35  1  0
  7 36  1  0
  3 37  1  0
  8  2  1  0
 25  9  1  0
 31 26  1  0
 14 12  1  0
 16 14  1  0
M  END
>  <cnnaffinity>  (1) 
-6.35028

>  <filename>  (1) 
Fc1cnc(Cl)cc1-c1nc(C2CC23CC3)nn1-c1cccnc1

$$$$
