
     RDKit          3D

 45 48  0  0  0  0  0  0  0  0999 V2000
    7.3716    5.8773   26.4077 F   0  0  0  0  0  0  0  0  0  0  0  0
    7.7724    4.9239   25.5530 C   0  0  0  0  0  0  0  0  0  0  0  0
    7.7807    5.1852   24.1902 C   0  0  0  0  0  0  0  0  0  0  0  0
    8.1998    4.1828   23.3059 C   0  0  0  0  0  0  0  0  0  0  0  0
    8.6082    2.9209   23.7707 C   0  0  0  0  0  0  0  0  0  0  0  0
    9.0288    1.9011   22.9831 O   0  0  0  0  0  0  0  0  0  0  0  0
    9.0451    2.0066   21.5618 C   0  0  0  0  0  0  0  0  0  0  0  0
    9.4994    0.6502   21.0160 C   0  0  0  0  0  0  0  0  0  0  0  0
    8.6094   -0.4571   21.4560 C   0  0  0  0  0  0  0  0  0  0  0  0
    8.8329   -1.2833   22.4550 N   0  0  0  0  0  0  0  0  0  0  0  0
    7.6584   -1.9548   22.5703 C   0  0  0  0  0  0  0  0  0  0  0  0
    7.4070   -2.9480   23.6611 C   0  0  0  0  0  0  0  0  0  0  0  0
    8.5786   -3.9370   23.8709 C   0  0  0  0  0  0  0  0  0  0  0  0
    9.4299   -3.2786   24.9738 C   0  0  0  0  0  0  0  0  0  0  0  0
    8.6281   -2.2738   25.5647 O   0  0  0  0  0  0  0  0  0  0  0  0
    7.3207   -2.2592   25.0411 C   0  0  0  0  0  0  0  0  0  0  0  0
    6.6127   -2.7984   25.6966 H   0  0  0  0  0  0  0  0  0  0  0  0
    7.0065   -1.2083   25.0026 H   0  0  0  0  0  0  0  0  0  0  0  0
   10.3285   -2.7954   24.5696 H   0  0  0  0  0  0  0  0  0  0  0  0
    9.7575   -4.0094   25.7310 H   0  0  0  0  0  0  0  0  0  0  0  0
    8.1987   -4.9125   24.1942 H   0  0  0  0  0  0  0  0  0  0  0  0
    9.1641   -4.0985   22.9607 H   0  0  0  0  0  0  0  0  0  0  0  0
    6.4704   -3.4372   23.4022 H   0  0  0  0  0  0  0  0  0  0  0  0
    6.7373   -1.6186   21.6924 N   0  0  0  0  0  0  0  0  0  0  0  0
    7.3577   -0.6620   20.9457 N   0  0  0  0  0  0  0  0  0  0  0  0
    6.6592    0.0118   19.9024 C   0  0  0  0  0  0  0  0  0  0  0  0
    5.4394    0.6459   20.1657 C   0  0  0  0  0  0  0  0  0  0  0  0
    4.8129    1.3112   19.1082 C   0  0  0  0  0  0  0  0  0  0  0  0
    5.4007    1.2965   17.8368 C   0  0  0  0  0  0  0  0  0  0  0  0
    6.5589    0.6716   17.5747 N   0  0  0  0  0  0  0  0  0  0  0  0
    7.1678    0.0513   18.5918 C   0  0  0  0  0  0  0  0  0  0  0  0
    8.1120   -0.4378   18.3646 H   0  0  0  0  0  0  0  0  0  0  0  0
    4.9214    1.7871   16.9926 H   0  0  0  0  0  0  0  0  0  0  0  0
    3.8802    1.8395   19.2586 H   0  0  0  0  0  0  0  0  0  0  0  0
    5.0145    0.6079   21.1731 H   0  0  0  0  0  0  0  0  0  0  0  0
    9.5259    0.7061   19.9262 H   0  0  0  0  0  0  0  0  0  0  0  0
   10.5149    0.4264   21.3463 H   0  0  0  0  0  0  0  0  0  0  0  0
    8.0436    2.2550   21.1811 H   0  0  0  0  0  0  0  0  0  0  0  0
    9.7431    2.7925   21.2424 H   0  0  0  0  0  0  0  0  0  0  0  0
    8.5833    2.7001   25.1733 C   0  0  0  0  0  0  0  0  0  0  0  0
    9.0622    1.1707   25.8430 Cl  0  0  0  0  0  0  0  0  0  0  0  0
    8.1706    3.6934   26.0630 C   0  0  0  0  0  0  0  0  0  0  0  0
    8.1492    3.5221   27.1349 H   0  0  0  0  0  0  0  0  0  0  0  0
    8.2117    4.3857   22.2390 H   0  0  0  0  0  0  0  0  0  0  0  0
    7.4599    6.1587   23.8352 H   0  0  0  0  0  0  0  0  0  0  0  0
  1  2  1  0
  2  3  2  0
  3  4  1  0
  4  5  2  0
  5  6  1  0
  6  7  1  0
  7  8  1  0
  8  9  1  0
  9 10  2  0
 10 11  1  0
 11 12  1  0
 12 13  1  0
 13 14  1  0
 14 15  1  0
 15 16  1  0
 16 17  1  0
 16 18  1  0
 14 19  1  0
 14 20  1  0
 13 21  1  0
 13 22  1  0
 12 23  1  0
 11 24  2  0
 24 25  1  0
 25 26  1  0
 26 27  2  0
 27 28  1  0
 28 29  2  0
 29 30  1  0
 30 31  2  0
 31 32  1  0
 29 33  1  0
 28 34  1  0
 27 35  1  0
  8 36  1  0
  8 37  1  0
  7 38  1  0
  7 39  1  0
  5 40  1  0
 40 41  1  0
 40 42  2  0
 42 43  1  0
  4 44  1  0
  3 45  1  0
 42  2  1  0
 25  9  1  0
 31 26  1  0
 16 12  1  0
M  END
>  <cnnaffinity>  (1) 
-6.16876

>  <filename>  (1) 
Fc1ccc(OCCc2nc(C3CCOC3)nn2-c2cccnc2)c(Cl)c1

$$$$
