
     RDKit          3D

 41 44  0  0  0  0  0  0  0  0999 V2000
    3.6383    3.6268   23.6420 F   0  0  0  0  0  0  0  0  0  0  0  0
    4.6027    2.7571   23.9893 C   0  0  0  0  0  0  0  0  0  0  0  0
    4.5038    2.1037   25.2128 C   0  0  0  0  0  0  0  0  0  0  0  0
    5.4934    1.1739   25.5513 C   0  0  0  0  0  0  0  0  0  0  0  0
    6.5608    0.9272   24.6804 C   0  0  0  0  0  0  0  0  0  0  0  0
    6.6607    1.6200   23.4619 C   0  0  0  0  0  0  0  0  0  0  0  0
    7.8208    1.3367   22.5138 C   0  0  0  0  0  0  0  0  0  0  0  0
    7.8720   -0.0928   22.0790 C   0  0  0  0  0  0  0  0  0  0  0  0
    8.4564   -1.0510   22.7720 N   0  0  0  0  0  0  0  0  0  0  0  0
    8.2287   -2.1608   22.0300 C   0  0  0  0  0  0  0  0  0  0  0  0
    8.8046   -3.4743   22.4349 C   0  0  0  0  0  0  0  0  0  0  0  0
    8.8363   -3.8091   23.9479 C   0  0  0  0  0  0  0  0  0  0  0  0
    8.7121   -5.3513   23.9654 C   0  0  0  0  0  0  0  0  0  0  0  0
    8.5594   -5.7792   22.6198 O   0  0  0  0  0  0  0  0  0  0  0  0
    8.1004   -4.6983   21.8388 C   0  0  0  0  0  0  0  0  0  0  0  0
    7.0064   -4.5710   21.9183 H   0  0  0  0  0  0  0  0  0  0  0  0
    8.3730   -4.9233   20.8014 H   0  0  0  0  0  0  0  0  0  0  0  0
    9.6100   -5.8413   24.3550 H   0  0  0  0  0  0  0  0  0  0  0  0
    7.8488   -5.6749   24.5690 H   0  0  0  0  0  0  0  0  0  0  0  0
    9.7471   -3.4490   24.4425 H   0  0  0  0  0  0  0  0  0  0  0  0
    8.0000   -3.3449   24.4783 H   0  0  0  0  0  0  0  0  0  0  0  0
    9.8397   -3.4205   22.0998 H   0  0  0  0  0  0  0  0  0  0  0  0
    7.5893   -1.9451   20.8928 N   0  0  0  0  0  0  0  0  0  0  0  0
    7.3339   -0.6102   20.9396 N   0  0  0  0  0  0  0  0  0  0  0  0
    6.6260    0.0297   19.8803 C   0  0  0  0  0  0  0  0  0  0  0  0
    5.4219    0.6964   20.1233 C   0  0  0  0  0  0  0  0  0  0  0  0
    4.7926    1.3412   19.0524 C   0  0  0  0  0  0  0  0  0  0  0  0
    5.4013    1.3064   17.7953 C   0  0  0  0  0  0  0  0  0  0  0  0
    6.5410    0.6339   17.5496 N   0  0  0  0  0  0  0  0  0  0  0  0
    7.1291   -0.0035   18.5683 C   0  0  0  0  0  0  0  0  0  0  0  0
    8.0513   -0.5403   18.3471 H   0  0  0  0  0  0  0  0  0  0  0  0
    4.9672    1.8440   16.9536 H   0  0  0  0  0  0  0  0  0  0  0  0
    3.8555    1.8717   19.1843 H   0  0  0  0  0  0  0  0  0  0  0  0
    4.9941    0.6762   21.1247 H   0  0  0  0  0  0  0  0  0  0  0  0
    7.7813    2.0034   21.6476 H   0  0  0  0  0  0  0  0  0  0  0  0
    8.7746    1.5327   23.0149 H   0  0  0  0  0  0  0  0  0  0  0  0
    5.6599    2.5307   23.1089 C   0  0  0  0  0  0  0  0  0  0  0  0
    5.6618    3.0396   22.1483 H   0  0  0  0  0  0  0  0  0  0  0  0
    7.2998    0.1639   24.9150 H   0  0  0  0  0  0  0  0  0  0  0  0
    5.4276    0.6329   26.4923 H   0  0  0  0  0  0  0  0  0  0  0  0
    3.6549    2.3230   25.8538 H   0  0  0  0  0  0  0  0  0  0  0  0
  1  2  1  0
  2  3  2  0
  3  4  1  0
  4  5  2  0
  5  6  1  0
  6  7  1  0
  7  8  1  0
  8  9  2  0
  9 10  1  0
 10 11  1  0
 11 12  1  0
 12 13  1  0
 13 14  1  0
 14 15  1  0
 15 16  1  0
 15 17  1  0
 13 18  1  0
 13 19  1  0
 12 20  1  0
 12 21  1  0
 11 22  1  0
 10 23  2  0
 23 24  1  0
 24 25  1  0
 25 26  2  0
 26 27  1  0
 27 28  2  0
 28 29  1  0
 29 30  2  0
 30 31  1  0
 28 32  1  0
 27 33  1  0
 26 34  1  0
  7 35  1  0
  7 36  1  0
  6 37  2  0
 37 38  1  0
  5 39  1  0
  4 40  1  0
  3 41  1  0
 37  2  1  0
 24  8  1  0
 30 25  1  0
 15 11  1  0
M  END
>  <cnnaffinity>  (1) 
-5.82797

>  <filename>  (1) 
Fc1cccc(Cc2nc(C3CCOC3)nn2-c2cccnc2)c1

$$$$
