
     RDKit          3D

 42 45  0  0  0  0  0  0  0  0999 V2000
   14.5100   -1.7255   21.2231 F   0  0  0  0  0  0  0  0  0  0  0  0
   13.6825   -0.8243   21.7735 C   0  0  0  0  0  0  0  0  0  0  0  0
   14.2235    0.2768   22.4336 C   0  0  0  0  0  0  0  0  0  0  0  0
   13.3611    1.1788   23.0605 C   0  0  0  0  0  0  0  0  0  0  0  0
   11.9862    0.9843   22.9677 C   0  0  0  0  0  0  0  0  0  0  0  0
   11.4343   -0.0579   22.1862 C   0  0  0  0  0  0  0  0  0  0  0  0
    9.9512   -0.0358   22.0006 C   0  0  0  0  0  0  0  0  0  0  0  0
    9.1778   -0.9393   21.4142 N   0  0  0  0  0  0  0  0  0  0  0  0
    7.9279   -0.4132   21.5654 N   0  0  0  0  0  0  0  0  0  0  0  0
    6.7352   -0.9659   20.9267 C   0  0  0  0  0  0  0  0  0  0  0  0
    6.2108   -0.0957   19.7936 C   0  0  0  0  0  0  0  0  0  0  0  0
    5.0136    0.6292   19.8488 C   0  0  0  0  0  0  0  0  0  0  0  0
    4.6426    1.4078   18.7482 C   0  0  0  0  0  0  0  0  0  0  0  0
    5.4846    1.4432   17.6352 C   0  0  0  0  0  0  0  0  0  0  0  0
    6.6409    0.7678   17.5654 N   0  0  0  0  0  0  0  0  0  0  0  0
    6.9862    0.0340   18.6291 C   0  0  0  0  0  0  0  0  0  0  0  0
    7.9390   -0.4892   18.5568 H   0  0  0  0  0  0  0  0  0  0  0  0
    5.2223    2.0414   16.7641 H   0  0  0  0  0  0  0  0  0  0  0  0
    3.7299    1.9912   18.7466 H   0  0  0  0  0  0  0  0  0  0  0  0
    4.3849    0.6071   20.7414 H   0  0  0  0  0  0  0  0  0  0  0  0
    7.0111   -1.9572   20.5574 H   0  0  0  0  0  0  0  0  0  0  0  0
    5.9637   -1.1041   21.6963 H   0  0  0  0  0  0  0  0  0  0  0  0
    8.0057    0.7572   22.2366 C   0  0  0  0  0  0  0  0  0  0  0  0
    6.8998    1.5402   22.8885 C   0  0  0  0  0  0  0  0  0  0  0  0
    6.8216    1.1711   24.3988 C   0  0  0  0  0  0  0  0  0  0  0  0
    5.9618    2.0003   25.3080 C   0  0  0  0  0  0  0  0  0  0  0  0
    4.6766    1.7848   25.4161 N   0  0  0  0  0  0  0  0  0  0  0  0
    4.2300    2.6168   26.4194 O   0  0  0  0  0  0  0  0  0  0  0  0
    5.2644    3.3154   26.9041 C   0  0  0  0  0  0  0  0  0  0  0  0
    6.3961    2.9920   26.2394 C   0  0  0  0  0  0  0  0  0  0  0  0
    7.3944    3.3805   26.3653 H   0  0  0  0  0  0  0  0  0  0  0  0
    5.0446    3.9721   27.7362 H   0  0  0  0  0  0  0  0  0  0  0  0
    7.8440    1.2369   24.7926 H   0  0  0  0  0  0  0  0  0  0  0  0
    6.5119    0.1228   24.4994 H   0  0  0  0  0  0  0  0  0  0  0  0
    5.9445    1.4082   22.3697 H   0  0  0  0  0  0  0  0  0  0  0  0
    7.1911    2.5899   22.7771 H   0  0  0  0  0  0  0  0  0  0  0  0
    9.2634    1.0352   22.4865 N   0  0  0  0  0  0  0  0  0  0  0  0
   12.3065   -1.0142   21.6220 C   0  0  0  0  0  0  0  0  0  0  0  0
   11.9684   -1.8611   21.0322 H   0  0  0  0  0  0  0  0  0  0  0  0
   11.3134    1.6558   23.4910 H   0  0  0  0  0  0  0  0  0  0  0  0
   13.7465    2.0234   23.6331 H   0  0  0  0  0  0  0  0  0  0  0  0
   15.2873    0.4362   22.4226 H   0  0  0  0  0  0  0  0  0  0  0  0
  1  2  1  0
  2  3  2  0
  3  4  1  0
  4  5  2  0
  5  6  1  0
  6  7  1  0
  7  8  2  0
  8  9  1  0
  9 10  1  0
 10 11  1  0
 11 12  2  0
 12 13  1  0
 13 14  2  0
 14 15  1  0
 15 16  2  0
 16 17  1  0
 14 18  1  0
 13 19  1  0
 12 20  1  0
 10 21  1  0
 10 22  1  0
  9 23  1  0
 23 24  1  0
 24 25  1  0
 25 26  1  0
 26 27  2  0
 27 28  1  0
 28 29  1  0
 29 30  2  0
 30 31  1  0
 29 32  1  0
 25 33  1  0
 25 34  1  0
 24 35  1  0
 24 36  1  0
 23 37  2  0
  6 38  2  0
 38 39  1  0
  5 40  1  0
  4 41  1  0
  3 42  1  0
 38  2  1  0
 37  7  1  0
 16 11  1  0
 30 26  1  0
M  END
>  <cnnaffinity>  (1) 
-6.38088

>  <filename>  (1) 
Fc1cccc(-c2nc(CCc3ccon3)n(Cc3cccnc3)n2)c1

$$$$
