
     RDKit          3D

 47 50  0  0  0  0  0  0  0  0999 V2000
    6.9770    7.5047   23.6120 F   0  0  0  0  0  0  0  0  0  0  0  0
    7.4211    6.2569   23.4103 C   0  0  0  0  0  0  0  0  0  0  0  0
    6.5171    5.2219   23.1999 C   0  0  0  0  0  0  0  0  0  0  0  0
    7.0044    3.9259   23.0040 C   0  0  0  0  0  0  0  0  0  0  0  0
    8.3781    3.6573   23.0263 C   0  0  0  0  0  0  0  0  0  0  0  0
    8.8859    2.2696   22.7444 C   0  0  0  0  0  0  0  0  0  0  0  0
    9.0410    2.0193   21.2394 C   0  0  0  0  0  0  0  0  0  0  0  0
    9.5476    0.6056   20.9174 C   0  0  0  0  0  0  0  0  0  0  0  0
    8.6480   -0.4635   21.4171 C   0  0  0  0  0  0  0  0  0  0  0  0
    8.8736   -1.2712   22.4349 N   0  0  0  0  0  0  0  0  0  0  0  0
    7.6831   -1.9142   22.5786 C   0  0  0  0  0  0  0  0  0  0  0  0
    7.5094   -3.0114   23.5937 C   0  0  0  0  0  0  0  0  0  0  0  0
    7.7388   -4.4241   22.9956 C   0  0  0  0  0  0  0  0  0  0  0  0
    6.7811   -5.2961   23.8156 C   0  0  0  0  0  0  0  0  0  0  0  0
    5.6590   -4.3260   24.2135 C   0  0  0  0  0  0  0  0  0  0  0  0
    6.2095   -3.0202   24.1617 O   0  0  0  0  0  0  0  0  0  0  0  0
    4.7967   -4.3725   23.5323 H   0  0  0  0  0  0  0  0  0  0  0  0
    5.2966   -4.4820   25.2364 H   0  0  0  0  0  0  0  0  0  0  0  0
    6.3912   -6.1442   23.2478 H   0  0  0  0  0  0  0  0  0  0  0  0
    7.2793   -5.6926   24.7071 H   0  0  0  0  0  0  0  0  0  0  0  0
    7.4707   -4.4273   21.9312 H   0  0  0  0  0  0  0  0  0  0  0  0
    8.7885   -4.7287   23.0692 H   0  0  0  0  0  0  0  0  0  0  0  0
    8.2395   -2.7949   24.3840 H   0  0  0  0  0  0  0  0  0  0  0  0
    6.7604   -1.5868   21.6941 N   0  0  0  0  0  0  0  0  0  0  0  0
    7.3829   -0.6559   20.9332 N   0  0  0  0  0  0  0  0  0  0  0  0
    6.6670    0.0149   19.8990 C   0  0  0  0  0  0  0  0  0  0  0  0
    5.4429    0.6403   20.1652 C   0  0  0  0  0  0  0  0  0  0  0  0
    4.8130    1.3079   19.1095 C   0  0  0  0  0  0  0  0  0  0  0  0
    5.3997    1.2972   17.8364 C   0  0  0  0  0  0  0  0  0  0  0  0
    6.5586    0.6750   17.5719 N   0  0  0  0  0  0  0  0  0  0  0  0
    7.1707    0.0576   18.5886 C   0  0  0  0  0  0  0  0  0  0  0  0
    8.1129   -0.4351   18.3647 H   0  0  0  0  0  0  0  0  0  0  0  0
    4.9206    1.7881   16.9927 H   0  0  0  0  0  0  0  0  0  0  0  0
    3.8804    1.8377   19.2587 H   0  0  0  0  0  0  0  0  0  0  0  0
    5.0194    0.6006   21.1737 H   0  0  0  0  0  0  0  0  0  0  0  0
   10.5269    0.4307   21.3723 H   0  0  0  0  0  0  0  0  0  0  0  0
    9.6457    0.4906   19.8373 H   0  0  0  0  0  0  0  0  0  0  0  0
    8.0840    2.1966   20.7303 H   0  0  0  0  0  0  0  0  0  0  0  0
    9.7483    2.7465   20.8336 H   0  0  0  0  0  0  0  0  0  0  0  0
    8.2042    1.5262   23.1743 H   0  0  0  0  0  0  0  0  0  0  0  0
    9.8517    2.1112   23.2392 H   0  0  0  0  0  0  0  0  0  0  0  0
    9.2777    4.7146   23.2227 C   0  0  0  0  0  0  0  0  0  0  0  0
    8.7979    6.0038   23.4164 C   0  0  0  0  0  0  0  0  0  0  0  0
    9.6573    7.0125   23.6176 F   0  0  0  0  0  0  0  0  0  0  0  0
   10.3537    4.5633   23.2169 H   0  0  0  0  0  0  0  0  0  0  0  0
    6.3081    3.1126   22.8147 H   0  0  0  0  0  0  0  0  0  0  0  0
    5.4562    5.4509   23.1874 H   0  0  0  0  0  0  0  0  0  0  0  0
  1  2  1  0
  2  3  2  0
  3  4  1  0
  4  5  2  0
  5  6  1  0
  6  7  1  0
  7  8  1  0
  8  9  1  0
  9 10  2  0
 10 11  1  0
 11 12  1  0
 12 13  1  0
 13 14  1  0
 14 15  1  0
 15 16  1  0
 15 17  1  0
 15 18  1  0
 14 19  1  0
 14 20  1  0
 13 21  1  0
 13 22  1  0
 12 23  1  0
 11 24  2  0
 24 25  1  0
 25 26  1  0
 26 27  2  0
 27 28  1  0
 28 29  2  0
 29 30  1  0
 30 31  2  0
 31 32  1  0
 29 33  1  0
 28 34  1  0
 27 35  1  0
  8 36  1  0
  8 37  1  0
  7 38  1  0
  7 39  1  0
  6 40  1  0
  6 41  1  0
  5 42  1  0
 42 43  2  0
 43 44  1  0
 42 45  1  0
  4 46  1  0
  3 47  1  0
 43  2  1  0
 25  9  1  0
 31 26  1  0
 16 12  1  0
M  END
>  <cnnaffinity>  (1) 
-6.04876

>  <filename>  (1) 
Fc1ccc(CCCc2nc(C3CCCO3)nn2-c2cccnc2)cc1F

$$$$
