
     RDKit          3D

 38 42  0  0  0  0  0  0  0  0999 V2000
    5.4392    2.2431   25.8626 F   0  0  0  0  0  0  0  0  0  0  0  0
    6.0960    2.2461   24.6924 C   0  0  0  0  0  0  0  0  0  0  0  0
    6.4041    3.4634   24.0873 C   0  0  0  0  0  0  0  0  0  0  0  0
    7.1006    3.4627   22.8731 C   0  0  0  0  0  0  0  0  0  0  0  0
    7.4592    2.2548   22.2829 C   0  0  0  0  0  0  0  0  0  0  0  0
    8.1364    2.2689   21.1222 F   0  0  0  0  0  0  0  0  0  0  0  0
    7.1204    1.0264   22.8754 C   0  0  0  0  0  0  0  0  0  0  0  0
    7.4637   -0.2641   22.2621 C   0  0  0  0  0  0  0  0  0  0  0  0
    8.0289   -1.2472   22.9385 N   0  0  0  0  0  0  0  0  0  0  0  0
    8.2110   -2.1915   21.9930 C   0  0  0  0  0  0  0  0  0  0  0  0
    8.9492   -3.4679   22.1783 C   0  0  0  0  0  0  0  0  0  0  0  0
    8.2310   -4.7561   21.8471 C   0  0  0  0  0  0  0  0  0  0  0  0
    8.8552   -4.6085   23.2406 C   0  0  0  0  0  0  0  0  0  0  0  0
    8.8820   -5.7703   24.2548 C   0  0  0  0  0  0  0  0  0  0  0  0
    9.8149   -4.6068   24.4060 C   0  0  0  0  0  0  0  0  0  0  0  0
   10.8809   -4.7600   24.2368 H   0  0  0  0  0  0  0  0  0  0  0  0
    9.5659   -3.8998   25.1947 H   0  0  0  0  0  0  0  0  0  0  0  0
    9.3063   -6.7133   23.9052 H   0  0  0  0  0  0  0  0  0  0  0  0
    8.0463   -5.8573   24.9465 H   0  0  0  0  0  0  0  0  0  0  0  0
    8.5972   -5.5106   21.1454 H   0  0  0  0  0  0  0  0  0  0  0  0
    7.1399   -4.6800   21.8341 H   0  0  0  0  0  0  0  0  0  0  0  0
    9.9855   -3.2473   21.9011 H   0  0  0  0  0  0  0  0  0  0  0  0
    7.7951   -1.8690   20.7780 N   0  0  0  0  0  0  0  0  0  0  0  0
    7.2860   -0.6260   20.9540 N   0  0  0  0  0  0  0  0  0  0  0  0
    6.5983    0.0295   19.8930 C   0  0  0  0  0  0  0  0  0  0  0  0
    5.3858    0.6914   20.1210 C   0  0  0  0  0  0  0  0  0  0  0  0
    4.7842    1.3377   19.0392 C   0  0  0  0  0  0  0  0  0  0  0  0
    5.4160    1.3093   17.7918 C   0  0  0  0  0  0  0  0  0  0  0  0
    6.5702    0.6579   17.5638 N   0  0  0  0  0  0  0  0  0  0  0  0
    7.1367    0.0197   18.5921 C   0  0  0  0  0  0  0  0  0  0  0  0
    8.0656   -0.5076   18.3840 H   0  0  0  0  0  0  0  0  0  0  0  0
    4.9728    1.8167   16.9389 H   0  0  0  0  0  0  0  0  0  0  0  0
    3.8469    1.8703   19.1565 H   0  0  0  0  0  0  0  0  0  0  0  0
    4.9360    0.7141   21.1170 H   0  0  0  0  0  0  0  0  0  0  0  0
    6.4581    1.0360   24.1164 C   0  0  0  0  0  0  0  0  0  0  0  0
    6.2230    0.1044   24.6254 H   0  0  0  0  0  0  0  0  0  0  0  0
    7.3715    4.3856   22.3715 H   0  0  0  0  0  0  0  0  0  0  0  0
    6.1122    4.3878   24.5725 H   0  0  0  0  0  0  0  0  0  0  0  0
  1  2  1  0
  2  3  2  0
  3  4  1  0
  4  5  2  0
  5  6  1  0
  5  7  1  0
  7  8  1  0
  8  9  2  0
  9 10  1  0
 10 11  1  0
 11 12  1  0
 12 13  1  0
 13 14  1  0
 14 15  1  0
 15 16  1  0
 15 17  1  0
 14 18  1  0
 14 19  1  0
 12 20  1  0
 12 21  1  0
 11 22  1  0
 10 23  2  0
 23 24  1  0
 24 25  1  0
 25 26  2  0
 26 27  1  0
 27 28  2  0
 28 29  1  0
 29 30  2  0
 30 31  1  0
 28 32  1  0
 27 33  1  0
 26 34  1  0
  7 35  2  0
 35 36  1  0
  4 37  1  0
  3 38  1  0
 35  2  1  0
 24  8  1  0
 30 25  1  0
 13 11  1  0
 15 13  1  0
M  END
>  <cnnaffinity>  (1) 
-6.22173

>  <filename>  (1) 
Fc1ccc(F)c(-c2nc(C3CC34CC4)nn2-c2cccnc2)c1

$$$$
