
     RDKit          3D

 41 45  0  0  0  0  0  0  0  0999 V2000
   13.5079    1.5896   23.9998 F   0  0  0  0  0  0  0  0  0  0  0  0
   12.5198    1.2168   23.1771 C   0  0  0  0  0  0  0  0  0  0  0  0
   11.3467    1.9636   23.1316 C   0  0  0  0  0  0  0  0  0  0  0  0
   10.3202    1.5768   22.2586 C   0  0  0  0  0  0  0  0  0  0  0  0
   10.4726    0.4581   21.4331 C   0  0  0  0  0  0  0  0  0  0  0  0
    9.3727    0.0361   20.4817 C   0  0  0  0  0  0  0  0  0  0  0  0
    8.2980   -0.6881   21.1563 N   0  0  0  0  0  0  0  0  0  0  0  0
    8.6345   -1.6147   22.0655 N   0  0  0  0  0  0  0  0  0  0  0  0
    7.4754   -2.1300   22.4295 C   0  0  0  0  0  0  0  0  0  0  0  0
    7.4194   -3.2396   23.4017 C   0  0  0  0  0  0  0  0  0  0  0  0
    8.7507   -3.9165   23.7622 C   0  0  0  0  0  0  0  0  0  0  0  0
    7.7474   -4.6226   22.9172 C   0  0  0  0  0  0  0  0  0  0  0  0
    7.5552   -5.2829   21.6027 C   0  0  0  0  0  0  0  0  0  0  0  0
    7.1615   -5.9777   22.9123 C   0  0  0  0  0  0  0  0  0  0  0  0
    6.1095   -6.0797   23.1641 H   0  0  0  0  0  0  0  0  0  0  0  0
    7.8081   -6.7796   23.2666 H   0  0  0  0  0  0  0  0  0  0  0  0
    8.4405   -5.6273   21.0731 H   0  0  0  0  0  0  0  0  0  0  0  0
    6.7707   -4.8605   20.9665 H   0  0  0  0  0  0  0  0  0  0  0  0
    8.9292   -4.2605   24.7810 H   0  0  0  0  0  0  0  0  0  0  0  0
    9.6283   -3.5352   23.2402 H   0  0  0  0  0  0  0  0  0  0  0  0
    6.5963   -3.1479   24.1051 H   0  0  0  0  0  0  0  0  0  0  0  0
    6.4012   -1.5879   21.7999 N   0  0  0  0  0  0  0  0  0  0  0  0
    6.9499   -0.7198   20.9680 C   0  0  0  0  0  0  0  0  0  0  0  0
    6.2948    0.0318   19.8906 C   0  0  0  0  0  0  0  0  0  0  0  0
    5.1733    0.8535   20.0696 C   0  0  0  0  0  0  0  0  0  0  0  0
    4.6693    1.5155   18.9477 C   0  0  0  0  0  0  0  0  0  0  0  0
    5.2862    1.3241   17.7093 C   0  0  0  0  0  0  0  0  0  0  0  0
    6.3459    0.5240   17.5193 N   0  0  0  0  0  0  0  0  0  0  0  0
    6.8187   -0.1055   18.5957 C   0  0  0  0  0  0  0  0  0  0  0  0
    7.6681   -0.7672   18.4225 H   0  0  0  0  0  0  0  0  0  0  0  0
    4.9218    1.8361   16.8235 H   0  0  0  0  0  0  0  0  0  0  0  0
    3.8252    2.1938   19.0162 H   0  0  0  0  0  0  0  0  0  0  0  0
    4.7155    0.9920   21.0518 H   0  0  0  0  0  0  0  0  0  0  0  0
    9.7847   -0.6501   19.7336 H   0  0  0  0  0  0  0  0  0  0  0  0
    8.9382    0.9036   19.9796 H   0  0  0  0  0  0  0  0  0  0  0  0
   11.6449   -0.3102   21.5240 C   0  0  0  0  0  0  0  0  0  0  0  0
   12.6666    0.0739   22.3841 C   0  0  0  0  0  0  0  0  0  0  0  0
   13.7982   -0.6447   22.4372 F   0  0  0  0  0  0  0  0  0  0  0  0
   11.7808   -1.2226   20.9489 H   0  0  0  0  0  0  0  0  0  0  0  0
    9.3898    2.1407   22.2257 H   0  0  0  0  0  0  0  0  0  0  0  0
   11.2715    2.8405   23.7686 H   0  0  0  0  0  0  0  0  0  0  0  0
  1  2  1  0
  2  3  2  0
  3  4  1  0
  4  5  2  0
  5  6  1  0
  6  7  1  0
  7  8  1  0
  8  9  2  0
  9 10  1  0
 10 11  1  0
 11 12  1  0
 12 13  1  0
 13 14  1  0
 14 15  1  0
 14 16  1  0
 13 17  1  0
 13 18  1  0
 11 19  1  0
 11 20  1  0
 10 21  1  0
  9 22  1  0
 22 23  2  0
 23 24  1  0
 24 25  2  0
 25 26  1  0
 26 27  2  0
 27 28  1  0
 28 29  2  0
 29 30  1  0
 27 31  1  0
 26 32  1  0
 25 33  1  0
  6 34  1  0
  6 35  1  0
  5 36  1  0
 36 37  2  0
 37 38  1  0
 36 39  1  0
  4 40  1  0
  3 41  1  0
 37  2  1  0
 23  7  1  0
 29 24  1  0
 12 10  1  0
 14 12  1  0
M  END
>  <cnnaffinity>  (1) 
-6.5842

>  <filename>  (1) 
Fc1ccc(Cn2nc(C3CC34CC4)nc2-c2cccnc2)cc1F

$$$$
