
     RDKit          3D

 45 48  0  0  0  0  0  0  0  0999 V2000
    8.6908    4.7257   27.2126 F   0  0  0  0  0  0  0  0  0  0  0  0
    7.9314    3.7344   26.7284 C   0  0  0  0  0  0  0  0  0  0  0  0
    6.7371    3.4206   27.3692 C   0  0  0  0  0  0  0  0  0  0  0  0
    5.9057    2.4923   26.7504 C   0  0  0  0  0  0  0  0  0  0  0  0
    4.7221    2.2126   27.3120 F   0  0  0  0  0  0  0  0  0  0  0  0
    6.2379    1.8658   25.5569 C   0  0  0  0  0  0  0  0  0  0  0  0
    7.4788    2.1664   24.9566 C   0  0  0  0  0  0  0  0  0  0  0  0
    7.8580    1.5304   23.6695 C   0  0  0  0  0  0  0  0  0  0  0  0
    7.1702    0.5446   23.1129 N   0  0  0  0  0  0  0  0  0  0  0  0
    7.9016    0.2399   22.0216 N   0  0  0  0  0  0  0  0  0  0  0  0
    7.3896   -0.6887   21.0230 C   0  0  0  0  0  0  0  0  0  0  0  0
    6.6532   -0.0036   19.8828 C   0  0  0  0  0  0  0  0  0  0  0  0
    5.4404    0.6496   20.1359 C   0  0  0  0  0  0  0  0  0  0  0  0
    4.7983    1.3082   19.0835 C   0  0  0  0  0  0  0  0  0  0  0  0
    5.3931    1.2987   17.8185 C   0  0  0  0  0  0  0  0  0  0  0  0
    6.5516    0.6756   17.5563 N   0  0  0  0  0  0  0  0  0  0  0  0
    7.1577    0.0526   18.5743 C   0  0  0  0  0  0  0  0  0  0  0  0
    8.1035   -0.4307   18.3228 H   0  0  0  0  0  0  0  0  0  0  0  0
    4.9264    1.8108   16.9768 H   0  0  0  0  0  0  0  0  0  0  0  0
    3.8679    1.8467   19.2310 H   0  0  0  0  0  0  0  0  0  0  0  0
    5.0317    0.6475   21.1490 H   0  0  0  0  0  0  0  0  0  0  0  0
    6.7292   -1.3550   21.5846 H   0  0  0  0  0  0  0  0  0  0  0  0
    8.2298   -1.2819   20.6455 H   0  0  0  0  0  0  0  0  0  0  0  0
    8.9796    1.0471   21.9614 C   0  0  0  0  0  0  0  0  0  0  0  0
   10.0787    0.8421   20.9728 C   0  0  0  0  0  0  0  0  0  0  0  0
   11.0425   -0.3236   21.3407 C   0  0  0  0  0  0  0  0  0  0  0  0
   11.7530   -0.0455   22.6444 C   0  0  0  0  0  0  0  0  0  0  0  0
   11.2520   -0.5012   23.8716 C   0  0  0  0  0  0  0  0  0  0  0  0
   11.8944   -0.1307   25.0572 C   0  0  0  0  0  0  0  0  0  0  0  0
   12.9796    0.6526   25.0946 N   0  0  0  0  0  0  0  0  0  0  0  0
   13.4275    1.1187   23.9234 C   0  0  0  0  0  0  0  0  0  0  0  0
   12.8608    0.8080   22.6936 C   0  0  0  0  0  0  0  0  0  0  0  0
   13.2657    1.2800   21.8082 H   0  0  0  0  0  0  0  0  0  0  0  0
   14.2631    1.8034   23.9510 H   0  0  0  0  0  0  0  0  0  0  0  0
   11.5319   -0.4963   26.0169 H   0  0  0  0  0  0  0  0  0  0  0  0
   10.3847   -1.1522   23.9119 H   0  0  0  0  0  0  0  0  0  0  0  0
   10.4932   -1.2726   21.4097 H   0  0  0  0  0  0  0  0  0  0  0  0
   11.7759   -0.4794   20.5440 H   0  0  0  0  0  0  0  0  0  0  0  0
    9.6160    0.6843   19.9939 H   0  0  0  0  0  0  0  0  0  0  0  0
   10.6332    1.7841   20.9215 H   0  0  0  0  0  0  0  0  0  0  0  0
    8.9647    1.8970   22.9667 N   0  0  0  0  0  0  0  0  0  0  0  0
    8.3460    3.0951   25.5687 C   0  0  0  0  0  0  0  0  0  0  0  0
    9.3175    3.3504   25.1542 H   0  0  0  0  0  0  0  0  0  0  0  0
    5.5374    1.1681   25.1062 H   0  0  0  0  0  0  0  0  0  0  0  0
    6.4542    3.8904   28.2988 H   0  0  0  0  0  0  0  0  0  0  0  0
  1  2  1  0
  2  3  2  0
  3  4  1  0
  4  5  1  0
  4  6  2  0
  6  7  1  0
  7  8  1  0
  8  9  2  0
  9 10  1  0
 10 11  1  0
 11 12  1  0
 12 13  2  0
 13 14  1  0
 14 15  2  0
 15 16  1  0
 16 17  2  0
 17 18  1  0
 15 19  1  0
 14 20  1  0
 13 21  1  0
 11 22  1  0
 11 23  1  0
 10 24  1  0
 24 25  1  0
 25 26  1  0
 26 27  1  0
 27 28  2  0
 28 29  1  0
 29 30  2  0
 30 31  1  0
 31 32  2  0
 32 33  1  0
 31 34  1  0
 29 35  1  0
 28 36  1  0
 26 37  1  0
 26 38  1  0
 25 39  1  0
 25 40  1  0
 24 41  2  0
  7 42  2  0
 42 43  1  0
  6 44  1  0
  3 45  1  0
 42  2  1  0
 41  8  1  0
 17 12  1  0
 32 27  1  0
M  END
>  <cnnaffinity>  (1) 
-6.55246

>  <filename>  (1) 
Fc1cc(F)cc(-c2nc(CCc3ccncc3)n(Cc3cccnc3)n2)c1

$$$$
