
     RDKit          3D

 31 34  0  0  0  0  0  0  0  0999 V2000
    4.9713    1.8379   16.9413 H   0  0  0  0  0  0  0  0  0  0  0  0
    5.4122    1.3007   17.7751 C   0  0  0  0  0  0  0  0  0  0  0  0
    6.5619    0.6605   17.5182 N   0  0  0  0  0  0  0  0  0  0  0  0
    7.1414    0.0047   18.5284 C   0  0  0  0  0  0  0  0  0  0  0  0
    8.0945   -0.4705   18.3051 H   0  0  0  0  0  0  0  0  0  0  0  0
    6.6045   -0.0519   19.8292 C   0  0  0  0  0  0  0  0  0  0  0  0
    7.3551   -0.6819   20.9270 C   0  0  0  0  0  0  0  0  0  0  0  0
    8.4678   -1.3966   20.7011 N   0  0  0  0  0  0  0  0  0  0  0  0
    8.9077   -1.6601   21.9488 N   0  0  0  0  0  0  0  0  0  0  0  0
   10.0788   -2.1911   22.4750 C   0  0  0  0  0  0  0  0  0  0  0  0
   10.8133   -2.6160   21.8204 H   0  0  0  0  0  0  0  0  0  0  0  0
   10.0176   -2.0049   23.8150 C   0  0  0  0  0  0  0  0  0  0  0  0
   10.7210   -2.2220   24.6075 H   0  0  0  0  0  0  0  0  0  0  0  0
    8.7904   -1.3944   24.1247 N   0  0  0  0  0  0  0  0  0  0  0  0
    8.3267   -0.9854   25.3851 C   0  0  0  0  0  0  0  0  0  0  0  0
    9.2478   -0.8168   26.3402 N   0  0  0  0  0  0  0  0  0  0  0  0
    8.8618   -0.2570   27.4937 C   0  0  0  0  0  0  0  0  0  0  0  0
    9.6302   -0.0999   28.2481 H   0  0  0  0  0  0  0  0  0  0  0  0
    7.5416    0.1229   27.7379 C   0  0  0  0  0  0  0  0  0  0  0  0
    7.2141    0.7555   28.8728 F   0  0  0  0  0  0  0  0  0  0  0  0
    6.5491   -0.1659   26.8000 C   0  0  0  0  0  0  0  0  0  0  0  0
    5.5068    0.0711   27.0113 H   0  0  0  0  0  0  0  0  0  0  0  0
    6.9528   -0.7559   25.6051 C   0  0  0  0  0  0  0  0  0  0  0  0
    6.2474   -1.0415   24.8314 H   0  0  0  0  0  0  0  0  0  0  0  0
    8.1257   -1.1631   22.9221 C   0  0  0  0  0  0  0  0  0  0  0  0
    7.0645   -0.5212   22.3046 C   0  0  0  0  0  0  0  0  0  0  0  0
    6.2534    0.0407   22.7316 H   0  0  0  0  0  0  0  0  0  0  0  0
    5.3934    0.6186   20.0732 C   0  0  0  0  0  0  0  0  0  0  0  0
    4.9469    0.6447   21.0701 H   0  0  0  0  0  0  0  0  0  0  0  0
    4.7880    1.3032   19.0271 C   0  0  0  0  0  0  0  0  0  0  0  0
    3.8692    1.8581   19.1780 H   0  0  0  0  0  0  0  0  0  0  0  0
  1  2  1  0
  2  3  2  0
  3  4  1  0
  4  5  1  0
  4  6  2  0
  6  7  1  0
  7  8  2  0
  8  9  1  0
  9 10  1  0
 10 11  1  0
 10 12  2  0
 12 13  1  0
 12 14  1  0
 14 15  1  0
 15 16  2  0
 16 17  1  0
 17 18  1  0
 17 19  2  0
 19 20  1  0
 19 21  1  0
 21 22  1  0
 21 23  2  0
 23 24  1  0
 14 25  1  0
 25 26  2  0
 26 27  1  0
  6 28  1  0
 28 29  1  0
 28 30  2  0
 30 31  1  0
 30  2  1  0
 26  7  1  0
 25  9  1  0
 23 15  1  0
M  END
>  <cnnaffinity>  (1) 
-5.39016

>  <filename>  (1) 
Fc1ccc(-n2ccn3nc(-c4cccnc4)cc23)nc1

$$$$
