
     RDKit          3D

 42 45  0  0  0  0  0  0  0  0999 V2000
    7.2435    6.1233   26.0750 F   0  0  0  0  0  0  0  0  0  0  0  0
    7.6634    5.1250   25.2774 C   0  0  0  0  0  0  0  0  0  0  0  0
    7.7071    5.3203   23.9036 C   0  0  0  0  0  0  0  0  0  0  0  0
    8.1450    4.2785   23.0708 C   0  0  0  0  0  0  0  0  0  0  0  0
    8.5358    3.0476   23.6200 C   0  0  0  0  0  0  0  0  0  0  0  0
    8.9826    1.9778   22.9030 O   0  0  0  0  0  0  0  0  0  0  0  0
    9.0425    2.0138   21.4794 C   0  0  0  0  0  0  0  0  0  0  0  0
    9.5128    0.6363   21.0009 C   0  0  0  0  0  0  0  0  0  0  0  0
    8.6269   -0.4675   21.4539 C   0  0  0  0  0  0  0  0  0  0  0  0
    8.8622   -1.3135   22.4387 N   0  0  0  0  0  0  0  0  0  0  0  0
    7.6815   -1.9658   22.5635 C   0  0  0  0  0  0  0  0  0  0  0  0
    7.4233   -2.9620   23.6463 C   0  0  0  0  0  0  0  0  0  0  0  0
    6.8031   -4.2983   23.1570 C   0  0  0  0  0  0  0  0  0  0  0  0
    5.3047   -4.0447   24.1670 S   0  0  0  0  0  0  0  0  0  0  0  0
    6.2750   -2.5672   24.6236 C   0  0  0  0  0  0  0  0  0  0  0  0
    6.5574   -2.5449   25.6811 H   0  0  0  0  0  0  0  0  0  0  0  0
    5.7722   -1.6280   24.3735 H   0  0  0  0  0  0  0  0  0  0  0  0
    7.3652   -5.1926   23.4430 H   0  0  0  0  0  0  0  0  0  0  0  0
    6.5879   -4.3264   22.0838 H   0  0  0  0  0  0  0  0  0  0  0  0
    8.3729   -3.0977   24.1598 H   0  0  0  0  0  0  0  0  0  0  0  0
    6.7553   -1.6169   21.6945 N   0  0  0  0  0  0  0  0  0  0  0  0
    7.3710   -0.6617   20.9520 N   0  0  0  0  0  0  0  0  0  0  0  0
    6.6619    0.0073   19.9076 C   0  0  0  0  0  0  0  0  0  0  0  0
    5.4408    0.6392   20.1704 C   0  0  0  0  0  0  0  0  0  0  0  0
    4.8146    1.3074   19.1118 C   0  0  0  0  0  0  0  0  0  0  0  0
    5.4015    1.2957   17.8391 C   0  0  0  0  0  0  0  0  0  0  0  0
    6.5604    0.6718   17.5781 N   0  0  0  0  0  0  0  0  0  0  0  0
    7.1684    0.0514   18.5955 C   0  0  0  0  0  0  0  0  0  0  0  0
    8.1111   -0.4369   18.3657 H   0  0  0  0  0  0  0  0  0  0  0  0
    4.9214    1.7866   16.9943 H   0  0  0  0  0  0  0  0  0  0  0  0
    3.8818    1.8377   19.2604 H   0  0  0  0  0  0  0  0  0  0  0  0
    5.0129    0.6074   21.1771 H   0  0  0  0  0  0  0  0  0  0  0  0
   10.5144    0.4188   21.3710 H   0  0  0  0  0  0  0  0  0  0  0  0
    9.5651    0.6442   19.9103 H   0  0  0  0  0  0  0  0  0  0  0  0
    8.0561    2.2443   21.0499 H   0  0  0  0  0  0  0  0  0  0  0  0
    9.7537    2.7812   21.1459 H   0  0  0  0  0  0  0  0  0  0  0  0
    8.4823    2.8758   25.0199 C   0  0  0  0  0  0  0  0  0  0  0  0
    8.0474    3.9122   25.8498 C   0  0  0  0  0  0  0  0  0  0  0  0
    7.9955    3.8040   26.9295 H   0  0  0  0  0  0  0  0  0  0  0  0
    8.7844    1.9254   25.4479 H   0  0  0  0  0  0  0  0  0  0  0  0
    8.1848    4.4305   21.9961 H   0  0  0  0  0  0  0  0  0  0  0  0
    7.3983    6.2781   23.4946 H   0  0  0  0  0  0  0  0  0  0  0  0
  1  2  1  0
  2  3  2  0
  3  4  1  0
  4  5  2  0
  5  6  1  0
  6  7  1  0
  7  8  1  0
  8  9  1  0
  9 10  2  0
 10 11  1  0
 11 12  1  0
 12 13  1  0
 13 14  1  0
 14 15  1  0
 15 16  1  0
 15 17  1  0
 13 18  1  0
 13 19  1  0
 12 20  1  0
 11 21  2  0
 21 22  1  0
 22 23  1  0
 23 24  2  0
 24 25  1  0
 25 26  2  0
 26 27  1  0
 27 28  2  0
 28 29  1  0
 26 30  1  0
 25 31  1  0
 24 32  1  0
  8 33  1  0
  8 34  1  0
  7 35  1  0
  7 36  1  0
  5 37  1  0
 37 38  2  0
 38 39  1  0
 37 40  1  0
  4 41  1  0
  3 42  1  0
 38  2  1  0
 22  9  1  0
 28 23  1  0
 15 12  1  0
M  END
>  <cnnaffinity>  (1) 
-5.91759

>  <filename>  (1) 
Fc1ccc(OCCc2nc(C3CSC3)nn2-c2cccnc2)cc1

$$$$
