
     RDKit          3D

 45 48  0  0  0  0  0  0  0  0999 V2000
    8.5804    1.7363   27.0138 F   0  0  0  0  0  0  0  0  0  0  0  0
    8.6726    1.8506   25.6782 C   0  0  0  0  0  0  0  0  0  0  0  0
    7.5174    1.6685   24.9230 C   0  0  0  0  0  0  0  0  0  0  0  0
    7.5839    1.8062   23.5335 C   0  0  0  0  0  0  0  0  0  0  0  0
    8.7990    2.1703   22.9263 C   0  0  0  0  0  0  0  0  0  0  0  0
    8.9256    2.2338   21.1475 S   0  0  0  0  0  0  0  0  0  0  0  0
    9.5589    0.5345   20.8715 C   0  0  0  0  0  0  0  0  0  0  0  0
    8.6479   -0.5293   21.3757 C   0  0  0  0  0  0  0  0  0  0  0  0
    8.8802   -1.3468   22.3807 N   0  0  0  0  0  0  0  0  0  0  0  0
    7.6710   -1.9304   22.5821 C   0  0  0  0  0  0  0  0  0  0  0  0
    7.4094   -2.8346   23.7604 C   0  0  0  0  0  0  0  0  0  0  0  0
    6.4825   -4.0208   23.3951 C   0  0  0  0  0  0  0  0  0  0  0  0
    6.1187   -4.8241   24.6451 C   0  0  0  0  0  0  0  0  0  0  0  0
    5.5355   -4.0026   25.6409 O   0  0  0  0  0  0  0  0  0  0  0  0
    6.4129   -2.9878   26.0976 C   0  0  0  0  0  0  0  0  0  0  0  0
    6.8051   -2.0409   24.9612 C   0  0  0  0  0  0  0  0  0  0  0  0
    5.9073   -1.4915   24.6307 H   0  0  0  0  0  0  0  0  0  0  0  0
    7.5357   -1.3079   25.3277 H   0  0  0  0  0  0  0  0  0  0  0  0
    5.8725   -2.4591   26.8877 H   0  0  0  0  0  0  0  0  0  0  0  0
    7.3196   -3.4387   26.5476 H   0  0  0  0  0  0  0  0  0  0  0  0
    7.0229   -5.3242   25.0454 H   0  0  0  0  0  0  0  0  0  0  0  0
    5.3768   -5.5940   24.4201 H   0  0  0  0  0  0  0  0  0  0  0  0
    6.9713   -4.6762   22.6637 H   0  0  0  0  0  0  0  0  0  0  0  0
    5.5668   -3.6231   22.9291 H   0  0  0  0  0  0  0  0  0  0  0  0
    8.4070   -3.2034   24.0553 H   0  0  0  0  0  0  0  0  0  0  0  0
    6.7238   -1.5496   21.7388 N   0  0  0  0  0  0  0  0  0  0  0  0
    7.3688   -0.6703   20.9324 N   0  0  0  0  0  0  0  0  0  0  0  0
    6.6704    0.0009   19.8948 C   0  0  0  0  0  0  0  0  0  0  0  0
    5.4540    0.6372   20.1574 C   0  0  0  0  0  0  0  0  0  0  0  0
    4.8126    1.3060   19.1096 C   0  0  0  0  0  0  0  0  0  0  0  0
    5.3972    1.2923   17.8402 C   0  0  0  0  0  0  0  0  0  0  0  0
    6.5504    0.6603   17.5753 N   0  0  0  0  0  0  0  0  0  0  0  0
    7.1693    0.0354   18.5838 C   0  0  0  0  0  0  0  0  0  0  0  0
    8.1060   -0.4635   18.3385 H   0  0  0  0  0  0  0  0  0  0  0  0
    4.9309    1.8021   17.0003 H   0  0  0  0  0  0  0  0  0  0  0  0
    3.8799    1.8368   19.2641 H   0  0  0  0  0  0  0  0  0  0  0  0
    5.0264    0.5951   21.1585 H   0  0  0  0  0  0  0  0  0  0  0  0
   10.5370    0.4082   21.3441 H   0  0  0  0  0  0  0  0  0  0  0  0
    9.6500    0.4336   19.7950 H   0  0  0  0  0  0  0  0  0  0  0  0
    9.9491    2.3474   23.7108 C   0  0  0  0  0  0  0  0  0  0  0  0
    9.9031    2.1401   25.0937 C   0  0  0  0  0  0  0  0  0  0  0  0
   10.7992    2.1315   25.7004 H   0  0  0  0  0  0  0  0  0  0  0  0
   10.8845    2.6167   23.2206 H   0  0  0  0  0  0  0  0  0  0  0  0
    6.7225    1.5799   22.9021 H   0  0  0  0  0  0  0  0  0  0  0  0
    6.6155    1.3617   25.4423 H   0  0  0  0  0  0  0  0  0  0  0  0
  1  2  1  0
  2  3  2  0
  3  4  1  0
  4  5  2  0
  5  6  1  0
  6  7  1  0
  7  8  1  0
  8  9  2  0
  9 10  1  0
 10 11  1  0
 11 12  1  0
 12 13  1  0
 13 14  1  0
 14 15  1  0
 15 16  1  0
 16 17  1  0
 16 18  1  0
 15 19  1  0
 15 20  1  0
 13 21  1  0
 13 22  1  0
 12 23  1  0
 12 24  1  0
 11 25  1  0
 10 26  2  0
 26 27  1  0
 27 28  1  0
 28 29  2  0
 29 30  1  0
 30 31  2  0
 31 32  1  0
 32 33  2  0
 33 34  1  0
 31 35  1  0
 30 36  1  0
 29 37  1  0
  7 38  1  0
  7 39  1  0
  5 40  1  0
 40 41  2  0
 41 42  1  0
 40 43  1  0
  4 44  1  0
  3 45  1  0
 41  2  1  0
 27  8  1  0
 33 28  1  0
 16 11  1  0
M  END
>  <cnnaffinity>  (1) 
-5.91938

>  <filename>  (1) 
Fc1ccc(SCc2nc(C3CCOCC3)nn2-c2cccnc2)cc1

$$$$
