
     RDKit          3D

 30 32  0  0  0  0  0  0  0  0999 V2000
    4.9271    1.8172   16.9245 H   0  0  0  0  0  0  0  0  0  0  0  0
    5.3965    1.3365   17.7823 C   0  0  0  0  0  0  0  0  0  0  0  0
    6.5539    0.6960   17.5500 N   0  0  0  0  0  0  0  0  0  0  0  0
    7.1343    0.0830   18.5894 C   0  0  0  0  0  0  0  0  0  0  0  0
    8.0657   -0.4418   18.3680 H   0  0  0  0  0  0  0  0  0  0  0  0
    6.6310    0.1006   19.9099 C   0  0  0  0  0  0  0  0  0  0  0  0
    7.3159   -0.6184   21.0390 C   0  0  0  0  0  0  0  0  0  0  0  0
    7.7393   -0.0265   22.2667 C   0  0  0  0  0  0  0  0  0  0  0  0
    7.5300    1.4319   22.6047 C   0  0  0  0  0  0  0  0  0  0  0  0
    7.9672    2.4822   21.7707 C   0  0  0  0  0  0  0  0  0  0  0  0
    8.4583    2.2906   20.8201 H   0  0  0  0  0  0  0  0  0  0  0  0
    7.7219    3.7983   22.1661 C   0  0  0  0  0  0  0  0  0  0  0  0
    8.1559    4.8153   21.4099 F   0  0  0  0  0  0  0  0  0  0  0  0
    7.0413    4.1333   23.3307 C   0  0  0  0  0  0  0  0  0  0  0  0
    6.8350    5.1655   23.5920 H   0  0  0  0  0  0  0  0  0  0  0  0
    6.5998    3.0771   24.1143 C   0  0  0  0  0  0  0  0  0  0  0  0
    5.8795    3.3570   25.2091 F   0  0  0  0  0  0  0  0  0  0  0  0
    6.8581    1.7505   23.8008 C   0  0  0  0  0  0  0  0  0  0  0  0
    6.5531    0.9745   24.4960 H   0  0  0  0  0  0  0  0  0  0  0  0
    8.3638   -0.7378   23.2264 N   0  0  0  0  0  0  0  0  0  0  0  0
    8.5869   -2.0352   23.0296 C   0  0  0  0  0  0  0  0  0  0  0  0
    9.1021   -2.5597   23.8324 H   0  0  0  0  0  0  0  0  0  0  0  0
    8.1615   -2.7210   21.8922 C   0  0  0  0  0  0  0  0  0  0  0  0
    8.3665   -3.7796   21.7849 H   0  0  0  0  0  0  0  0  0  0  0  0
    7.4893   -2.0072   20.9083 C   0  0  0  0  0  0  0  0  0  0  0  0
    7.0620   -2.5315   20.0578 H   0  0  0  0  0  0  0  0  0  0  0  0
    5.4226    0.7745   20.1237 C   0  0  0  0  0  0  0  0  0  0  0  0
    4.9974    0.8042   21.1292 H   0  0  0  0  0  0  0  0  0  0  0  0
    4.7906    1.3858   19.0401 C   0  0  0  0  0  0  0  0  0  0  0  0
    3.8376    1.8848   19.1567 H   0  0  0  0  0  0  0  0  0  0  0  0
  1  2  1  0
  2  3  2  0
  3  4  1  0
  4  5  1  0
  4  6  2  0
  6  7  1  0
  7  8  1  0
  8  9  1  0
  9 10  2  0
 10 11  1  0
 10 12  1  0
 12 13  1  0
 12 14  2  0
 14 15  1  0
 14 16  1  0
 16 17  1  0
 16 18  2  0
 18 19  1  0
  8 20  2  0
 20 21  1  0
 21 22  1  0
 21 23  2  0
 23 24  1  0
 23 25  1  0
 25 26  1  0
  6 27  1  0
 27 28  1  0
 27 29  2  0
 29 30  1  0
 29  2  1  0
 25  7  2  0
 18  9  1  0
M  END
>  <cnnaffinity>  (1) 
-4.6269

>  <filename>  (1) 
Fc1cc(F)cc(-c2ncccc2-c2cccnc2)c1

$$$$
