
     RDKit          3D

 41 44  0  0  0  0  0  0  0  0999 V2000
    9.8238    1.5306   24.4275 F   0  0  0  0  0  0  0  0  0  0  0  0
    8.5699    1.4734   24.9106 C   0  0  0  0  0  0  0  0  0  0  0  0
    8.4158    1.3997   26.2901 C   0  0  0  0  0  0  0  0  0  0  0  0
    7.1269    1.3686   26.8255 C   0  0  0  0  0  0  0  0  0  0  0  0
    6.0181    1.3687   25.9772 C   0  0  0  0  0  0  0  0  0  0  0  0
    6.2312    1.4039   24.5974 C   0  0  0  0  0  0  0  0  0  0  0  0
    5.1487    1.3696   23.7922 F   0  0  0  0  0  0  0  0  0  0  0  0
    7.5001    1.4571   24.0070 C   0  0  0  0  0  0  0  0  0  0  0  0
    7.7256    1.3037   22.5090 C   0  0  0  0  0  0  0  0  0  0  0  0
    7.7159   -0.1383   22.0781 C   0  0  0  0  0  0  0  0  0  0  0  0
    8.2861   -1.1013   22.7783 N   0  0  0  0  0  0  0  0  0  0  0  0
    8.1723   -2.1798   21.9852 C   0  0  0  0  0  0  0  0  0  0  0  0
    8.7865   -3.4820   22.3661 C   0  0  0  0  0  0  0  0  0  0  0  0
    8.8676   -3.8780   23.8634 C   0  0  0  0  0  0  0  0  0  0  0  0
    8.7013   -5.4151   23.8326 C   0  0  0  0  0  0  0  0  0  0  0  0
    8.5867   -5.7842   22.4664 O   0  0  0  0  0  0  0  0  0  0  0  0
    8.0638   -4.6825   21.7591 C   0  0  0  0  0  0  0  0  0  0  0  0
    8.2530   -4.8172   20.6887 H   0  0  0  0  0  0  0  0  0  0  0  0
    6.9760   -4.6008   21.9198 H   0  0  0  0  0  0  0  0  0  0  0  0
    9.5191   -6.0041   24.2632 H   0  0  0  0  0  0  0  0  0  0  0  0
    7.7939   -5.6912   24.3867 H   0  0  0  0  0  0  0  0  0  0  0  0
    9.8071   -3.5565   24.3210 H   0  0  0  0  0  0  0  0  0  0  0  0
    8.0455   -3.4352   24.4318 H   0  0  0  0  0  0  0  0  0  0  0  0
    9.8028   -3.4044   21.9833 H   0  0  0  0  0  0  0  0  0  0  0  0
    7.5927   -1.9579   20.8145 N   0  0  0  0  0  0  0  0  0  0  0  0
    7.2725   -0.6398   20.8871 N   0  0  0  0  0  0  0  0  0  0  0  0
    6.5733    0.0063   19.8268 C   0  0  0  0  0  0  0  0  0  0  0  0
    5.3817    0.6988   20.0683 C   0  0  0  0  0  0  0  0  0  0  0  0
    4.7666    1.3620   18.9994 C   0  0  0  0  0  0  0  0  0  0  0  0
    5.3785    1.3277   17.7435 C   0  0  0  0  0  0  0  0  0  0  0  0
    6.5090    0.6409   17.5018 N   0  0  0  0  0  0  0  0  0  0  0  0
    7.0805   -0.0190   18.5150 C   0  0  0  0  0  0  0  0  0  0  0  0
    7.9888   -0.5708   18.2808 H   0  0  0  0  0  0  0  0  0  0  0  0
    4.9511    1.8694   16.9008 H   0  0  0  0  0  0  0  0  0  0  0  0
    3.8424    1.9099   19.1348 H   0  0  0  0  0  0  0  0  0  0  0  0
    4.9507    0.7160   21.0703 H   0  0  0  0  0  0  0  0  0  0  0  0
    6.9986    1.8866   21.9390 H   0  0  0  0  0  0  0  0  0  0  0  0
    8.7161    1.6993   22.2556 H   0  0  0  0  0  0  0  0  0  0  0  0
    5.0025    1.3255   26.3540 H   0  0  0  0  0  0  0  0  0  0  0  0
    6.9947    1.3390   27.9043 H   0  0  0  0  0  0  0  0  0  0  0  0
    9.3074    1.3272   26.8883 H   0  0  0  0  0  0  0  0  0  0  0  0
  1  2  1  0
  2  3  2  0
  3  4  1  0
  4  5  2  0
  5  6  1  0
  6  7  1  0
  6  8  2  0
  8  9  1  0
  9 10  1  0
 10 11  2  0
 11 12  1  0
 12 13  1  0
 13 14  1  0
 14 15  1  0
 15 16  1  0
 16 17  1  0
 17 18  1  0
 17 19  1  0
 15 20  1  0
 15 21  1  0
 14 22  1  0
 14 23  1  0
 13 24  1  0
 12 25  2  0
 25 26  1  0
 26 27  1  0
 27 28  2  0
 28 29  1  0
 29 30  2  0
 30 31  1  0
 31 32  2  0
 32 33  1  0
 30 34  1  0
 29 35  1  0
 28 36  1  0
  9 37  1  0
  9 38  1  0
  5 39  1  0
  4 40  1  0
  3 41  1  0
  8  2  1  0
 26 10  1  0
 32 27  1  0
 17 13  1  0
M  END
>  <cnnaffinity>  (1) 
-6.06894

>  <filename>  (1) 
Fc1cccc(F)c1Cc1nc(C2CCOC2)nn1-c1cccnc1

$$$$
