
     RDKit          3D

 32 34  0  0  0  0  0  0  0  0999 V2000
    8.0474    1.1500   25.7249 F   0  0  0  0  0  0  0  0  0  0  0  0
    8.9465    1.6180   24.8482 C   0  0  0  0  0  0  0  0  0  0  0  0
   10.2178    1.9657   25.3128 C   0  0  0  0  0  0  0  0  0  0  0  0
   11.1578    2.4946   24.5191 N   0  0  0  0  0  0  0  0  0  0  0  0
   10.8476    2.6703   23.2303 C   0  0  0  0  0  0  0  0  0  0  0  0
    9.6010    2.3069   22.7028 C   0  0  0  0  0  0  0  0  0  0  0  0
    9.3042    2.5369   21.0239 Cl  0  0  0  0  0  0  0  0  0  0  0  0
    8.5967    1.7470   23.5033 C   0  0  0  0  0  0  0  0  0  0  0  0
    7.3011    1.1994   22.9123 C   0  0  0  0  0  0  0  0  0  0  0  0
    7.5171   -0.1527   22.2895 C   0  0  0  0  0  0  0  0  0  0  0  0
    8.0929   -1.1079   22.9880 N   0  0  0  0  0  0  0  0  0  0  0  0
    8.2590   -2.1090   22.0946 C   0  0  0  0  0  0  0  0  0  0  0  0
    8.9847   -3.4022   22.4054 C   0  0  0  0  0  0  0  0  0  0  0  0
    8.4458   -4.0979   23.4438 F   0  0  0  0  0  0  0  0  0  0  0  0
   10.2873   -3.1557   22.7208 F   0  0  0  0  0  0  0  0  0  0  0  0
    8.9320   -4.0192   21.5092 H   0  0  0  0  0  0  0  0  0  0  0  0
    7.8120   -1.8450   20.8771 N   0  0  0  0  0  0  0  0  0  0  0  0
    7.2915   -0.5983   21.0007 N   0  0  0  0  0  0  0  0  0  0  0  0
    6.6199    0.0276   19.9064 C   0  0  0  0  0  0  0  0  0  0  0  0
    5.4016    0.6833   20.1149 C   0  0  0  0  0  0  0  0  0  0  0  0
    4.8022    1.3276   19.0282 C   0  0  0  0  0  0  0  0  0  0  0  0
    5.4307    1.2958   17.7824 C   0  0  0  0  0  0  0  0  0  0  0  0
    6.5768    0.6277   17.5634 N   0  0  0  0  0  0  0  0  0  0  0  0
    7.1473   -0.0020   18.5984 C   0  0  0  0  0  0  0  0  0  0  0  0
    8.0634   -0.5433   18.3736 H   0  0  0  0  0  0  0  0  0  0  0  0
    4.9993    1.8252   16.9321 H   0  0  0  0  0  0  0  0  0  0  0  0
    3.8681    1.8615   19.1475 H   0  0  0  0  0  0  0  0  0  0  0  0
    4.9263    0.6688   21.0956 H   0  0  0  0  0  0  0  0  0  0  0  0
    6.9207    1.9143   22.1803 H   0  0  0  0  0  0  0  0  0  0  0  0
    6.5646    1.0770   23.7122 H   0  0  0  0  0  0  0  0  0  0  0  0
   11.6038    3.1062   22.5821 H   0  0  0  0  0  0  0  0  0  0  0  0
   10.4665    1.8153   26.3568 H   0  0  0  0  0  0  0  0  0  0  0  0
  1  2  1  0
  2  3  2  0
  3  4  1  0
  4  5  2  0
  5  6  1  0
  6  7  1  0
  6  8  2  0
  8  9  1  0
  9 10  1  0
 10 11  2  0
 11 12  1  0
 12 13  1  0
 13 14  1  0
 13 15  1  0
 13 16  1  0
 12 17  2  0
 17 18  1  0
 18 19  1  0
 19 20  2  0
 20 21  1  0
 21 22  2  0
 22 23  1  0
 23 24  2  0
 24 25  1  0
 22 26  1  0
 21 27  1  0
 20 28  1  0
  9 29  1  0
  9 30  1  0
  5 31  1  0
  3 32  1  0
  8  2  1  0
 18 10  1  0
 24 19  1  0
M  END
>  <cnnaffinity>  (1) 
-6.18429

>  <filename>  (1) 
Fc1cncc(Cl)c1Cc1nc(C(F)F)nn1-c1cccnc1

$$$$
