
     RDKit          3D

 44 47  0  0  0  0  0  0  0  0999 V2000
    5.6353    3.7655   23.0331 F   0  0  0  0  0  0  0  0  0  0  0  0
    6.7562    4.4744   22.7863 C   0  0  0  0  0  0  0  0  0  0  0  0
    6.6886    5.4889   21.8330 C   0  0  0  0  0  0  0  0  0  0  0  0
    7.8438    6.2327   21.5733 C   0  0  0  0  0  0  0  0  0  0  0  0
    9.0462    5.9241   22.2121 C   0  0  0  0  0  0  0  0  0  0  0  0
    9.0570    4.8742   23.1256 C   0  0  0  0  0  0  0  0  0  0  0  0
   10.2298    4.5350   23.6982 F   0  0  0  0  0  0  0  0  0  0  0  0
    7.9202    4.1428   23.4876 C   0  0  0  0  0  0  0  0  0  0  0  0
    7.9890    3.0012   24.4791 C   0  0  0  0  0  0  0  0  0  0  0  0
    8.3291    1.6776   23.7867 C   0  0  0  0  0  0  0  0  0  0  0  0
    7.2166    1.2370   22.8096 C   0  0  0  0  0  0  0  0  0  0  0  0
    7.4209   -0.1345   22.2792 C   0  0  0  0  0  0  0  0  0  0  0  0
    7.9400   -1.1061   23.0050 N   0  0  0  0  0  0  0  0  0  0  0  0
    8.1827   -2.0743   22.0981 C   0  0  0  0  0  0  0  0  0  0  0  0
    8.9810   -3.2762   22.4396 C   0  0  0  0  0  0  0  0  0  0  0  0
   10.3525   -2.9257   23.1024 C   0  0  0  0  0  0  0  0  0  0  0  0
   10.0756   -4.1385   24.4378 S   0  0  0  0  0  0  0  0  0  0  0  0
    8.4636   -4.1829   23.5883 C   0  0  0  0  0  0  0  0  0  0  0  0
    8.1746   -5.1931   23.2816 H   0  0  0  0  0  0  0  0  0  0  0  0
    7.6636   -3.7459   24.1965 H   0  0  0  0  0  0  0  0  0  0  0  0
   11.2563   -3.0982   22.5076 H   0  0  0  0  0  0  0  0  0  0  0  0
   10.3941   -1.8997   23.4986 H   0  0  0  0  0  0  0  0  0  0  0  0
    9.0384   -3.8245   21.4979 H   0  0  0  0  0  0  0  0  0  0  0  0
    7.8032   -1.7998   20.8678 N   0  0  0  0  0  0  0  0  0  0  0  0
    7.2522   -0.5622   20.9893 N   0  0  0  0  0  0  0  0  0  0  0  0
    6.5847    0.0455   19.8940 C   0  0  0  0  0  0  0  0  0  0  0  0
    5.3735    0.7213   20.0866 C   0  0  0  0  0  0  0  0  0  0  0  0
    4.7951    1.3637   18.9906 C   0  0  0  0  0  0  0  0  0  0  0  0
    5.4401    1.3014   17.7536 C   0  0  0  0  0  0  0  0  0  0  0  0
    6.5780    0.6125   17.5514 N   0  0  0  0  0  0  0  0  0  0  0  0
    7.1242   -0.0188   18.5951 C   0  0  0  0  0  0  0  0  0  0  0  0
    8.0297   -0.5916   18.4008 H   0  0  0  0  0  0  0  0  0  0  0  0
    5.0196    1.8029   16.8848 H   0  0  0  0  0  0  0  0  0  0  0  0
    3.8612    1.9040   19.0923 H   0  0  0  0  0  0  0  0  0  0  0  0
    4.9000    0.7285   21.0680 H   0  0  0  0  0  0  0  0  0  0  0  0
    6.2516    1.2463   23.3343 H   0  0  0  0  0  0  0  0  0  0  0  0
    7.1447    1.9406   21.9710 H   0  0  0  0  0  0  0  0  0  0  0  0
    8.4935    0.8922   24.5360 H   0  0  0  0  0  0  0  0  0  0  0  0
    9.2874    1.7876   23.2575 H   0  0  0  0  0  0  0  0  0  0  0  0
    7.0277    2.9119   24.9986 H   0  0  0  0  0  0  0  0  0  0  0  0
    8.7368    3.2230   25.2479 H   0  0  0  0  0  0  0  0  0  0  0  0
    9.9821    6.4240   21.9818 H   0  0  0  0  0  0  0  0  0  0  0  0
    7.7956    7.0641   20.8781 H   0  0  0  0  0  0  0  0  0  0  0  0
    5.7486    5.6612   21.3222 H   0  0  0  0  0  0  0  0  0  0  0  0
  1  2  1  0
  2  3  2  0
  3  4  1  0
  4  5  2  0
  5  6  1  0
  6  7  1  0
  6  8  2  0
  8  9  1  0
  9 10  1  0
 10 11  1  0
 11 12  1  0
 12 13  2  0
 13 14  1  0
 14 15  1  0
 15 16  1  0
 16 17  1  0
 17 18  1  0
 18 19  1  0
 18 20  1  0
 16 21  1  0
 16 22  1  0
 15 23  1  0
 14 24  2  0
 24 25  1  0
 25 26  1  0
 26 27  2  0
 27 28  1  0
 28 29  2  0
 29 30  1  0
 30 31  2  0
 31 32  1  0
 29 33  1  0
 28 34  1  0
 27 35  1  0
 11 36  1  0
 11 37  1  0
 10 38  1  0
 10 39  1  0
  9 40  1  0
  9 41  1  0
  5 42  1  0
  4 43  1  0
  3 44  1  0
  8  2  1  0
 25 12  1  0
 31 26  1  0
 18 15  1  0
M  END
>  <cnnaffinity>  (1) 
-6.27688

>  <filename>  (1) 
Fc1cccc(F)c1CCCc1nc(C2CSC2)nn1-c1cccnc1

$$$$
