
     RDKit          3D

 45 48  0  0  0  0  0  0  0  0999 V2000
   14.7365   -1.7257   20.8810 F   0  0  0  0  0  0  0  0  0  0  0  0
   13.9176   -0.9237   21.5651 C   0  0  0  0  0  0  0  0  0  0  0  0
   14.4152    0.1399   22.3324 C   0  0  0  0  0  0  0  0  0  0  0  0
   13.6275    0.9542   23.0411 N   0  0  0  0  0  0  0  0  0  0  0  0
   12.3125    0.8052   22.9009 C   0  0  0  0  0  0  0  0  0  0  0  0
   11.7290   -0.1560   22.0478 C   0  0  0  0  0  0  0  0  0  0  0  0
   10.2868   -0.0285   21.8527 C   0  0  0  0  0  0  0  0  0  0  0  0
    9.4494   -0.9239   21.3583 N   0  0  0  0  0  0  0  0  0  0  0  0
    8.2374   -0.3122   21.5056 N   0  0  0  0  0  0  0  0  0  0  0  0
    6.9799   -0.8667   21.0011 C   0  0  0  0  0  0  0  0  0  0  0  0
    6.3596   -0.0332   19.8887 C   0  0  0  0  0  0  0  0  0  0  0  0
    5.1607    0.6796   20.0286 C   0  0  0  0  0  0  0  0  0  0  0  0
    4.6744    1.4081   18.9367 C   0  0  0  0  0  0  0  0  0  0  0  0
    5.4065    1.4040   17.7465 C   0  0  0  0  0  0  0  0  0  0  0  0
    6.5611    0.7383   17.5961 N   0  0  0  0  0  0  0  0  0  0  0  0
    7.0187    0.0552   18.6519 C   0  0  0  0  0  0  0  0  0  0  0  0
    7.9614   -0.4681   18.5017 H   0  0  0  0  0  0  0  0  0  0  0  0
    5.0581    1.9619   16.8775 H   0  0  0  0  0  0  0  0  0  0  0  0
    3.7619    1.9912   18.9983 H   0  0  0  0  0  0  0  0  0  0  0  0
    4.6204    0.6810   20.9793 H   0  0  0  0  0  0  0  0  0  0  0  0
    7.2018   -1.8840   20.6644 H   0  0  0  0  0  0  0  0  0  0  0  0
    6.2648   -0.9465   21.8325 H   0  0  0  0  0  0  0  0  0  0  0  0
    8.4172    0.8946   22.0869 C   0  0  0  0  0  0  0  0  0  0  0  0
    7.4057    1.7127   22.8094 C   0  0  0  0  0  0  0  0  0  0  0  0
    7.4550    1.3586   24.3177 C   0  0  0  0  0  0  0  0  0  0  0  0
    6.4494    2.0870   25.1648 C   0  0  0  0  0  0  0  0  0  0  0  0
    5.0859    1.8334   24.9965 C   0  0  0  0  0  0  0  0  0  0  0  0
    4.6709    0.9939   24.0252 F   0  0  0  0  0  0  0  0  0  0  0  0
    4.1305    2.4343   25.8191 C   0  0  0  0  0  0  0  0  0  0  0  0
    2.8329    2.1395   25.6535 F   0  0  0  0  0  0  0  0  0  0  0  0
    4.5181    3.3335   26.8075 C   0  0  0  0  0  0  0  0  0  0  0  0
    5.8779    3.6170   26.9769 C   0  0  0  0  0  0  0  0  0  0  0  0
    6.8310    2.9954   26.1650 C   0  0  0  0  0  0  0  0  0  0  0  0
    7.8904    3.2061   26.3008 H   0  0  0  0  0  0  0  0  0  0  0  0
    6.1952    4.3164   27.7449 H   0  0  0  0  0  0  0  0  0  0  0  0
    3.7475    3.7779   27.4288 H   0  0  0  0  0  0  0  0  0  0  0  0
    8.4705    1.5572   24.6883 H   0  0  0  0  0  0  0  0  0  0  0  0
    7.2993    0.2779   24.4370 H   0  0  0  0  0  0  0  0  0  0  0  0
    6.4097    1.5849   22.3840 H   0  0  0  0  0  0  0  0  0  0  0  0
    7.6950    2.7591   22.6769 H   0  0  0  0  0  0  0  0  0  0  0  0
    9.6976    1.1213   22.2652 N   0  0  0  0  0  0  0  0  0  0  0  0
   12.5509   -1.1074   21.4196 C   0  0  0  0  0  0  0  0  0  0  0  0
   12.1703   -1.9009   20.7743 H   0  0  0  0  0  0  0  0  0  0  0  0
   11.6790    1.4655   23.4901 H   0  0  0  0  0  0  0  0  0  0  0  0
   15.4700    0.3571   22.3602 H   0  0  0  0  0  0  0  0  0  0  0  0
  1  2  1  0
  2  3  2  0
  3  4  1  0
  4  5  2  0
  5  6  1  0
  6  7  1  0
  7  8  2  0
  8  9  1  0
  9 10  1  0
 10 11  1  0
 11 12  2  0
 12 13  1  0
 13 14  2  0
 14 15  1  0
 15 16  2  0
 16 17  1  0
 14 18  1  0
 13 19  1  0
 12 20  1  0
 10 21  1  0
 10 22  1  0
  9 23  1  0
 23 24  1  0
 24 25  1  0
 25 26  1  0
 26 27  2  0
 27 28  1  0
 27 29  1  0
 29 30  1  0
 29 31  2  0
 31 32  1  0
 32 33  2  0
 33 34  1  0
 32 35  1  0
 31 36  1  0
 25 37  1  0
 25 38  1  0
 24 39  1  0
 24 40  1  0
 23 41  2  0
  6 42  2  0
 42 43  1  0
  5 44  1  0
  3 45  1  0
 42  2  1  0
 41  7  1  0
 16 11  1  0
 33 26  1  0
M  END
>  <cnnaffinity>  (1) 
-6.78503

>  <filename>  (1) 
Fc1cncc(-c2nc(CCc3cccc(F)c3F)n(Cc3cccnc3)n2)c1

$$$$
