
     RDKit          3D

 43 46  0  0  0  0  0  0  0  0999 V2000
    6.1745    2.9502   22.8572 F   0  0  0  0  0  0  0  0  0  0  0  0
    7.0563    3.9521   23.0642 C   0  0  0  0  0  0  0  0  0  0  0  0
    6.5584    5.2343   23.2739 C   0  0  0  0  0  0  0  0  0  0  0  0
    7.4703    6.2761   23.4607 C   0  0  0  0  0  0  0  0  0  0  0  0
    8.8461    6.0353   23.4262 C   0  0  0  0  0  0  0  0  0  0  0  0
    9.2809    4.7305   23.2131 C   0  0  0  0  0  0  0  0  0  0  0  0
   10.6078    4.5022   23.1623 F   0  0  0  0  0  0  0  0  0  0  0  0
    8.4186    3.6424   23.0499 C   0  0  0  0  0  0  0  0  0  0  0  0
    8.9190    2.2516   22.7565 C   0  0  0  0  0  0  0  0  0  0  0  0
    9.0443    2.0121   21.2465 C   0  0  0  0  0  0  0  0  0  0  0  0
    9.5406    0.5953   20.9164 C   0  0  0  0  0  0  0  0  0  0  0  0
    8.6334   -0.4698   21.4265 C   0  0  0  0  0  0  0  0  0  0  0  0
    8.8538   -1.2583   22.4572 N   0  0  0  0  0  0  0  0  0  0  0  0
    7.6706   -1.9150   22.5939 C   0  0  0  0  0  0  0  0  0  0  0  0
    7.4696   -2.9560   23.6311 C   0  0  0  0  0  0  0  0  0  0  0  0
    8.4347   -4.1114   23.7141 C   0  0  0  0  0  0  0  0  0  0  0  0
    7.0378   -4.3354   23.2117 C   0  0  0  0  0  0  0  0  0  0  0  0
    6.8938   -4.4859   22.1438 H   0  0  0  0  0  0  0  0  0  0  0  0
    6.3318   -4.8700   23.8420 H   0  0  0  0  0  0  0  0  0  0  0  0
    8.7050   -4.4957   24.6951 H   0  0  0  0  0  0  0  0  0  0  0  0
    9.2517   -4.1170   22.9945 H   0  0  0  0  0  0  0  0  0  0  0  0
    7.0840   -2.5587   24.5675 H   0  0  0  0  0  0  0  0  0  0  0  0
    6.7389   -1.5770   21.7243 N   0  0  0  0  0  0  0  0  0  0  0  0
    7.3682   -0.6619   20.9429 N   0  0  0  0  0  0  0  0  0  0  0  0
    6.6640    0.0083   19.9043 C   0  0  0  0  0  0  0  0  0  0  0  0
    5.4444    0.6443   20.1664 C   0  0  0  0  0  0  0  0  0  0  0  0
    4.8128    1.3100   19.1110 C   0  0  0  0  0  0  0  0  0  0  0  0
    5.3998    1.2958   17.8394 C   0  0  0  0  0  0  0  0  0  0  0  0
    6.5601    0.6740   17.5780 N   0  0  0  0  0  0  0  0  0  0  0  0
    7.1709    0.0545   18.5947 C   0  0  0  0  0  0  0  0  0  0  0  0
    8.1144   -0.4363   18.3689 H   0  0  0  0  0  0  0  0  0  0  0  0
    4.9195    1.7849   16.9950 H   0  0  0  0  0  0  0  0  0  0  0  0
    3.8801    1.8392   19.2609 H   0  0  0  0  0  0  0  0  0  0  0  0
    5.0250    0.6132   21.1752 H   0  0  0  0  0  0  0  0  0  0  0  0
    9.6417    0.4927   19.8346 H   0  0  0  0  0  0  0  0  0  0  0  0
   10.5251    0.4263   21.3643 H   0  0  0  0  0  0  0  0  0  0  0  0
    9.7486    2.7433   20.8375 H   0  0  0  0  0  0  0  0  0  0  0  0
    8.0779    2.1973   20.7560 H   0  0  0  0  0  0  0  0  0  0  0  0
    9.8956    2.0998   23.2320 H   0  0  0  0  0  0  0  0  0  0  0  0
    8.2380    1.5112   23.1936 H   0  0  0  0  0  0  0  0  0  0  0  0
    9.5826    6.8191   23.5574 H   0  0  0  0  0  0  0  0  0  0  0  0
    7.1047    7.2841   23.6277 H   0  0  0  0  0  0  0  0  0  0  0  0
    5.4856    5.3884   23.2805 H   0  0  0  0  0  0  0  0  0  0  0  0
  1  2  1  0
  2  3  2  0
  3  4  1  0
  4  5  2  0
  5  6  1  0
  6  7  1  0
  6  8  2  0
  8  9  1  0
  9 10  1  0
 10 11  1  0
 11 12  1  0
 12 13  2  0
 13 14  1  0
 14 15  1  0
 15 16  1  0
 16 17  1  0
 17 18  1  0
 17 19  1  0
 16 20  1  0
 16 21  1  0
 15 22  1  0
 14 23  2  0
 23 24  1  0
 24 25  1  0
 25 26  2  0
 26 27  1  0
 27 28  2  0
 28 29  1  0
 29 30  2  0
 30 31  1  0
 28 32  1  0
 27 33  1  0
 26 34  1  0
 11 35  1  0
 11 36  1  0
 10 37  1  0
 10 38  1  0
  9 39  1  0
  9 40  1  0
  5 41  1  0
  4 42  1  0
  3 43  1  0
  8  2  1  0
 24 12  1  0
 30 25  1  0
 17 15  1  0
M  END
>  <cnnaffinity>  (1) 
-6.10445

>  <filename>  (1) 
Fc1cccc(F)c1CCCc1nc(C2CC2)nn1-c1cccnc1

$$$$
