
     RDKit          3D

 21 22  0  0  0  0  0  0  0  0999 V2000
    4.9462    1.7892   17.0080 H   0  0  0  0  0  0  0  0  0  0  0  0
    5.4093    1.2856   17.8491 C   0  0  0  0  0  0  0  0  0  0  0  0
    6.5695    0.6559   17.5933 N   0  0  0  0  0  0  0  0  0  0  0  0
    7.1751    0.0501   18.6211 C   0  0  0  0  0  0  0  0  0  0  0  0
    8.1236   -0.4488   18.4058 H   0  0  0  0  0  0  0  0  0  0  0  0
    6.6537    0.0467   19.9324 C   0  0  0  0  0  0  0  0  0  0  0  0
    7.3130   -0.6505   20.9886 N   0  0  0  0  0  0  0  0  0  0  0  0
    7.7431   -0.1794   22.2148 C   0  0  0  0  0  0  0  0  0  0  0  0
    7.4023    1.1754   22.7603 C   0  0  0  0  0  0  0  0  0  0  0  0
    7.4034    1.9121   21.9538 H   0  0  0  0  0  0  0  0  0  0  0  0
    8.1138    1.4710   23.5356 H   0  0  0  0  0  0  0  0  0  0  0  0
    6.1302    1.1825   23.3369 F   0  0  0  0  0  0  0  0  0  0  0  0
    8.4277   -1.0896   22.8619 N   0  0  0  0  0  0  0  0  0  0  0  0
    8.3975   -2.2168   22.0759 C   0  0  0  0  0  0  0  0  0  0  0  0
    8.8841   -3.1298   22.3904 H   0  0  0  0  0  0  0  0  0  0  0  0
    7.6991   -1.9723   20.9304 C   0  0  0  0  0  0  0  0  0  0  0  0
    7.3177   -2.5981   20.1428 H   0  0  0  0  0  0  0  0  0  0  0  0
    5.4426    0.6992   20.1869 C   0  0  0  0  0  0  0  0  0  0  0  0
    5.0218    0.6906   21.1969 H   0  0  0  0  0  0  0  0  0  0  0  0
    4.8012    1.3214   19.1131 C   0  0  0  0  0  0  0  0  0  0  0  0
    3.8592    1.8431   19.2536 H   0  0  0  0  0  0  0  0  0  0  0  0
  1  2  1  0
  2  3  2  0
  3  4  1  0
  4  5  1  0
  4  6  2  0
  6  7  1  0
  7  8  1  0
  8  9  1  0
  9 10  1  0
  9 11  1  0
  9 12  1  0
  8 13  2  0
 13 14  1  0
 14 15  1  0
 14 16  2  0
 16 17  1  0
  6 18  1  0
 18 19  1  0
 18 20  2  0
 20 21  1  0
 20  2  1  0
 16  7  1  0
M  END
>  <cnnaffinity>  (1) 
-4.18272

>  <filename>  (1) 
FCc1nccn1-c1cccnc1

$$$$
