
     RDKit          3D

 18 19  0  0  0  0  0  0  0  0999 V2000
    4.9224    1.8302   17.0419 H   0  0  0  0  0  0  0  0  0  0  0  0
    5.4221    1.2836   17.8377 C   0  0  0  0  0  0  0  0  0  0  0  0
    6.5987    0.6902   17.5782 N   0  0  0  0  0  0  0  0  0  0  0  0
    7.2172    0.0429   18.5870 C   0  0  0  0  0  0  0  0  0  0  0  0
    8.1836   -0.4140   18.3931 H   0  0  0  0  0  0  0  0  0  0  0  0
    6.6814   -0.0798   19.8822 C   0  0  0  0  0  0  0  0  0  0  0  0
    7.4147   -0.7537   20.8808 N   0  0  0  0  0  0  0  0  0  0  0  0
    7.0809   -1.8490   21.7041 C   0  0  0  0  0  0  0  0  0  0  0  0
    5.3159   -3.2328   21.6899 I   0  0  0  0  0  0  0  0  0  0  0  0
    8.0495   -2.1298   22.5443 N   0  0  0  0  0  0  0  0  0  0  0  0
    9.0693   -1.2408   22.2668 C   0  0  0  0  0  0  0  0  0  0  0  0
   10.0112   -1.1876   22.8063 H   0  0  0  0  0  0  0  0  0  0  0  0
    8.7234   -0.4396   21.2188 C   0  0  0  0  0  0  0  0  0  0  0  0
    9.3648    0.3211   20.7917 H   0  0  0  0  0  0  0  0  0  0  0  0
    5.4587    0.5562   20.1497 C   0  0  0  0  0  0  0  0  0  0  0  0
    5.0257    0.5563   21.1479 H   0  0  0  0  0  0  0  0  0  0  0  0
    4.8337    1.2443   19.1021 C   0  0  0  0  0  0  0  0  0  0  0  0
    3.9019    1.7766   19.2474 H   0  0  0  0  0  0  0  0  0  0  0  0
  1  2  1  0
  2  3  2  0
  3  4  1  0
  4  5  1  0
  4  6  2  0
  6  7  1  0
  7  8  1  0
  8  9  1  0
  8 10  2  0
 10 11  1  0
 11 12  1  0
 11 13  2  0
 13 14  1  0
  6 15  1  0
 15 16  1  0
 15 17  2  0
 17 18  1  0
 17  2  1  0
 13  7  1  0
M  END
>  <cnnaffinity>  (1) 
-4.28238

>  <filename>  (1) 
Ic1nccn1-c1cccnc1

$$$$
