
     RDKit          3D

 17 18  0  0  0  0  0  0  0  0999 V2000
    9.0744   -3.1253   22.1012 H   0  0  0  0  0  0  0  0  0  0  0  0
    8.5153   -2.2154   21.8966 C   0  0  0  0  0  0  0  0  0  0  0  0
    8.0065   -1.9210   20.7241 N   0  0  0  0  0  0  0  0  0  0  0  0
    7.3802   -0.7101   20.9408 C   0  0  0  0  0  0  0  0  0  0  0  0
    6.6589    0.0074   19.8987 C   0  0  0  0  0  0  0  0  0  0  0  0
    7.1792    0.0342   18.5978 C   0  0  0  0  0  0  0  0  0  0  0  0
    8.1302   -0.4500   18.3989 H   0  0  0  0  0  0  0  0  0  0  0  0
    6.5690    0.6662   17.5802 N   0  0  0  0  0  0  0  0  0  0  0  0
    5.4058    1.2925   17.8339 C   0  0  0  0  0  0  0  0  0  0  0  0
    4.8925    1.7915   17.0168 H   0  0  0  0  0  0  0  0  0  0  0  0
    4.8224    1.3110   19.1077 C   0  0  0  0  0  0  0  0  0  0  0  0
    3.8839    1.8318   19.2605 H   0  0  0  0  0  0  0  0  0  0  0  0
    5.4515    0.6617   20.1691 C   0  0  0  0  0  0  0  0  0  0  0  0
    5.0024    0.6446   21.1655 H   0  0  0  0  0  0  0  0  0  0  0  0
    7.5676   -0.3213   22.2473 C   0  0  0  0  0  0  0  0  0  0  0  0
    6.9394    1.5956   23.2551 I   0  0  0  0  0  0  0  0  0  0  0  0
    8.2950   -1.2839   22.8700 O   0  0  0  0  0  0  0  0  0  0  0  0
  1  2  1  0
  2  3  2  0
  3  4  1  0
  4  5  1  0
  5  6  2  0
  6  7  1  0
  6  8  1  0
  8  9  2  0
  9 10  1  0
  9 11  1  0
 11 12  1  0
 11 13  2  0
 13 14  1  0
  4 15  2  0
 15 16  1  0
 15 17  1  0
 17  2  1  0
 13  5  1  0
M  END
>  <cnnaffinity>  (1) 
-4.0184

>  <filename>  (1) 
Ic1ocnc1-c1cccnc1

$$$$
