
     RDKit          3D

 31 33  0  0  0  0  0  0  0  0999 V2000
    4.9170    1.8030   16.9826 H   0  0  0  0  0  0  0  0  0  0  0  0
    5.3883    1.3020   17.8240 C   0  0  0  0  0  0  0  0  0  0  0  0
    6.5451    0.6754   17.5604 N   0  0  0  0  0  0  0  0  0  0  0  0
    7.1590    0.0574   18.5760 C   0  0  0  0  0  0  0  0  0  0  0  0
    8.1097   -0.4220   18.3461 H   0  0  0  0  0  0  0  0  0  0  0  0
    6.6458    0.0029   19.8914 C   0  0  0  0  0  0  0  0  0  0  0  0
    7.3070   -0.7004   20.9502 N   0  0  0  0  0  0  0  0  0  0  0  0
    6.7777   -1.6585   21.7846 C   0  0  0  0  0  0  0  0  0  0  0  0
    5.7425   -1.9582   21.7416 H   0  0  0  0  0  0  0  0  0  0  0  0
    7.6824   -2.1410   22.5881 N   0  0  0  0  0  0  0  0  0  0  0  0
    8.8551   -1.4790   22.3215 N   0  0  0  0  0  0  0  0  0  0  0  0
    8.6150   -0.6059   21.3818 C   0  0  0  0  0  0  0  0  0  0  0  0
    9.6542    0.2971   20.8027 C   0  0  0  0  0  0  0  0  0  0  0  0
   10.3594   -0.3791   20.3126 H   0  0  0  0  0  0  0  0  0  0  0  0
    9.2047    0.9629   20.0635 H   0  0  0  0  0  0  0  0  0  0  0  0
   10.3586    1.1144   21.8689 C   0  0  0  0  0  0  0  0  0  0  0  0
   11.5914    0.6844   22.3682 C   0  0  0  0  0  0  0  0  0  0  0  0
   12.0404   -0.2061   21.9270 H   0  0  0  0  0  0  0  0  0  0  0  0
   12.2115    1.3451   23.4336 C   0  0  0  0  0  0  0  0  0  0  0  0
   13.1757    0.9972   23.8044 H   0  0  0  0  0  0  0  0  0  0  0  0
   11.5791    2.4496   24.0138 C   0  0  0  0  0  0  0  0  0  0  0  0
   12.0403    2.9798   24.8352 H   0  0  0  0  0  0  0  0  0  0  0  0
   10.3402    2.8895   23.5431 C   0  0  0  0  0  0  0  0  0  0  0  0
    9.8460    3.7451   23.9965 H   0  0  0  0  0  0  0  0  0  0  0  0
    9.7265    2.2249   22.4692 C   0  0  0  0  0  0  0  0  0  0  0  0
    8.4229    2.6748   22.0327 C   0  0  0  0  0  0  0  0  0  0  0  0
    7.3709    3.0475   21.7174 N   0  0  0  0  0  0  0  0  0  0  0  0
    5.4361    0.6485   20.1500 C   0  0  0  0  0  0  0  0  0  0  0  0
    5.0343    0.6367   21.1678 H   0  0  0  0  0  0  0  0  0  0  0  0
    4.8054    1.3143   19.0950 C   0  0  0  0  0  0  0  0  0  0  0  0
    3.8775    1.8432   19.2514 H   0  0  0  0  0  0  0  0  0  0  0  0
  1  2  1  0
  2  3  2  0
  3  4  1  0
  4  5  1  0
  4  6  2  0
  6  7  1  0
  7  8  1  0
  8  9  1  0
  8 10  2  0
 10 11  1  0
 11 12  2  0
 12 13  1  0
 13 14  1  0
 13 15  1  0
 13 16  1  0
 16 17  2  0
 17 18  1  0
 17 19  1  0
 19 20  1  0
 19 21  2  0
 21 22  1  0
 21 23  1  0
 23 24  1  0
 23 25  2  0
 25 26  1  0
 26 27  3  0
  6 28  1  0
 28 29  1  0
 28 30  2  0
 30 31  1  0
 30  2  1  0
 12  7  1  0
 25 16  1  0
M  END
>  <cnnaffinity>  (1) 
-5.54061

>  <filename>  (1) 
N#Cc1ccccc1Cc1nncn1-c1cccnc1

$$$$
