
     RDKit          3D

 28 29  0  0  0  0  0  0  0  0999 V2000
    5.0523    1.7223   16.8126 H   0  0  0  0  0  0  0  0  0  0  0  0
    5.4678    1.2654   17.7140 C   0  0  0  0  0  0  0  0  0  0  0  0
    6.6516    0.6473   17.5805 N   0  0  0  0  0  0  0  0  0  0  0  0
    7.2064    0.0932   18.6710 C   0  0  0  0  0  0  0  0  0  0  0  0
    8.1577   -0.4141   18.5104 H   0  0  0  0  0  0  0  0  0  0  0  0
    6.6145    0.1197   19.9536 C   0  0  0  0  0  0  0  0  0  0  0  0
    7.1868   -0.3952   21.1420 N   0  0  0  0  0  0  0  0  0  0  0  0
    6.6514   -1.1621   21.5534 H   0  0  0  0  0  0  0  0  0  0  0  0
    8.5784   -0.6515   21.0780 N   0  0  0  0  0  0  0  0  0  0  0  0
    9.0856    0.1566   20.7473 H   0  0  0  0  0  0  0  0  0  0  0  0
    9.2613   -1.3724   22.0351 C   0  0  0  0  0  0  0  0  0  0  0  0
    8.7624   -2.2367   22.7310 O   0  0  0  0  0  0  0  0  0  0  0  0
   10.7570   -1.0608   22.0624 C   0  0  0  0  0  0  0  0  0  0  0  0
   11.6505   -2.1422   22.1572 C   0  0  0  0  0  0  0  0  0  0  0  0
   11.2523   -3.1454   22.2903 H   0  0  0  0  0  0  0  0  0  0  0  0
   13.0259   -1.9347   22.0599 C   0  0  0  0  0  0  0  0  0  0  0  0
   13.7056   -2.7852   22.0125 H   0  0  0  0  0  0  0  0  0  0  0  0
   13.5377   -0.6360   22.0182 C   0  0  0  0  0  0  0  0  0  0  0  0
   14.6064   -0.4885   21.9217 H   0  0  0  0  0  0  0  0  0  0  0  0
   12.6759    0.4592   22.0376 C   0  0  0  0  0  0  0  0  0  0  0  0
   13.0737    1.4680   21.9613 H   0  0  0  0  0  0  0  0  0  0  0  0
   11.2880    0.2557   22.0144 C   0  0  0  0  0  0  0  0  0  0  0  0
   10.4636    1.4428   22.0014 C   0  0  0  0  0  0  0  0  0  0  0  0
    9.8225    2.4056   21.9459 N   0  0  0  0  0  0  0  0  0  0  0  0
    5.3578    0.7366   20.0630 C   0  0  0  0  0  0  0  0  0  0  0  0
    4.8735    0.7599   21.0384 H   0  0  0  0  0  0  0  0  0  0  0  0
    4.7855    1.3276   18.9349 C   0  0  0  0  0  0  0  0  0  0  0  0
    3.8430    1.8606   18.9935 H   0  0  0  0  0  0  0  0  0  0  0  0
  1  2  1  0
  2  3  2  0
  3  4  1  0
  4  5  1  0
  4  6  2  0
  6  7  1  0
  7  8  1  0
  7  9  1  0
  9 10  1  0
  9 11  1  0
 11 12  2  0
 11 13  1  0
 13 14  2  0
 14 15  1  0
 14 16  1  0
 16 17  1  0
 16 18  2  0
 18 19  1  0
 18 20  1  0
 20 21  1  0
 20 22  2  0
 22 23  1  0
 23 24  3  0
  6 25  1  0
 25 26  1  0
 25 27  2  0
 27 28  1  0
 27  2  1  0
 22 13  1  0
M  END
>  <cnnaffinity>  (1) 
-5.15852

>  <filename>  (1) 
N#Cc1ccccc1C(=O)NNc1cccnc1

$$$$
