
     RDKit          3D

 32 34  0  0  0  0  0  0  0  0999 V2000
    4.9340    1.8267   16.9607 H   0  0  0  0  0  0  0  0  0  0  0  0
    5.3851    1.3107   17.8045 C   0  0  0  0  0  0  0  0  0  0  0  0
    6.5414    0.6721   17.5636 N   0  0  0  0  0  0  0  0  0  0  0  0
    7.1242    0.0485   18.5983 C   0  0  0  0  0  0  0  0  0  0  0  0
    8.0730   -0.4414   18.3710 H   0  0  0  0  0  0  0  0  0  0  0  0
    6.5945   -0.0050   19.9075 C   0  0  0  0  0  0  0  0  0  0  0  0
    7.3135   -0.7166   20.9873 C   0  0  0  0  0  0  0  0  0  0  0  0
    8.6555   -0.7104   21.3238 C   0  0  0  0  0  0  0  0  0  0  0  0
    9.7611    0.0776   20.6760 C   0  0  0  0  0  0  0  0  0  0  0  0
   10.2791   -0.5875   19.9829 H   0  0  0  0  0  0  0  0  0  0  0  0
    9.3289    0.8873   20.0791 H   0  0  0  0  0  0  0  0  0  0  0  0
   10.7650    0.6650   21.6556 C   0  0  0  0  0  0  0  0  0  0  0  0
   10.4838    1.8747   22.3052 C   0  0  0  0  0  0  0  0  0  0  0  0
    9.5753    2.4179   22.0494 H   0  0  0  0  0  0  0  0  0  0  0  0
   11.3434    2.4091   23.2669 C   0  0  0  0  0  0  0  0  0  0  0  0
   11.0973    3.3481   23.7569 H   0  0  0  0  0  0  0  0  0  0  0  0
   12.5197    1.7314   23.5931 C   0  0  0  0  0  0  0  0  0  0  0  0
   13.2062    2.1357   24.3248 H   0  0  0  0  0  0  0  0  0  0  0  0
   12.8347    0.5319   22.9581 C   0  0  0  0  0  0  0  0  0  0  0  0
   13.7557    0.0066   23.1934 H   0  0  0  0  0  0  0  0  0  0  0  0
   11.9758    0.0044   21.9800 C   0  0  0  0  0  0  0  0  0  0  0  0
   12.4360   -1.1708   21.2633 C   0  0  0  0  0  0  0  0  0  0  0  0
   12.9207   -2.0152   20.6380 N   0  0  0  0  0  0  0  0  0  0  0  0
    8.7636   -1.6209   22.3987 C   0  0  0  0  0  0  0  0  0  0  0  0
    9.6599   -1.9124   22.9297 H   0  0  0  0  0  0  0  0  0  0  0  0
    7.5906   -2.1367   22.7361 N   0  0  0  0  0  0  0  0  0  0  0  0
    6.7274   -1.5632   21.8784 N   0  0  0  0  0  0  0  0  0  0  0  0
    5.7444   -1.7825   21.9522 H   0  0  0  0  0  0  0  0  0  0  0  0
    5.3761    0.6669   20.1231 C   0  0  0  0  0  0  0  0  0  0  0  0
    4.9391    0.6912   21.1211 H   0  0  0  0  0  0  0  0  0  0  0  0
    4.7692    1.3345   19.0591 C   0  0  0  0  0  0  0  0  0  0  0  0
    3.8418    1.8805   19.1929 H   0  0  0  0  0  0  0  0  0  0  0  0
  1  2  1  0
  2  3  2  0
  3  4  1  0
  4  5  1  0
  4  6  2  0
  6  7  1  0
  7  8  2  0
  8  9  1  0
  9 10  1  0
  9 11  1  0
  9 12  1  0
 12 13  2  0
 13 14  1  0
 13 15  1  0
 15 16  1  0
 15 17  2  0
 17 18  1  0
 17 19  1  0
 19 20  1  0
 19 21  2  0
 21 22  1  0
 22 23  3  0
  8 24  1  0
 24 25  1  0
 24 26  2  0
 26 27  1  0
 27 28  1  0
  6 29  1  0
 29 30  1  0
 29 31  2  0
 31 32  1  0
 31  2  1  0
 27  7  1  0
 21 12  1  0
M  END
>  <cnnaffinity>  (1) 
-5.87285

>  <filename>  (1) 
N#Cc1ccccc1Cc1cn[nH]c1-c1cccnc1

$$$$
