
     RDKit          3D

 28 29  0  0  0  0  0  0  0  0999 V2000
    4.9835    1.7658   16.9843 H   0  0  0  0  0  0  0  0  0  0  0  0
    5.4342    1.2835   17.8529 C   0  0  0  0  0  0  0  0  0  0  0  0
    6.6008    0.6503   17.6521 N   0  0  0  0  0  0  0  0  0  0  0  0
    7.1735    0.0439   18.7003 C   0  0  0  0  0  0  0  0  0  0  0  0
    8.1244   -0.4480   18.4940 H   0  0  0  0  0  0  0  0  0  0  0  0
    6.6196    0.0369   19.9849 C   0  0  0  0  0  0  0  0  0  0  0  0
    7.2912   -0.6871   21.0852 C   0  0  0  0  0  0  0  0  0  0  0  0
    8.0229   -2.1473   20.9626 S   0  0  0  0  0  0  0  0  0  0  0  0
    7.2726   -0.0943   22.3222 N   0  0  0  0  0  0  0  0  0  0  0  0
    7.5817   -0.7146   23.0553 H   0  0  0  0  0  0  0  0  0  0  0  0
    7.5127    1.2505   22.5552 C   0  0  0  0  0  0  0  0  0  0  0  0
    7.6452    2.0500   21.6559 O   0  0  0  0  0  0  0  0  0  0  0  0
    7.5217    1.6326   24.0149 C   0  0  0  0  0  0  0  0  0  0  0  0
    6.7034    2.7081   24.3889 C   0  0  0  0  0  0  0  0  0  0  0  0
    6.0957    3.1969   23.6292 H   0  0  0  0  0  0  0  0  0  0  0  0
    6.6631    3.1429   25.7109 C   0  0  0  0  0  0  0  0  0  0  0  0
    6.0279    3.9807   25.9819 H   0  0  0  0  0  0  0  0  0  0  0  0
    7.4612    2.5231   26.6776 C   0  0  0  0  0  0  0  0  0  0  0  0
    7.4520    2.8832   27.7040 H   0  0  0  0  0  0  0  0  0  0  0  0
    8.2936    1.4606   26.3229 C   0  0  0  0  0  0  0  0  0  0  0  0
    8.9197    0.9805   27.0681 H   0  0  0  0  0  0  0  0  0  0  0  0
    8.3350    1.0070   24.9925 C   0  0  0  0  0  0  0  0  0  0  0  0
    9.2582   -0.0600   24.6716 C   0  0  0  0  0  0  0  0  0  0  0  0
   10.0277   -0.8961   24.4534 N   0  0  0  0  0  0  0  0  0  0  0  0
    5.3914    0.6915   20.1768 C   0  0  0  0  0  0  0  0  0  0  0  0
    4.9318    0.7221   21.1646 H   0  0  0  0  0  0  0  0  0  0  0  0
    4.7892    1.3219   19.0923 C   0  0  0  0  0  0  0  0  0  0  0  0
    3.8470    1.8483   19.2036 H   0  0  0  0  0  0  0  0  0  0  0  0
  1  2  1  0
  2  3  2  0
  3  4  1  0
  4  5  1  0
  4  6  2  0
  6  7  1  0
  7  8  2  0
  7  9  1  0
  9 10  1  0
  9 11  1  0
 11 12  2  0
 11 13  1  0
 13 14  2  0
 14 15  1  0
 14 16  1  0
 16 17  1  0
 16 18  2  0
 18 19  1  0
 18 20  1  0
 20 21  1  0
 20 22  2  0
 22 23  1  0
 23 24  3  0
  6 25  1  0
 25 26  1  0
 25 27  2  0
 27 28  1  0
 27  2  1  0
 22 13  1  0
M  END
>  <cnnaffinity>  (1) 
-4.6568

>  <filename>  (1) 
N#Cc1ccccc1C(=O)NC(=S)c1cccnc1

$$$$
