
     RDKit          3D

 21 22  0  0  0  0  0  0  0  0999 V2000
    4.5921   -3.8922   24.2476 H   0  0  0  0  0  0  0  0  0  0  0  0
    4.5923   -3.6054   23.2683 N   0  0  0  0  0  0  0  0  0  0  0  0
    5.6606   -2.9865   23.0522 N   0  0  0  0  0  4  0  0  0  0  0  0
    5.8570   -2.3653   21.9235 N   0  0  0  0  0  0  0  0  0  0  0  0
    7.0740   -1.7427   21.8522 C   0  0  0  0  0  0  0  0  0  0  0  0
    8.2319   -1.9178   22.5996 C   0  0  0  0  0  0  0  0  0  0  0  0
    8.3701   -2.5483   23.4665 H   0  0  0  0  0  0  0  0  0  0  0  0
    9.2511   -1.1718   22.1038 N   0  0  0  0  0  0  0  0  0  0  0  0
    8.7614   -0.5385   21.0709 C   0  0  0  0  0  0  0  0  0  0  0  0
    9.2806    0.1969   20.4640 H   0  0  0  0  0  0  0  0  0  0  0  0
    7.4486   -0.8448   20.8285 N   0  0  0  0  0  0  0  0  0  0  0  0
    6.6774   -0.1625   19.8320 C   0  0  0  0  0  0  0  0  0  0  0  0
    7.1710   -0.0378   18.5127 C   0  0  0  0  0  0  0  0  0  0  0  0
    8.1131   -0.5159   18.2441 H   0  0  0  0  0  0  0  0  0  0  0  0
    6.5659    0.6544   17.5467 N   0  0  0  0  0  0  0  0  0  0  0  0
    5.4222    1.2833   17.8642 C   0  0  0  0  0  0  0  0  0  0  0  0
    4.9497    1.8533   17.0654 H   0  0  0  0  0  0  0  0  0  0  0  0
    4.8569    1.2350   19.1388 C   0  0  0  0  0  0  0  0  0  0  0  0
    3.9506    1.7951   19.3375 H   0  0  0  0  0  0  0  0  0  0  0  0
    5.4848    0.5005   20.1518 C   0  0  0  0  0  0  0  0  0  0  0  0
    5.0829    0.4783   21.1649 H   0  0  0  0  0  0  0  0  0  0  0  0
  1  2  1  0
  2  3  2  0
  3  4  2  0
  4  5  1  0
  5  6  2  0
  6  7  1  0
  6  8  1  0
  8  9  2  0
  9 10  1  0
  9 11  1  0
 11 12  1  0
 12 13  2  0
 13 14  1  0
 13 15  1  0
 15 16  2  0
 16 17  1  0
 16 18  1  0
 18 19  1  0
 18 20  2  0
 20 21  1  0
 11  5  1  0
 20 12  1  0
M  CHG  1   3   1
M  END
>  <cnnaffinity>  (1) 
-4.16041

>  <filename>  (1) 
N=[N+]=Nc1cncn1-c1cccnc1

$$$$
