
     RDKit          3D

 29 30  0  0  0  0  0  0  0  0999 V2000
   12.8259   -1.8469   21.3389 H   0  0  0  0  0  0  0  0  0  0  0  0
   12.1416   -1.0946   21.4555 N   0  0  0  0  0  0  0  0  0  0  0  0
   11.0045   -1.5708   21.1963 N   0  0  0  0  0  4  0  0  0  0  0  0
    9.9705   -0.8258   21.1793 N   0  0  0  0  0  0  0  0  0  0  0  0
    8.7891   -1.5454   20.7488 C   0  0  0  0  0  0  0  0  0  0  0  0
    8.7869   -2.5396   21.2020 H   0  0  0  0  0  0  0  0  0  0  0  0
    8.8830   -1.6816   19.6750 H   0  0  0  0  0  0  0  0  0  0  0  0
    7.4321   -0.8452   21.0545 C   0  0  1  0  0  0  0  0  0  0  0  0
    6.8564   -0.0252   19.8829 C   0  0  0  0  0  0  0  0  0  0  0  0
    7.3833    0.0913   18.5823 C   0  0  0  0  0  0  0  0  0  0  0  0
    8.3357   -0.3647   18.3239 H   0  0  0  0  0  0  0  0  0  0  0  0
    6.7743    0.7225   17.5674 N   0  0  0  0  0  0  0  0  0  0  0  0
    5.5920    1.3008   17.8141 C   0  0  0  0  0  0  0  0  0  0  0  0
    5.1132    1.8129   16.9826 H   0  0  0  0  0  0  0  0  0  0  0  0
    4.9663    1.2621   19.0642 C   0  0  0  0  0  0  0  0  0  0  0  0
    4.0025    1.7380   19.2088 H   0  0  0  0  0  0  0  0  0  0  0  0
    5.6092    0.5960   20.1010 C   0  0  0  0  0  0  0  0  0  0  0  0
    5.1273    0.5116   21.0814 H   0  0  0  0  0  0  0  0  0  0  0  0
    6.3668   -1.9332   21.4623 C   0  0  0  0  0  0  0  0  0  0  0  0
    6.5360   -2.8751   20.9258 H   0  0  0  0  0  0  0  0  0  0  0  0
    5.3566   -1.5870   21.1777 H   0  0  0  0  0  0  0  0  0  0  0  0
    6.5276   -2.0954   22.8994 N   0  0  0  0  0  0  0  0  0  0  0  0
    5.6886   -2.4882   23.3183 H   0  0  0  0  0  0  0  0  0  0  0  0
    6.7985   -0.7682   23.4668 C   0  0  0  0  0  0  0  0  0  0  0  0
    5.9037   -0.2099   23.7947 H   0  0  0  0  0  0  0  0  0  0  0  0
    7.4169   -0.8936   24.3609 H   0  0  0  0  0  0  0  0  0  0  0  0
    7.5268    0.0078   22.3618 C   0  0  0  0  0  0  0  0  0  0  0  0
    8.5701    0.1607   22.6330 H   0  0  0  0  0  0  0  0  0  0  0  0
    7.0817    1.0020   22.2213 H   0  0  0  0  0  0  0  0  0  0  0  0
  1  2  1  0
  2  3  2  0
  3  4  2  0
  4  5  1  0
  5  6  1  0
  5  7  1  0
  8  5  1  6
  8  9  1  0
  9 10  2  0
 10 11  1  0
 10 12  1  0
 12 13  2  0
 13 14  1  0
 13 15  1  0
 15 16  1  0
 15 17  2  0
 17 18  1  0
  8 19  1  0
 19 20  1  0
 19 21  1  0
 19 22  1  0
 22 23  1  0
 22 24  1  0
 24 25  1  0
 24 26  1  0
 24 27  1  0
 27 28  1  0
 27 29  1  0
 27  8  1  0
 17  9  1  0
M  CHG  1   3   1
M  END
>  <cnnaffinity>  (1) 
-4.72595

>  <filename>  (1) 
N=[N+]=NC[C@]1(c2cccnc2)CCNC1

$$$$
