
     RDKit          3D

 24 25  0  0  0  0  0  0  0  0999 V2000
    4.6442   -4.5930   23.2489 H   0  0  0  0  0  0  0  0  0  0  0  0
    4.2328   -4.0638   22.4665 N   0  0  0  0  0  0  0  0  0  0  0  0
    5.0034   -3.2511   22.0172 N   0  0  0  0  0  4  0  0  0  0  0  0
    5.5537   -2.3976   21.3705 N   0  0  0  0  0  0  0  0  0  0  0  0
    6.8064   -1.8414   21.7209 C   0  0  0  0  0  0  0  0  0  0  0  0
    7.6223   -2.3609   22.8053 C   0  0  0  0  0  0  0  0  0  0  0  0
    7.1930   -3.0961   23.4916 H   0  0  0  0  0  0  0  0  0  0  0  0
    8.9024   -1.9336   22.9773 C   0  0  0  0  0  0  0  0  0  0  0  0
    9.5614   -2.3061   23.7528 H   0  0  0  0  0  0  0  0  0  0  0  0
    9.5060   -0.9216   22.1088 C   0  0  0  0  0  0  0  0  0  0  0  0
   10.6240   -0.4533   22.2001 O   0  0  0  0  0  0  0  0  0  0  0  0
    8.6606   -0.4796   21.1005 N   0  0  0  0  0  0  0  0  0  0  0  0
    9.0526    0.3184   20.6195 H   0  0  0  0  0  0  0  0  0  0  0  0
    7.3379   -0.8217   20.9408 C   0  0  0  0  0  0  0  0  0  0  0  0
    6.6400   -0.0261   19.9059 C   0  0  0  0  0  0  0  0  0  0  0  0
    7.2150    0.0916   18.6211 C   0  0  0  0  0  0  0  0  0  0  0  0
    8.1729   -0.3864   18.4048 H   0  0  0  0  0  0  0  0  0  0  0  0
    6.6426    0.7299   17.6037 N   0  0  0  0  0  0  0  0  0  0  0  0
    5.4673    1.3388   17.8350 C   0  0  0  0  0  0  0  0  0  0  0  0
    5.0063    1.8295   16.9775 H   0  0  0  0  0  0  0  0  0  0  0  0
    4.8371    1.3404   19.0804 C   0  0  0  0  0  0  0  0  0  0  0  0
    3.9011    1.8781   19.1952 H   0  0  0  0  0  0  0  0  0  0  0  0
    5.4233    0.6444   20.1409 C   0  0  0  0  0  0  0  0  0  0  0  0
    4.9572    0.6443   21.1291 H   0  0  0  0  0  0  0  0  0  0  0  0
  1  2  1  0
  2  3  2  0
  3  4  2  0
  4  5  1  0
  5  6  1  0
  6  7  1  0
  6  8  2  0
  8  9  1  0
  8 10  1  0
 10 11  2  0
 10 12  1  0
 12 13  1  0
 12 14  1  0
 14 15  1  0
 15 16  2  0
 16 17  1  0
 16 18  1  0
 18 19  2  0
 19 20  1  0
 19 21  1  0
 21 22  1  0
 21 23  2  0
 23 24  1  0
 14  5  2  0
 23 15  1  0
M  CHG  1   3   1
M  END
>  <cnnaffinity>  (1) 
-4.7689

>  <filename>  (1) 
N=[N+]=Nc1ccc(=O)[nH]c1-c1cccnc1

$$$$
