
     RDKit          3D

 22 23  0  0  0  0  0  0  0  0999 V2000
    7.3047    2.9409   22.7069 H   0  0  0  0  0  0  0  0  0  0  0  0
    7.4394    2.1818   22.0423 N   0  0  0  0  0  0  0  0  0  0  0  0
    7.5409    1.1374   22.7628 C   0  0  0  0  0  0  0  0  0  0  0  0
    7.7173   -0.2600   22.2053 C   0  0  0  0  0  0  0  0  0  0  0  0
    8.2355   -1.2589   22.8810 N   0  0  0  0  0  0  0  0  0  0  0  0
    8.1500   -2.3833   22.1203 N   0  0  0  0  0  0  0  0  0  0  0  0
    7.5788   -2.0530   20.9966 C   0  0  0  0  0  0  0  0  0  0  0  0
    7.2878   -2.7349   20.2105 H   0  0  0  0  0  0  0  0  0  0  0  0
    7.3028   -0.7070   20.9573 N   0  0  0  0  0  0  0  0  0  0  0  0
    6.6486    0.0135   19.9017 C   0  0  0  0  0  0  0  0  0  0  0  0
    7.1852    0.0691   18.5941 C   0  0  0  0  0  0  0  0  0  0  0  0
    8.1436   -0.4073   18.3839 H   0  0  0  0  0  0  0  0  0  0  0  0
    6.5771    0.6833   17.5745 N   0  0  0  0  0  0  0  0  0  0  0  0
    5.4090    1.2945   17.8310 C   0  0  0  0  0  0  0  0  0  0  0  0
    4.9470    1.8046   16.9921 H   0  0  0  0  0  0  0  0  0  0  0  0
    4.7960    1.3012   19.0892 C   0  0  0  0  0  0  0  0  0  0  0  0
    3.8536    1.8230   19.2329 H   0  0  0  0  0  0  0  0  0  0  0  0
    5.4290    0.6529   20.1544 C   0  0  0  0  0  0  0  0  0  0  0  0
    5.0128    0.6725   21.1635 H   0  0  0  0  0  0  0  0  0  0  0  0
    7.4118    1.2741   24.1282 N   0  0  0  0  0  0  0  0  0  0  0  0
    7.8202    0.5552   24.7060 H   0  0  0  0  0  0  0  0  0  0  0  0
    7.5594    2.2218   24.4232 H   0  0  0  0  0  0  0  0  0  0  0  0
  1  2  1  0
  2  3  2  3
  3  4  1  0
  4  5  2  0
  5  6  1  0
  6  7  2  0
  7  8  1  0
  7  9  1  0
  9 10  1  0
 10 11  2  0
 11 12  1  0
 11 13  1  0
 13 14  2  0
 14 15  1  0
 14 16  1  0
 16 17  1  0
 16 18  2  0
 18 19  1  0
  3 20  1  0
 20 21  1  0
 20 22  1  0
  9  4  1  0
 18 10  1  0
M  END
>  <cnnaffinity>  (1) 
-4.00461

>  <filename>  (1) 
N=C(N)c1nncn1-c1cccnc1

$$$$
