
     RDKit          3D

 32 33  0  0  0  0  0  0  0  0999 V2000
    7.8994   -2.1618   19.8108 H   0  0  0  0  0  0  0  0  0  0  0  0
    7.9850   -1.8826   20.7921 N   0  0  0  0  0  0  0  0  0  0  0  0
    7.3997   -0.7642   20.9549 C   0  0  0  0  0  0  0  0  0  0  0  0
    6.6472   -0.0484   19.8879 C   0  0  0  0  0  0  0  0  0  0  0  0
    7.1651    0.0316   18.5901 C   0  0  0  0  0  0  0  0  0  0  0  0
    8.1292   -0.4157   18.3471 H   0  0  0  0  0  0  0  0  0  0  0  0
    6.5677    0.6773   17.5834 N   0  0  0  0  0  0  0  0  0  0  0  0
    5.4006    1.2893   17.8393 C   0  0  0  0  0  0  0  0  0  0  0  0
    4.9237    1.7839   16.9938 H   0  0  0  0  0  0  0  0  0  0  0  0
    4.8093    1.3029   19.1038 C   0  0  0  0  0  0  0  0  0  0  0  0
    3.8801    1.8401   19.2546 H   0  0  0  0  0  0  0  0  0  0  0  0
    5.4433    0.6358   20.1504 C   0  0  0  0  0  0  0  0  0  0  0  0
    5.0096    0.6448   21.1546 H   0  0  0  0  0  0  0  0  0  0  0  0
    7.4189   -0.1418   22.3537 C   0  0  0  0  0  0  0  0  0  0  0  0
    6.4305   -0.3235   22.8008 H   0  0  0  0  0  0  0  0  0  0  0  0
    8.1421   -0.7255   22.9406 H   0  0  0  0  0  0  0  0  0  0  0  0
    7.6808    1.3088   22.3613 N   0  0  0  0  0  0  0  0  0  0  0  0
    8.6434    1.4928   22.0760 H   0  0  0  0  0  0  0  0  0  0  0  0
    7.5240    1.9223   23.6633 C   0  0  0  0  0  0  0  0  0  0  0  0
    6.5242    1.6658   24.0441 H   0  0  0  0  0  0  0  0  0  0  0  0
    8.5772    1.5056   24.7021 C   0  0  0  0  0  0  0  0  0  0  0  0
    8.2942    0.5796   25.2126 H   0  0  0  0  0  0  0  0  0  0  0  0
    9.5258    1.2982   24.1860 H   0  0  0  0  0  0  0  0  0  0  0  0
    8.7285    2.7006   25.6657 C   0  0  0  0  0  0  0  0  0  0  0  0
    8.2799    2.4843   26.6404 H   0  0  0  0  0  0  0  0  0  0  0  0
    9.7846    2.8935   25.8401 H   0  0  0  0  0  0  0  0  0  0  0  0
    8.0296    3.9120   24.9899 C   0  0  0  0  0  0  0  0  0  0  0  0
    7.1406    4.1991   25.5629 H   0  0  0  0  0  0  0  0  0  0  0  0
    8.6781    4.7929   24.9469 H   0  0  0  0  0  0  0  0  0  0  0  0
    7.6333    3.4421   23.5764 C   0  0  0  0  0  0  0  0  0  0  0  0
    8.4053    3.7031   22.8393 H   0  0  0  0  0  0  0  0  0  0  0  0
    6.6972    3.8877   23.2230 H   0  0  0  0  0  0  0  0  0  0  0  0
  1  2  1  0
  2  3  2  3
  3  4  1  0
  4  5  2  0
  5  6  1  0
  5  7  1  0
  7  8  2  0
  8  9  1  0
  8 10  1  0
 10 11  1  0
 10 12  2  0
 12 13  1  0
  3 14  1  0
 14 15  1  0
 14 16  1  0
 14 17  1  0
 17 18  1  0
 17 19  1  0
 19 20  1  0
 19 21  1  0
 21 22  1  0
 21 23  1  0
 21 24  1  0
 24 25  1  0
 24 26  1  0
 24 27  1  0
 27 28  1  0
 27 29  1  0
 27 30  1  0
 30 31  1  0
 30 32  1  0
 12  4  1  0
 30 19  1  0
M  END
>  <cnnaffinity>  (1) 
-3.83295

>  <filename>  (1) 
N=C(CNC1CCCC1)c1cccnc1

$$$$
