
     RDKit          3D

 27 28  0  0  0  0  0  0  0  0999 V2000
    8.6037   -2.1367   21.3871 H   0  0  0  0  0  0  0  0  0  0  0  0
    8.1557   -1.7156   20.5733 N   0  0  0  0  0  0  0  0  0  0  0  0
    7.4334   -0.7390   20.9422 C   0  0  0  0  0  0  0  0  0  0  0  0
    6.6611   -0.0021   19.9159 C   0  0  0  0  0  0  0  0  0  0  0  0
    7.1731    0.0429   18.6090 C   0  0  0  0  0  0  0  0  0  0  0  0
    8.1173   -0.4325   18.3757 H   0  0  0  0  0  0  0  0  0  0  0  0
    6.5712    0.6688   17.5956 N   0  0  0  0  0  0  0  0  0  0  0  0
    5.4094    1.2843   17.8532 C   0  0  0  0  0  0  0  0  0  0  0  0
    4.9283    1.7744   17.0084 H   0  0  0  0  0  0  0  0  0  0  0  0
    4.8142    1.3029   19.1177 C   0  0  0  0  0  0  0  0  0  0  0  0
    3.8822    1.8365   19.2589 H   0  0  0  0  0  0  0  0  0  0  0  0
    5.4464    0.6491   20.1736 C   0  0  0  0  0  0  0  0  0  0  0  0
    4.9923    0.6391   21.1659 H   0  0  0  0  0  0  0  0  0  0  0  0
    7.3589   -0.2406   22.3931 C   0  0  0  0  0  0  0  0  0  0  0  0
    6.3216   -0.2789   22.7434 H   0  0  0  0  0  0  0  0  0  0  0  0
    7.9179   -0.9249   23.0427 H   0  0  0  0  0  0  0  0  0  0  0  0
    7.9002    1.1706   22.5372 C   0  0  0  0  0  0  0  0  0  0  0  0
    7.0681    2.2656   22.7980 C   0  0  0  0  0  0  0  0  0  0  0  0
    6.0002    2.1095   22.9307 H   0  0  0  0  0  0  0  0  0  0  0  0
    7.5875    3.5585   22.8892 C   0  0  0  0  0  0  0  0  0  0  0  0
    6.9424    4.4067   23.0982 H   0  0  0  0  0  0  0  0  0  0  0  0
    8.9576    3.7757   22.7119 C   0  0  0  0  0  0  0  0  0  0  0  0
    9.5652    5.3926   22.8428 Cl  0  0  0  0  0  0  0  0  0  0  0  0
    9.8024    2.6876   22.4360 C   0  0  0  0  0  0  0  0  0  0  0  0
   11.5061    2.8945   22.2018 Cl  0  0  0  0  0  0  0  0  0  0  0  0
    9.2677    1.4006   22.3506 C   0  0  0  0  0  0  0  0  0  0  0  0
    9.9382    0.5761   22.1294 H   0  0  0  0  0  0  0  0  0  0  0  0
  1  2  1  0
  2  3  2  3
  3  4  1  0
  4  5  2  0
  5  6  1  0
  5  7  1  0
  7  8  2  0
  8  9  1  0
  8 10  1  0
 10 11  1  0
 10 12  2  0
 12 13  1  0
  3 14  1  0
 14 15  1  0
 14 16  1  0
 14 17  1  0
 17 18  2  0
 18 19  1  0
 18 20  1  0
 20 21  1  0
 20 22  2  0
 22 23  1  0
 22 24  1  0
 24 25  1  0
 24 26  2  0
 26 27  1  0
 12  4  1  0
 26 17  1  0
M  END
>  <cnnaffinity>  (1) 
-4.50237

>  <filename>  (1) 
N=C(Cc1ccc(Cl)c(Cl)c1)c1cccnc1

$$$$
