
     RDKit          3D

 29 30  0  0  0  0  0  0  0  0999 V2000
    9.9819    0.1861   20.6734 H   0  0  0  0  0  0  0  0  0  0  0  0
    9.6395    0.9969   21.1688 N   0  0  0  0  0  0  0  0  0  0  0  0
    8.4810    0.7359   21.6067 C   0  0  0  0  0  0  0  0  0  0  0  0
    7.5469   -0.7648   21.1710 S   0  0  0  0  0  0  0  0  0  0  0  0
    6.5872   -0.0484   19.8348 C   0  0  0  0  0  0  0  0  0  0  0  0
    7.0921   -0.0201   18.5204 C   0  0  0  0  0  0  0  0  0  0  0  0
    8.0314   -0.5279   18.2999 H   0  0  0  0  0  0  0  0  0  0  0  0
    6.5074    0.6352   17.5100 N   0  0  0  0  0  0  0  0  0  0  0  0
    5.3699    1.2965   17.7805 C   0  0  0  0  0  0  0  0  0  0  0  0
    4.9186    1.8383   16.9503 H   0  0  0  0  0  0  0  0  0  0  0  0
    4.7720    1.3104   19.0455 C   0  0  0  0  0  0  0  0  0  0  0  0
    3.8506    1.8573   19.2010 H   0  0  0  0  0  0  0  0  0  0  0  0
    5.3910    0.6287   20.0968 C   0  0  0  0  0  0  0  0  0  0  0  0
    4.9794    0.6364   21.1090 H   0  0  0  0  0  0  0  0  0  0  0  0
    7.7529    1.6265   22.3495 N   0  0  0  0  0  0  0  0  0  0  0  0
    7.1175    1.1431   22.9535 H   0  0  0  0  0  0  0  0  0  0  0  0
    8.4377    2.7894   22.9335 C   0  0  0  0  0  0  0  0  0  0  0  0
    7.6886    3.3819   23.4663 H   0  0  0  0  0  0  0  0  0  0  0  0
    8.7933    3.4224   22.1174 H   0  0  0  0  0  0  0  0  0  0  0  0
    9.6044    2.4214   23.8441 C   0  0  0  0  0  0  0  0  0  0  0  0
   10.9314    2.6126   23.4197 C   0  0  0  0  0  0  0  0  0  0  0  0
   11.1675    3.1710   22.5224 H   0  0  0  0  0  0  0  0  0  0  0  0
   11.9708    2.0149   24.1290 C   0  0  0  0  0  0  0  0  0  0  0  0
   13.0034    2.1211   23.7993 H   0  0  0  0  0  0  0  0  0  0  0  0
   11.7785    1.2652   25.2147 N   0  0  0  0  0  0  0  0  0  0  0  0
   10.5275    1.1689   25.6867 C   0  0  0  0  0  0  0  0  0  0  0  0
   10.4013    0.5570   26.5766 H   0  0  0  0  0  0  0  0  0  0  0  0
    9.4243    1.7678   25.0764 C   0  0  0  0  0  0  0  0  0  0  0  0
    8.4512    1.6944   25.5612 H   0  0  0  0  0  0  0  0  0  0  0  0
  1  2  1  0
  2  3  2  3
  3  4  1  0
  4  5  1  0
  5  6  2  0
  6  7  1  0
  6  8  1  0
  8  9  2  0
  9 10  1  0
  9 11  1  0
 11 12  1  0
 11 13  2  0
 13 14  1  0
  3 15  1  0
 15 16  1  0
 15 17  1  0
 17 18  1  0
 17 19  1  0
 17 20  1  0
 20 21  2  0
 21 22  1  0
 21 23  1  0
 23 24  1  0
 23 25  2  0
 25 26  1  0
 26 27  1  0
 26 28  2  0
 28 29  1  0
 13  5  1  0
 28 20  1  0
M  END
>  <cnnaffinity>  (1) 
-4.3869

>  <filename>  (1) 
N=C(NCc1ccncc1)Sc1cccnc1

$$$$
