
     RDKit          3D

 39 41  0  0  0  0  0  0  0  0999 V2000
    9.0176   -1.2927   24.8491 H   0  0  0  0  0  0  0  0  0  0  0  0
    8.4483   -0.5993   24.3721 N   0  0  0  0  0  0  0  0  0  0  0  0
    8.1568   -0.9750   23.1930 C   0  0  0  0  0  0  0  0  0  0  0  0
    8.4398   -2.5229   22.3832 S   0  0  0  0  0  0  0  0  0  0  0  0
    7.6017   -1.9652   20.9635 C   0  0  0  0  0  0  0  0  0  0  0  0
    7.3265   -2.6374   20.1735 H   0  0  0  0  0  0  0  0  0  0  0  0
    7.2487   -0.6735   21.0420 C   0  0  0  0  0  0  0  0  0  0  0  0
    6.5851    0.0918   19.9715 C   0  0  0  0  0  0  0  0  0  0  0  0
    7.1357    0.1024   18.6768 C   0  0  0  0  0  0  0  0  0  0  0  0
    8.0917   -0.3834   18.4744 H   0  0  0  0  0  0  0  0  0  0  0  0
    6.5706    0.6946   17.6172 N   0  0  0  0  0  0  0  0  0  0  0  0
    5.3977    1.3221   17.8098 C   0  0  0  0  0  0  0  0  0  0  0  0
    4.9480    1.7941   16.9338 H   0  0  0  0  0  0  0  0  0  0  0  0
    4.7544    1.3629   19.0514 C   0  0  0  0  0  0  0  0  0  0  0  0
    3.8024    1.8743   19.1434 H   0  0  0  0  0  0  0  0  0  0  0  0
    5.3538    0.7477   20.1486 C   0  0  0  0  0  0  0  0  0  0  0  0
    4.8909    0.7599   21.1357 H   0  0  0  0  0  0  0  0  0  0  0  0
    7.5109   -0.1290   22.3122 N   0  0  0  0  0  0  0  0  0  0  0  0
    7.4329    1.2465   22.6307 C   0  0  0  0  0  0  0  0  0  0  0  0
    7.8451    2.0879   21.8607 O   0  0  0  0  0  0  0  0  0  0  0  0
    6.7667    1.4697   23.7984 N   0  0  0  0  0  0  0  0  0  0  0  0
    6.9359    0.7188   24.4559 H   0  0  0  0  0  0  0  0  0  0  0  0
    6.6572    2.8240   24.3181 C   0  0  0  0  0  0  0  0  0  0  0  0
    6.2104    3.4464   23.5251 H   0  0  0  0  0  0  0  0  0  0  0  0
    8.0401    3.4275   24.6745 C   0  0  0  0  0  0  0  0  0  0  0  0
    8.4681    3.8100   23.7413 H   0  0  0  0  0  0  0  0  0  0  0  0
    8.7135    2.6287   25.0198 H   0  0  0  0  0  0  0  0  0  0  0  0
    7.9617    4.5375   25.7495 C   0  0  0  0  0  0  0  0  0  0  0  0
    8.7758    5.2534   25.5956 H   0  0  0  0  0  0  0  0  0  0  0  0
    8.1248    4.0966   26.7429 H   0  0  0  0  0  0  0  0  0  0  0  0
    6.6012    5.2522   25.7460 C   0  0  0  0  0  0  0  0  0  0  0  0
    6.5889    6.0559   26.4908 H   0  0  0  0  0  0  0  0  0  0  0  0
    6.4558    5.7386   24.7711 H   0  0  0  0  0  0  0  0  0  0  0  0
    5.4313    4.2706   26.0130 C   0  0  0  0  0  0  0  0  0  0  0  0
    5.2162    4.2290   27.0851 H   0  0  0  0  0  0  0  0  0  0  0  0
    4.5252    4.6572   25.5322 H   0  0  0  0  0  0  0  0  0  0  0  0
    5.7110    2.8303   25.5177 C   0  0  0  0  0  0  0  0  0  0  0  0
    6.1694    2.2365   26.3251 H   0  0  0  0  0  0  0  0  0  0  0  0
    4.7812    2.3194   25.2421 H   0  0  0  0  0  0  0  0  0  0  0  0
  1  2  1  0
  2  3  2  3
  3  4  1  0
  4  5  1  0
  5  6  1  0
  5  7  2  0
  7  8  1  0
  8  9  2  0
  9 10  1  0
  9 11  1  0
 11 12  2  0
 12 13  1  0
 12 14  1  0
 14 15  1  0
 14 16  2  0
 16 17  1  0
  7 18  1  0
 18 19  1  0
 19 20  2  0
 19 21  1  0
 21 22  1  0
 21 23  1  0
 23 24  1  0
 23 25  1  0
 25 26  1  0
 25 27  1  0
 25 28  1  0
 28 29  1  0
 28 30  1  0
 28 31  1  0
 31 32  1  0
 31 33  1  0
 31 34  1  0
 34 35  1  0
 34 36  1  0
 34 37  1  0
 37 38  1  0
 37 39  1  0
 18  3  1  0
 37 23  1  0
 16  8  1  0
M  END
>  <cnnaffinity>  (1) 
-5.20014

>  <filename>  (1) 
N=c1scc(-c2cccnc2)n1C(=O)NC1CCCCC1

$$$$
