
     RDKit          3D

 41 43  0  0  0  0  0  0  0  0999 V2000
   12.2503    3.8097   23.4788 H   0  0  0  0  0  0  0  0  0  0  0  0
   12.2470    2.9431   23.9306 O   0  0  0  0  0  0  0  0  0  0  0  0
   12.2332    2.1927   22.8159 C   0  0  0  0  0  0  0  0  0  0  0  0
   12.1633    2.7885   21.7590 O   0  0  0  0  0  0  0  0  0  0  0  0
   12.1681    0.6300   22.9305 C   0  0  1  0  0  0  0  0  0  0  0  0
   12.4161    0.3737   21.8932 H   0  0  0  0  0  0  0  0  0  0  0  0
   13.1621   -0.0293   23.7995 N   0  0  0  0  0  0  0  0  0  0  0  0
   13.2878   -0.9887   23.4846 H   0  0  0  0  0  0  0  0  0  0  0  0
   12.8481   -0.0807   24.7693 H   0  0  0  0  0  0  0  0  0  0  0  0
   10.7001    0.1797   23.2177 C   0  0  0  0  0  0  0  0  0  0  0  0
   10.4132    0.5749   24.2042 H   0  0  0  0  0  0  0  0  0  0  0  0
   10.6899   -0.9192   23.3176 H   0  0  0  0  0  0  0  0  0  0  0  0
    9.7015    0.6313   22.1226 C   0  0  2  0  0  0  0  0  0  0  0  0
   10.0583    1.6136   21.7852 H   0  0  0  0  0  0  0  0  0  0  0  0
    8.2419    0.8654   22.6075 C   0  0  0  0  0  0  0  0  0  0  0  0
    7.8149    1.7010   22.0373 H   0  0  0  0  0  0  0  0  0  0  0  0
    8.2372    1.1762   23.6579 H   0  0  0  0  0  0  0  0  0  0  0  0
    7.2796   -0.3322   22.4134 C   0  0  1  0  0  0  0  0  0  0  0  0
    6.2703   -0.0413   22.7356 H   0  0  0  0  0  0  0  0  0  0  0  0
    7.2947   -0.7554   20.9968 N   0  0  0  0  0  0  0  0  0  0  0  0
    6.6902   -0.0405   19.9547 C   0  0  0  0  0  0  0  0  0  0  0  0
    7.1904    0.0006   18.6153 C   0  0  0  0  0  0  0  0  0  0  0  0
    8.1158   -0.5114   18.3716 H   0  0  0  0  0  0  0  0  0  0  0  0
    6.6112    0.6436   17.5939 N   0  0  0  0  0  0  0  0  0  0  0  0
    5.4633    1.2939   17.8421 C   0  0  0  0  0  0  0  0  0  0  0  0
    5.0163    1.8262   17.0072 H   0  0  0  0  0  0  0  0  0  0  0  0
    4.8600    1.3031   19.1048 C   0  0  0  0  0  0  0  0  0  0  0  0
    3.9278    1.8404   19.2514 H   0  0  0  0  0  0  0  0  0  0  0  0
    5.4701    0.6365   20.1677 C   0  0  0  0  0  0  0  0  0  0  0  0
    5.0206    0.6182   21.1591 H   0  0  0  0  0  0  0  0  0  0  0  0
    8.6149   -1.3803   20.8611 C   0  0  2  0  0  0  0  0  0  0  0  0
    8.6921   -1.8968   19.9074 H   0  0  0  0  0  0  0  0  0  0  0  0
    8.5797   -2.3663   22.0399 C   0  0  0  0  0  0  0  0  0  0  0  0
    8.0583   -3.2706   21.7102 H   0  0  0  0  0  0  0  0  0  0  0  0
    9.5739   -2.6735   22.3737 H   0  0  0  0  0  0  0  0  0  0  0  0
    7.7374   -1.6306   23.1165 C   0  0  0  0  0  0  0  0  0  0  0  0
    8.3009   -1.4189   24.0297 H   0  0  0  0  0  0  0  0  0  0  0  0
    6.8571   -2.2217   23.3919 H   0  0  0  0  0  0  0  0  0  0  0  0
    9.7243   -0.3078   20.8917 C   0  0  0  0  0  0  0  0  0  0  0  0
    9.5847    0.3035   19.9926 H   0  0  0  0  0  0  0  0  0  0  0  0
   10.6972   -0.8017   20.7851 H   0  0  0  0  0  0  0  0  0  0  0  0
  1  2  1  0
  2  3  1  0
  3  4  2  0
  3  5  1  0
  5  6  1  6
  5  7  1  0
  7  8  1  0
  7  9  1  0
  5 10  1  0
 10 11  1  0
 10 12  1  0
 10 13  1  0
 13 14  1  6
 13 15  1  0
 15 16  1  0
 15 17  1  0
 15 18  1  0
 18 19  1  1
 18 20  1  0
 20 21  1  0
 21 22  2  0
 22 23  1  0
 22 24  1  0
 24 25  2  0
 25 26  1  0
 25 27  1  0
 27 28  1  0
 27 29  2  0
 29 30  1  0
 20 31  1  0
 31 32  1  6
 31 33  1  0
 33 34  1  0
 33 35  1  0
 33 36  1  0
 36 37  1  0
 36 38  1  0
 31 39  1  0
 39 40  1  0
 39 41  1  0
 39 13  1  0
 36 18  1  0
 29 21  1  0
M  END
>  <cnnaffinity>  (1) 
-5.11972

>  <filename>  (1) 
N[C@@H](C[C@H]1C[C@H]2CC[C@@H](C1)N2c1cccnc1)C(=O)O

$$$$
