
     RDKit          3D

 29 32  0  0  0  0  0  0  0  0999 V2000
    4.9329    1.7739   17.0001 H   0  0  0  0  0  0  0  0  0  0  0  0
    5.4094    1.2854   17.8451 C   0  0  0  0  0  0  0  0  0  0  0  0
    6.5734    0.6655   17.5956 N   0  0  0  0  0  0  0  0  0  0  0  0
    7.1773    0.0528   18.6189 C   0  0  0  0  0  0  0  0  0  0  0  0
    8.1244   -0.4316   18.3869 H   0  0  0  0  0  0  0  0  0  0  0  0
    6.6424    0.0187   19.9158 C   0  0  0  0  0  0  0  0  0  0  0  0
    7.3648   -0.6840   20.9734 C   0  0  0  0  0  0  0  0  0  0  0  0
    8.5521   -1.3167   20.7614 N   0  0  0  0  0  0  0  0  0  0  0  0
    8.8058   -1.8074   21.9542 C   0  0  0  0  0  0  0  0  0  0  0  0
   10.0190   -2.7758   22.7472 S   0  0  0  0  0  0  0  0  0  0  0  0
    9.0919   -2.7294   24.2182 C   0  0  0  0  0  0  0  0  0  0  0  0
    9.4627   -3.2251   25.1033 H   0  0  0  0  0  0  0  0  0  0  0  0
    7.9561   -2.0105   24.1136 C   0  0  0  0  0  0  0  0  0  0  0  0
    6.9735   -1.7248   25.1840 C   0  0  1  0  0  0  0  0  0  0  0  0
    6.0989   -2.3695   25.1610 H   0  0  0  0  0  0  0  0  0  0  0  0
    7.4741   -1.3440   26.5577 C   0  0  0  0  0  0  0  0  0  0  0  0
    6.9918   -1.7536   27.4397 H   0  0  0  0  0  0  0  0  0  0  0  0
    8.5456   -1.1924   26.6482 H   0  0  0  0  0  0  0  0  0  0  0  0
    6.7604   -0.3336   25.7196 C   0  0  1  0  0  0  0  0  0  0  0  0
    5.7380   -0.0972   26.0360 H   0  0  0  0  0  0  0  0  0  0  0  0
    7.5754    0.6904   25.1437 N   0  0  0  0  0  0  0  0  0  0  0  0
    7.7806    1.4112   25.8254 H   0  0  0  0  0  0  0  0  0  0  0  0
    7.1107    1.1069   24.3421 H   0  0  0  0  0  0  0  0  0  0  0  0
    7.8292   -1.4964   22.8268 N   0  0  0  0  0  0  0  0  0  0  0  0
    6.8858   -0.7509   22.2115 N   0  0  0  0  0  0  0  0  0  0  0  0
    5.4201    0.6618   20.1683 C   0  0  0  0  0  0  0  0  0  0  0  0
    4.9913    0.6400   21.1751 H   0  0  0  0  0  0  0  0  0  0  0  0
    4.8029    1.3112   19.1062 C   0  0  0  0  0  0  0  0  0  0  0  0
    3.8725    1.8444   19.2525 H   0  0  0  0  0  0  0  0  0  0  0  0
  1  2  1  0
  2  3  2  0
  3  4  1  0
  4  5  1  0
  4  6  2  0
  6  7  1  0
  7  8  1  0
  8  9  2  0
  9 10  1  0
 10 11  1  0
 11 12  1  0
 11 13  2  0
 13 14  1  0
 14 15  1  1
 14 16  1  0
 16 17  1  0
 16 18  1  0
 16 19  1  0
 19 20  1  1
 19 21  1  0
 21 22  1  0
 21 23  1  0
 13 24  1  0
 24 25  1  0
  6 26  1  0
 26 27  1  0
 26 28  2  0
 28 29  1  0
 28  2  1  0
 25  7  2  0
 24  9  1  0
 19 14  1  0
M  END
>  <cnnaffinity>  (1) 
-5.10862

>  <filename>  (1) 
N[C@@H]1C[C@@H]1c1csc2nc(-c3cccnc3)nn12

$$$$
