
     RDKit          3D

 36 37  0  0  0  0  0  0  0  0999 V2000
    4.9075    1.8236   16.9751 H   0  0  0  0  0  0  0  0  0  0  0  0
    5.3788    1.2998   17.8028 C   0  0  0  0  0  0  0  0  0  0  0  0
    6.5360    0.6811   17.5224 N   0  0  0  0  0  0  0  0  0  0  0  0
    7.1654    0.0759   18.5283 C   0  0  0  0  0  0  0  0  0  0  0  0
    8.1200   -0.3947   18.3032 H   0  0  0  0  0  0  0  0  0  0  0  0
    6.6615    0.0225   19.8352 C   0  0  0  0  0  0  0  0  0  0  0  0
    7.5289   -0.6698   20.8414 C   0  0  0  0  0  0  0  0  0  0  0  0
    8.7189   -0.7850   20.6422 O   0  0  0  0  0  0  0  0  0  0  0  0
    6.7957   -1.2443   22.1529 C   0  0  2  0  0  0  0  0  0  0  0  0
    5.7842   -1.4383   21.7671 H   0  0  0  0  0  0  0  0  0  0  0  0
    6.7154   -0.3194   23.2845 N   0  0  0  0  0  0  0  0  0  0  0  0
    6.2422   -0.8442   24.0178 H   0  0  0  0  0  0  0  0  0  0  0  0
    7.6655   -0.1866   23.6230 H   0  0  0  0  0  0  0  0  0  0  0  0
    7.3792   -2.4391   22.7373 N   0  0  0  0  0  0  0  0  0  0  0  0
    7.7336   -2.1483   23.6387 H   0  0  0  0  0  0  0  0  0  0  0  0
    6.6074   -3.6868   22.8521 C   0  0  0  0  0  0  0  0  0  0  0  0
    7.3431   -4.4185   23.2148 H   0  0  0  0  0  0  0  0  0  0  0  0
    5.4570   -3.6064   23.8757 C   0  0  0  0  0  0  0  0  0  0  0  0
    5.8363   -3.2624   24.8459 H   0  0  0  0  0  0  0  0  0  0  0  0
    4.7580   -2.8485   23.5184 H   0  0  0  0  0  0  0  0  0  0  0  0
    4.6531   -4.9077   24.0205 C   0  0  0  0  0  0  0  0  0  0  0  0
    3.8177   -4.7456   24.7114 H   0  0  0  0  0  0  0  0  0  0  0  0
    5.2653   -5.6912   24.4841 H   0  0  0  0  0  0  0  0  0  0  0  0
    4.1376   -5.3804   22.6529 C   0  0  0  0  0  0  0  0  0  0  0  0
    3.4074   -4.6477   22.2810 H   0  0  0  0  0  0  0  0  0  0  0  0
    3.5852   -6.3243   22.7509 H   0  0  0  0  0  0  0  0  0  0  0  0
    5.2923   -5.5104   21.6445 C   0  0  0  0  0  0  0  0  0  0  0  0
    4.9206   -5.8322   20.6678 H   0  0  0  0  0  0  0  0  0  0  0  0
    5.9684   -6.3079   21.9825 H   0  0  0  0  0  0  0  0  0  0  0  0
    6.0874   -4.1971   21.4981 C   0  0  0  0  0  0  0  0  0  0  0  0
    6.9379   -4.3204   20.8199 H   0  0  0  0  0  0  0  0  0  0  0  0
    5.4376   -3.4338   21.0484 H   0  0  0  0  0  0  0  0  0  0  0  0
    5.4406    0.6589   20.1202 C   0  0  0  0  0  0  0  0  0  0  0  0
    5.0385    0.6746   21.1392 H   0  0  0  0  0  0  0  0  0  0  0  0
    4.7917    1.3127   19.0714 C   0  0  0  0  0  0  0  0  0  0  0  0
    3.8589    1.8441   19.2258 H   0  0  0  0  0  0  0  0  0  0  0  0
  1  2  1  0
  2  3  2  0
  3  4  1  0
  4  5  1  0
  4  6  2  0
  6  7  1  0
  7  8  2  0
  7  9  1  0
  9 10  1  6
  9 11  1  0
 11 12  1  0
 11 13  1  0
  9 14  1  0
 14 15  1  0
 14 16  1  0
 16 17  1  0
 16 18  1  0
 18 19  1  0
 18 20  1  0
 18 21  1  0
 21 22  1  0
 21 23  1  0
 21 24  1  0
 24 25  1  0
 24 26  1  0
 24 27  1  0
 27 28  1  0
 27 29  1  0
 27 30  1  0
 30 31  1  0
 30 32  1  0
  6 33  1  0
 33 34  1  0
 33 35  2  0
 35 36  1  0
 35  2  1  0
 30 16  1  0
M  END
>  <cnnaffinity>  (1) 
-4.28411

>  <filename>  (1) 
N[C@H](NC1CCCCC1)C(=O)c1cccnc1

$$$$
