
     RDKit          3D

 36 38  0  0  0  0  0  0  0  0999 V2000
   11.3417    1.6424   23.8253 H   0  0  0  0  0  0  0  0  0  0  0  0
   10.4756    2.0818   23.8239 O   0  0  0  0  0  0  0  0  0  0  0  0
   10.0641    1.6970   22.5867 C   0  0  0  0  0  0  0  0  0  0  0  0
   10.8058    0.9758   21.9649 O   0  0  0  0  0  0  0  0  0  0  0  0
    8.6405    2.2591   22.2284 C   0  0  1  0  0  0  0  0  0  0  0  0
    8.5909    3.2117   22.7836 H   0  0  0  0  0  0  0  0  0  0  0  0
    8.3378    2.4012   20.7887 N   0  0  0  0  0  0  0  0  0  0  0  0
    7.3371    2.5851   20.6763 H   0  0  0  0  0  0  0  0  0  0  0  0
    8.8153    3.2065   20.3797 H   0  0  0  0  0  0  0  0  0  0  0  0
    7.5546    1.3148   22.8228 C   0  0  0  0  0  0  0  0  0  0  0  0
    6.5836    1.7378   22.5392 H   0  0  0  0  0  0  0  0  0  0  0  0
    7.5918    1.3549   23.9196 H   0  0  0  0  0  0  0  0  0  0  0  0
    7.6440   -0.1136   22.3343 C   0  0  0  0  0  0  0  0  0  0  0  0
    7.3222   -0.6495   21.0342 C   0  0  0  0  0  0  0  0  0  0  0  0
    6.6112    0.0099   19.9309 C   0  0  0  0  0  0  0  0  0  0  0  0
    7.1486    0.0173   18.6296 C   0  0  0  0  0  0  0  0  0  0  0  0
    8.0743   -0.5124   18.4040 H   0  0  0  0  0  0  0  0  0  0  0  0
    6.5881    0.6581   17.5955 N   0  0  0  0  0  0  0  0  0  0  0  0
    5.4398    1.3153   17.8185 C   0  0  0  0  0  0  0  0  0  0  0  0
    5.0089    1.8410   16.9674 H   0  0  0  0  0  0  0  0  0  0  0  0
    4.8057    1.3417   19.0647 C   0  0  0  0  0  0  0  0  0  0  0  0
    3.8679    1.8689   19.1819 H   0  0  0  0  0  0  0  0  0  0  0  0
    5.4021    0.6845   20.1372 C   0  0  0  0  0  0  0  0  0  0  0  0
    4.9345    0.6756   21.1234 H   0  0  0  0  0  0  0  0  0  0  0  0
    7.8371   -1.8663   20.8575 N   0  0  0  0  0  0  0  0  0  0  0  0
    8.4023   -2.1346   22.0405 N   0  0  0  0  0  0  0  0  0  0  0  0
    8.3527   -1.1376   22.9332 C   0  0  0  0  0  0  0  0  0  0  0  0
    9.2296   -1.4526   24.1182 C   0  0  0  0  0  0  0  0  0  0  0  0
    9.9869   -0.6718   24.2443 H   0  0  0  0  0  0  0  0  0  0  0  0
    8.6634   -1.5019   25.0514 H   0  0  0  0  0  0  0  0  0  0  0  0
    9.8471   -2.8371   23.7490 C   0  0  0  0  0  0  0  0  0  0  0  0
    9.4630   -3.6296   24.3971 H   0  0  0  0  0  0  0  0  0  0  0  0
   10.9338   -2.8302   23.8396 H   0  0  0  0  0  0  0  0  0  0  0  0
    9.4269   -3.1196   22.2838 C   0  0  0  0  0  0  0  0  0  0  0  0
   10.2429   -2.9284   21.5754 H   0  0  0  0  0  0  0  0  0  0  0  0
    9.0070   -4.1138   22.1321 H   0  0  0  0  0  0  0  0  0  0  0  0
  1  2  1  0
  2  3  1  0
  3  4  2  0
  3  5  1  0
  5  6  1  1
  5  7  1  0
  7  8  1  0
  7  9  1  0
  5 10  1  0
 10 11  1  0
 10 12  1  0
 10 13  1  0
 13 14  1  0
 14 15  1  0
 15 16  2  0
 16 17  1  0
 16 18  1  0
 18 19  2  0
 19 20  1  0
 19 21  1  0
 21 22  1  0
 21 23  2  0
 23 24  1  0
 14 25  2  0
 25 26  1  0
 26 27  1  0
 27 28  1  0
 28 29  1  0
 28 30  1  0
 28 31  1  0
 31 32  1  0
 31 33  1  0
 31 34  1  0
 34 35  1  0
 34 36  1  0
 27 13  2  0
 23 15  1  0
 34 26  1  0
M  END
>  <cnnaffinity>  (1) 
-4.84048

>  <filename>  (1) 
N[C@@H](Cc1c(-c2cccnc2)nn2c1CCC2)C(=O)O

$$$$
