
     RDKit          3D

 36 37  0  0  0  0  0  0  0  0999 V2000
    4.9540    1.8278   16.9000 H   0  0  0  0  0  0  0  0  0  0  0  0
    5.4278    1.3331   17.7445 C   0  0  0  0  0  0  0  0  0  0  0  0
    6.5792    0.6918   17.4930 N   0  0  0  0  0  0  0  0  0  0  0  0
    7.1812    0.0754   18.5223 C   0  0  0  0  0  0  0  0  0  0  0  0
    8.1031   -0.4483   18.2718 H   0  0  0  0  0  0  0  0  0  0  0  0
    6.6872    0.0697   19.8561 C   0  0  0  0  0  0  0  0  0  0  0  0
    7.2206   -0.5877   20.9733 N   0  0  0  0  0  0  0  0  0  0  0  0
    8.4377   -0.6633   21.2878 C   0  0  0  0  0  0  0  0  0  0  0  0
    9.5066    0.0122   20.7194 N   0  0  0  0  0  0  0  0  0  0  0  0
    9.1770    0.8548   20.2706 H   0  0  0  0  0  0  0  0  0  0  0  0
   10.1151    0.2221   21.4941 H   0  0  0  0  0  0  0  0  0  0  0  0
    8.9734   -1.4464   22.3169 N   0  0  0  0  0  0  0  0  0  0  0  0
    9.8198   -1.7535   21.8452 H   0  0  0  0  0  0  0  0  0  0  0  0
    8.2236   -2.5957   22.8281 N   0  0  0  0  0  0  0  0  0  0  0  0
    7.3803   -2.2429   23.2993 H   0  0  0  0  0  0  0  0  0  0  0  0
    8.9611   -3.4010   23.8058 C   0  0  0  0  0  0  0  0  0  0  0  0
    9.9358   -3.6803   23.3654 H   0  0  0  0  0  0  0  0  0  0  0  0
    8.1066   -4.6564   24.0127 C   0  0  0  0  0  0  0  0  0  0  0  0
    7.1288   -4.3178   24.3982 H   0  0  0  0  0  0  0  0  0  0  0  0
    7.9230   -5.1089   23.0310 H   0  0  0  0  0  0  0  0  0  0  0  0
    8.7339   -5.6384   25.0090 C   0  0  0  0  0  0  0  0  0  0  0  0
    9.6756   -6.0277   24.5949 H   0  0  0  0  0  0  0  0  0  0  0  0
    8.0789   -6.5051   25.1406 H   0  0  0  0  0  0  0  0  0  0  0  0
    8.9963   -4.9583   26.3630 C   0  0  0  0  0  0  0  0  0  0  0  0
    8.0340   -4.7432   26.8502 H   0  0  0  0  0  0  0  0  0  0  0  0
    9.5363   -5.6497   27.0235 H   0  0  0  0  0  0  0  0  0  0  0  0
    9.8052   -3.6597   26.2074 C   0  0  0  0  0  0  0  0  0  0  0  0
    9.8834   -3.1517   27.1785 H   0  0  0  0  0  0  0  0  0  0  0  0
   10.8284   -3.9369   25.9134 H   0  0  0  0  0  0  0  0  0  0  0  0
    9.2250   -2.6924   25.1522 C   0  0  0  0  0  0  0  0  0  0  0  0
    8.2744   -2.2684   25.5133 H   0  0  0  0  0  0  0  0  0  0  0  0
    9.9002   -1.8450   24.9775 H   0  0  0  0  0  0  0  0  0  0  0  0
    5.4585    0.7194   20.0699 C   0  0  0  0  0  0  0  0  0  0  0  0
    5.0411    0.6905   21.0797 H   0  0  0  0  0  0  0  0  0  0  0  0
    4.8254    1.3664   19.0104 C   0  0  0  0  0  0  0  0  0  0  0  0
    3.8789    1.8814   19.1522 H   0  0  0  0  0  0  0  0  0  0  0  0
  1  2  1  0
  2  3  2  0
  3  4  1  0
  4  5  1  0
  4  6  2  0
  6  7  1  0
  7  8  2  3
  8  9  1  0
  9 10  1  0
  9 11  1  0
  8 12  1  0
 12 13  1  0
 12 14  1  0
 14 15  1  0
 14 16  1  0
 16 17  1  0
 16 18  1  0
 18 19  1  0
 18 20  1  0
 18 21  1  0
 21 22  1  0
 21 23  1  0
 21 24  1  0
 24 25  1  0
 24 26  1  0
 24 27  1  0
 27 28  1  0
 27 29  1  0
 27 30  1  0
 30 31  1  0
 30 32  1  0
  6 33  1  0
 33 34  1  0
 33 35  2  0
 35 36  1  0
 35  2  1  0
 30 16  1  0
M  END
>  <cnnaffinity>  (1) 
-4.4421

>  <filename>  (1) 
NC(=Nc1cccnc1)NNC1CCCCC1

$$$$
