
     RDKit          3D

 33 35  0  0  0  0  0  0  0  0999 V2000
    4.8414    1.9542   16.8581 H   0  0  0  0  0  0  0  0  0  0  0  0
    5.3540    1.4351   17.6652 C   0  0  0  0  0  0  0  0  0  0  0  0
    6.5075    0.8326   17.3412 N   0  0  0  0  0  0  0  0  0  0  0  0
    7.1640    0.1915   18.3112 C   0  0  0  0  0  0  0  0  0  0  0  0
    8.1138   -0.2517   18.0167 H   0  0  0  0  0  0  0  0  0  0  0  0
    6.7142    0.0858   19.6381 C   0  0  0  0  0  0  0  0  0  0  0  0
    7.4658   -0.7016   20.6297 C   0  0  0  0  0  0  0  0  0  0  0  0
    7.0006   -0.8183   21.9332 N   0  0  0  0  0  0  0  0  0  0  0  0
    7.8403   -1.6231   22.4893 C   0  0  0  0  0  0  0  0  0  0  0  0
    7.7234   -1.9736   23.7821 N   0  0  0  0  0  0  0  0  0  0  0  0
    7.2367   -1.2348   24.2649 H   0  0  0  0  0  0  0  0  0  0  0  0
    8.4500   -2.8887   24.5204 C   0  0  0  0  0  0  0  0  0  0  0  0
    8.7088   -4.1451   23.9622 C   0  0  0  0  0  0  0  0  0  0  0  0
    8.3496   -4.3390   22.9595 H   0  0  0  0  0  0  0  0  0  0  0  0
    9.3510   -5.1330   24.7019 C   0  0  0  0  0  0  0  0  0  0  0  0
    9.5109   -6.1177   24.2759 H   0  0  0  0  0  0  0  0  0  0  0  0
    9.7739   -4.8573   26.0044 C   0  0  0  0  0  0  0  0  0  0  0  0
   10.3023   -5.6157   26.5790 H   0  0  0  0  0  0  0  0  0  0  0  0
    9.5249   -3.6060   26.5583 C   0  0  0  0  0  0  0  0  0  0  0  0
    9.8795   -3.4406   27.5642 H   0  0  0  0  0  0  0  0  0  0  0  0
    8.8472   -2.5892   25.8442 C   0  0  0  0  0  0  0  0  0  0  0  0
    8.5689   -1.2217   26.3770 C   0  0  0  0  0  0  0  0  0  0  0  0
    7.8310   -0.3935   25.8509 O   0  0  0  0  0  0  0  0  0  0  0  0
    9.2136   -0.7984   27.5171 N   0  0  0  0  0  0  0  0  0  0  0  0
    8.8178    0.1073   27.7319 H   0  0  0  0  0  0  0  0  0  0  0  0
    9.2534   -1.4195   28.3069 H   0  0  0  0  0  0  0  0  0  0  0  0
    8.8382   -2.0576   21.7112 O   0  0  0  0  0  0  0  0  0  0  0  0
    8.5996   -1.4365   20.4999 C   0  0  0  0  0  0  0  0  0  0  0  0
    9.3229   -1.6444   19.7292 H   0  0  0  0  0  0  0  0  0  0  0  0
    5.5164    0.7508   19.9647 C   0  0  0  0  0  0  0  0  0  0  0  0
    5.1577    0.7549   20.9942 H   0  0  0  0  0  0  0  0  0  0  0  0
    4.8237    1.4228   18.9593 C   0  0  0  0  0  0  0  0  0  0  0  0
    3.9008    1.9554   19.1621 H   0  0  0  0  0  0  0  0  0  0  0  0
  1  2  1  0
  2  3  2  0
  3  4  1  0
  4  5  1  0
  4  6  2  0
  6  7  1  0
  7  8  1  0
  8  9  2  0
  9 10  1  0
 10 11  1  0
 10 12  1  0
 12 13  2  0
 13 14  1  0
 13 15  1  0
 15 16  1  0
 15 17  2  0
 17 18  1  0
 17 19  1  0
 19 20  1  0
 19 21  2  0
 21 22  1  0
 22 23  2  0
 22 24  1  0
 24 25  1  0
 24 26  1  0
  9 27  1  0
 27 28  1  0
 28 29  1  0
  6 30  1  0
 30 31  1  0
 30 32  2  0
 32 33  1  0
 32  2  1  0
 28  7  2  0
 21 12  1  0
M  END
>  <cnnaffinity>  (1) 
-4.59248

>  <filename>  (1) 
NC(=O)c1ccccc1Nc1nc(-c2cccnc2)co1

$$$$
