
     RDKit          3D

 35 37  0  0  0  0  0  0  0  0999 V2000
    4.9234    1.7909   16.9764 H   0  0  0  0  0  0  0  0  0  0  0  0
    5.3911    1.2759   17.8118 C   0  0  0  0  0  0  0  0  0  0  0  0
    6.5520    0.6466   17.5451 N   0  0  0  0  0  0  0  0  0  0  0  0
    7.1694    0.0352   18.5643 C   0  0  0  0  0  0  0  0  0  0  0  0
    8.1222   -0.4450   18.3444 H   0  0  0  0  0  0  0  0  0  0  0  0
    6.6623   -0.0285   19.8919 C   0  0  0  0  0  0  0  0  0  0  0  0
    7.4446   -0.6015   20.9078 N   0  0  0  0  0  0  0  0  0  0  0  0
    7.0220   -1.3919   21.7943 C   0  0  0  0  0  0  0  0  0  0  0  0
    5.9133   -2.2087   21.7667 N   0  0  0  0  0  0  0  0  0  0  0  0
    5.5003   -2.0761   22.6799 H   0  0  0  0  0  0  0  0  0  0  0  0
    5.3069   -1.8955   21.0256 H   0  0  0  0  0  0  0  0  0  0  0  0
    7.6829   -1.6892   22.9383 N   0  0  0  0  0  0  0  0  0  0  0  0
    7.3987   -2.6167   23.1693 H   0  0  0  0  0  0  0  0  0  0  0  0
    9.0583   -1.3054   23.0822 C   0  0  0  0  0  0  0  0  0  0  0  0
    9.5282   -1.9060   23.8703 H   0  0  0  0  0  0  0  0  0  0  0  0
    9.6219   -1.4130   22.1441 H   0  0  0  0  0  0  0  0  0  0  0  0
    9.0513    0.0667   23.4838 N   0  0  0  0  0  0  0  0  0  0  0  0
    8.3112    0.4543   24.5929 C   0  0  0  0  0  0  0  0  0  0  0  0
    7.9133   -0.3059   25.4426 O   0  0  0  0  0  0  0  0  0  0  0  0
    8.1597    1.9346   24.5121 C   0  0  0  0  0  0  0  0  0  0  0  0
    7.5822    2.8489   25.3977 C   0  0  0  0  0  0  0  0  0  0  0  0
    7.1617    2.5170   26.3459 H   0  0  0  0  0  0  0  0  0  0  0  0
    7.5754    4.1989   25.0249 C   0  0  0  0  0  0  0  0  0  0  0  0
    7.1374    4.9403   25.6914 H   0  0  0  0  0  0  0  0  0  0  0  0
    8.1355    4.6136   23.7945 C   0  0  0  0  0  0  0  0  0  0  0  0
    8.1169    5.6682   23.5227 H   0  0  0  0  0  0  0  0  0  0  0  0
    8.7226    3.6874   22.9233 C   0  0  0  0  0  0  0  0  0  0  0  0
    9.1600    3.9984   21.9782 H   0  0  0  0  0  0  0  0  0  0  0  0
    8.7331    2.3448   23.3101 C   0  0  0  0  0  0  0  0  0  0  0  0
    9.3041    1.1362   22.6436 C   0  0  0  0  0  0  0  0  0  0  0  0
    9.9077    1.0572   21.6010 O   0  0  0  0  0  0  0  0  0  0  0  0
    5.4485    0.6336   20.1384 C   0  0  0  0  0  0  0  0  0  0  0  0
    5.0436    0.6559   21.1511 H   0  0  0  0  0  0  0  0  0  0  0  0
    4.8037    1.2923   19.0800 C   0  0  0  0  0  0  0  0  0  0  0  0
    3.8707    1.8240   19.2377 H   0  0  0  0  0  0  0  0  0  0  0  0
  1  2  1  0
  2  3  2  0
  3  4  1  0
  4  5  1  0
  4  6  2  0
  6  7  1  0
  7  8  2  3
  8  9  1  0
  9 10  1  0
  9 11  1  0
  8 12  1  0
 12 13  1  0
 12 14  1  0
 14 15  1  0
 14 16  1  0
 14 17  1  0
 17 18  1  0
 18 19  2  0
 18 20  1  0
 20 21  2  0
 21 22  1  0
 21 23  1  0
 23 24  1  0
 23 25  2  0
 25 26  1  0
 25 27  1  0
 27 28  1  0
 27 29  2  0
 29 30  1  0
 30 31  2  0
  6 32  1  0
 32 33  1  0
 32 34  2  0
 34 35  1  0
 34  2  1  0
 30 17  1  0
 29 20  1  0
M  END
>  <cnnaffinity>  (1) 
-5.06625

>  <filename>  (1) 
NC(=Nc1cccnc1)NCN1C(=O)c2ccccc2C1=O

$$$$
