
     RDKit          3D

 26 27  0  0  0  0  0  0  0  0999 V2000
    4.9294    1.8707   16.9794 H   0  0  0  0  0  0  0  0  0  0  0  0
    5.3913    1.3180   17.7926 C   0  0  0  0  0  0  0  0  0  0  0  0
    6.5432    0.6929   17.5025 N   0  0  0  0  0  0  0  0  0  0  0  0
    7.1532    0.0350   18.4934 C   0  0  0  0  0  0  0  0  0  0  0  0
    8.0919   -0.4573   18.2421 H   0  0  0  0  0  0  0  0  0  0  0  0
    6.6363   -0.0568   19.8014 C   0  0  0  0  0  0  0  0  0  0  0  0
    7.3797   -0.7293   20.8194 N   0  0  0  0  0  0  0  0  0  0  0  0
    8.6550   -0.3251   21.2030 C   0  0  0  0  0  0  0  0  0  0  0  0
    9.1746    0.4687   20.6907 H   0  0  0  0  0  0  0  0  0  0  0  0
    9.0262   -1.0608   22.2629 C   0  0  0  0  0  0  0  0  0  0  0  0
   10.2919   -1.0796   23.0321 C   0  0  0  0  0  0  0  0  0  0  0  0
   10.1008   -1.3203   24.0746 H   0  0  0  0  0  0  0  0  0  0  0  0
   10.7834   -0.1040   22.9888 H   0  0  0  0  0  0  0  0  0  0  0  0
   11.2529   -2.1396   22.5322 C   0  0  0  0  0  0  0  0  0  0  0  0
   11.5246   -3.1358   23.1680 O   0  0  0  0  0  0  0  0  0  0  0  0
   11.8812   -1.8838   21.3522 N   0  0  0  0  0  0  0  0  0  0  0  0
   11.3839   -1.4118   20.6138 H   0  0  0  0  0  0  0  0  0  0  0  0
   12.4170   -2.6998   21.0951 H   0  0  0  0  0  0  0  0  0  0  0  0
    8.0002   -1.9598   22.4842 N   0  0  0  0  0  0  0  0  0  0  0  0
    7.9214   -2.6600   23.2026 H   0  0  0  0  0  0  0  0  0  0  0  0
    6.9667   -1.7860   21.6087 C   0  0  0  0  0  0  0  0  0  0  0  0
    5.5996   -2.7321   21.5235 S   0  0  0  0  0  0  0  0  0  0  0  0
    5.4207    0.5749   20.0917 C   0  0  0  0  0  0  0  0  0  0  0  0
    4.9960    0.5230   21.0975 H   0  0  0  0  0  0  0  0  0  0  0  0
    4.7978    1.2859   19.0601 C   0  0  0  0  0  0  0  0  0  0  0  0
    3.8793    1.8340   19.2332 H   0  0  0  0  0  0  0  0  0  0  0  0
  1  2  1  0
  2  3  2  0
  3  4  1  0
  4  5  1  0
  4  6  2  0
  6  7  1  0
  7  8  1  0
  8  9  1  0
  8 10  2  0
 10 11  1  0
 11 12  1  0
 11 13  1  0
 11 14  1  0
 14 15  2  0
 14 16  1  0
 16 17  1  0
 16 18  1  0
 10 19  1  0
 19 20  1  0
 19 21  1  0
 21 22  2  0
  6 23  1  0
 23 24  1  0
 23 25  2  0
 25 26  1  0
 25  2  1  0
 21  7  1  0
M  END
>  <cnnaffinity>  (1) 
-5.10533

>  <filename>  (1) 
NC(=O)Cc1cn(-c2cccnc2)c(=S)[nH]1

$$$$
