
     RDKit          3D

 35 37  0  0  0  0  0  0  0  0999 V2000
    4.9979    1.7955   16.9309 H   0  0  0  0  0  0  0  0  0  0  0  0
    5.4432    1.2836   17.7857 C   0  0  0  0  0  0  0  0  0  0  0  0
    6.5752    0.6036   17.5447 N   0  0  0  0  0  0  0  0  0  0  0  0
    7.1657   -0.0201   18.5693 C   0  0  0  0  0  0  0  0  0  0  0  0
    8.1019   -0.5374   18.3729 H   0  0  0  0  0  0  0  0  0  0  0  0
    6.6358   -0.0429   19.8718 C   0  0  0  0  0  0  0  0  0  0  0  0
    7.3164   -0.7362   20.9151 N   0  0  0  0  0  0  0  0  0  0  0  0
    6.7348   -1.6947   21.7453 C   0  0  0  0  0  0  0  0  0  0  0  0
    5.7282   -2.0548   21.6249 H   0  0  0  0  0  0  0  0  0  0  0  0
    7.6524   -2.0241   22.6719 C   0  0  0  0  0  0  0  0  0  0  0  0
    7.4803   -2.7280   23.8350 N   0  0  0  0  0  0  0  0  0  0  0  0
    6.7918   -2.3137   24.4758 H   0  0  0  0  0  0  0  0  0  0  0  0
    8.4590   -3.3685   24.5738 C   0  0  0  0  0  0  0  0  0  0  0  0
    9.6238   -3.8682   23.9838 C   0  0  0  0  0  0  0  0  0  0  0  0
    9.7229   -3.7960   22.9067 H   0  0  0  0  0  0  0  0  0  0  0  0
   10.6305   -4.4313   24.7686 C   0  0  0  0  0  0  0  0  0  0  0  0
   11.5360   -4.7971   24.2893 H   0  0  0  0  0  0  0  0  0  0  0  0
   10.4605   -4.5219   26.1550 C   0  0  0  0  0  0  0  0  0  0  0  0
   11.2484   -4.9227   26.7858 H   0  0  0  0  0  0  0  0  0  0  0  0
    9.2785   -4.0827   26.7454 C   0  0  0  0  0  0  0  0  0  0  0  0
    9.1695   -4.1489   27.8289 H   0  0  0  0  0  0  0  0  0  0  0  0
    8.2398   -3.5413   25.9628 C   0  0  0  0  0  0  0  0  0  0  0  0
    6.9459   -3.0988   26.5513 C   0  0  0  0  0  0  0  0  0  0  0  0
    6.2322   -2.2108   26.0846 O   0  0  0  0  0  0  0  0  0  0  0  0
    6.5007   -3.6911   27.6829 N   0  0  0  0  0  0  0  0  0  0  0  0
    6.7551   -4.6335   27.9141 H   0  0  0  0  0  0  0  0  0  0  0  0
    5.5757   -3.3542   27.8930 H   0  0  0  0  0  0  0  0  0  0  0  0
    8.7888   -1.3064   22.3948 N   0  0  0  0  0  0  0  0  0  0  0  0
    9.5806   -1.2039   23.0012 H   0  0  0  0  0  0  0  0  0  0  0  0
    8.5913   -0.4487   21.3622 C   0  0  0  0  0  0  0  0  0  0  0  0
    9.6920    0.6829   20.8640 S   0  0  0  0  0  0  0  0  0  0  0  0
    5.4549    0.6663   20.1211 C   0  0  0  0  0  0  0  0  0  0  0  0
    5.0428    0.7027   21.1313 H   0  0  0  0  0  0  0  0  0  0  0  0
    4.8509    1.3417   19.0524 C   0  0  0  0  0  0  0  0  0  0  0  0
    3.9466    1.9261   19.1834 H   0  0  0  0  0  0  0  0  0  0  0  0
  1  2  1  0
  2  3  2  0
  3  4  1  0
  4  5  1  0
  4  6  2  0
  6  7  1  0
  7  8  1  0
  8  9  1  0
  8 10  2  0
 10 11  1  0
 11 12  1  0
 11 13  1  0
 13 14  2  0
 14 15  1  0
 14 16  1  0
 16 17  1  0
 16 18  2  0
 18 19  1  0
 18 20  1  0
 20 21  1  0
 20 22  2  0
 22 23  1  0
 23 24  2  0
 23 25  1  0
 25 26  1  0
 25 27  1  0
 10 28  1  0
 28 29  1  0
 28 30  1  0
 30 31  2  0
  6 32  1  0
 32 33  1  0
 32 34  2  0
 34 35  1  0
 34  2  1  0
 30  7  1  0
 22 13  1  0
M  END
>  <cnnaffinity>  (1) 
-4.79488

>  <filename>  (1) 
NC(=O)c1ccccc1Nc1cn(-c2cccnc2)c(=S)[nH]1

$$$$
