
     RDKit          3D

 34 36  0  0  0  0  0  0  0  0999 V2000
    4.9901    1.8583   16.9574 H   0  0  0  0  0  0  0  0  0  0  0  0
    5.3950    1.3447   17.8292 C   0  0  0  0  0  0  0  0  0  0  0  0
    6.5503    0.6849   17.6452 N   0  0  0  0  0  0  0  0  0  0  0  0
    7.0908    0.0576   18.6958 C   0  0  0  0  0  0  0  0  0  0  0  0
    8.0451   -0.4412   18.5333 H   0  0  0  0  0  0  0  0  0  0  0  0
    6.5001    0.0274   19.9788 C   0  0  0  0  0  0  0  0  0  0  0  0
    7.0999   -0.6782   21.0881 N   0  0  0  0  0  0  0  0  0  0  0  0
    7.8350   -0.1903   22.1655 C   0  0  0  0  0  0  0  0  0  0  0  0
    7.6025    1.0889   22.5540 N   0  0  0  0  0  0  0  0  0  0  0  0
    6.6129    1.2966   22.3938 H   0  0  0  0  0  0  0  0  0  0  0  0
    7.9935    1.5856   23.7968 C   0  0  0  0  0  0  0  0  0  0  0  0
    9.2861    1.3837   24.2994 C   0  0  0  0  0  0  0  0  0  0  0  0
    9.9636    0.7706   23.7150 H   0  0  0  0  0  0  0  0  0  0  0  0
    9.6526    1.9365   25.5254 C   0  0  0  0  0  0  0  0  0  0  0  0
   10.6516    1.7779   25.9188 H   0  0  0  0  0  0  0  0  0  0  0  0
    8.7183    2.6781   26.2527 C   0  0  0  0  0  0  0  0  0  0  0  0
    8.9507    3.1541   27.1878 H   0  0  0  0  0  0  0  0  0  0  0  0
    7.4343    2.8528   25.7678 C   0  0  0  0  0  0  0  0  0  0  0  0
    6.7120    3.3848   26.3789 H   0  0  0  0  0  0  0  0  0  0  0  0
    7.0532    2.3546   24.5129 C   0  0  0  0  0  0  0  0  0  0  0  0
    5.6983    2.6272   23.9686 C   0  0  0  0  0  0  0  0  0  0  0  0
    5.1375    2.0068   23.0684 O   0  0  0  0  0  0  0  0  0  0  0  0
    4.9899    3.6398   24.5446 N   0  0  0  0  0  0  0  0  0  0  0  0
    4.1593    3.8035   23.9987 H   0  0  0  0  0  0  0  0  0  0  0  0
    5.5096    4.4476   24.8382 H   0  0  0  0  0  0  0  0  0  0  0  0
    8.5597   -1.0868   22.7551 N   0  0  0  0  0  0  0  0  0  0  0  0
    8.2131   -2.2503   22.0762 N   0  0  0  0  0  0  0  0  0  0  0  0
    8.2770   -3.1459   22.5305 H   0  0  0  0  0  0  0  0  0  0  0  0
    7.1919   -2.0745   21.1836 C   0  0  0  0  0  0  0  0  0  0  0  0
    6.5275   -2.9203   20.6271 O   0  0  0  0  0  0  0  0  0  0  0  0
    5.2851    0.6987   20.1481 C   0  0  0  0  0  0  0  0  0  0  0  0
    4.8087    0.7081   21.1252 H   0  0  0  0  0  0  0  0  0  0  0  0
    4.7282    1.3782   19.0537 C   0  0  0  0  0  0  0  0  0  0  0  0
    3.8168    1.9572   19.1562 H   0  0  0  0  0  0  0  0  0  0  0  0
  1  2  1  0
  2  3  2  0
  3  4  1  0
  4  5  1  0
  4  6  2  0
  6  7  1  0
  7  8  1  0
  8  9  1  0
  9 10  1  0
  9 11  1  0
 11 12  2  0
 12 13  1  0
 12 14  1  0
 14 15  1  0
 14 16  2  0
 16 17  1  0
 16 18  1  0
 18 19  1  0
 18 20  2  0
 20 21  1  0
 21 22  2  0
 21 23  1  0
 23 24  1  0
 23 25  1  0
  8 26  2  0
 26 27  1  0
 27 28  1  0
 27 29  1  0
 29 30  2  0
  6 31  1  0
 31 32  1  0
 31 33  2  0
 33 34  1  0
 33  2  1  0
 29  7  1  0
 20 11  1  0
M  END
>  <cnnaffinity>  (1) 
-5.00207

>  <filename>  (1) 
NC(=O)c1ccccc1Nc1n[nH]c(=O)n1-c1cccnc1

$$$$
