
     RDKit          3D

 48 51  0  0  0  0  0  0  0  0999 V2000
    6.3850    3.9681   28.5799 N   0  0  0  0  0  0  0  0  0  0  0  0
    6.7319    3.3884   27.3948 C   0  0  0  0  0  0  0  0  0  0  0  0
    7.9590    3.6951   26.7800 C   0  0  0  0  0  0  0  0  0  0  0  0
    8.3153    3.0856   25.5834 C   0  0  0  0  0  0  0  0  0  0  0  0
    7.4456    2.1708   24.9575 C   0  0  0  0  0  0  0  0  0  0  0  0
    7.8219    1.5476   23.6776 C   0  0  0  0  0  0  0  0  0  0  0  0
    7.1714    0.5193   23.1557 N   0  0  0  0  0  0  0  0  0  0  0  0
    7.8749    0.2419   22.0382 N   0  0  0  0  0  0  0  0  0  0  0  0
    7.3612   -0.6915   21.0409 C   0  0  0  0  0  0  0  0  0  0  0  0
    6.6520   -0.0063   19.8891 C   0  0  0  0  0  0  0  0  0  0  0  0
    5.4488    0.6669   20.1330 C   0  0  0  0  0  0  0  0  0  0  0  0
    4.8211    1.3176   19.0696 C   0  0  0  0  0  0  0  0  0  0  0  0
    5.4242    1.2924   17.8083 C   0  0  0  0  0  0  0  0  0  0  0  0
    6.5705    0.6454   17.5527 N   0  0  0  0  0  0  0  0  0  0  0  0
    7.1576    0.0156   18.5798 C   0  0  0  0  0  0  0  0  0  0  0  0
    8.0854   -0.5057   18.3382 H   0  0  0  0  0  0  0  0  0  0  0  0
    4.9616    1.8065   16.9664 H   0  0  0  0  0  0  0  0  0  0  0  0
    3.8840    1.8444   19.2060 H   0  0  0  0  0  0  0  0  0  0  0  0
    5.0227    0.6856   21.1406 H   0  0  0  0  0  0  0  0  0  0  0  0
    8.1909   -1.3081   20.6810 H   0  0  0  0  0  0  0  0  0  0  0  0
    6.6706   -1.3455   21.5786 H   0  0  0  0  0  0  0  0  0  0  0  0
    8.9012    1.1122   21.9264 C   0  0  0  0  0  0  0  0  0  0  0  0
    9.9868    0.8857   20.9236 C   0  0  0  0  0  0  0  0  0  0  0  0
   10.8662   -0.3331   21.2956 C   0  0  0  0  0  0  0  0  0  0  0  0
   11.5623   -0.0642   22.6012 C   0  0  0  0  0  0  0  0  0  0  0  0
   11.1235   -0.5360   23.8035 C   0  0  0  0  0  0  0  0  0  0  0  0
   11.8580   -0.2660   24.9416 N   0  0  0  0  0  0  0  0  0  0  0  0
   13.1357    0.2968   24.9212 C   0  0  0  0  0  0  0  0  0  0  0  0
   13.8694    0.0919   25.8675 O   0  0  0  0  0  0  0  0  0  0  0  0
   13.4324    1.0406   23.7088 C   0  0  0  0  0  0  0  0  0  0  0  0
   12.6701    0.8534   22.6024 C   0  0  0  0  0  0  0  0  0  0  0  0
   12.9085    1.3870   21.6830 H   0  0  0  0  0  0  0  0  0  0  0  0
   14.2695    1.7112   23.7395 H   0  0  0  0  0  0  0  0  0  0  0  0
   11.7687   -0.7987   25.7936 H   0  0  0  0  0  0  0  0  0  0  0  0
   10.1952   -1.0883   23.9258 H   0  0  0  0  0  0  0  0  0  0  0  0
   10.2724   -1.2562   21.3560 H   0  0  0  0  0  0  0  0  0  0  0  0
   11.6184   -0.5006   20.5155 H   0  0  0  0  0  0  0  0  0  0  0  0
   10.6167    1.7791   20.8795 H   0  0  0  0  0  0  0  0  0  0  0  0
    9.5408    0.7504   19.9361 H   0  0  0  0  0  0  0  0  0  0  0  0
    8.8855    1.9645   22.9312 N   0  0  0  0  0  0  0  0  0  0  0  0
    6.2163    1.8637   25.5792 C   0  0  0  0  0  0  0  0  0  0  0  0
    5.8648    2.4675   26.7792 C   0  0  0  0  0  0  0  0  0  0  0  0
    4.9218    2.2353   27.2613 H   0  0  0  0  0  0  0  0  0  0  0  0
    5.5443    1.1416   25.1157 H   0  0  0  0  0  0  0  0  0  0  0  0
    9.2749    3.3113   25.1187 H   0  0  0  0  0  0  0  0  0  0  0  0
    8.6164    4.4160   27.2509 H   0  0  0  0  0  0  0  0  0  0  0  0
    6.9890    4.6400   29.0108 H   0  0  0  0  0  0  0  0  0  0  0  0
    5.5041    3.7506   29.0052 H   0  0  0  0  0  0  0  0  0  0  0  0
  1  2  1  0
  2  3  2  0
  3  4  1  0
  4  5  2  0
  5  6  1  0
  6  7  2  0
  7  8  1  0
  8  9  1  0
  9 10  1  0
 10 11  2  0
 11 12  1  0
 12 13  2  0
 13 14  1  0
 14 15  2  0
 15 16  1  0
 13 17  1  0
 12 18  1  0
 11 19  1  0
  9 20  1  0
  9 21  1  0
  8 22  1  0
 22 23  1  0
 23 24  1  0
 24 25  1  0
 25 26  2  0
 26 27  1  0
 27 28  1  0
 28 29  2  0
 28 30  1  0
 30 31  2  0
 31 32  1  0
 30 33  1  0
 27 34  1  0
 26 35  1  0
 24 36  1  0
 24 37  1  0
 23 38  1  0
 23 39  1  0
 22 40  2  0
  5 41  1  0
 41 42  2  0
 42 43  1  0
 41 44  1  0
  4 45  1  0
  3 46  1  0
  1 47  1  0
  1 48  1  0
 42  2  1  0
 40  6  1  0
 15 10  1  0
 31 25  1  0
M  END
>  <cnnaffinity>  (1) 
-6.02202

>  <filename>  (1) 
Nc1ccc(-c2nc(CCc3ccc(=O)[nH]c3)n(Cc3cccnc3)n2)cc1

$$$$
