
     RDKit          3D

 48 51  0  0  0  0  0  0  0  0999 V2000
    6.4021    3.9497   28.5928 N   0  0  0  0  0  0  0  0  0  0  0  0
    6.7299    3.3797   27.3972 C   0  0  0  0  0  0  0  0  0  0  0  0
    7.9476    3.6957   26.7692 C   0  0  0  0  0  0  0  0  0  0  0  0
    8.2866    3.0943   25.5642 C   0  0  0  0  0  0  0  0  0  0  0  0
    7.4120    2.1795   24.9436 C   0  0  0  0  0  0  0  0  0  0  0  0
    7.7665    1.5715   23.6486 C   0  0  0  0  0  0  0  0  0  0  0  0
    7.1401    0.5180   23.1480 N   0  0  0  0  0  0  0  0  0  0  0  0
    7.8299    0.2545   22.0183 N   0  0  0  0  0  0  0  0  0  0  0  0
    7.3224   -0.6999   21.0376 C   0  0  0  0  0  0  0  0  0  0  0  0
    6.6292   -0.0240   19.8760 C   0  0  0  0  0  0  0  0  0  0  0  0
    5.4405    0.6738   20.1123 C   0  0  0  0  0  0  0  0  0  0  0  0
    4.8261    1.3289   19.0447 C   0  0  0  0  0  0  0  0  0  0  0  0
    5.4399    1.2858   17.7888 C   0  0  0  0  0  0  0  0  0  0  0  0
    6.5771    0.6189   17.5415 N   0  0  0  0  0  0  0  0  0  0  0  0
    7.1451   -0.0208   18.5722 C   0  0  0  0  0  0  0  0  0  0  0  0
    8.0645   -0.5656   18.3455 H   0  0  0  0  0  0  0  0  0  0  0  0
    4.9976    1.8022   16.9396 H   0  0  0  0  0  0  0  0  0  0  0  0
    3.8977    1.8740   19.1761 H   0  0  0  0  0  0  0  0  0  0  0  0
    5.0284    0.7059   21.1239 H   0  0  0  0  0  0  0  0  0  0  0  0
    8.1446   -1.3289   20.6819 H   0  0  0  0  0  0  0  0  0  0  0  0
    6.6315   -1.3329   21.5983 H   0  0  0  0  0  0  0  0  0  0  0  0
    8.8127    1.1680   21.8703 C   0  0  0  0  0  0  0  0  0  0  0  0
    9.9044    0.9449   20.8693 C   0  0  0  0  0  0  0  0  0  0  0  0
   10.7572   -0.2924   21.2598 C   0  0  0  0  0  0  0  0  0  0  0  0
   11.4519   -0.0596   22.5787 C   0  0  0  0  0  0  0  0  0  0  0  0
   10.9226   -0.4906   23.8064 C   0  0  0  0  0  0  0  0  0  0  0  0
   11.6499   -0.3023   24.9867 C   0  0  0  0  0  0  0  0  0  0  0  0
   12.9324    0.2351   24.8914 C   0  0  0  0  0  0  0  0  0  0  0  0
   13.7664    0.1834   25.9358 F   0  0  0  0  0  0  0  0  0  0  0  0
   13.4011    0.8196   23.7208 C   0  0  0  0  0  0  0  0  0  0  0  0
   12.6161    0.7206   22.5781 C   0  0  0  0  0  0  0  0  0  0  0  0
   12.9142    1.2382   21.6694 H   0  0  0  0  0  0  0  0  0  0  0  0
   14.3617    1.3117   23.6994 H   0  0  0  0  0  0  0  0  0  0  0  0
   11.2702   -0.6142   25.9496 H   0  0  0  0  0  0  0  0  0  0  0  0
    9.9562   -0.9967   23.8377 H   0  0  0  0  0  0  0  0  0  0  0  0
   10.1382   -1.1936   21.3000 H   0  0  0  0  0  0  0  0  0  0  0  0
   11.5069   -0.5262   20.4979 H   0  0  0  0  0  0  0  0  0  0  0  0
   10.5476    1.8295   20.8514 H   0  0  0  0  0  0  0  0  0  0  0  0
    9.4674    0.8190   19.8737 H   0  0  0  0  0  0  0  0  0  0  0  0
    8.7919    2.0252   22.8718 N   0  0  0  0  0  0  0  0  0  0  0  0
    6.1968    1.8597   25.5869 C   0  0  0  0  0  0  0  0  0  0  0  0
    5.8564    2.4564   26.7937 C   0  0  0  0  0  0  0  0  0  0  0  0
    4.9205    2.2195   27.2923 H   0  0  0  0  0  0  0  0  0  0  0  0
    5.5250    1.1324   25.1331 H   0  0  0  0  0  0  0  0  0  0  0  0
    9.2371    3.3336   25.0901 H   0  0  0  0  0  0  0  0  0  0  0  0
    8.6066    4.4184   27.2400 H   0  0  0  0  0  0  0  0  0  0  0  0
    6.9950    4.6433   29.0030 H   0  0  0  0  0  0  0  0  0  0  0  0
    5.5193    3.7426   29.0166 H   0  0  0  0  0  0  0  0  0  0  0  0
  1  2  1  0
  2  3  2  0
  3  4  1  0
  4  5  2  0
  5  6  1  0
  6  7  2  0
  7  8  1  0
  8  9  1  0
  9 10  1  0
 10 11  2  0
 11 12  1  0
 12 13  2  0
 13 14  1  0
 14 15  2  0
 15 16  1  0
 13 17  1  0
 12 18  1  0
 11 19  1  0
  9 20  1  0
  9 21  1  0
  8 22  1  0
 22 23  1  0
 23 24  1  0
 24 25  1  0
 25 26  2  0
 26 27  1  0
 27 28  2  0
 28 29  1  0
 28 30  1  0
 30 31  2  0
 31 32  1  0
 30 33  1  0
 27 34  1  0
 26 35  1  0
 24 36  1  0
 24 37  1  0
 23 38  1  0
 23 39  1  0
 22 40  2  0
  5 41  1  0
 41 42  2  0
 42 43  1  0
 41 44  1  0
  4 45  1  0
  3 46  1  0
  1 47  1  0
  1 48  1  0
 42  2  1  0
 40  6  1  0
 15 10  1  0
 31 25  1  0
M  END
>  <cnnaffinity>  (1) 
-5.92872

>  <filename>  (1) 
Nc1ccc(-c2nc(CCc3ccc(F)cc3)n(Cc3cccnc3)n2)cc1

$$$$
