
     RDKit          3D

 45 48  0  0  0  0  0  0  0  0999 V2000
   15.1091   -1.3247   19.9846 N   0  0  0  0  0  0  0  0  0  0  0  0
   14.0892   -1.1827   20.9101 C   0  0  0  0  0  0  0  0  0  0  0  0
   12.9980   -2.0124   20.6633 C   0  0  0  0  0  0  0  0  0  0  0  0
   11.7665   -1.7514   21.2252 C   0  0  0  0  0  0  0  0  0  0  0  0
   11.5726   -0.5975   22.0031 C   0  0  0  0  0  0  0  0  0  0  0  0
   10.1771   -0.1570   22.1614 C   0  0  0  0  0  0  0  0  0  0  0  0
    9.1781   -0.9180   21.7349 N   0  0  0  0  0  0  0  0  0  0  0  0
    8.0833   -0.1588   21.9273 N   0  0  0  0  0  0  0  0  0  0  0  0
    6.7949   -0.6225   21.4044 C   0  0  0  0  0  0  0  0  0  0  0  0
    6.3573    0.1097   20.1547 C   0  0  0  0  0  0  0  0  0  0  0  0
    5.1473    0.8011   20.0485 C   0  0  0  0  0  0  0  0  0  0  0  0
    4.8523    1.4603   18.8509 C   0  0  0  0  0  0  0  0  0  0  0  0
    5.7745    1.3934   17.8034 C   0  0  0  0  0  0  0  0  0  0  0  0
    6.9302    0.7162   17.8757 N   0  0  0  0  0  0  0  0  0  0  0  0
    7.2022    0.0962   19.0290 C   0  0  0  0  0  0  0  0  0  0  0  0
    8.1409   -0.4573   19.0690 H   0  0  0  0  0  0  0  0  0  0  0  0
    5.5794    1.9077   16.8627 H   0  0  0  0  0  0  0  0  0  0  0  0
    3.9344    2.0222   18.7195 H   0  0  0  0  0  0  0  0  0  0  0  0
    4.4447    0.8294   20.8846 H   0  0  0  0  0  0  0  0  0  0  0  0
    6.9278   -1.6887   21.1921 H   0  0  0  0  0  0  0  0  0  0  0  0
    6.0458   -0.5524   22.1977 H   0  0  0  0  0  0  0  0  0  0  0  0
    8.4669    1.0293   22.4472 C   0  0  0  0  0  0  0  0  0  0  0  0
    7.5125    1.9882   23.0905 C   0  0  0  0  0  0  0  0  0  0  0  0
    7.1296    1.4198   24.4529 C   0  0  0  0  0  0  0  0  0  0  0  0
    5.9311    0.7317   24.6619 C   0  0  0  0  0  0  0  0  0  0  0  0
    5.7256   -0.0263   25.8245 C   0  0  0  0  0  0  0  0  0  0  0  0
    6.7336   -0.0509   26.7857 C   0  0  0  0  0  0  0  0  0  0  0  0
    6.5584   -0.7901   27.8948 F   0  0  0  0  0  0  0  0  0  0  0  0
    7.9149    0.6745   26.6424 C   0  0  0  0  0  0  0  0  0  0  0  0
    8.1000    1.4100   25.4693 C   0  0  0  0  0  0  0  0  0  0  0  0
    9.0401    1.9281   25.2935 H   0  0  0  0  0  0  0  0  0  0  0  0
    8.6677    0.6382   27.4239 H   0  0  0  0  0  0  0  0  0  0  0  0
    4.8147   -0.5922   25.9876 H   0  0  0  0  0  0  0  0  0  0  0  0
    5.1556    0.7632   23.8990 H   0  0  0  0  0  0  0  0  0  0  0  0
    8.0343    2.9439   23.1947 H   0  0  0  0  0  0  0  0  0  0  0  0
    6.6326    2.1458   22.4581 H   0  0  0  0  0  0  0  0  0  0  0  0
    9.7829    1.0625   22.5987 N   0  0  0  0  0  0  0  0  0  0  0  0
   12.6997    0.1531   22.3859 C   0  0  0  0  0  0  0  0  0  0  0  0
   13.9688   -0.1614   21.8788 C   0  0  0  0  0  0  0  0  0  0  0  0
   14.8217    0.4735   22.1032 H   0  0  0  0  0  0  0  0  0  0  0  0
   12.5788    1.0078   23.0516 H   0  0  0  0  0  0  0  0  0  0  0  0
   10.9003   -2.3608   20.9990 H   0  0  0  0  0  0  0  0  0  0  0  0
   13.1124   -2.7634   19.8898 H   0  0  0  0  0  0  0  0  0  0  0  0
   15.1892   -2.2796   19.6674 H   0  0  0  0  0  0  0  0  0  0  0  0
   16.0105   -0.9489   20.2289 H   0  0  0  0  0  0  0  0  0  0  0  0
  1  2  1  0
  2  3  2  0
  3  4  1  0
  4  5  2  0
  5  6  1  0
  6  7  2  0
  7  8  1  0
  8  9  1  0
  9 10  1  0
 10 11  2  0
 11 12  1  0
 12 13  2  0
 13 14  1  0
 14 15  2  0
 15 16  1  0
 13 17  1  0
 12 18  1  0
 11 19  1  0
  9 20  1  0
  9 21  1  0
  8 22  1  0
 22 23  1  0
 23 24  1  0
 24 25  2  0
 25 26  1  0
 26 27  2  0
 27 28  1  0
 27 29  1  0
 29 30  2  0
 30 31  1  0
 29 32  1  0
 26 33  1  0
 25 34  1  0
 23 35  1  0
 23 36  1  0
 22 37  2  0
  5 38  1  0
 38 39  2  0
 39 40  1  0
 38 41  1  0
  4 42  1  0
  3 43  1  0
  1 44  1  0
  1 45  1  0
 39  2  1  0
 37  6  1  0
 15 10  1  0
 30 24  1  0
M  END
>  <cnnaffinity>  (1) 
-6.6582

>  <filename>  (1) 
Nc1ccc(-c2nc(Cc3ccc(F)cc3)n(Cc3cccnc3)n2)cc1

$$$$
