
     RDKit          3D

 34 36  0  0  0  0  0  0  0  0999 V2000
    7.0575    1.7461   22.1137 H   0  0  0  0  0  0  0  0  0  0  0  0
    7.3139    0.9350   22.8039 C   0  0  0  0  0  0  0  0  0  0  0  0
    7.5387   -0.3033   22.3264 C   0  0  0  0  0  0  0  0  0  0  0  0
    7.3835   -0.7618   20.9345 C   0  0  0  0  0  0  0  0  0  0  0  0
    6.6402    0.0024   19.9070 C   0  0  0  0  0  0  0  0  0  0  0  0
    7.1596    0.0364   18.6067 C   0  0  0  0  0  0  0  0  0  0  0  0
    8.1032   -0.4576   18.3805 H   0  0  0  0  0  0  0  0  0  0  0  0
    6.5712    0.6706   17.5887 N   0  0  0  0  0  0  0  0  0  0  0  0
    5.4092    1.2960   17.8384 C   0  0  0  0  0  0  0  0  0  0  0  0
    4.9472    1.7987   16.9913 H   0  0  0  0  0  0  0  0  0  0  0  0
    4.7961    1.3146   19.0955 C   0  0  0  0  0  0  0  0  0  0  0  0
    3.8609    1.8481   19.2327 H   0  0  0  0  0  0  0  0  0  0  0  0
    5.4254    0.6617   20.1547 C   0  0  0  0  0  0  0  0  0  0  0  0
    4.9912    0.6695   21.1570 H   0  0  0  0  0  0  0  0  0  0  0  0
    7.9478   -1.8828   20.6846 N   0  0  0  0  0  0  0  0  0  0  0  0
    8.5442   -2.4211   21.9106 C   0  0  0  0  0  0  0  0  0  0  0  0
    8.1616   -3.4325   22.0788 H   0  0  0  0  0  0  0  0  0  0  0  0
    9.6260   -2.5004   21.7636 H   0  0  0  0  0  0  0  0  0  0  0  0
    8.1865   -1.4536   23.0695 C   0  0  0  0  0  0  0  0  0  0  0  0
    9.0496   -1.1144   23.6495 H   0  0  0  0  0  0  0  0  0  0  0  0
    7.4843   -1.9166   23.7706 H   0  0  0  0  0  0  0  0  0  0  0  0
    7.5032    1.3364   24.2066 C   0  0  0  0  0  0  0  0  0  0  0  0
    8.1896    2.5332   24.4923 C   0  0  0  0  0  0  0  0  0  0  0  0
    8.5602    3.1448   23.6703 H   0  0  0  0  0  0  0  0  0  0  0  0
    8.3956    2.9370   25.8082 C   0  0  0  0  0  0  0  0  0  0  0  0
    8.9479    3.8413   26.0470 H   0  0  0  0  0  0  0  0  0  0  0  0
    7.8626    2.1848   26.8588 C   0  0  0  0  0  0  0  0  0  0  0  0
    7.8294    2.6842   28.1506 N   0  0  0  0  0  0  0  0  0  0  0  0
    8.4992    3.4240   28.2882 H   0  0  0  0  0  0  0  0  0  0  0  0
    7.9509    1.9502   28.8347 H   0  0  0  0  0  0  0  0  0  0  0  0
    7.2490    0.9555   26.5946 C   0  0  0  0  0  0  0  0  0  0  0  0
    6.9088    0.3634   27.4354 H   0  0  0  0  0  0  0  0  0  0  0  0
    7.0463    0.5488   25.2811 C   0  0  0  0  0  0  0  0  0  0  0  0
    6.4931   -0.3645   25.0687 H   0  0  0  0  0  0  0  0  0  0  0  0
  1  2  1  0
  2  3  2  3
  3  4  1  0
  4  5  1  0
  5  6  2  0
  6  7  1  0
  6  8  1  0
  8  9  2  0
  9 10  1  0
  9 11  1  0
 11 12  1  0
 11 13  2  0
 13 14  1  0
  4 15  2  0
 15 16  1  0
 16 17  1  0
 16 18  1  0
 16 19  1  0
 19 20  1  0
 19 21  1  0
  2 22  1  0
 22 23  2  0
 23 24  1  0
 23 25  1  0
 25 26  1  0
 25 27  2  0
 27 28  1  0
 28 29  1  0
 28 30  1  0
 27 31  1  0
 31 32  1  0
 31 33  2  0
 33 34  1  0
 19  3  1  0
 33 22  1  0
 13  5  1  0
M  END
>  <cnnaffinity>  (1) 
-5.01093

>  <filename>  (1) 
Nc1ccc(C=C2CCN=C2c2cccnc2)cc1

$$$$
