
     RDKit          3D

 44 47  0  0  0  0  0  0  0  0999 V2000
    6.7556   -5.6913   26.7468 N   0  0  0  0  0  0  0  0  0  0  0  0
    6.9880   -4.8290   25.7092 C   0  0  0  0  0  0  0  0  0  0  0  0
    5.9760   -4.5531   24.7734 C   0  0  0  0  0  0  0  0  0  0  0  0
    6.1894   -3.6299   23.7560 C   0  0  0  0  0  0  0  0  0  0  0  0
    7.4297   -2.9662   23.6386 C   0  0  0  0  0  0  0  0  0  0  0  0
    7.6544   -1.9711   22.5729 C   0  0  0  0  0  0  0  0  0  0  0  0
    6.7232   -1.6192   21.7014 N   0  0  0  0  0  0  0  0  0  0  0  0
    7.3429   -0.6776   20.9510 N   0  0  0  0  0  0  0  0  0  0  0  0
    6.6500   -0.0154   19.9034 C   0  0  0  0  0  0  0  0  0  0  0  0
    5.4320    0.6241   20.1579 C   0  0  0  0  0  0  0  0  0  0  0  0
    4.8168    1.3054   19.1043 C   0  0  0  0  0  0  0  0  0  0  0  0
    5.4186    1.2985   17.8402 C   0  0  0  0  0  0  0  0  0  0  0  0
    6.5685    0.6565   17.5804 N   0  0  0  0  0  0  0  0  0  0  0  0
    7.1623    0.0179   18.5948 C   0  0  0  0  0  0  0  0  0  0  0  0
    8.0918   -0.5014   18.3665 H   0  0  0  0  0  0  0  0  0  0  0  0
    4.9566    1.8158   17.0022 H   0  0  0  0  0  0  0  0  0  0  0  0
    3.8857    1.8392   19.2557 H   0  0  0  0  0  0  0  0  0  0  0  0
    4.9951    0.5745   21.1556 H   0  0  0  0  0  0  0  0  0  0  0  0
    8.6110   -0.4955   21.4203 C   0  0  0  0  0  0  0  0  0  0  0  0
    9.4962    0.6084   20.9316 C   0  0  0  0  0  0  0  0  0  0  0  0
    9.0025    2.0177   21.3637 C   0  0  0  0  0  0  0  0  0  0  0  0
    8.9238    2.1052   22.8733 C   0  0  0  0  0  0  0  0  0  0  0  0
   10.1209    2.0581   23.6089 C   0  0  0  0  0  0  0  0  0  0  0  0
   10.0308    1.8842   24.9808 C   0  0  0  0  0  0  0  0  0  0  0  0
   11.1479    1.7217   25.6916 F   0  0  0  0  0  0  0  0  0  0  0  0
    8.7851    1.8347   25.6113 C   0  0  0  0  0  0  0  0  0  0  0  0
    7.6368    1.9167   24.9253 N   0  0  0  0  0  0  0  0  0  0  0  0
    7.7203    2.0230   23.5886 C   0  0  0  0  0  0  0  0  0  0  0  0
    6.7713    2.0654   23.0558 H   0  0  0  0  0  0  0  0  0  0  0  0
    8.7397    1.7469   26.6936 H   0  0  0  0  0  0  0  0  0  0  0  0
   11.0944    2.1250   23.1251 H   0  0  0  0  0  0  0  0  0  0  0  0
    8.0415    2.2528   20.8906 H   0  0  0  0  0  0  0  0  0  0  0  0
    9.7229    2.7561   21.0076 H   0  0  0  0  0  0  0  0  0  0  0  0
   10.4859    0.4346   21.3638 H   0  0  0  0  0  0  0  0  0  0  0  0
    9.5979    0.5418   19.8447 H   0  0  0  0  0  0  0  0  0  0  0  0
    8.8389   -1.3097   22.4230 N   0  0  0  0  0  0  0  0  0  0  0  0
    8.4414   -3.2499   24.5785 C   0  0  0  0  0  0  0  0  0  0  0  0
    8.2250   -4.1704   25.5987 C   0  0  0  0  0  0  0  0  0  0  0  0
    8.9961   -4.3796   26.3326 H   0  0  0  0  0  0  0  0  0  0  0  0
    9.3972   -2.7307   24.5122 H   0  0  0  0  0  0  0  0  0  0  0  0
    5.3903   -3.3999   23.0516 H   0  0  0  0  0  0  0  0  0  0  0  0
    5.0217   -5.0589   24.8726 H   0  0  0  0  0  0  0  0  0  0  0  0
    5.9229   -6.2492   26.7505 H   0  0  0  0  0  0  0  0  0  0  0  0
    7.5230   -5.9936   27.3178 H   0  0  0  0  0  0  0  0  0  0  0  0
  1  2  1  0
  2  3  2  0
  3  4  1  0
  4  5  2  0
  5  6  1  0
  6  7  2  0
  7  8  1  0
  8  9  1  0
  9 10  2  0
 10 11  1  0
 11 12  2  0
 12 13  1  0
 13 14  2  0
 14 15  1  0
 12 16  1  0
 11 17  1  0
 10 18  1  0
  8 19  1  0
 19 20  1  0
 20 21  1  0
 21 22  1  0
 22 23  2  0
 23 24  1  0
 24 25  1  0
 24 26  2  0
 26 27  1  0
 27 28  2  0
 28 29  1  0
 26 30  1  0
 23 31  1  0
 21 32  1  0
 21 33  1  0
 20 34  1  0
 20 35  1  0
 19 36  2  0
  5 37  1  0
 37 38  2  0
 38 39  1  0
 37 40  1  0
  4 41  1  0
  3 42  1  0
  1 43  1  0
  1 44  1  0
 38  2  1  0
 36  6  1  0
 14  9  1  0
 28 22  1  0
M  END
>  <cnnaffinity>  (1) 
-6.18401

>  <filename>  (1) 
Nc1ccc(-c2nc(CCc3cncc(F)c3)n(-c3cccnc3)n2)cc1

$$$$
