
     RDKit          3D

 45 48  0  0  0  0  0  0  0  0999 V2000
   15.1898   -1.3031   19.9318 N   0  0  0  0  0  0  0  0  0  0  0  0
   14.1587   -1.2053   20.8444 C   0  0  0  0  0  0  0  0  0  0  0  0
   13.0622   -2.0183   20.5802 C   0  0  0  0  0  0  0  0  0  0  0  0
   11.8440   -1.7411   21.1572 C   0  0  0  0  0  0  0  0  0  0  0  0
   11.6579   -0.5971   21.9460 C   0  0  0  0  0  0  0  0  0  0  0  0
   10.2561   -0.1652   22.0985 C   0  0  0  0  0  0  0  0  0  0  0  0
    9.2607   -0.9222   21.6467 N   0  0  0  0  0  0  0  0  0  0  0  0
    8.1643   -0.1715   21.8496 N   0  0  0  0  0  0  0  0  0  0  0  0
    6.8700   -0.6350   21.3497 C   0  0  0  0  0  0  0  0  0  0  0  0
    6.3901    0.1074   20.1210 C   0  0  0  0  0  0  0  0  0  0  0  0
    5.1770    0.7984   20.0616 C   0  0  0  0  0  0  0  0  0  0  0  0
    4.8311    1.4521   18.8758 C   0  0  0  0  0  0  0  0  0  0  0  0
    5.7135    1.3899   17.7948 C   0  0  0  0  0  0  0  0  0  0  0  0
    6.8727    0.7160   17.8227 N   0  0  0  0  0  0  0  0  0  0  0  0
    7.1918    0.0987   18.9656 C   0  0  0  0  0  0  0  0  0  0  0  0
    8.1304   -0.4541   18.9677 H   0  0  0  0  0  0  0  0  0  0  0  0
    5.4798    1.8947   16.8599 H   0  0  0  0  0  0  0  0  0  0  0  0
    3.9076    2.0101   18.7783 H   0  0  0  0  0  0  0  0  0  0  0  0
    4.5079    0.8306   20.9240 H   0  0  0  0  0  0  0  0  0  0  0  0
    7.0054   -1.6998   21.1318 H   0  0  0  0  0  0  0  0  0  0  0  0
    6.1509   -0.5667   22.1688 H   0  0  0  0  0  0  0  0  0  0  0  0
    8.5358    1.0003   22.4045 C   0  0  0  0  0  0  0  0  0  0  0  0
    7.5694    1.9377   23.0597 C   0  0  0  0  0  0  0  0  0  0  0  0
    7.2108    1.3643   24.4268 C   0  0  0  0  0  0  0  0  0  0  0  0
    6.0053    0.7000   24.6682 C   0  0  0  0  0  0  0  0  0  0  0  0
    5.8142   -0.0222   25.8548 C   0  0  0  0  0  0  0  0  0  0  0  0
    6.8292   -0.0651   26.8162 C   0  0  0  0  0  0  0  0  0  0  0  0
    8.0161    0.6476   26.6097 C   0  0  0  0  0  0  0  0  0  0  0  0
    8.2005    1.3575   25.4231 C   0  0  0  0  0  0  0  0  0  0  0  0
    9.1432    1.8636   25.2215 H   0  0  0  0  0  0  0  0  0  0  0  0
    8.8072    0.6322   27.3549 H   0  0  0  0  0  0  0  0  0  0  0  0
    6.6994   -0.6453   27.7260 H   0  0  0  0  0  0  0  0  0  0  0  0
    4.8816   -0.5557   26.0154 H   0  0  0  0  0  0  0  0  0  0  0  0
    5.2125    0.7307   23.9230 H   0  0  0  0  0  0  0  0  0  0  0  0
    8.0735    2.9039   23.1496 H   0  0  0  0  0  0  0  0  0  0  0  0
    6.6865    2.0760   22.4289 H   0  0  0  0  0  0  0  0  0  0  0  0
    9.8495    1.0405   22.5584 N   0  0  0  0  0  0  0  0  0  0  0  0
   12.7967    0.1269   22.3520 C   0  0  0  0  0  0  0  0  0  0  0  0
   14.0543   -0.2001   21.8291 C   0  0  0  0  0  0  0  0  0  0  0  0
   14.9160    0.4220   22.0468 H   0  0  0  0  0  0  0  0  0  0  0  0
   12.7034    0.9922   23.0055 H   0  0  0  0  0  0  0  0  0  0  0  0
   10.9679   -2.3355   20.9305 H   0  0  0  0  0  0  0  0  0  0  0  0
   13.1589   -2.7882   19.8186 H   0  0  0  0  0  0  0  0  0  0  0  0
   15.1942   -2.2123   19.4943 H   0  0  0  0  0  0  0  0  0  0  0  0
   16.1123   -1.1074   20.2933 H   0  0  0  0  0  0  0  0  0  0  0  0
  1  2  1  0
  2  3  2  0
  3  4  1  0
  4  5  2  0
  5  6  1  0
  6  7  2  0
  7  8  1  0
  8  9  1  0
  9 10  1  0
 10 11  2  0
 11 12  1  0
 12 13  2  0
 13 14  1  0
 14 15  2  0
 15 16  1  0
 13 17  1  0
 12 18  1  0
 11 19  1  0
  9 20  1  0
  9 21  1  0
  8 22  1  0
 22 23  1  0
 23 24  1  0
 24 25  2  0
 25 26  1  0
 26 27  2  0
 27 28  1  0
 28 29  2  0
 29 30  1  0
 28 31  1  0
 27 32  1  0
 26 33  1  0
 25 34  1  0
 23 35  1  0
 23 36  1  0
 22 37  2  0
  5 38  1  0
 38 39  2  0
 39 40  1  0
 38 41  1  0
  4 42  1  0
  3 43  1  0
  1 44  1  0
  1 45  1  0
 39  2  1  0
 37  6  1  0
 15 10  1  0
 29 24  1  0
M  END
>  <cnnaffinity>  (1) 
-6.47535

>  <filename>  (1) 
Nc1ccc(-c2nc(Cc3ccccc3)n(Cc3cccnc3)n2)cc1

$$$$
