
     RDKit          3D

 45 48  0  0  0  0  0  0  0  0999 V2000
    5.8267    3.5948   28.9216 N   0  0  0  0  0  0  0  0  0  0  0  0
    6.2582    3.0013   27.7448 C   0  0  0  0  0  0  0  0  0  0  0  0
    5.5171    1.9707   27.1520 C   0  0  0  0  0  0  0  0  0  0  0  0
    5.9210    1.4283   25.9352 C   0  0  0  0  0  0  0  0  0  0  0  0
    7.0849    1.9102   25.2998 C   0  0  0  0  0  0  0  0  0  0  0  0
    7.5393    1.3997   23.9984 C   0  0  0  0  0  0  0  0  0  0  0  0
    6.9348    0.4631   23.2843 N   0  0  0  0  0  0  0  0  0  0  0  0
    7.7318    0.3321   22.1977 N   0  0  0  0  0  0  0  0  0  0  0  0
    7.3719   -0.5885   21.1211 C   0  0  0  0  0  0  0  0  0  0  0  0
    6.6817    0.0671   19.9337 C   0  0  0  0  0  0  0  0  0  0  0  0
    5.4623    0.7347   20.1170 C   0  0  0  0  0  0  0  0  0  0  0  0
    4.8608    1.3460   19.0162 C   0  0  0  0  0  0  0  0  0  0  0  0
    5.4877    1.2689   17.7694 C   0  0  0  0  0  0  0  0  0  0  0  0
    6.6420    0.6157   17.5662 N   0  0  0  0  0  0  0  0  0  0  0  0
    7.2124    0.0404   18.6329 C   0  0  0  0  0  0  0  0  0  0  0  0
    8.1554   -0.4706   18.4329 H   0  0  0  0  0  0  0  0  0  0  0  0
    5.0442    1.7469   16.8975 H   0  0  0  0  0  0  0  0  0  0  0  0
    3.9327    1.8993   19.1109 H   0  0  0  0  0  0  0  0  0  0  0  0
    5.0083    0.7892   21.1090 H   0  0  0  0  0  0  0  0  0  0  0  0
    6.7069   -1.3243   21.5853 H   0  0  0  0  0  0  0  0  0  0  0  0
    8.2722   -1.1259   20.7997 H   0  0  0  0  0  0  0  0  0  0  0  0
    8.7739    1.1930   22.3082 C   0  0  0  0  0  0  0  0  0  0  0  0
    9.9235    1.3328   21.3648 C   0  0  0  0  0  0  0  0  0  0  0  0
   11.1504    0.5176   21.7455 C   0  0  0  0  0  0  0  0  0  0  0  0
   12.0906    1.0208   22.6528 C   0  0  0  0  0  0  0  0  0  0  0  0
   11.8861    2.1980   23.2691 F   0  0  0  0  0  0  0  0  0  0  0  0
   13.2631    0.3102   22.9351 C   0  0  0  0  0  0  0  0  0  0  0  0
   14.1414    0.7801   23.8274 F   0  0  0  0  0  0  0  0  0  0  0  0
   13.5354   -0.8940   22.2911 C   0  0  0  0  0  0  0  0  0  0  0  0
   12.5827   -1.4260   21.4161 C   0  0  0  0  0  0  0  0  0  0  0  0
   11.3831   -0.7467   21.1902 C   0  0  0  0  0  0  0  0  0  0  0  0
   10.6074   -1.1830   20.5687 H   0  0  0  0  0  0  0  0  0  0  0  0
   12.7830   -2.3592   20.9061 H   0  0  0  0  0  0  0  0  0  0  0  0
   14.4728   -1.3910   22.5052 H   0  0  0  0  0  0  0  0  0  0  0  0
   10.1946    2.3948   21.3655 H   0  0  0  0  0  0  0  0  0  0  0  0
    9.6001    1.0675   20.3550 H   0  0  0  0  0  0  0  0  0  0  0  0
    8.6696    1.8829   23.4165 N   0  0  0  0  0  0  0  0  0  0  0  0
    7.8455    2.9158   25.9335 C   0  0  0  0  0  0  0  0  0  0  0  0
    7.4373    3.4561   27.1423 C   0  0  0  0  0  0  0  0  0  0  0  0
    8.0209    4.2197   27.6468 H   0  0  0  0  0  0  0  0  0  0  0  0
    8.7627    3.2620   25.4599 H   0  0  0  0  0  0  0  0  0  0  0  0
    5.3428    0.6285   25.4765 H   0  0  0  0  0  0  0  0  0  0  0  0
    4.6400    1.5992   27.6735 H   0  0  0  0  0  0  0  0  0  0  0  0
    6.6015    3.9831   29.4371 H   0  0  0  0  0  0  0  0  0  0  0  0
    5.2867    2.9597   29.4880 H   0  0  0  0  0  0  0  0  0  0  0  0
  1  2  1  0
  2  3  2  0
  3  4  1  0
  4  5  2  0
  5  6  1  0
  6  7  2  0
  7  8  1  0
  8  9  1  0
  9 10  1  0
 10 11  2  0
 11 12  1  0
 12 13  2  0
 13 14  1  0
 14 15  2  0
 15 16  1  0
 13 17  1  0
 12 18  1  0
 11 19  1  0
  9 20  1  0
  9 21  1  0
  8 22  1  0
 22 23  1  0
 23 24  1  0
 24 25  2  0
 25 26  1  0
 25 27  1  0
 27 28  1  0
 27 29  2  0
 29 30  1  0
 30 31  2  0
 31 32  1  0
 30 33  1  0
 29 34  1  0
 23 35  1  0
 23 36  1  0
 22 37  2  0
  5 38  1  0
 38 39  2  0
 39 40  1  0
 38 41  1  0
  4 42  1  0
  3 43  1  0
  1 44  1  0
  1 45  1  0
 39  2  1  0
 37  6  1  0
 15 10  1  0
 31 24  1  0
M  END
>  <cnnaffinity>  (1) 
-6.21852

>  <filename>  (1) 
Nc1ccc(-c2nc(Cc3cccc(F)c3F)n(Cc3cccnc3)n2)cc1

$$$$
