
     RDKit          3D

 45 48  0  0  0  0  0  0  0  0999 V2000
    5.8794    3.6771   28.9044 N   0  0  0  0  0  0  0  0  0  0  0  0
    6.3178    3.0598   27.7427 C   0  0  0  0  0  0  0  0  0  0  0  0
    5.5737    2.0264   27.1573 C   0  0  0  0  0  0  0  0  0  0  0  0
    5.9701    1.4785   25.9398 C   0  0  0  0  0  0  0  0  0  0  0  0
    7.1339    1.9493   25.2964 C   0  0  0  0  0  0  0  0  0  0  0  0
    7.5766    1.4307   23.9898 C   0  0  0  0  0  0  0  0  0  0  0  0
    6.9494    0.4989   23.2859 N   0  0  0  0  0  0  0  0  0  0  0  0
    7.7328    0.3499   22.1918 N   0  0  0  0  0  0  0  0  0  0  0  0
    7.3603   -0.5787   21.1269 C   0  0  0  0  0  0  0  0  0  0  0  0
    6.6687    0.0723   19.9396 C   0  0  0  0  0  0  0  0  0  0  0  0
    5.4533    0.7442   20.1249 C   0  0  0  0  0  0  0  0  0  0  0  0
    4.8508    1.3561   19.0231 C   0  0  0  0  0  0  0  0  0  0  0  0
    5.4782    1.2743   17.7767 C   0  0  0  0  0  0  0  0  0  0  0  0
    6.6325    0.6236   17.5740 N   0  0  0  0  0  0  0  0  0  0  0  0
    7.2018    0.0455   18.6410 C   0  0  0  0  0  0  0  0  0  0  0  0
    8.1452   -0.4630   18.4419 H   0  0  0  0  0  0  0  0  0  0  0  0
    5.0334    1.7473   16.9014 H   0  0  0  0  0  0  0  0  0  0  0  0
    3.9220    1.9083   19.1160 H   0  0  0  0  0  0  0  0  0  0  0  0
    5.0045    0.8016   21.1196 H   0  0  0  0  0  0  0  0  0  0  0  0
    6.6938   -1.3041   21.6001 H   0  0  0  0  0  0  0  0  0  0  0  0
    8.2507   -1.1303   20.8011 H   0  0  0  0  0  0  0  0  0  0  0  0
    8.7830    1.1958   22.2814 C   0  0  0  0  0  0  0  0  0  0  0  0
    9.9052    1.3098   21.3029 C   0  0  0  0  0  0  0  0  0  0  0  0
   11.1251    0.4975   21.6970 C   0  0  0  0  0  0  0  0  0  0  0  0
   12.0170    1.0128   22.6487 C   0  0  0  0  0  0  0  0  0  0  0  0
   13.1686    0.2848   22.9464 C   0  0  0  0  0  0  0  0  0  0  0  0
   14.0227    0.7491   23.8734 F   0  0  0  0  0  0  0  0  0  0  0  0
   13.4787   -0.9120   22.3008 C   0  0  0  0  0  0  0  0  0  0  0  0
   12.5578   -1.4390   21.3905 C   0  0  0  0  0  0  0  0  0  0  0  0
   11.3595   -0.7604   21.1361 C   0  0  0  0  0  0  0  0  0  0  0  0
   10.5850   -1.1937   20.5111 H   0  0  0  0  0  0  0  0  0  0  0  0
   12.7815   -2.3644   20.8674 H   0  0  0  0  0  0  0  0  0  0  0  0
   14.4126   -1.4152   22.5351 H   0  0  0  0  0  0  0  0  0  0  0  0
   11.8070    1.9470   23.1631 H   0  0  0  0  0  0  0  0  0  0  0  0
   10.1742    2.3698   21.2629 H   0  0  0  0  0  0  0  0  0  0  0  0
    9.5584    1.0361   20.3033 H   0  0  0  0  0  0  0  0  0  0  0  0
    8.7101    1.8896   23.3899 N   0  0  0  0  0  0  0  0  0  0  0  0
    7.9037    2.9511   25.9272 C   0  0  0  0  0  0  0  0  0  0  0  0
    7.5009    3.4961   27.1379 C   0  0  0  0  0  0  0  0  0  0  0  0
    8.0916    4.2609   27.6340 H   0  0  0  0  0  0  0  0  0  0  0  0
    8.8179    3.2953   25.4490 H   0  0  0  0  0  0  0  0  0  0  0  0
    5.3804    0.6844   25.4823 H   0  0  0  0  0  0  0  0  0  0  0  0
    4.6926    1.6628   27.6781 H   0  0  0  0  0  0  0  0  0  0  0  0
    6.6510    4.0588   29.4260 H   0  0  0  0  0  0  0  0  0  0  0  0
    5.3361    3.0499   29.4785 H   0  0  0  0  0  0  0  0  0  0  0  0
  1  2  1  0
  2  3  2  0
  3  4  1  0
  4  5  2  0
  5  6  1  0
  6  7  2  0
  7  8  1  0
  8  9  1  0
  9 10  1  0
 10 11  2  0
 11 12  1  0
 12 13  2  0
 13 14  1  0
 14 15  2  0
 15 16  1  0
 13 17  1  0
 12 18  1  0
 11 19  1  0
  9 20  1  0
  9 21  1  0
  8 22  1  0
 22 23  1  0
 23 24  1  0
 24 25  2  0
 25 26  1  0
 26 27  1  0
 26 28  2  0
 28 29  1  0
 29 30  2  0
 30 31  1  0
 29 32  1  0
 28 33  1  0
 25 34  1  0
 23 35  1  0
 23 36  1  0
 22 37  2  0
  5 38  1  0
 38 39  2  0
 39 40  1  0
 38 41  1  0
  4 42  1  0
  3 43  1  0
  1 44  1  0
  1 45  1  0
 39  2  1  0
 37  6  1  0
 15 10  1  0
 30 24  1  0
M  END
>  <cnnaffinity>  (1) 
-5.96457

>  <filename>  (1) 
Nc1ccc(-c2nc(Cc3cccc(F)c3)n(Cc3cccnc3)n2)cc1

$$$$
