
     RDKit          3D

 30 32  0  0  0  0  0  0  0  0999 V2000
    6.6358   -4.9828   26.2746 H   0  0  0  0  0  0  0  0  0  0  0  0
    6.1730   -4.4521   25.4479 C   0  0  0  0  0  0  0  0  0  0  0  0
    6.9463   -3.6950   24.6707 N   0  0  0  0  0  0  0  0  0  0  0  0
    6.3364   -3.0917   23.6144 C   0  0  0  0  0  0  0  0  0  0  0  0
    7.1456   -2.2632   22.8059 N   0  0  0  0  0  0  0  0  0  0  0  0
    6.5412   -1.5614   21.7757 N   0  0  0  0  0  0  0  0  0  0  0  0
    7.2756   -0.7901   21.0121 C   0  0  0  0  0  0  0  0  0  0  0  0
    6.5646   -0.0579   19.9171 C   0  0  0  0  0  0  0  0  0  0  0  0
    7.1181    0.0088   18.6217 C   0  0  0  0  0  0  0  0  0  0  0  0
    8.0871   -0.4534   18.4272 H   0  0  0  0  0  0  0  0  0  0  0  0
    6.5408    0.6406   17.5961 N   0  0  0  0  0  0  0  0  0  0  0  0
    5.3896    1.2836   17.8433 C   0  0  0  0  0  0  0  0  0  0  0  0
    4.9568    1.8231   17.0050 H   0  0  0  0  0  0  0  0  0  0  0  0
    4.7632    1.3031   19.0934 C   0  0  0  0  0  0  0  0  0  0  0  0
    3.8555    1.8805   19.2282 H   0  0  0  0  0  0  0  0  0  0  0  0
    5.3534    0.6074   20.1502 C   0  0  0  0  0  0  0  0  0  0  0  0
    4.9158    0.5875   21.1490 H   0  0  0  0  0  0  0  0  0  0  0  0
    8.7728   -0.6156   21.2208 C   0  0  0  0  0  0  0  0  0  0  0  0
    9.4937    0.1066   20.5403 O   0  0  0  0  0  0  0  0  0  0  0  0
    9.3116   -1.3971   22.3283 C   0  0  0  0  0  0  0  0  0  0  0  0
   10.3727   -1.3193   22.5144 H   0  0  0  0  0  0  0  0  0  0  0  0
    8.5088   -2.1575   23.0722 C   0  0  0  0  0  0  0  0  0  0  0  0
    8.8622   -2.7411   23.9188 H   0  0  0  0  0  0  0  0  0  0  0  0
    4.9642   -3.3276   23.3327 C   0  0  0  0  0  0  0  0  0  0  0  0
    4.5285   -2.9230   22.4259 H   0  0  0  0  0  0  0  0  0  0  0  0
    4.1697   -4.0584   24.1326 N   0  0  0  0  0  0  0  0  0  0  0  0
    4.7700   -4.6012   25.2128 C   0  0  0  0  0  0  0  0  0  0  0  0
    3.8825   -5.2494   25.9981 N   0  0  0  0  0  0  0  0  0  0  0  0
    4.1096   -5.8693   26.7492 H   0  0  0  0  0  0  0  0  0  0  0  0
    2.9625   -5.1972   25.6004 H   0  0  0  0  0  0  0  0  0  0  0  0
  1  2  1  0
  2  3  2  0
  3  4  1  0
  4  5  1  0
  5  6  1  0
  6  7  2  0
  7  8  1  0
  8  9  2  0
  9 10  1  0
  9 11  1  0
 11 12  2  0
 12 13  1  0
 12 14  1  0
 14 15  1  0
 14 16  2  0
 16 17  1  0
  7 18  1  0
 18 19  2  0
 18 20  1  0
 20 21  1  0
 20 22  2  0
 22 23  1  0
  4 24  2  0
 24 25  1  0
 24 26  1  0
 26 27  2  0
 27 28  1  0
 28 29  1  0
 28 30  1  0
 27  2  1  0
 22  5  1  0
 16  8  1  0
M  END
>  <cnnaffinity>  (1) 
-4.92724

>  <filename>  (1) 
Nc1cnc(-n2ccc(=O)c(-c3cccnc3)n2)cn1

$$$$
