
     RDKit          3D

 44 47  0  0  0  0  0  0  0  0999 V2000
    6.7584   -5.7157   26.7334 N   0  0  0  0  0  0  0  0  0  0  0  0
    6.9826   -4.8107   25.7363 C   0  0  0  0  0  0  0  0  0  0  0  0
    5.9781   -4.5284   24.7930 C   0  0  0  0  0  0  0  0  0  0  0  0
    6.2033   -3.6042   23.7823 C   0  0  0  0  0  0  0  0  0  0  0  0
    7.4375   -2.9315   23.6740 C   0  0  0  0  0  0  0  0  0  0  0  0
    7.6648   -1.9475   22.5907 C   0  0  0  0  0  0  0  0  0  0  0  0
    6.7374   -1.5937   21.7124 N   0  0  0  0  0  0  0  0  0  0  0  0
    7.3635   -0.6731   20.9435 N   0  0  0  0  0  0  0  0  0  0  0  0
    6.6605    0.0039   19.9027 C   0  0  0  0  0  0  0  0  0  0  0  0
    5.4429    0.6434   20.1660 C   0  0  0  0  0  0  0  0  0  0  0  0
    4.8123    1.3106   19.1105 C   0  0  0  0  0  0  0  0  0  0  0  0
    5.4018    1.2950   17.8396 C   0  0  0  0  0  0  0  0  0  0  0  0
    6.5619    0.6745   17.5795 N   0  0  0  0  0  0  0  0  0  0  0  0
    7.1710    0.0539   18.5946 C   0  0  0  0  0  0  0  0  0  0  0  0
    8.1164   -0.4349   18.3716 H   0  0  0  0  0  0  0  0  0  0  0  0
    4.9156    1.7822   16.9955 H   0  0  0  0  0  0  0  0  0  0  0  0
    3.8777    1.8407   19.2641 H   0  0  0  0  0  0  0  0  0  0  0  0
    5.0125    0.6112   21.1698 H   0  0  0  0  0  0  0  0  0  0  0  0
    8.6319   -0.4908   21.4151 C   0  0  0  0  0  0  0  0  0  0  0  0
    9.5232    0.6183   20.9507 C   0  0  0  0  0  0  0  0  0  0  0  0
    9.0560    2.0160   21.4367 C   0  0  0  0  0  0  0  0  0  0  0  0
    8.9443    2.0841   22.9435 C   0  0  0  0  0  0  0  0  0  0  0  0
    7.7193    1.8330   23.5737 C   0  0  0  0  0  0  0  0  0  0  0  0
    7.6370    1.8137   24.9653 C   0  0  0  0  0  0  0  0  0  0  0  0
    8.8038    2.0379   25.6956 C   0  0  0  0  0  0  0  0  0  0  0  0
    9.9966    2.2579   25.1327 N   0  0  0  0  0  0  0  0  0  0  0  0
   10.0438    2.2642   23.8090 C   0  0  0  0  0  0  0  0  0  0  0  0
   11.6219    2.5397   23.1410 Cl  0  0  0  0  0  0  0  0  0  0  0  0
    8.7826    2.0475   26.7785 H   0  0  0  0  0  0  0  0  0  0  0  0
    6.6964    1.6325   25.4692 H   0  0  0  0  0  0  0  0  0  0  0  0
    6.8387    1.6337   22.9642 H   0  0  0  0  0  0  0  0  0  0  0  0
    8.0787    2.2432   20.9906 H   0  0  0  0  0  0  0  0  0  0  0  0
    9.7554    2.7731   21.0699 H   0  0  0  0  0  0  0  0  0  0  0  0
    9.5831    0.6159   19.8590 H   0  0  0  0  0  0  0  0  0  0  0  0
   10.5239    0.4044   21.3298 H   0  0  0  0  0  0  0  0  0  0  0  0
    8.8548   -1.3013   22.4257 N   0  0  0  0  0  0  0  0  0  0  0  0
    8.4396   -3.2201   24.6237 C   0  0  0  0  0  0  0  0  0  0  0  0
    8.2180   -4.1440   25.6382 C   0  0  0  0  0  0  0  0  0  0  0  0
    8.9918   -4.3641   26.3679 H   0  0  0  0  0  0  0  0  0  0  0  0
    9.4000   -2.7129   24.5669 H   0  0  0  0  0  0  0  0  0  0  0  0
    5.4187   -3.3870   23.0625 H   0  0  0  0  0  0  0  0  0  0  0  0
    5.0241   -5.0393   24.8690 H   0  0  0  0  0  0  0  0  0  0  0  0
    7.4679   -5.9362   27.4069 H   0  0  0  0  0  0  0  0  0  0  0  0
    5.8855   -6.2021   26.8121 H   0  0  0  0  0  0  0  0  0  0  0  0
  1  2  1  0
  2  3  2  0
  3  4  1  0
  4  5  2  0
  5  6  1  0
  6  7  2  0
  7  8  1  0
  8  9  1  0
  9 10  2  0
 10 11  1  0
 11 12  2  0
 12 13  1  0
 13 14  2  0
 14 15  1  0
 12 16  1  0
 11 17  1  0
 10 18  1  0
  8 19  1  0
 19 20  1  0
 20 21  1  0
 21 22  1  0
 22 23  2  0
 23 24  1  0
 24 25  2  0
 25 26  1  0
 26 27  2  0
 27 28  1  0
 25 29  1  0
 24 30  1  0
 23 31  1  0
 21 32  1  0
 21 33  1  0
 20 34  1  0
 20 35  1  0
 19 36  2  0
  5 37  1  0
 37 38  2  0
 38 39  1  0
 37 40  1  0
  4 41  1  0
  3 42  1  0
  1 43  1  0
  1 44  1  0
 38  2  1  0
 36  6  1  0
 14  9  1  0
 27 22  1  0
M  END
>  <cnnaffinity>  (1) 
-6.1384

>  <filename>  (1) 
Nc1ccc(-c2nc(CCc3cccnc3Cl)n(-c3cccnc3)n2)cc1

$$$$
