
     RDKit          3D

 44 47  0  0  0  0  0  0  0  0999 V2000
   15.1628   -1.2534   20.0021 N   0  0  0  0  0  0  0  0  0  0  0  0
   14.0896   -1.1448   20.9237 C   0  0  0  0  0  0  0  0  0  0  0  0
   13.9715   -0.1683   21.9360 C   0  0  0  0  0  0  0  0  0  0  0  0
   12.7046    0.1153   22.4666 C   0  0  0  0  0  0  0  0  0  0  0  0
   11.5899   -0.6244   22.0209 C   0  0  0  0  0  0  0  0  0  0  0  0
   10.1977   -0.2029   22.1780 C   0  0  0  0  0  0  0  0  0  0  0  0
    9.2020   -0.9158   21.6553 N   0  0  0  0  0  0  0  0  0  0  0  0
    8.1166   -0.1543   21.8771 N   0  0  0  0  0  0  0  0  0  0  0  0
    6.8044   -0.5781   21.3895 C   0  0  0  0  0  0  0  0  0  0  0  0
    6.3706    0.1304   20.1251 C   0  0  0  0  0  0  0  0  0  0  0  0
    5.1715    0.8433   20.0302 C   0  0  0  0  0  0  0  0  0  0  0  0
    4.8625    1.4854   18.8281 C   0  0  0  0  0  0  0  0  0  0  0  0
    5.7630    1.3853   17.7653 C   0  0  0  0  0  0  0  0  0  0  0  0
    6.9077    0.6893   17.8276 N   0  0  0  0  0  0  0  0  0  0  0  0
    7.1938    0.0856   18.9868 C   0  0  0  0  0  0  0  0  0  0  0  0
    8.1244   -0.4797   19.0159 H   0  0  0  0  0  0  0  0  0  0  0  0
    5.5569    1.8804   16.8186 H   0  0  0  0  0  0  0  0  0  0  0  0
    3.9498    2.0584   18.7067 H   0  0  0  0  0  0  0  0  0  0  0  0
    4.4900    0.8921   20.8828 H   0  0  0  0  0  0  0  0  0  0  0  0
    6.0945   -0.4117   22.2041 H   0  0  0  0  0  0  0  0  0  0  0  0
    6.8892   -1.6573   21.2232 H   0  0  0  0  0  0  0  0  0  0  0  0
    8.5081    0.9872   22.4823 C   0  0  0  0  0  0  0  0  0  0  0  0
    7.6162    1.9640   23.1496 C   0  0  0  0  0  0  0  0  0  0  0  0
    7.3038    1.3214   24.4720 C   0  0  0  0  0  0  0  0  0  0  0  0
    8.1723    1.4291   25.5682 C   0  0  0  0  0  0  0  0  0  0  0  0
    7.9649    0.6270   26.6953 C   0  0  0  0  0  0  0  0  0  0  0  0
    6.8722   -0.2328   26.6670 C   0  0  0  0  0  0  0  0  0  0  0  0
    6.6288   -1.0519   27.7016 F   0  0  0  0  0  0  0  0  0  0  0  0
    6.0321   -0.2633   25.5501 C   0  0  0  0  0  0  0  0  0  0  0  0
    6.2541    0.4929   24.4635 N   0  0  0  0  0  0  0  0  0  0  0  0
    5.1551   -0.9033   25.5509 H   0  0  0  0  0  0  0  0  0  0  0  0
    8.6178    0.6502   27.5655 H   0  0  0  0  0  0  0  0  0  0  0  0
    9.0224    2.0955   25.4868 H   0  0  0  0  0  0  0  0  0  0  0  0
    6.7008    2.1255   22.5819 H   0  0  0  0  0  0  0  0  0  0  0  0
    8.1651    2.9016   23.2612 H   0  0  0  0  0  0  0  0  0  0  0  0
    9.8064    0.9816   22.6971 N   0  0  0  0  0  0  0  0  0  0  0  0
   11.7883   -1.7425   21.1977 C   0  0  0  0  0  0  0  0  0  0  0  0
   13.0230   -1.9740   20.6312 C   0  0  0  0  0  0  0  0  0  0  0  0
   13.1882   -2.7310   19.8706 H   0  0  0  0  0  0  0  0  0  0  0  0
   10.9256   -2.3472   20.9364 H   0  0  0  0  0  0  0  0  0  0  0  0
   12.5763    0.9493   23.1565 H   0  0  0  0  0  0  0  0  0  0  0  0
   14.8259    0.4554   22.1843 H   0  0  0  0  0  0  0  0  0  0  0  0
   15.9881   -1.5019   20.5231 H   0  0  0  0  0  0  0  0  0  0  0  0
   15.3865   -0.3491   19.6040 H   0  0  0  0  0  0  0  0  0  0  0  0
  1  2  1  0
  2  3  2  0
  3  4  1  0
  4  5  2  0
  5  6  1  0
  6  7  2  0
  7  8  1  0
  8  9  1  0
  9 10  1  0
 10 11  2  0
 11 12  1  0
 12 13  2  0
 13 14  1  0
 14 15  2  0
 15 16  1  0
 13 17  1  0
 12 18  1  0
 11 19  1  0
  9 20  1  0
  9 21  1  0
  8 22  1  0
 22 23  1  0
 23 24  1  0
 24 25  2  0
 25 26  1  0
 26 27  2  0
 27 28  1  0
 27 29  1  0
 29 30  2  0
 29 31  1  0
 26 32  1  0
 25 33  1  0
 23 34  1  0
 23 35  1  0
 22 36  2  0
  5 37  1  0
 37 38  2  0
 38 39  1  0
 37 40  1  0
  4 41  1  0
  3 42  1  0
  1 43  1  0
  1 44  1  0
 38  2  1  0
 36  6  1  0
 15 10  1  0
 30 24  1  0
M  END
>  <cnnaffinity>  (1) 
-6.82396

>  <filename>  (1) 
Nc1ccc(-c2nc(Cc3ccc(F)cn3)n(Cc3cccnc3)n2)cc1

$$$$
