
     RDKit          3D

 48 51  0  0  0  0  0  0  0  0999 V2000
    6.4600    4.0547   28.5523 N   0  0  0  0  0  0  0  0  0  0  0  0
    6.7852    3.4757   27.3599 C   0  0  0  0  0  0  0  0  0  0  0  0
    8.0179    3.7551   26.7411 C   0  0  0  0  0  0  0  0  0  0  0  0
    8.3635    3.1281   25.5500 C   0  0  0  0  0  0  0  0  0  0  0  0
    7.4778    2.2198   24.9352 C   0  0  0  0  0  0  0  0  0  0  0  0
    7.8354    1.5763   23.6600 C   0  0  0  0  0  0  0  0  0  0  0  0
    7.1558    0.5654   23.1372 N   0  0  0  0  0  0  0  0  0  0  0  0
    7.8652    0.2581   22.0308 N   0  0  0  0  0  0  0  0  0  0  0  0
    7.3537   -0.6820   21.0443 C   0  0  0  0  0  0  0  0  0  0  0  0
    6.6497   -0.0035   19.8894 C   0  0  0  0  0  0  0  0  0  0  0  0
    5.4472    0.6705   20.1324 C   0  0  0  0  0  0  0  0  0  0  0  0
    4.8215    1.3188   19.0669 C   0  0  0  0  0  0  0  0  0  0  0  0
    5.4255    1.2926   17.8051 C   0  0  0  0  0  0  0  0  0  0  0  0
    6.5745    0.6468   17.5531 N   0  0  0  0  0  0  0  0  0  0  0  0
    7.1585    0.0200   18.5828 C   0  0  0  0  0  0  0  0  0  0  0  0
    8.0849   -0.5049   18.3468 H   0  0  0  0  0  0  0  0  0  0  0  0
    4.9625    1.8013   16.9593 H   0  0  0  0  0  0  0  0  0  0  0  0
    3.8853    1.8475   19.2038 H   0  0  0  0  0  0  0  0  0  0  0  0
    5.0261    0.6864   21.1427 H   0  0  0  0  0  0  0  0  0  0  0  0
    8.1829   -1.3011   20.6870 H   0  0  0  0  0  0  0  0  0  0  0  0
    6.6591   -1.3255   21.5876 H   0  0  0  0  0  0  0  0  0  0  0  0
    8.9194    1.0920   21.9253 C   0  0  0  0  0  0  0  0  0  0  0  0
   10.0307    0.8146   20.9680 C   0  0  0  0  0  0  0  0  0  0  0  0
   10.8738   -0.4107   21.4171 C   0  0  0  0  0  0  0  0  0  0  0  0
   11.4921   -0.1403   22.7755 C   0  0  0  0  0  0  0  0  0  0  0  0
   10.9806   -0.5909   24.0084 C   0  0  0  0  0  0  0  0  0  0  0  0
   11.6397   -0.2830   25.2104 C   0  0  0  0  0  0  0  0  0  0  0  0
   12.8545    0.4175   25.1831 C   0  0  0  0  0  0  0  0  0  0  0  0
   13.3027    0.9815   23.9883 C   0  0  0  0  0  0  0  0  0  0  0  0
   12.5592    0.7611   22.8388 C   0  0  0  0  0  0  0  0  0  0  0  0
   12.8647    1.4838   21.7456 F   0  0  0  0  0  0  0  0  0  0  0  0
   14.1756    1.6140   23.9110 H   0  0  0  0  0  0  0  0  0  0  0  0
   13.4791    0.5237   26.0652 H   0  0  0  0  0  0  0  0  0  0  0  0
   11.2126   -0.5858   26.1624 H   0  0  0  0  0  0  0  0  0  0  0  0
   10.0654   -1.1856   24.0231 H   0  0  0  0  0  0  0  0  0  0  0  0
   10.2682   -1.3265   21.4497 H   0  0  0  0  0  0  0  0  0  0  0  0
   11.6620   -0.5885   20.6753 H   0  0  0  0  0  0  0  0  0  0  0  0
   10.6784    1.6926   20.9242 H   0  0  0  0  0  0  0  0  0  0  0  0
    9.6140    0.6601   19.9686 H   0  0  0  0  0  0  0  0  0  0  0  0
    8.9173    1.9537   22.9226 N   0  0  0  0  0  0  0  0  0  0  0  0
    6.2434    1.9424   25.5595 C   0  0  0  0  0  0  0  0  0  0  0  0
    5.9009    2.5667   26.7509 C   0  0  0  0  0  0  0  0  0  0  0  0
    4.9526    2.3524   27.2311 H   0  0  0  0  0  0  0  0  0  0  0  0
    5.5613    1.2290   25.0953 H   0  0  0  0  0  0  0  0  0  0  0  0
    9.3232    3.3394   25.0757 H   0  0  0  0  0  0  0  0  0  0  0  0
    8.6921    4.4641   27.2057 H   0  0  0  0  0  0  0  0  0  0  0  0
    7.0559    4.7554   28.9466 H   0  0  0  0  0  0  0  0  0  0  0  0
    5.5531    3.8902   28.9479 H   0  0  0  0  0  0  0  0  0  0  0  0
  1  2  1  0
  2  3  2  0
  3  4  1  0
  4  5  2  0
  5  6  1  0
  6  7  2  0
  7  8  1  0
  8  9  1  0
  9 10  1  0
 10 11  2  0
 11 12  1  0
 12 13  2  0
 13 14  1  0
 14 15  2  0
 15 16  1  0
 13 17  1  0
 12 18  1  0
 11 19  1  0
  9 20  1  0
  9 21  1  0
  8 22  1  0
 22 23  1  0
 23 24  1  0
 24 25  1  0
 25 26  2  0
 26 27  1  0
 27 28  2  0
 28 29  1  0
 29 30  2  0
 30 31  1  0
 29 32  1  0
 28 33  1  0
 27 34  1  0
 26 35  1  0
 24 36  1  0
 24 37  1  0
 23 38  1  0
 23 39  1  0
 22 40  2  0
  5 41  1  0
 41 42  2  0
 42 43  1  0
 41 44  1  0
  4 45  1  0
  3 46  1  0
  1 47  1  0
  1 48  1  0
 42  2  1  0
 40  6  1  0
 15 10  1  0
 30 25  1  0
M  END
>  <cnnaffinity>  (1) 
-6.06524

>  <filename>  (1) 
Nc1ccc(-c2nc(CCc3ccccc3F)n(Cc3cccnc3)n2)cc1

$$$$
