
     RDKit          3D

 32 34  0  0  0  0  0  0  0  0999 V2000
    7.8515   -4.9544   23.7421 H   0  0  0  0  0  0  0  0  0  0  0  0
    6.9115   -5.1184   23.2100 C   0  0  0  0  0  0  0  0  0  0  0  0
    6.1895   -6.2138   23.5083 N   0  0  0  0  0  0  0  0  0  0  0  0
    5.0187   -6.3472   22.8762 C   0  0  0  0  0  0  0  0  0  0  0  0
    4.3047   -7.4223   23.3741 N   0  0  0  0  0  0  0  0  0  0  0  0
    3.9801   -8.0582   22.6558 H   0  0  0  0  0  0  0  0  0  0  0  0
    4.9878   -7.8611   23.9824 H   0  0  0  0  0  0  0  0  0  0  0  0
    4.5987   -5.4322   21.8619 C   0  0  0  0  0  0  0  0  0  0  0  0
    3.6337   -5.5777   21.3870 H   0  0  0  0  0  0  0  0  0  0  0  0
    5.3388   -4.3737   21.5198 N   0  0  0  0  0  0  0  0  0  0  0  0
    6.5027   -4.2043   22.2312 C   0  0  0  0  0  0  0  0  0  0  0  0
    7.4084   -3.0101   22.0629 C   0  0  0  0  0  0  0  0  0  0  0  0
    8.3658   -2.8366   22.8063 O   0  0  0  0  0  0  0  0  0  0  0  0
    7.0933   -2.1639   21.0543 N   0  0  0  0  0  0  0  0  0  0  0  0
    6.2534   -2.4154   20.5591 H   0  0  0  0  0  0  0  0  0  0  0  0
    7.4287   -0.7772   21.0000 C   0  0  0  0  0  0  0  0  0  0  0  0
    6.6700   -0.0843   19.9337 C   0  0  0  0  0  0  0  0  0  0  0  0
    7.1722   -0.0894   18.6285 C   0  0  0  0  0  0  0  0  0  0  0  0
    8.0936   -0.6348   18.4247 H   0  0  0  0  0  0  0  0  0  0  0  0
    6.6016    0.5510   17.6007 N   0  0  0  0  0  0  0  0  0  0  0  0
    5.4647    1.2191   17.8524 C   0  0  0  0  0  0  0  0  0  0  0  0
    5.0266    1.7472   17.0076 H   0  0  0  0  0  0  0  0  0  0  0  0
    4.8428    1.2421   19.1084 C   0  0  0  0  0  0  0  0  0  0  0  0
    3.9185    1.7931   19.2436 H   0  0  0  0  0  0  0  0  0  0  0  0
    5.4546    0.5729   20.1682 C   0  0  0  0  0  0  0  0  0  0  0  0
    5.0295    0.5577   21.1739 H   0  0  0  0  0  0  0  0  0  0  0  0
    8.8432   -0.3759   21.2847 C   0  0  0  0  0  0  0  0  0  0  0  0
    9.5033   -1.1718   21.5969 H   0  0  0  0  0  0  0  0  0  0  0  0
    9.2719    0.4044   20.6632 H   0  0  0  0  0  0  0  0  0  0  0  0
    7.7570   -0.0146   22.2539 C   0  0  0  0  0  0  0  0  0  0  0  0
    7.4180    1.0162   22.2899 H   0  0  0  0  0  0  0  0  0  0  0  0
    7.7339   -0.5554   23.1908 H   0  0  0  0  0  0  0  0  0  0  0  0
  1  2  1  0
  2  3  2  0
  3  4  1  0
  4  5  1  0
  5  6  1  0
  5  7  1  0
  4  8  2  0
  8  9  1  0
  8 10  1  0
 10 11  2  0
 11 12  1  0
 12 13  2  0
 12 14  1  0
 14 15  1  0
 14 16  1  0
 16 17  1  0
 17 18  2  0
 18 19  1  0
 18 20  1  0
 20 21  2  0
 21 22  1  0
 21 23  1  0
 23 24  1  0
 23 25  2  0
 25 26  1  0
 16 27  1  0
 27 28  1  0
 27 29  1  0
 27 30  1  0
 30 31  1  0
 30 32  1  0
 11  2  1  0
 30 16  1  0
 25 17  1  0
M  END
>  <cnnaffinity>  (1) 
-4.5468

>  <filename>  (1) 
Nc1cnc(C(=O)NC2(c3cccnc3)CC2)cn1

$$$$
