
     RDKit          3D

 45 48  0  0  0  0  0  0  0  0999 V2000
    6.0046    3.3488   28.8623 N   0  0  0  0  0  0  0  0  0  0  0  0
    6.4165    2.8753   27.6509 C   0  0  0  0  0  0  0  0  0  0  0  0
    5.6905    1.8560   27.0089 C   0  0  0  0  0  0  0  0  0  0  0  0
    6.1072    1.3781   25.7749 C   0  0  0  0  0  0  0  0  0  0  0  0
    7.2542    1.8973   25.1409 C   0  0  0  0  0  0  0  0  0  0  0  0
    7.6797    1.3741   23.8266 C   0  0  0  0  0  0  0  0  0  0  0  0
    7.0573    0.3862   23.1962 N   0  0  0  0  0  0  0  0  0  0  0  0
    7.7950    0.2118   22.0758 N   0  0  0  0  0  0  0  0  0  0  0  0
    7.3803   -0.6993   21.0125 C   0  0  0  0  0  0  0  0  0  0  0  0
    6.6535    0.0023   19.8842 C   0  0  0  0  0  0  0  0  0  0  0  0
    5.4387    0.6453   20.1463 C   0  0  0  0  0  0  0  0  0  0  0  0
    4.8040    1.3089   19.0948 C   0  0  0  0  0  0  0  0  0  0  0  0
    5.3983    1.2976   17.8272 C   0  0  0  0  0  0  0  0  0  0  0  0
    6.5590    0.6814   17.5573 N   0  0  0  0  0  0  0  0  0  0  0  0
    7.1626    0.0597   18.5786 C   0  0  0  0  0  0  0  0  0  0  0  0
    8.1114   -0.4258   18.3456 H   0  0  0  0  0  0  0  0  0  0  0  0
    4.9186    1.7927   16.9862 H   0  0  0  0  0  0  0  0  0  0  0  0
    3.8759    1.8422   19.2490 H   0  0  0  0  0  0  0  0  0  0  0  0
    5.0289    0.6333   21.1618 H   0  0  0  0  0  0  0  0  0  0  0  0
    8.2678   -1.2285   20.6466 H   0  0  0  0  0  0  0  0  0  0  0  0
    6.7331   -1.4323   21.5009 H   0  0  0  0  0  0  0  0  0  0  0  0
    8.7935    1.1180   22.0612 C   0  0  0  0  0  0  0  0  0  0  0  0
    9.8217    1.2687   20.9917 C   0  0  0  0  0  0  0  0  0  0  0  0
   11.2105    0.9358   21.4838 C   0  0  0  0  0  0  0  0  0  0  0  0
   12.0012    1.9437   22.0338 C   0  0  0  0  0  0  0  0  0  0  0  0
   13.2351    1.6227   22.5830 C   0  0  0  0  0  0  0  0  0  0  0  0
   13.9579    2.6267   23.0904 F   0  0  0  0  0  0  0  0  0  0  0  0
   13.7296    0.3201   22.5957 C   0  0  0  0  0  0  0  0  0  0  0  0
   12.9348   -0.7029   22.0607 C   0  0  0  0  0  0  0  0  0  0  0  0
   11.6892   -0.3746   21.5304 C   0  0  0  0  0  0  0  0  0  0  0  0
   10.9000   -1.3616   21.0609 F   0  0  0  0  0  0  0  0  0  0  0  0
   13.2554   -1.7405   22.0315 H   0  0  0  0  0  0  0  0  0  0  0  0
   14.7112    0.1241   23.0121 H   0  0  0  0  0  0  0  0  0  0  0  0
   11.6538    2.9735   22.0720 H   0  0  0  0  0  0  0  0  0  0  0  0
    9.8099    2.3290   20.7295 H   0  0  0  0  0  0  0  0  0  0  0  0
    9.5602    0.6754   20.1117 H   0  0  0  0  0  0  0  0  0  0  0  0
    8.7493    1.8612   23.1469 N   0  0  0  0  0  0  0  0  0  0  0  0
    7.9760    2.9182   25.7965 C   0  0  0  0  0  0  0  0  0  0  0  0
    7.5645    3.4035   27.0322 C   0  0  0  0  0  0  0  0  0  0  0  0
    8.1088    4.1923   27.5404 H   0  0  0  0  0  0  0  0  0  0  0  0
    8.8645    3.3358   25.3329 H   0  0  0  0  0  0  0  0  0  0  0  0
    5.5450    0.5886   25.2861 H   0  0  0  0  0  0  0  0  0  0  0  0
    4.8079    1.4553   27.4961 H   0  0  0  0  0  0  0  0  0  0  0  0
    6.5138    4.0719   29.3291 H   0  0  0  0  0  0  0  0  0  0  0  0
    5.1921    2.9669   29.3044 H   0  0  0  0  0  0  0  0  0  0  0  0
  1  2  1  0
  2  3  2  0
  3  4  1  0
  4  5  2  0
  5  6  1  0
  6  7  2  0
  7  8  1  0
  8  9  1  0
  9 10  1  0
 10 11  2  0
 11 12  1  0
 12 13  2  0
 13 14  1  0
 14 15  2  0
 15 16  1  0
 13 17  1  0
 12 18  1  0
 11 19  1  0
  9 20  1  0
  9 21  1  0
  8 22  1  0
 22 23  1  0
 23 24  1  0
 24 25  2  0
 25 26  1  0
 26 27  1  0
 26 28  2  0
 28 29  1  0
 29 30  2  0
 30 31  1  0
 29 32  1  0
 28 33  1  0
 25 34  1  0
 23 35  1  0
 23 36  1  0
 22 37  2  0
  5 38  1  0
 38 39  2  0
 39 40  1  0
 38 41  1  0
  4 42  1  0
  3 43  1  0
  1 44  1  0
  1 45  1  0
 39  2  1  0
 37  6  1  0
 15 10  1  0
 30 24  1  0
M  END
>  <cnnaffinity>  (1) 
-5.95703

>  <filename>  (1) 
Nc1ccc(-c2nc(Cc3cc(F)ccc3F)n(Cc3cccnc3)n2)cc1

$$$$
