
     RDKit          3D

 45 48  0  0  0  0  0  0  0  0999 V2000
    6.7479   -5.6572   26.7660 N   0  0  0  0  0  0  0  0  0  0  0  0
    6.9792   -4.7899   25.7365 C   0  0  0  0  0  0  0  0  0  0  0  0
    5.9709   -4.5208   24.7957 C   0  0  0  0  0  0  0  0  0  0  0  0
    6.1890   -3.6045   23.7734 C   0  0  0  0  0  0  0  0  0  0  0  0
    7.4309   -2.9420   23.6566 C   0  0  0  0  0  0  0  0  0  0  0  0
    7.6607   -1.9620   22.5785 C   0  0  0  0  0  0  0  0  0  0  0  0
    6.7225   -1.5950   21.7194 N   0  0  0  0  0  0  0  0  0  0  0  0
    7.3493   -0.6697   20.9559 N   0  0  0  0  0  0  0  0  0  0  0  0
    6.6580   -0.0096   19.9024 C   0  0  0  0  0  0  0  0  0  0  0  0
    5.4397    0.6268   20.1582 C   0  0  0  0  0  0  0  0  0  0  0  0
    4.8163    1.3043   19.1073 C   0  0  0  0  0  0  0  0  0  0  0  0
    5.4139    1.2964   17.8416 C   0  0  0  0  0  0  0  0  0  0  0  0
    6.5658    0.6585   17.5800 N   0  0  0  0  0  0  0  0  0  0  0  0
    7.1681    0.0247   18.5927 C   0  0  0  0  0  0  0  0  0  0  0  0
    8.1021   -0.4854   18.3574 H   0  0  0  0  0  0  0  0  0  0  0  0
    4.9479    1.8110   17.0044 H   0  0  0  0  0  0  0  0  0  0  0  0
    3.8842    1.8370   19.2605 H   0  0  0  0  0  0  0  0  0  0  0  0
    5.0082    0.5783   21.1592 H   0  0  0  0  0  0  0  0  0  0  0  0
    8.6228   -0.5000   21.4138 C   0  0  0  0  0  0  0  0  0  0  0  0
    9.5012    0.6170   20.9412 C   0  0  0  0  0  0  0  0  0  0  0  0
    9.0070    2.0232   21.3885 C   0  0  0  0  0  0  0  0  0  0  0  0
    8.9064    2.0733   22.9000 C   0  0  0  0  0  0  0  0  0  0  0  0
    7.6811    1.9220   23.5656 C   0  0  0  0  0  0  0  0  0  0  0  0
    7.6636    1.8268   24.9543 C   0  0  0  0  0  0  0  0  0  0  0  0
    6.4812    1.7647   25.5838 F   0  0  0  0  0  0  0  0  0  0  0  0
    8.8287    1.7823   25.7130 C   0  0  0  0  0  0  0  0  0  0  0  0
   10.0252    1.8688   25.0168 C   0  0  0  0  0  0  0  0  0  0  0  0
   11.1742    1.7578   25.6835 F   0  0  0  0  0  0  0  0  0  0  0  0
   10.0909    2.0721   23.6472 C   0  0  0  0  0  0  0  0  0  0  0  0
   11.0536    2.2330   23.1739 H   0  0  0  0  0  0  0  0  0  0  0  0
    8.8175    1.6660   26.7884 H   0  0  0  0  0  0  0  0  0  0  0  0
    6.7440    1.8604   23.0224 H   0  0  0  0  0  0  0  0  0  0  0  0
    9.7315    2.7692   21.0472 H   0  0  0  0  0  0  0  0  0  0  0  0
    8.0478    2.2681   20.9137 H   0  0  0  0  0  0  0  0  0  0  0  0
    9.5884    0.5703   19.8532 H   0  0  0  0  0  0  0  0  0  0  0  0
   10.4950    0.4426   21.3670 H   0  0  0  0  0  0  0  0  0  0  0  0
    8.8552   -1.3256   22.4091 N   0  0  0  0  0  0  0  0  0  0  0  0
    8.4371   -3.2160   24.6064 C   0  0  0  0  0  0  0  0  0  0  0  0
    8.2159   -4.1300   25.6310 C   0  0  0  0  0  0  0  0  0  0  0  0
    8.9820   -4.3432   26.3693 H   0  0  0  0  0  0  0  0  0  0  0  0
    9.3938   -2.6979   24.5444 H   0  0  0  0  0  0  0  0  0  0  0  0
    5.3933   -3.3817   23.0639 H   0  0  0  0  0  0  0  0  0  0  0  0
    5.0208   -5.0348   24.8949 H   0  0  0  0  0  0  0  0  0  0  0  0
    7.5010   -5.9309   27.3677 H   0  0  0  0  0  0  0  0  0  0  0  0
    5.9012   -6.1934   26.7894 H   0  0  0  0  0  0  0  0  0  0  0  0
  1  2  1  0
  2  3  2  0
  3  4  1  0
  4  5  2  0
  5  6  1  0
  6  7  2  0
  7  8  1  0
  8  9  1  0
  9 10  2  0
 10 11  1  0
 11 12  2  0
 12 13  1  0
 13 14  2  0
 14 15  1  0
 12 16  1  0
 11 17  1  0
 10 18  1  0
  8 19  1  0
 19 20  1  0
 20 21  1  0
 21 22  1  0
 22 23  2  0
 23 24  1  0
 24 25  1  0
 24 26  2  0
 26 27  1  0
 27 28  1  0
 27 29  2  0
 29 30  1  0
 26 31  1  0
 23 32  1  0
 21 33  1  0
 21 34  1  0
 20 35  1  0
 20 36  1  0
 19 37  2  0
  5 38  1  0
 38 39  2  0
 39 40  1  0
 38 41  1  0
  4 42  1  0
  3 43  1  0
  1 44  1  0
  1 45  1  0
 39  2  1  0
 37  6  1  0
 14  9  1  0
 29 22  1  0
M  END
>  <cnnaffinity>  (1) 
-6.18099

>  <filename>  (1) 
Nc1ccc(-c2nc(CCc3cc(F)cc(F)c3)n(-c3cccnc3)n2)cc1

$$$$
