
     RDKit          3D

 32 34  0  0  0  0  0  0  0  0999 V2000
    5.3927   -2.5191   20.9041 H   0  0  0  0  0  0  0  0  0  0  0  0
    5.8775   -2.4424   21.8784 C   0  0  0  0  0  0  0  0  0  0  0  0
    6.9996   -1.7063   21.9971 C   0  0  0  0  0  0  0  0  0  0  0  0
    7.5163   -0.7332   20.9828 C   0  0  0  0  0  0  0  0  0  0  0  0
    6.6833   -0.0605   19.9544 C   0  0  0  0  0  0  0  0  0  0  0  0
    7.2294    0.0267   18.6659 C   0  0  0  0  0  0  0  0  0  0  0  0
    8.1900   -0.4352   18.4584 H   0  0  0  0  0  0  0  0  0  0  0  0
    6.6338    0.6320   17.6374 N   0  0  0  0  0  0  0  0  0  0  0  0
    5.4586    1.2339   17.8787 C   0  0  0  0  0  0  0  0  0  0  0  0
    5.0027    1.7470   17.0330 H   0  0  0  0  0  0  0  0  0  0  0  0
    4.8367    1.2389   19.1324 C   0  0  0  0  0  0  0  0  0  0  0  0
    3.9037    1.7813   19.2583 H   0  0  0  0  0  0  0  0  0  0  0  0
    5.4511    0.5728   20.1974 C   0  0  0  0  0  0  0  0  0  0  0  0
    4.9934    0.5640   21.1890 H   0  0  0  0  0  0  0  0  0  0  0  0
    8.7736   -0.5075   21.0705 N   0  0  0  0  0  0  0  0  0  0  0  0
    9.3230   -1.2666   22.1959 C   0  0  0  0  0  0  0  0  0  0  0  0
    9.9497   -0.6126   22.8059 H   0  0  0  0  0  0  0  0  0  0  0  0
    9.9552   -2.0631   21.7867 H   0  0  0  0  0  0  0  0  0  0  0  0
    8.1362   -1.8526   22.9974 C   0  0  0  0  0  0  0  0  0  0  0  0
    8.3176   -2.8823   23.3194 H   0  0  0  0  0  0  0  0  0  0  0  0
    7.9557   -1.2382   23.8849 H   0  0  0  0  0  0  0  0  0  0  0  0
    5.2215   -3.2433   22.9292 C   0  0  0  0  0  0  0  0  0  0  0  0
    4.3902   -4.2318   22.4676 N   0  0  0  0  0  0  0  0  0  0  0  0
    3.7722   -4.9801   23.3867 C   0  0  0  0  0  0  0  0  0  0  0  0
    3.1426   -5.7852   23.0099 H   0  0  0  0  0  0  0  0  0  0  0  0
    3.9250   -4.7441   24.8053 C   0  0  0  0  0  0  0  0  0  0  0  0
    3.2707   -5.3344   25.8688 N   0  0  0  0  0  0  0  0  0  0  0  0
    3.1184   -6.3294   25.8573 H   0  0  0  0  0  0  0  0  0  0  0  0
    3.7987   -5.0194   26.6773 H   0  0  0  0  0  0  0  0  0  0  0  0
    4.7459   -3.7830   25.2566 N   0  0  0  0  0  0  0  0  0  0  0  0
    5.3651   -3.0298   24.3219 C   0  0  0  0  0  0  0  0  0  0  0  0
    5.9519   -2.1892   24.6918 H   0  0  0  0  0  0  0  0  0  0  0  0
  1  2  1  0
  2  3  2  3
  3  4  1  0
  4  5  1  0
  5  6  2  0
  6  7  1  0
  6  8  1  0
  8  9  2  0
  9 10  1  0
  9 11  1  0
 11 12  1  0
 11 13  2  0
 13 14  1  0
  4 15  2  0
 15 16  1  0
 16 17  1  0
 16 18  1  0
 16 19  1  0
 19 20  1  0
 19 21  1  0
  2 22  1  0
 22 23  2  0
 23 24  1  0
 24 25  1  0
 24 26  2  0
 26 27  1  0
 27 28  1  0
 27 29  1  0
 26 30  1  0
 30 31  2  0
 31 32  1  0
 19  3  1  0
 31 22  1  0
 13  5  1  0
M  END
>  <cnnaffinity>  (1) 
-5.2227

>  <filename>  (1) 
Nc1cnc(C=C2CCN=C2c2cccnc2)cn1

$$$$
