
     RDKit          3D

 42 45  0  0  0  0  0  0  0  0999 V2000
   15.1278   -1.3660   19.9558 N   0  0  0  0  0  0  0  0  0  0  0  0
   14.0804   -1.2343   20.8494 C   0  0  0  0  0  0  0  0  0  0  0  0
   12.9531   -1.9969   20.5526 C   0  0  0  0  0  0  0  0  0  0  0  0
   11.7337   -1.6758   21.1093 C   0  0  0  0  0  0  0  0  0  0  0  0
   11.5846   -0.5090   21.8836 C   0  0  0  0  0  0  0  0  0  0  0  0
   10.1998   -0.0438   22.0655 C   0  0  0  0  0  0  0  0  0  0  0  0
    9.2035   -0.7891   21.5977 N   0  0  0  0  0  0  0  0  0  0  0  0
    8.1011   -0.0853   21.8827 N   0  0  0  0  0  0  0  0  0  0  0  0
    6.8116   -0.5661   21.3923 C   0  0  0  0  0  0  0  0  0  0  0  0
    6.3502    0.1452   20.1412 C   0  0  0  0  0  0  0  0  0  0  0  0
    5.1514    0.8583   20.0687 C   0  0  0  0  0  0  0  0  0  0  0  0
    4.8339    1.5165   18.8776 C   0  0  0  0  0  0  0  0  0  0  0  0
    5.7232    1.4273   17.8054 C   0  0  0  0  0  0  0  0  0  0  0  0
    6.8630    0.7220   17.8443 N   0  0  0  0  0  0  0  0  0  0  0  0
    7.1613    0.1076   18.9932 C   0  0  0  0  0  0  0  0  0  0  0  0
    8.0928   -0.4577   19.0149 H   0  0  0  0  0  0  0  0  0  0  0  0
    5.5177    1.9435   16.8709 H   0  0  0  0  0  0  0  0  0  0  0  0
    3.9290    2.1027   18.7744 H   0  0  0  0  0  0  0  0  0  0  0  0
    4.4814    0.9087   20.9294 H   0  0  0  0  0  0  0  0  0  0  0  0
    6.9606   -1.6353   21.2066 H   0  0  0  0  0  0  0  0  0  0  0  0
    6.0858   -0.4780   22.2010 H   0  0  0  0  0  0  0  0  0  0  0  0
    8.4684    1.0789   22.4586 C   0  0  0  0  0  0  0  0  0  0  0  0
    7.4531    2.0163   23.0336 C   0  0  0  0  0  0  0  0  0  0  0  0
    6.9838    1.4844   24.3726 C   0  0  0  0  0  0  0  0  0  0  0  0
    7.7991    1.2171   25.4320 C   0  0  0  0  0  0  0  0  0  0  0  0
    7.1446    0.5253   26.4928 C   0  0  0  0  0  0  0  0  0  0  0  0
    5.8298    0.2975   26.2202 C   0  0  0  0  0  0  0  0  0  0  0  0
    5.3806    0.9363   24.6825 S   0  0  0  0  0  0  0  0  0  0  0  0
    5.0921   -0.1973   26.8377 H   0  0  0  0  0  0  0  0  0  0  0  0
    7.6521    0.1830   27.3890 H   0  0  0  0  0  0  0  0  0  0  0  0
    8.8538    1.4730   25.4045 H   0  0  0  0  0  0  0  0  0  0  0  0
    6.6224    2.1340   22.3293 H   0  0  0  0  0  0  0  0  0  0  0  0
    7.9354    2.9902   23.1537 H   0  0  0  0  0  0  0  0  0  0  0  0
    9.7812    1.1271   22.6119 N   0  0  0  0  0  0  0  0  0  0  0  0
   12.7439    0.1719   22.3100 C   0  0  0  0  0  0  0  0  0  0  0  0
   14.0007   -0.2345   21.8402 C   0  0  0  0  0  0  0  0  0  0  0  0
   14.8965    0.3033   22.1274 H   0  0  0  0  0  0  0  0  0  0  0  0
   12.6537    1.0515   22.9496 H   0  0  0  0  0  0  0  0  0  0  0  0
   10.8416   -2.2550   20.8778 H   0  0  0  0  0  0  0  0  0  0  0  0
   13.0332   -2.7647   19.7873 H   0  0  0  0  0  0  0  0  0  0  0  0
   15.1239   -2.2786   19.5332 H   0  0  0  0  0  0  0  0  0  0  0  0
   16.0514   -1.1837   20.3204 H   0  0  0  0  0  0  0  0  0  0  0  0
  1  2  1  0
  2  3  2  0
  3  4  1  0
  4  5  2  0
  5  6  1  0
  6  7  2  0
  7  8  1  0
  8  9  1  0
  9 10  1  0
 10 11  2  0
 11 12  1  0
 12 13  2  0
 13 14  1  0
 14 15  2  0
 15 16  1  0
 13 17  1  0
 12 18  1  0
 11 19  1  0
  9 20  1  0
  9 21  1  0
  8 22  1  0
 22 23  1  0
 23 24  1  0
 24 25  2  0
 25 26  1  0
 26 27  2  0
 27 28  1  0
 27 29  1  0
 26 30  1  0
 25 31  1  0
 23 32  1  0
 23 33  1  0
 22 34  2  0
  5 35  1  0
 35 36  2  0
 36 37  1  0
 35 38  1  0
  4 39  1  0
  3 40  1  0
  1 41  1  0
  1 42  1  0
 36  2  1  0
 34  6  1  0
 15 10  1  0
 28 24  1  0
M  END
>  <cnnaffinity>  (1) 
-6.54342

>  <filename>  (1) 
Nc1ccc(-c2nc(Cc3cccs3)n(Cc3cccnc3)n2)cc1

$$$$
