
     RDKit          3D

 44 47  0  0  0  0  0  0  0  0999 V2000
    5.7274    3.2750   28.9540 N   0  0  0  0  0  0  0  0  0  0  0  0
    6.2227    2.7115   27.7896 C   0  0  0  0  0  0  0  0  0  0  0  0
    7.3836    3.2226   27.1881 C   0  0  0  0  0  0  0  0  0  0  0  0
    7.7967    2.7519   25.9467 C   0  0  0  0  0  0  0  0  0  0  0  0
    7.0639    1.7541   25.2742 C   0  0  0  0  0  0  0  0  0  0  0  0
    7.5124    1.3237   23.9413 C   0  0  0  0  0  0  0  0  0  0  0  0
    6.9774    0.3357   23.2459 N   0  0  0  0  0  0  0  0  0  0  0  0
    7.7534    0.2713   22.1394 N   0  0  0  0  0  0  0  0  0  0  0  0
    7.3663   -0.6374   21.0628 C   0  0  0  0  0  0  0  0  0  0  0  0
    6.6648    0.0456   19.9100 C   0  0  0  0  0  0  0  0  0  0  0  0
    5.4478    0.7004   20.1298 C   0  0  0  0  0  0  0  0  0  0  0  0
    4.8259    1.3340   19.0518 C   0  0  0  0  0  0  0  0  0  0  0  0
    5.4472    1.2922   17.7984 C   0  0  0  0  0  0  0  0  0  0  0  0
    6.6001    0.6496   17.5650 N   0  0  0  0  0  0  0  0  0  0  0  0
    7.1797    0.0398   18.6084 C   0  0  0  0  0  0  0  0  0  0  0  0
    8.0976   -0.5063   18.3914 H   0  0  0  0  0  0  0  0  0  0  0  0
    4.9928    1.7854   16.9396 H   0  0  0  0  0  0  0  0  0  0  0  0
    3.8820    1.8533   19.1699 H   0  0  0  0  0  0  0  0  0  0  0  0
    5.0019    0.7037   21.1278 H   0  0  0  0  0  0  0  0  0  0  0  0
    8.2443   -1.1954   20.7209 H   0  0  0  0  0  0  0  0  0  0  0  0
    6.6788   -1.3512   21.5255 H   0  0  0  0  0  0  0  0  0  0  0  0
    8.7149    1.2225   22.2181 C   0  0  0  0  0  0  0  0  0  0  0  0
    9.9022    1.3716   21.3139 C   0  0  0  0  0  0  0  0  0  0  0  0
   11.0818    0.4835   21.7014 C   0  0  0  0  0  0  0  0  0  0  0  0
   11.2033   -0.7775   21.1180 C   0  0  0  0  0  0  0  0  0  0  0  0
   12.3649   -1.5272   21.3011 C   0  0  0  0  0  0  0  0  0  0  0  0
   13.3376   -1.0418   22.1726 C   0  0  0  0  0  0  0  0  0  0  0  0
   13.1965    0.1096   22.8407 N   0  0  0  0  0  0  0  0  0  0  0  0
   12.1087    0.8297   22.6179 C   0  0  0  0  0  0  0  0  0  0  0  0
   11.9659    2.2927   23.5574 Cl  0  0  0  0  0  0  0  0  0  0  0  0
   14.2645   -1.5886   22.3485 H   0  0  0  0  0  0  0  0  0  0  0  0
   12.5553   -2.4082   20.7151 H   0  0  0  0  0  0  0  0  0  0  0  0
   10.3950   -1.1756   20.5038 H   0  0  0  0  0  0  0  0  0  0  0  0
    9.5997    1.1368   20.2896 H   0  0  0  0  0  0  0  0  0  0  0  0
   10.2021    2.4248   21.3337 H   0  0  0  0  0  0  0  0  0  0  0  0
    8.5733    1.9112   23.3257 N   0  0  0  0  0  0  0  0  0  0  0  0
    5.9311    1.2005   25.9042 C   0  0  0  0  0  0  0  0  0  0  0  0
    5.5231    1.6746   27.1495 C   0  0  0  0  0  0  0  0  0  0  0  0
    4.6420    1.2635   27.6297 H   0  0  0  0  0  0  0  0  0  0  0  0
    5.3695    0.4064   25.4121 H   0  0  0  0  0  0  0  0  0  0  0  0
    8.6868    3.1595   25.4682 H   0  0  0  0  0  0  0  0  0  0  0  0
    7.9405    4.0087   27.6839 H   0  0  0  0  0  0  0  0  0  0  0  0
    6.4094    3.7554   29.5158 H   0  0  0  0  0  0  0  0  0  0  0  0
    5.1347    2.6678   29.4959 H   0  0  0  0  0  0  0  0  0  0  0  0
  1  2  1  0
  2  3  2  0
  3  4  1  0
  4  5  2  0
  5  6  1  0
  6  7  2  0
  7  8  1  0
  8  9  1  0
  9 10  1  0
 10 11  2  0
 11 12  1  0
 12 13  2  0
 13 14  1  0
 14 15  2  0
 15 16  1  0
 13 17  1  0
 12 18  1  0
 11 19  1  0
  9 20  1  0
  9 21  1  0
  8 22  1  0
 22 23  1  0
 23 24  1  0
 24 25  2  0
 25 26  1  0
 26 27  2  0
 27 28  1  0
 28 29  2  0
 29 30  1  0
 27 31  1  0
 26 32  1  0
 25 33  1  0
 23 34  1  0
 23 35  1  0
 22 36  2  0
  5 37  1  0
 37 38  2  0
 38 39  1  0
 37 40  1  0
  4 41  1  0
  3 42  1  0
  1 43  1  0
  1 44  1  0
 38  2  1  0
 36  6  1  0
 15 10  1  0
 29 24  1  0
M  END
>  <cnnaffinity>  (1) 
-6.23334

>  <filename>  (1) 
Nc1ccc(-c2nc(Cc3cccnc3Cl)n(Cc3cccnc3)n2)cc1

$$$$
