
     RDKit          3D

 47 50  0  0  0  0  0  0  0  0999 V2000
    6.3796    3.9883   28.5650 N   0  0  0  0  0  0  0  0  0  0  0  0
    6.7424    3.3988   27.3912 C   0  0  0  0  0  0  0  0  0  0  0  0
    5.8758    2.4868   26.7659 C   0  0  0  0  0  0  0  0  0  0  0  0
    6.2400    1.8818   25.5687 C   0  0  0  0  0  0  0  0  0  0  0  0
    7.4806    2.1775   24.9636 C   0  0  0  0  0  0  0  0  0  0  0  0
    7.8552    1.5403   23.6882 C   0  0  0  0  0  0  0  0  0  0  0  0
    7.1595    0.5648   23.1206 N   0  0  0  0  0  0  0  0  0  0  0  0
    7.8963    0.2501   22.0336 N   0  0  0  0  0  0  0  0  0  0  0  0
    7.3913   -0.6802   21.0286 C   0  0  0  0  0  0  0  0  0  0  0  0
    6.6554    0.0006   19.8874 C   0  0  0  0  0  0  0  0  0  0  0  0
    5.4405    0.6496   20.1398 C   0  0  0  0  0  0  0  0  0  0  0  0
    4.7992    1.3082   19.0879 C   0  0  0  0  0  0  0  0  0  0  0  0
    5.3945    1.2974   17.8225 C   0  0  0  0  0  0  0  0  0  0  0  0
    6.5544    0.6763   17.5608 N   0  0  0  0  0  0  0  0  0  0  0  0
    7.1612    0.0549   18.5791 C   0  0  0  0  0  0  0  0  0  0  0  0
    8.1075   -0.4300   18.3325 H   0  0  0  0  0  0  0  0  0  0  0  0
    4.9235    1.8040   16.9809 H   0  0  0  0  0  0  0  0  0  0  0  0
    3.8693    1.8462   19.2367 H   0  0  0  0  0  0  0  0  0  0  0  0
    5.0299    0.6440   21.1524 H   0  0  0  0  0  0  0  0  0  0  0  0
    6.7276   -1.3588   21.5723 H   0  0  0  0  0  0  0  0  0  0  0  0
    8.2311   -1.2715   20.6459 H   0  0  0  0  0  0  0  0  0  0  0  0
    8.9888    1.0447   21.9865 C   0  0  0  0  0  0  0  0  0  0  0  0
   10.0885    0.8526   20.9915 C   0  0  0  0  0  0  0  0  0  0  0  0
   11.0723   -0.3004   21.3402 C   0  0  0  0  0  0  0  0  0  0  0  0
   11.7823   -0.0234   22.6409 C   0  0  0  0  0  0  0  0  0  0  0  0
   11.2092   -0.4725   23.8426 C   0  0  0  0  0  0  0  0  0  0  0  0
   11.7658   -0.0410   25.0339 C   0  0  0  0  0  0  0  0  0  0  0  0
   11.1277   -0.2720   26.1932 F   0  0  0  0  0  0  0  0  0  0  0  0
   12.9685    0.6595   25.0142 C   0  0  0  0  0  0  0  0  0  0  0  0
   13.5176    1.1136   23.8834 N   0  0  0  0  0  0  0  0  0  0  0  0
   12.9054    0.8264   22.7240 C   0  0  0  0  0  0  0  0  0  0  0  0
   13.3243    1.3023   21.8332 H   0  0  0  0  0  0  0  0  0  0  0  0
   13.4978    0.7972   25.9484 H   0  0  0  0  0  0  0  0  0  0  0  0
   10.3406   -1.1282   23.8784 H   0  0  0  0  0  0  0  0  0  0  0  0
   10.5216   -1.2471   21.4248 H   0  0  0  0  0  0  0  0  0  0  0  0
   11.7937   -0.4612   20.5345 H   0  0  0  0  0  0  0  0  0  0  0  0
    9.6308    0.6800   20.0128 H   0  0  0  0  0  0  0  0  0  0  0  0
   10.6326    1.8003   20.9309 H   0  0  0  0  0  0  0  0  0  0  0  0
    8.9750    1.8895   22.9973 N   0  0  0  0  0  0  0  0  0  0  0  0
    8.3498    3.0897   25.6019 C   0  0  0  0  0  0  0  0  0  0  0  0
    7.9797    3.6973   26.7974 C   0  0  0  0  0  0  0  0  0  0  0  0
    8.6258    4.4166   27.2873 H   0  0  0  0  0  0  0  0  0  0  0  0
    9.3158    3.3278   25.1542 H   0  0  0  0  0  0  0  0  0  0  0  0
    5.5667    1.1716   25.0882 H   0  0  0  0  0  0  0  0  0  0  0  0
    4.9239    2.2694   27.2382 H   0  0  0  0  0  0  0  0  0  0  0  0
    5.4943    3.7648   28.9762 H   0  0  0  0  0  0  0  0  0  0  0  0
    6.9929    4.6420   29.0102 H   0  0  0  0  0  0  0  0  0  0  0  0
  1  2  1  0
  2  3  2  0
  3  4  1  0
  4  5  2  0
  5  6  1  0
  6  7  2  0
  7  8  1  0
  8  9  1  0
  9 10  1  0
 10 11  2  0
 11 12  1  0
 12 13  2  0
 13 14  1  0
 14 15  2  0
 15 16  1  0
 13 17  1  0
 12 18  1  0
 11 19  1  0
  9 20  1  0
  9 21  1  0
  8 22  1  0
 22 23  1  0
 23 24  1  0
 24 25  1  0
 25 26  2  0
 26 27  1  0
 27 28  1  0
 27 29  2  0
 29 30  1  0
 30 31  2  0
 31 32  1  0
 29 33  1  0
 26 34  1  0
 24 35  1  0
 24 36  1  0
 23 37  1  0
 23 38  1  0
 22 39  2  0
  5 40  1  0
 40 41  2  0
 41 42  1  0
 40 43  1  0
  4 44  1  0
  3 45  1  0
  1 46  1  0
  1 47  1  0
 41  2  1  0
 39  6  1  0
 15 10  1  0
 31 25  1  0
M  END
>  <cnnaffinity>  (1) 
-5.97353

>  <filename>  (1) 
Nc1ccc(-c2nc(CCc3cncc(F)c3)n(Cc3cccnc3)n2)cc1

$$$$
