
     RDKit          3D

 44 47  0  0  0  0  0  0  0  0999 V2000
   15.4037   -1.0992   19.8664 N   0  0  0  0  0  0  0  0  0  0  0  0
   14.3718   -1.0719   20.8414 C   0  0  0  0  0  0  0  0  0  0  0  0
   14.2223   -0.0640   21.8183 C   0  0  0  0  0  0  0  0  0  0  0  0
   12.9542    0.1937   22.3356 C   0  0  0  0  0  0  0  0  0  0  0  0
   11.8773   -0.6107   21.9302 C   0  0  0  0  0  0  0  0  0  0  0  0
   10.4803   -0.2013   22.0349 C   0  0  0  0  0  0  0  0  0  0  0  0
    9.5099   -0.9437   21.5199 N   0  0  0  0  0  0  0  0  0  0  0  0
    8.4096   -0.1957   21.7027 N   0  0  0  0  0  0  0  0  0  0  0  0
    7.1372   -0.7034   21.1974 C   0  0  0  0  0  0  0  0  0  0  0  0
    6.5907    0.0649   20.0177 C   0  0  0  0  0  0  0  0  0  0  0  0
    5.3737    0.7461   20.1003 C   0  0  0  0  0  0  0  0  0  0  0  0
    4.8838    1.3968   18.9683 C   0  0  0  0  0  0  0  0  0  0  0  0
    5.6363    1.3461   17.7922 C   0  0  0  0  0  0  0  0  0  0  0  0
    6.8212    0.7220   17.6972 N   0  0  0  0  0  0  0  0  0  0  0  0
    7.2866    0.1154   18.7966 C   0  0  0  0  0  0  0  0  0  0  0  0
    8.2615   -0.3630   18.6982 H   0  0  0  0  0  0  0  0  0  0  0  0
    5.2755    1.8339   16.8890 H   0  0  0  0  0  0  0  0  0  0  0  0
    3.9446    1.9381   18.9891 H   0  0  0  0  0  0  0  0  0  0  0  0
    4.8304    0.7729   21.0486 H   0  0  0  0  0  0  0  0  0  0  0  0
    6.4264   -0.7001   22.0286 H   0  0  0  0  0  0  0  0  0  0  0  0
    7.3435   -1.7443   20.9281 H   0  0  0  0  0  0  0  0  0  0  0  0
    8.7643    0.9627   22.3000 C   0  0  0  0  0  0  0  0  0  0  0  0
    7.8533    1.9345   22.9537 C   0  0  0  0  0  0  0  0  0  0  0  0
    7.4785    1.2821   24.2514 C   0  0  0  0  0  0  0  0  0  0  0  0
    8.3126    1.3256   25.3766 C   0  0  0  0  0  0  0  0  0  0  0  0
    7.9836    0.5688   26.5024 C   0  0  0  0  0  0  0  0  0  0  0  0
    6.8310   -0.2196   26.4342 C   0  0  0  0  0  0  0  0  0  0  0  0
    6.3422   -1.1952   27.7807 Cl  0  0  0  0  0  0  0  0  0  0  0  0
    6.0719   -0.2253   25.2607 C   0  0  0  0  0  0  0  0  0  0  0  0
    6.3866    0.5141   24.1893 N   0  0  0  0  0  0  0  0  0  0  0  0
    5.1822   -0.8451   25.1893 H   0  0  0  0  0  0  0  0  0  0  0  0
    8.6031    0.5653   27.3965 H   0  0  0  0  0  0  0  0  0  0  0  0
    9.2311    1.8998   25.3213 H   0  0  0  0  0  0  0  0  0  0  0  0
    6.9645    2.1243   22.3539 H   0  0  0  0  0  0  0  0  0  0  0  0
    8.4058    2.8621   23.1055 H   0  0  0  0  0  0  0  0  0  0  0  0
   10.0602    0.9847   22.5277 N   0  0  0  0  0  0  0  0  0  0  0  0
   12.1339   -1.7959   21.2264 C   0  0  0  0  0  0  0  0  0  0  0  0
   13.3762   -2.0153   20.6680 C   0  0  0  0  0  0  0  0  0  0  0  0
   13.6085   -2.8253   19.9825 H   0  0  0  0  0  0  0  0  0  0  0  0
   11.2892   -2.4502   21.0668 H   0  0  0  0  0  0  0  0  0  0  0  0
   12.7789    1.0569   22.9754 H   0  0  0  0  0  0  0  0  0  0  0  0
   15.0515    0.5874   22.0704 H   0  0  0  0  0  0  0  0  0  0  0  0
   16.2816   -1.3104   20.3229 H   0  0  0  0  0  0  0  0  0  0  0  0
   15.5527   -0.1623   19.4911 H   0  0  0  0  0  0  0  0  0  0  0  0
  1  2  1  0
  2  3  2  0
  3  4  1  0
  4  5  2  0
  5  6  1  0
  6  7  2  0
  7  8  1  0
  8  9  1  0
  9 10  1  0
 10 11  2  0
 11 12  1  0
 12 13  2  0
 13 14  1  0
 14 15  2  0
 15 16  1  0
 13 17  1  0
 12 18  1  0
 11 19  1  0
  9 20  1  0
  9 21  1  0
  8 22  1  0
 22 23  1  0
 23 24  1  0
 24 25  2  0
 25 26  1  0
 26 27  2  0
 27 28  1  0
 27 29  1  0
 29 30  2  0
 29 31  1  0
 26 32  1  0
 25 33  1  0
 23 34  1  0
 23 35  1  0
 22 36  2  0
  5 37  1  0
 37 38  2  0
 38 39  1  0
 37 40  1  0
  4 41  1  0
  3 42  1  0
  1 43  1  0
  1 44  1  0
 38  2  1  0
 36  6  1  0
 15 10  1  0
 30 24  1  0
M  END
>  <cnnaffinity>  (1) 
-6.95933

>  <filename>  (1) 
Nc1ccc(-c2nc(Cc3ccc(Cl)cn3)n(Cc3cccnc3)n2)cc1

$$$$
