
     RDKit          3D

 41 44  0  0  0  0  0  0  0  0999 V2000
    6.7388   -5.9269   26.5394 N   0  0  0  0  0  0  0  0  0  0  0  0
    6.9630   -4.9908   25.5739 C   0  0  0  0  0  0  0  0  0  0  0  0
    8.2405   -4.4244   25.4182 C   0  0  0  0  0  0  0  0  0  0  0  0
    8.4650   -3.4687   24.4326 C   0  0  0  0  0  0  0  0  0  0  0  0
    7.4137   -3.0630   23.5791 C   0  0  0  0  0  0  0  0  0  0  0  0
    7.6282   -2.0528   22.5321 C   0  0  0  0  0  0  0  0  0  0  0  0
    6.6730   -1.6235   21.7174 N   0  0  0  0  0  0  0  0  0  0  0  0
    7.3099   -0.7094   20.9475 N   0  0  0  0  0  0  0  0  0  0  0  0
    6.6364   -0.0179   19.9010 C   0  0  0  0  0  0  0  0  0  0  0  0
    5.4295    0.6345   20.1609 C   0  0  0  0  0  0  0  0  0  0  0  0
    4.8083    1.3122   19.1077 C   0  0  0  0  0  0  0  0  0  0  0  0
    5.3957    1.2948   17.8369 C   0  0  0  0  0  0  0  0  0  0  0  0
    6.5482    0.6601   17.5771 N   0  0  0  0  0  0  0  0  0  0  0  0
    7.1533    0.0318   18.5911 C   0  0  0  0  0  0  0  0  0  0  0  0
    8.1036   -0.4424   18.3537 H   0  0  0  0  0  0  0  0  0  0  0  0
    4.9303    1.7995   16.9930 H   0  0  0  0  0  0  0  0  0  0  0  0
    3.8786    1.8459   19.2556 H   0  0  0  0  0  0  0  0  0  0  0  0
    5.0122    0.5979   21.1683 H   0  0  0  0  0  0  0  0  0  0  0  0
    8.5960   -0.5965   21.3780 C   0  0  0  0  0  0  0  0  0  0  0  0
    9.6275    0.3089   20.8015 C   0  0  0  0  0  0  0  0  0  0  0  0
   10.3474    1.1266   21.8534 C   0  0  0  0  0  0  0  0  0  0  0  0
   11.6089    0.7535   22.3399 C   0  0  0  0  0  0  0  0  0  0  0  0
   12.2388    1.3507   23.3545 N   0  0  0  0  0  0  0  0  0  0  0  0
   11.6225    2.3747   23.9485 C   0  0  0  0  0  0  0  0  0  0  0  0
   10.3670    2.8482   23.5675 C   0  0  0  0  0  0  0  0  0  0  0  0
    9.7329    2.2044   22.5055 C   0  0  0  0  0  0  0  0  0  0  0  0
    8.1368    2.7204   22.0450 Cl  0  0  0  0  0  0  0  0  0  0  0  0
    9.8989    3.6745   24.0840 H   0  0  0  0  0  0  0  0  0  0  0  0
   12.1584    2.8421   24.7705 H   0  0  0  0  0  0  0  0  0  0  0  0
   12.1221   -0.0993   21.8899 H   0  0  0  0  0  0  0  0  0  0  0  0
    9.1660    0.9832   20.0787 H   0  0  0  0  0  0  0  0  0  0  0  0
   10.3196   -0.3606   20.2839 H   0  0  0  0  0  0  0  0  0  0  0  0
    8.8348   -1.4612   22.3376 N   0  0  0  0  0  0  0  0  0  0  0  0
    6.1342   -3.6314   23.7504 C   0  0  0  0  0  0  0  0  0  0  0  0
    5.9126   -4.5862   24.7328 C   0  0  0  0  0  0  0  0  0  0  0  0
    4.9349   -5.0339   24.8760 H   0  0  0  0  0  0  0  0  0  0  0  0
    5.3187   -3.3069   23.1050 H   0  0  0  0  0  0  0  0  0  0  0  0
    9.4574   -3.0301   24.3229 H   0  0  0  0  0  0  0  0  0  0  0  0
    9.0309   -4.7550   26.0861 H   0  0  0  0  0  0  0  0  0  0  0  0
    7.4898   -6.2271   27.1316 H   0  0  0  0  0  0  0  0  0  0  0  0
    5.8266   -6.3269   26.6438 H   0  0  0  0  0  0  0  0  0  0  0  0
  1  2  1  0
  2  3  2  0
  3  4  1  0
  4  5  2  0
  5  6  1  0
  6  7  2  0
  7  8  1  0
  8  9  1  0
  9 10  2  0
 10 11  1  0
 11 12  2  0
 12 13  1  0
 13 14  2  0
 14 15  1  0
 12 16  1  0
 11 17  1  0
 10 18  1  0
  8 19  1  0
 19 20  1  0
 20 21  1  0
 21 22  2  0
 22 23  1  0
 23 24  2  0
 24 25  1  0
 25 26  2  0
 26 27  1  0
 25 28  1  0
 24 29  1  0
 22 30  1  0
 20 31  1  0
 20 32  1  0
 19 33  2  0
  5 34  1  0
 34 35  2  0
 35 36  1  0
 34 37  1  0
  4 38  1  0
  3 39  1  0
  1 40  1  0
  1 41  1  0
 35  2  1  0
 33  6  1  0
 14  9  1  0
 26 21  1  0
M  END
>  <cnnaffinity>  (1) 
-6.16666

>  <filename>  (1) 
Nc1ccc(-c2nc(Cc3cnccc3Cl)n(-c3cccnc3)n2)cc1

$$$$
