
     RDKit          3D

 42 45  0  0  0  0  0  0  0  0999 V2000
    5.9821    3.7324   28.8837 N   0  0  0  0  0  0  0  0  0  0  0  0
    6.3919    3.0979   27.7216 C   0  0  0  0  0  0  0  0  0  0  0  0
    5.6317    2.0647   27.1536 C   0  0  0  0  0  0  0  0  0  0  0  0
    5.9932    1.5145   25.9251 C   0  0  0  0  0  0  0  0  0  0  0  0
    7.1400    1.9780   25.2453 C   0  0  0  0  0  0  0  0  0  0  0  0
    7.5653    1.4596   23.9288 C   0  0  0  0  0  0  0  0  0  0  0  0
    6.9630    0.4937   23.2520 N   0  0  0  0  0  0  0  0  0  0  0  0
    7.7424    0.3444   22.1535 N   0  0  0  0  0  0  0  0  0  0  0  0
    7.3781   -0.6045   21.1032 C   0  0  0  0  0  0  0  0  0  0  0  0
    6.6779    0.0410   19.9213 C   0  0  0  0  0  0  0  0  0  0  0  0
    5.4685    0.7189   20.1177 C   0  0  0  0  0  0  0  0  0  0  0  0
    4.8664    1.3338   19.0198 C   0  0  0  0  0  0  0  0  0  0  0  0
    5.4918    1.2563   17.7728 C   0  0  0  0  0  0  0  0  0  0  0  0
    6.6456    0.6069   17.5605 N   0  0  0  0  0  0  0  0  0  0  0  0
    7.2116    0.0208   18.6239 C   0  0  0  0  0  0  0  0  0  0  0  0
    8.1467   -0.5045   18.4264 H   0  0  0  0  0  0  0  0  0  0  0  0
    5.0505    1.7458   16.9083 H   0  0  0  0  0  0  0  0  0  0  0  0
    3.9387    1.8840   19.1205 H   0  0  0  0  0  0  0  0  0  0  0  0
    5.0216    0.7673   21.1135 H   0  0  0  0  0  0  0  0  0  0  0  0
    8.2828   -1.1312   20.7773 H   0  0  0  0  0  0  0  0  0  0  0  0
    6.7293   -1.3374   21.5933 H   0  0  0  0  0  0  0  0  0  0  0  0
    8.7667    1.2198   22.2172 C   0  0  0  0  0  0  0  0  0  0  0  0
    9.9315    1.2665   21.2728 C   0  0  0  0  0  0  0  0  0  0  0  0
   11.0809    0.3540   21.6329 C   0  0  0  0  0  0  0  0  0  0  0  0
   12.0264    0.3953   22.6308 C   0  0  0  0  0  0  0  0  0  0  0  0
   12.8544   -0.6998   22.5682 N   0  0  0  0  0  0  0  0  0  0  0  0
   12.4239   -1.3959   21.5514 C   0  0  0  0  0  0  0  0  0  0  0  0
   11.3398   -0.8194   20.9689 N   0  0  0  0  0  0  0  0  0  0  0  0
   10.9010   -1.1492   20.1221 H   0  0  0  0  0  0  0  0  0  0  0  0
   12.8523   -2.3145   21.1802 H   0  0  0  0  0  0  0  0  0  0  0  0
   12.1697    1.1567   23.3873 H   0  0  0  0  0  0  0  0  0  0  0  0
   10.2828    2.2995   21.2923 H   0  0  0  0  0  0  0  0  0  0  0  0
    9.5718    1.0669   20.2606 H   0  0  0  0  0  0  0  0  0  0  0  0
    8.6808    1.9408   23.3083 N   0  0  0  0  0  0  0  0  0  0  0  0
    7.9260    2.9758   25.8605 C   0  0  0  0  0  0  0  0  0  0  0  0
    7.5640    3.5221   27.0823 C   0  0  0  0  0  0  0  0  0  0  0  0
    8.1784    4.2761   27.5621 H   0  0  0  0  0  0  0  0  0  0  0  0
    8.8237    3.3228   25.3539 H   0  0  0  0  0  0  0  0  0  0  0  0
    5.3830    0.7270   25.4838 H   0  0  0  0  0  0  0  0  0  0  0  0
    4.7668    1.7014   27.7015 H   0  0  0  0  0  0  0  0  0  0  0  0
    6.7543    4.1413   29.3851 H   0  0  0  0  0  0  0  0  0  0  0  0
    5.4273    3.1390   29.4829 H   0  0  0  0  0  0  0  0  0  0  0  0
  1  2  1  0
  2  3  2  0
  3  4  1  0
  4  5  2  0
  5  6  1  0
  6  7  2  0
  7  8  1  0
  8  9  1  0
  9 10  1  0
 10 11  2  0
 11 12  1  0
 12 13  2  0
 13 14  1  0
 14 15  2  0
 15 16  1  0
 13 17  1  0
 12 18  1  0
 11 19  1  0
  9 20  1  0
  9 21  1  0
  8 22  1  0
 22 23  1  0
 23 24  1  0
 24 25  2  0
 25 26  1  0
 26 27  2  0
 27 28  1  0
 28 29  1  0
 27 30  1  0
 25 31  1  0
 23 32  1  0
 23 33  1  0
 22 34  2  0
  5 35  1  0
 35 36  2  0
 36 37  1  0
 35 38  1  0
  4 39  1  0
  3 40  1  0
  1 41  1  0
  1 42  1  0
 36  2  1  0
 34  6  1  0
 15 10  1  0
 28 24  1  0
M  END
>  <cnnaffinity>  (1) 
-5.84553

>  <filename>  (1) 
Nc1ccc(-c2nc(Cc3cnc[nH]3)n(Cc3cccnc3)n2)cc1

$$$$
