
     RDKit          3D

 38 40  0  0  0  0  0  0  0  0999 V2000
   10.8911   -4.7322   26.0016 H   0  0  0  0  0  0  0  0  0  0  0  0
    9.9243   -4.3674   25.6552 C   0  0  0  0  0  0  0  0  0  0  0  0
    9.8596   -3.9052   24.3991 N   0  0  0  0  0  0  0  0  0  0  0  0
    8.6506   -3.4499   23.9698 C   0  0  0  0  0  0  0  0  0  0  0  0
    8.6160   -2.9328   22.6808 N   0  0  0  0  0  0  0  0  0  0  0  0
    7.3722   -2.8879   21.8978 C   0  0  0  0  0  0  0  0  0  0  0  0
    6.6779   -3.6356   22.2930 H   0  0  0  0  0  0  0  0  0  0  0  0
    7.5752   -3.2010   20.8662 H   0  0  0  0  0  0  0  0  0  0  0  0
    6.6612   -1.5145   21.8486 C   0  0  0  0  0  0  0  0  0  0  0  0
    6.6177   -1.1283   22.8829 H   0  0  0  0  0  0  0  0  0  0  0  0
    5.6317   -1.6722   21.5081 H   0  0  0  0  0  0  0  0  0  0  0  0
    7.2868   -0.5510   20.9521 N   0  0  0  0  0  0  0  0  0  0  0  0
    6.5948    0.0492   19.8760 C   0  0  0  0  0  0  0  0  0  0  0  0
    7.1273    0.1042   18.5593 C   0  0  0  0  0  0  0  0  0  0  0  0
    8.0778   -0.3868   18.3531 H   0  0  0  0  0  0  0  0  0  0  0  0
    6.5339    0.7112   17.5201 N   0  0  0  0  0  0  0  0  0  0  0  0
    5.3642    1.3294   17.7533 C   0  0  0  0  0  0  0  0  0  0  0  0
    4.9138    1.8356   16.9029 H   0  0  0  0  0  0  0  0  0  0  0  0
    4.7368    1.3304   19.0049 C   0  0  0  0  0  0  0  0  0  0  0  0
    3.7942    1.8526   19.1333 H   0  0  0  0  0  0  0  0  0  0  0  0
    5.3490    0.6706   20.0744 C   0  0  0  0  0  0  0  0  0  0  0  0
    4.9116    0.6499   21.0719 H   0  0  0  0  0  0  0  0  0  0  0  0
    8.6647   -0.1855   21.2377 C   0  0  0  0  0  0  0  0  0  0  0  0
    8.7408    0.1601   22.2847 H   0  0  0  0  0  0  0  0  0  0  0  0
    8.9306    0.6752   20.6139 H   0  0  0  0  0  0  0  0  0  0  0  0
    9.6585   -1.3310   21.0116 C   0  0  0  0  0  0  0  0  0  0  0  0
    9.3382   -1.9279   20.1547 H   0  0  0  0  0  0  0  0  0  0  0  0
   10.6484   -0.9174   20.7702 H   0  0  0  0  0  0  0  0  0  0  0  0
    9.8269   -2.2311   22.2256 C   0  0  0  0  0  0  0  0  0  0  0  0
   10.2072   -1.6083   23.0499 H   0  0  0  0  0  0  0  0  0  0  0  0
   10.6210   -2.9641   22.0569 H   0  0  0  0  0  0  0  0  0  0  0  0
    7.5209   -3.4975   24.8474 C   0  0  0  0  0  0  0  0  0  0  0  0
    6.5662   -3.1172   24.4863 H   0  0  0  0  0  0  0  0  0  0  0  0
    7.5821   -3.9450   26.1180 N   0  0  0  0  0  0  0  0  0  0  0  0
    8.7949   -4.3514   26.5409 C   0  0  0  0  0  0  0  0  0  0  0  0
    8.7699   -4.6498   27.8812 N   0  0  0  0  0  0  0  0  0  0  0  0
    7.7929   -4.7412   28.1198 H   0  0  0  0  0  0  0  0  0  0  0  0
    9.3606   -5.3864   28.2270 H   0  0  0  0  0  0  0  0  0  0  0  0
  1  2  1  0
  2  3  2  0
  3  4  1  0
  4  5  1  0
  5  6  1  0
  6  7  1  0
  6  8  1  0
  6  9  1  0
  9 10  1  0
  9 11  1  0
  9 12  1  0
 12 13  1  0
 13 14  2  0
 14 15  1  0
 14 16  1  0
 16 17  2  0
 17 18  1  0
 17 19  1  0
 19 20  1  0
 19 21  2  0
 21 22  1  0
 12 23  1  0
 23 24  1  0
 23 25  1  0
 23 26  1  0
 26 27  1  0
 26 28  1  0
 26 29  1  0
 29 30  1  0
 29 31  1  0
  4 32  2  0
 32 33  1  0
 32 34  1  0
 34 35  2  0
 35 36  1  0
 36 37  1  0
 36 38  1  0
 35  2  1  0
 29  5  1  0
 21 13  1  0
M  END
>  <cnnaffinity>  (1) 
-4.82888

>  <filename>  (1) 
Nc1cnc(N2CCCN(c3cccnc3)CC2)cn1

$$$$
