
     RDKit          3D

 47 50  0  0  0  0  0  0  0  0999 V2000
    6.3990    3.9352   28.5970 N   0  0  0  0  0  0  0  0  0  0  0  0
    6.7455    3.3626   27.4092 C   0  0  0  0  0  0  0  0  0  0  0  0
    7.9748    3.6700   26.7999 C   0  0  0  0  0  0  0  0  0  0  0  0
    8.3312    3.0679   25.6005 C   0  0  0  0  0  0  0  0  0  0  0  0
    7.4563    2.1621   24.9661 C   0  0  0  0  0  0  0  0  0  0  0  0
    7.8236    1.5489   23.6791 C   0  0  0  0  0  0  0  0  0  0  0  0
    7.1729    0.5248   23.1486 N   0  0  0  0  0  0  0  0  0  0  0  0
    7.8811    0.2506   22.0325 N   0  0  0  0  0  0  0  0  0  0  0  0
    7.3726   -0.6859   21.0340 C   0  0  0  0  0  0  0  0  0  0  0  0
    6.6535   -0.0052   19.8846 C   0  0  0  0  0  0  0  0  0  0  0  0
    5.4454    0.6586   20.1322 C   0  0  0  0  0  0  0  0  0  0  0  0
    4.8137    1.3126   19.0737 C   0  0  0  0  0  0  0  0  0  0  0  0
    5.4130    1.2951   17.8109 C   0  0  0  0  0  0  0  0  0  0  0  0
    6.5648    0.6569   17.5518 N   0  0  0  0  0  0  0  0  0  0  0  0
    7.1581    0.0293   18.5756 C   0  0  0  0  0  0  0  0  0  0  0  0
    8.0926   -0.4793   18.3306 H   0  0  0  0  0  0  0  0  0  0  0  0
    4.9484    1.8092   16.9703 H   0  0  0  0  0  0  0  0  0  0  0  0
    3.8784    1.8421   19.2159 H   0  0  0  0  0  0  0  0  0  0  0  0
    5.0241    0.6678   21.1411 H   0  0  0  0  0  0  0  0  0  0  0  0
    6.6936   -1.3460   21.5803 H   0  0  0  0  0  0  0  0  0  0  0  0
    8.2103   -1.2921   20.6725 H   0  0  0  0  0  0  0  0  0  0  0  0
    8.9145    1.1160   21.9350 C   0  0  0  0  0  0  0  0  0  0  0  0
   10.0137    0.9178   20.9403 C   0  0  0  0  0  0  0  0  0  0  0  0
   10.9516   -0.2547   21.3129 C   0  0  0  0  0  0  0  0  0  0  0  0
   11.6428   -0.0022   22.6260 C   0  0  0  0  0  0  0  0  0  0  0  0
   11.0960   -0.4572   23.8412 C   0  0  0  0  0  0  0  0  0  0  0  0
   11.8230   -0.2730   25.0132 C   0  0  0  0  0  0  0  0  0  0  0  0
   13.1320    0.2105   24.8796 C   0  0  0  0  0  0  0  0  0  0  0  0
   14.3040   -0.1940   26.0911 Cl  0  0  0  0  0  0  0  0  0  0  0  0
   13.6001    0.7969   23.7925 N   0  0  0  0  0  0  0  0  0  0  0  0
   12.8181    0.7663   22.7057 C   0  0  0  0  0  0  0  0  0  0  0  0
   13.1535    1.3991   21.8853 H   0  0  0  0  0  0  0  0  0  0  0  0
   11.4507   -0.5810   25.9783 H   0  0  0  0  0  0  0  0  0  0  0  0
   10.1278   -0.9682   23.8570 H   0  0  0  0  0  0  0  0  0  0  0  0
   11.6923   -0.4250   20.5253 H   0  0  0  0  0  0  0  0  0  0  0  0
   10.3904   -1.1957   21.3839 H   0  0  0  0  0  0  0  0  0  0  0  0
    9.5640    0.7487   19.9585 H   0  0  0  0  0  0  0  0  0  0  0  0
   10.6003    1.8392   20.8833 H   0  0  0  0  0  0  0  0  0  0  0  0
    8.8869    1.9689   22.9380 N   0  0  0  0  0  0  0  0  0  0  0  0
    6.2252    1.8550   25.5840 C   0  0  0  0  0  0  0  0  0  0  0  0
    5.8742    2.4507   26.7873 C   0  0  0  0  0  0  0  0  0  0  0  0
    4.9293    2.2246   27.2692 H   0  0  0  0  0  0  0  0  0  0  0  0
    5.5502    1.1422   25.1114 H   0  0  0  0  0  0  0  0  0  0  0  0
    9.2918    3.2997   25.1408 H   0  0  0  0  0  0  0  0  0  0  0  0
    8.6268    4.3910   27.2785 H   0  0  0  0  0  0  0  0  0  0  0  0
    7.0072    4.6004   29.0335 H   0  0  0  0  0  0  0  0  0  0  0  0
    5.5145    3.7170   29.0148 H   0  0  0  0  0  0  0  0  0  0  0  0
  1  2  1  0
  2  3  2  0
  3  4  1  0
  4  5  2  0
  5  6  1  0
  6  7  2  0
  7  8  1  0
  8  9  1  0
  9 10  1  0
 10 11  2  0
 11 12  1  0
 12 13  2  0
 13 14  1  0
 14 15  2  0
 15 16  1  0
 13 17  1  0
 12 18  1  0
 11 19  1  0
  9 20  1  0
  9 21  1  0
  8 22  1  0
 22 23  1  0
 23 24  1  0
 24 25  1  0
 25 26  2  0
 26 27  1  0
 27 28  2  0
 28 29  1  0
 28 30  1  0
 30 31  2  0
 31 32  1  0
 27 33  1  0
 26 34  1  0
 24 35  1  0
 24 36  1  0
 23 37  1  0
 23 38  1  0
 22 39  2  0
  5 40  1  0
 40 41  2  0
 41 42  1  0
 40 43  1  0
  4 44  1  0
  3 45  1  0
  1 46  1  0
  1 47  1  0
 41  2  1  0
 39  6  1  0
 15 10  1  0
 31 25  1  0
M  END
>  <cnnaffinity>  (1) 
-5.8883

>  <filename>  (1) 
Nc1ccc(-c2nc(CCc3ccc(Cl)nc3)n(Cc3cccnc3)n2)cc1

$$$$
