
     RDKit          3D

 26 27  0  0  0  0  0  0  0  0999 V2000
    6.9418   -5.3071   24.1967 H   0  0  0  0  0  0  0  0  0  0  0  0
    7.6482   -4.6537   23.6897 C   0  0  0  0  0  0  0  0  0  0  0  0
    7.1519   -3.8102   22.7716 N   0  0  0  0  0  0  0  0  0  0  0  0
    8.0227   -2.9701   22.1703 C   0  0  0  0  0  0  0  0  0  0  0  0
    7.4824   -2.1596   21.0419 C   0  0  0  0  0  0  0  0  0  0  0  0
    6.4957   -2.5255   20.7520 H   0  0  0  0  0  0  0  0  0  0  0  0
    8.1773   -2.1185   20.2031 H   0  0  0  0  0  0  0  0  0  0  0  0
    7.4241   -0.4156   21.5185 S   0  0  0  0  0  4  0  0  0  0  0  0
    8.8562   -0.0018   21.2945 O   0  0  0  0  0  0  0  0  0  0  0  0
    6.5404    0.1448   20.0692 C   0  0  0  0  0  0  0  0  0  0  0  0
    7.1849    0.1184   18.8268 C   0  0  0  0  0  0  0  0  0  0  0  0
    8.1703   -0.3297   18.7026 H   0  0  0  0  0  0  0  0  0  0  0  0
    6.6457    0.6430   17.7208 N   0  0  0  0  0  0  0  0  0  0  0  0
    5.4519    1.2482   17.8362 C   0  0  0  0  0  0  0  0  0  0  0  0
    5.0504    1.6813   16.9232 H   0  0  0  0  0  0  0  0  0  0  0  0
    4.7343    1.3123   19.0338 C   0  0  0  0  0  0  0  0  0  0  0  0
    3.7726    1.8156   19.0587 H   0  0  0  0  0  0  0  0  0  0  0  0
    5.2806    0.7401   20.1837 C   0  0  0  0  0  0  0  0  0  0  0  0
    4.7574    0.7551   21.1409 H   0  0  0  0  0  0  0  0  0  0  0  0
    9.3726   -2.9128   22.5824 C   0  0  0  0  0  0  0  0  0  0  0  0
   10.0335   -2.1775   22.1254 H   0  0  0  0  0  0  0  0  0  0  0  0
    9.8826   -3.7527   23.4990 N   0  0  0  0  0  0  0  0  0  0  0  0
    9.0437   -4.6737   24.0107 C   0  0  0  0  0  0  0  0  0  0  0  0
    9.7603   -5.5885   24.7556 N   0  0  0  0  0  0  0  0  0  0  0  0
   10.6561   -5.1221   24.8481 H   0  0  0  0  0  0  0  0  0  0  0  0
    9.3831   -5.8983   25.6382 H   0  0  0  0  0  0  0  0  0  0  0  0
  1  2  1  0
  2  3  2  0
  3  4  1  0
  4  5  1  0
  5  6  1  0
  5  7  1  0
  8  5  1  6
  8  9  2  0
  8 10  1  0
 10 11  2  0
 11 12  1  0
 11 13  1  0
 13 14  2  0
 14 15  1  0
 14 16  1  0
 16 17  1  0
 16 18  2  0
 18 19  1  0
  4 20  2  0
 20 21  1  0
 20 22  1  0
 22 23  2  0
 23 24  1  0
 24 25  1  0
 24 26  1  0
 23  2  1  0
 18 10  1  0
M  END
>  <cnnaffinity>  (1) 
-4.83278

>  <filename>  (1) 
Nc1cnc(C[S@@](=O)c2cccnc2)cn1

$$$$
