
     RDKit          3D

 42 45  0  0  0  0  0  0  0  0999 V2000
   15.1872   -1.3188   19.9690 N   0  0  0  0  0  0  0  0  0  0  0  0
   14.1335   -1.2137   20.8601 C   0  0  0  0  0  0  0  0  0  0  0  0
   13.0256   -1.9997   20.5694 C   0  0  0  0  0  0  0  0  0  0  0  0
   11.8069   -1.7082   21.1370 C   0  0  0  0  0  0  0  0  0  0  0  0
   11.6458   -0.5642   21.9365 C   0  0  0  0  0  0  0  0  0  0  0  0
   10.2590   -0.1242   22.1218 C   0  0  0  0  0  0  0  0  0  0  0  0
    9.2680   -0.8847   21.6700 N   0  0  0  0  0  0  0  0  0  0  0  0
    8.1684   -0.1542   21.8957 N   0  0  0  0  0  0  0  0  0  0  0  0
    6.8862   -0.6245   21.3812 C   0  0  0  0  0  0  0  0  0  0  0  0
    6.4138    0.0956   20.1352 C   0  0  0  0  0  0  0  0  0  0  0  0
    5.1994    0.7849   20.0772 C   0  0  0  0  0  0  0  0  0  0  0  0
    4.8519    1.4440   18.8936 C   0  0  0  0  0  0  0  0  0  0  0  0
    5.7348    1.3846   17.8111 C   0  0  0  0  0  0  0  0  0  0  0  0
    6.8985    0.7169   17.8411 N   0  0  0  0  0  0  0  0  0  0  0  0
    7.2195    0.0961   18.9828 C   0  0  0  0  0  0  0  0  0  0  0  0
    8.1707   -0.4348   18.9914 H   0  0  0  0  0  0  0  0  0  0  0  0
    5.5013    1.8944   16.8772 H   0  0  0  0  0  0  0  0  0  0  0  0
    3.9265    2.0032   18.8013 H   0  0  0  0  0  0  0  0  0  0  0  0
    4.5445    0.8221   20.9514 H   0  0  0  0  0  0  0  0  0  0  0  0
    6.1539   -0.5442   22.1859 H   0  0  0  0  0  0  0  0  0  0  0  0
    7.0244   -1.6915   21.1802 H   0  0  0  0  0  0  0  0  0  0  0  0
    8.5338    1.0291   22.4282 C   0  0  0  0  0  0  0  0  0  0  0  0
    7.5110    1.9419   23.0356 C   0  0  0  0  0  0  0  0  0  0  0  0
    7.0715    1.3731   24.3755 C   0  0  0  0  0  0  0  0  0  0  0  0
    7.9555    1.1132   25.3990 C   0  0  0  0  0  0  0  0  0  0  0  0
    7.2621    0.4461   26.3435 N   0  0  0  0  0  0  0  0  0  0  0  0
    5.9775    0.2498   26.0208 N   0  0  0  0  0  0  0  0  0  0  0  0
    5.8515    0.8202   24.8221 C   0  0  0  0  0  0  0  0  0  0  0  0
    4.8958    0.7949   24.3125 H   0  0  0  0  0  0  0  0  0  0  0  0
    7.6160    0.0702   27.2118 H   0  0  0  0  0  0  0  0  0  0  0  0
    9.0212    1.3142   25.4503 H   0  0  0  0  0  0  0  0  0  0  0  0
    7.9944    2.9127   23.1553 H   0  0  0  0  0  0  0  0  0  0  0  0
    6.6709    2.0814   22.3457 H   0  0  0  0  0  0  0  0  0  0  0  0
    9.8463    1.0790   22.5938 N   0  0  0  0  0  0  0  0  0  0  0  0
   12.7913    0.1400   22.3553 C   0  0  0  0  0  0  0  0  0  0  0  0
   14.0435   -0.2121   21.8444 C   0  0  0  0  0  0  0  0  0  0  0  0
   14.9155    0.3966   22.0540 H   0  0  0  0  0  0  0  0  0  0  0  0
   12.7003    1.0020   23.0132 H   0  0  0  0  0  0  0  0  0  0  0  0
   10.9319   -2.3107   20.9248 H   0  0  0  0  0  0  0  0  0  0  0  0
   13.1368   -2.7606   19.8053 H   0  0  0  0  0  0  0  0  0  0  0  0
   16.0931   -1.2368   20.4014 H   0  0  0  0  0  0  0  0  0  0  0  0
   15.1605   -2.2066   19.4903 H   0  0  0  0  0  0  0  0  0  0  0  0
  1  2  1  0
  2  3  2  0
  3  4  1  0
  4  5  2  0
  5  6  1  0
  6  7  2  0
  7  8  1  0
  8  9  1  0
  9 10  1  0
 10 11  2  0
 11 12  1  0
 12 13  2  0
 13 14  1  0
 14 15  2  0
 15 16  1  0
 13 17  1  0
 12 18  1  0
 11 19  1  0
  9 20  1  0
  9 21  1  0
  8 22  1  0
 22 23  1  0
 23 24  1  0
 24 25  2  0
 25 26  1  0
 26 27  1  0
 27 28  2  0
 28 29  1  0
 26 30  1  0
 25 31  1  0
 23 32  1  0
 23 33  1  0
 22 34  2  0
  5 35  1  0
 35 36  2  0
 36 37  1  0
 35 38  1  0
  4 39  1  0
  3 40  1  0
  1 41  1  0
  1 42  1  0
 36  2  1  0
 34  6  1  0
 15 10  1  0
 28 24  1  0
M  END
>  <cnnaffinity>  (1) 
-6.41306

>  <filename>  (1) 
Nc1ccc(-c2nc(Cc3cn[nH]c3)n(Cc3cccnc3)n2)cc1

$$$$
