
     RDKit          3D

 33 35  0  0  0  0  0  0  0  0999 V2000
    4.9659    1.7893   16.9608 H   0  0  0  0  0  0  0  0  0  0  0  0
    5.4219    1.3006   17.8205 C   0  0  0  0  0  0  0  0  0  0  0  0
    6.5891    0.6704   17.6051 N   0  0  0  0  0  0  0  0  0  0  0  0
    7.1692    0.0589   18.6432 C   0  0  0  0  0  0  0  0  0  0  0  0
    8.1166   -0.4435   18.4513 H   0  0  0  0  0  0  0  0  0  0  0  0
    6.6288    0.0639   19.9422 C   0  0  0  0  0  0  0  0  0  0  0  0
    7.2780   -0.6134   21.0065 N   0  0  0  0  0  0  0  0  0  0  0  0
    7.6457   -0.1595   22.2691 C   0  0  0  0  0  0  0  0  0  0  0  0
    7.3278    1.1804   22.8623 C   0  0  0  0  0  0  0  0  0  0  0  0
    6.8680    1.2069   24.1984 C   0  0  0  0  0  0  0  0  0  0  0  0
    6.7909    0.2761   24.7582 H   0  0  0  0  0  0  0  0  0  0  0  0
    6.5267    2.4089   24.8045 C   0  0  0  0  0  0  0  0  0  0  0  0
    6.1517    2.4164   25.8223 H   0  0  0  0  0  0  0  0  0  0  0  0
    6.6637    3.6049   24.1063 C   0  0  0  0  0  0  0  0  0  0  0  0
    6.3873    4.5363   24.5913 H   0  0  0  0  0  0  0  0  0  0  0  0
    7.1506    3.6302   22.7891 C   0  0  0  0  0  0  0  0  0  0  0  0
    7.3853    4.9920   22.1486 C   0  0  0  0  0  0  0  0  0  0  0  0
    7.0662    5.0016   21.1019 H   0  0  0  0  0  0  0  0  0  0  0  0
    6.7367    5.7210   22.6547 H   0  0  0  0  0  0  0  0  0  0  0  0
    8.7668    5.4923   22.2358 N   0  0  0  0  0  0  0  0  0  0  0  0
    9.3655    4.9015   21.6590 H   0  0  0  0  0  0  0  0  0  0  0  0
    9.0932    5.3392   23.1871 H   0  0  0  0  0  0  0  0  0  0  0  0
    7.4547    2.4047   22.1652 C   0  0  0  0  0  0  0  0  0  0  0  0
    7.7727    2.3922   21.1199 H   0  0  0  0  0  0  0  0  0  0  0  0
    8.2347   -1.1279   22.9376 N   0  0  0  0  0  0  0  0  0  0  0  0
    8.2283   -2.2290   22.1284 C   0  0  0  0  0  0  0  0  0  0  0  0
    8.6391   -3.1792   22.4472 H   0  0  0  0  0  0  0  0  0  0  0  0
    7.6126   -1.9506   20.9530 C   0  0  0  0  0  0  0  0  0  0  0  0
    7.2804   -2.5774   20.1412 H   0  0  0  0  0  0  0  0  0  0  0  0
    5.4147    0.7167   20.1576 C   0  0  0  0  0  0  0  0  0  0  0  0
    5.0017    0.7378   21.1651 H   0  0  0  0  0  0  0  0  0  0  0  0
    4.7959    1.3366   19.0716 C   0  0  0  0  0  0  0  0  0  0  0  0
    3.8425    1.8381   19.1872 H   0  0  0  0  0  0  0  0  0  0  0  0
  1  2  1  0
  2  3  2  0
  3  4  1  0
  4  5  1  0
  4  6  2  0
  6  7  1  0
  7  8  1  0
  8  9  1  0
  9 10  2  0
 10 11  1  0
 10 12  1  0
 12 13  1  0
 12 14  2  0
 14 15  1  0
 14 16  1  0
 16 17  1  0
 17 18  1  0
 17 19  1  0
 17 20  1  0
 20 21  1  0
 20 22  1  0
 16 23  2  0
 23 24  1  0
  8 25  2  0
 25 26  1  0
 26 27  1  0
 26 28  2  0
 28 29  1  0
  6 30  1  0
 30 31  1  0
 30 32  2  0
 32 33  1  0
 32  2  1  0
 28  7  1  0
 23  9  1  0
M  END
>  <cnnaffinity>  (1) 
-4.67314

>  <filename>  (1) 
NCc1cccc(-c2nccn2-c2cccnc2)c1

$$$$
