
     RDKit          3D

 23 24  0  0  0  0  0  0  0  0999 V2000
    4.9239    1.7809   16.9938 H   0  0  0  0  0  0  0  0  0  0  0  0
    5.4005    1.2916   17.8368 C   0  0  0  0  0  0  0  0  0  0  0  0
    6.5643    0.6747   17.5806 N   0  0  0  0  0  0  0  0  0  0  0  0
    7.1722    0.0645   18.5986 C   0  0  0  0  0  0  0  0  0  0  0  0
    8.1218   -0.4209   18.3816 H   0  0  0  0  0  0  0  0  0  0  0  0
    6.6459    0.0130   19.8985 C   0  0  0  0  0  0  0  0  0  0  0  0
    7.4060   -0.6986   20.9160 C   0  0  0  0  0  0  0  0  0  0  0  0
    8.6638   -1.0587   20.8240 N   0  0  0  0  0  0  0  0  0  0  0  0
    8.9555   -1.6795   22.0035 C   0  0  0  0  0  0  0  0  0  0  0  0
    9.9455   -2.0682   22.2009 H   0  0  0  0  0  0  0  0  0  0  0  0
    7.8670   -1.7280   22.8260 C   0  0  0  0  0  0  0  0  0  0  0  0
    7.7356   -2.2293   24.2204 C   0  0  0  0  0  0  0  0  0  0  0  0
    8.4285   -3.0666   24.3473 H   0  0  0  0  0  0  0  0  0  0  0  0
    6.7293   -2.6339   24.3938 H   0  0  0  0  0  0  0  0  0  0  0  0
    8.0306   -1.2034   25.2282 N   0  0  0  0  0  0  0  0  0  0  0  0
    7.4027   -0.4241   25.0340 H   0  0  0  0  0  0  0  0  0  0  0  0
    8.9451   -0.8174   25.0018 H   0  0  0  0  0  0  0  0  0  0  0  0
    6.8744   -1.0793   22.1106 N   0  0  0  0  0  0  0  0  0  0  0  0
    5.9197   -0.9275   22.3900 H   0  0  0  0  0  0  0  0  0  0  0  0
    5.4234    0.6572   20.1557 C   0  0  0  0  0  0  0  0  0  0  0  0
    4.9840    0.6587   21.1585 H   0  0  0  0  0  0  0  0  0  0  0  0
    4.8000    1.3141   19.1006 C   0  0  0  0  0  0  0  0  0  0  0  0
    3.8691    1.8465   19.2540 H   0  0  0  0  0  0  0  0  0  0  0  0
  1  2  1  0
  2  3  2  0
  3  4  1  0
  4  5  1  0
  4  6  2  0
  6  7  1  0
  7  8  2  0
  8  9  1  0
  9 10  1  0
  9 11  2  0
 11 12  1  0
 12 13  1  0
 12 14  1  0
 12 15  1  0
 15 16  1  0
 15 17  1  0
 11 18  1  0
 18 19  1  0
  6 20  1  0
 20 21  1  0
 20 22  2  0
 22 23  1  0
 22  2  1  0
 18  7  1  0
M  END
>  <cnnaffinity>  (1) 
-4.48891

>  <filename>  (1) 
NCc1cnc(-c2cccnc2)[nH]1

$$$$
