
     RDKit          3D

 20 20  0  0  0  0  0  0  0  0999 V2000
    4.9970    1.7503   17.0273 H   0  0  0  0  0  0  0  0  0  0  0  0
    5.4523    1.2679   17.8870 C   0  0  0  0  0  0  0  0  0  0  0  0
    6.6125    0.6370   17.6672 N   0  0  0  0  0  0  0  0  0  0  0  0
    7.1889    0.0263   18.7027 C   0  0  0  0  0  0  0  0  0  0  0  0
    8.1294   -0.4873   18.5119 H   0  0  0  0  0  0  0  0  0  0  0  0
    6.6551    0.0278   19.9951 C   0  0  0  0  0  0  0  0  0  0  0  0
    7.4652   -0.7128   20.9932 C   0  0  0  0  0  0  0  0  0  0  0  0
    8.2606   -1.5871   20.6804 O   0  0  0  0  0  0  0  0  0  0  0  0
    7.2470   -0.3461   22.2744 N   0  0  0  0  0  0  0  0  0  0  0  0
    6.8869    0.5794   22.3887 H   0  0  0  0  0  0  0  0  0  0  0  0
    7.8839   -1.0256   23.3641 C   0  0  0  0  0  0  0  0  0  0  0  0
    7.4086   -0.7353   24.3134 H   0  0  0  0  0  0  0  0  0  0  0  0
    7.7305   -2.1026   23.2510 H   0  0  0  0  0  0  0  0  0  0  0  0
    9.2873   -0.7636   23.3539 N   0  0  0  0  0  0  0  0  0  0  0  0
    9.6205   -1.0790   22.4463 H   0  0  0  0  0  0  0  0  0  0  0  0
    9.4347    0.2381   23.3621 H   0  0  0  0  0  0  0  0  0  0  0  0
    5.4282    0.6814   20.2154 C   0  0  0  0  0  0  0  0  0  0  0  0
    4.9242    0.6902   21.1880 H   0  0  0  0  0  0  0  0  0  0  0  0
    4.8172    1.3106   19.1360 C   0  0  0  0  0  0  0  0  0  0  0  0
    3.8709    1.8332   19.2413 H   0  0  0  0  0  0  0  0  0  0  0  0
  1  2  1  0
  2  3  2  0
  3  4  1  0
  4  5  1  0
  4  6  2  0
  6  7  1  0
  7  8  2  0
  7  9  1  0
  9 10  1  0
  9 11  1  0
 11 12  1  0
 11 13  1  0
 11 14  1  0
 14 15  1  0
 14 16  1  0
  6 17  1  0
 17 18  1  0
 17 19  2  0
 19 20  1  0
 19  2  1  0
M  END
>  <cnnaffinity>  (1) 
-3.66504

>  <filename>  (1) 
NCNC(=O)c1cccnc1

$$$$
