
     RDKit          3D

 22 23  0  0  0  0  0  0  0  0999 V2000
    4.9704    1.7502   17.0256 H   0  0  0  0  0  0  0  0  0  0  0  0
    5.4355    1.2649   17.8801 C   0  0  0  0  0  0  0  0  0  0  0  0
    6.5990    0.6321   17.6498 N   0  0  0  0  0  0  0  0  0  0  0  0
    7.1887    0.0265   18.6805 C   0  0  0  0  0  0  0  0  0  0  0  0
    8.1291   -0.4870   18.4936 H   0  0  0  0  0  0  0  0  0  0  0  0
    6.6611    0.0446   19.9864 C   0  0  0  0  0  0  0  0  0  0  0  0
    7.3868   -0.5819   21.0427 N   0  0  0  0  0  0  0  0  0  0  0  0
    8.1354   -1.7044   20.8640 N   0  0  0  0  0  0  0  0  0  0  0  0
    8.6753   -1.9764   21.9932 N   0  0  0  0  0  0  0  0  0  0  0  0
    8.3267   -1.0742   22.9434 N   0  0  0  0  0  0  0  0  0  0  0  0
    7.5121   -0.2468   22.3548 C   0  0  0  0  0  0  0  0  0  0  0  0
    6.7600    0.7488   22.8816 O   0  0  0  0  0  0  0  0  0  0  0  0
    6.9007    0.8463   24.4809 S   0  0  0  0  0  0  0  0  0  0  0  0
    6.2086    2.0362   24.8374 O   0  0  0  0  0  0  0  0  0  0  0  0
    6.6766   -0.4370   25.0730 O   0  0  0  0  0  0  0  0  0  0  0  0
    8.4934    1.1066   24.5693 N   0  0  0  0  0  0  0  0  0  0  0  0
    8.8072    0.1390   24.5612 H   0  0  0  0  0  0  0  0  0  0  0  0
    8.5519    1.4786   25.5081 H   0  0  0  0  0  0  0  0  0  0  0  0
    5.4490    0.7019   20.2332 C   0  0  0  0  0  0  0  0  0  0  0  0
    5.0349    0.7602   21.2421 H   0  0  0  0  0  0  0  0  0  0  0  0
    4.8253    1.3087   19.1387 C   0  0  0  0  0  0  0  0  0  0  0  0
    3.8798    1.8224   19.2579 H   0  0  0  0  0  0  0  0  0  0  0  0
  1  2  1  0
  2  3  2  0
  3  4  1  0
  4  5  1  0
  4  6  2  0
  6  7  1  0
  7  8  1  0
  8  9  2  0
  9 10  1  0
 10 11  2  0
 11 12  1  0
 12 13  1  0
 13 14  2  0
 13 15  2  0
 13 16  1  0
 16 17  1  0
 16 18  1  0
  6 19  1  0
 19 20  1  0
 19 21  2  0
 21 22  1  0
 21  2  1  0
 11  7  1  0
M  END
>  <cnnaffinity>  (1) 
-4.32399

>  <filename>  (1) 
NS(=O)(=O)Oc1nnnn1-c1cccnc1

$$$$
