
     RDKit          3D

 33 35  0  0  0  0  0  0  0  0999 V2000
    4.9117    1.8176   16.9679 H   0  0  0  0  0  0  0  0  0  0  0  0
    5.3805    1.3104   17.8101 C   0  0  0  0  0  0  0  0  0  0  0  0
    6.5429    0.6932   17.5462 N   0  0  0  0  0  0  0  0  0  0  0  0
    7.1509    0.0612   18.5554 C   0  0  0  0  0  0  0  0  0  0  0  0
    8.1109   -0.3920   18.3142 H   0  0  0  0  0  0  0  0  0  0  0  0
    6.6467   -0.0083   19.8672 C   0  0  0  0  0  0  0  0  0  0  0  0
    7.3907   -0.6946   20.9360 C   0  0  0  0  0  0  0  0  0  0  0  0
    7.7482   -0.2559   22.1986 C   0  0  0  0  0  0  0  0  0  0  0  0
    7.5409    1.1125   22.8146 C   0  0  0  0  0  0  0  0  0  0  0  0
    6.9077    1.7240   22.1621 H   0  0  0  0  0  0  0  0  0  0  0  0
    8.5039    1.6393   22.8458 H   0  0  0  0  0  0  0  0  0  0  0  0
    6.9665    1.0573   24.2125 C   0  0  0  0  0  0  0  0  0  0  0  0
    7.8138    1.0531   25.3336 C   0  0  0  0  0  0  0  0  0  0  0  0
    8.8912    1.1295   25.1993 H   0  0  0  0  0  0  0  0  0  0  0  0
    7.3026    0.9457   26.6236 C   0  0  0  0  0  0  0  0  0  0  0  0
    7.9542    0.9400   27.4909 H   0  0  0  0  0  0  0  0  0  0  0  0
    5.9158    0.8428   26.7926 C   0  0  0  0  0  0  0  0  0  0  0  0
    5.3607    0.7445   28.1605 N   0  0  0  0  0  4  0  0  0  0  0  0
    4.1497    0.6622   28.2918 O   0  0  0  0  0  0  0  0  0  0  0  0
    6.1455    0.7547   29.0970 O   0  0  0  0  0  1  0  0  0  0  0  0
    5.0445    0.8380   25.6978 C   0  0  0  0  0  0  0  0  0  0  0  0
    3.9752    0.7495   25.8673 H   0  0  0  0  0  0  0  0  0  0  0  0
    5.5823    0.9445   24.4173 C   0  0  0  0  0  0  0  0  0  0  0  0
    4.9048    0.9304   23.5650 H   0  0  0  0  0  0  0  0  0  0  0  0
    8.4288   -1.3576   22.7698 C   0  0  0  0  0  0  0  0  0  0  0  0
    8.8581   -1.4278   23.7653 H   0  0  0  0  0  0  0  0  0  0  0  0
    8.5066   -2.3869   21.9372 N   0  0  0  0  0  0  0  0  0  0  0  0
    7.8810   -1.9565   20.8277 N   0  0  0  0  0  0  0  0  0  0  0  0
    7.7891   -2.5650   20.0254 H   0  0  0  0  0  0  0  0  0  0  0  0
    5.4299    0.6448   20.1208 C   0  0  0  0  0  0  0  0  0  0  0  0
    5.0064    0.6275   21.1246 H   0  0  0  0  0  0  0  0  0  0  0  0
    4.7862    1.3143   19.0765 C   0  0  0  0  0  0  0  0  0  0  0  0
    3.8606    1.8515   19.2356 H   0  0  0  0  0  0  0  0  0  0  0  0
  1  2  1  0
  2  3  2  0
  3  4  1  0
  4  5  1  0
  4  6  2  0
  6  7  1  0
  7  8  2  0
  8  9  1  0
  9 10  1  0
  9 11  1  0
  9 12  1  0
 12 13  2  0
 13 14  1  0
 13 15  1  0
 15 16  1  0
 15 17  2  0
 17 18  1  0
 18 19  2  0
 18 20  1  0
 17 21  1  0
 21 22  1  0
 21 23  2  0
 23 24  1  0
  8 25  1  0
 25 26  1  0
 25 27  2  0
 27 28  1  0
 28 29  1  0
  6 30  1  0
 30 31  1  0
 30 32  2  0
 32 33  1  0
 32  2  1  0
 28  7  1  0
 23 12  1  0
M  CHG  2  18   1  20  -1
M  END
>  <cnnaffinity>  (1) 
-5.12831

>  <filename>  (1) 
O=[N+]([O-])c1ccc(Cc2cn[nH]c2-c2cccnc2)cc1

$$$$
