
     RDKit          3D

 29 31  0  0  0  0  0  0  0  0999 V2000
    4.9141    1.7813   16.9973 H   0  0  0  0  0  0  0  0  0  0  0  0
    5.4018    1.2951   17.8395 C   0  0  0  0  0  0  0  0  0  0  0  0
    6.5683    0.6801   17.5739 N   0  0  0  0  0  0  0  0  0  0  0  0
    7.1707    0.0627   18.5940 C   0  0  0  0  0  0  0  0  0  0  0  0
    8.1165   -0.4288   18.3749 H   0  0  0  0  0  0  0  0  0  0  0  0
    6.6654    0.0046   19.9100 C   0  0  0  0  0  0  0  0  0  0  0  0
    7.3775   -0.7070   20.9942 C   0  0  0  0  0  0  0  0  0  0  0  0
    8.1205   -2.2375   20.7956 S   0  0  0  0  0  0  0  0  0  0  0  0
    8.5747   -2.4317   22.3693 N   0  0  0  0  0  0  0  0  0  0  0  0
    8.1963   -1.3816   23.0377 C   0  0  0  0  0  0  0  0  0  0  0  0
    8.4369   -1.3204   24.0943 H   0  0  0  0  0  0  0  0  0  0  0  0
    7.5163   -0.3484   22.3206 C   0  0  0  0  0  0  0  0  0  0  0  0
    7.1101    0.9280   22.9276 C   0  0  0  0  0  0  0  0  0  0  0  0
    7.3930    2.1414   22.2738 C   0  0  0  0  0  0  0  0  0  0  0  0
    7.8951    2.1194   21.3075 H   0  0  0  0  0  0  0  0  0  0  0  0
    7.0057    3.3475   22.8567 C   0  0  0  0  0  0  0  0  0  0  0  0
    7.2106    4.2800   22.3440 H   0  0  0  0  0  0  0  0  0  0  0  0
    6.3530    3.3667   24.0900 C   0  0  0  0  0  0  0  0  0  0  0  0
    6.0536    4.3034   24.5472 H   0  0  0  0  0  0  0  0  0  0  0  0
    6.0885    2.1534   24.7448 C   0  0  0  0  0  0  0  0  0  0  0  0
    5.4055    2.1649   26.0661 N   0  0  0  0  0  4  0  0  0  0  0  0
    5.1881    1.1007   26.6234 O   0  0  0  0  0  0  0  0  0  0  0  0
    5.0930    3.2485   26.5280 O   0  0  0  0  0  1  0  0  0  0  0  0
    6.4656    0.9380   24.1739 C   0  0  0  0  0  0  0  0  0  0  0  0
    6.2597   -0.0065   24.6694 H   0  0  0  0  0  0  0  0  0  0  0  0
    5.4375    0.6428   20.1550 C   0  0  0  0  0  0  0  0  0  0  0  0
    5.0148    0.6309   21.1633 H   0  0  0  0  0  0  0  0  0  0  0  0
    4.8035    1.3069   19.1050 C   0  0  0  0  0  0  0  0  0  0  0  0
    3.8704    1.8449   19.2593 H   0  0  0  0  0  0  0  0  0  0  0  0
  1  2  1  0
  2  3  2  0
  3  4  1  0
  4  5  1  0
  4  6  2  0
  6  7  1  0
  7  8  1  0
  8  9  1  0
  9 10  2  0
 10 11  1  0
 10 12  1  0
 12 13  1  0
 13 14  2  0
 14 15  1  0
 14 16  1  0
 16 17  1  0
 16 18  2  0
 18 19  1  0
 18 20  1  0
 20 21  1  0
 21 22  2  0
 21 23  1  0
 20 24  2  0
 24 25  1  0
  6 26  1  0
 26 27  1  0
 26 28  2  0
 28 29  1  0
 28  2  1  0
 12  7  2  0
 24 13  1  0
M  CHG  2  21   1  23  -1
M  END
>  <cnnaffinity>  (1) 
-4.92205

>  <filename>  (1) 
O=[N+]([O-])c1cccc(-c2cnsc2-c2cccnc2)c1

$$$$
