
     RDKit          3D

 40 43  0  0  0  0  0  0  0  0999 V2000
    4.9344    1.8161   16.9548 H   0  0  0  0  0  0  0  0  0  0  0  0
    5.4043    1.3237   17.8028 C   0  0  0  0  0  0  0  0  0  0  0  0
    6.5675    0.7027   17.5609 N   0  0  0  0  0  0  0  0  0  0  0  0
    7.1755    0.1062   18.6032 C   0  0  0  0  0  0  0  0  0  0  0  0
    8.1167   -0.3877   18.3488 H   0  0  0  0  0  0  0  0  0  0  0  0
    6.6676    0.0733   19.9170 C   0  0  0  0  0  0  0  0  0  0  0  0
    7.2804   -0.7849   21.0460 C   0  0  2  0  0  0  0  0  0  0  0  0
    6.4975   -2.1436   21.1024 C   0  0  0  0  0  0  0  0  0  0  0  0
    6.2252   -2.8306   19.8940 C   0  0  0  0  0  0  0  0  0  0  0  0
    6.4221   -2.3540   18.9329 H   0  0  0  0  0  0  0  0  0  0  0  0
    5.7471   -4.1430   19.8972 C   0  0  0  0  0  0  0  0  0  0  0  0
    5.6588   -4.6854   18.9614 H   0  0  0  0  0  0  0  0  0  0  0  0
    5.3926   -4.7665   21.0906 C   0  0  0  0  0  0  0  0  0  0  0  0
    4.9778   -5.7689   21.1110 H   0  0  0  0  0  0  0  0  0  0  0  0
    5.5167   -4.0474   22.2829 C   0  0  0  0  0  0  0  0  0  0  0  0
    4.9780   -4.6338   23.5443 N   0  0  0  0  0  4  0  0  0  0  0  0
    4.4301   -5.7228   23.4736 O   0  0  0  0  0  0  0  0  0  0  0  0
    5.0955   -3.9955   24.5774 O   0  0  0  0  0  1  0  0  0  0  0  0
    6.1003   -2.7748   22.3001 C   0  0  0  0  0  0  0  0  0  0  0  0
    6.2420   -2.3211   23.2755 H   0  0  0  0  0  0  0  0  0  0  0  0
    7.3169   -0.0032   22.4213 C   0  0  0  0  0  0  0  0  0  0  0  0
    6.5999   -0.4065   23.1400 H   0  0  0  0  0  0  0  0  0  0  0  0
    7.0424    1.0506   22.2812 H   0  0  0  0  0  0  0  0  0  0  0  0
    8.7749   -0.1140   22.9335 C   0  0  2  0  0  0  0  0  0  0  0  0
    8.8627    0.0123   24.0164 H   0  0  0  0  0  0  0  0  0  0  0  0
    9.6311    0.8781   22.1192 C   0  0  0  0  0  0  0  0  0  0  0  0
    9.1641    1.8662   22.0852 H   0  0  0  0  0  0  0  0  0  0  0  0
   10.6321    1.0174   22.5540 H   0  0  0  0  0  0  0  0  0  0  0  0
    9.6897    0.1743   20.7305 C   0  0  0  0  0  0  0  0  0  0  0  0
   10.7157   -0.1702   20.5738 H   0  0  0  0  0  0  0  0  0  0  0  0
    9.3845    0.8042   19.8862 H   0  0  0  0  0  0  0  0  0  0  0  0
    8.8207   -1.0934   20.9141 C   0  0  1  0  0  0  0  0  0  0  0  0
    9.0248   -1.8542   20.1539 H   0  0  0  0  0  0  0  0  0  0  0  0
    9.2316   -1.4599   22.3555 C   0  0  0  0  0  0  0  0  0  0  0  0
   10.3113   -1.6367   22.4536 H   0  0  0  0  0  0  0  0  0  0  0  0
    8.7154   -2.3309   22.7757 H   0  0  0  0  0  0  0  0  0  0  0  0
    5.4244    0.6989   20.1213 C   0  0  0  0  0  0  0  0  0  0  0  0
    4.9565    0.6648   21.1067 H   0  0  0  0  0  0  0  0  0  0  0  0
    4.7891    1.3425   19.0579 C   0  0  0  0  0  0  0  0  0  0  0  0
    3.8463    1.8622   19.1960 H   0  0  0  0  0  0  0  0  0  0  0  0
  1  2  1  0
  2  3  2  0
  3  4  1  0
  4  5  1  0
  4  6  2  0
  7  6  1  6
  7  8  1  0
  8  9  2  0
  9 10  1  0
  9 11  1  0
 11 12  1  0
 11 13  2  0
 13 14  1  0
 13 15  1  0
 15 16  1  0
 16 17  2  0
 16 18  1  0
 15 19  2  0
 19 20  1  0
  7 21  1  0
 21 22  1  0
 21 23  1  0
 21 24  1  0
 24 25  1  1
 24 26  1  0
 26 27  1  0
 26 28  1  0
 26 29  1  0
 29 30  1  0
 29 31  1  0
 29 32  1  0
 32 33  1  6
 32 34  1  0
 34 35  1  0
 34 36  1  0
  6 37  1  0
 37 38  1  0
 37 39  2  0
 39 40  1  0
 39  2  1  0
 32  7  1  0
 19  8  1  0
 34 24  1  0
M  CHG  2  16   1  18  -1
M  END
>  <cnnaffinity>  (1) 
-4.83851

>  <filename>  (1) 
O=[N+]([O-])c1cccc([C@@]2(c3cccnc3)C[C@@H]3CC[C@H]2C3)c1

$$$$
