
     RDKit          3D

 33 35  0  0  0  0  0  0  0  0999 V2000
    4.9247    1.7991   16.9834 H   0  0  0  0  0  0  0  0  0  0  0  0
    5.3978    1.3019   17.8279 C   0  0  0  0  0  0  0  0  0  0  0  0
    6.5622    0.6841   17.5720 N   0  0  0  0  0  0  0  0  0  0  0  0
    7.1672    0.0685   18.5980 C   0  0  0  0  0  0  0  0  0  0  0  0
    8.1181   -0.4133   18.3624 H   0  0  0  0  0  0  0  0  0  0  0  0
    6.6624    0.0112   19.9099 C   0  0  0  0  0  0  0  0  0  0  0  0
    7.3512   -0.8145   20.9908 C   0  0  0  0  0  0  0  0  0  0  0  0
    6.8865   -2.2821   21.0263 C   0  0  0  0  0  0  0  0  0  0  0  0
    5.9637   -2.8089   20.1001 C   0  0  0  0  0  0  0  0  0  0  0  0
    5.4971   -2.1445   19.3813 H   0  0  0  0  0  0  0  0  0  0  0  0
    5.6425   -4.1657   20.0890 C   0  0  0  0  0  0  0  0  0  0  0  0
    5.0402   -4.5705   19.2819 H   0  0  0  0  0  0  0  0  0  0  0  0
    6.1108   -5.0102   21.0877 C   0  0  0  0  0  0  0  0  0  0  0  0
    5.7828   -6.0414   21.1633 H   0  0  0  0  0  0  0  0  0  0  0  0
    7.0247   -4.5022   22.0160 C   0  0  0  0  0  0  0  0  0  0  0  0
    7.6201   -5.4301   23.0075 N   0  0  0  0  0  4  0  0  0  0  0  0
    8.4561   -4.9901   23.7819 O   0  0  0  0  0  0  0  0  0  0  0  0
    7.2582   -6.5960   22.9909 O   0  0  0  0  0  1  0  0  0  0  0  0
    7.4304   -3.1652   21.9804 C   0  0  0  0  0  0  0  0  0  0  0  0
    8.1888   -2.8334   22.6879 H   0  0  0  0  0  0  0  0  0  0  0  0
    7.3307   -0.1260   22.3994 C   0  0  0  0  0  0  0  0  0  0  0  0
    6.8333    0.8489   22.3912 H   0  0  0  0  0  0  0  0  0  0  0  0
    6.8628   -0.7264   23.1890 H   0  0  0  0  0  0  0  0  0  0  0  0
    8.8778   -0.0442   22.4117 C   0  0  0  0  0  0  0  0  0  0  0  0
    9.2797    0.9718   22.4824 H   0  0  0  0  0  0  0  0  0  0  0  0
    9.3693   -0.6414   23.1910 H   0  0  0  0  0  0  0  0  0  0  0  0
    8.9148   -0.6582   20.9882 C   0  0  0  0  0  0  0  0  0  0  0  0
    9.4683   -1.5995   20.8771 H   0  0  0  0  0  0  0  0  0  0  0  0
    9.2802    0.0295   20.2190 H   0  0  0  0  0  0  0  0  0  0  0  0
    5.4389    0.6599   20.1459 C   0  0  0  0  0  0  0  0  0  0  0  0
    5.0072    0.6475   21.1474 H   0  0  0  0  0  0  0  0  0  0  0  0
    4.8019    1.3172   19.0936 C   0  0  0  0  0  0  0  0  0  0  0  0
    3.8711    1.8512   19.2430 H   0  0  0  0  0  0  0  0  0  0  0  0
  1  2  1  0
  2  3  2  0
  3  4  1  0
  4  5  1  0
  4  6  2  0
  6  7  1  0
  7  8  1  0
  8  9  2  0
  9 10  1  0
  9 11  1  0
 11 12  1  0
 11 13  2  0
 13 14  1  0
 13 15  1  0
 15 16  1  0
 16 17  2  0
 16 18  1  0
 15 19  2  0
 19 20  1  0
  7 21  1  0
 21 22  1  0
 21 23  1  0
 21 24  1  0
 24 25  1  0
 24 26  1  0
 24 27  1  0
 27 28  1  0
 27 29  1  0
  6 30  1  0
 30 31  1  0
 30 32  2  0
 32 33  1  0
 32  2  1  0
 27  7  1  0
 19  8  1  0
M  CHG  2  16   1  18  -1
M  END
>  <cnnaffinity>  (1) 
-4.42256

>  <filename>  (1) 
O=[N+]([O-])c1cccc(C2(c3cccnc3)CCC2)c1

$$$$
