
     RDKit          3D

 29 30  0  0  0  0  0  0  0  0999 V2000
    5.6674    2.1344   17.6522 H   0  0  0  0  0  0  0  0  0  0  0  0
    5.9241    1.3277   18.3371 C   0  0  0  0  0  0  0  0  0  0  0  0
    7.0415    0.6436   18.0492 N   0  0  0  0  0  0  0  0  0  0  0  0
    7.4005   -0.3334   18.8922 C   0  0  0  0  0  0  0  0  0  0  0  0
    8.3213   -0.8762   18.6672 H   0  0  0  0  0  0  0  0  0  0  0  0
    6.6612   -0.6665   20.0277 C   0  0  0  0  0  0  0  0  0  0  0  0
    7.2631   -1.9559   21.1068 S   0  0  0  0  0  4  0  0  0  0  0  0
    6.0388   -2.6739   21.5918 O   0  0  0  0  0  0  0  0  0  0  0  0
    7.7551   -0.8817   22.5206 C   0  0  0  0  0  0  0  0  0  0  0  0
    8.1144   -1.5880   23.2726 H   0  0  0  0  0  0  0  0  0  0  0  0
    6.7999   -0.4815   22.8747 H   0  0  0  0  0  0  0  0  0  0  0  0
    8.7265    0.2267   22.1995 C   0  0  0  0  0  0  0  0  0  0  0  0
    8.2099    1.4958   21.8843 C   0  0  0  0  0  0  0  0  0  0  0  0
    7.1326    1.6390   21.9099 H   0  0  0  0  0  0  0  0  0  0  0  0
    9.0378    2.5414   21.4808 C   0  0  0  0  0  0  0  0  0  0  0  0
    8.6141    3.5165   21.2553 H   0  0  0  0  0  0  0  0  0  0  0  0
   10.4103    2.3148   21.3436 C   0  0  0  0  0  0  0  0  0  0  0  0
   11.0773    3.1020   21.0133 H   0  0  0  0  0  0  0  0  0  0  0  0
   10.9474    1.0764   21.6710 C   0  0  0  0  0  0  0  0  0  0  0  0
   12.0172    0.9165   21.5556 H   0  0  0  0  0  0  0  0  0  0  0  0
   10.1263    0.0483   22.1588 C   0  0  0  0  0  0  0  0  0  0  0  0
   10.7873   -1.1819   22.7415 C   0  0  0  0  0  0  0  0  0  0  0  0
   10.1880   -2.3300   22.3644 F   0  0  0  0  0  0  0  0  0  0  0  0
   10.7535   -1.1407   24.0895 F   0  0  0  0  0  0  0  0  0  0  0  0
   12.0811   -1.2947   22.3885 F   0  0  0  0  0  0  0  0  0  0  0  0
    5.4886    0.0376   20.3241 C   0  0  0  0  0  0  0  0  0  0  0  0
    4.8976   -0.2101   21.2079 H   0  0  0  0  0  0  0  0  0  0  0  0
    5.1254    1.0699   19.4582 C   0  0  0  0  0  0  0  0  0  0  0  0
    4.2550    1.6893   19.6444 H   0  0  0  0  0  0  0  0  0  0  0  0
  1  2  1  0
  2  3  2  0
  3  4  1  0
  4  5  1  0
  4  6  2  0
  6  7  1  0
  7  8  2  0
  7  9  1  1
  9 10  1  0
  9 11  1  0
  9 12  1  0
 12 13  2  0
 13 14  1  0
 13 15  1  0
 15 16  1  0
 15 17  2  0
 17 18  1  0
 17 19  1  0
 19 20  1  0
 19 21  2  0
 21 22  1  0
 22 23  1  0
 22 24  1  0
 22 25  1  0
  6 26  1  0
 26 27  1  0
 26 28  2  0
 28 29  1  0
 28  2  1  0
 21 12  1  0
M  END
>  <cnnaffinity>  (1) 
-4.95902

>  <filename>  (1) 
O=[S@](Cc1ccccc1C(F)(F)F)c1cccnc1

$$$$
