
     RDKit          3D

 39 41  0  0  0  0  0  0  0  0999 V2000
    5.7450    7.3514   25.9848 H   0  0  0  0  0  0  0  0  0  0  0  0
    5.1837    6.4176   25.9184 C   0  0  0  0  0  0  0  0  0  0  0  0
    5.7232    5.4910   25.1265 N   0  0  0  0  0  0  0  0  0  0  0  0
    5.1058    4.3029   25.0501 C   0  0  0  0  0  0  0  0  0  0  0  0
    5.7510    3.3416   24.2915 N   0  0  0  0  0  0  0  0  0  0  0  0
    6.3157    3.6933   22.9787 C   0  0  0  0  0  0  0  0  0  0  0  0
    5.5566    3.5629   22.1860 H   0  0  0  0  0  0  0  0  0  0  0  0
    6.6255    4.7422   22.9915 H   0  0  0  0  0  0  0  0  0  0  0  0
    7.5354    2.8258   22.6424 C   0  0  0  0  0  0  0  0  0  0  0  0
    8.3630    3.1197   23.3186 H   0  0  0  0  0  0  0  0  0  0  0  0
    7.8353    3.0406   21.6082 H   0  0  0  0  0  0  0  0  0  0  0  0
    7.2125    1.3980   22.7509 N   0  0  0  0  0  0  0  0  0  0  0  0
    8.1696    0.4691   22.2101 C   0  0  0  0  0  0  0  0  0  0  0  0
    8.7043   -0.0879   22.9942 H   0  0  0  0  0  0  0  0  0  0  0  0
    8.9035    0.9658   21.5670 H   0  0  0  0  0  0  0  0  0  0  0  0
    7.5360   -0.9204   21.1547 S   0  0  0  0  0  4  0  0  0  0  0  0
    6.5019   -1.7016   21.9184 O   0  0  0  0  0  0  0  0  0  0  0  0
    6.6701    0.0333   19.9108 C   0  0  0  0  0  0  0  0  0  0  0  0
    7.1920    0.0625   18.6149 C   0  0  0  0  0  0  0  0  0  0  0  0
    8.1328   -0.4343   18.3847 H   0  0  0  0  0  0  0  0  0  0  0  0
    6.5812    0.6768   17.5966 N   0  0  0  0  0  0  0  0  0  0  0  0
    5.4148    1.2902   17.8480 C   0  0  0  0  0  0  0  0  0  0  0  0
    4.9422    1.7848   17.0027 H   0  0  0  0  0  0  0  0  0  0  0  0
    4.8158    1.3100   19.1118 C   0  0  0  0  0  0  0  0  0  0  0  0
    3.8750    1.8294   19.2500 H   0  0  0  0  0  0  0  0  0  0  0  0
    5.4509    0.6606   20.1706 C   0  0  0  0  0  0  0  0  0  0  0  0
    5.0181    0.6276   21.1713 H   0  0  0  0  0  0  0  0  0  0  0  0
    6.7016    1.0610   24.0864 C   0  0  0  0  0  0  0  0  0  0  0  0
    7.4733    1.2175   24.8674 H   0  0  0  0  0  0  0  0  0  0  0  0
    6.4024    0.0069   24.0909 H   0  0  0  0  0  0  0  0  0  0  0  0
    5.4746    1.9121   24.4485 C   0  0  0  0  0  0  0  0  0  0  0  0
    4.6257    1.5982   23.8147 H   0  0  0  0  0  0  0  0  0  0  0  0
    5.2216    1.6986   25.4949 H   0  0  0  0  0  0  0  0  0  0  0  0
    3.8813    4.0391   25.7103 C   0  0  0  0  0  0  0  0  0  0  0  0
    3.4217    3.0725   25.5505 H   0  0  0  0  0  0  0  0  0  0  0  0
    3.3120    5.0337   26.5020 C   0  0  0  0  0  0  0  0  0  0  0  0
    2.3630    4.8629   27.0183 H   0  0  0  0  0  0  0  0  0  0  0  0
    3.9895    6.2551   26.6207 C   0  0  0  0  0  0  0  0  0  0  0  0
    3.6141    7.0755   27.2211 H   0  0  0  0  0  0  0  0  0  0  0  0
  1  2  1  0
  2  3  2  0
  3  4  1  0
  4  5  1  0
  5  6  1  0
  6  7  1  0
  6  8  1  0
  6  9  1  0
  9 10  1  0
  9 11  1  0
  9 12  1  0
 12 13  1  0
 13 14  1  0
 13 15  1  0
 16 13  1  1
 16 17  2  0
 16 18  1  0
 18 19  2  0
 19 20  1  0
 19 21  1  0
 21 22  2  0
 22 23  1  0
 22 24  1  0
 24 25  1  0
 24 26  2  0
 26 27  1  0
 12 28  1  0
 28 29  1  0
 28 30  1  0
 28 31  1  0
 31 32  1  0
 31 33  1  0
  4 34  2  0
 34 35  1  0
 34 36  1  0
 36 37  1  0
 36 38  2  0
 38 39  1  0
 38  2  1  0
 31  5  1  0
 26 18  1  0
M  END
>  <cnnaffinity>  (1) 
-4.67688

>  <filename>  (1) 
O=[S@](CN1CCN(c2ccccn2)CC1)c1cccnc1

$$$$
