
     RDKit          3D

 28 30  0  0  0  0  0  0  0  0999 V2000
    4.9580    1.7884   17.0125 H   0  0  0  0  0  0  0  0  0  0  0  0
    5.4106    1.2721   17.8566 C   0  0  0  0  0  0  0  0  0  0  0  0
    6.5688    0.6430   17.6060 N   0  0  0  0  0  0  0  0  0  0  0  0
    7.1576    0.0050   18.6206 C   0  0  0  0  0  0  0  0  0  0  0  0
    8.1266   -0.4485   18.4125 H   0  0  0  0  0  0  0  0  0  0  0  0
    6.6140   -0.0572   19.9065 C   0  0  0  0  0  0  0  0  0  0  0  0
    7.6127   -0.8534   21.1607 S   0  0  0  0  0  4  0  0  0  0  0  0
    7.5691    0.0198   22.3752 O   0  0  0  0  0  0  0  0  0  0  0  0
    6.4531   -2.1580   21.6100 C   0  0  0  0  0  0  0  0  0  0  0  0
    5.5908   -1.6395   21.9982 H   0  0  0  0  0  0  0  0  0  0  0  0
    6.2205   -2.7810   20.7506 H   0  0  0  0  0  0  0  0  0  0  0  0
    7.1094   -2.9698   22.6630 C   0  0  0  0  0  0  0  0  0  0  0  0
    7.7899   -4.0276   22.4049 N   0  0  0  0  0  0  0  0  0  0  0  0
    8.1918   -4.4760   23.6614 C   0  0  0  0  0  0  0  0  0  0  0  0
    8.9141   -5.6157   24.0197 C   0  0  0  0  0  0  0  0  0  0  0  0
    9.1259   -6.3500   23.2487 H   0  0  0  0  0  0  0  0  0  0  0  0
    9.2598   -5.7684   25.3614 C   0  0  0  0  0  0  0  0  0  0  0  0
    9.9037   -6.5881   25.6591 H   0  0  0  0  0  0  0  0  0  0  0  0
    8.7795   -4.8698   26.3342 C   0  0  0  0  0  0  0  0  0  0  0  0
    9.0164   -5.0587   27.3767 H   0  0  0  0  0  0  0  0  0  0  0  0
    7.9700   -3.7767   25.9962 C   0  0  0  0  0  0  0  0  0  0  0  0
    7.5499   -3.1214   26.7497 H   0  0  0  0  0  0  0  0  0  0  0  0
    7.7157   -3.5944   24.6338 C   0  0  0  0  0  0  0  0  0  0  0  0
    6.9966   -2.6215   23.9742 O   0  0  0  0  0  0  0  0  0  0  0  0
    5.4194    0.6183   20.1775 C   0  0  0  0  0  0  0  0  0  0  0  0
    5.0165    0.6761   21.1886 H   0  0  0  0  0  0  0  0  0  0  0  0
    4.8038    1.2846   19.1166 C   0  0  0  0  0  0  0  0  0  0  0  0
    3.8874    1.8419   19.2561 H   0  0  0  0  0  0  0  0  0  0  0  0
  1  2  1  0
  2  3  2  0
  3  4  1  0
  4  5  1  0
  4  6  2  0
  6  7  1  0
  7  8  2  0
  7  9  1  6
  9 10  1  0
  9 11  1  0
  9 12  1  0
 12 13  2  0
 13 14  1  0
 14 15  2  0
 15 16  1  0
 15 17  1  0
 17 18  1  0
 17 19  2  0
 19 20  1  0
 19 21  1  0
 21 22  1  0
 21 23  2  0
 23 24  1  0
  6 25  1  0
 25 26  1  0
 25 27  2  0
 27 28  1  0
 27  2  1  0
 24 12  1  0
 23 14  1  0
M  END
>  <cnnaffinity>  (1) 
-4.83806

>  <filename>  (1) 
O=[S@](Cc1nc2ccccc2o1)c1cccnc1

$$$$
