
     RDKit          3D

 36 38  0  0  0  0  0  0  0  0999 V2000
   10.2727    6.6484   24.0567 H   0  0  0  0  0  0  0  0  0  0  0  0
   10.8554    5.8668   23.5646 C   0  0  0  0  0  0  0  0  0  0  0  0
   10.1831    4.7531   23.2744 N   0  0  0  0  0  0  0  0  0  0  0  0
   10.8509    3.7581   22.6671 C   0  0  0  0  0  0  0  0  0  0  0  0
   10.0982    2.6302   22.3538 N   0  0  0  0  0  0  0  0  0  0  0  0
    9.0730    2.1679   23.3042 C   0  0  0  0  0  0  0  0  0  0  0  0
    9.5259    1.4964   24.0553 H   0  0  0  0  0  0  0  0  0  0  0  0
    8.6467    3.0301   23.8215 H   0  0  0  0  0  0  0  0  0  0  0  0
    7.9469    1.3907   22.6026 C   0  0  0  0  0  0  0  0  0  0  0  0
    7.3922    2.0848   21.9505 H   0  0  0  0  0  0  0  0  0  0  0  0
    7.2597    1.0234   23.3707 H   0  0  0  0  0  0  0  0  0  0  0  0
    8.4928    0.2463   21.8599 N   0  0  0  0  0  0  0  0  0  0  0  0
    7.3994   -0.9761   21.3570 S   0  0  0  0  0  4  0  0  0  0  0  0
    8.2677   -1.9711   20.6916 O   0  0  0  0  0  0  0  0  0  0  0  0
    6.5662   -0.0820   20.0486 C   0  0  0  0  0  0  0  0  0  0  0  0
    7.1555   -0.1311   18.7845 C   0  0  0  0  0  0  0  0  0  0  0  0
    8.0687   -0.6974   18.6068 H   0  0  0  0  0  0  0  0  0  0  0  0
    6.6461    0.5139   17.7289 N   0  0  0  0  0  0  0  0  0  0  0  0
    5.5220    1.2246   17.9119 C   0  0  0  0  0  0  0  0  0  0  0  0
    5.1306    1.7325   17.0350 H   0  0  0  0  0  0  0  0  0  0  0  0
    4.8689    1.3219   19.1466 C   0  0  0  0  0  0  0  0  0  0  0  0
    3.9589    1.9050   19.2240 H   0  0  0  0  0  0  0  0  0  0  0  0
    5.4030    0.6561   20.2509 C   0  0  0  0  0  0  0  0  0  0  0  0
    4.9300    0.7228   21.2346 H   0  0  0  0  0  0  0  0  0  0  0  0
    9.5146    0.6722   20.8820 C   0  0  0  0  0  0  0  0  0  0  0  0
    9.0494    1.2609   20.0831 H   0  0  0  0  0  0  0  0  0  0  0  0
    9.9752   -0.2137   20.4328 H   0  0  0  0  0  0  0  0  0  0  0  0
   10.6297    1.5345   21.5326 C   0  0  0  0  0  0  0  0  0  0  0  0
   11.2629    0.8627   22.1340 H   0  0  0  0  0  0  0  0  0  0  0  0
   11.2423    1.9439   20.7213 H   0  0  0  0  0  0  0  0  0  0  0  0
   12.2402    3.8281   22.4125 C   0  0  0  0  0  0  0  0  0  0  0  0
   12.7207    2.9832   21.9403 H   0  0  0  0  0  0  0  0  0  0  0  0
   12.9391    4.9717   22.7857 C   0  0  0  0  0  0  0  0  0  0  0  0
   14.0252    5.0306   22.6729 H   0  0  0  0  0  0  0  0  0  0  0  0
   12.2229    6.0371   23.3444 C   0  0  0  0  0  0  0  0  0  0  0  0
   12.7090    6.9707   23.5964 H   0  0  0  0  0  0  0  0  0  0  0  0
  1  2  1  0
  2  3  2  0
  3  4  1  0
  4  5  1  0
  5  6  1  0
  6  7  1  0
  6  8  1  0
  6  9  1  0
  9 10  1  0
  9 11  1  0
  9 12  1  0
 13 12  1  6
 13 14  2  0
 13 15  1  0
 15 16  2  0
 16 17  1  0
 16 18  1  0
 18 19  2  0
 19 20  1  0
 19 21  1  0
 21 22  1  0
 21 23  2  0
 23 24  1  0
 12 25  1  0
 25 26  1  0
 25 27  1  0
 25 28  1  0
 28 29  1  0
 28 30  1  0
  4 31  2  0
 31 32  1  0
 31 33  1  0
 33 34  1  0
 33 35  2  0
 35 36  1  0
 35  2  1  0
 28  5  1  0
 23 15  1  0
M  END
>  <cnnaffinity>  (1) 
-4.60178

>  <filename>  (1) 
O=[S@](c1cccnc1)N1CCN(c2ccccn2)CC1

$$$$
