
     RDKit          3D

 28 29  0  0  0  0  0  0  0  0999 V2000
    5.0090    1.6306   16.8654 H   0  0  0  0  0  0  0  0  0  0  0  0
    5.4306    1.2507   17.7938 C   0  0  0  0  0  0  0  0  0  0  0  0
    6.6604    0.7188   17.7057 N   0  0  0  0  0  0  0  0  0  0  0  0
    7.2213    0.2619   18.8297 C   0  0  0  0  0  0  0  0  0  0  0  0
    8.2352   -0.1293   18.7382 H   0  0  0  0  0  0  0  0  0  0  0  0
    6.5619    0.2875   20.0632 C   0  0  0  0  0  0  0  0  0  0  0  0
    7.4527   -0.2422   21.5159 S   0  0  0  0  0  4  0  0  0  0  0  0
    8.8906    0.1279   21.2760 O   0  0  0  0  0  0  0  0  0  0  0  0
    7.4152   -1.9999   21.1132 C   0  0  0  0  0  0  0  0  0  0  0  0
    7.9779   -2.0815   20.1868 H   0  0  0  0  0  0  0  0  0  0  0  0
    6.3816   -2.3369   21.0207 H   0  0  0  0  0  0  0  0  0  0  0  0
    8.0915   -2.6960   22.2460 C   0  0  0  0  0  0  0  0  0  0  0  0
    7.2609   -3.2861   23.1033 N   0  0  0  0  0  0  0  0  0  0  0  0
    7.7733   -4.0342   24.0961 C   0  0  0  0  0  0  0  0  0  0  0  0
    6.7912   -4.7437   25.0753 C   0  0  0  0  0  0  0  0  0  0  0  0
    7.2924   -5.9351   25.4704 F   0  0  0  0  0  0  0  0  0  0  0  0
    6.5767   -4.0468   26.2085 F   0  0  0  0  0  0  0  0  0  0  0  0
    5.5960   -4.9863   24.5277 F   0  0  0  0  0  0  0  0  0  0  0  0
    9.1587   -4.1930   24.2662 C   0  0  0  0  0  0  0  0  0  0  0  0
    9.5460   -4.8325   25.0504 H   0  0  0  0  0  0  0  0  0  0  0  0
   10.0297   -3.5069   23.4094 C   0  0  0  0  0  0  0  0  0  0  0  0
   11.1120   -3.6053   23.5146 H   0  0  0  0  0  0  0  0  0  0  0  0
    9.4894   -2.7366   22.3803 C   0  0  0  0  0  0  0  0  0  0  0  0
   10.0936   -2.1774   21.6751 H   0  0  0  0  0  0  0  0  0  0  0  0
    5.2672    0.8044   20.1547 C   0  0  0  0  0  0  0  0  0  0  0  0
    4.7342    0.8124   21.1076 H   0  0  0  0  0  0  0  0  0  0  0  0
    4.6975    1.3079   18.9842 C   0  0  0  0  0  0  0  0  0  0  0  0
    3.7080    1.7520   18.9878 H   0  0  0  0  0  0  0  0  0  0  0  0
  1  2  1  0
  2  3  2  0
  3  4  1  0
  4  5  1  0
  4  6  2  0
  6  7  1  0
  7  8  2  0
  7  9  1  6
  9 10  1  0
  9 11  1  0
  9 12  1  0
 12 13  2  0
 13 14  1  0
 14 15  1  0
 15 16  1  0
 15 17  1  0
 15 18  1  0
 14 19  2  0
 19 20  1  0
 19 21  1  0
 21 22  1  0
 21 23  2  0
 23 24  1  0
  6 25  1  0
 25 26  1  0
 25 27  2  0
 27 28  1  0
 27  2  1  0
 23 12  1  0
M  END
>  <cnnaffinity>  (1) 
-4.85364

>  <filename>  (1) 
O=[S@](Cc1cccc(C(F)(F)F)n1)c1cccnc1

$$$$
