
     RDKit          3D

 39 42  0  0  0  0  0  0  0  0999 V2000
    5.0155    1.7926   16.9038 H   0  0  0  0  0  0  0  0  0  0  0  0
    5.4719    1.3133   17.7651 C   0  0  0  0  0  0  0  0  0  0  0  0
    6.6318    0.6803   17.5352 N   0  0  0  0  0  0  0  0  0  0  0  0
    7.2110    0.0481   18.5585 C   0  0  0  0  0  0  0  0  0  0  0  0
    8.1532   -0.4577   18.3387 H   0  0  0  0  0  0  0  0  0  0  0  0
    6.6574    0.0114   19.8443 C   0  0  0  0  0  0  0  0  0  0  0  0
    7.2954   -0.7268   20.9365 C   0  0  0  0  0  0  0  0  0  0  0  0
    6.6696   -0.8860   22.0537 N   0  0  0  0  0  0  0  0  0  0  0  0
    7.4545   -1.5593   22.9365 N   0  0  0  0  0  0  0  0  0  0  0  0
    7.3636   -2.0898   24.1976 C   0  0  0  0  0  0  0  0  0  0  0  0
    6.2800   -2.0590   25.0672 N   0  0  0  0  0  0  0  0  0  0  0  0
    6.3941   -2.7517   25.7914 H   0  0  0  0  0  0  0  0  0  0  0  0
    5.6247   -0.8831   25.3945 C   0  0  0  0  0  0  0  0  0  0  0  0
    5.9874    0.1829   24.9584 O   0  0  0  0  0  0  0  0  0  0  0  0
    4.3888   -1.0329   26.2822 C   0  0  0  0  0  0  0  0  0  0  0  0
    4.3249   -2.0749   26.6159 H   0  0  0  0  0  0  0  0  0  0  0  0
    3.1310   -0.7232   25.4215 C   0  0  0  0  0  0  0  0  0  0  0  0
    3.3550    0.1669   24.8178 H   0  0  0  0  0  0  0  0  0  0  0  0
    2.9696   -1.5615   24.7351 H   0  0  0  0  0  0  0  0  0  0  0  0
    1.8233   -0.4832   26.1969 C   0  0  0  0  0  0  0  0  0  0  0  0
    1.3469   -1.4373   26.4699 H   0  0  0  0  0  0  0  0  0  0  0  0
    1.1211    0.0140   25.5184 H   0  0  0  0  0  0  0  0  0  0  0  0
    2.0237    0.3818   27.4473 C   0  0  0  0  0  0  0  0  0  0  0  0
    1.0928    0.4612   28.0247 H   0  0  0  0  0  0  0  0  0  0  0  0
    2.2725    1.4091   27.1411 H   0  0  0  0  0  0  0  0  0  0  0  0
    3.1749   -0.1505   28.3108 C   0  0  0  0  0  0  0  0  0  0  0  0
    2.9586   -1.1844   28.6232 H   0  0  0  0  0  0  0  0  0  0  0  0
    3.2672    0.4295   29.2328 H   0  0  0  0  0  0  0  0  0  0  0  0
    4.4935   -0.1236   27.5260 C   0  0  0  0  0  0  0  0  0  0  0  0
    5.3307   -0.4403   28.1648 H   0  0  0  0  0  0  0  0  0  0  0  0
    4.7270    0.9017   27.1979 H   0  0  0  0  0  0  0  0  0  0  0  0
    8.4242   -2.7887   24.4597 N   0  0  0  0  0  0  0  0  0  0  0  0
    9.2824   -2.7191   23.3733 N   0  0  0  0  0  0  0  0  0  0  0  0
    8.6709   -1.9984   22.4860 C   0  0  0  0  0  0  0  0  0  0  0  0
    8.9236   -1.4397   20.8587 S   0  0  0  0  0  0  0  0  0  0  0  0
    5.4473    0.6935   20.0811 C   0  0  0  0  0  0  0  0  0  0  0  0
    5.0192    0.6951   21.0842 H   0  0  0  0  0  0  0  0  0  0  0  0
    4.8421    1.3519   19.0154 C   0  0  0  0  0  0  0  0  0  0  0  0
    3.9061    1.8849   19.1389 H   0  0  0  0  0  0  0  0  0  0  0  0
  1  2  1  0
  2  3  2  0
  3  4  1  0
  4  5  1  0
  4  6  2  0
  6  7  1  0
  7  8  2  0
  8  9  1  0
  9 10  1  0
 10 11  1  0
 11 12  1  0
 11 13  1  0
 13 14  2  0
 13 15  1  0
 15 16  1  0
 15 17  1  0
 17 18  1  0
 17 19  1  0
 17 20  1  0
 20 21  1  0
 20 22  1  0
 20 23  1  0
 23 24  1  0
 23 25  1  0
 23 26  1  0
 26 27  1  0
 26 28  1  0
 26 29  1  0
 29 30  1  0
 29 31  1  0
 10 32  2  0
 32 33  1  0
 33 34  2  0
 34 35  1  0
  6 36  1  0
 36 37  1  0
 36 38  2  0
 38 39  1  0
 38  2  1  0
 35  7  1  0
 34  9  1  0
 29 15  1  0
M  END
>  <cnnaffinity>  (1) 
-5.43861

>  <filename>  (1) 
O=C(Nc1nnc2sc(-c3cccnc3)nn12)C1CCCCC1

$$$$
