
     RDKit          3D

 34 36  0  0  0  0  0  0  0  0999 V2000
    9.3038   -2.5166   24.9785 O   0  0  0  0  0  0  0  0  0  0  0  0
    8.4567   -1.7366   25.3762 C   0  0  0  0  0  0  0  0  0  0  0  0
    8.2037   -1.6020   26.8591 C   0  0  0  0  0  0  0  0  0  0  0  0
    7.0196   -2.4401   27.2413 C   0  0  0  0  0  0  0  0  0  0  0  0
    5.7572   -1.8472   27.3291 C   0  0  0  0  0  0  0  0  0  0  0  0
    4.6545   -2.6016   27.7396 C   0  0  0  0  0  0  0  0  0  0  0  0
    4.8110   -3.9499   28.0761 C   0  0  0  0  0  0  0  0  0  0  0  0
    3.3059   -4.9633   28.6808 Br  0  0  0  0  0  0  0  0  0  0  0  0
    6.0765   -4.5434   27.9850 C   0  0  0  0  0  0  0  0  0  0  0  0
    7.1763   -3.7998   27.5383 C   0  0  0  0  0  0  0  0  0  0  0  0
    8.1601   -4.2559   27.4624 H   0  0  0  0  0  0  0  0  0  0  0  0
    6.2040   -5.5763   28.2914 H   0  0  0  0  0  0  0  0  0  0  0  0
    3.6742   -2.1428   27.8115 H   0  0  0  0  0  0  0  0  0  0  0  0
    5.6438   -0.7915   27.0993 H   0  0  0  0  0  0  0  0  0  0  0  0
    9.0989   -1.9232   27.3978 H   0  0  0  0  0  0  0  0  0  0  0  0
    8.0194   -0.5530   27.0960 H   0  0  0  0  0  0  0  0  0  0  0  0
    7.7314   -1.0112   24.4696 N   0  0  0  0  0  0  0  0  0  0  0  0
    7.8639   -1.1784   23.1224 C   0  0  0  0  0  0  0  0  0  0  0  0
    7.0676   -0.4447   22.4107 N   0  0  0  0  0  0  0  0  0  0  0  0
    7.3619   -0.6377   21.0763 C   0  0  0  0  0  0  0  0  0  0  0  0
    6.6454    0.0331   20.0194 C   0  0  0  0  0  0  0  0  0  0  0  0
    5.4257    0.6904   20.2331 C   0  0  0  0  0  0  0  0  0  0  0  0
    4.8360    1.2968   19.1305 C   0  0  0  0  0  0  0  0  0  0  0  0
    5.4664    1.2391   17.8856 C   0  0  0  0  0  0  0  0  0  0  0  0
    6.6238    0.5867   17.6826 N   0  0  0  0  0  0  0  0  0  0  0  0
    7.1966   -0.0055   18.7371 C   0  0  0  0  0  0  0  0  0  0  0  0
    8.1351   -0.5329   18.5761 H   0  0  0  0  0  0  0  0  0  0  0  0
    5.0053    1.7484   17.0496 H   0  0  0  0  0  0  0  0  0  0  0  0
    3.8980    1.8295   19.2237 H   0  0  0  0  0  0  0  0  0  0  0  0
    4.9546    0.7289   21.2181 H   0  0  0  0  0  0  0  0  0  0  0  0
    8.3875   -1.5052   20.8075 C   0  0  0  0  0  0  0  0  0  0  0  0
    9.0105   -2.2073   22.2675 S   0  0  0  0  0  0  0  0  0  0  0  0
    8.7489   -1.7229   19.8124 H   0  0  0  0  0  0  0  0  0  0  0  0
    7.0363   -0.3473   24.7807 H   0  0  0  0  0  0  0  0  0  0  0  0
  1  2  2  0
  2  3  1  0
  3  4  1  0
  4  5  2  0
  5  6  1  0
  6  7  2  0
  7  8  1  0
  7  9  1  0
  9 10  2  0
 10 11  1  0
  9 12  1  0
  6 13  1  0
  5 14  1  0
  3 15  1  0
  3 16  1  0
  2 17  1  0
 17 18  1  0
 18 19  2  0
 19 20  1  0
 20 21  1  0
 21 22  2  0
 22 23  1  0
 23 24  2  0
 24 25  1  0
 25 26  2  0
 26 27  1  0
 24 28  1  0
 23 29  1  0
 22 30  1  0
 20 31  2  0
 31 32  1  0
 31 33  1  0
 17 34  1  0
 10  4  1  0
 32 18  1  0
 26 21  1  0
M  END
>  <cnnaffinity>  (1) 
-5.04702

>  <filename>  (1) 
O=C(Cc1ccc(Br)cc1)Nc1nc(-c2cccnc2)cs1

$$$$
