
     RDKit          3D

 39 41  0  0  0  0  0  0  0  0999 V2000
    4.9285    1.7759   17.0696 H   0  0  0  0  0  0  0  0  0  0  0  0
    5.4394    1.2458   17.8717 C   0  0  0  0  0  0  0  0  0  0  0  0
    6.5922    0.6410   17.5382 N   0  0  0  0  0  0  0  0  0  0  0  0
    7.2644    0.0047   18.4988 C   0  0  0  0  0  0  0  0  0  0  0  0
    8.1855   -0.4925   18.2089 H   0  0  0  0  0  0  0  0  0  0  0  0
    6.8184   -0.0677   19.8301 C   0  0  0  0  0  0  0  0  0  0  0  0
    7.6357   -0.7045   20.8169 N   0  0  0  0  0  0  0  0  0  0  0  0
    8.9705   -0.4664   20.9312 N   0  0  0  0  0  0  0  0  0  0  0  0
    9.3903   -1.1715   21.9088 N   0  0  0  0  0  0  0  0  0  0  0  0
    8.3889   -1.8993   22.4795 N   0  0  0  0  0  0  0  0  0  0  0  0
    7.3261   -1.5899   21.7869 C   0  0  0  0  0  0  0  0  0  0  0  0
    6.0738   -2.0958   21.8363 O   0  0  0  0  0  0  0  0  0  0  0  0
    5.8081   -2.8003   23.0342 N   0  0  0  0  0  0  0  0  0  0  0  0
    4.8884   -2.5165   23.3468 H   0  0  0  0  0  0  0  0  0  0  0  0
    5.8002   -4.2169   22.9493 C   0  0  0  0  0  0  0  0  0  0  0  0
    6.2048   -4.9015   22.0452 O   0  0  0  0  0  0  0  0  0  0  0  0
    5.3197   -4.6714   24.1618 N   0  0  0  0  0  0  0  0  0  0  0  0
    5.3088   -3.9095   24.8230 H   0  0  0  0  0  0  0  0  0  0  0  0
    5.9000   -5.9040   24.7087 C   0  0  0  0  0  0  0  0  0  0  0  0
    5.9949   -6.5859   23.8517 H   0  0  0  0  0  0  0  0  0  0  0  0
    7.3155   -5.6487   25.2972 C   0  0  0  0  0  0  0  0  0  0  0  0
    7.8813   -6.5845   25.3099 H   0  0  0  0  0  0  0  0  0  0  0  0
    7.8630   -4.9910   24.6049 H   0  0  0  0  0  0  0  0  0  0  0  0
    7.3114   -5.0777   26.7281 C   0  0  0  0  0  0  0  0  0  0  0  0
    6.9028   -4.0599   26.7036 H   0  0  0  0  0  0  0  0  0  0  0  0
    8.3401   -4.9784   27.0962 H   0  0  0  0  0  0  0  0  0  0  0  0
    6.4515   -5.9261   27.6784 C   0  0  0  0  0  0  0  0  0  0  0  0
    6.8718   -6.9410   27.7492 H   0  0  0  0  0  0  0  0  0  0  0  0
    6.4789   -5.5107   28.6941 H   0  0  0  0  0  0  0  0  0  0  0  0
    5.0033   -5.9969   27.1641 C   0  0  0  0  0  0  0  0  0  0  0  0
    4.5519   -4.9929   27.2109 H   0  0  0  0  0  0  0  0  0  0  0  0
    4.3950   -6.6380   27.8154 H   0  0  0  0  0  0  0  0  0  0  0  0
    4.9422   -6.5509   25.7259 C   0  0  0  0  0  0  0  0  0  0  0  0
    5.2044   -7.6122   25.7624 H   0  0  0  0  0  0  0  0  0  0  0  0
    3.9225   -6.4892   25.3270 H   0  0  0  0  0  0  0  0  0  0  0  0
    5.5806    0.4921   20.1614 C   0  0  0  0  0  0  0  0  0  0  0  0
    5.1623    0.3905   21.1621 H   0  0  0  0  0  0  0  0  0  0  0  0
    4.8931    1.1860   19.1571 C   0  0  0  0  0  0  0  0  0  0  0  0
    3.9507    1.6839   19.3586 H   0  0  0  0  0  0  0  0  0  0  0  0
  1  2  1  0
  2  3  2  0
  3  4  1  0
  4  5  1  0
  4  6  2  0
  6  7  1  0
  7  8  1  0
  8  9  2  0
  9 10  1  0
 10 11  2  0
 11 12  1  0
 12 13  1  0
 13 14  1  0
 13 15  1  0
 15 16  2  0
 15 17  1  0
 17 18  1  0
 17 19  1  0
 19 20  1  0
 19 21  1  0
 21 22  1  0
 21 23  1  0
 21 24  1  0
 24 25  1  0
 24 26  1  0
 24 27  1  0
 27 28  1  0
 27 29  1  0
 27 30  1  0
 30 31  1  0
 30 32  1  0
 30 33  1  0
 33 34  1  0
 33 35  1  0
  6 36  1  0
 36 37  1  0
 36 38  2  0
 38 39  1  0
 38  2  1  0
 11  7  1  0
 33 19  1  0
M  END
>  <cnnaffinity>  (1) 
-5.48423

>  <filename>  (1) 
O=C(NOc1nnnn1-c1cccnc1)NC1CCCCC1

$$$$
