
     RDKit          3D

 40 42  0  0  0  0  0  0  0  0999 V2000
    4.9898    1.8036   16.9522 H   0  0  0  0  0  0  0  0  0  0  0  0
    5.4414    1.3105   17.8114 C   0  0  0  0  0  0  0  0  0  0  0  0
    6.6051    0.6822   17.5831 N   0  0  0  0  0  0  0  0  0  0  0  0
    7.1877    0.0668   18.6188 C   0  0  0  0  0  0  0  0  0  0  0  0
    8.1422   -0.4078   18.3941 H   0  0  0  0  0  0  0  0  0  0  0  0
    6.6567    0.0374   19.9270 C   0  0  0  0  0  0  0  0  0  0  0  0
    7.3447   -0.6396   21.0491 C   0  0  0  0  0  0  0  0  0  0  0  0
    7.4933   -0.2799   22.3862 C   0  0  0  0  0  0  0  0  0  0  0  0
    6.8992    0.8596   22.9669 N   0  0  0  0  0  0  0  0  0  0  0  0
    7.0455    1.6716   22.3595 H   0  0  0  0  0  0  0  0  0  0  0  0
    7.2798    1.1726   24.3070 N   0  0  0  0  0  0  0  0  0  0  0  0
    7.0318    0.4234   24.9390 H   0  0  0  0  0  0  0  0  0  0  0  0
    6.9005    2.3927   24.8557 C   0  0  0  0  0  0  0  0  0  0  0  0
    6.7392    3.4077   24.2058 O   0  0  0  0  0  0  0  0  0  0  0  0
    6.6773    2.3481   26.3756 C   0  0  0  0  0  0  0  0  0  0  0  0
    6.4074    3.3859   26.6181 H   0  0  0  0  0  0  0  0  0  0  0  0
    7.9209    1.9990   27.2297 C   0  0  0  0  0  0  0  0  0  0  0  0
    8.7476    2.6786   26.9843 H   0  0  0  0  0  0  0  0  0  0  0  0
    8.2682    0.9789   27.0089 H   0  0  0  0  0  0  0  0  0  0  0  0
    7.5939    2.1005   28.7294 C   0  0  0  0  0  0  0  0  0  0  0  0
    8.4580    1.7958   29.3277 H   0  0  0  0  0  0  0  0  0  0  0  0
    7.4235    3.1558   28.9830 H   0  0  0  0  0  0  0  0  0  0  0  0
    6.3575    1.2705   29.1194 C   0  0  0  0  0  0  0  0  0  0  0  0
    6.5998    0.2022   29.0154 H   0  0  0  0  0  0  0  0  0  0  0  0
    6.1069    1.4173   30.1782 H   0  0  0  0  0  0  0  0  0  0  0  0
    5.1439    1.6140   28.2436 C   0  0  0  0  0  0  0  0  0  0  0  0
    4.8621    2.6617   28.4243 H   0  0  0  0  0  0  0  0  0  0  0  0
    4.2723    1.0108   28.5259 H   0  0  0  0  0  0  0  0  0  0  0  0
    5.4700    1.4474   26.7564 C   0  0  0  0  0  0  0  0  0  0  0  0
    4.5946    1.6955   26.1375 H   0  0  0  0  0  0  0  0  0  0  0  0
    5.7125    0.3852   26.5685 H   0  0  0  0  0  0  0  0  0  0  0  0
    8.2821   -1.3129   22.9539 C   0  0  0  0  0  0  0  0  0  0  0  0
    8.6480   -1.4196   23.9677 H   0  0  0  0  0  0  0  0  0  0  0  0
    8.5903   -2.2445   22.0566 N   0  0  0  0  0  0  0  0  0  0  0  0
    8.0216   -1.8123   20.9206 N   0  0  0  0  0  0  0  0  0  0  0  0
    8.0666   -2.3823   20.0881 H   0  0  0  0  0  0  0  0  0  0  0  0
    5.4435    0.7161   20.1429 C   0  0  0  0  0  0  0  0  0  0  0  0
    5.0257    0.7442   21.1514 H   0  0  0  0  0  0  0  0  0  0  0  0
    4.8204    1.3460   19.0645 C   0  0  0  0  0  0  0  0  0  0  0  0
    3.8818    1.8759   19.1786 H   0  0  0  0  0  0  0  0  0  0  0  0
  1  2  1  0
  2  3  2  0
  3  4  1  0
  4  5  1  0
  4  6  2  0
  6  7  1  0
  7  8  2  0
  8  9  1  0
  9 10  1  0
  9 11  1  0
 11 12  1  0
 11 13  1  0
 13 14  2  0
 13 15  1  0
 15 16  1  0
 15 17  1  0
 17 18  1  0
 17 19  1  0
 17 20  1  0
 20 21  1  0
 20 22  1  0
 20 23  1  0
 23 24  1  0
 23 25  1  0
 23 26  1  0
 26 27  1  0
 26 28  1  0
 26 29  1  0
 29 30  1  0
 29 31  1  0
  8 32  1  0
 32 33  1  0
 32 34  2  0
 34 35  1  0
 35 36  1  0
  6 37  1  0
 37 38  1  0
 37 39  2  0
 39 40  1  0
 39  2  1  0
 35  7  1  0
 29 15  1  0
M  END
>  <cnnaffinity>  (1) 
-5.24277

>  <filename>  (1) 
O=C(NNc1cn[nH]c1-c1cccnc1)C1CCCCC1

$$$$
