
     RDKit          3D

 32 33  0  0  0  0  0  0  0  0999 V2000
    4.9757    1.8213   16.9051 H   0  0  0  0  0  0  0  0  0  0  0  0
    5.4072    1.2848   17.7505 C   0  0  0  0  0  0  0  0  0  0  0  0
    6.5220    0.5825   17.5002 N   0  0  0  0  0  0  0  0  0  0  0  0
    7.0856   -0.0717   18.5169 C   0  0  0  0  0  0  0  0  0  0  0  0
    7.9874   -0.6390   18.2934 H   0  0  0  0  0  0  0  0  0  0  0  0
    6.5855   -0.0370   19.8251 C   0  0  0  0  0  0  0  0  0  0  0  0
    7.4209   -0.6334   20.9315 C   0  0  0  0  0  0  0  0  0  0  0  0
    6.6107   -0.9881   21.9790 F   0  0  0  0  0  0  0  0  0  0  0  0
    8.0163   -1.7738   20.5043 F   0  0  0  0  0  0  0  0  0  0  0  0
    8.5482    0.3559   21.4609 C   0  0  0  0  0  0  0  0  0  0  0  0
    9.6906    0.2850   21.0372 O   0  0  0  0  0  0  0  0  0  0  0  0
    8.1728    1.3249   22.3407 N   0  0  0  0  0  0  0  0  0  0  0  0
    7.2872    1.3394   22.8124 H   0  0  0  0  0  0  0  0  0  0  0  0
    8.9214    2.3829   22.8607 C   0  0  0  0  0  0  0  0  0  0  0  0
    8.4032    2.9981   23.7713 O   0  0  0  0  0  0  0  0  0  0  0  0
   10.1104    2.5796   22.2647 N   0  0  0  0  0  0  0  0  0  0  0  0
   10.4103    1.7780   21.7255 H   0  0  0  0  0  0  0  0  0  0  0  0
   11.0168    3.6223   22.4872 C   0  0  0  0  0  0  0  0  0  0  0  0
   12.2807    3.4960   21.9017 C   0  0  0  0  0  0  0  0  0  0  0  0
   12.4881    2.5948   21.3336 H   0  0  0  0  0  0  0  0  0  0  0  0
   13.2190    4.5244   22.0209 C   0  0  0  0  0  0  0  0  0  0  0  0
   14.1930    4.4216   21.5468 H   0  0  0  0  0  0  0  0  0  0  0  0
   12.8924    5.6867   22.7290 C   0  0  0  0  0  0  0  0  0  0  0  0
   13.6120    6.4988   22.7804 H   0  0  0  0  0  0  0  0  0  0  0  0
   11.6317    5.8029   23.3300 C   0  0  0  0  0  0  0  0  0  0  0  0
   11.3646    6.6929   23.8970 H   0  0  0  0  0  0  0  0  0  0  0  0
   10.6932    4.7706   23.2208 C   0  0  0  0  0  0  0  0  0  0  0  0
    9.7184    4.8323   23.6832 H   0  0  0  0  0  0  0  0  0  0  0  0
    5.3923    0.6528   20.0718 C   0  0  0  0  0  0  0  0  0  0  0  0
    4.9307    0.6475   21.0601 H   0  0  0  0  0  0  0  0  0  0  0  0
    4.8000    1.3313   19.0085 C   0  0  0  0  0  0  0  0  0  0  0  0
    3.8864    1.8955   19.1406 H   0  0  0  0  0  0  0  0  0  0  0  0
  1  2  1  0
  2  3  2  0
  3  4  1  0
  4  5  1  0
  4  6  2  0
  6  7  1  0
  7  8  1  0
  7  9  1  0
  7 10  1  0
 10 11  2  0
 10 12  1  0
 12 13  1  0
 12 14  1  0
 14 15  2  0
 14 16  1  0
 16 17  1  0
 16 18  1  0
 18 19  2  0
 19 20  1  0
 19 21  1  0
 21 22  1  0
 21 23  2  0
 23 24  1  0
 23 25  1  0
 25 26  1  0
 25 27  2  0
 27 28  1  0
  6 29  1  0
 29 30  1  0
 29 31  2  0
 31 32  1  0
 31  2  1  0
 27 18  1  0
M  END
>  <cnnaffinity>  (1) 
-4.62598

>  <filename>  (1) 
O=C(NC(=O)C(F)(F)c1cccnc1)Nc1ccccc1

$$$$
