
     RDKit          3D

 38 39  0  0  0  0  0  0  0  0999 V2000
    8.3494    1.1593   22.8845 O   0  0  0  0  0  0  0  0  0  0  0  0
    7.2553    0.6292   22.9316 C   0  0  0  0  0  0  0  0  0  0  0  0
    7.0137   -0.7157   22.2223 C   0  0  0  0  0  0  0  0  0  0  0  0
    7.3855   -0.7317   20.8435 O   0  0  0  0  0  0  0  0  0  0  0  0
    6.6639   -0.0045   19.9262 C   0  0  0  0  0  0  0  0  0  0  0  0
    5.4485    0.6436   20.1755 C   0  0  0  0  0  0  0  0  0  0  0  0
    4.8144    1.3052   19.1112 C   0  0  0  0  0  0  0  0  0  0  0  0
    5.4008    1.2914   17.8441 C   0  0  0  0  0  0  0  0  0  0  0  0
    6.5683    0.6729   17.5957 N   0  0  0  0  0  0  0  0  0  0  0  0
    7.1789    0.0572   18.6128 C   0  0  0  0  0  0  0  0  0  0  0  0
    8.1245   -0.4362   18.3940 H   0  0  0  0  0  0  0  0  0  0  0  0
    4.9143    1.7791   16.9976 H   0  0  0  0  0  0  0  0  0  0  0  0
    3.8797    1.8383   19.2627 H   0  0  0  0  0  0  0  0  0  0  0  0
    5.0034    0.6370   21.1725 H   0  0  0  0  0  0  0  0  0  0  0  0
    7.6899   -1.4433   22.6731 H   0  0  0  0  0  0  0  0  0  0  0  0
    5.9959   -1.0894   22.3568 H   0  0  0  0  0  0  0  0  0  0  0  0
    6.2354    1.1881   23.6435 N   0  0  0  0  0  0  0  0  0  0  0  0
    6.3858    2.5098   24.2491 C   0  0  0  0  0  0  0  0  0  0  0  0
    5.1357    2.9435   24.9978 C   0  0  0  0  0  0  0  0  0  0  0  0
    4.8838    2.1519   26.2872 C   0  0  0  0  0  0  0  0  0  0  0  0
    3.6096    2.5782   26.9748 C   0  0  0  0  0  0  0  0  0  0  0  0
    3.6448    3.5751   27.9643 C   0  0  0  0  0  0  0  0  0  0  0  0
    2.4815    4.0287   28.5886 C   0  0  0  0  0  0  0  0  0  0  0  0
    1.2461    3.4902   28.2196 C   0  0  0  0  0  0  0  0  0  0  0  0
    1.1728    2.5134   27.2246 C   0  0  0  0  0  0  0  0  0  0  0  0
    2.3480    2.0733   26.6112 C   0  0  0  0  0  0  0  0  0  0  0  0
    2.1952    0.8670   25.3558 Cl  0  0  0  0  0  0  0  0  0  0  0  0
    0.2187    2.0906   26.9228 H   0  0  0  0  0  0  0  0  0  0  0  0
    0.3374    3.8313   28.7035 H   0  0  0  0  0  0  0  0  0  0  0  0
    2.5404    4.7923   29.3587 H   0  0  0  0  0  0  0  0  0  0  0  0
    4.6039    4.0025   28.2443 H   0  0  0  0  0  0  0  0  0  0  0  0
    5.7312    2.2929   26.9706 H   0  0  0  0  0  0  0  0  0  0  0  0
    4.8423    1.0813   26.0644 H   0  0  0  0  0  0  0  0  0  0  0  0
    5.2336    4.0044   25.2575 H   0  0  0  0  0  0  0  0  0  0  0  0
    4.2624    2.8872   24.3396 H   0  0  0  0  0  0  0  0  0  0  0  0
    7.2413    2.4899   24.9343 H   0  0  0  0  0  0  0  0  0  0  0  0
    6.6327    3.2448   23.4749 H   0  0  0  0  0  0  0  0  0  0  0  0
    5.3468    0.7253   23.7119 H   0  0  0  0  0  0  0  0  0  0  0  0
  1  2  2  0
  2  3  1  0
  3  4  1  0
  4  5  1  0
  5  6  2  0
  6  7  1  0
  7  8  2  0
  8  9  1  0
  9 10  2  0
 10 11  1  0
  8 12  1  0
  7 13  1  0
  6 14  1  0
  3 15  1  0
  3 16  1  0
  2 17  1  0
 17 18  1  0
 18 19  1  0
 19 20  1  0
 20 21  1  0
 21 22  2  0
 22 23  1  0
 23 24  2  0
 24 25  1  0
 25 26  2  0
 26 27  1  0
 25 28  1  0
 24 29  1  0
 23 30  1  0
 22 31  1  0
 20 32  1  0
 20 33  1  0
 19 34  1  0
 19 35  1  0
 18 36  1  0
 18 37  1  0
 17 38  1  0
 10  5  1  0
 26 21  1  0
M  END
>  <cnnaffinity>  (1) 
-4.4538

>  <filename>  (1) 
O=C(COc1cccnc1)NCCCc1ccccc1Cl

$$$$
