
     RDKit          3D

 36 38  0  0  0  0  0  0  0  0999 V2000
   14.4028   -1.5603   22.5713 H   0  0  0  0  0  0  0  0  0  0  0  0
   13.6763   -0.7502   22.6674 C   0  0  0  0  0  0  0  0  0  0  0  0
   12.4800   -0.9640   22.1260 N   0  0  0  0  0  0  0  0  0  0  0  0
   11.5683    0.0183   22.2315 C   0  0  0  0  0  0  0  0  0  0  0  0
   10.3389   -0.2539   21.6884 N   0  0  0  0  0  0  0  0  0  0  0  0
    9.3724    0.7826   21.3101 C   0  0  0  0  0  0  0  0  0  0  0  0
    9.9032    1.6547   20.9157 H   0  0  0  0  0  0  0  0  0  0  0  0
    8.7784    1.1243   22.1737 H   0  0  0  0  0  0  0  0  0  0  0  0
    8.3867    0.2659   20.2366 C   0  0  0  0  0  0  0  0  0  0  0  0
    7.6588    1.0534   20.0321 H   0  0  0  0  0  0  0  0  0  0  0  0
    8.9324    0.0847   19.3002 H   0  0  0  0  0  0  0  0  0  0  0  0
    7.6888   -0.9693   20.6861 N   0  0  0  0  0  0  0  0  0  0  0  0
    6.4566   -1.4022   20.2495 C   0  0  0  0  0  0  0  0  0  0  0  0
    5.9411   -2.4362   20.6378 O   0  0  0  0  0  0  0  0  0  0  0  0
    5.7696   -0.5056   19.2846 C   0  0  0  0  0  0  0  0  0  0  0  0
    6.1776   -0.5250   17.9506 C   0  0  0  0  0  0  0  0  0  0  0  0
    6.8376   -1.3095   17.5678 H   0  0  0  0  0  0  0  0  0  0  0  0
    5.8234    0.4209   17.0711 N   0  0  0  0  0  0  0  0  0  0  0  0
    5.0175    1.4016   17.5067 C   0  0  0  0  0  0  0  0  0  0  0  0
    4.8121    2.2137   16.8092 H   0  0  0  0  0  0  0  0  0  0  0  0
    4.4797    1.4414   18.7994 C   0  0  0  0  0  0  0  0  0  0  0  0
    3.8148    2.2491   19.0846 H   0  0  0  0  0  0  0  0  0  0  0  0
    4.8570    0.4618   19.7163 C   0  0  0  0  0  0  0  0  0  0  0  0
    4.4994    0.4772   20.7508 H   0  0  0  0  0  0  0  0  0  0  0  0
    8.3627   -1.7222   21.7618 C   0  0  0  0  0  0  0  0  0  0  0  0
    8.0877   -1.3005   22.7417 H   0  0  0  0  0  0  0  0  0  0  0  0
    8.0273   -2.7594   21.7383 H   0  0  0  0  0  0  0  0  0  0  0  0
    9.8763   -1.6437   21.5669 C   0  0  0  0  0  0  0  0  0  0  0  0
   10.3828   -2.2833   22.2933 H   0  0  0  0  0  0  0  0  0  0  0  0
   10.1116   -2.0354   20.5713 H   0  0  0  0  0  0  0  0  0  0  0  0
   11.8373    1.2465   22.8790 C   0  0  0  0  0  0  0  0  0  0  0  0
   11.0596    1.9963   22.9369 H   0  0  0  0  0  0  0  0  0  0  0  0
   13.0840    1.4403   23.4510 C   0  0  0  0  0  0  0  0  0  0  0  0
   13.3296    2.3684   23.9655 H   0  0  0  0  0  0  0  0  0  0  0  0
   14.0061    0.3929   23.3792 C   0  0  0  0  0  0  0  0  0  0  0  0
   14.9408    0.4342   23.8974 H   0  0  0  0  0  0  0  0  0  0  0  0
  1  2  1  0
  2  3  2  0
  3  4  1  0
  4  5  1  0
  5  6  1  0
  6  7  1  0
  6  8  1  0
  6  9  1  0
  9 10  1  0
  9 11  1  0
  9 12  1  0
 12 13  1  0
 13 14  2  0
 13 15  1  0
 15 16  2  0
 16 17  1  0
 16 18  1  0
 18 19  2  0
 19 20  1  0
 19 21  1  0
 21 22  1  0
 21 23  2  0
 23 24  1  0
 12 25  1  0
 25 26  1  0
 25 27  1  0
 25 28  1  0
 28 29  1  0
 28 30  1  0
  4 31  2  0
 31 32  1  0
 31 33  1  0
 33 34  1  0
 33 35  2  0
 35 36  1  0
 35  2  1  0
 28  5  1  0
 23 15  1  0
M  END
>  <cnnaffinity>  (1) 
-5.07031

>  <filename>  (1) 
O=C(c1cccnc1)N1CCN(c2ccccn2)CC1

$$$$
