
     RDKit          3D

 42 44  0  0  0  0  0  0  0  0999 V2000
    4.9795    1.7890   17.0194 H   0  0  0  0  0  0  0  0  0  0  0  0
    5.4283    1.2994   17.8817 C   0  0  0  0  0  0  0  0  0  0  0  0
    6.5813    0.6539   17.6437 N   0  0  0  0  0  0  0  0  0  0  0  0
    7.1604    0.0384   18.6746 C   0  0  0  0  0  0  0  0  0  0  0  0
    8.0804   -0.5092   18.4749 H   0  0  0  0  0  0  0  0  0  0  0  0
    6.6520    0.0628   19.9790 C   0  0  0  0  0  0  0  0  0  0  0  0
    7.4093   -0.6780   20.9891 C   0  0  0  0  0  0  0  0  0  0  0  0
    7.8496   -1.8982   20.8394 N   0  0  0  0  0  0  0  0  0  0  0  0
    8.4475   -2.2786   22.0139 N   0  0  0  0  0  0  0  0  0  0  0  0
    8.3748   -1.2619   22.8263 C   0  0  0  0  0  0  0  0  0  0  0  0
    8.7456   -1.2350   23.8411 H   0  0  0  0  0  0  0  0  0  0  0  0
    7.7404   -0.2018   22.2304 N   0  0  0  0  0  0  0  0  0  0  0  0
    7.6811    1.1480   22.7696 C   0  0  0  0  0  0  0  0  0  0  0  0
    8.6427    1.6570   22.6206 H   0  0  0  0  0  0  0  0  0  0  0  0
    6.9133    1.7023   22.2208 H   0  0  0  0  0  0  0  0  0  0  0  0
    7.3609    1.0582   24.1672 N   0  0  0  0  0  0  0  0  0  0  0  0
    7.9566    1.4746   24.8589 H   0  0  0  0  0  0  0  0  0  0  0  0
    6.0406    0.9914   24.5587 C   0  0  0  0  0  0  0  0  0  0  0  0
    5.0852    1.0614   23.8087 O   0  0  0  0  0  0  0  0  0  0  0  0
    5.9636    0.8403   25.9279 N   0  0  0  0  0  0  0  0  0  0  0  0
    6.8401    0.5061   26.3013 H   0  0  0  0  0  0  0  0  0  0  0  0
    4.7610    0.2554   26.5288 C   0  0  0  0  0  0  0  0  0  0  0  0
    3.9228    0.6386   25.9365 H   0  0  0  0  0  0  0  0  0  0  0  0
    4.7222   -1.2917   26.4364 C   0  0  0  0  0  0  0  0  0  0  0  0
    3.6691   -1.5959   26.5157 H   0  0  0  0  0  0  0  0  0  0  0  0
    5.0526   -1.5986   25.4357 H   0  0  0  0  0  0  0  0  0  0  0  0
    5.5237   -2.0316   27.5313 C   0  0  0  0  0  0  0  0  0  0  0  0
    6.6023   -1.8656   27.3830 H   0  0  0  0  0  0  0  0  0  0  0  0
    5.3760   -3.1161   27.4432 H   0  0  0  0  0  0  0  0  0  0  0  0
    5.1230   -1.5259   28.9297 C   0  0  0  0  0  0  0  0  0  0  0  0
    5.6178   -2.0784   29.7396 H   0  0  0  0  0  0  0  0  0  0  0  0
    4.0461   -1.6983   29.0848 H   0  0  0  0  0  0  0  0  0  0  0  0
    5.4161   -0.0207   29.0282 C   0  0  0  0  0  0  0  0  0  0  0  0
    5.1928    0.3567   30.0337 H   0  0  0  0  0  0  0  0  0  0  0  0
    6.4953    0.1444   28.8772 H   0  0  0  0  0  0  0  0  0  0  0  0
    4.6043    0.7640   27.9760 C   0  0  0  0  0  0  0  0  0  0  0  0
    3.5402    0.7006   28.2463 H   0  0  0  0  0  0  0  0  0  0  0  0
    4.8696    1.8284   27.9939 H   0  0  0  0  0  0  0  0  0  0  0  0
    5.4446    0.7339   20.2242 C   0  0  0  0  0  0  0  0  0  0  0  0
    5.0221    0.7664   21.2356 H   0  0  0  0  0  0  0  0  0  0  0  0
    4.8137    1.3504   19.1400 C   0  0  0  0  0  0  0  0  0  0  0  0
    3.8740    1.8792   19.2529 H   0  0  0  0  0  0  0  0  0  0  0  0
  1  2  1  0
  2  3  2  0
  3  4  1  0
  4  5  1  0
  4  6  2  0
  6  7  1  0
  7  8  2  0
  8  9  1  0
  9 10  2  0
 10 11  1  0
 10 12  1  0
 12 13  1  0
 13 14  1  0
 13 15  1  0
 13 16  1  0
 16 17  1  0
 16 18  1  0
 18 19  2  0
 18 20  1  0
 20 21  1  0
 20 22  1  0
 22 23  1  0
 22 24  1  0
 24 25  1  0
 24 26  1  0
 24 27  1  0
 27 28  1  0
 27 29  1  0
 27 30  1  0
 30 31  1  0
 30 32  1  0
 30 33  1  0
 33 34  1  0
 33 35  1  0
 33 36  1  0
 36 37  1  0
 36 38  1  0
  6 39  1  0
 39 40  1  0
 39 41  2  0
 41 42  1  0
 41  2  1  0
 12  7  1  0
 36 22  1  0
M  END
>  <cnnaffinity>  (1) 
-4.81478

>  <filename>  (1) 
O=C(NCn1cnnc1-c1cccnc1)NC1CCCCC1

$$$$
