
     RDKit          3D

 38 40  0  0  0  0  0  0  0  0999 V2000
    4.9567    1.8077   16.9542 H   0  0  0  0  0  0  0  0  0  0  0  0
    5.4159    1.3167   17.8122 C   0  0  0  0  0  0  0  0  0  0  0  0
    6.5823    0.6865   17.5935 N   0  0  0  0  0  0  0  0  0  0  0  0
    7.1612    0.0673   18.6328 C   0  0  0  0  0  0  0  0  0  0  0  0
    8.1188   -0.4139   18.4304 H   0  0  0  0  0  0  0  0  0  0  0  0
    6.6070    0.0352   19.9267 C   0  0  0  0  0  0  0  0  0  0  0  0
    7.2446   -0.6360   21.0186 N   0  0  0  0  0  0  0  0  0  0  0  0
    7.5205   -0.1708   22.2818 C   0  0  0  0  0  0  0  0  0  0  0  0
    7.1441    1.0733   22.7530 N   0  0  0  0  0  0  0  0  0  0  0  0
    7.1773    1.0828   23.7598 H   0  0  0  0  0  0  0  0  0  0  0  0
    7.5444    2.2250   22.0789 C   0  0  0  0  0  0  0  0  0  0  0  0
    8.2628    2.1834   21.1040 O   0  0  0  0  0  0  0  0  0  0  0  0
    6.9566    3.5052   22.6414 C   0  0  0  0  0  0  0  0  0  0  0  0
    7.2535    4.2864   21.9348 H   0  0  0  0  0  0  0  0  0  0  0  0
    7.5616    3.8743   24.0158 C   0  0  0  0  0  0  0  0  0  0  0  0
    8.6569    3.9265   23.9396 H   0  0  0  0  0  0  0  0  0  0  0  0
    7.3254    3.0903   24.7514 H   0  0  0  0  0  0  0  0  0  0  0  0
    6.9864    5.2058   24.5151 C   0  0  0  0  0  0  0  0  0  0  0  0
    7.3044    6.0072   23.8302 H   0  0  0  0  0  0  0  0  0  0  0  0
    7.3978    5.4441   25.5040 H   0  0  0  0  0  0  0  0  0  0  0  0
    5.4505    5.1671   24.5632 C   0  0  0  0  0  0  0  0  0  0  0  0
    5.0595    6.1345   24.8995 H   0  0  0  0  0  0  0  0  0  0  0  0
    5.1351    4.4160   25.3051 H   0  0  0  0  0  0  0  0  0  0  0  0
    4.8471    4.7982   23.1983 C   0  0  0  0  0  0  0  0  0  0  0  0
    3.7526    4.7448   23.2632 H   0  0  0  0  0  0  0  0  0  0  0  0
    5.0872    5.5895   22.4707 H   0  0  0  0  0  0  0  0  0  0  0  0
    5.4088    3.4701   22.6835 C   0  0  0  0  0  0  0  0  0  0  0  0
    5.0958    2.6547   23.3523 H   0  0  0  0  0  0  0  0  0  0  0  0
    5.0071    3.2405   21.6833 H   0  0  0  0  0  0  0  0  0  0  0  0
    8.1097   -1.0409   23.0372 N   0  0  0  0  0  0  0  0  0  0  0  0
    8.2310   -2.1651   22.2431 C   0  0  0  0  0  0  0  0  0  0  0  0
    8.6998   -3.0717   22.5982 H   0  0  0  0  0  0  0  0  0  0  0  0
    7.6885   -1.9494   21.0182 C   0  0  0  0  0  0  0  0  0  0  0  0
    7.4358   -2.6060   20.2064 H   0  0  0  0  0  0  0  0  0  0  0  0
    5.3975    0.6998   20.1406 C   0  0  0  0  0  0  0  0  0  0  0  0
    4.9593    0.6933   21.1385 H   0  0  0  0  0  0  0  0  0  0  0  0
    4.7908    1.3470   19.0633 C   0  0  0  0  0  0  0  0  0  0  0  0
    3.8461    1.8679   19.1824 H   0  0  0  0  0  0  0  0  0  0  0  0
  1  2  1  0
  2  3  2  0
  3  4  1  0
  4  5  1  0
  4  6  2  0
  6  7  1  0
  7  8  1  0
  8  9  1  0
  9 10  1  0
  9 11  1  0
 11 12  2  0
 11 13  1  0
 13 14  1  0
 13 15  1  0
 15 16  1  0
 15 17  1  0
 15 18  1  0
 18 19  1  0
 18 20  1  0
 18 21  1  0
 21 22  1  0
 21 23  1  0
 21 24  1  0
 24 25  1  0
 24 26  1  0
 24 27  1  0
 27 28  1  0
 27 29  1  0
  8 30  2  0
 30 31  1  0
 31 32  1  0
 31 33  2  0
 33 34  1  0
  6 35  1  0
 35 36  1  0
 35 37  2  0
 37 38  1  0
 37  2  1  0
 33  7  1  0
 27 13  1  0
M  END
>  <cnnaffinity>  (1) 
-5.18883

>  <filename>  (1) 
O=C(Nc1nccn1-c1cccnc1)C1CCCCC1

$$$$
