
     RDKit          3D

 38 41  0  0  0  0  0  0  0  0999 V2000
    6.8306    5.4990   24.0079 H   0  0  0  0  0  0  0  0  0  0  0  0
    6.6065    4.6615   24.6656 C   0  0  0  0  0  0  0  0  0  0  0  0
    6.7064    3.4472   24.1182 N   0  0  0  0  0  0  0  0  0  0  0  0
    6.4516    2.3706   24.8981 C   0  0  0  0  0  0  0  0  0  0  0  0
    6.6004    0.9666   24.2960 C   0  0  0  0  0  0  0  0  0  0  0  0
    6.5511   -0.0367   24.9931 O   0  0  0  0  0  0  0  0  0  0  0  0
    6.7915    0.9198   22.9300 N   0  0  0  0  0  0  0  0  0  0  0  0
    6.9462    1.8309   22.5121 H   0  0  0  0  0  0  0  0  0  0  0  0
    7.4285   -0.1655   22.2968 C   0  0  0  0  0  0  0  0  0  0  0  0
    7.3725   -0.5845   20.9255 C   0  0  0  0  0  0  0  0  0  0  0  0
    6.6110    0.0385   19.8409 C   0  0  0  0  0  0  0  0  0  0  0  0
    7.1148    0.0375   18.5259 C   0  0  0  0  0  0  0  0  0  0  0  0
    8.0375   -0.4917   18.2984 H   0  0  0  0  0  0  0  0  0  0  0  0
    6.5284    0.6666   17.5026 N   0  0  0  0  0  0  0  0  0  0  0  0
    5.3812    1.3153   17.7597 C   0  0  0  0  0  0  0  0  0  0  0  0
    4.9388    1.8562   16.9249 H   0  0  0  0  0  0  0  0  0  0  0  0
    4.7602    1.3248   19.0147 C   0  0  0  0  0  0  0  0  0  0  0  0
    3.8278    1.8626   19.1474 H   0  0  0  0  0  0  0  0  0  0  0  0
    5.3818    0.6749   20.0791 C   0  0  0  0  0  0  0  0  0  0  0  0
    4.9333    0.6527   21.0760 H   0  0  0  0  0  0  0  0  0  0  0  0
    8.1637   -1.6393   20.7167 N   0  0  0  0  0  0  0  0  0  0  0  0
    8.6958   -1.8656   21.9153 N   0  0  0  0  0  0  0  0  0  0  0  0
    8.3291   -1.0273   22.8848 C   0  0  0  0  0  0  0  0  0  0  0  0
    9.1296   -1.2633   24.1335 C   0  0  0  0  0  0  0  0  0  0  0  0
    8.4805   -1.6307   24.9338 H   0  0  0  0  0  0  0  0  0  0  0  0
    9.6053   -0.3382   24.4802 H   0  0  0  0  0  0  0  0  0  0  0  0
   10.1771   -2.3036   23.6575 C   0  0  0  0  0  0  0  0  0  0  0  0
   11.1218   -1.7971   23.4762 H   0  0  0  0  0  0  0  0  0  0  0  0
   10.3422   -3.0904   24.3967 H   0  0  0  0  0  0  0  0  0  0  0  0
    9.6899   -2.8343   22.2840 C   0  0  0  0  0  0  0  0  0  0  0  0
   10.4795   -2.8059   21.5368 H   0  0  0  0  0  0  0  0  0  0  0  0
    9.2439   -3.8317   22.3203 H   0  0  0  0  0  0  0  0  0  0  0  0
    6.0840    2.4895   26.2481 C   0  0  0  0  0  0  0  0  0  0  0  0
    5.9083    1.5955   26.8371 H   0  0  0  0  0  0  0  0  0  0  0  0
    5.9706    3.7610   26.8083 C   0  0  0  0  0  0  0  0  0  0  0  0
    5.6830    3.8805   27.8531 H   0  0  0  0  0  0  0  0  0  0  0  0
    6.2371    4.8656   25.9990 C   0  0  0  0  0  0  0  0  0  0  0  0
    6.1661    5.8714   26.3875 H   0  0  0  0  0  0  0  0  0  0  0  0
  1  2  1  0
  2  3  2  0
  3  4  1  0
  4  5  1  0
  5  6  2  0
  5  7  1  0
  7  8  1  0
  7  9  1  0
  9 10  1  0
 10 11  1  0
 11 12  2  0
 12 13  1  0
 12 14  1  0
 14 15  2  0
 15 16  1  0
 15 17  1  0
 17 18  1  0
 17 19  2  0
 19 20  1  0
 10 21  2  0
 21 22  1  0
 22 23  1  0
 23 24  1  0
 24 25  1  0
 24 26  1  0
 24 27  1  0
 27 28  1  0
 27 29  1  0
 27 30  1  0
 30 31  1  0
 30 32  1  0
  4 33  2  0
 33 34  1  0
 33 35  1  0
 35 36  1  0
 35 37  2  0
 37 38  1  0
 37  2  1  0
 23  9  2  0
 19 11  1  0
 30 22  1  0
M  END
>  <cnnaffinity>  (1) 
-5.54474

>  <filename>  (1) 
O=C(Nc1c(-c2cccnc2)nn2c1CCC2)c1ccccn1

$$$$
