
     RDKit          3D

 35 36  0  0  0  0  0  0  0  0999 V2000
    5.3624   -3.0173   24.0087 O   0  0  0  0  0  0  0  0  0  0  0  0
    6.5233   -2.6892   24.1155 C   0  0  0  0  0  0  0  0  0  0  0  0
    7.3914   -3.0249   25.3278 C   0  0  0  0  0  0  0  0  0  0  0  0
    7.6499   -1.8415   26.2417 C   0  0  0  0  0  0  0  0  0  0  0  0
    6.6716   -1.3996   27.1460 C   0  0  0  0  0  0  0  0  0  0  0  0
    6.9094   -0.2748   27.9558 C   0  0  0  0  0  0  0  0  0  0  0  0
    5.8743    0.1988   28.9573 C   0  0  0  0  0  0  0  0  0  0  0  0
    5.9628    1.5280   29.1824 F   0  0  0  0  0  0  0  0  0  0  0  0
    4.6148   -0.0453   28.5453 F   0  0  0  0  0  0  0  0  0  0  0  0
    6.0242   -0.4083   30.1511 F   0  0  0  0  0  0  0  0  0  0  0  0
    8.1429    0.3938   27.8813 C   0  0  0  0  0  0  0  0  0  0  0  0
    9.1175   -0.0427   26.9799 C   0  0  0  0  0  0  0  0  0  0  0  0
    8.8662   -1.1486   26.1672 C   0  0  0  0  0  0  0  0  0  0  0  0
    9.6426   -1.4792   25.4820 H   0  0  0  0  0  0  0  0  0  0  0  0
   10.0690    0.4750   26.8829 H   0  0  0  0  0  0  0  0  0  0  0  0
    8.3225    1.2513   28.5265 H   0  0  0  0  0  0  0  0  0  0  0  0
    5.7276   -1.9372   27.2211 H   0  0  0  0  0  0  0  0  0  0  0  0
    8.3373   -3.4305   24.9501 H   0  0  0  0  0  0  0  0  0  0  0  0
    6.8896   -3.8325   25.8651 H   0  0  0  0  0  0  0  0  0  0  0  0
    7.2630   -2.0218   23.1530 N   0  0  0  0  0  0  0  0  0  0  0  0
    6.7257   -1.1197   22.1990 N   0  0  0  0  0  0  0  0  0  0  0  0
    7.4389   -0.7471   21.0762 C   0  0  0  0  0  0  0  0  0  0  0  0
    8.6296   -0.9547   20.9334 O   0  0  0  0  0  0  0  0  0  0  0  0
    6.6241   -0.0492   20.0313 C   0  0  0  0  0  0  0  0  0  0  0  0
    5.4019    0.6141   20.2300 C   0  0  0  0  0  0  0  0  0  0  0  0
    4.8208    1.2626   19.1419 C   0  0  0  0  0  0  0  0  0  0  0  0
    5.4729    1.2166   17.9055 C   0  0  0  0  0  0  0  0  0  0  0  0
    6.6308    0.5743   17.7019 N   0  0  0  0  0  0  0  0  0  0  0  0
    7.1876   -0.0387   18.7478 C   0  0  0  0  0  0  0  0  0  0  0  0
    8.1191   -0.5694   18.5543 H   0  0  0  0  0  0  0  0  0  0  0  0
    5.0379    1.7020   17.0360 H   0  0  0  0  0  0  0  0  0  0  0  0
    3.8740    1.7847   19.2310 H   0  0  0  0  0  0  0  0  0  0  0  0
    4.9144    0.6449   21.2099 H   0  0  0  0  0  0  0  0  0  0  0  0
    5.7267   -1.1909   22.0535 H   0  0  0  0  0  0  0  0  0  0  0  0
    8.1583   -1.7113   23.5047 H   0  0  0  0  0  0  0  0  0  0  0  0
  1  2  2  0
  2  3  1  0
  3  4  1  0
  4  5  2  0
  5  6  1  0
  6  7  1  0
  7  8  1  0
  7  9  1  0
  7 10  1  0
  6 11  2  0
 11 12  1  0
 12 13  2  0
 13 14  1  0
 12 15  1  0
 11 16  1  0
  5 17  1  0
  3 18  1  0
  3 19  1  0
  2 20  1  0
 20 21  1  0
 21 22  1  0
 22 23  2  0
 22 24  1  0
 24 25  2  0
 25 26  1  0
 26 27  2  0
 27 28  1  0
 28 29  2  0
 29 30  1  0
 27 31  1  0
 26 32  1  0
 25 33  1  0
 21 34  1  0
 20 35  1  0
 13  4  1  0
 29 24  1  0
M  END
>  <cnnaffinity>  (1) 
-4.84274

>  <filename>  (1) 
O=C(Cc1cccc(C(F)(F)F)c1)NNC(=O)c1cccnc1

$$$$
