
     RDKit          3D

 34 35  0  0  0  0  0  0  0  0999 V2000
    4.9349    1.7834   16.9938 H   0  0  0  0  0  0  0  0  0  0  0  0
    5.4082    1.2921   17.8418 C   0  0  0  0  0  0  0  0  0  0  0  0
    6.5682    0.6715   17.5932 N   0  0  0  0  0  0  0  0  0  0  0  0
    7.1685    0.0479   18.6122 C   0  0  0  0  0  0  0  0  0  0  0  0
    8.1137   -0.4331   18.3687 H   0  0  0  0  0  0  0  0  0  0  0  0
    6.6428    0.0034   19.9133 C   0  0  0  0  0  0  0  0  0  0  0  0
    7.4274   -0.6382   21.0272 C   0  0  0  0  0  0  0  0  0  0  0  0
    6.5710   -1.1955   21.9457 F   0  0  0  0  0  0  0  0  0  0  0  0
    8.1896   -1.6662   20.5439 F   0  0  0  0  0  0  0  0  0  0  0  0
    8.3276    0.3462   21.7440 C   0  0  0  0  0  0  0  0  0  0  0  0
    7.7295    1.1883   22.0937 H   0  0  0  0  0  0  0  0  0  0  0  0
    9.0493    0.7102   21.0199 H   0  0  0  0  0  0  0  0  0  0  0  0
    9.1280   -0.3390   22.8350 C   0  0  0  0  0  0  0  0  0  0  0  0
   10.3186   -0.5205   22.6645 O   0  0  0  0  0  0  0  0  0  0  0  0
    8.4664   -0.7827   23.9646 N   0  0  0  0  0  0  0  0  0  0  0  0
    9.1895   -1.7190   24.8442 C   0  0  0  0  0  0  0  0  0  0  0  0
    9.8935   -2.2830   24.2260 H   0  0  0  0  0  0  0  0  0  0  0  0
    9.7978   -1.1713   25.5801 H   0  0  0  0  0  0  0  0  0  0  0  0
    8.2282   -2.6659   25.5571 C   0  0  0  0  0  0  0  0  0  0  0  0
    7.7615   -3.3204   24.8103 H   0  0  0  0  0  0  0  0  0  0  0  0
    8.7921   -3.3171   26.2325 H   0  0  0  0  0  0  0  0  0  0  0  0
    7.1457   -1.8984   26.3188 C   0  0  0  0  0  0  0  0  0  0  0  0
    6.4395   -2.5894   26.7980 H   0  0  0  0  0  0  0  0  0  0  0  0
    7.6051   -1.3211   27.1371 H   0  0  0  0  0  0  0  0  0  0  0  0
    6.4190   -0.9580   25.3508 C   0  0  0  0  0  0  0  0  0  0  0  0
    5.8760   -1.5433   24.6010 H   0  0  0  0  0  0  0  0  0  0  0  0
    5.6779   -0.3582   25.8891 H   0  0  0  0  0  0  0  0  0  0  0  0
    7.3923   -0.0265   24.6270 C   0  0  0  0  0  0  0  0  0  0  0  0
    6.8476    0.5650   23.8886 H   0  0  0  0  0  0  0  0  0  0  0  0
    7.8123    0.6868   25.3564 H   0  0  0  0  0  0  0  0  0  0  0  0
    5.4264    0.6509   20.1617 C   0  0  0  0  0  0  0  0  0  0  0  0
    4.9830    0.6384   21.1592 H   0  0  0  0  0  0  0  0  0  0  0  0
    4.8048    1.3109   19.1040 C   0  0  0  0  0  0  0  0  0  0  0  0
    3.8755    1.8439   19.2494 H   0  0  0  0  0  0  0  0  0  0  0  0
  1  2  1  0
  2  3  2  0
  3  4  1  0
  4  5  1  0
  4  6  2  0
  6  7  1  0
  7  8  1  0
  7  9  1  0
  7 10  1  0
 10 11  1  0
 10 12  1  0
 10 13  1  0
 13 14  2  0
 13 15  1  0
 15 16  1  0
 16 17  1  0
 16 18  1  0
 16 19  1  0
 19 20  1  0
 19 21  1  0
 19 22  1  0
 22 23  1  0
 22 24  1  0
 22 25  1  0
 25 26  1  0
 25 27  1  0
 25 28  1  0
 28 29  1  0
 28 30  1  0
  6 31  1  0
 31 32  1  0
 31 33  2  0
 33 34  1  0
 33  2  1  0
 28 15  1  0
M  END
>  <cnnaffinity>  (1) 
-4.81309

>  <filename>  (1) 
O=C(CC(F)(F)c1cccnc1)N1CCCCC1

$$$$
