
     RDKit          3D

 18 18  0  0  0  0  0  0  0  0999 V2000
    4.8961    1.7869   17.0188 H   0  0  0  0  0  0  0  0  0  0  0  0
    5.4084    1.2874   17.8408 C   0  0  0  0  0  0  0  0  0  0  0  0
    6.5790    0.6666   17.6095 N   0  0  0  0  0  0  0  0  0  0  0  0
    7.1924    0.0488   18.6296 C   0  0  0  0  0  0  0  0  0  0  0  0
    8.1355   -0.4403   18.4067 H   0  0  0  0  0  0  0  0  0  0  0  0
    6.6429   -0.0108   19.9142 C   0  0  0  0  0  0  0  0  0  0  0  0
    7.3663   -0.7204   20.9492 C   0  0  0  0  0  0  0  0  0  0  0  0
    8.5805   -0.7717   20.8997 O   0  0  0  0  0  0  0  0  0  0  0  0
    6.7099   -1.2913   22.0231 N   0  0  0  0  0  0  0  0  0  0  0  0
    5.6997   -1.3069   21.9836 H   0  0  0  0  0  0  0  0  0  0  0  0
    7.3863   -1.9002   23.1636 C   0  0  0  0  0  0  0  0  0  0  0  0
    8.1190   -1.2031   23.5818 H   0  0  0  0  0  0  0  0  0  0  0  0
    6.6654   -2.1252   23.9587 H   0  0  0  0  0  0  0  0  0  0  0  0
    8.2739   -3.5698   22.5891 Br  0  0  0  0  0  0  0  0  0  0  0  0
    5.4340    0.6373   20.1697 C   0  0  0  0  0  0  0  0  0  0  0  0
    4.9886    0.6426   21.1655 H   0  0  0  0  0  0  0  0  0  0  0  0
    4.8197    1.3009   19.1103 C   0  0  0  0  0  0  0  0  0  0  0  0
    3.8868    1.8323   19.2612 H   0  0  0  0  0  0  0  0  0  0  0  0
  1  2  1  0
  2  3  2  0
  3  4  1  0
  4  5  1  0
  4  6  2  0
  6  7  1  0
  7  8  2  0
  7  9  1  0
  9 10  1  0
  9 11  1  0
 11 12  1  0
 11 13  1  0
 11 14  1  0
  6 15  1  0
 15 16  1  0
 15 17  2  0
 17 18  1  0
 17  2  1  0
M  END
>  <cnnaffinity>  (1) 
-3.73615

>  <filename>  (1) 
O=C(NCBr)c1cccnc1

$$$$
