
     RDKit          3D

 29 30  0  0  0  0  0  0  0  0999 V2000
    5.1279    1.7124   17.0996 H   0  0  0  0  0  0  0  0  0  0  0  0
    5.5871    1.2072   17.9475 C   0  0  0  0  0  0  0  0  0  0  0  0
    6.7506    0.5831   17.7106 N   0  0  0  0  0  0  0  0  0  0  0  0
    7.3221   -0.0530   18.7330 C   0  0  0  0  0  0  0  0  0  0  0  0
    8.2600   -0.5678   18.5231 H   0  0  0  0  0  0  0  0  0  0  0  0
    6.7655   -0.1117   20.0117 C   0  0  0  0  0  0  0  0  0  0  0  0
    7.3853   -0.9248   21.0573 C   0  0  0  0  0  0  0  0  0  0  0  0
    6.8034   -1.3282   22.0342 O   0  0  0  0  0  0  0  0  0  0  0  0
    8.7202   -1.1928   20.7902 N   0  0  0  0  0  0  0  0  0  0  0  0
    9.2542   -0.4566   20.3784 H   0  0  0  0  0  0  0  0  0  0  0  0
    9.5289   -1.7044   22.1027 S   0  0  0  0  0  0  0  0  0  0  0  0
    9.2201   -0.9265   23.2699 O   0  0  0  0  0  0  0  0  0  0  0  0
   10.8914   -1.8723   21.6736 O   0  0  0  0  0  0  0  0  0  0  0  0
    8.7361   -3.1010   22.1328 O   0  0  0  0  0  0  0  0  0  0  0  0
    9.1562   -4.0889   22.9914 C   0  0  0  0  0  0  0  0  0  0  0  0
    8.4888   -5.2794   22.7612 C   0  0  0  0  0  0  0  0  0  0  0  0
    7.7760   -5.2900   21.9439 H   0  0  0  0  0  0  0  0  0  0  0  0
    8.7511   -6.3839   23.5605 C   0  0  0  0  0  0  0  0  0  0  0  0
    8.2877   -7.3235   23.2967 H   0  0  0  0  0  0  0  0  0  0  0  0
    9.6475   -6.2445   24.6362 C   0  0  0  0  0  0  0  0  0  0  0  0
    9.9109   -7.5092   25.8011 Cl  0  0  0  0  0  0  0  0  0  0  0  0
   10.3636   -5.0571   24.8199 C   0  0  0  0  0  0  0  0  0  0  0  0
   11.1053   -5.0020   25.6109 H   0  0  0  0  0  0  0  0  0  0  0  0
   10.1303   -3.9611   23.9806 C   0  0  0  0  0  0  0  0  0  0  0  0
   10.6977   -3.0408   24.0699 H   0  0  0  0  0  0  0  0  0  0  0  0
    5.5619    0.5607   20.2608 C   0  0  0  0  0  0  0  0  0  0  0  0
    5.1358    0.5397   21.2667 H   0  0  0  0  0  0  0  0  0  0  0  0
    4.9607    1.2284   19.2014 C   0  0  0  0  0  0  0  0  0  0  0  0
    4.0256    1.7613   19.3370 H   0  0  0  0  0  0  0  0  0  0  0  0
  1  2  1  0
  2  3  2  0
  3  4  1  0
  4  5  1  0
  4  6  2  0
  6  7  1  0
  7  8  2  0
  7  9  1  0
  9 10  1  0
  9 11  1  0
 11 12  2  0
 11 13  2  0
 11 14  1  0
 14 15  1  0
 15 16  2  0
 16 17  1  0
 16 18  1  0
 18 19  1  0
 18 20  2  0
 20 21  1  0
 20 22  1  0
 22 23  1  0
 22 24  2  0
 24 25  1  0
  6 26  1  0
 26 27  1  0
 26 28  2  0
 28 29  1  0
 28  2  1  0
 24 15  1  0
M  END
>  <cnnaffinity>  (1) 
-5.13235

>  <filename>  (1) 
O=C(NS(=O)(=O)Oc1ccc(Cl)cc1)c1cccnc1

$$$$
