
     RDKit          3D

 34 37  0  0  0  0  0  0  0  0999 V2000
    4.9647    1.8359   16.9506 H   0  0  0  0  0  0  0  0  0  0  0  0
    5.4102    1.3005   17.7833 C   0  0  0  0  0  0  0  0  0  0  0  0
    6.5616    0.6611   17.5304 N   0  0  0  0  0  0  0  0  0  0  0  0
    7.1473    0.0052   18.5369 C   0  0  0  0  0  0  0  0  0  0  0  0
    8.1005   -0.4683   18.2979 H   0  0  0  0  0  0  0  0  0  0  0  0
    6.6155   -0.0520   19.8389 C   0  0  0  0  0  0  0  0  0  0  0  0
    7.3592   -0.6824   20.9465 C   0  0  0  0  0  0  0  0  0  0  0  0
    8.4792   -1.3925   20.7310 N   0  0  0  0  0  0  0  0  0  0  0  0
    8.8882   -1.6859   21.9832 N   0  0  0  0  0  0  0  0  0  0  0  0
   10.0604   -2.2108   22.5130 C   0  0  0  0  0  0  0  0  0  0  0  0
   10.8112   -2.5996   21.8489 H   0  0  0  0  0  0  0  0  0  0  0  0
   10.0041   -2.0013   23.8475 C   0  0  0  0  0  0  0  0  0  0  0  0
   10.7261   -2.2147   24.6231 H   0  0  0  0  0  0  0  0  0  0  0  0
    8.7709   -1.3837   24.1631 N   0  0  0  0  0  0  0  0  0  0  0  0
    8.4024   -0.8179   25.4090 C   0  0  0  0  0  0  0  0  0  0  0  0
    9.2483   -0.4222   26.1874 O   0  0  0  0  0  0  0  0  0  0  0  0
    6.9281   -0.7005   25.6937 C   0  0  0  0  0  0  0  0  0  0  0  0
    5.9730   -1.6387   25.2501 C   0  0  0  0  0  0  0  0  0  0  0  0
    6.2641   -2.4584   24.5970 H   0  0  0  0  0  0  0  0  0  0  0  0
    4.6287   -1.5017   25.6055 C   0  0  0  0  0  0  0  0  0  0  0  0
    3.8726   -2.2218   25.3100 H   0  0  0  0  0  0  0  0  0  0  0  0
    4.2431   -0.3964   26.3577 C   0  0  0  0  0  0  0  0  0  0  0  0
    2.9522   -0.2643   26.7014 F   0  0  0  0  0  0  0  0  0  0  0  0
    5.1558    0.5657   26.7816 C   0  0  0  0  0  0  0  0  0  0  0  0
    4.8020    1.4106   27.3614 H   0  0  0  0  0  0  0  0  0  0  0  0
    6.4995    0.4006   26.4558 C   0  0  0  0  0  0  0  0  0  0  0  0
    7.2319    1.1374   26.7780 H   0  0  0  0  0  0  0  0  0  0  0  0
    8.0984   -1.1882   22.9460 C   0  0  0  0  0  0  0  0  0  0  0  0
    7.0525   -0.5368   22.3223 C   0  0  0  0  0  0  0  0  0  0  0  0
    6.2036   -0.0513   22.7783 H   0  0  0  0  0  0  0  0  0  0  0  0
    5.4029    0.6211   20.0778 C   0  0  0  0  0  0  0  0  0  0  0  0
    4.9617    0.6469   21.0744 H   0  0  0  0  0  0  0  0  0  0  0  0
    4.7915    1.3040   19.0336 C   0  0  0  0  0  0  0  0  0  0  0  0
    3.8716    1.8550   19.1869 H   0  0  0  0  0  0  0  0  0  0  0  0
  1  2  1  0
  2  3  2  0
  3  4  1  0
  4  5  1  0
  4  6  2  0
  6  7  1  0
  7  8  2  0
  8  9  1  0
  9 10  1  0
 10 11  1  0
 10 12  2  0
 12 13  1  0
 12 14  1  0
 14 15  1  0
 15 16  2  0
 15 17  1  0
 17 18  2  0
 18 19  1  0
 18 20  1  0
 20 21  1  0
 20 22  2  0
 22 23  1  0
 22 24  1  0
 24 25  1  0
 24 26  2  0
 26 27  1  0
 14 28  1  0
 28 29  2  0
 29 30  1  0
  6 31  1  0
 31 32  1  0
 31 33  2  0
 33 34  1  0
 33  2  1  0
 29  7  1  0
 28  9  1  0
 26 17  1  0
M  END
>  <cnnaffinity>  (1) 
-5.47746

>  <filename>  (1) 
O=C(c1ccc(F)cc1)n1ccn2nc(-c3cccnc3)cc12

$$$$
