
     RDKit          3D

 33 35  0  0  0  0  0  0  0  0999 V2000
    4.9739    1.7974   16.9475 H   0  0  0  0  0  0  0  0  0  0  0  0
    5.4322    1.3079   17.8049 C   0  0  0  0  0  0  0  0  0  0  0  0
    6.5931    0.6719   17.5841 N   0  0  0  0  0  0  0  0  0  0  0  0
    7.1678    0.0626   18.6217 C   0  0  0  0  0  0  0  0  0  0  0  0
    8.0911   -0.4712   18.4053 H   0  0  0  0  0  0  0  0  0  0  0  0
    6.6497    0.0772   19.9298 C   0  0  0  0  0  0  0  0  0  0  0  0
    7.3644   -0.6386   20.9962 C   0  0  0  0  0  0  0  0  0  0  0  0
    7.8951   -1.8676   20.7035 N   0  0  0  0  0  0  0  0  0  0  0  0
    8.4158   -2.4760   21.6908 N   0  0  0  0  0  0  0  0  0  0  0  0
    8.2943   -1.5753   23.1169 S   0  0  0  0  0  0  0  0  0  0  0  0
    7.5671   -0.2775   22.3069 C   0  0  0  0  0  0  0  0  0  0  0  0
    7.3411    0.9971   23.0099 C   0  0  0  0  0  0  0  0  0  0  0  0
    7.1042    1.0390   24.2071 O   0  0  0  0  0  0  0  0  0  0  0  0
    7.4881    2.1096   22.2406 N   0  0  0  0  0  0  0  0  0  0  0  0
    7.4518    1.9372   21.2443 H   0  0  0  0  0  0  0  0  0  0  0  0
    6.9823    3.3916   22.7184 C   0  0  0  0  0  0  0  0  0  0  0  0
    7.4146    4.1780   22.0887 H   0  0  0  0  0  0  0  0  0  0  0  0
    7.3494    3.5736   23.7356 H   0  0  0  0  0  0  0  0  0  0  0  0
    5.4645    3.4616   22.6463 C   0  0  0  0  0  0  0  0  0  0  0  0
    4.8761    3.7158   21.4002 C   0  0  0  0  0  0  0  0  0  0  0  0
    5.5260    3.6985   20.5290 H   0  0  0  0  0  0  0  0  0  0  0  0
    3.5014    3.9149   21.2685 C   0  0  0  0  0  0  0  0  0  0  0  0
    3.0971    4.2204   20.2995 H   0  0  0  0  0  0  0  0  0  0  0  0
    2.6750    3.7525   22.3857 C   0  0  0  0  0  0  0  0  0  0  0  0
    1.6064    3.9167   22.2962 H   0  0  0  0  0  0  0  0  0  0  0  0
    3.2332    3.3929   23.6178 C   0  0  0  0  0  0  0  0  0  0  0  0
    2.5964    3.2432   24.4849 H   0  0  0  0  0  0  0  0  0  0  0  0
    4.6190    3.2520   23.7434 C   0  0  0  0  0  0  0  0  0  0  0  0
    5.0491    2.9695   24.6986 H   0  0  0  0  0  0  0  0  0  0  0  0
    5.4294    0.7291   20.1422 C   0  0  0  0  0  0  0  0  0  0  0  0
    4.9677    0.7583   21.1313 H   0  0  0  0  0  0  0  0  0  0  0  0
    4.8134    1.3458   19.0559 C   0  0  0  0  0  0  0  0  0  0  0  0
    3.8758    1.8776   19.1702 H   0  0  0  0  0  0  0  0  0  0  0  0
  1  2  1  0
  2  3  2  0
  3  4  1  0
  4  5  1  0
  4  6  2  0
  6  7  1  0
  7  8  1  0
  8  9  2  0
  9 10  1  0
 10 11  1  0
 11 12  1  0
 12 13  2  0
 12 14  1  0
 14 15  1  0
 14 16  1  0
 16 17  1  0
 16 18  1  0
 16 19  1  0
 19 20  2  0
 20 21  1  0
 20 22  1  0
 22 23  1  0
 22 24  2  0
 24 25  1  0
 24 26  1  0
 26 27  1  0
 26 28  2  0
 28 29  1  0
  6 30  1  0
 30 31  1  0
 30 32  2  0
 32 33  1  0
 32  2  1  0
 11  7  2  0
 28 19  1  0
M  END
>  <cnnaffinity>  (1) 
-4.74865

>  <filename>  (1) 
O=C(NCc1ccccc1)c1snnc1-c1cccnc1

$$$$
