
     RDKit          3D

 34 36  0  0  0  0  0  0  0  0999 V2000
    4.9565    1.8194   17.0198 H   0  0  0  0  0  0  0  0  0  0  0  0
    5.3977    1.2740   17.8496 C   0  0  0  0  0  0  0  0  0  0  0  0
    6.5384    0.6163   17.5876 N   0  0  0  0  0  0  0  0  0  0  0  0
    7.1128   -0.0436   18.5967 C   0  0  0  0  0  0  0  0  0  0  0  0
    8.0595   -0.5336   18.3813 H   0  0  0  0  0  0  0  0  0  0  0  0
    6.5708   -0.1149   19.9000 C   0  0  0  0  0  0  0  0  0  0  0  0
    7.2871   -0.7964   20.9537 N   0  0  0  0  0  0  0  0  0  0  0  0
    6.8834   -1.8109   21.8084 C   0  0  0  0  0  0  0  0  0  0  0  0
    5.6411   -2.3803   21.7403 N   0  0  0  0  0  0  0  0  0  0  0  0
    5.1246   -2.2768   20.8945 H   0  0  0  0  0  0  0  0  0  0  0  0
    5.2419   -3.3365   22.6634 C   0  0  0  0  0  0  0  0  0  0  0  0
    5.8403   -3.6273   23.6649 O   0  0  0  0  0  0  0  0  0  0  0  0
    4.0756   -3.9491   22.2390 N   0  0  0  0  0  0  0  0  0  0  0  0
    3.4584   -3.3848   21.6910 H   0  0  0  0  0  0  0  0  0  0  0  0
    3.4211   -4.9513   22.9886 C   0  0  0  0  0  0  0  0  0  0  0  0
    4.1656   -5.9909   23.5543 C   0  0  0  0  0  0  0  0  0  0  0  0
    5.2432   -5.9979   23.4391 H   0  0  0  0  0  0  0  0  0  0  0  0
    3.5305   -6.9958   24.2804 C   0  0  0  0  0  0  0  0  0  0  0  0
    4.1173   -7.7849   24.7352 H   0  0  0  0  0  0  0  0  0  0  0  0
    2.1432   -6.9559   24.4564 C   0  0  0  0  0  0  0  0  0  0  0  0
    1.3473   -8.1973   25.3827 Cl  0  0  0  0  0  0  0  0  0  0  0  0
    1.3911   -5.9111   23.9167 C   0  0  0  0  0  0  0  0  0  0  0  0
    0.3207   -5.8499   24.0976 H   0  0  0  0  0  0  0  0  0  0  0  0
    2.0290   -4.9269   23.1549 C   0  0  0  0  0  0  0  0  0  0  0  0
    1.4100   -4.1614   22.7029 H   0  0  0  0  0  0  0  0  0  0  0  0
    7.8016   -2.1582   22.6539 N   0  0  0  0  0  0  0  0  0  0  0  0
    8.8180   -1.3014   22.3563 N   0  0  0  0  0  0  0  0  0  0  0  0
    9.6689   -1.2945   22.8924 H   0  0  0  0  0  0  0  0  0  0  0  0
    8.5711   -0.4381   21.3617 C   0  0  0  0  0  0  0  0  0  0  0  0
    9.5703    0.7620   20.7984 S   0  0  0  0  0  0  0  0  0  0  0  0
    5.3858    0.5786   20.1630 C   0  0  0  0  0  0  0  0  0  0  0  0
    4.9624    0.5820   21.1706 H   0  0  0  0  0  0  0  0  0  0  0  0
    4.7916    1.2855   19.1094 C   0  0  0  0  0  0  0  0  0  0  0  0
    3.8871    1.8627   19.2595 H   0  0  0  0  0  0  0  0  0  0  0  0
  1  2  1  0
  2  3  2  0
  3  4  1  0
  4  5  1  0
  4  6  2  0
  6  7  1  0
  7  8  1  0
  8  9  1  0
  9 10  1  0
  9 11  1  0
 11 12  2  0
 11 13  1  0
 13 14  1  0
 13 15  1  0
 15 16  2  0
 16 17  1  0
 16 18  1  0
 18 19  1  0
 18 20  2  0
 20 21  1  0
 20 22  1  0
 22 23  1  0
 22 24  2  0
 24 25  1  0
  8 26  2  0
 26 27  1  0
 27 28  1  0
 27 29  1  0
 29 30  2  0
  6 31  1  0
 31 32  1  0
 31 33  2  0
 33 34  1  0
 33  2  1  0
 29  7  1  0
 24 15  1  0
M  END
>  <cnnaffinity>  (1) 
-5.5964

>  <filename>  (1) 
O=C(Nc1ccc(Cl)cc1)Nc1n[nH]c(=S)n1-c1cccnc1

$$$$
