
     RDKit          3D

 31 33  0  0  0  0  0  0  0  0999 V2000
    8.6524   -3.3016   22.0998 H   0  0  0  0  0  0  0  0  0  0  0  0
    8.2435   -2.3102   21.9208 C   0  0  0  0  0  0  0  0  0  0  0  0
    8.2176   -1.3520   22.8722 N   0  0  0  0  0  0  0  0  0  0  0  0
    7.6705   -0.3189   22.2405 C   0  0  0  0  0  0  0  0  0  0  0  0
    7.4799    1.1080   22.7507 C   0  0  0  0  0  0  0  0  0  0  0  0
    7.2823    2.0554   22.0083 O   0  0  0  0  0  0  0  0  0  0  0  0
    7.5356    1.2564   24.0964 N   0  0  0  0  0  0  0  0  0  0  0  0
    7.6998    0.4319   24.6520 H   0  0  0  0  0  0  0  0  0  0  0  0
    7.5036    2.5698   24.7264 C   0  0  0  0  0  0  0  0  0  0  0  0
    7.3676    2.4223   25.8027 H   0  0  0  0  0  0  0  0  0  0  0  0
    6.6273    3.1196   24.3575 H   0  0  0  0  0  0  0  0  0  0  0  0
    8.7450    3.4061   24.4711 C   0  0  0  0  0  0  0  0  0  0  0  0
    9.6798    2.8660   24.6113 H   0  0  0  0  0  0  0  0  0  0  0  0
    8.7173    4.8558   24.8760 C   0  0  0  0  0  0  0  0  0  0  0  0
    7.7955    5.2426   25.3105 H   0  0  0  0  0  0  0  0  0  0  0  0
    9.6161    5.2994   25.2992 H   0  0  0  0  0  0  0  0  0  0  0  0
    8.7180    4.4821   23.4192 C   0  0  0  0  0  0  0  0  0  0  0  0
    9.6083    4.6625   22.8220 H   0  0  0  0  0  0  0  0  0  0  0  0
    7.7917    4.5935   22.8538 H   0  0  0  0  0  0  0  0  0  0  0  0
    7.3550   -0.6829   20.9588 N   0  0  0  0  0  0  0  0  0  0  0  0
    6.6597    0.0133   19.9226 C   0  0  0  0  0  0  0  0  0  0  0  0
    7.1772    0.0389   18.6145 C   0  0  0  0  0  0  0  0  0  0  0  0
    8.1231   -0.4454   18.3777 H   0  0  0  0  0  0  0  0  0  0  0  0
    6.5728    0.6626   17.5991 N   0  0  0  0  0  0  0  0  0  0  0  0
    5.4055    1.2858   17.8458 C   0  0  0  0  0  0  0  0  0  0  0  0
    4.9311    1.7805   16.9995 H   0  0  0  0  0  0  0  0  0  0  0  0
    4.8095    1.2970   19.1060 C   0  0  0  0  0  0  0  0  0  0  0  0
    3.8837    1.8351   19.2598 H   0  0  0  0  0  0  0  0  0  0  0  0
    5.4353    0.6421   20.1711 C   0  0  0  0  0  0  0  0  0  0  0  0
    5.0034    0.6426   21.1698 H   0  0  0  0  0  0  0  0  0  0  0  0
    7.7465   -1.9555   20.7563 N   0  0  0  0  0  0  0  0  0  0  0  0
  1  2  1  0
  2  3  1  0
  3  4  2  0
  4  5  1  0
  5  6  2  0
  5  7  1  0
  7  8  1  0
  7  9  1  0
  9 10  1  0
  9 11  1  0
  9 12  1  0
 12 13  1  0
 12 14  1  0
 14 15  1  0
 14 16  1  0
 14 17  1  0
 17 18  1  0
 17 19  1  0
  4 20  1  0
 20 21  1  0
 21 22  2  0
 22 23  1  0
 22 24  1  0
 24 25  2  0
 25 26  1  0
 25 27  1  0
 27 28  1  0
 27 29  2  0
 29 30  1  0
 20 31  1  0
 31  2  2  0
 17 12  1  0
 29 21  1  0
M  END
>  <cnnaffinity>  (1) 
-4.8279

>  <filename>  (1) 
O=C(NCC1CC1)c1ncnn1-c1cccnc1

$$$$
