
     RDKit          3D

 40 41  0  0  0  0  0  0  0  0999 V2000
    5.0089    1.7176   17.0177 H   0  0  0  0  0  0  0  0  0  0  0  0
    5.4487    1.2493   17.8965 C   0  0  0  0  0  0  0  0  0  0  0  0
    6.6042    0.5997   17.6990 N   0  0  0  0  0  0  0  0  0  0  0  0
    7.1780    0.0254   18.7608 C   0  0  0  0  0  0  0  0  0  0  0  0
    8.1160   -0.4967   18.5859 H   0  0  0  0  0  0  0  0  0  0  0  0
    6.6357    0.0518   20.0503 C   0  0  0  0  0  0  0  0  0  0  0  0
    7.4526   -0.6193   21.0949 C   0  0  0  0  0  0  0  0  0  0  0  0
    8.6667   -0.7249   21.0051 O   0  0  0  0  0  0  0  0  0  0  0  0
    6.7327   -1.1588   22.1278 N   0  0  0  0  0  0  0  0  0  0  0  0
    5.8975   -0.6237   22.3049 H   0  0  0  0  0  0  0  0  0  0  0  0
    7.3978   -1.3613   23.3928 C   0  0  0  0  0  0  0  0  0  0  0  0
    8.2564   -2.0331   23.2913 H   0  0  0  0  0  0  0  0  0  0  0  0
    6.6715   -1.8248   24.0714 H   0  0  0  0  0  0  0  0  0  0  0  0
    7.8425   -0.0923   23.9375 N   0  0  0  0  0  0  0  0  0  0  0  0
    8.6327    0.2672   23.4234 H   0  0  0  0  0  0  0  0  0  0  0  0
    6.8873    0.9095   24.0250 C   0  0  0  0  0  0  0  0  0  0  0  0
    5.6926    0.7602   23.8191 O   0  0  0  0  0  0  0  0  0  0  0  0
    7.4325    2.0883   24.4331 N   0  0  0  0  0  0  0  0  0  0  0  0
    8.4173    2.1647   24.2667 H   0  0  0  0  0  0  0  0  0  0  0  0
    6.6548    3.3195   24.4493 C   0  0  0  0  0  0  0  0  0  0  0  0
    5.7765    3.1458   25.0848 H   0  0  0  0  0  0  0  0  0  0  0  0
    6.1215    3.7270   23.0428 C   0  0  0  0  0  0  0  0  0  0  0  0
    6.0797    2.8440   22.3921 H   0  0  0  0  0  0  0  0  0  0  0  0
    5.0824    4.0658   23.1647 H   0  0  0  0  0  0  0  0  0  0  0  0
    6.9394    4.8494   22.3877 C   0  0  0  0  0  0  0  0  0  0  0  0
    7.9663    4.4928   22.2102 H   0  0  0  0  0  0  0  0  0  0  0  0
    6.5157    5.0795   21.4020 H   0  0  0  0  0  0  0  0  0  0  0  0
    6.9667    6.1219   23.2742 C   0  0  0  0  0  0  0  0  0  0  0  0
    7.8690    6.6968   23.0300 H   0  0  0  0  0  0  0  0  0  0  0  0
    6.1088    6.7597   23.0226 H   0  0  0  0  0  0  0  0  0  0  0  0
    6.9281    5.8204   24.7995 C   0  0  0  0  0  0  0  0  0  0  0  0
    7.4739    6.5935   25.3539 H   0  0  0  0  0  0  0  0  0  0  0  0
    5.8866    5.8624   25.1558 H   0  0  0  0  0  0  0  0  0  0  0  0
    7.4972    4.4279   25.1177 C   0  0  0  0  0  0  0  0  0  0  0  0
    8.5399    4.3758   24.7645 H   0  0  0  0  0  0  0  0  0  0  0  0
    7.5240    4.2551   26.2008 H   0  0  0  0  0  0  0  0  0  0  0  0
    5.4156    0.7226   20.2443 C   0  0  0  0  0  0  0  0  0  0  0  0
    4.9439    0.7952   21.2314 H   0  0  0  0  0  0  0  0  0  0  0  0
    4.8107    1.3238   19.1411 C   0  0  0  0  0  0  0  0  0  0  0  0
    3.8642    1.8458   19.2203 H   0  0  0  0  0  0  0  0  0  0  0  0
  1  2  1  0
  2  3  2  0
  3  4  1  0
  4  5  1  0
  4  6  2  0
  6  7  1  0
  7  8  2  0
  7  9  1  0
  9 10  1  0
  9 11  1  0
 11 12  1  0
 11 13  1  0
 11 14  1  0
 14 15  1  0
 14 16  1  0
 16 17  2  0
 16 18  1  0
 18 19  1  0
 18 20  1  0
 20 21  1  0
 20 22  1  0
 22 23  1  0
 22 24  1  0
 22 25  1  0
 25 26  1  0
 25 27  1  0
 25 28  1  0
 28 29  1  0
 28 30  1  0
 28 31  1  0
 31 32  1  0
 31 33  1  0
 31 34  1  0
 34 35  1  0
 34 36  1  0
  6 37  1  0
 37 38  1  0
 37 39  2  0
 39 40  1  0
 39  2  1  0
 34 20  1  0
M  END
>  <cnnaffinity>  (1) 
-4.47243

>  <filename>  (1) 
O=C(NCNC(=O)c1cccnc1)NC1CCCCC1

$$$$
