
     RDKit          3D

 25 26  0  0  0  0  0  0  0  0999 V2000
    8.6442   -0.8526   20.7881 O   0  0  0  0  0  0  0  0  0  0  0  0
    7.4430   -0.7484   20.9622 C   0  0  0  0  0  0  0  0  0  0  0  0
    6.7873   -1.3210   22.0159 N   0  0  0  0  0  0  0  0  0  0  0  0
    7.3784   -2.0580   23.0600 C   0  0  0  0  0  0  0  0  0  0  0  0
    6.9515   -1.9015   24.3980 C   0  0  0  0  0  0  0  0  0  0  0  0
    5.7821   -0.6924   24.8050 Cl  0  0  0  0  0  0  0  0  0  0  0  0
    7.5574   -2.6744   25.4059 C   0  0  0  0  0  0  0  0  0  0  0  0
    7.0751   -2.5523   27.0637 Cl  0  0  0  0  0  0  0  0  0  0  0  0
    8.5932   -3.5597   25.0998 C   0  0  0  0  0  0  0  0  0  0  0  0
    9.0203   -3.6929   23.7804 C   0  0  0  0  0  0  0  0  0  0  0  0
    8.4156   -2.9530   22.7698 C   0  0  0  0  0  0  0  0  0  0  0  0
    8.7416   -3.0226   21.7440 H   0  0  0  0  0  0  0  0  0  0  0  0
    9.8435   -4.3554   23.5381 H   0  0  0  0  0  0  0  0  0  0  0  0
    9.0740   -4.1090   25.9020 H   0  0  0  0  0  0  0  0  0  0  0  0
    5.8004   -1.1445   22.0551 H   0  0  0  0  0  0  0  0  0  0  0  0
    6.5920   -0.0204   19.9826 C   0  0  0  0  0  0  0  0  0  0  0  0
    5.3737    0.6383   20.2085 C   0  0  0  0  0  0  0  0  0  0  0  0
    4.7853    1.2889   19.1247 C   0  0  0  0  0  0  0  0  0  0  0  0
    5.4234    1.2491   17.8799 C   0  0  0  0  0  0  0  0  0  0  0  0
    6.5824    0.6136   17.6528 N   0  0  0  0  0  0  0  0  0  0  0  0
    7.1547    0.0184   18.6989 C   0  0  0  0  0  0  0  0  0  0  0  0
    8.1152   -0.4662   18.5286 H   0  0  0  0  0  0  0  0  0  0  0  0
    4.9865    1.7742   17.0353 H   0  0  0  0  0  0  0  0  0  0  0  0
    3.8595    1.8419   19.2443 H   0  0  0  0  0  0  0  0  0  0  0  0
    4.9057    0.6909   21.1975 H   0  0  0  0  0  0  0  0  0  0  0  0
  1  2  2  0
  2  3  1  0
  3  4  1  0
  4  5  2  0
  5  6  1  0
  5  7  1  0
  7  8  1  0
  7  9  2  0
  9 10  1  0
 10 11  2  0
 11 12  1  0
 10 13  1  0
  9 14  1  0
  3 15  1  0
  2 16  1  0
 16 17  2  0
 17 18  1  0
 18 19  2  0
 19 20  1  0
 20 21  2  0
 21 22  1  0
 19 23  1  0
 18 24  1  0
 17 25  1  0
 11  4  1  0
 21 16  1  0
M  END
>  <cnnaffinity>  (1) 
-4.956

>  <filename>  (1) 
O=C(Nc1cccc(Cl)c1Cl)c1cccnc1

$$$$
