
     RDKit          3D

 37 38  0  0  0  0  0  0  0  0999 V2000
    4.9078    1.7084   16.8388 H   0  0  0  0  0  0  0  0  0  0  0  0
    5.3879    1.2348   17.6930 C   0  0  0  0  0  0  0  0  0  0  0  0
    6.5441    0.6104   17.4410 N   0  0  0  0  0  0  0  0  0  0  0  0
    7.1884    0.0466   18.4594 C   0  0  0  0  0  0  0  0  0  0  0  0
    8.1311   -0.4481   18.2346 H   0  0  0  0  0  0  0  0  0  0  0  0
    6.6793    0.0827   19.7534 C   0  0  0  0  0  0  0  0  0  0  0  0
    7.7494   -0.5091   21.0094 S   0  0  0  0  0  0  0  0  0  0  0  0
    9.0547   -0.7206   20.3892 O   0  0  0  0  0  0  0  0  0  0  0  0
    7.5708    0.3532   22.1682 O   0  0  0  0  0  0  0  0  0  0  0  0
    7.0308   -2.2319   21.3967 C   0  0  0  0  0  0  0  0  0  0  0  0
    7.0293   -2.6586   20.3890 H   0  0  0  0  0  0  0  0  0  0  0  0
    6.0188   -1.9841   21.7247 H   0  0  0  0  0  0  0  0  0  0  0  0
    7.5966   -3.1899   22.3586 N   0  0  0  0  0  0  0  0  0  0  0  0
    8.4531   -3.6836   22.1419 H   0  0  0  0  0  0  0  0  0  0  0  0
    7.0271   -3.5129   23.5880 C   0  0  0  0  0  0  0  0  0  0  0  0
    5.8982   -3.1849   23.8878 O   0  0  0  0  0  0  0  0  0  0  0  0
    7.9742   -4.2223   24.5629 C   0  0  0  0  0  0  0  0  0  0  0  0
    8.7709   -4.7174   23.9878 H   0  0  0  0  0  0  0  0  0  0  0  0
    7.2726   -5.3150   25.3973 C   0  0  0  0  0  0  0  0  0  0  0  0
    6.8971   -6.1048   24.7389 H   0  0  0  0  0  0  0  0  0  0  0  0
    6.3913   -4.8933   25.8991 H   0  0  0  0  0  0  0  0  0  0  0  0
    8.2422   -5.9083   26.4302 C   0  0  0  0  0  0  0  0  0  0  0  0
    9.0996   -6.3406   25.8905 H   0  0  0  0  0  0  0  0  0  0  0  0
    7.7701   -6.7236   26.9879 H   0  0  0  0  0  0  0  0  0  0  0  0
    8.7676   -4.8365   27.3922 C   0  0  0  0  0  0  0  0  0  0  0  0
    9.4399   -5.2878   28.1354 H   0  0  0  0  0  0  0  0  0  0  0  0
    7.9251   -4.4121   27.9599 H   0  0  0  0  0  0  0  0  0  0  0  0
    9.4906   -3.7361   26.6049 C   0  0  0  0  0  0  0  0  0  0  0  0
   10.4153   -4.1620   26.1835 H   0  0  0  0  0  0  0  0  0  0  0  0
    9.7876   -2.9287   27.2824 H   0  0  0  0  0  0  0  0  0  0  0  0
    8.6291   -3.1465   25.4752 C   0  0  0  0  0  0  0  0  0  0  0  0
    7.8341   -2.5247   25.9122 H   0  0  0  0  0  0  0  0  0  0  0  0
    9.2481   -2.4805   24.8600 H   0  0  0  0  0  0  0  0  0  0  0  0
    5.4626    0.7088   20.0378 C   0  0  0  0  0  0  0  0  0  0  0  0
    5.0651    0.7844   21.0526 H   0  0  0  0  0  0  0  0  0  0  0  0
    4.7988    1.2830   18.9586 C   0  0  0  0  0  0  0  0  0  0  0  0
    3.8720    1.8204   19.0959 H   0  0  0  0  0  0  0  0  0  0  0  0
  1  2  1  0
  2  3  2  0
  3  4  1  0
  4  5  1  0
  4  6  2  0
  6  7  1  0
  7  8  2  0
  7  9  2  0
  7 10  1  0
 10 11  1  0
 10 12  1  0
 10 13  1  0
 13 14  1  0
 13 15  1  0
 15 16  2  0
 15 17  1  0
 17 18  1  0
 17 19  1  0
 19 20  1  0
 19 21  1  0
 19 22  1  0
 22 23  1  0
 22 24  1  0
 22 25  1  0
 25 26  1  0
 25 27  1  0
 25 28  1  0
 28 29  1  0
 28 30  1  0
 28 31  1  0
 31 32  1  0
 31 33  1  0
  6 34  1  0
 34 35  1  0
 34 36  2  0
 36 37  1  0
 36  2  1  0
 31 17  1  0
M  END
>  <cnnaffinity>  (1) 
-4.65272

>  <filename>  (1) 
O=C(NCS(=O)(=O)c1cccnc1)C1CCCCC1

$$$$
