
     RDKit          3D

 37 39  0  0  0  0  0  0  0  0999 V2000
    5.5670    2.7682   16.0908 H   0  0  0  0  0  0  0  0  0  0  0  0
    5.5576    2.0015   16.8625 C   0  0  0  0  0  0  0  0  0  0  0  0
    6.4043    0.9769   16.6978 N   0  0  0  0  0  0  0  0  0  0  0  0
    6.4192    0.0345   17.6441 C   0  0  0  0  0  0  0  0  0  0  0  0
    7.1183   -0.7845   17.4859 H   0  0  0  0  0  0  0  0  0  0  0  0
    5.6377    0.0712   18.8008 C   0  0  0  0  0  0  0  0  0  0  0  0
    5.8911   -1.0583   19.7502 C   0  0  0  0  0  0  0  0  0  0  0  0
    5.9534   -2.2129   19.3798 O   0  0  0  0  0  0  0  0  0  0  0  0
    6.0752   -0.6644   21.0513 N   0  0  0  0  0  0  0  0  0  0  0  0
    6.3554    0.2992   21.1282 H   0  0  0  0  0  0  0  0  0  0  0  0
    6.8229   -1.5177   21.9403 C   0  0  0  0  0  0  0  0  0  0  0  0
    6.5178   -2.5583   21.7904 H   0  0  0  0  0  0  0  0  0  0  0  0
    6.5650   -1.2496   22.9769 H   0  0  0  0  0  0  0  0  0  0  0  0
    8.2729   -1.4289   21.7289 N   0  0  0  0  0  0  0  0  0  0  0  0
    8.9849   -2.1420   22.8101 C   0  0  0  0  0  0  0  0  0  0  0  0
    8.5884   -3.1609   22.9083 H   0  0  0  0  0  0  0  0  0  0  0  0
   10.0362   -2.2760   22.5137 H   0  0  0  0  0  0  0  0  0  0  0  0
    8.9351   -1.4162   24.1620 C   0  0  0  0  0  0  0  0  0  0  0  0
    9.1379   -2.1179   25.3590 C   0  0  0  0  0  0  0  0  0  0  0  0
    9.4211   -3.1698   25.3360 H   0  0  0  0  0  0  0  0  0  0  0  0
    8.9534   -1.4752   26.5877 C   0  0  0  0  0  0  0  0  0  0  0  0
    9.0909   -2.0251   27.5105 H   0  0  0  0  0  0  0  0  0  0  0  0
    8.5258   -0.1474   26.6285 C   0  0  0  0  0  0  0  0  0  0  0  0
    8.3596    0.3465   27.5845 H   0  0  0  0  0  0  0  0  0  0  0  0
    8.3257    0.5584   25.4385 C   0  0  0  0  0  0  0  0  0  0  0  0
    7.9383    1.5747   25.4757 H   0  0  0  0  0  0  0  0  0  0  0  0
    8.6061   -0.0392   24.1979 C   0  0  0  0  0  0  0  0  0  0  0  0
    8.4952    0.7720   22.9016 C   0  0  0  0  0  0  0  0  0  0  0  0
    7.4744    1.1699   22.8056 H   0  0  0  0  0  0  0  0  0  0  0  0
    9.1436    1.6555   22.9445 H   0  0  0  0  0  0  0  0  0  0  0  0
    8.8467   -0.0703   21.6614 C   0  0  0  0  0  0  0  0  0  0  0  0
    8.5718    0.4248   20.7231 H   0  0  0  0  0  0  0  0  0  0  0  0
    9.9388   -0.1950   21.6101 H   0  0  0  0  0  0  0  0  0  0  0  0
    4.7226    1.1311   18.9453 C   0  0  0  0  0  0  0  0  0  0  0  0
    4.0413    1.2121   19.7931 H   0  0  0  0  0  0  0  0  0  0  0  0
    4.6906    2.1103   17.9521 C   0  0  0  0  0  0  0  0  0  0  0  0
    4.0269    2.9673   18.0127 H   0  0  0  0  0  0  0  0  0  0  0  0
  1  2  1  0
  2  3  2  0
  3  4  1  0
  4  5  1  0
  4  6  2  0
  6  7  1  0
  7  8  2  0
  7  9  1  0
  9 10  1  0
  9 11  1  0
 11 12  1  0
 11 13  1  0
 11 14  1  0
 14 15  1  0
 15 16  1  0
 15 17  1  0
 15 18  1  0
 18 19  2  0
 19 20  1  0
 19 21  1  0
 21 22  1  0
 21 23  2  0
 23 24  1  0
 23 25  1  0
 25 26  1  0
 25 27  2  0
 27 28  1  0
 28 29  1  0
 28 30  1  0
 28 31  1  0
 31 32  1  0
 31 33  1  0
  6 34  1  0
 34 35  1  0
 34 36  2  0
 36 37  1  0
 36  2  1  0
 31 14  1  0
 27 18  1  0
M  END
>  <cnnaffinity>  (1) 
-4.87921

>  <filename>  (1) 
O=C(NCN1CCc2ccccc2C1)c1cccnc1

$$$$
