
     RDKit          3D

 40 41  0  0  0  0  0  0  0  0999 V2000
    8.8979    0.2754   21.3126 H   0  0  0  0  0  0  0  0  0  0  0  0
    8.6539   -0.6118   20.9974 O   0  0  0  0  0  0  0  0  0  0  0  0
    7.2478   -0.6228   21.0649 N   0  0  0  0  0  0  0  0  0  0  0  0
    6.6245   -1.6881   21.7863 C   0  0  0  0  0  0  0  0  0  0  0  0
    5.4987   -2.0633   21.5315 O   0  0  0  0  0  0  0  0  0  0  0  0
    7.4034   -2.1606   22.8377 N   0  0  0  0  0  0  0  0  0  0  0  0
    8.3949   -2.1331   22.6507 H   0  0  0  0  0  0  0  0  0  0  0  0
    6.9690   -3.1091   23.7808 N   0  0  0  0  0  0  0  0  0  0  0  0
    6.3233   -2.7124   24.4526 H   0  0  0  0  0  0  0  0  0  0  0  0
    6.5534   -4.4062   23.4048 C   0  0  0  0  0  0  0  0  0  0  0  0
    6.8503   -4.9608   22.3682 O   0  0  0  0  0  0  0  0  0  0  0  0
    5.8021   -4.9844   24.3968 N   0  0  0  0  0  0  0  0  0  0  0  0
    5.4747   -4.3714   25.1230 H   0  0  0  0  0  0  0  0  0  0  0  0
    4.9710   -6.1401   24.0955 C   0  0  0  0  0  0  0  0  0  0  0  0
    5.5895   -6.8221   23.4983 H   0  0  0  0  0  0  0  0  0  0  0  0
    4.5452   -6.8357   25.4020 C   0  0  0  0  0  0  0  0  0  0  0  0
    5.4262   -7.3301   25.8212 H   0  0  0  0  0  0  0  0  0  0  0  0
    4.2623   -6.0550   26.1193 H   0  0  0  0  0  0  0  0  0  0  0  0
    3.3610   -7.8276   25.2207 C   0  0  0  0  0  0  0  0  0  0  0  0
    2.4420   -7.3687   25.6056 H   0  0  0  0  0  0  0  0  0  0  0  0
    3.5166   -8.7204   25.8344 H   0  0  0  0  0  0  0  0  0  0  0  0
    3.1879   -8.2042   23.7416 C   0  0  0  0  0  0  0  0  0  0  0  0
    2.4575   -9.0063   23.5954 H   0  0  0  0  0  0  0  0  0  0  0  0
    4.1535   -8.5823   23.3996 H   0  0  0  0  0  0  0  0  0  0  0  0
    2.8828   -6.9846   22.8512 C   0  0  0  0  0  0  0  0  0  0  0  0
    3.0882   -7.2560   21.8071 H   0  0  0  0  0  0  0  0  0  0  0  0
    1.8184   -6.7251   22.9081 H   0  0  0  0  0  0  0  0  0  0  0  0
    3.7302   -5.7543   23.2656 C   0  0  0  0  0  0  0  0  0  0  0  0
    4.0379   -5.1607   22.3950 H   0  0  0  0  0  0  0  0  0  0  0  0
    3.1201   -5.0939   23.8940 H   0  0  0  0  0  0  0  0  0  0  0  0
    6.6249    0.0203   19.9540 C   0  0  0  0  0  0  0  0  0  0  0  0
    7.2732    0.0836   18.7035 C   0  0  0  0  0  0  0  0  0  0  0  0
    8.2500   -0.3799   18.5846 H   0  0  0  0  0  0  0  0  0  0  0  0
    6.7501    0.6885   17.6339 N   0  0  0  0  0  0  0  0  0  0  0  0
    5.5582    1.2924   17.7749 C   0  0  0  0  0  0  0  0  0  0  0  0
    5.1630    1.7911   16.8897 H   0  0  0  0  0  0  0  0  0  0  0  0
    4.8532    1.3112   18.9836 C   0  0  0  0  0  0  0  0  0  0  0  0
    3.9098    1.8403   19.0375 H   0  0  0  0  0  0  0  0  0  0  0  0
    5.3780    0.6484   20.0979 C   0  0  0  0  0  0  0  0  0  0  0  0
    4.8614    0.6353   21.0585 H   0  0  0  0  0  0  0  0  0  0  0  0
  1  2  1  0
  2  3  1  0
  3  4  1  0
  4  5  2  0
  4  6  1  0
  6  7  1  0
  6  8  1  0
  8  9  1  0
  8 10  1  0
 10 11  2  0
 10 12  1  0
 12 13  1  0
 12 14  1  0
 14 15  1  0
 14 16  1  0
 16 17  1  0
 16 18  1  0
 16 19  1  0
 19 20  1  0
 19 21  1  0
 19 22  1  0
 22 23  1  0
 22 24  1  0
 22 25  1  0
 25 26  1  0
 25 27  1  0
 25 28  1  0
 28 29  1  0
 28 30  1  0
  3 31  1  0
 31 32  2  0
 32 33  1  0
 32 34  1  0
 34 35  2  0
 35 36  1  0
 35 37  1  0
 37 38  1  0
 37 39  2  0
 39 40  1  0
 28 14  1  0
 39 31  1  0
M  END
>  <cnnaffinity>  (1) 
-4.97541

>  <filename>  (1) 
O=C(NNC(=O)N(O)c1cccnc1)NC1CCCCC1

$$$$
