
     RDKit          3D

 34 36  0  0  0  0  0  0  0  0999 V2000
    8.7741   -3.2234   22.1655 H   0  0  0  0  0  0  0  0  0  0  0  0
    8.3364   -2.2700   21.9086 C   0  0  0  0  0  0  0  0  0  0  0  0
    7.9222   -1.8728   20.7542 N   0  0  0  0  0  0  0  0  0  0  0  0
    7.3846   -0.6248   20.9851 C   0  0  0  0  0  0  0  0  0  0  0  0
    6.6560    0.0628   19.9230 C   0  0  0  0  0  0  0  0  0  0  0  0
    7.1548    0.0388   18.6065 C   0  0  0  0  0  0  0  0  0  0  0  0
    8.0854   -0.4739   18.3753 H   0  0  0  0  0  0  0  0  0  0  0  0
    6.5562    0.6517   17.5831 N   0  0  0  0  0  0  0  0  0  0  0  0
    5.4069    1.2984   17.8247 C   0  0  0  0  0  0  0  0  0  0  0  0
    4.9573    1.8079   16.9753 H   0  0  0  0  0  0  0  0  0  0  0  0
    4.7965    1.3342   19.0826 C   0  0  0  0  0  0  0  0  0  0  0  0
    3.8671    1.8750   19.2250 H   0  0  0  0  0  0  0  0  0  0  0  0
    5.4284    0.7029   20.1510 C   0  0  0  0  0  0  0  0  0  0  0  0
    4.9873    0.7163   21.1488 H   0  0  0  0  0  0  0  0  0  0  0  0
    7.5683   -0.3166   22.3063 C   0  0  0  0  0  0  0  0  0  0  0  0
    7.2391    0.9124   23.0507 C   0  0  0  0  0  0  0  0  0  0  0  0
    6.9222    0.9353   24.2300 O   0  0  0  0  0  0  0  0  0  0  0  0
    7.3230    2.0521   22.3112 N   0  0  0  0  0  0  0  0  0  0  0  0
    7.4853    1.9496   21.3235 H   0  0  0  0  0  0  0  0  0  0  0  0
    6.7625    3.2968   22.8308 C   0  0  0  0  0  0  0  0  0  0  0  0
    7.1089    3.4074   23.8606 H   0  0  0  0  0  0  0  0  0  0  0  0
    7.1884    4.1223   22.2466 H   0  0  0  0  0  0  0  0  0  0  0  0
    5.2401    3.3338   22.7859 C   0  0  0  0  0  0  0  0  0  0  0  0
    4.4206    2.9775   23.8740 C   0  0  0  0  0  0  0  0  0  0  0  0
    4.8719    2.6583   24.8091 H   0  0  0  0  0  0  0  0  0  0  0  0
    3.0247    3.0137   23.7631 C   0  0  0  0  0  0  0  0  0  0  0  0
    2.3982    2.7190   24.6042 H   0  0  0  0  0  0  0  0  0  0  0  0
    2.4264    3.4246   22.5669 C   0  0  0  0  0  0  0  0  0  0  0  0
    1.3428    3.4499   22.4686 H   0  0  0  0  0  0  0  0  0  0  0  0
    3.2302    3.7881   21.4817 C   0  0  0  0  0  0  0  0  0  0  0  0
    2.7837    4.1237   20.5470 H   0  0  0  0  0  0  0  0  0  0  0  0
    4.6199    3.7249   21.5955 C   0  0  0  0  0  0  0  0  0  0  0  0
    5.2652    3.9777   20.7647 H   0  0  0  0  0  0  0  0  0  0  0  0
    8.1678   -1.3972   22.9045 O   0  0  0  0  0  0  0  0  0  0  0  0
  1  2  1  0
  2  3  2  0
  3  4  1  0
  4  5  1  0
  5  6  2  0
  6  7  1  0
  6  8  1  0
  8  9  2  0
  9 10  1  0
  9 11  1  0
 11 12  1  0
 11 13  2  0
 13 14  1  0
  4 15  2  0
 15 16  1  0
 16 17  2  0
 16 18  1  0
 18 19  1  0
 18 20  1  0
 20 21  1  0
 20 22  1  0
 20 23  1  0
 23 24  2  0
 24 25  1  0
 24 26  1  0
 26 27  1  0
 26 28  2  0
 28 29  1  0
 28 30  1  0
 30 31  1  0
 30 32  2  0
 32 33  1  0
 15 34  1  0
 34  2  1  0
 13  5  1  0
 32 23  1  0
M  END
>  <cnnaffinity>  (1) 
-4.69248

>  <filename>  (1) 
O=C(NCc1ccccc1)c1ocnc1-c1cccnc1

$$$$
