
     RDKit          3D

 38 40  0  0  0  0  0  0  0  0999 V2000
    5.0654    2.5925   16.0980 H   0  0  0  0  0  0  0  0  0  0  0  0
    5.3341    1.9617   16.9438 C   0  0  0  0  0  0  0  0  0  0  0  0
    6.3642    1.1215   16.7561 N   0  0  0  0  0  0  0  0  0  0  0  0
    6.7396    0.3694   17.7932 C   0  0  0  0  0  0  0  0  0  0  0  0
    7.5492   -0.3330   17.5949 H   0  0  0  0  0  0  0  0  0  0  0  0
    6.1306    0.4118   19.0623 C   0  0  0  0  0  0  0  0  0  0  0  0
    6.6756   -0.3647   20.1821 C   0  0  0  0  0  0  0  0  0  0  0  0
    5.9063   -0.9993   21.1293 C   0  0  0  0  0  0  0  0  0  0  0  0
    4.8329   -0.9129   21.0732 H   0  0  0  0  0  0  0  0  0  0  0  0
    6.5219   -1.6961   22.1882 C   0  0  0  0  0  0  0  0  0  0  0  0
    5.9170   -2.1358   22.9865 H   0  0  0  0  0  0  0  0  0  0  0  0
    7.9022   -1.7671   22.2518 C   0  0  0  0  0  0  0  0  0  0  0  0
    8.6330   -2.1556   23.4581 C   0  0  0  0  0  0  0  0  0  0  0  0
    8.2318   -1.7829   24.5496 O   0  0  0  0  0  0  0  0  0  0  0  0
    9.7475   -2.9157   23.2566 N   0  0  0  0  0  0  0  0  0  0  0  0
   10.1827   -2.6260   22.3860 H   0  0  0  0  0  0  0  0  0  0  0  0
   10.6545   -3.1083   24.3894 C   0  0  0  0  0  0  0  0  0  0  0  0
   11.6006   -3.4887   23.9892 H   0  0  0  0  0  0  0  0  0  0  0  0
   10.8395   -2.1267   24.8447 H   0  0  0  0  0  0  0  0  0  0  0  0
   10.1155   -4.0823   25.4267 C   0  0  0  0  0  0  0  0  0  0  0  0
    9.3157   -3.6302   26.4907 C   0  0  0  0  0  0  0  0  0  0  0  0
    9.1081   -2.5696   26.5881 H   0  0  0  0  0  0  0  0  0  0  0  0
    8.7103   -4.5369   27.3640 C   0  0  0  0  0  0  0  0  0  0  0  0
    8.1019   -4.1601   28.1824 H   0  0  0  0  0  0  0  0  0  0  0  0
    8.8764   -5.9102   27.1692 C   0  0  0  0  0  0  0  0  0  0  0  0
    8.3824   -6.6226   27.8282 H   0  0  0  0  0  0  0  0  0  0  0  0
    9.7081   -6.3716   26.1405 C   0  0  0  0  0  0  0  0  0  0  0  0
    9.8261   -7.4434   25.9975 H   0  0  0  0  0  0  0  0  0  0  0  0
   10.3557   -5.4579   25.3031 C   0  0  0  0  0  0  0  0  0  0  0  0
   11.0612   -5.8081   24.5543 H   0  0  0  0  0  0  0  0  0  0  0  0
    8.7178   -1.1766   21.2369 C   0  0  0  0  0  0  0  0  0  0  0  0
    9.9438   -1.2272   21.1576 O   0  0  0  0  0  0  0  0  0  0  0  0
    8.0392   -0.4518   20.2856 N   0  0  0  0  0  0  0  0  0  0  0  0
    8.6724    0.0653   19.6992 H   0  0  0  0  0  0  0  0  0  0  0  0
    4.9984    1.2320   19.2102 C   0  0  0  0  0  0  0  0  0  0  0  0
    4.4517    1.2691   20.1549 H   0  0  0  0  0  0  0  0  0  0  0  0
    4.6060    2.0284   18.1357 C   0  0  0  0  0  0  0  0  0  0  0  0
    3.7565    2.6998   18.2036 H   0  0  0  0  0  0  0  0  0  0  0  0
  1  2  1  0
  2  3  2  0
  3  4  1  0
  4  5  1  0
  4  6  2  0
  6  7  1  0
  7  8  2  0
  8  9  1  0
  8 10  1  0
 10 11  1  0
 10 12  2  0
 12 13  1  0
 13 14  2  0
 13 15  1  0
 15 16  1  0
 15 17  1  0
 17 18  1  0
 17 19  1  0
 17 20  1  0
 20 21  2  0
 21 22  1  0
 21 23  1  0
 23 24  1  0
 23 25  2  0
 25 26  1  0
 25 27  1  0
 27 28  1  0
 27 29  2  0
 29 30  1  0
 12 31  1  0
 31 32  2  0
 31 33  1  0
 33 34  1  0
  6 35  1  0
 35 36  1  0
 35 37  2  0
 37 38  1  0
 37  2  1  0
 33  7  1  0
 29 20  1  0
M  END
>  <cnnaffinity>  (1) 
-5.16426

>  <filename>  (1) 
O=C(NCc1ccccc1)c1ccc(-c2cccnc2)[nH]c1=O

$$$$
