
     RDKit          3D

 33 35  0  0  0  0  0  0  0  0999 V2000
    4.9180    1.7789   16.9990 H   0  0  0  0  0  0  0  0  0  0  0  0
    5.4050    1.2901   17.8434 C   0  0  0  0  0  0  0  0  0  0  0  0
    6.5725    0.6716   17.5887 N   0  0  0  0  0  0  0  0  0  0  0  0
    7.1816    0.0503   18.6025 C   0  0  0  0  0  0  0  0  0  0  0  0
    8.1270   -0.4416   18.3822 H   0  0  0  0  0  0  0  0  0  0  0  0
    6.6592    0.0138   19.9108 C   0  0  0  0  0  0  0  0  0  0  0  0
    7.3464   -0.6837   20.9564 N   0  0  0  0  0  0  0  0  0  0  0  0
    7.8224   -1.9263   20.7592 N   0  0  0  0  0  0  0  0  0  0  0  0
    8.2989   -2.3333   21.8798 N   0  0  0  0  0  0  0  0  0  0  0  0
    8.1575   -1.3987   22.8376 N   0  0  0  0  0  0  0  0  0  0  0  0
    7.5754   -0.3643   22.2604 C   0  0  0  0  0  0  0  0  0  0  0  0
    7.3043    0.9957   22.8566 C   0  0  0  0  0  0  0  0  0  0  0  0
    7.1912    1.9904   22.1593 O   0  0  0  0  0  0  0  0  0  0  0  0
    7.1948    1.0578   24.2078 N   0  0  0  0  0  0  0  0  0  0  0  0
    7.3397    0.2187   24.7402 H   0  0  0  0  0  0  0  0  0  0  0  0
    6.7155    2.2705   24.8714 C   0  0  0  0  0  0  0  0  0  0  0  0
    7.3349    3.1144   24.5565 H   0  0  0  0  0  0  0  0  0  0  0  0
    6.8644    2.1572   25.9477 H   0  0  0  0  0  0  0  0  0  0  0  0
    5.2545    2.5440   24.5763 C   0  0  0  0  0  0  0  0  0  0  0  0
    4.8761    3.5440   23.6660 C   0  0  0  0  0  0  0  0  0  0  0  0
    5.6448    4.1494   23.1867 H   0  0  0  0  0  0  0  0  0  0  0  0
    3.5294    3.7336   23.3409 C   0  0  0  0  0  0  0  0  0  0  0  0
    3.2537    4.5089   22.6294 H   0  0  0  0  0  0  0  0  0  0  0  0
    2.5475    2.9289   23.9293 C   0  0  0  0  0  0  0  0  0  0  0  0
    1.5007    3.0801   23.6796 H   0  0  0  0  0  0  0  0  0  0  0  0
    2.9162    1.9324   24.8406 C   0  0  0  0  0  0  0  0  0  0  0  0
    2.1581    1.2989   25.2951 H   0  0  0  0  0  0  0  0  0  0  0  0
    4.2631    1.7360   25.1561 C   0  0  0  0  0  0  0  0  0  0  0  0
    4.5484    0.9462   25.8503 H   0  0  0  0  0  0  0  0  0  0  0  0
    5.4393    0.6419   20.1678 C   0  0  0  0  0  0  0  0  0  0  0  0
    5.0061    0.6349   21.1702 H   0  0  0  0  0  0  0  0  0  0  0  0
    4.8080    1.3012   19.1073 C   0  0  0  0  0  0  0  0  0  0  0  0
    3.8784    1.8398   19.2628 H   0  0  0  0  0  0  0  0  0  0  0  0
  1  2  1  0
  2  3  2  0
  3  4  1  0
  4  5  1  0
  4  6  2  0
  6  7  1  0
  7  8  1  0
  8  9  2  0
  9 10  1  0
 10 11  2  0
 11 12  1  0
 12 13  2  0
 12 14  1  0
 14 15  1  0
 14 16  1  0
 16 17  1  0
 16 18  1  0
 16 19  1  0
 19 20  2  0
 20 21  1  0
 20 22  1  0
 22 23  1  0
 22 24  2  0
 24 25  1  0
 24 26  1  0
 26 27  1  0
 26 28  2  0
 28 29  1  0
  6 30  1  0
 30 31  1  0
 30 32  2  0
 32 33  1  0
 32  2  1  0
 11  7  1  0
 28 19  1  0
M  END
>  <cnnaffinity>  (1) 
-5.03037

>  <filename>  (1) 
O=C(NCc1ccccc1)c1nnnn1-c1cccnc1

$$$$
