
     RDKit          3D

 40 43  0  0  0  0  0  0  0  0999 V2000
    4.9525    1.7705   16.9852 H   0  0  0  0  0  0  0  0  0  0  0  0
    5.4115    1.2756   17.8396 C   0  0  0  0  0  0  0  0  0  0  0  0
    6.5708    0.6437   17.6086 N   0  0  0  0  0  0  0  0  0  0  0  0
    7.1666    0.0589   18.6533 C   0  0  0  0  0  0  0  0  0  0  0  0
    8.1164   -0.4256   18.4336 H   0  0  0  0  0  0  0  0  0  0  0  0
    6.6614    0.0694   19.9670 C   0  0  0  0  0  0  0  0  0  0  0  0
    7.4258   -0.6093   21.0327 C   0  0  0  0  0  0  0  0  0  0  0  0
    8.2868   -1.6450   20.9367 C   0  0  0  0  0  0  0  0  0  0  0  0
    8.6815   -2.0926   20.0494 H   0  0  0  0  0  0  0  0  0  0  0  0
    8.8649   -2.2178   22.4738 S   0  0  0  0  0  0  0  0  0  0  0  0
    8.0427   -0.9216   23.2665 C   0  0  0  0  0  0  0  0  0  0  0  0
    8.0186   -0.3529   24.4589 N   0  0  0  0  0  0  0  0  0  0  0  0
    7.2326    0.7073   24.1920 C   0  0  0  0  0  0  0  0  0  0  0  0
    7.0021    1.5690   25.2085 N   0  0  0  0  0  0  0  0  0  0  0  0
    7.4676    1.3200   26.0554 H   0  0  0  0  0  0  0  0  0  0  0  0
    6.1828    2.6536   25.1038 C   0  0  0  0  0  0  0  0  0  0  0  0
    5.5575    2.8993   24.0984 O   0  0  0  0  0  0  0  0  0  0  0  0
    6.1000    3.4735   26.3959 C   0  0  0  0  0  0  0  0  0  0  0  0
    7.0721    3.3607   26.8968 H   0  0  0  0  0  0  0  0  0  0  0  0
    5.8546    4.9663   26.0861 C   0  0  0  0  0  0  0  0  0  0  0  0
    6.0298    5.5446   27.0041 H   0  0  0  0  0  0  0  0  0  0  0  0
    6.5904    5.3139   25.3498 H   0  0  0  0  0  0  0  0  0  0  0  0
    4.4335    5.2334   25.5558 C   0  0  0  0  0  0  0  0  0  0  0  0
    4.2920    6.3125   25.4288 H   0  0  0  0  0  0  0  0  0  0  0  0
    4.3451    4.7760   24.5654 H   0  0  0  0  0  0  0  0  0  0  0  0
    3.3579    4.6387   26.4757 C   0  0  0  0  0  0  0  0  0  0  0  0
    3.3865    5.1568   27.4466 H   0  0  0  0  0  0  0  0  0  0  0  0
    2.3602    4.8111   26.0528 H   0  0  0  0  0  0  0  0  0  0  0  0
    3.5907    3.1370   26.7069 C   0  0  0  0  0  0  0  0  0  0  0  0
    3.5024    2.6034   25.7487 H   0  0  0  0  0  0  0  0  0  0  0  0
    2.8209    2.7219   27.3685 H   0  0  0  0  0  0  0  0  0  0  0  0
    4.9855    2.8877   27.3039 C   0  0  0  0  0  0  0  0  0  0  0  0
    5.0502    3.3645   28.2943 H   0  0  0  0  0  0  0  0  0  0  0  0
    5.1465    1.8121   27.4606 H   0  0  0  0  0  0  0  0  0  0  0  0
    6.7611    0.8620   22.9689 N   0  0  0  0  0  0  0  0  0  0  0  0
    7.3028   -0.2336   22.3706 N   0  0  0  0  0  0  0  0  0  0  0  0
    5.4328    0.7262   20.1875 C   0  0  0  0  0  0  0  0  0  0  0  0
    5.0188    0.7908   21.1973 H   0  0  0  0  0  0  0  0  0  0  0  0
    4.7985    1.3213   19.0972 C   0  0  0  0  0  0  0  0  0  0  0  0
    3.8540    1.8396   19.2145 H   0  0  0  0  0  0  0  0  0  0  0  0
  1  2  1  0
  2  3  2  0
  3  4  1  0
  4  5  1  0
  4  6  2  0
  6  7  1  0
  7  8  2  0
  8  9  1  0
  8 10  1  0
 10 11  1  0
 11 12  2  0
 12 13  1  0
 13 14  1  0
 14 15  1  0
 14 16  1  0
 16 17  2  0
 16 18  1  0
 18 19  1  0
 18 20  1  0
 20 21  1  0
 20 22  1  0
 20 23  1  0
 23 24  1  0
 23 25  1  0
 23 26  1  0
 26 27  1  0
 26 28  1  0
 26 29  1  0
 29 30  1  0
 29 31  1  0
 29 32  1  0
 32 33  1  0
 32 34  1  0
 13 35  2  0
 35 36  1  0
  6 37  1  0
 37 38  1  0
 37 39  2  0
 39 40  1  0
 39  2  1  0
 36  7  1  0
 36 11  1  0
 32 18  1  0
M  END
>  <cnnaffinity>  (1) 
-5.5101

>  <filename>  (1) 
O=C(Nc1nc2scc(-c3cccnc3)n2n1)C1CCCCC1

$$$$
