
     RDKit          3D

 30 31  0  0  0  0  0  0  0  0999 V2000
    4.9005    1.8389   17.0103 H   0  0  0  0  0  0  0  0  0  0  0  0
    5.4076    1.3025   17.8074 C   0  0  0  0  0  0  0  0  0  0  0  0
    6.5703    0.6777   17.5457 N   0  0  0  0  0  0  0  0  0  0  0  0
    7.1755    0.0225   18.5574 C   0  0  0  0  0  0  0  0  0  0  0  0
    8.1241   -0.4659   18.3545 H   0  0  0  0  0  0  0  0  0  0  0  0
    6.6371   -0.0539   19.8615 C   0  0  0  0  0  0  0  0  0  0  0  0
    7.3320   -0.8001   20.9836 C   0  0  0  0  0  0  0  0  0  0  0  0
    7.5274   -0.0896   21.7939 H   0  0  0  0  0  0  0  0  0  0  0  0
    8.3015   -1.1732   20.6502 H   0  0  0  0  0  0  0  0  0  0  0  0
    6.4929   -1.9561   21.5429 C   0  0  1  0  0  0  0  0  0  0  0  0
    5.6274   -1.5244   22.0424 H   0  0  0  0  0  0  0  0  0  0  0  0
    5.8732   -3.2046   20.1346 Br  0  0  0  0  0  0  0  0  0  0  0  0
    7.2690   -2.7307   22.4956 N   0  0  0  0  0  0  0  0  0  0  0  0
    8.1417   -2.3537   22.8511 H   0  0  0  0  0  0  0  0  0  0  0  0
    6.7551   -3.8738   23.0777 C   0  0  0  0  0  0  0  0  0  0  0  0
    5.6495   -4.2518   22.6954 O   0  0  0  0  0  0  0  0  0  0  0  0
    7.4955   -4.6021   24.1564 C   0  0  0  0  0  0  0  0  0  0  0  0
    6.8234   -5.4032   25.0944 C   0  0  0  0  0  0  0  0  0  0  0  0
    5.7457   -5.5026   25.0654 H   0  0  0  0  0  0  0  0  0  0  0  0
    7.5231   -6.0852   26.0950 C   0  0  0  0  0  0  0  0  0  0  0  0
    6.9597   -6.6930   26.7908 H   0  0  0  0  0  0  0  0  0  0  0  0
    8.8540   -6.0222   26.2136 N   0  0  0  0  0  0  0  0  0  0  0  0
    9.5325   -5.2677   25.3398 C   0  0  0  0  0  0  0  0  0  0  0  0
   10.6122   -5.2279   25.4240 H   0  0  0  0  0  0  0  0  0  0  0  0
    8.8962   -4.5469   24.3174 C   0  0  0  0  0  0  0  0  0  0  0  0
    9.5261   -3.9674   23.6535 H   0  0  0  0  0  0  0  0  0  0  0  0
    5.4444    0.6148   20.1234 C   0  0  0  0  0  0  0  0  0  0  0  0
    5.0160    0.6077   21.1243 H   0  0  0  0  0  0  0  0  0  0  0  0
    4.8238    1.2977   19.0798 C   0  0  0  0  0  0  0  0  0  0  0  0
    3.8966    1.8332   19.2435 H   0  0  0  0  0  0  0  0  0  0  0  0
  1  2  1  0
  2  3  2  0
  3  4  1  0
  4  5  1  0
  4  6  2  0
  6  7  1  0
  7  8  1  0
  7  9  1  0
  7 10  1  0
 10 11  1  1
 10 12  1  0
 10 13  1  0
 13 14  1  0
 13 15  1  0
 15 16  2  0
 15 17  1  0
 17 18  2  0
 18 19  1  0
 18 20  1  0
 20 21  1  0
 20 22  2  0
 22 23  1  0
 23 24  1  0
 23 25  2  0
 25 26  1  0
  6 27  1  0
 27 28  1  0
 27 29  2  0
 29 30  1  0
 29  2  1  0
 25 17  1  0
M  END
>  <cnnaffinity>  (1) 
-4.55947

>  <filename>  (1) 
O=C(N[C@H](Br)Cc1cccnc1)c1ccncc1

$$$$
