
     RDKit          3D

 36 37  0  0  0  0  0  0  0  0999 V2000
   12.9000    1.1864   25.5843 H   0  0  0  0  0  0  0  0  0  0  0  0
   13.3814    0.8307   24.8140 O   0  0  0  0  0  0  0  0  0  0  0  0
   12.6581    1.2503   23.6947 N   0  0  0  0  0  0  0  0  0  0  0  0
   12.6535    0.4989   23.0164 H   0  0  0  0  0  0  0  0  0  0  0  0
   12.9032    2.4920   23.0907 C   0  0  0  0  0  0  0  0  0  0  0  0
   13.4787    3.4226   23.6049 O   0  0  0  0  0  0  0  0  0  0  0  0
   12.2661    2.5737   21.7193 C   0  0  0  0  0  0  0  0  0  0  0  0
   12.5537    1.7074   21.1197 H   0  0  0  0  0  0  0  0  0  0  0  0
   12.7115    3.4615   21.2626 H   0  0  0  0  0  0  0  0  0  0  0  0
   10.7409    2.7173   21.6675 C   0  0  0  0  0  0  0  0  0  0  0  0
   10.4893    2.7732   20.6004 H   0  0  0  0  0  0  0  0  0  0  0  0
   10.4506    3.6717   22.1330 H   0  0  0  0  0  0  0  0  0  0  0  0
    9.8841    1.6123   22.2775 C   0  0  0  0  0  0  0  0  0  0  0  0
   10.0995    0.6439   21.7973 H   0  0  0  0  0  0  0  0  0  0  0  0
   10.1015    1.4730   23.3454 H   0  0  0  0  0  0  0  0  0  0  0  0
    8.4040    1.9898   22.0903 C   0  0  0  0  0  0  0  0  0  0  0  0
    8.1758    2.0192   21.0114 H   0  0  0  0  0  0  0  0  0  0  0  0
    8.2431    3.0063   22.4796 H   0  0  0  0  0  0  0  0  0  0  0  0
    7.4124    1.0325   22.7799 C   0  0  0  0  0  0  0  0  0  0  0  0
    6.3889    1.3988   22.6440 H   0  0  0  0  0  0  0  0  0  0  0  0
    7.5969    0.9812   23.8590 H   0  0  0  0  0  0  0  0  0  0  0  0
    7.5605   -0.3527   22.2360 C   0  0  0  0  0  0  0  0  0  0  0  0
    8.1653   -1.3565   22.8261 N   0  0  0  0  0  0  0  0  0  0  0  0
    8.3434   -2.3019   21.8791 N   0  0  0  0  0  0  0  0  0  0  0  0
    7.8764   -1.9217   20.7502 N   0  0  0  0  0  0  0  0  0  0  0  0
    7.3459   -0.6923   20.9351 N   0  0  0  0  0  0  0  0  0  0  0  0
    6.6669   -0.0069   19.8808 C   0  0  0  0  0  0  0  0  0  0  0  0
    7.2047   -0.0043   18.5800 C   0  0  0  0  0  0  0  0  0  0  0  0
    8.1212   -0.5537   18.3734 H   0  0  0  0  0  0  0  0  0  0  0  0
    6.6448    0.6439   17.5550 N   0  0  0  0  0  0  0  0  0  0  0  0
    5.4958    1.3073   17.7786 C   0  0  0  0  0  0  0  0  0  0  0  0
    5.0659    1.8308   16.9264 H   0  0  0  0  0  0  0  0  0  0  0  0
    4.8638    1.3274   19.0247 C   0  0  0  0  0  0  0  0  0  0  0  0
    3.9286    1.8631   19.1450 H   0  0  0  0  0  0  0  0  0  0  0  0
    5.4567    0.6634   20.1042 C   0  0  0  0  0  0  0  0  0  0  0  0
    4.9872    0.6507   21.0879 H   0  0  0  0  0  0  0  0  0  0  0  0
  1  2  1  0
  2  3  1  0
  3  4  1  0
  3  5  1  0
  5  6  2  0
  5  7  1  0
  7  8  1  0
  7  9  1  0
  7 10  1  0
 10 11  1  0
 10 12  1  0
 10 13  1  0
 13 14  1  0
 13 15  1  0
 13 16  1  0
 16 17  1  0
 16 18  1  0
 16 19  1  0
 19 20  1  0
 19 21  1  0
 19 22  1  0
 22 23  2  0
 23 24  1  0
 24 25  2  0
 25 26  1  0
 26 27  1  0
 27 28  2  0
 28 29  1  0
 28 30  1  0
 30 31  2  0
 31 32  1  0
 31 33  1  0
 33 34  1  0
 33 35  2  0
 35 36  1  0
 26 22  1  0
 35 27  1  0
M  END
>  <cnnaffinity>  (1) 
-5.30831

>  <filename>  (1) 
O=C(CCCCCc1nnnn1-c1cccnc1)NO

$$$$
