
     RDKit          3D

 32 34  0  0  0  0  0  0  0  0999 V2000
    5.0323    1.7871   16.9514 H   0  0  0  0  0  0  0  0  0  0  0  0
    5.4550    1.2926   17.8269 C   0  0  0  0  0  0  0  0  0  0  0  0
    6.6320    0.6704   17.6498 N   0  0  0  0  0  0  0  0  0  0  0  0
    7.1767    0.0607   18.7114 C   0  0  0  0  0  0  0  0  0  0  0  0
    8.1414   -0.4169   18.5454 H   0  0  0  0  0  0  0  0  0  0  0  0
    6.5810    0.0246   19.9860 C   0  0  0  0  0  0  0  0  0  0  0  0
    7.2153   -0.6471   21.0796 N   0  0  0  0  0  0  0  0  0  0  0  0
    7.5758   -1.9753   21.0110 C   0  0  0  0  0  0  0  0  0  0  0  0
    7.2249   -2.5610   20.1722 H   0  0  0  0  0  0  0  0  0  0  0  0
    8.2126   -2.3179   22.1726 C   0  0  0  0  0  0  0  0  0  0  0  0
    8.6845   -3.2681   22.3776 H   0  0  0  0  0  0  0  0  0  0  0  0
    8.1945   -1.1767   23.0253 C   0  0  0  0  0  0  0  0  0  0  0  0
    8.5698   -1.0886   24.0351 H   0  0  0  0  0  0  0  0  0  0  0  0
    7.5914   -0.1632   22.3346 C   0  0  0  0  0  0  0  0  0  0  0  0
    7.3879    1.1581   22.7425 N   0  0  0  0  0  0  0  0  0  0  0  0
    6.9166    1.3241   23.6122 H   0  0  0  0  0  0  0  0  0  0  0  0
    7.6323    2.2678   21.9664 C   0  0  0  0  0  0  0  0  0  0  0  0
    8.3914    2.2508   21.0175 O   0  0  0  0  0  0  0  0  0  0  0  0
    6.8288    3.5000   22.3974 C   0  0  0  0  0  0  0  0  0  0  0  0
    5.6214    3.4773   23.1356 C   0  0  0  0  0  0  0  0  0  0  0  0
    5.1546    2.5705   23.5032 H   0  0  0  0  0  0  0  0  0  0  0  0
    4.9449    4.6734   23.4002 C   0  0  0  0  0  0  0  0  0  0  0  0
    4.0151    4.6592   23.9670 H   0  0  0  0  0  0  0  0  0  0  0  0
    5.3732    5.8787   23.0058 N   0  0  0  0  0  0  0  0  0  0  0  0
    6.5082    5.9069   22.2936 C   0  0  0  0  0  0  0  0  0  0  0  0
    6.8498    6.8819   21.9510 H   0  0  0  0  0  0  0  0  0  0  0  0
    7.2594    4.7694   21.9794 C   0  0  0  0  0  0  0  0  0  0  0  0
    8.1682    4.8654   21.3971 H   0  0  0  0  0  0  0  0  0  0  0  0
    5.3482    0.6648   20.1524 C   0  0  0  0  0  0  0  0  0  0  0  0
    4.8575    0.6386   21.1267 H   0  0  0  0  0  0  0  0  0  0  0  0
    4.7770    1.3104   19.0527 C   0  0  0  0  0  0  0  0  0  0  0  0
    3.8227    1.8214   19.1358 H   0  0  0  0  0  0  0  0  0  0  0  0
  1  2  1  0
  2  3  2  0
  3  4  1  0
  4  5  1  0
  4  6  2  0
  6  7  1  0
  7  8  1  0
  8  9  1  0
  8 10  2  0
 10 11  1  0
 10 12  1  0
 12 13  1  0
 12 14  2  0
 14 15  1  0
 15 16  1  0
 15 17  1  0
 17 18  2  0
 17 19  1  0
 19 20  2  0
 20 21  1  0
 20 22  1  0
 22 23  1  0
 22 24  2  0
 24 25  1  0
 25 26  1  0
 25 27  2  0
 27 28  1  0
  6 29  1  0
 29 30  1  0
 29 31  2  0
 31 32  1  0
 31  2  1  0
 14  7  1  0
 27 19  1  0
M  END
>  <cnnaffinity>  (1) 
-4.99398

>  <filename>  (1) 
O=C(Nc1cccn1-c1cccnc1)c1ccncc1

$$$$
