
     RDKit          3D

 31 33  0  0  0  0  0  0  0  0999 V2000
    5.2006    1.7960   16.9673 H   0  0  0  0  0  0  0  0  0  0  0  0
    5.6398    1.2943   17.8265 C   0  0  0  0  0  0  0  0  0  0  0  0
    6.8341    0.7094   17.6311 N   0  0  0  0  0  0  0  0  0  0  0  0
    7.4056    0.0853   18.6709 C   0  0  0  0  0  0  0  0  0  0  0  0
    8.3785   -0.3766   18.4966 H   0  0  0  0  0  0  0  0  0  0  0  0
    6.8059   -0.0073   19.9498 C   0  0  0  0  0  0  0  0  0  0  0  0
    7.3627   -0.7637   21.0262 N   0  0  0  0  0  0  0  0  0  0  0  0
    8.1854   -0.4932   21.5350 H   0  0  0  0  0  0  0  0  0  0  0  0
    6.7049   -1.7734   21.6667 C   0  0  0  0  0  0  0  0  0  0  0  0
    5.5872   -2.1765   21.4576 O   0  0  0  0  0  0  0  0  0  0  0  0
    7.5730   -2.2858   22.5739 O   0  0  0  0  0  0  0  0  0  0  0  0
    7.0829   -3.2155   23.4518 C   0  0  0  0  0  0  0  0  0  0  0  0
    7.4102   -2.9957   24.6791 N   0  0  0  0  0  0  0  0  0  0  0  0
    7.0579   -3.9468   25.5982 C   0  0  0  0  0  0  0  0  0  0  0  0
    7.4720   -3.7317   26.9398 C   0  0  0  0  0  0  0  0  0  0  0  0
    8.0273   -2.8173   27.1202 H   0  0  0  0  0  0  0  0  0  0  0  0
    7.2044   -4.6672   27.9138 C   0  0  0  0  0  0  0  0  0  0  0  0
    7.5621   -4.5244   28.9277 H   0  0  0  0  0  0  0  0  0  0  0  0
    6.4742   -5.8480   27.5979 C   0  0  0  0  0  0  0  0  0  0  0  0
    6.2966   -6.5884   28.3794 H   0  0  0  0  0  0  0  0  0  0  0  0
    6.0376   -6.0770   26.3087 C   0  0  0  0  0  0  0  0  0  0  0  0
    5.4732   -6.9802   26.0778 H   0  0  0  0  0  0  0  0  0  0  0  0
    6.3381   -5.1420   25.2672 C   0  0  0  0  0  0  0  0  0  0  0  0
    6.0053   -5.3195   23.8856 C   0  0  0  0  0  0  0  0  0  0  0  0
    5.4614   -6.2138   23.5716 H   0  0  0  0  0  0  0  0  0  0  0  0
    6.3741   -4.3630   22.9759 C   0  0  0  0  0  0  0  0  0  0  0  0
    6.1278   -4.4307   21.9296 H   0  0  0  0  0  0  0  0  0  0  0  0
    5.5614    0.6039   20.1292 C   0  0  0  0  0  0  0  0  0  0  0  0
    5.0813    0.5390   21.1029 H   0  0  0  0  0  0  0  0  0  0  0  0
    4.9721    1.2719   19.0530 C   0  0  0  0  0  0  0  0  0  0  0  0
    4.0187    1.7773   19.1589 H   0  0  0  0  0  0  0  0  0  0  0  0
  1  2  1  0
  2  3  2  0
  3  4  1  0
  4  5  1  0
  4  6  2  0
  6  7  1  0
  7  8  1  0
  7  9  1  0
  9 10  2  0
  9 11  1  0
 11 12  1  0
 12 13  2  0
 13 14  1  0
 14 15  2  0
 15 16  1  0
 15 17  1  0
 17 18  1  0
 17 19  2  0
 19 20  1  0
 19 21  1  0
 21 22  1  0
 21 23  2  0
 23 24  1  0
 24 25  1  0
 24 26  2  0
 26 27  1  0
  6 28  1  0
 28 29  1  0
 28 30  2  0
 30 31  1  0
 30  2  1  0
 26 12  1  0
 23 14  1  0
M  END
>  <cnnaffinity>  (1) 
-4.88643

>  <filename>  (1) 
O=C(Nc1cccnc1)Oc1ccc2ccccc2n1

$$$$
