
     RDKit          3D

 37 39  0  0  0  0  0  0  0  0999 V2000
    4.9187    1.7804   16.9941 H   0  0  0  0  0  0  0  0  0  0  0  0
    5.4029    1.2927   17.8378 C   0  0  0  0  0  0  0  0  0  0  0  0
    6.5681    0.6822   17.5741 N   0  0  0  0  0  0  0  0  0  0  0  0
    7.1780    0.0750   18.6021 C   0  0  0  0  0  0  0  0  0  0  0  0
    8.1213   -0.4229   18.3814 H   0  0  0  0  0  0  0  0  0  0  0  0
    6.6569    0.0277   19.9013 C   0  0  0  0  0  0  0  0  0  0  0  0
    7.3429   -0.7669   20.9866 C   0  0  0  0  0  0  0  0  0  0  0  0
    6.7249   -2.2414   21.1148 C   0  0  0  0  0  0  0  0  0  0  0  0
    6.0378   -2.7506   20.2376 O   0  0  0  0  0  0  0  0  0  0  0  0
    7.0246   -2.9358   22.2447 N   0  0  0  0  0  0  0  0  0  0  0  0
    7.5764   -2.5168   22.9771 H   0  0  0  0  0  0  0  0  0  0  0  0
    6.4869   -4.2704   22.4480 C   0  0  0  0  0  0  0  0  0  0  0  0
    5.3916   -4.2266   22.3864 H   0  0  0  0  0  0  0  0  0  0  0  0
    6.8156   -4.9049   21.6158 H   0  0  0  0  0  0  0  0  0  0  0  0
    6.9294   -4.8382   23.7732 C   0  0  0  0  0  0  0  0  0  0  0  0
    8.1234   -5.5695   23.8731 C   0  0  0  0  0  0  0  0  0  0  0  0
    8.7290   -5.7286   22.9828 H   0  0  0  0  0  0  0  0  0  0  0  0
    8.5436   -6.0845   25.1031 C   0  0  0  0  0  0  0  0  0  0  0  0
    9.4752   -6.6431   25.1684 H   0  0  0  0  0  0  0  0  0  0  0  0
    7.7667   -5.8826   26.2493 C   0  0  0  0  0  0  0  0  0  0  0  0
    8.0920   -6.2862   27.2065 H   0  0  0  0  0  0  0  0  0  0  0  0
    6.5715   -5.1598   26.1599 C   0  0  0  0  0  0  0  0  0  0  0  0
    5.9669   -4.9931   27.0487 H   0  0  0  0  0  0  0  0  0  0  0  0
    6.1563   -4.6426   24.9289 C   0  0  0  0  0  0  0  0  0  0  0  0
    5.2281   -4.0759   24.8649 H   0  0  0  0  0  0  0  0  0  0  0  0
    7.2228   -0.1190   22.2461 O   0  0  0  0  0  0  0  0  0  0  0  0
    8.4274    0.5811   22.5133 C   0  0  0  0  0  0  0  0  0  0  0  0
    8.3550    1.6259   22.1838 H   0  0  0  0  0  0  0  0  0  0  0  0
    8.5891    0.5347   23.5931 H   0  0  0  0  0  0  0  0  0  0  0  0
    9.4720   -0.2085   21.7294 C   0  0  0  0  0  0  0  0  0  0  0  0
    9.9681   -0.9673   22.3499 H   0  0  0  0  0  0  0  0  0  0  0  0
   10.2189    0.4374   21.2650 H   0  0  0  0  0  0  0  0  0  0  0  0
    8.7301   -0.8370   20.6948 O   0  0  0  0  0  0  0  0  0  0  0  0
    5.4351    0.6596   20.1561 C   0  0  0  0  0  0  0  0  0  0  0  0
    5.0164    0.6324   21.1659 H   0  0  0  0  0  0  0  0  0  0  0  0
    4.8016    1.3140   19.1015 C   0  0  0  0  0  0  0  0  0  0  0  0
    3.8687    1.8449   19.2543 H   0  0  0  0  0  0  0  0  0  0  0  0
  1  2  1  0
  2  3  2  0
  3  4  1  0
  4  5  1  0
  4  6  2  0
  6  7  1  0
  7  8  1  0
  8  9  2  0
  8 10  1  0
 10 11  1  0
 10 12  1  0
 12 13  1  0
 12 14  1  0
 12 15  1  0
 15 16  2  0
 16 17  1  0
 16 18  1  0
 18 19  1  0
 18 20  2  0
 20 21  1  0
 20 22  1  0
 22 23  1  0
 22 24  2  0
 24 25  1  0
  7 26  1  0
 26 27  1  0
 27 28  1  0
 27 29  1  0
 27 30  1  0
 30 31  1  0
 30 32  1  0
 30 33  1  0
  6 34  1  0
 34 35  1  0
 34 36  2  0
 36 37  1  0
 36  2  1  0
 33  7  1  0
 24 15  1  0
M  END
>  <cnnaffinity>  (1) 
-4.6566

>  <filename>  (1) 
O=C(NCc1ccccc1)C1(c2cccnc2)OCCO1

$$$$
