
     RDKit          3D

 31 33  0  0  0  0  0  0  0  0999 V2000
    4.9544    1.7750   17.0125 H   0  0  0  0  0  0  0  0  0  0  0  0
    5.4146    1.2783   17.8642 C   0  0  0  0  0  0  0  0  0  0  0  0
    6.5742    0.6519   17.6179 N   0  0  0  0  0  0  0  0  0  0  0  0
    7.1769    0.0331   18.6363 C   0  0  0  0  0  0  0  0  0  0  0  0
    8.1158   -0.4511   18.3759 H   0  0  0  0  0  0  0  0  0  0  0  0
    6.6627   -0.0168   19.9449 C   0  0  0  0  0  0  0  0  0  0  0  0
    7.3650   -0.7045   20.9719 N   0  0  0  0  0  0  0  0  0  0  0  0
    6.7183   -1.1276   22.0841 N   0  0  0  0  0  0  0  0  0  0  0  0
    7.6479   -1.6904   22.8240 C   0  0  0  0  0  0  0  0  0  0  0  0
    7.3699   -2.3458   24.0162 N   0  0  0  0  0  0  0  0  0  0  0  0
    8.1872   -2.7108   24.4601 H   0  0  0  0  0  0  0  0  0  0  0  0
    6.3132   -2.0169   24.8473 C   0  0  0  0  0  0  0  0  0  0  0  0
    5.7129   -0.9699   24.7700 O   0  0  0  0  0  0  0  0  0  0  0  0
    5.9692   -3.0559   25.9623 C   0  0  0  0  0  0  0  0  0  0  0  0
    6.5987   -4.3006   26.1930 C   0  0  0  0  0  0  0  0  0  0  0  0
    7.3451   -4.7197   25.5279 H   0  0  0  0  0  0  0  0  0  0  0  0
    6.2415   -5.0634   27.3201 C   0  0  0  0  0  0  0  0  0  0  0  0
    6.7438   -6.0043   27.5490 H   0  0  0  0  0  0  0  0  0  0  0  0
    5.2971   -4.7039   28.1964 N   0  0  0  0  0  0  0  0  0  0  0  0
    4.6488   -3.5573   27.9552 C   0  0  0  0  0  0  0  0  0  0  0  0
    3.8720   -3.2691   28.6653 H   0  0  0  0  0  0  0  0  0  0  0  0
    4.9311   -2.7318   26.8647 C   0  0  0  0  0  0  0  0  0  0  0  0
    4.3542   -1.8298   26.7069 H   0  0  0  0  0  0  0  0  0  0  0  0
    8.9202   -1.6465   22.2189 C   0  0  0  0  0  0  0  0  0  0  0  0
    9.8403   -2.0494   22.6165 H   0  0  0  0  0  0  0  0  0  0  0  0
    8.6959   -1.0041   21.0247 C   0  0  0  0  0  0  0  0  0  0  0  0
    9.3382   -0.7104   20.2051 H   0  0  0  0  0  0  0  0  0  0  0  0
    5.4423    0.6365   20.1949 C   0  0  0  0  0  0  0  0  0  0  0  0
    5.0137    0.6118   21.1980 H   0  0  0  0  0  0  0  0  0  0  0  0
    4.8207    1.2961   19.1310 C   0  0  0  0  0  0  0  0  0  0  0  0
    3.8884    1.8303   19.2650 H   0  0  0  0  0  0  0  0  0  0  0  0
  1  2  1  0
  2  3  2  0
  3  4  1  0
  4  5  1  0
  4  6  2  0
  6  7  1  0
  7  8  1  0
  8  9  2  0
  9 10  1  0
 10 11  1  0
 10 12  1  0
 12 13  2  0
 12 14  1  0
 14 15  2  0
 15 16  1  0
 15 17  1  0
 17 18  1  0
 17 19  2  0
 19 20  1  0
 20 21  1  0
 20 22  2  0
 22 23  1  0
  9 24  1  0
 24 25  1  0
 24 26  2  0
 26 27  1  0
  6 28  1  0
 28 29  1  0
 28 30  2  0
 30 31  1  0
 30  2  1  0
 26  7  1  0
 22 14  1  0
M  END
>  <cnnaffinity>  (1) 
-4.89269

>  <filename>  (1) 
O=C(Nc1ccn(-c2cccnc2)n1)c1ccncc1

$$$$
