
     RDKit          3D

 33 35  0  0  0  0  0  0  0  0999 V2000
    4.9137    1.8313   16.9794 H   0  0  0  0  0  0  0  0  0  0  0  0
    5.3816    1.3059   17.8084 C   0  0  0  0  0  0  0  0  0  0  0  0
    6.5411    0.6855   17.5372 N   0  0  0  0  0  0  0  0  0  0  0  0
    7.1625    0.0640   18.5461 C   0  0  0  0  0  0  0  0  0  0  0  0
    8.1147   -0.3998   18.2842 H   0  0  0  0  0  0  0  0  0  0  0  0
    6.6717    0.0103   19.8697 C   0  0  0  0  0  0  0  0  0  0  0  0
    7.4106   -0.6709   20.9572 C   0  0  0  0  0  0  0  0  0  0  0  0
    7.6917   -0.2732   22.2572 C   0  0  0  0  0  0  0  0  0  0  0  0
    7.2902    1.0258   22.9397 C   0  0  0  0  0  0  0  0  0  0  0  0
    7.1236    1.7919   22.1739 H   0  0  0  0  0  0  0  0  0  0  0  0
    8.0974    1.3954   23.5918 H   0  0  0  0  0  0  0  0  0  0  0  0
    6.0582    0.9418   23.8687 C   0  0  0  0  0  0  0  0  0  0  0  0
    5.8890   -0.0303   24.5738 O   0  0  0  0  0  0  0  0  0  0  0  0
    5.0970    2.1046   23.9327 C   0  0  0  0  0  0  0  0  0  0  0  0
    5.4393    3.4221   23.5722 C   0  0  0  0  0  0  0  0  0  0  0  0
    6.4500    3.6776   23.2632 H   0  0  0  0  0  0  0  0  0  0  0  0
    4.4872    4.4457   23.6105 C   0  0  0  0  0  0  0  0  0  0  0  0
    4.7221    5.4695   23.3484 H   0  0  0  0  0  0  0  0  0  0  0  0
    3.1748    4.1236   23.9351 C   0  0  0  0  0  0  0  0  0  0  0  0
    2.2347    5.0802   23.8991 F   0  0  0  0  0  0  0  0  0  0  0  0
    2.8075    2.8376   24.3151 C   0  0  0  0  0  0  0  0  0  0  0  0
    1.7677    2.6343   24.5363 H   0  0  0  0  0  0  0  0  0  0  0  0
    3.7920    1.8559   24.3959 C   0  0  0  0  0  0  0  0  0  0  0  0
    3.5388    0.8757   24.7978 H   0  0  0  0  0  0  0  0  0  0  0  0
    8.4273   -1.3611   22.7941 C   0  0  0  0  0  0  0  0  0  0  0  0
    8.8334   -1.4649   23.7892 H   0  0  0  0  0  0  0  0  0  0  0  0
    8.5966   -2.3452   21.9239 N   0  0  0  0  0  0  0  0  0  0  0  0
    7.9855   -1.8968   20.8189 N   0  0  0  0  0  0  0  0  0  0  0  0
    7.9039   -2.5130   20.0239 H   0  0  0  0  0  0  0  0  0  0  0  0
    5.4466    0.6554   20.1177 C   0  0  0  0  0  0  0  0  0  0  0  0
    5.0262    0.6472   21.1244 H   0  0  0  0  0  0  0  0  0  0  0  0
    4.7893    1.3088   19.0737 C   0  0  0  0  0  0  0  0  0  0  0  0
    3.8575    1.8448   19.2302 H   0  0  0  0  0  0  0  0  0  0  0  0
  1  2  1  0
  2  3  2  0
  3  4  1  0
  4  5  1  0
  4  6  2  0
  6  7  1  0
  7  8  2  0
  8  9  1  0
  9 10  1  0
  9 11  1  0
  9 12  1  0
 12 13  2  0
 12 14  1  0
 14 15  2  0
 15 16  1  0
 15 17  1  0
 17 18  1  0
 17 19  2  0
 19 20  1  0
 19 21  1  0
 21 22  1  0
 21 23  2  0
 23 24  1  0
  8 25  1  0
 25 26  1  0
 25 27  2  0
 27 28  1  0
 28 29  1  0
  6 30  1  0
 30 31  1  0
 30 32  2  0
 32 33  1  0
 32  2  1  0
 28  7  1  0
 23 14  1  0
M  END
>  <cnnaffinity>  (1) 
-4.9711

>  <filename>  (1) 
O=C(Cc1cn[nH]c1-c1cccnc1)c1ccc(F)cc1

$$$$
