
     RDKit          3D

 31 33  0  0  0  0  0  0  0  0999 V2000
    4.9805    1.8045   16.9336 H   0  0  0  0  0  0  0  0  0  0  0  0
    5.4256    1.3046   17.7958 C   0  0  0  0  0  0  0  0  0  0  0  0
    6.5959    0.6781   17.5924 N   0  0  0  0  0  0  0  0  0  0  0  0
    7.1629    0.0551   18.6361 C   0  0  0  0  0  0  0  0  0  0  0  0
    8.1244   -0.4200   18.4413 H   0  0  0  0  0  0  0  0  0  0  0  0
    6.5930    0.0155   19.9240 C   0  0  0  0  0  0  0  0  0  0  0  0
    7.2317   -0.6448   21.0270 N   0  0  0  0  0  0  0  0  0  0  0  0
    7.5454   -0.1664   22.2792 C   0  0  0  0  0  0  0  0  0  0  0  0
    7.1741    1.0742   22.7554 N   0  0  0  0  0  0  0  0  0  0  0  0
    7.2260    1.0871   23.7606 H   0  0  0  0  0  0  0  0  0  0  0  0
    7.5377    2.2210   22.0585 C   0  0  0  0  0  0  0  0  0  0  0  0
    8.3354    2.2029   21.1459 O   0  0  0  0  0  0  0  0  0  0  0  0
    6.7766    3.4624   22.4780 C   0  0  0  0  0  0  0  0  0  0  0  0
    5.5722    3.4342   23.2071 C   0  0  0  0  0  0  0  0  0  0  0  0
    5.1486    2.5000   23.5533 H   0  0  0  0  0  0  0  0  0  0  0  0
    4.8994    4.6292   23.4723 C   0  0  0  0  0  0  0  0  0  0  0  0
    3.9642    4.6066   24.0292 H   0  0  0  0  0  0  0  0  0  0  0  0
    5.3409    5.8326   23.0817 N   0  0  0  0  0  0  0  0  0  0  0  0
    6.4795    5.8621   22.3722 C   0  0  0  0  0  0  0  0  0  0  0  0
    6.8330    6.8364   22.0376 H   0  0  0  0  0  0  0  0  0  0  0  0
    7.2235    4.7234   22.0539 C   0  0  0  0  0  0  0  0  0  0  0  0
    8.1322    4.8025   21.4696 H   0  0  0  0  0  0  0  0  0  0  0  0
    8.1481   -1.0340   23.0298 N   0  0  0  0  0  0  0  0  0  0  0  0
    8.2350   -2.1695   22.2482 C   0  0  0  0  0  0  0  0  0  0  0  0
    8.7149   -3.0724   22.6042 H   0  0  0  0  0  0  0  0  0  0  0  0
    7.6586   -1.9656   21.0351 C   0  0  0  0  0  0  0  0  0  0  0  0
    7.3883   -2.6283   20.2331 H   0  0  0  0  0  0  0  0  0  0  0  0
    5.3708    0.6655   20.1188 C   0  0  0  0  0  0  0  0  0  0  0  0
    4.9082    0.6438   21.1048 H   0  0  0  0  0  0  0  0  0  0  0  0
    4.7781    1.3194   19.0362 C   0  0  0  0  0  0  0  0  0  0  0  0
    3.8300    1.8360   19.1431 H   0  0  0  0  0  0  0  0  0  0  0  0
  1  2  1  0
  2  3  2  0
  3  4  1  0
  4  5  1  0
  4  6  2  0
  6  7  1  0
  7  8  1  0
  8  9  1  0
  9 10  1  0
  9 11  1  0
 11 12  2  0
 11 13  1  0
 13 14  2  0
 14 15  1  0
 14 16  1  0
 16 17  1  0
 16 18  2  0
 18 19  1  0
 19 20  1  0
 19 21  2  0
 21 22  1  0
  8 23  2  0
 23 24  1  0
 24 25  1  0
 24 26  2  0
 26 27  1  0
  6 28  1  0
 28 29  1  0
 28 30  2  0
 30 31  1  0
 30  2  1  0
 26  7  1  0
 21 13  1  0
M  END
>  <cnnaffinity>  (1) 
-5.0257

>  <filename>  (1) 
O=C(Nc1nccn1-c1cccnc1)c1ccncc1

$$$$
