
     RDKit          3D

 30 31  0  0  0  0  0  0  0  0999 V2000
   12.5870   -2.0846   21.9344 H   0  0  0  0  0  0  0  0  0  0  0  0
   13.2374   -1.3722   22.0443 O   0  0  0  0  0  0  0  0  0  0  0  0
   12.5796   -0.2976   22.5297 C   0  0  0  0  0  0  0  0  0  0  0  0
   13.3100    0.8758   22.7366 C   0  0  0  0  0  0  0  0  0  0  0  0
   14.3705    0.8874   22.5061 H   0  0  0  0  0  0  0  0  0  0  0  0
   12.6569    2.0164   23.2077 C   0  0  0  0  0  0  0  0  0  0  0  0
   13.5550    3.4916   23.3749 Cl  0  0  0  0  0  0  0  0  0  0  0  0
   11.3062    1.9839   23.5626 C   0  0  0  0  0  0  0  0  0  0  0  0
   10.8271    2.8886   23.9188 H   0  0  0  0  0  0  0  0  0  0  0  0
   10.5797    0.7969   23.4033 C   0  0  0  0  0  0  0  0  0  0  0  0
    9.5421    0.7075   23.7195 H   0  0  0  0  0  0  0  0  0  0  0  0
   11.1912   -0.3126   22.8120 C   0  0  0  0  0  0  0  0  0  0  0  0
   10.5097   -1.4889   22.4709 O   0  0  0  0  0  0  0  0  0  0  0  0
    9.1032   -1.3544   22.2963 N   0  0  0  0  0  0  0  0  0  0  0  0
    8.6876   -2.6983   22.3881 O   0  0  0  0  0  0  0  0  0  0  0  0
    9.4662   -3.1896   22.0547 H   0  0  0  0  0  0  0  0  0  0  0  0
    8.7763   -0.6717   21.0211 C   0  0  0  0  0  0  0  0  0  0  0  0
    9.5872   -0.0849   20.3529 O   0  0  0  0  0  0  0  0  0  0  0  0
    7.4275   -0.7601   20.7760 N   0  0  0  0  0  0  0  0  0  0  0  0
    6.8810   -1.0368   21.5777 H   0  0  0  0  0  0  0  0  0  0  0  0
    6.7399   -0.0629   19.7597 C   0  0  0  0  0  0  0  0  0  0  0  0
    7.1906    0.0287   18.4220 C   0  0  0  0  0  0  0  0  0  0  0  0
    8.1182   -0.4639   18.1333 H   0  0  0  0  0  0  0  0  0  0  0  0
    6.5234    0.6953   17.4713 N   0  0  0  0  0  0  0  0  0  0  0  0
    5.3809    1.3137   17.8168 C   0  0  0  0  0  0  0  0  0  0  0  0
    4.8791    1.8616   17.0229 H   0  0  0  0  0  0  0  0  0  0  0  0
    4.8454    1.2627   19.1083 C   0  0  0  0  0  0  0  0  0  0  0  0
    3.9214    1.7836   19.3291 H   0  0  0  0  0  0  0  0  0  0  0  0
    5.5299    0.5507   20.0939 C   0  0  0  0  0  0  0  0  0  0  0  0
    5.1662    0.4849   21.1194 H   0  0  0  0  0  0  0  0  0  0  0  0
  1  2  1  0
  2  3  1  0
  3  4  2  0
  4  5  1  0
  4  6  1  0
  6  7  1  0
  6  8  2  0
  8  9  1  0
  8 10  1  0
 10 11  1  0
 10 12  2  0
 12 13  1  0
 13 14  1  0
 14 15  1  0
 15 16  1  0
 14 17  1  0
 17 18  2  0
 17 19  1  0
 19 20  1  0
 19 21  1  0
 21 22  2  0
 22 23  1  0
 22 24  1  0
 24 25  2  0
 25 26  1  0
 25 27  1  0
 27 28  1  0
 27 29  2  0
 29 30  1  0
 12  3  1  0
 29 21  1  0
M  END
>  <cnnaffinity>  (1) 
-5.15675

>  <filename>  (1) 
O=C(Nc1cccnc1)N(O)Oc1ccc(Cl)cc1O

$$$$
