
     RDKit          3D

 35 37  0  0  0  0  0  0  0  0999 V2000
    4.9237    1.7890   16.9962 H   0  0  0  0  0  0  0  0  0  0  0  0
    5.3999    1.2898   17.8387 C   0  0  0  0  0  0  0  0  0  0  0  0
    6.5566    0.6657   17.5726 N   0  0  0  0  0  0  0  0  0  0  0  0
    7.1759    0.0511   18.5889 C   0  0  0  0  0  0  0  0  0  0  0  0
    8.1184   -0.4434   18.3584 H   0  0  0  0  0  0  0  0  0  0  0  0
    6.6683    0.0073   19.9015 C   0  0  0  0  0  0  0  0  0  0  0  0
    7.3471   -0.7081   20.9429 N   0  0  0  0  0  0  0  0  0  0  0  0
    8.6149   -0.4536   21.4627 C   0  0  0  0  0  0  0  0  0  0  0  0
    9.5144    0.6874   21.0557 C   0  0  0  0  0  0  0  0  0  0  0  0
    9.0722    1.1397   20.1699 H   0  0  0  0  0  0  0  0  0  0  0  0
   10.4853    0.2680   20.7934 H   0  0  0  0  0  0  0  0  0  0  0  0
    9.7426    1.7477   22.0471 N   0  0  0  0  0  0  0  0  0  0  0  0
   10.4765    1.6010   22.7210 H   0  0  0  0  0  0  0  0  0  0  0  0
    8.6822    2.5118   22.4758 C   0  0  0  0  0  0  0  0  0  0  0  0
    7.5801    2.3944   21.9608 O   0  0  0  0  0  0  0  0  0  0  0  0
    8.9559    3.4856   23.6033 C   0  0  0  0  0  0  0  0  0  0  0  0
   10.2494    3.9588   23.8916 C   0  0  0  0  0  0  0  0  0  0  0  0
   11.1029    3.6156   23.3057 H   0  0  0  0  0  0  0  0  0  0  0  0
   10.4530    4.9101   24.8935 C   0  0  0  0  0  0  0  0  0  0  0  0
   11.4624    5.2505   25.1095 H   0  0  0  0  0  0  0  0  0  0  0  0
    9.3683    5.3973   25.6333 C   0  0  0  0  0  0  0  0  0  0  0  0
    9.5292    6.1264   26.4238 H   0  0  0  0  0  0  0  0  0  0  0  0
    8.0757    4.9440   25.3470 C   0  0  0  0  0  0  0  0  0  0  0  0
    7.2260    5.3357   25.9031 H   0  0  0  0  0  0  0  0  0  0  0  0
    7.8672    4.0009   24.3372 C   0  0  0  0  0  0  0  0  0  0  0  0
    6.8573    3.6769   24.0912 H   0  0  0  0  0  0  0  0  0  0  0  0
    8.9407   -1.3238   22.3665 N   0  0  0  0  0  0  0  0  0  0  0  0
    7.8373   -2.1085   22.4756 N   0  0  0  0  0  0  0  0  0  0  0  0
    7.7597   -2.8489   23.1516 H   0  0  0  0  0  0  0  0  0  0  0  0
    6.8352   -1.7989   21.6326 C   0  0  0  0  0  0  0  0  0  0  0  0
    5.4205   -2.6508   21.4896 S   0  0  0  0  0  0  0  0  0  0  0  0
    5.4528    0.6373   20.1663 C   0  0  0  0  0  0  0  0  0  0  0  0
    5.0430    0.6161   21.1790 H   0  0  0  0  0  0  0  0  0  0  0  0
    4.8173    1.3034   19.1100 C   0  0  0  0  0  0  0  0  0  0  0  0
    3.8873    1.8336   19.2598 H   0  0  0  0  0  0  0  0  0  0  0  0
  1  2  1  0
  2  3  2  0
  3  4  1  0
  4  5  1  0
  4  6  2  0
  6  7  1  0
  7  8  1  0
  8  9  1  0
  9 10  1  0
  9 11  1  0
  9 12  1  0
 12 13  1  0
 12 14  1  0
 14 15  2  0
 14 16  1  0
 16 17  2  0
 17 18  1  0
 17 19  1  0
 19 20  1  0
 19 21  2  0
 21 22  1  0
 21 23  1  0
 23 24  1  0
 23 25  2  0
 25 26  1  0
  8 27  2  0
 27 28  1  0
 28 29  1  0
 28 30  1  0
 30 31  2  0
  6 32  1  0
 32 33  1  0
 32 34  2  0
 34 35  1  0
 34  2  1  0
 30  7  1  0
 25 16  1  0
M  END
>  <cnnaffinity>  (1) 
-4.96139

>  <filename>  (1) 
O=C(NCc1n[nH]c(=S)n1-c1cccnc1)c1ccccc1

$$$$
