
     RDKit          3D

 36 38  0  0  0  0  0  0  0  0999 V2000
    4.9369    1.7615   16.9521 H   0  0  0  0  0  0  0  0  0  0  0  0
    5.4087    1.3006   17.8161 C   0  0  0  0  0  0  0  0  0  0  0  0
    6.5754    0.6724   17.5989 N   0  0  0  0  0  0  0  0  0  0  0  0
    7.1713    0.0929   18.6492 C   0  0  0  0  0  0  0  0  0  0  0  0
    8.1083   -0.4246   18.4432 H   0  0  0  0  0  0  0  0  0  0  0  0
    6.6475    0.1359   19.9600 C   0  0  0  0  0  0  0  0  0  0  0  0
    7.3011   -0.5117   21.0532 N   0  0  0  0  0  0  0  0  0  0  0  0
    7.6311   -1.8557   21.0179 C   0  0  0  0  0  0  0  0  0  0  0  0
    7.2712   -2.5248   20.2484 H   0  0  0  0  0  0  0  0  0  0  0  0
    8.3074   -2.1621   22.1400 C   0  0  0  0  0  0  0  0  0  0  0  0
    8.9113   -3.4929   22.4327 C   0  0  0  0  0  0  0  0  0  0  0  0
    8.8938   -4.0119   21.4733 H   0  0  0  0  0  0  0  0  0  0  0  0
    9.9420   -3.4017   22.7810 H   0  0  0  0  0  0  0  0  0  0  0  0
    8.1801   -4.3375   23.3597 N   0  0  0  0  0  0  0  0  0  0  0  0
    8.2437   -4.1044   24.3352 H   0  0  0  0  0  0  0  0  0  0  0  0
    6.9814   -4.8768   22.9692 C   0  0  0  0  0  0  0  0  0  0  0  0
    6.5965   -4.8214   21.8093 O   0  0  0  0  0  0  0  0  0  0  0  0
    6.1859   -5.5706   24.0403 C   0  0  0  0  0  0  0  0  0  0  0  0
    6.7127   -5.9615   25.2846 C   0  0  0  0  0  0  0  0  0  0  0  0
    7.7437   -5.7460   25.5719 H   0  0  0  0  0  0  0  0  0  0  0  0
    5.9295   -6.7140   26.1629 C   0  0  0  0  0  0  0  0  0  0  0  0
    6.3581   -7.0299   27.1098 H   0  0  0  0  0  0  0  0  0  0  0  0
    4.6133   -7.0622   25.8294 C   0  0  0  0  0  0  0  0  0  0  0  0
    4.0032   -7.6548   26.5083 H   0  0  0  0  0  0  0  0  0  0  0  0
    4.0738   -6.6474   24.6073 C   0  0  0  0  0  0  0  0  0  0  0  0
    3.0450   -6.8811   24.3382 H   0  0  0  0  0  0  0  0  0  0  0  0
    4.8525   -5.8920   23.7320 C   0  0  0  0  0  0  0  0  0  0  0  0
    4.4385   -5.5245   22.7968 H   0  0  0  0  0  0  0  0  0  0  0  0
    8.3424   -0.9976   22.8945 N   0  0  0  0  0  0  0  0  0  0  0  0
    8.5644   -0.8563   23.8678 H   0  0  0  0  0  0  0  0  0  0  0  0
    7.6534    0.0104   22.2839 C   0  0  0  0  0  0  0  0  0  0  0  0
    7.3124    1.4677   23.0034 S   0  0  0  0  0  0  0  0  0  0  0  0
    5.4295    0.7814   20.1709 C   0  0  0  0  0  0  0  0  0  0  0  0
    5.0018    0.7930   21.1734 H   0  0  0  0  0  0  0  0  0  0  0  0
    4.7952    1.3644   19.0713 C   0  0  0  0  0  0  0  0  0  0  0  0
    3.8325    1.8479   19.1789 H   0  0  0  0  0  0  0  0  0  0  0  0
  1  2  1  0
  2  3  2  0
  3  4  1  0
  4  5  1  0
  4  6  2  0
  6  7  1  0
  7  8  1  0
  8  9  1  0
  8 10  2  0
 10 11  1  0
 11 12  1  0
 11 13  1  0
 11 14  1  0
 14 15  1  0
 14 16  1  0
 16 17  2  0
 16 18  1  0
 18 19  2  0
 19 20  1  0
 19 21  1  0
 21 22  1  0
 21 23  2  0
 23 24  1  0
 23 25  1  0
 25 26  1  0
 25 27  2  0
 27 28  1  0
 10 29  1  0
 29 30  1  0
 29 31  1  0
 31 32  2  0
  6 33  1  0
 33 34  1  0
 33 35  2  0
 35 36  1  0
 35  2  1  0
 31  7  1  0
 27 18  1  0
M  END
>  <cnnaffinity>  (1) 
-5.19655

>  <filename>  (1) 
O=C(NCc1cn(-c2cccnc2)c(=S)[nH]1)c1ccccc1

$$$$
