
     RDKit          3D

 23 24  0  0  0  0  0  0  0  0999 V2000
    4.9541    1.7918   17.0200 H   0  0  0  0  0  0  0  0  0  0  0  0
    5.4226    1.2805   17.8567 C   0  0  0  0  0  0  0  0  0  0  0  0
    6.5784    0.6556   17.5825 N   0  0  0  0  0  0  0  0  0  0  0  0
    7.1959    0.0280   18.5923 C   0  0  0  0  0  0  0  0  0  0  0  0
    8.1474   -0.4477   18.3550 H   0  0  0  0  0  0  0  0  0  0  0  0
    6.6733   -0.0405   19.9012 C   0  0  0  0  0  0  0  0  0  0  0  0
    7.3353   -0.7798   20.9471 N   0  0  0  0  0  0  0  0  0  0  0  0
    8.5983   -0.5149   21.4637 C   0  0  0  0  0  0  0  0  0  0  0  0
    9.3893    0.7074   21.1536 C   0  0  0  0  0  0  0  0  0  0  0  0
    8.9022    1.7212   20.7116 O   0  0  0  0  0  0  0  0  0  0  0  0
   10.8947    0.6353   21.5440 C   0  0  0  0  0  0  0  0  0  0  0  0
   11.0089    0.7569   22.8715 F   0  0  0  0  0  0  0  0  0  0  0  0
   11.6047    1.6105   20.9727 F   0  0  0  0  0  0  0  0  0  0  0  0
   11.4395   -0.5317   21.1848 F   0  0  0  0  0  0  0  0  0  0  0  0
    8.9556   -1.4039   22.3410 N   0  0  0  0  0  0  0  0  0  0  0  0
    7.8861   -2.2279   22.4093 N   0  0  0  0  0  0  0  0  0  0  0  0
    7.7880   -2.9939   23.0586 H   0  0  0  0  0  0  0  0  0  0  0  0
    6.8568   -1.9171   21.5929 C   0  0  0  0  0  0  0  0  0  0  0  0
    5.4479   -2.7855   21.4486 S   0  0  0  0  0  0  0  0  0  0  0  0
    5.4703    0.6133   20.1730 C   0  0  0  0  0  0  0  0  0  0  0  0
    5.0505    0.5701   21.1803 H   0  0  0  0  0  0  0  0  0  0  0  0
    4.8333    1.2942   19.1263 C   0  0  0  0  0  0  0  0  0  0  0  0
    3.8965    1.8229   19.2774 H   0  0  0  0  0  0  0  0  0  0  0  0
  1  2  1  0
  2  3  2  0
  3  4  1  0
  4  5  1  0
  4  6  2  0
  6  7  1  0
  7  8  1  0
  8  9  1  0
  9 10  2  0
  9 11  1  0
 11 12  1  0
 11 13  1  0
 11 14  1  0
  8 15  2  0
 15 16  1  0
 16 17  1  0
 16 18  1  0
 18 19  2  0
  6 20  1  0
 20 21  1  0
 20 22  2  0
 22 23  1  0
 22  2  1  0
 18  7  1  0
M  END
>  <cnnaffinity>  (1) 
-4.7086

>  <filename>  (1) 
O=C(c1n[nH]c(=S)n1-c1cccnc1)C(F)(F)F

$$$$
