
     RDKit          3D

 32 33  0  0  0  0  0  0  0  0999 V2000
    7.3131   -3.0059   19.6478 H   0  0  0  0  0  0  0  0  0  0  0  0
    6.4533   -2.8298   20.0720 O   0  0  0  0  0  0  0  0  0  0  0  0
    6.6668   -2.0946   21.2655 C   0  0  1  0  0  0  0  0  0  0  0  0
    5.6591   -1.9234   21.6555 H   0  0  0  0  0  0  0  0  0  0  0  0
    7.4499   -2.8576   22.3747 C   0  0  0  0  0  0  0  0  0  0  0  0
    8.5055   -3.4363   22.1621 O   0  0  0  0  0  0  0  0  0  0  0  0
    6.8992   -2.7487   23.6185 N   0  0  0  0  0  0  0  0  0  0  0  0
    6.0047   -2.2998   23.6951 H   0  0  0  0  0  0  0  0  0  0  0  0
    7.4227   -3.4518   24.7739 C   0  0  0  0  0  0  0  0  0  0  0  0
    6.9048   -3.0700   25.6582 H   0  0  0  0  0  0  0  0  0  0  0  0
    8.4768   -3.1861   24.9020 H   0  0  0  0  0  0  0  0  0  0  0  0
    7.2712   -4.9539   24.6858 C   0  0  0  0  0  0  0  0  0  0  0  0
    6.2924   -5.2918   24.3614 H   0  0  0  0  0  0  0  0  0  0  0  0
    7.9716   -5.8224   25.6901 C   0  0  0  0  0  0  0  0  0  0  0  0
    7.4505   -6.6950   26.0754 H   0  0  0  0  0  0  0  0  0  0  0  0
    8.6188   -5.3425   26.4205 H   0  0  0  0  0  0  0  0  0  0  0  0
    8.4207   -5.8147   24.2561 C   0  0  0  0  0  0  0  0  0  0  0  0
    9.3513   -5.3070   24.0124 H   0  0  0  0  0  0  0  0  0  0  0  0
    8.2083   -6.6730   23.6286 H   0  0  0  0  0  0  0  0  0  0  0  0
    7.3475   -0.7192   21.0231 C   0  0  0  0  0  0  0  0  0  0  0  0
    8.4138   -0.8879   20.8027 H   0  0  0  0  0  0  0  0  0  0  0  0
    7.3068   -0.1524   21.9644 H   0  0  0  0  0  0  0  0  0  0  0  0
    6.6648    0.0650   19.9210 C   0  0  0  0  0  0  0  0  0  0  0  0
    7.1624    0.0803   18.6073 C   0  0  0  0  0  0  0  0  0  0  0  0
    8.1042   -0.4225   18.3781 H   0  0  0  0  0  0  0  0  0  0  0  0
    6.5644    0.6832   17.5689 N   0  0  0  0  0  0  0  0  0  0  0  0
    5.4057    1.3098   17.8169 C   0  0  0  0  0  0  0  0  0  0  0  0
    4.9362    1.7955   16.9643 H   0  0  0  0  0  0  0  0  0  0  0  0
    4.8005    1.3470   19.0764 C   0  0  0  0  0  0  0  0  0  0  0  0
    3.8512    1.8562   19.2022 H   0  0  0  0  0  0  0  0  0  0  0  0
    5.4380    0.7146   20.1448 C   0  0  0  0  0  0  0  0  0  0  0  0
    4.9861    0.7085   21.1396 H   0  0  0  0  0  0  0  0  0  0  0  0
  1  2  1  0
  2  3  1  0
  3  4  1  1
  3  5  1  0
  5  6  2  0
  5  7  1  0
  7  8  1  0
  7  9  1  0
  9 10  1  0
  9 11  1  0
  9 12  1  0
 12 13  1  0
 12 14  1  0
 14 15  1  0
 14 16  1  0
 14 17  1  0
 17 18  1  0
 17 19  1  0
  3 20  1  0
 20 21  1  0
 20 22  1  0
 20 23  1  0
 23 24  2  0
 24 25  1  0
 24 26  1  0
 26 27  2  0
 27 28  1  0
 27 29  1  0
 29 30  1  0
 29 31  2  0
 31 32  1  0
 17 12  1  0
 31 23  1  0
M  END
>  <cnnaffinity>  (1) 
-3.87147

>  <filename>  (1) 
O=C(NCC1CC1)[C@H](O)Cc1cccnc1

$$$$
