
     RDKit          3D

 31 33  0  0  0  0  0  0  0  0999 V2000
    5.0100    1.7122   17.0188 H   0  0  0  0  0  0  0  0  0  0  0  0
    5.4610    1.2529   17.8993 C   0  0  0  0  0  0  0  0  0  0  0  0
    6.6304    0.6209   17.7164 N   0  0  0  0  0  0  0  0  0  0  0  0
    7.2201    0.0774   18.7773 C   0  0  0  0  0  0  0  0  0  0  0  0
    8.1678   -0.4302   18.5949 H   0  0  0  0  0  0  0  0  0  0  0  0
    6.6562    0.1419   20.0433 C   0  0  0  0  0  0  0  0  0  0  0  0
    7.5550   -0.7774   21.1923 S   0  0  0  0  0  0  0  0  0  0  0  0
    6.8902   -2.0353   21.4692 O   0  0  0  0  0  0  0  0  0  0  0  0
    8.9537   -0.6751   20.8360 O   0  0  0  0  0  0  0  0  0  0  0  0
    7.2659    0.0087   22.5849 N   0  0  0  0  0  0  0  0  0  0  0  0
    6.6969   -0.5503   23.1876 H   0  0  0  0  0  0  0  0  0  0  0  0
    7.7194    1.2931   22.7311 C   0  0  0  0  0  0  0  0  0  0  0  0
    8.1414    1.8783   21.7570 O   0  0  0  0  0  0  0  0  0  0  0  0
    7.5835    1.9049   24.0908 C   0  0  0  0  0  0  0  0  0  0  0  0
    7.2444    3.2206   24.2476 C   0  0  0  0  0  0  0  0  0  0  0  0
    7.0433    3.9520   23.4662 H   0  0  0  0  0  0  0  0  0  0  0  0
    7.0968    3.7175   25.8873 S   0  0  0  0  0  0  0  0  0  0  0  0
    7.5551    2.1363   26.4528 C   0  0  0  0  0  0  0  0  0  0  0  0
    7.7216    1.7442   27.7956 C   0  0  0  0  0  0  0  0  0  0  0  0
    7.5255    2.4290   28.6133 H   0  0  0  0  0  0  0  0  0  0  0  0
    8.1704    0.4598   28.0651 C   0  0  0  0  0  0  0  0  0  0  0  0
    8.3585    0.1828   29.1010 H   0  0  0  0  0  0  0  0  0  0  0  0
    8.4310   -0.4424   27.0108 C   0  0  0  0  0  0  0  0  0  0  0  0
    8.7798   -1.4438   27.2471 H   0  0  0  0  0  0  0  0  0  0  0  0
    8.2625   -0.0614   25.6825 C   0  0  0  0  0  0  0  0  0  0  0  0
    8.5200   -0.7500   24.8782 H   0  0  0  0  0  0  0  0  0  0  0  0
    7.8070    1.2514   25.3813 C   0  0  0  0  0  0  0  0  0  0  0  0
    5.4064    0.7334   20.2506 C   0  0  0  0  0  0  0  0  0  0  0  0
    4.8975    0.7411   21.2203 H   0  0  0  0  0  0  0  0  0  0  0  0
    4.8116    1.3181   19.1385 C   0  0  0  0  0  0  0  0  0  0  0  0
    3.8600    1.8309   19.2220 H   0  0  0  0  0  0  0  0  0  0  0  0
  1  2  1  0
  2  3  2  0
  3  4  1  0
  4  5  1  0
  4  6  2  0
  6  7  1  0
  7  8  2  0
  7  9  2  0
  7 10  1  0
 10 11  1  0
 10 12  1  0
 12 13  2  0
 12 14  1  0
 14 15  2  0
 15 16  1  0
 15 17  1  0
 17 18  1  0
 18 19  2  0
 19 20  1  0
 19 21  1  0
 21 22  1  0
 21 23  2  0
 23 24  1  0
 23 25  1  0
 25 26  1  0
 25 27  2  0
  6 28  1  0
 28 29  1  0
 28 30  2  0
 30 31  1  0
 30  2  1  0
 27 14  1  0
 27 18  1  0
M  END
>  <cnnaffinity>  (1) 
-4.94591

>  <filename>  (1) 
O=C(NS(=O)(=O)c1cccnc1)c1csc2ccccc12

$$$$
