
     RDKit          3D

 28 30  0  0  0  0  0  0  0  0999 V2000
    5.0229    1.5004   16.4589 H   0  0  0  0  0  0  0  0  0  0  0  0
    5.3972    1.1758   17.4253 C   0  0  0  0  0  0  0  0  0  0  0  0
    6.5454    0.4800   17.4012 N   0  0  0  0  0  0  0  0  0  0  0  0
    7.0443    0.0745   18.5756 C   0  0  0  0  0  0  0  0  0  0  0  0
    7.9913   -0.4634   18.5245 H   0  0  0  0  0  0  0  0  0  0  0  0
    6.4335    0.3293   19.8300 C   0  0  0  0  0  0  0  0  0  0  0  0
    7.0222   -0.1600   21.0179 N   0  0  0  0  0  0  0  0  0  0  0  0
    7.6831   -0.9118   20.9264 H   0  0  0  0  0  0  0  0  0  0  0  0
    6.7887    0.1019   22.3519 C   0  0  0  0  0  0  0  0  0  0  0  0
    6.0141    0.9415   22.7710 O   0  0  0  0  0  0  0  0  0  0  0  0
    7.5853   -0.8212   23.2485 C   0  0  0  0  0  0  0  0  0  0  0  0
    7.1064   -1.3488   24.4064 C   0  0  0  0  0  0  0  0  0  0  0  0
    6.1742   -1.1203   24.9098 H   0  0  0  0  0  0  0  0  0  0  0  0
    8.1337   -2.5344   25.1209 S   0  0  0  0  0  0  0  0  0  0  0  0
    9.3250   -2.3086   23.8766 C   0  0  0  0  0  0  0  0  0  0  0  0
   10.5451   -2.9965   23.7442 C   0  0  0  0  0  0  0  0  0  0  0  0
   10.8056   -3.8061   24.4212 H   0  0  0  0  0  0  0  0  0  0  0  0
   11.4137   -2.5937   22.7346 C   0  0  0  0  0  0  0  0  0  0  0  0
   12.3800   -3.0665   22.6179 H   0  0  0  0  0  0  0  0  0  0  0  0
   11.0901   -1.5284   21.8743 C   0  0  0  0  0  0  0  0  0  0  0  0
   11.7910   -1.2139   21.1046 H   0  0  0  0  0  0  0  0  0  0  0  0
    9.8772   -0.8730   21.9975 C   0  0  0  0  0  0  0  0  0  0  0  0
    9.6779    0.0090   21.4018 H   0  0  0  0  0  0  0  0  0  0  0  0
    8.9398   -1.3013   22.9725 C   0  0  0  0  0  0  0  0  0  0  0  0
    5.2472    1.0697   19.8358 C   0  0  0  0  0  0  0  0  0  0  0  0
    4.7784    1.3095   20.7852 H   0  0  0  0  0  0  0  0  0  0  0  0
    4.7190    1.4884   18.6052 C   0  0  0  0  0  0  0  0  0  0  0  0
    3.7987    2.0596   18.5510 H   0  0  0  0  0  0  0  0  0  0  0  0
  1  2  1  0
  2  3  2  0
  3  4  1  0
  4  5  1  0
  4  6  2  0
  6  7  1  0
  7  8  1  0
  7  9  1  0
  9 10  2  0
  9 11  1  0
 11 12  2  0
 12 13  1  0
 12 14  1  0
 14 15  1  0
 15 16  2  0
 16 17  1  0
 16 18  1  0
 18 19  1  0
 18 20  2  0
 20 21  1  0
 20 22  1  0
 22 23  1  0
 22 24  2  0
  6 25  1  0
 25 26  1  0
 25 27  2  0
 27 28  1  0
 27  2  1  0
 24 11  1  0
 24 15  1  0
M  END
>  <cnnaffinity>  (1) 
-4.97473

>  <filename>  (1) 
O=C(Nc1cccnc1)c1csc2ccccc12

$$$$
