
     RDKit          3D

 33 34  0  0  0  0  0  0  0  0999 V2000
    5.0091    1.7489   17.0456 H   0  0  0  0  0  0  0  0  0  0  0  0
    5.4605    1.2449   17.8945 C   0  0  0  0  0  0  0  0  0  0  0  0
    6.6276    0.6099   17.6656 N   0  0  0  0  0  0  0  0  0  0  0  0
    7.2098   -0.0043   18.7067 C   0  0  0  0  0  0  0  0  0  0  0  0
    8.1595   -0.4972   18.5142 H   0  0  0  0  0  0  0  0  0  0  0  0
    6.6697   -0.0363   20.0042 C   0  0  0  0  0  0  0  0  0  0  0  0
    7.4167   -0.7458   20.9995 N   0  0  0  0  0  0  0  0  0  0  0  0
    6.8690   -0.7367   22.1196 N   0  0  0  0  0  0  0  0  0  0  0  0
    7.5793   -1.4174   23.0407 N   0  0  0  0  0  0  0  0  0  0  0  0
    8.4631   -1.7737   22.7144 H   0  0  0  0  0  0  0  0  0  0  0  0
    7.1242   -1.4987   24.3542 C   0  0  0  0  0  0  0  0  0  0  0  0
    6.0854   -0.9741   24.6804 O   0  0  0  0  0  0  0  0  0  0  0  0
    8.0139   -2.2897   25.3396 C   0  0  0  0  0  0  0  0  0  0  0  0
    9.0544   -2.1178   25.0409 H   0  0  0  0  0  0  0  0  0  0  0  0
    7.8234   -1.7694   26.7952 C   0  0  0  0  0  0  0  0  0  0  0  0
    7.9542   -0.6814   26.8392 H   0  0  0  0  0  0  0  0  0  0  0  0
    8.6123   -2.2031   27.4254 H   0  0  0  0  0  0  0  0  0  0  0  0
    6.4518   -2.1602   27.3721 C   0  0  0  0  0  0  0  0  0  0  0  0
    6.3183   -1.7260   28.3680 H   0  0  0  0  0  0  0  0  0  0  0  0
    5.6805   -1.7211   26.7376 H   0  0  0  0  0  0  0  0  0  0  0  0
    6.2668   -3.6826   27.3719 C   0  0  0  0  0  0  0  0  0  0  0  0
    7.0412   -4.1592   27.9941 H   0  0  0  0  0  0  0  0  0  0  0  0
    5.3077   -3.9691   27.8234 H   0  0  0  0  0  0  0  0  0  0  0  0
    6.3731   -4.1925   25.9270 C   0  0  0  0  0  0  0  0  0  0  0  0
    6.2285   -5.2776   25.8902 H   0  0  0  0  0  0  0  0  0  0  0  0
    5.5612   -3.7416   25.3353 H   0  0  0  0  0  0  0  0  0  0  0  0
    7.7266   -3.8200   25.2967 C   0  0  0  0  0  0  0  0  0  0  0  0
    8.5272   -4.3318   25.8525 H   0  0  0  0  0  0  0  0  0  0  0  0
    7.7883   -4.1968   24.2697 H   0  0  0  0  0  0  0  0  0  0  0  0
    5.4460    0.6287   20.2218 C   0  0  0  0  0  0  0  0  0  0  0  0
    5.0129    0.6276   21.2205 H   0  0  0  0  0  0  0  0  0  0  0  0
    4.8358    1.2759   19.1468 C   0  0  0  0  0  0  0  0  0  0  0  0
    3.8993    1.8104   19.2855 H   0  0  0  0  0  0  0  0  0  0  0  0
  1  2  1  0
  2  3  2  0
  3  4  1  0
  4  5  1  0
  4  6  2  0
  6  7  1  0
  7  8  2  3
  8  9  1  0
  9 10  1  0
  9 11  1  0
 11 12  2  0
 11 13  1  0
 13 14  1  0
 13 15  1  0
 15 16  1  0
 15 17  1  0
 15 18  1  0
 18 19  1  0
 18 20  1  0
 18 21  1  0
 21 22  1  0
 21 23  1  0
 21 24  1  0
 24 25  1  0
 24 26  1  0
 24 27  1  0
 27 28  1  0
 27 29  1  0
  6 30  1  0
 30 31  1  0
 30 32  2  0
 32 33  1  0
 32  2  1  0
 27 13  1  0
M  END
>  <cnnaffinity>  (1) 
-4.66817

>  <filename>  (1) 
O=C(NN=Nc1cccnc1)C1CCCCC1

$$$$
