
     RDKit          3D

 30 31  0  0  0  0  0  0  0  0999 V2000
    5.1094    1.6380   16.9494 H   0  0  0  0  0  0  0  0  0  0  0  0
    5.5597    1.2337   17.8532 C   0  0  0  0  0  0  0  0  0  0  0  0
    6.7299    0.5996   17.6912 N   0  0  0  0  0  0  0  0  0  0  0  0
    7.2930    0.0732   18.7882 C   0  0  0  0  0  0  0  0  0  0  0  0
    8.2550   -0.4133   18.6400 H   0  0  0  0  0  0  0  0  0  0  0  0
    6.7263    0.1200   20.0815 C   0  0  0  0  0  0  0  0  0  0  0  0
    7.3307   -0.5743   21.3003 C   0  0  0  0  0  0  0  0  0  0  0  0
    8.0611   -1.3245   20.9753 H   0  0  0  0  0  0  0  0  0  0  0  0
    6.5566   -1.0948   21.8756 H   0  0  0  0  0  0  0  0  0  0  0  0
    8.0499    0.3641   22.2725 C   0  0  0  0  0  0  0  0  0  0  0  0
    7.6080    0.6650   23.3616 O   0  0  0  0  0  0  0  0  0  0  0  0
    9.4414    0.8832   21.7538 C   0  0  0  0  0  0  0  0  0  0  0  0
    9.7094    0.7334   20.5737 O   0  0  0  0  0  0  0  0  0  0  0  0
   10.2874    1.4442   22.6760 N   0  0  0  0  0  0  0  0  0  0  0  0
    9.9329    1.4675   23.6198 H   0  0  0  0  0  0  0  0  0  0  0  0
   11.3516    2.3322   22.3775 C   0  0  0  0  0  0  0  0  0  0  0  0
   11.5828    2.7804   21.0685 C   0  0  0  0  0  0  0  0  0  0  0  0
   11.0365    2.3531   20.2473 H   0  0  0  0  0  0  0  0  0  0  0  0
   12.4752    3.8215   20.8286 C   0  0  0  0  0  0  0  0  0  0  0  0
   12.6399    4.1509   19.8093 H   0  0  0  0  0  0  0  0  0  0  0  0
   13.1668    4.4076   21.8874 C   0  0  0  0  0  0  0  0  0  0  0  0
   14.1518    5.8015   21.5650 Cl  0  0  0  0  0  0  0  0  0  0  0  0
   13.0505    3.8837   23.1787 C   0  0  0  0  0  0  0  0  0  0  0  0
   13.6389    4.3120   23.9812 H   0  0  0  0  0  0  0  0  0  0  0  0
   12.1414    2.8417   23.4191 C   0  0  0  0  0  0  0  0  0  0  0  0
   12.0864    2.3800   24.3986 H   0  0  0  0  0  0  0  0  0  0  0  0
    5.5229    0.8231   20.2215 C   0  0  0  0  0  0  0  0  0  0  0  0
    5.0747    0.9265   21.2122 H   0  0  0  0  0  0  0  0  0  0  0  0
    4.9219    1.3791   19.0894 C   0  0  0  0  0  0  0  0  0  0  0  0
    3.9802    1.9147   19.1484 H   0  0  0  0  0  0  0  0  0  0  0  0
  1  2  1  0
  2  3  2  0
  3  4  1  0
  4  5  1  0
  4  6  2  0
  6  7  1  0
  7  8  1  0
  7  9  1  0
  7 10  1  0
 10 11  2  0
 10 12  1  0
 12 13  2  0
 12 14  1  0
 14 15  1  0
 14 16  1  0
 16 17  2  0
 17 18  1  0
 17 19  1  0
 19 20  1  0
 19 21  2  0
 21 22  1  0
 21 23  1  0
 23 24  1  0
 23 25  2  0
 25 26  1  0
  6 27  1  0
 27 28  1  0
 27 29  2  0
 29 30  1  0
 29  2  1  0
 25 16  1  0
M  END
>  <cnnaffinity>  (1) 
-5.03555

>  <filename>  (1) 
O=C(Cc1cccnc1)C(=O)Nc1ccc(Cl)cc1

$$$$
