
     RDKit          3D

 34 36  0  0  0  0  0  0  0  0999 V2000
    6.3155   -2.8025   20.1793 O   0  0  0  0  0  0  0  0  0  0  0  0
    6.7601   -2.1989   21.1404 C   0  0  0  0  0  0  0  0  0  0  0  0
    6.7645   -2.7676   22.3701 N   0  0  0  0  0  0  0  0  0  0  0  0
    6.1945   -4.1009   22.5729 C   0  0  0  0  0  0  0  0  0  0  0  0
    6.2728   -4.5173   24.0049 C   0  0  0  0  0  0  0  0  0  0  0  0
    5.3471   -4.2239   24.9766 C   0  0  0  0  0  0  0  0  0  0  0  0
    5.8464   -4.7542   26.1414 N   0  0  0  0  0  0  0  0  0  0  0  0
    5.3560   -4.7432   27.4339 C   0  0  0  0  0  0  0  0  0  0  0  0
    6.0747   -5.3493   28.4259 C   0  0  0  0  0  0  0  0  0  0  0  0
    7.3312   -5.9873   28.1151 C   0  0  0  0  0  0  0  0  0  0  0  0
    7.8160   -5.9933   26.8304 C   0  0  0  0  0  0  0  0  0  0  0  0
    7.0606   -5.3629   25.7990 C   0  0  0  0  0  0  0  0  0  0  0  0
    7.3187   -5.2335   24.5060 N   0  0  0  0  0  0  0  0  0  0  0  0
    8.7557   -6.4549   26.5432 H   0  0  0  0  0  0  0  0  0  0  0  0
    7.8964   -6.4721   28.9112 H   0  0  0  0  0  0  0  0  0  0  0  0
    5.7000   -5.3528   29.4484 H   0  0  0  0  0  0  0  0  0  0  0  0
    4.4049   -4.2393   27.5819 H   0  0  0  0  0  0  0  0  0  0  0  0
    4.4178   -3.6744   24.9349 H   0  0  0  0  0  0  0  0  0  0  0  0
    5.1453   -4.0973   22.2543 H   0  0  0  0  0  0  0  0  0  0  0  0
    6.7157   -4.8271   21.9402 H   0  0  0  0  0  0  0  0  0  0  0  0
    7.1591   -2.2868   23.1601 H   0  0  0  0  0  0  0  0  0  0  0  0
    7.3544   -0.7362   20.9844 C   0  0  0  0  0  0  0  0  0  0  0  0
    8.6897   -0.8531   20.7234 F   0  0  0  0  0  0  0  0  0  0  0  0
    7.2620   -0.0535   22.1785 F   0  0  0  0  0  0  0  0  0  0  0  0
    6.6750    0.0565   19.9016 C   0  0  0  0  0  0  0  0  0  0  0  0
    5.4416    0.6630   20.1622 C   0  0  0  0  0  0  0  0  0  0  0  0
    4.8020    1.3086   19.1061 C   0  0  0  0  0  0  0  0  0  0  0  0
    5.4040    1.2886   17.8421 C   0  0  0  0  0  0  0  0  0  0  0  0
    6.5676    0.6768   17.5781 N   0  0  0  0  0  0  0  0  0  0  0  0
    7.1882    0.0776   18.5987 C   0  0  0  0  0  0  0  0  0  0  0  0
    8.1260   -0.4263   18.3754 H   0  0  0  0  0  0  0  0  0  0  0  0
    4.9168    1.7748   17.0011 H   0  0  0  0  0  0  0  0  0  0  0  0
    3.8710    1.8432   19.2604 H   0  0  0  0  0  0  0  0  0  0  0  0
    5.0080    0.6315   21.1660 H   0  0  0  0  0  0  0  0  0  0  0  0
  1  2  2  0
  2  3  1  0
  3  4  1  0
  4  5  1  0
  5  6  2  0
  6  7  1  0
  7  8  1  0
  8  9  2  0
  9 10  1  0
 10 11  2  0
 11 12  1  0
 12 13  2  0
 11 14  1  0
 10 15  1  0
  9 16  1  0
  8 17  1  0
  6 18  1  0
  4 19  1  0
  4 20  1  0
  3 21  1  0
  2 22  1  0
 22 23  1  0
 22 24  1  0
 22 25  1  0
 25 26  2  0
 26 27  1  0
 27 28  2  0
 28 29  1  0
 29 30  2  0
 30 31  1  0
 28 32  1  0
 27 33  1  0
 26 34  1  0
 13  5  1  0
 30 25  1  0
 12  7  1  0
M  END
>  <cnnaffinity>  (1) 
-5.09706

>  <filename>  (1) 
O=C(NCc1cn2ccccc2n1)C(F)(F)c1cccnc1

$$$$
