
     RDKit          3D

 45 48  0  0  0  0  0  0  0  0999 V2000
    9.8079   -0.4214   21.5190 O   0  0  0  0  0  0  0  0  0  0  0  0
    8.7145    0.1220   21.4840 C   0  0  0  0  0  0  0  0  0  0  0  0
    8.5995    1.4618   21.7739 N   0  0  0  0  0  0  0  0  0  0  0  0
    7.4187    2.1421   22.3000 C   0  0  0  0  0  0  0  0  0  0  0  0
    7.7851    3.1686   23.3421 C   0  0  0  0  0  0  0  0  0  0  0  0
    9.0314    3.6501   23.5068 C   0  0  0  0  0  0  0  0  0  0  0  0
    9.3713    4.6675   24.5498 C   0  0  0  0  0  0  0  0  0  0  0  0
   10.3539    5.6419   24.2983 C   0  0  0  0  0  0  0  0  0  0  0  0
   10.7231    6.5299   25.3069 C   0  0  0  0  0  0  0  0  0  0  0  0
   10.0784    6.4197   26.5413 C   0  0  0  0  0  0  0  0  0  0  0  0
    9.0844    5.4484   26.6911 C   0  0  0  0  0  0  0  0  0  0  0  0
    8.7184    4.6028   25.7263 N   0  0  0  0  0  0  0  0  0  0  0  0
    8.5537    5.3386   27.6352 H   0  0  0  0  0  0  0  0  0  0  0  0
   10.3213    7.0689   27.3728 H   0  0  0  0  0  0  0  0  0  0  0  0
   11.5015    7.2728   25.1326 H   0  0  0  0  0  0  0  0  0  0  0  0
   10.7960    5.6853   23.3094 H   0  0  0  0  0  0  0  0  0  0  0  0
   10.1801    3.0757   22.6766 C   0  0  0  0  0  0  0  0  0  0  0  0
    9.6649    2.3947   21.4144 C   0  0  0  0  0  0  0  0  0  0  0  0
   10.4669    1.8837   20.8717 H   0  0  0  0  0  0  0  0  0  0  0  0
    9.2043    3.1334   20.7470 H   0  0  0  0  0  0  0  0  0  0  0  0
   10.7228    2.3325   23.2773 H   0  0  0  0  0  0  0  0  0  0  0  0
   10.9123    3.8389   22.3978 H   0  0  0  0  0  0  0  0  0  0  0  0
    6.9557    3.5478   23.9324 H   0  0  0  0  0  0  0  0  0  0  0  0
    6.8789    2.6608   21.4892 H   0  0  0  0  0  0  0  0  0  0  0  0
    6.7082    1.4391   22.7449 H   0  0  0  0  0  0  0  0  0  0  0  0
    7.4184   -0.6263   21.0398 C   0  0  0  0  0  0  0  0  0  0  0  0
    6.6618    0.1227   19.9406 C   0  0  0  0  0  0  0  0  0  0  0  0
    5.4371    0.7776   20.1550 C   0  0  0  0  0  0  0  0  0  0  0  0
    4.7936    1.3866   19.0733 C   0  0  0  0  0  0  0  0  0  0  0  0
    5.4095    1.3513   17.8179 C   0  0  0  0  0  0  0  0  0  0  0  0
    6.5866    0.7475   17.5891 N   0  0  0  0  0  0  0  0  0  0  0  0
    7.1821    0.1619   18.6351 C   0  0  0  0  0  0  0  0  0  0  0  0
    8.1425   -0.3141   18.4281 H   0  0  0  0  0  0  0  0  0  0  0  0
    4.9418    1.8174   16.9534 H   0  0  0  0  0  0  0  0  0  0  0  0
    3.8378    1.8898   19.1886 H   0  0  0  0  0  0  0  0  0  0  0  0
    5.0061    0.8257   21.1571 H   0  0  0  0  0  0  0  0  0  0  0  0
    6.5427   -1.1738   22.2169 C   0  0  0  0  0  0  0  0  0  0  0  0
    7.2643   -2.5324   22.1234 C   0  0  0  0  0  0  0  0  0  0  0  0
    7.7252   -2.1211   20.7116 C   0  0  0  0  0  0  0  0  0  0  0  0
    7.0210   -2.4689   19.9446 H   0  0  0  0  0  0  0  0  0  0  0  0
    8.7687   -2.3286   20.4496 H   0  0  0  0  0  0  0  0  0  0  0  0
    8.1060   -2.6094   22.8187 H   0  0  0  0  0  0  0  0  0  0  0  0
    6.6501   -3.4390   22.2082 H   0  0  0  0  0  0  0  0  0  0  0  0
    6.5241   -0.6387   23.1765 H   0  0  0  0  0  0  0  0  0  0  0  0
    5.5304   -1.2799   21.8213 H   0  0  0  0  0  0  0  0  0  0  0  0
  1  2  2  0
  2  3  1  0
  3  4  1  0
  4  5  1  0
  5  6  2  0
  6  7  1  0
  7  8  2  0
  8  9  1  0
  9 10  2  0
 10 11  1  0
 11 12  2  0
 11 13  1  0
 10 14  1  0
  9 15  1  0
  8 16  1  0
  6 17  1  0
 17 18  1  0
 18 19  1  0
 18 20  1  0
 17 21  1  0
 17 22  1  0
  5 23  1  0
  4 24  1  0
  4 25  1  0
  2 26  1  0
 26 27  1  0
 27 28  2  0
 28 29  1  0
 29 30  2  0
 30 31  1  0
 31 32  2  0
 32 33  1  0
 30 34  1  0
 29 35  1  0
 28 36  1  0
 26 37  1  0
 37 38  1  0
 38 39  1  0
 39 40  1  0
 39 41  1  0
 38 42  1  0
 38 43  1  0
 37 44  1  0
 37 45  1  0
 18  3  1  0
 39 26  1  0
 12  7  1  0
 32 27  1  0
M  END
>  <cnnaffinity>  (1) 
-5.30432

>  <filename>  (1) 
O=C(N1CC=C(c2ccccn2)CC1)C1(c2cccnc2)CCC1

$$$$
