
     RDKit          3D

 32 34  0  0  0  0  0  0  0  0999 V2000
    8.6420   -0.8382   20.8371 O   0  0  0  0  0  0  0  0  0  0  0  0
    7.4359   -0.7353   20.9628 C   0  0  0  0  0  0  0  0  0  0  0  0
    6.7384   -1.2681   22.0267 N   0  0  0  0  0  0  0  0  0  0  0  0
    7.3201   -1.5669   23.2614 C   0  0  0  0  0  0  0  0  0  0  0  0
    8.4500   -1.0211   23.8069 C   0  0  0  0  0  0  0  0  0  0  0  0
    8.5418   -1.6269   25.0737 C   0  0  0  0  0  0  0  0  0  0  0  0
    7.5547   -2.4758   25.3058 N   0  0  0  0  0  0  0  0  0  0  0  0
    6.7937   -2.4476   24.1790 N   0  0  0  0  0  0  0  0  0  0  0  0
    5.6506   -3.2989   24.0663 C   0  0  0  0  0  0  0  0  0  0  0  0
    4.8147   -3.4780   25.1819 C   0  0  0  0  0  0  0  0  0  0  0  0
    3.6906   -4.2906   25.0611 C   0  0  0  0  0  0  0  0  0  0  0  0
    2.6452   -4.5137   26.4330 Cl  0  0  0  0  0  0  0  0  0  0  0  0
    3.3884   -4.9479   23.8667 C   0  0  0  0  0  0  0  0  0  0  0  0
    4.2423   -4.7882   22.7735 C   0  0  0  0  0  0  0  0  0  0  0  0
    5.3726   -3.9713   22.8650 C   0  0  0  0  0  0  0  0  0  0  0  0
    6.0463   -3.8612   22.0222 H   0  0  0  0  0  0  0  0  0  0  0  0
    4.0272   -5.3053   21.8430 H   0  0  0  0  0  0  0  0  0  0  0  0
    2.5085   -5.5800   23.8198 H   0  0  0  0  0  0  0  0  0  0  0  0
    5.0416   -3.0002   26.1291 H   0  0  0  0  0  0  0  0  0  0  0  0
    9.2940   -1.4830   25.8438 H   0  0  0  0  0  0  0  0  0  0  0  0
    9.0822   -0.3049   23.3057 H   0  0  0  0  0  0  0  0  0  0  0  0
    5.7368   -1.3019   21.9568 H   0  0  0  0  0  0  0  0  0  0  0  0
    6.6003   -0.0486   19.9389 C   0  0  0  0  0  0  0  0  0  0  0  0
    5.3915    0.6247   20.1798 C   0  0  0  0  0  0  0  0  0  0  0  0
    4.7907    1.2991   19.1169 C   0  0  0  0  0  0  0  0  0  0  0  0
    5.4072    1.2746   17.8619 C   0  0  0  0  0  0  0  0  0  0  0  0
    6.5669    0.6470   17.6294 N   0  0  0  0  0  0  0  0  0  0  0  0
    7.1501    0.0200   18.6518 C   0  0  0  0  0  0  0  0  0  0  0  0
    8.1174   -0.4325   18.4428 H   0  0  0  0  0  0  0  0  0  0  0  0
    4.9649    1.7782   17.0033 H   0  0  0  0  0  0  0  0  0  0  0  0
    3.8684    1.8546   19.2401 H   0  0  0  0  0  0  0  0  0  0  0  0
    4.9452    0.6867   21.1764 H   0  0  0  0  0  0  0  0  0  0  0  0
  1  2  2  0
  2  3  1  0
  3  4  1  0
  4  5  2  0
  5  6  1  0
  6  7  2  0
  7  8  1  0
  8  9  1  0
  9 10  2  0
 10 11  1  0
 11 12  1  0
 11 13  2  0
 13 14  1  0
 14 15  2  0
 15 16  1  0
 14 17  1  0
 13 18  1  0
 10 19  1  0
  6 20  1  0
  5 21  1  0
  3 22  1  0
  2 23  1  0
 23 24  2  0
 24 25  1  0
 25 26  2  0
 26 27  1  0
 27 28  2  0
 28 29  1  0
 26 30  1  0
 25 31  1  0
 24 32  1  0
  8  4  1  0
 15  9  1  0
 28 23  1  0
M  END
>  <cnnaffinity>  (1) 
-5.33576

>  <filename>  (1) 
O=C(Nc1ccnn1-c1cccc(Cl)c1)c1cccnc1

$$$$
