
     RDKit          3D

 36 37  0  0  0  0  0  0  0  0999 V2000
    4.9385    1.8024   17.0167 H   0  0  0  0  0  0  0  0  0  0  0  0
    5.4194    1.2820   17.8416 C   0  0  0  0  0  0  0  0  0  0  0  0
    6.5790    0.6657   17.5656 N   0  0  0  0  0  0  0  0  0  0  0  0
    7.2030    0.0484   18.5823 C   0  0  0  0  0  0  0  0  0  0  0  0
    8.1446   -0.4437   18.3504 H   0  0  0  0  0  0  0  0  0  0  0  0
    6.7186   -0.0006   19.9232 C   0  0  0  0  0  0  0  0  0  0  0  0
    7.3867   -0.5774   20.9942 N   0  0  0  0  0  0  0  0  0  0  0  0
    6.8659   -0.7538   21.8357 H   0  0  0  0  0  0  0  0  0  0  0  0
    8.5790   -1.3552   20.9324 C   0  0  0  0  0  0  0  0  0  0  0  0
    8.5142   -2.1782   20.2061 H   0  0  0  0  0  0  0  0  0  0  0  0
    9.4260   -0.7297   20.6260 H   0  0  0  0  0  0  0  0  0  0  0  0
    8.7551   -1.8437   22.2806 N   0  0  0  0  0  0  0  0  0  0  0  0
    9.6864   -1.8000   22.6544 H   0  0  0  0  0  0  0  0  0  0  0  0
    8.1142   -3.0056   22.6529 C   0  0  0  0  0  0  0  0  0  0  0  0
    7.3196   -3.5818   21.9330 O   0  0  0  0  0  0  0  0  0  0  0  0
    8.5435   -3.5439   24.0218 C   0  0  0  0  0  0  0  0  0  0  0  0
    9.1723   -2.7773   24.4984 H   0  0  0  0  0  0  0  0  0  0  0  0
    9.4110   -4.8238   23.8289 C   0  0  0  0  0  0  0  0  0  0  0  0
   10.4565   -4.4934   23.7928 H   0  0  0  0  0  0  0  0  0  0  0  0
    9.1492   -5.3088   22.8810 H   0  0  0  0  0  0  0  0  0  0  0  0
    9.2772   -5.8630   24.9565 C   0  0  0  0  0  0  0  0  0  0  0  0
    8.3783   -6.4724   24.7877 H   0  0  0  0  0  0  0  0  0  0  0  0
   10.1217   -6.5595   24.9407 H   0  0  0  0  0  0  0  0  0  0  0  0
    9.1672   -5.1554   26.3061 C   0  0  0  0  0  0  0  0  0  0  0  0
   10.0509   -4.5142   26.4536 H   0  0  0  0  0  0  0  0  0  0  0  0
    9.1711   -5.8774   27.1285 H   0  0  0  0  0  0  0  0  0  0  0  0
    7.8726   -4.3101   26.3637 C   0  0  0  0  0  0  0  0  0  0  0  0
    7.0696   -4.9062   26.8117 H   0  0  0  0  0  0  0  0  0  0  0  0
    8.0287   -3.4591   27.0355 H   0  0  0  0  0  0  0  0  0  0  0  0
    7.3714   -3.8096   24.9845 C   0  0  0  0  0  0  0  0  0  0  0  0
    6.7043   -4.5597   24.5376 H   0  0  0  0  0  0  0  0  0  0  0  0
    6.7803   -2.8986   25.1248 H   0  0  0  0  0  0  0  0  0  0  0  0
    5.4849    0.6204   20.1698 C   0  0  0  0  0  0  0  0  0  0  0  0
    5.0758    0.6023   21.1816 H   0  0  0  0  0  0  0  0  0  0  0  0
    4.8375    1.2741   19.1187 C   0  0  0  0  0  0  0  0  0  0  0  0
    3.9022    1.7923   19.2844 H   0  0  0  0  0  0  0  0  0  0  0  0
  1  2  1  0
  2  3  2  0
  3  4  1  0
  4  5  1  0
  4  6  2  0
  6  7  1  0
  7  8  1  0
  7  9  1  0
  9 10  1  0
  9 11  1  0
  9 12  1  0
 12 13  1  0
 12 14  1  0
 14 15  2  0
 14 16  1  0
 16 17  1  0
 16 18  1  0
 18 19  1  0
 18 20  1  0
 18 21  1  0
 21 22  1  0
 21 23  1  0
 21 24  1  0
 24 25  1  0
 24 26  1  0
 24 27  1  0
 27 28  1  0
 27 29  1  0
 27 30  1  0
 30 31  1  0
 30 32  1  0
  6 33  1  0
 33 34  1  0
 33 35  2  0
 35 36  1  0
 35  2  1  0
 30 16  1  0
M  END
>  <cnnaffinity>  (1) 
-4.86643

>  <filename>  (1) 
O=C(NCNc1cccnc1)C1CCCCC1

$$$$
