
     RDKit          3D

 37 38  0  0  0  0  0  0  0  0999 V2000
    4.9886    1.7979   17.0074 H   0  0  0  0  0  0  0  0  0  0  0  0
    5.4454    1.2891   17.8578 C   0  0  0  0  0  0  0  0  0  0  0  0
    6.6173    0.6817   17.6171 N   0  0  0  0  0  0  0  0  0  0  0  0
    7.2088    0.0480   18.6311 C   0  0  0  0  0  0  0  0  0  0  0  0
    8.1709   -0.4147   18.4183 H   0  0  0  0  0  0  0  0  0  0  0  0
    6.6586   -0.0554   19.9312 C   0  0  0  0  0  0  0  0  0  0  0  0
    7.4006   -0.7883   21.0031 C   0  0  0  0  0  0  0  0  0  0  0  0
    9.0245   -0.6698   21.1237 S   0  0  0  0  0  0  0  0  0  0  0  0
    6.5976   -1.7230   21.9777 C   0  0  0  0  0  0  0  0  0  0  0  0
    5.5454   -2.2204   21.6369 O   0  0  0  0  0  0  0  0  0  0  0  0
    7.1771   -1.9610   23.2125 N   0  0  0  0  0  0  0  0  0  0  0  0
    8.1652   -2.1636   23.1754 H   0  0  0  0  0  0  0  0  0  0  0  0
    6.6187   -2.8987   24.1006 C   0  0  0  0  0  0  0  0  0  0  0  0
    7.3258   -3.7603   24.5701 O   0  0  0  0  0  0  0  0  0  0  0  0
    5.3185   -2.6796   24.3533 N   0  0  0  0  0  0  0  0  0  0  0  0
    4.9804   -1.8264   23.9606 H   0  0  0  0  0  0  0  0  0  0  0  0
    4.5327   -3.2399   25.4282 C   0  0  0  0  0  0  0  0  0  0  0  0
    4.8384   -4.2870   25.5824 H   0  0  0  0  0  0  0  0  0  0  0  0
    3.0592   -3.2000   24.9931 C   0  0  0  0  0  0  0  0  0  0  0  0
    2.9599   -3.7387   24.0434 H   0  0  0  0  0  0  0  0  0  0  0  0
    2.7929   -2.1450   24.8002 H   0  0  0  0  0  0  0  0  0  0  0  0
    2.1273   -3.7875   26.0633 C   0  0  0  0  0  0  0  0  0  0  0  0
    1.0846   -3.7056   25.7335 H   0  0  0  0  0  0  0  0  0  0  0  0
    2.3431   -4.8633   26.1660 H   0  0  0  0  0  0  0  0  0  0  0  0
    2.3244   -3.0947   27.4224 C   0  0  0  0  0  0  0  0  0  0  0  0
    1.7187   -3.5982   28.1861 H   0  0  0  0  0  0  0  0  0  0  0  0
    1.9541   -2.0593   27.3584 H   0  0  0  0  0  0  0  0  0  0  0  0
    3.8051   -3.0814   27.8446 C   0  0  0  0  0  0  0  0  0  0  0  0
    3.9264   -2.5337   28.7867 H   0  0  0  0  0  0  0  0  0  0  0  0
    4.1335   -4.1162   28.0351 H   0  0  0  0  0  0  0  0  0  0  0  0
    4.7055   -2.4750   26.7540 C   0  0  0  0  0  0  0  0  0  0  0  0
    5.7590   -2.4959   27.0606 H   0  0  0  0  0  0  0  0  0  0  0  0
    4.4374   -1.4155   26.5959 H   0  0  0  0  0  0  0  0  0  0  0  0
    5.4285    0.5776   20.1603 C   0  0  0  0  0  0  0  0  0  0  0  0
    4.9575    0.5437   21.1435 H   0  0  0  0  0  0  0  0  0  0  0  0
    4.8212    1.2700   19.1069 C   0  0  0  0  0  0  0  0  0  0  0  0
    3.8904    1.8063   19.2354 H   0  0  0  0  0  0  0  0  0  0  0  0
  1  2  1  0
  2  3  2  0
  3  4  1  0
  4  5  1  0
  4  6  2  0
  6  7  1  0
  7  8  2  0
  7  9  1  0
  9 10  2  0
  9 11  1  0
 11 12  1  0
 11 13  1  0
 13 14  2  0
 13 15  1  0
 15 16  1  0
 15 17  1  0
 17 18  1  0
 17 19  1  0
 19 20  1  0
 19 21  1  0
 19 22  1  0
 22 23  1  0
 22 24  1  0
 22 25  1  0
 25 26  1  0
 25 27  1  0
 25 28  1  0
 28 29  1  0
 28 30  1  0
 28 31  1  0
 31 32  1  0
 31 33  1  0
  6 34  1  0
 34 35  1  0
 34 36  2  0
 36 37  1  0
 36  2  1  0
 31 17  1  0
M  END
>  <cnnaffinity>  (1) 
-4.97797

>  <filename>  (1) 
O=C(NC(=O)C(=S)c1cccnc1)NC1CCCCC1

$$$$
