
     RDKit          3D

 34 36  0  0  0  0  0  0  0  0999 V2000
    5.0344    1.8192   16.9599 H   0  0  0  0  0  0  0  0  0  0  0  0
    5.4787    1.3055   17.8110 C   0  0  0  0  0  0  0  0  0  0  0  0
    6.6281    0.6539   17.5702 N   0  0  0  0  0  0  0  0  0  0  0  0
    7.2038    0.0176   18.6002 C   0  0  0  0  0  0  0  0  0  0  0  0
    8.1436   -0.4943   18.3890 H   0  0  0  0  0  0  0  0  0  0  0  0
    6.6671   -0.0247   19.9019 C   0  0  0  0  0  0  0  0  0  0  0  0
    7.3272   -0.7587   21.0226 C   0  0  0  0  0  0  0  0  0  0  0  0
    8.6116   -0.4376   21.5318 C   0  0  0  0  0  0  0  0  0  0  0  0
    9.2906    0.9216   21.1800 C   0  0  0  0  0  0  0  0  0  0  0  0
    8.6722    1.8796   20.7422 O   0  0  0  0  0  0  0  0  0  0  0  0
   10.6434    0.9372   21.3644 N   0  0  0  0  0  0  0  0  0  0  0  0
   11.0031    0.1571   21.8929 H   0  0  0  0  0  0  0  0  0  0  0  0
   11.4977    2.0699   21.0956 C   0  0  0  0  0  0  0  0  0  0  0  0
   12.5204    1.6917   21.0162 H   0  0  0  0  0  0  0  0  0  0  0  0
   11.2253    2.5090   20.1322 H   0  0  0  0  0  0  0  0  0  0  0  0
   11.4654    3.1566   22.1387 C   0  0  0  0  0  0  0  0  0  0  0  0
   10.4516    3.4342   22.4117 H   0  0  0  0  0  0  0  0  0  0  0  0
   12.4985    4.2456   22.0166 C   0  0  0  0  0  0  0  0  0  0  0  0
   13.2572    4.1498   21.2390 H   0  0  0  0  0  0  0  0  0  0  0  0
   12.1917    5.2710   22.2009 H   0  0  0  0  0  0  0  0  0  0  0  0
   12.5433    3.2903   23.1809 C   0  0  0  0  0  0  0  0  0  0  0  0
   13.3156    2.5200   23.2110 H   0  0  0  0  0  0  0  0  0  0  0  0
   12.2504    3.6812   24.1525 H   0  0  0  0  0  0  0  0  0  0  0  0
    9.2681   -1.2856   22.3587 N   0  0  0  0  0  0  0  0  0  0  0  0
    8.6437   -2.3608   22.8322 C   0  0  0  0  0  0  0  0  0  0  0  0
    9.2495   -2.9883   23.4831 H   0  0  0  0  0  0  0  0  0  0  0  0
    7.3132   -2.6628   22.5194 C   0  0  0  0  0  0  0  0  0  0  0  0
    6.8344   -3.5193   22.9809 H   0  0  0  0  0  0  0  0  0  0  0  0
    6.6506   -1.8428   21.6083 C   0  0  0  0  0  0  0  0  0  0  0  0
    5.6231   -2.0468   21.3029 H   0  0  0  0  0  0  0  0  0  0  0  0
    5.4437    0.6213   20.1143 C   0  0  0  0  0  0  0  0  0  0  0  0
    4.9987    0.5961   21.1125 H   0  0  0  0  0  0  0  0  0  0  0  0
    4.8465    1.3165   19.0610 C   0  0  0  0  0  0  0  0  0  0  0  0
    3.9155    1.8592   19.1922 H   0  0  0  0  0  0  0  0  0  0  0  0
  1  2  1  0
  2  3  2  0
  3  4  1  0
  4  5  1  0
  4  6  2  0
  6  7  1  0
  7  8  1  0
  8  9  1  0
  9 10  2  0
  9 11  1  0
 11 12  1  0
 11 13  1  0
 13 14  1  0
 13 15  1  0
 13 16  1  0
 16 17  1  0
 16 18  1  0
 18 19  1  0
 18 20  1  0
 18 21  1  0
 21 22  1  0
 21 23  1  0
  8 24  2  0
 24 25  1  0
 25 26  1  0
 25 27  2  0
 27 28  1  0
 27 29  1  0
 29 30  1  0
  6 31  1  0
 31 32  1  0
 31 33  2  0
 33 34  1  0
 33  2  1  0
 29  7  2  0
 21 16  1  0
M  END
>  <cnnaffinity>  (1) 
-5.32678

>  <filename>  (1) 
O=C(NCC1CC1)c1ncccc1-c1cccnc1

$$$$
