
     RDKit          3D

 32 34  0  0  0  0  0  0  0  0999 V2000
    5.0273    1.7909   16.9709 H   0  0  0  0  0  0  0  0  0  0  0  0
    5.4390    1.2880   17.8445 C   0  0  0  0  0  0  0  0  0  0  0  0
    6.6053    0.6442   17.6681 N   0  0  0  0  0  0  0  0  0  0  0  0
    7.1364    0.0142   18.7232 C   0  0  0  0  0  0  0  0  0  0  0  0
    8.0907   -0.4932   18.5703 H   0  0  0  0  0  0  0  0  0  0  0  0
    6.5354   -0.0039   19.9943 C   0  0  0  0  0  0  0  0  0  0  0  0
    7.1453   -0.7174   21.0906 N   0  0  0  0  0  0  0  0  0  0  0  0
    7.8412   -0.1686   22.1607 C   0  0  0  0  0  0  0  0  0  0  0  0
    7.9710    1.3262   22.4282 C   0  0  0  0  0  0  0  0  0  0  0  0
    7.8279    2.1606   21.5512 O   0  0  0  0  0  0  0  0  0  0  0  0
    8.2688    1.6239   23.7298 N   0  0  0  0  0  0  0  0  0  0  0  0
    8.4162    0.8266   24.3322 H   0  0  0  0  0  0  0  0  0  0  0  0
    8.5087    2.9098   24.2642 C   0  0  0  0  0  0  0  0  0  0  0  0
    9.1610    3.8743   23.4860 C   0  0  0  0  0  0  0  0  0  0  0  0
    9.4320    3.6202   22.4691 H   0  0  0  0  0  0  0  0  0  0  0  0
    9.4299    5.1312   24.0275 C   0  0  0  0  0  0  0  0  0  0  0  0
    9.9404    5.8625   23.4074 H   0  0  0  0  0  0  0  0  0  0  0  0
    9.0405    5.4452   25.3311 C   0  0  0  0  0  0  0  0  0  0  0  0
    9.2494    6.4306   25.7363 H   0  0  0  0  0  0  0  0  0  0  0  0
    8.3804    4.4800   26.1019 C   0  0  0  0  0  0  0  0  0  0  0  0
    8.0714    4.7208   27.1136 H   0  0  0  0  0  0  0  0  0  0  0  0
    8.1223    3.2092   25.5767 C   0  0  0  0  0  0  0  0  0  0  0  0
    7.6062    2.4650   26.1801 H   0  0  0  0  0  0  0  0  0  0  0  0
    8.3662   -1.1109   22.9058 N   0  0  0  0  0  0  0  0  0  0  0  0
    7.9719   -2.2560   22.3073 N   0  0  0  0  0  0  0  0  0  0  0  0
    8.1565   -3.1624   22.7069 H   0  0  0  0  0  0  0  0  0  0  0  0
    7.1651   -2.1022   21.2340 C   0  0  0  0  0  0  0  0  0  0  0  0
    6.3534   -3.3015   20.4202 S   0  0  0  0  0  0  0  0  0  0  0  0
    5.3240    0.6702   20.1681 C   0  0  0  0  0  0  0  0  0  0  0  0
    4.8533    0.6889   21.1491 H   0  0  0  0  0  0  0  0  0  0  0  0
    4.7604    1.3231   19.0651 C   0  0  0  0  0  0  0  0  0  0  0  0
    3.8277    1.8761   19.1439 H   0  0  0  0  0  0  0  0  0  0  0  0
  1  2  1  0
  2  3  2  0
  3  4  1  0
  4  5  1  0
  4  6  2  0
  6  7  1  0
  7  8  1  0
  8  9  1  0
  9 10  2  0
  9 11  1  0
 11 12  1  0
 11 13  1  0
 13 14  2  0
 14 15  1  0
 14 16  1  0
 16 17  1  0
 16 18  2  0
 18 19  1  0
 18 20  1  0
 20 21  1  0
 20 22  2  0
 22 23  1  0
  8 24  2  0
 24 25  1  0
 25 26  1  0
 25 27  1  0
 27 28  2  0
  6 29  1  0
 29 30  1  0
 29 31  2  0
 31 32  1  0
 31  2  1  0
 27  7  1  0
 22 13  1  0
M  END
>  <cnnaffinity>  (1) 
-4.94571

>  <filename>  (1) 
O=C(Nc1ccccc1)c1n[nH]c(=S)n1-c1cccnc1

$$$$
