
     RDKit          3D

 29 30  0  0  0  0  0  0  0  0999 V2000
   11.1720   -3.9567   25.8428 H   0  0  0  0  0  0  0  0  0  0  0  0
   10.1804   -4.1854   25.4597 C   0  0  0  0  0  0  0  0  0  0  0  0
    9.8135   -3.5592   24.3378 N   0  0  0  0  0  0  0  0  0  0  0  0
    8.6085   -3.8611   23.8006 C   0  0  0  0  0  0  0  0  0  0  0  0
    8.1287   -3.0941   22.5408 C   0  0  0  0  0  0  0  0  0  0  0  0
    7.2097   -3.5124   21.8519 O   0  0  0  0  0  0  0  0  0  0  0  0
    8.7502   -1.9142   22.2456 N   0  0  0  0  0  0  0  0  0  0  0  0
    9.6218   -1.7750   22.7252 H   0  0  0  0  0  0  0  0  0  0  0  0
    8.5787   -1.3434   20.9322 C   0  0  0  0  0  0  0  0  0  0  0  0
    8.4659   -2.1354   20.1777 H   0  0  0  0  0  0  0  0  0  0  0  0
    9.4563   -0.7462   20.6560 H   0  0  0  0  0  0  0  0  0  0  0  0
    7.4090   -0.5251   21.0124 N   0  0  0  0  0  0  0  0  0  0  0  0
    6.8462   -0.7666   21.8110 H   0  0  0  0  0  0  0  0  0  0  0  0
    6.7301    0.0194   19.9228 C   0  0  0  0  0  0  0  0  0  0  0  0
    7.2069    0.0568   18.5824 C   0  0  0  0  0  0  0  0  0  0  0  0
    8.1461   -0.4362   18.3377 H   0  0  0  0  0  0  0  0  0  0  0  0
    6.5791    0.6636   17.5623 N   0  0  0  0  0  0  0  0  0  0  0  0
    5.4167    1.2794   17.8361 C   0  0  0  0  0  0  0  0  0  0  0  0
    4.9330    1.7972   17.0106 H   0  0  0  0  0  0  0  0  0  0  0  0
    4.8348    1.2751   19.1108 C   0  0  0  0  0  0  0  0  0  0  0  0
    3.8933    1.7891   19.2767 H   0  0  0  0  0  0  0  0  0  0  0  0
    5.4882    0.6312   20.1647 C   0  0  0  0  0  0  0  0  0  0  0  0
    5.0782    0.6094   21.1747 H   0  0  0  0  0  0  0  0  0  0  0  0
    7.7607   -4.8312   24.3667 C   0  0  0  0  0  0  0  0  0  0  0  0
    6.8329   -5.0812   23.8676 H   0  0  0  0  0  0  0  0  0  0  0  0
    8.1306   -5.4396   25.5658 C   0  0  0  0  0  0  0  0  0  0  0  0
    7.4648   -6.1588   26.0510 H   0  0  0  0  0  0  0  0  0  0  0  0
    9.3627   -5.1029   26.1257 C   0  0  0  0  0  0  0  0  0  0  0  0
    9.6829   -5.5377   27.0656 H   0  0  0  0  0  0  0  0  0  0  0  0
  1  2  1  0
  2  3  2  0
  3  4  1  0
  4  5  1  0
  5  6  2  0
  5  7  1  0
  7  8  1  0
  7  9  1  0
  9 10  1  0
  9 11  1  0
  9 12  1  0
 12 13  1  0
 12 14  1  0
 14 15  2  0
 15 16  1  0
 15 17  1  0
 17 18  2  0
 18 19  1  0
 18 20  1  0
 20 21  1  0
 20 22  2  0
 22 23  1  0
  4 24  2  0
 24 25  1  0
 24 26  1  0
 26 27  1  0
 26 28  2  0
 28 29  1  0
 28  2  1  0
 22 14  1  0
M  END
>  <cnnaffinity>  (1) 
-4.52854

>  <filename>  (1) 
O=C(NCNc1cccnc1)c1ccccn1

$$$$
