
     RDKit          3D

 38 40  0  0  0  0  0  0  0  0999 V2000
    4.9555    1.7764   17.0106 H   0  0  0  0  0  0  0  0  0  0  0  0
    5.4197    1.2735   17.8591 C   0  0  0  0  0  0  0  0  0  0  0  0
    6.5868    0.6555   17.6138 N   0  0  0  0  0  0  0  0  0  0  0  0
    7.1929    0.0273   18.6315 C   0  0  0  0  0  0  0  0  0  0  0  0
    8.1404   -0.4528   18.3952 H   0  0  0  0  0  0  0  0  0  0  0  0
    6.6635   -0.0280   19.9386 C   0  0  0  0  0  0  0  0  0  0  0  0
    7.3246   -0.8187   20.9018 O   0  0  0  0  0  0  0  0  0  0  0  0
    7.3376   -0.4480   22.2204 C   0  0  0  0  0  0  0  0  0  0  0  0
    7.0193    0.6554   22.5929 O   0  0  0  0  0  0  0  0  0  0  0  0
    7.7459   -1.5105   23.1994 C   0  0  0  0  0  0  0  0  0  0  0  0
    8.3030   -2.7656   22.5781 C   0  0  0  0  0  0  0  0  0  0  0  0
    9.4944   -2.8599   22.3307 O   0  0  0  0  0  0  0  0  0  0  0  0
    7.4253   -3.8076   22.3650 N   0  0  0  0  0  0  0  0  0  0  0  0
    7.9806   -5.1374   22.0652 C   0  0  0  0  0  0  0  0  0  0  0  0
    8.1202   -5.2517   20.9774 H   0  0  0  0  0  0  0  0  0  0  0  0
    8.9668   -5.1913   22.5296 H   0  0  0  0  0  0  0  0  0  0  0  0
    7.0838   -6.2568   22.6047 C   0  0  0  0  0  0  0  0  0  0  0  0
    7.1069   -6.2191   23.7027 H   0  0  0  0  0  0  0  0  0  0  0  0
    7.5013   -7.2276   22.3115 H   0  0  0  0  0  0  0  0  0  0  0  0
    5.6391   -6.1063   22.1135 C   0  0  0  0  0  0  0  0  0  0  0  0
    4.9992   -6.8873   22.5445 H   0  0  0  0  0  0  0  0  0  0  0  0
    5.5947   -6.2534   21.0220 H   0  0  0  0  0  0  0  0  0  0  0  0
    5.1256   -4.7064   22.4901 C   0  0  0  0  0  0  0  0  0  0  0  0
    5.0796   -4.6195   23.5865 H   0  0  0  0  0  0  0  0  0  0  0  0
    4.1098   -4.5503   22.1103 H   0  0  0  0  0  0  0  0  0  0  0  0
    6.0361   -3.5986   21.9455 C   0  0  0  0  0  0  0  0  0  0  0  0
    5.7020   -2.6214   22.3027 H   0  0  0  0  0  0  0  0  0  0  0  0
    5.9823   -3.5919   20.8430 H   0  0  0  0  0  0  0  0  0  0  0  0
    8.3961   -1.0278   24.4990 C   0  0  0  0  0  0  0  0  0  0  0  0
    8.5398    0.0489   24.6076 H   0  0  0  0  0  0  0  0  0  0  0  0
    9.2340   -1.6054   24.8946 H   0  0  0  0  0  0  0  0  0  0  0  0
    7.0036   -1.5722   24.5349 C   0  0  0  0  0  0  0  0  0  0  0  0
    6.1818   -0.8685   24.6772 H   0  0  0  0  0  0  0  0  0  0  0  0
    6.8232   -2.5596   24.9642 H   0  0  0  0  0  0  0  0  0  0  0  0
    5.4561    0.6368   20.1903 C   0  0  0  0  0  0  0  0  0  0  0  0
    5.0266    0.6466   21.1880 H   0  0  0  0  0  0  0  0  0  0  0  0
    4.8274    1.2869   19.1224 C   0  0  0  0  0  0  0  0  0  0  0  0
    3.8953    1.8193   19.2609 H   0  0  0  0  0  0  0  0  0  0  0  0
  1  2  1  0
  2  3  2  0
  3  4  1  0
  4  5  1  0
  4  6  2  0
  6  7  1  0
  7  8  1  0
  8  9  2  0
  8 10  1  0
 10 11  1  0
 11 12  2  0
 11 13  1  0
 13 14  1  0
 14 15  1  0
 14 16  1  0
 14 17  1  0
 17 18  1  0
 17 19  1  0
 17 20  1  0
 20 21  1  0
 20 22  1  0
 20 23  1  0
 23 24  1  0
 23 25  1  0
 23 26  1  0
 26 27  1  0
 26 28  1  0
 10 29  1  0
 29 30  1  0
 29 31  1  0
 29 32  1  0
 32 33  1  0
 32 34  1  0
  6 35  1  0
 35 36  1  0
 35 37  2  0
 37 38  1  0
 37  2  1  0
 32 10  1  0
 26 13  1  0
M  END
>  <cnnaffinity>  (1) 
-5.0394

>  <filename>  (1) 
O=C(Oc1cccnc1)C1(C(=O)N2CCCCC2)CC1

$$$$
