
     RDKit          3D

 35 37  0  0  0  0  0  0  0  0999 V2000
    4.9458    1.8008   16.9988 H   0  0  0  0  0  0  0  0  0  0  0  0
    5.4223    1.3424   17.8634 C   0  0  0  0  0  0  0  0  0  0  0  0
    6.5893    0.7196   17.6411 N   0  0  0  0  0  0  0  0  0  0  0  0
    7.1704    0.1109   18.6822 C   0  0  0  0  0  0  0  0  0  0  0  0
    8.1217   -0.3743   18.4671 H   0  0  0  0  0  0  0  0  0  0  0  0
    6.6387    0.0801   19.9937 C   0  0  0  0  0  0  0  0  0  0  0  0
    7.2821   -0.6708   21.1019 C   0  0  0  0  0  0  0  0  0  0  0  0
    7.7029   -2.0248   21.1292 C   0  0  0  0  0  0  0  0  0  0  0  0
    7.6053   -2.7759   20.3713 H   0  0  0  0  0  0  0  0  0  0  0  0
    8.1909   -2.3776   22.3078 N   0  0  0  0  0  0  0  0  0  0  0  0
    8.0793   -1.2864   23.0561 N   0  0  0  0  0  0  0  0  0  0  0  0
    8.3807   -1.3031   24.0240 H   0  0  0  0  0  0  0  0  0  0  0  0
    7.5299   -0.2324   22.4077 C   0  0  0  0  0  0  0  0  0  0  0  0
    7.2199    1.0083   23.1883 C   0  0  0  0  0  0  0  0  0  0  0  0
    6.9876    0.9854   24.3883 O   0  0  0  0  0  0  0  0  0  0  0  0
    7.2818    2.1651   22.4816 N   0  0  0  0  0  0  0  0  0  0  0  0
    7.3073    2.0445   21.4805 H   0  0  0  0  0  0  0  0  0  0  0  0
    6.6843    3.4024   22.9700 C   0  0  0  0  0  0  0  0  0  0  0  0
    7.2259    4.2179   22.4843 H   0  0  0  0  0  0  0  0  0  0  0  0
    6.8505    3.4901   24.0512 H   0  0  0  0  0  0  0  0  0  0  0  0
    5.2095    3.5055   22.6287 C   0  0  0  0  0  0  0  0  0  0  0  0
    4.2231    2.7411   23.2763 C   0  0  0  0  0  0  0  0  0  0  0  0
    4.5151    2.0684   24.0833 H   0  0  0  0  0  0  0  0  0  0  0  0
    2.8777    2.8720   22.9028 C   0  0  0  0  0  0  0  0  0  0  0  0
    2.1052    2.3319   23.4467 H   0  0  0  0  0  0  0  0  0  0  0  0
    2.5032    3.7347   21.8614 C   0  0  0  0  0  0  0  0  0  0  0  0
    1.4601    3.8278   21.5611 H   0  0  0  0  0  0  0  0  0  0  0  0
    3.4808    4.5029   21.2197 C   0  0  0  0  0  0  0  0  0  0  0  0
    3.2374    5.1795   20.3982 H   0  0  0  0  0  0  0  0  0  0  0  0
    4.8148    4.3964   21.6234 C   0  0  0  0  0  0  0  0  0  0  0  0
    5.5904    5.0072   21.1681 H   0  0  0  0  0  0  0  0  0  0  0  0
    5.4324    0.7614   20.1990 C   0  0  0  0  0  0  0  0  0  0  0  0
    4.9927    0.8126   21.1971 H   0  0  0  0  0  0  0  0  0  0  0  0
    4.8091    1.3883   19.1182 C   0  0  0  0  0  0  0  0  0  0  0  0
    3.8677    1.9090   19.2423 H   0  0  0  0  0  0  0  0  0  0  0  0
  1  2  1  0
  2  3  2  0
  3  4  1  0
  4  5  1  0
  4  6  2  0
  6  7  1  0
  7  8  1  0
  8  9  1  0
  8 10  2  0
 10 11  1  0
 11 12  1  0
 11 13  1  0
 13 14  1  0
 14 15  2  0
 14 16  1  0
 16 17  1  0
 16 18  1  0
 18 19  1  0
 18 20  1  0
 18 21  1  0
 21 22  2  0
 22 23  1  0
 22 24  1  0
 24 25  1  0
 24 26  2  0
 26 27  1  0
 26 28  1  0
 28 29  1  0
 28 30  2  0
 30 31  1  0
  6 32  1  0
 32 33  1  0
 32 34  2  0
 34 35  1  0
 34  2  1  0
 13  7  2  0
 30 21  1  0
M  END
>  <cnnaffinity>  (1) 
-4.5795

>  <filename>  (1) 
O=C(NCc1ccccc1)c1[nH]ncc1-c1cccnc1

$$$$
