
     RDKit          3D

 28 29  0  0  0  0  0  0  0  0999 V2000
    4.9698    1.8230   16.9266 H   0  0  0  0  0  0  0  0  0  0  0  0
    5.4154    1.2894   17.7659 C   0  0  0  0  0  0  0  0  0  0  0  0
    6.5345    0.6039   17.4891 N   0  0  0  0  0  0  0  0  0  0  0  0
    7.1294   -0.0383   18.4954 C   0  0  0  0  0  0  0  0  0  0  0  0
    8.0219   -0.6074   18.2467 H   0  0  0  0  0  0  0  0  0  0  0  0
    6.6672   -0.0002   19.8209 C   0  0  0  0  0  0  0  0  0  0  0  0
    7.4849   -0.6042   20.9460 C   0  0  0  0  0  0  0  0  0  0  0  0
    6.7434   -1.5100   21.6247 F   0  0  0  0  0  0  0  0  0  0  0  0
    8.5371   -1.3157   20.4003 F   0  0  0  0  0  0  0  0  0  0  0  0
    8.0505    0.4746   21.9788 C   0  0  0  0  0  0  0  0  0  0  0  0
    7.4658    0.7710   22.9971 O   0  0  0  0  0  0  0  0  0  0  0  0
    9.2356    1.0474   21.5632 N   0  0  0  0  0  0  0  0  0  0  0  0
    9.8510    0.4834   20.9923 H   0  0  0  0  0  0  0  0  0  0  0  0
    9.8605    2.1766   22.1198 C   0  0  0  0  0  0  0  0  0  0  0  0
    9.1160    3.3258   22.3922 C   0  0  0  0  0  0  0  0  0  0  0  0
    8.0401    3.2830   22.2613 H   0  0  0  0  0  0  0  0  0  0  0  0
    9.7617    4.4981   22.7895 C   0  0  0  0  0  0  0  0  0  0  0  0
    9.1907    5.4017   22.9773 H   0  0  0  0  0  0  0  0  0  0  0  0
   11.1488    4.5297   22.9292 C   0  0  0  0  0  0  0  0  0  0  0  0
   11.6829    5.4269   23.2264 H   0  0  0  0  0  0  0  0  0  0  0  0
   11.8965    3.3766   22.6876 C   0  0  0  0  0  0  0  0  0  0  0  0
   13.6095    3.4780   22.9228 Cl  0  0  0  0  0  0  0  0  0  0  0  0
   11.2659    2.1925   22.2741 C   0  0  0  0  0  0  0  0  0  0  0  0
   12.1961    0.7691   21.9509 Cl  0  0  0  0  0  0  0  0  0  0  0  0
    5.4636    0.6649   20.0926 C   0  0  0  0  0  0  0  0  0  0  0  0
    5.0326    0.6598   21.0963 H   0  0  0  0  0  0  0  0  0  0  0  0
    4.8321    1.3248   19.0371 C   0  0  0  0  0  0  0  0  0  0  0  0
    3.9087    1.8734   19.1770 H   0  0  0  0  0  0  0  0  0  0  0  0
  1  2  1  0
  2  3  2  0
  3  4  1  0
  4  5  1  0
  4  6  2  0
  6  7  1  0
  7  8  1  0
  7  9  1  0
  7 10  1  0
 10 11  2  0
 10 12  1  0
 12 13  1  0
 12 14  1  0
 14 15  2  0
 15 16  1  0
 15 17  1  0
 17 18  1  0
 17 19  2  0
 19 20  1  0
 19 21  1  0
 21 22  1  0
 21 23  2  0
 23 24  1  0
  6 25  1  0
 25 26  1  0
 25 27  2  0
 27 28  1  0
 27  2  1  0
 23 14  1  0
M  END
>  <cnnaffinity>  (1) 
-5.06905

>  <filename>  (1) 
O=C(Nc1cccc(Cl)c1Cl)C(F)(F)c1cccnc1

$$$$
