
     RDKit          3D

 35 37  0  0  0  0  0  0  0  0999 V2000
    8.4572   -1.4987   20.6307 O   0  0  0  0  0  0  0  0  0  0  0  0
    7.5866   -0.7263   20.9919 C   0  0  0  0  0  0  0  0  0  0  0  0
    7.4574   -0.3586   22.3022 N   0  0  0  0  0  0  0  0  0  0  0  0
    8.1534   -0.9688   23.3338 C   0  0  0  0  0  0  0  0  0  0  0  0
    7.5110   -1.3855   24.3821 N   0  0  0  0  0  0  0  0  0  0  0  0
    8.4804   -1.8827   25.2296 C   0  0  0  0  0  0  0  0  0  0  0  0
    9.7099   -1.7437   24.6650 C   0  0  0  0  0  0  0  0  0  0  0  0
    9.5094   -1.1495   23.4312 N   0  0  0  0  0  0  0  0  0  0  0  0
   10.5908   -0.5359   22.6433 C   0  0  0  0  0  0  0  0  0  0  0  0
   10.3356    0.9515   22.5292 C   0  0  0  0  0  0  0  0  0  0  0  0
    9.7042    1.4043   21.3698 C   0  0  0  0  0  0  0  0  0  0  0  0
    8.9948    2.5941   21.3752 C   0  0  0  0  0  0  0  0  0  0  0  0
    9.0393    3.4470   22.4829 C   0  0  0  0  0  0  0  0  0  0  0  0
    9.7825    3.0825   23.6054 C   0  0  0  0  0  0  0  0  0  0  0  0
   10.4361    1.8425   23.6115 C   0  0  0  0  0  0  0  0  0  0  0  0
   11.3386    1.3973   25.0302 Cl  0  0  0  0  0  0  0  0  0  0  0  0
    9.8273    3.6975   24.5039 H   0  0  0  0  0  0  0  0  0  0  0  0
    8.5146    4.4019   22.4483 H   0  0  0  0  0  0  0  0  0  0  0  0
    8.3598    2.7929   20.5354 H   0  0  0  0  0  0  0  0  0  0  0  0
    9.6700    0.7559   20.4937 H   0  0  0  0  0  0  0  0  0  0  0  0
   10.5978   -0.9987   21.6560 H   0  0  0  0  0  0  0  0  0  0  0  0
   11.5369   -0.7641   23.1444 H   0  0  0  0  0  0  0  0  0  0  0  0
   10.7110   -2.0102   24.9532 H   0  0  0  0  0  0  0  0  0  0  0  0
    8.2228   -2.2851   26.2025 H   0  0  0  0  0  0  0  0  0  0  0  0
    6.5432   -0.0971   22.6261 H   0  0  0  0  0  0  0  0  0  0  0  0
    6.7162   -0.0207   20.0057 C   0  0  0  0  0  0  0  0  0  0  0  0
    5.4923    0.6301   20.2430 C   0  0  0  0  0  0  0  0  0  0  0  0
    4.8825    1.2903   19.1755 C   0  0  0  0  0  0  0  0  0  0  0  0
    5.4964    1.2778   17.9196 C   0  0  0  0  0  0  0  0  0  0  0  0
    6.6501    0.6388   17.6759 N   0  0  0  0  0  0  0  0  0  0  0  0
    7.2318    0.0104   18.6992 C   0  0  0  0  0  0  0  0  0  0  0  0
    8.1629   -0.5054   18.4643 H   0  0  0  0  0  0  0  0  0  0  0  0
    5.0452    1.7958   17.0746 H   0  0  0  0  0  0  0  0  0  0  0  0
    3.9446    1.8206   19.3034 H   0  0  0  0  0  0  0  0  0  0  0  0
    4.9899    0.6271   21.2140 H   0  0  0  0  0  0  0  0  0  0  0  0
  1  2  2  0
  2  3  1  0
  3  4  1  0
  4  5  2  0
  5  6  1  0
  6  7  2  0
  7  8  1  0
  8  9  1  0
  9 10  1  0
 10 11  2  0
 11 12  1  0
 12 13  2  0
 13 14  1  0
 14 15  2  0
 15 16  1  0
 14 17  1  0
 13 18  1  0
 12 19  1  0
 11 20  1  0
  9 21  1  0
  9 22  1  0
  7 23  1  0
  6 24  1  0
  3 25  1  0
  2 26  1  0
 26 27  2  0
 27 28  1  0
 28 29  2  0
 29 30  1  0
 30 31  2  0
 31 32  1  0
 29 33  1  0
 28 34  1  0
 27 35  1  0
  8  4  1  0
 15 10  1  0
 31 26  1  0
M  END
>  <cnnaffinity>  (1) 
-5.52717

>  <filename>  (1) 
O=C(Nc1nccn1Cc1ccccc1Cl)c1cccnc1

$$$$
