
     RDKit          3D

 34 36  0  0  0  0  0  0  0  0999 V2000
    4.2618   -5.8634   26.6492 H   0  0  0  0  0  0  0  0  0  0  0  0
    4.2025   -6.0140   25.5720 C   0  0  0  0  0  0  0  0  0  0  0  0
    4.9963   -5.2269   24.8321 N   0  0  0  0  0  0  0  0  0  0  0  0
    4.9502   -5.3540   23.4889 C   0  0  0  0  0  0  0  0  0  0  0  0
    5.7981   -4.4185   22.5819 C   0  0  0  0  0  0  0  0  0  0  0  0
    5.7035   -4.4702   21.3638 O   0  0  0  0  0  0  0  0  0  0  0  0
    6.6396   -3.5231   23.2180 N   0  0  0  0  0  0  0  0  0  0  0  0
    6.8240   -3.7185   24.1994 H   0  0  0  0  0  0  0  0  0  0  0  0
    7.3174   -2.4442   22.5837 C   0  0  0  0  0  0  0  0  0  0  0  0
    6.7189   -1.7344   21.5971 C   0  0  0  0  0  0  0  0  0  0  0  0
    5.7135   -1.9766   21.2662 H   0  0  0  0  0  0  0  0  0  0  0  0
    7.3532   -0.6779   20.9459 N   0  0  0  0  0  0  0  0  0  0  0  0
    6.6506    0.0030   19.8866 C   0  0  0  0  0  0  0  0  0  0  0  0
    7.1629    0.0523   18.5750 C   0  0  0  0  0  0  0  0  0  0  0  0
    8.1200   -0.4171   18.3538 H   0  0  0  0  0  0  0  0  0  0  0  0
    6.5441    0.6711   17.5633 N   0  0  0  0  0  0  0  0  0  0  0  0
    5.3883    1.2986   17.8305 C   0  0  0  0  0  0  0  0  0  0  0  0
    4.9178    1.7981   16.9866 H   0  0  0  0  0  0  0  0  0  0  0  0
    4.8027    1.3152   19.1009 C   0  0  0  0  0  0  0  0  0  0  0  0
    3.8735    1.8469   19.2539 H   0  0  0  0  0  0  0  0  0  0  0  0
    5.4361    0.6413   20.1498 C   0  0  0  0  0  0  0  0  0  0  0  0
    5.0327    0.6190   21.1634 H   0  0  0  0  0  0  0  0  0  0  0  0
    8.6640   -0.2797   21.3015 C   0  0  0  0  0  0  0  0  0  0  0  0
    9.2954    0.6163   20.7921 O   0  0  0  0  0  0  0  0  0  0  0  0
    9.2228   -1.0090   22.2941 N   0  0  0  0  0  0  0  0  0  0  0  0
   10.1445   -0.7196   22.5502 H   0  0  0  0  0  0  0  0  0  0  0  0
    8.7026   -2.0517   23.0072 C   0  0  0  0  0  0  0  0  0  0  0  0
    9.3980   -2.5349   23.8767 O   0  0  0  0  0  0  0  0  0  0  0  0
    4.1123   -6.2940   22.8604 C   0  0  0  0  0  0  0  0  0  0  0  0
    4.1226   -6.3457   21.7796 H   0  0  0  0  0  0  0  0  0  0  0  0
    3.2986   -7.1207   23.6342 C   0  0  0  0  0  0  0  0  0  0  0  0
    2.6501   -7.8579   23.1581 H   0  0  0  0  0  0  0  0  0  0  0  0
    3.3453   -6.9754   25.0230 C   0  0  0  0  0  0  0  0  0  0  0  0
    2.7420   -7.5896   25.6812 H   0  0  0  0  0  0  0  0  0  0  0  0
  1  2  1  0
  2  3  2  0
  3  4  1  0
  4  5  1  0
  5  6  2  0
  5  7  1  0
  7  8  1  0
  7  9  1  0
  9 10  2  0
 10 11  1  0
 10 12  1  0
 12 13  1  0
 13 14  2  0
 14 15  1  0
 14 16  1  0
 16 17  2  0
 17 18  1  0
 17 19  1  0
 19 20  1  0
 19 21  2  0
 21 22  1  0
 12 23  1  0
 23 24  2  0
 23 25  1  0
 25 26  1  0
 25 27  1  0
 27 28  2  0
  4 29  2  0
 29 30  1  0
 29 31  1  0
 31 32  1  0
 31 33  2  0
 33 34  1  0
 33  2  1  0
 27  9  1  0
 21 13  1  0
M  END
>  <cnnaffinity>  (1) 
-5.52281

>  <filename>  (1) 
O=C(Nc1cn(-c2cccnc2)c(=O)[nH]c1=O)c1ccccn1

$$$$
