
     RDKit          3D

 33 35  0  0  0  0  0  0  0  0999 V2000
    4.9466    1.8108   16.9402 H   0  0  0  0  0  0  0  0  0  0  0  0
    5.4009    1.3081   17.7912 C   0  0  0  0  0  0  0  0  0  0  0  0
    6.5468    0.6523   17.5481 N   0  0  0  0  0  0  0  0  0  0  0  0
    7.1527    0.0361   18.5685 C   0  0  0  0  0  0  0  0  0  0  0  0
    8.0854   -0.4863   18.3554 H   0  0  0  0  0  0  0  0  0  0  0  0
    6.6323    0.0388   19.8754 C   0  0  0  0  0  0  0  0  0  0  0  0
    7.2977   -0.6206   20.9482 N   0  0  0  0  0  0  0  0  0  0  0  0
    6.6854   -1.5590   21.7614 C   0  0  0  0  0  0  0  0  0  0  0  0
    5.6525   -1.8232   21.5679 H   0  0  0  0  0  0  0  0  0  0  0  0
    7.6038   -1.9873   22.6656 C   0  0  0  0  0  0  0  0  0  0  0  0
    7.5656   -3.0039   23.7636 C   0  0  0  0  0  0  0  0  0  0  0  0
    8.6005   -3.3690   24.3004 O   0  0  0  0  0  0  0  0  0  0  0  0
    6.3141   -3.4578   24.0828 N   0  0  0  0  0  0  0  0  0  0  0  0
    5.5458   -2.9442   23.6880 H   0  0  0  0  0  0  0  0  0  0  0  0
    6.0141   -4.5174   24.9472 C   0  0  0  0  0  0  0  0  0  0  0  0
    4.7653   -4.6266   25.5718 C   0  0  0  0  0  0  0  0  0  0  0  0
    3.9827   -3.9071   25.3454 H   0  0  0  0  0  0  0  0  0  0  0  0
    4.5575   -5.6264   26.5350 C   0  0  0  0  0  0  0  0  0  0  0  0
    3.6389   -5.6785   27.1088 H   0  0  0  0  0  0  0  0  0  0  0  0
    5.5792   -6.5390   26.8172 C   0  0  0  0  0  0  0  0  0  0  0  0
    5.3714   -7.7656   28.0321 Cl  0  0  0  0  0  0  0  0  0  0  0  0
    6.7993   -6.4456   26.1515 C   0  0  0  0  0  0  0  0  0  0  0  0
    7.6332   -7.0951   26.3419 H   0  0  0  0  0  0  0  0  0  0  0  0
    7.0120   -5.4603   25.2073 C   0  0  0  0  0  0  0  0  0  0  0  0
    7.9642   -5.3912   24.7066 H   0  0  0  0  0  0  0  0  0  0  0  0
    8.7740   -1.2843   22.3628 N   0  0  0  0  0  0  0  0  0  0  0  0
    9.6838   -1.3453   22.8031 H   0  0  0  0  0  0  0  0  0  0  0  0
    8.6019   -0.4037   21.3558 C   0  0  0  0  0  0  0  0  0  0  0  0
    9.7225    0.6887   20.8012 S   0  0  0  0  0  0  0  0  0  0  0  0
    5.4244    0.6964   20.1167 C   0  0  0  0  0  0  0  0  0  0  0  0
    5.0065    0.6866   21.1246 H   0  0  0  0  0  0  0  0  0  0  0  0
    4.8011    1.3531   19.0543 C   0  0  0  0  0  0  0  0  0  0  0  0
    3.8718    1.8925   19.1923 H   0  0  0  0  0  0  0  0  0  0  0  0
  1  2  1  0
  2  3  2  0
  3  4  1  0
  4  5  1  0
  4  6  2  0
  6  7  1  0
  7  8  1  0
  8  9  1  0
  8 10  2  0
 10 11  1  0
 11 12  2  0
 11 13  1  0
 13 14  1  0
 13 15  1  0
 15 16  2  0
 16 17  1  0
 16 18  1  0
 18 19  1  0
 18 20  2  0
 20 21  1  0
 20 22  1  0
 22 23  1  0
 22 24  2  0
 24 25  1  0
 10 26  1  0
 26 27  1  0
 26 28  1  0
 28 29  2  0
  6 30  1  0
 30 31  1  0
 30 32  2  0
 32 33  1  0
 32  2  1  0
 28  7  1  0
 24 15  1  0
M  END
>  <cnnaffinity>  (1) 
-5.42777

>  <filename>  (1) 
O=C(Nc1ccc(Cl)cc1)c1cn(-c2cccnc2)c(=S)[nH]1

$$$$
