
     RDKit          3D

 35 37  0  0  0  0  0  0  0  0999 V2000
    3.1446   -6.1052   27.7177 H   0  0  0  0  0  0  0  0  0  0  0  0
    3.6021   -5.3362   27.3357 O   0  0  0  0  0  0  0  0  0  0  0  0
    3.4222   -5.6648   26.0461 C   0  0  0  0  0  0  0  0  0  0  0  0
    2.7977   -6.6775   25.8040 O   0  0  0  0  0  0  0  0  0  0  0  0
    4.0247   -4.7475   25.0398 C   0  0  0  0  0  0  0  0  0  0  0  0
    4.7707   -3.5988   25.3779 C   0  0  0  0  0  0  0  0  0  0  0  0
    4.8526   -3.2756   26.4137 H   0  0  0  0  0  0  0  0  0  0  0  0
    5.3955   -2.8597   24.3723 C   0  0  0  0  0  0  0  0  0  0  0  0
    5.9697   -1.9725   24.6259 H   0  0  0  0  0  0  0  0  0  0  0  0
    5.2701   -3.2072   23.0069 C   0  0  0  0  0  0  0  0  0  0  0  0
    5.8819   -2.4074   21.9171 C   0  0  0  0  0  0  0  0  0  0  0  0
    5.3360   -2.4159   20.9681 H   0  0  0  0  0  0  0  0  0  0  0  0
    7.0355   -1.7111   21.9766 C   0  0  0  0  0  0  0  0  0  0  0  0
    7.5303   -0.7327   20.9705 C   0  0  0  0  0  0  0  0  0  0  0  0
    6.6994   -0.0496   19.9410 C   0  0  0  0  0  0  0  0  0  0  0  0
    7.2363    0.0424   18.6467 C   0  0  0  0  0  0  0  0  0  0  0  0
    8.1997   -0.4074   18.4260 H   0  0  0  0  0  0  0  0  0  0  0  0
    6.6325    0.6448   17.6189 N   0  0  0  0  0  0  0  0  0  0  0  0
    5.4600    1.2498   17.8674 C   0  0  0  0  0  0  0  0  0  0  0  0
    4.9918    1.7545   17.0225 H   0  0  0  0  0  0  0  0  0  0  0  0
    4.8411    1.2453   19.1219 C   0  0  0  0  0  0  0  0  0  0  0  0
    3.9065    1.7834   19.2522 H   0  0  0  0  0  0  0  0  0  0  0  0
    5.4647    0.5789   20.1835 C   0  0  0  0  0  0  0  0  0  0  0  0
    5.0122    0.5683   21.1774 H   0  0  0  0  0  0  0  0  0  0  0  0
    8.7928   -0.5045   21.0484 N   0  0  0  0  0  0  0  0  0  0  0  0
    9.3632   -1.2640   22.1641 C   0  0  0  0  0  0  0  0  0  0  0  0
   10.0225   -2.0417   21.7577 H   0  0  0  0  0  0  0  0  0  0  0  0
    9.9807   -0.6093   22.7840 H   0  0  0  0  0  0  0  0  0  0  0  0
    8.1817   -1.8616   22.9656 C   0  0  0  0  0  0  0  0  0  0  0  0
    8.3447   -2.8905   23.2940 H   0  0  0  0  0  0  0  0  0  0  0  0
    8.0100   -1.2511   23.8615 H   0  0  0  0  0  0  0  0  0  0  0  0
    4.4781   -4.3270   22.6848 C   0  0  0  0  0  0  0  0  0  0  0  0
    4.3771   -4.6372   21.6517 H   0  0  0  0  0  0  0  0  0  0  0  0
    3.8632   -5.0791   23.6808 C   0  0  0  0  0  0  0  0  0  0  0  0
    3.2511   -5.9396   23.4232 H   0  0  0  0  0  0  0  0  0  0  0  0
  1  2  1  0
  2  3  1  0
  3  4  2  0
  3  5  1  0
  5  6  2  0
  6  7  1  0
  6  8  1  0
  8  9  1  0
  8 10  2  0
 10 11  1  0
 11 12  1  0
 11 13  2  3
 13 14  1  0
 14 15  1  0
 15 16  2  0
 16 17  1  0
 16 18  1  0
 18 19  2  0
 19 20  1  0
 19 21  1  0
 21 22  1  0
 21 23  2  0
 23 24  1  0
 14 25  2  0
 25 26  1  0
 26 27  1  0
 26 28  1  0
 26 29  1  0
 29 30  1  0
 29 31  1  0
 10 32  1  0
 32 33  1  0
 32 34  2  0
 34 35  1  0
 34  5  1  0
 29 13  1  0
 23 15  1  0
M  END
>  <cnnaffinity>  (1) 
-5.02405

>  <filename>  (1) 
O=C(O)c1ccc(C=C2CCN=C2c2cccnc2)cc1

$$$$
