
     RDKit          3D

 28 29  0  0  0  0  0  0  0  0999 V2000
    5.0834    1.8380   16.9392 H   0  0  0  0  0  0  0  0  0  0  0  0
    5.4780    1.3166   17.8084 C   0  0  0  0  0  0  0  0  0  0  0  0
    6.6298    0.6570   17.6274 N   0  0  0  0  0  0  0  0  0  0  0  0
    7.1316   -0.0035   18.6751 C   0  0  0  0  0  0  0  0  0  0  0  0
    8.0685   -0.5330   18.5154 H   0  0  0  0  0  0  0  0  0  0  0  0
    6.5368   -0.0200   19.9391 C   0  0  0  0  0  0  0  0  0  0  0  0
    7.2607   -0.8362   20.9575 C   0  0  0  0  0  0  0  0  0  0  0  0
    7.9689   -1.7809   20.6405 O   0  0  0  0  0  0  0  0  0  0  0  0
    7.0743   -0.4426   22.2523 N   0  0  0  0  0  0  0  0  0  0  0  0
    6.8283    0.5279   22.3359 H   0  0  0  0  0  0  0  0  0  0  0  0
    7.8646   -1.0089   23.3498 C   0  0  0  0  0  0  0  0  0  0  0  0
    7.7267   -2.0968   23.3362 H   0  0  0  0  0  0  0  0  0  0  0  0
    7.4314   -0.6394   24.2871 H   0  0  0  0  0  0  0  0  0  0  0  0
    9.3515   -0.6920   23.2768 C   0  0  0  0  0  0  0  0  0  0  0  0
    9.8848    0.5070   23.7812 C   0  0  0  0  0  0  0  0  0  0  0  0
    9.2388    1.2363   24.2728 H   0  0  0  0  0  0  0  0  0  0  0  0
   11.2494    0.7911   23.6561 C   0  0  0  0  0  0  0  0  0  0  0  0
   11.6688    1.7183   24.0285 H   0  0  0  0  0  0  0  0  0  0  0  0
   12.0683   -0.1096   22.9801 C   0  0  0  0  0  0  0  0  0  0  0  0
   13.3645    0.1849   22.7885 F   0  0  0  0  0  0  0  0  0  0  0  0
   11.5674   -1.2955   22.4513 C   0  0  0  0  0  0  0  0  0  0  0  0
   12.2290   -1.9776   21.9300 H   0  0  0  0  0  0  0  0  0  0  0  0
   10.2126   -1.5817   22.6088 C   0  0  0  0  0  0  0  0  0  0  0  0
    9.8033   -2.4771   22.1484 H   0  0  0  0  0  0  0  0  0  0  0  0
    5.3425    0.6947   20.1272 C   0  0  0  0  0  0  0  0  0  0  0  0
    4.8576    0.7393   21.1065 H   0  0  0  0  0  0  0  0  0  0  0  0
    4.7941    1.3603   19.0291 C   0  0  0  0  0  0  0  0  0  0  0  0
    3.8801    1.9380   19.1126 H   0  0  0  0  0  0  0  0  0  0  0  0
  1  2  1  0
  2  3  2  0
  3  4  1  0
  4  5  1  0
  4  6  2  0
  6  7  1  0
  7  8  2  0
  7  9  1  0
  9 10  1  0
  9 11  1  0
 11 12  1  0
 11 13  1  0
 11 14  1  0
 14 15  2  0
 15 16  1  0
 15 17  1  0
 17 18  1  0
 17 19  2  0
 19 20  1  0
 19 21  1  0
 21 22  1  0
 21 23  2  0
 23 24  1  0
  6 25  1  0
 25 26  1  0
 25 27  2  0
 27 28  1  0
 27  2  1  0
 23 14  1  0
M  END
>  <cnnaffinity>  (1) 
-4.66092

>  <filename>  (1) 
O=C(NCc1ccc(F)cc1)c1cccnc1

$$$$
