
     RDKit          3D

 24 25  0  0  0  0  0  0  0  0999 V2000
    7.6124   -5.4984   23.6388 H   0  0  0  0  0  0  0  0  0  0  0  0
    8.1572   -4.7063   23.7680 O   0  0  0  0  0  0  0  0  0  0  0  0
    7.1745   -3.8126   23.9427 C   0  0  0  0  0  0  0  0  0  0  0  0
    6.0294   -4.1968   23.9211 O   0  0  0  0  0  0  0  0  0  0  0  0
    7.6918   -2.3974   24.1349 C   0  0  0  0  0  0  0  0  0  0  0  0
    6.9578   -1.8822   24.7568 H   0  0  0  0  0  0  0  0  0  0  0  0
    8.6409   -2.4574   24.6760 H   0  0  0  0  0  0  0  0  0  0  0  0
    7.9056   -1.7067   22.8202 C   0  0  0  0  0  0  0  0  0  0  0  0
    8.9880   -1.6673   21.9783 C   0  0  0  0  0  0  0  0  0  0  0  0
    9.9692   -2.0920   22.1602 H   0  0  0  0  0  0  0  0  0  0  0  0
    8.6649   -1.0563   20.8009 N   0  0  0  0  0  0  0  0  0  0  0  0
    7.4045   -0.7036   20.9172 C   0  0  0  0  0  0  0  0  0  0  0  0
    6.6371    0.0053   19.9045 C   0  0  0  0  0  0  0  0  0  0  0  0
    7.1662    0.0599   18.6065 C   0  0  0  0  0  0  0  0  0  0  0  0
    8.1204   -0.4180   18.3848 H   0  0  0  0  0  0  0  0  0  0  0  0
    6.5627    0.6739   17.5877 N   0  0  0  0  0  0  0  0  0  0  0  0
    5.3978    1.2917   17.8360 C   0  0  0  0  0  0  0  0  0  0  0  0
    4.9299    1.7867   16.9877 H   0  0  0  0  0  0  0  0  0  0  0  0
    4.7967    1.3146   19.0997 C   0  0  0  0  0  0  0  0  0  0  0  0
    3.8672    1.8487   19.2443 H   0  0  0  0  0  0  0  0  0  0  0  0
    5.4208    0.6567   20.1545 C   0  0  0  0  0  0  0  0  0  0  0  0
    4.9768    0.6697   21.1551 H   0  0  0  0  0  0  0  0  0  0  0  0
    6.8945   -1.0785   22.1272 N   0  0  0  0  0  0  0  0  0  0  0  0
    5.9270   -0.9963   22.4012 H   0  0  0  0  0  0  0  0  0  0  0  0
  1  2  1  0
  2  3  1  0
  3  4  2  0
  3  5  1  0
  5  6  1  0
  5  7  1  0
  5  8  1  0
  8  9  2  0
  9 10  1  0
  9 11  1  0
 11 12  2  0
 12 13  1  0
 13 14  2  0
 14 15  1  0
 14 16  1  0
 16 17  2  0
 17 18  1  0
 17 19  1  0
 19 20  1  0
 19 21  2  0
 21 22  1  0
 12 23  1  0
 23 24  1  0
 23  8  1  0
 21 13  1  0
M  END
>  <cnnaffinity>  (1) 
-4.48687

>  <filename>  (1) 
O=C(O)Cc1cnc(-c2cccnc2)[nH]1

$$$$
