
     RDKit          3D

 36 39  0  0  0  0  0  0  0  0999 V2000
    4.9175    1.7765   17.0013 H   0  0  0  0  0  0  0  0  0  0  0  0
    5.4038    1.2903   17.8420 C   0  0  0  0  0  0  0  0  0  0  0  0
    6.5690    0.6780   17.5770 N   0  0  0  0  0  0  0  0  0  0  0  0
    7.1748    0.0564   18.5891 C   0  0  0  0  0  0  0  0  0  0  0  0
    8.1234   -0.4340   18.3735 H   0  0  0  0  0  0  0  0  0  0  0  0
    6.6487    0.0111   19.8912 C   0  0  0  0  0  0  0  0  0  0  0  0
    7.4047   -0.7040   20.9125 C   0  0  0  0  0  0  0  0  0  0  0  0
    8.3358   -1.6012   20.7010 N   0  0  0  0  0  0  0  0  0  0  0  0
    8.8273   -2.0389   21.9093 N   0  0  0  0  0  0  0  0  0  0  0  0
    8.1853   -1.3656   22.8262 C   0  0  0  0  0  0  0  0  0  0  0  0
    8.2058   -1.1076   24.5497 S   0  0  0  0  0  0  0  0  0  0  0  0
    6.9801    0.1368   24.3052 C   0  0  0  0  0  0  0  0  0  0  0  0
    6.4690    0.9129   25.5126 C   0  0  0  0  0  0  0  0  0  0  0  0
    6.8970    0.6549   26.6273 O   0  0  0  0  0  0  0  0  0  0  0  0
    5.5596    1.8947   25.2855 N   0  0  0  0  0  0  0  0  0  0  0  0
    5.2525    2.0583   24.3425 H   0  0  0  0  0  0  0  0  0  0  0  0
    4.9244    2.6110   26.3926 C   0  0  0  0  0  0  0  0  0  0  0  0
    4.4034    3.4807   25.9837 H   0  0  0  0  0  0  0  0  0  0  0  0
    5.7002    2.9965   27.0606 H   0  0  0  0  0  0  0  0  0  0  0  0
    3.9446    1.7457   27.1591 C   0  0  0  0  0  0  0  0  0  0  0  0
    2.7255    1.3787   26.5690 C   0  0  0  0  0  0  0  0  0  0  0  0
    2.4756    1.7436   25.5735 H   0  0  0  0  0  0  0  0  0  0  0  0
    1.8344    0.5415   27.2445 C   0  0  0  0  0  0  0  0  0  0  0  0
    0.8922    0.2651   26.7777 H   0  0  0  0  0  0  0  0  0  0  0  0
    2.1562    0.0584   28.5177 C   0  0  0  0  0  0  0  0  0  0  0  0
    1.4633   -0.5936   29.0438 H   0  0  0  0  0  0  0  0  0  0  0  0
    3.3712    0.4136   29.1115 C   0  0  0  0  0  0  0  0  0  0  0  0
    3.6306    0.0365   30.0980 H   0  0  0  0  0  0  0  0  0  0  0  0
    4.2596    1.2546   28.4355 C   0  0  0  0  0  0  0  0  0  0  0  0
    5.2183    1.5106   28.8861 H   0  0  0  0  0  0  0  0  0  0  0  0
    6.5879    0.3325   23.0839 N   0  0  0  0  0  0  0  0  0  0  0  0
    7.2588   -0.5270   22.2714 N   0  0  0  0  0  0  0  0  0  0  0  0
    5.4323    0.6531   20.1615 C   0  0  0  0  0  0  0  0  0  0  0  0
    5.0099    0.6355   21.1692 H   0  0  0  0  0  0  0  0  0  0  0  0
    4.8049    1.3085   19.1079 C   0  0  0  0  0  0  0  0  0  0  0  0
    3.8745    1.8433   19.2603 H   0  0  0  0  0  0  0  0  0  0  0  0
  1  2  1  0
  2  3  2  0
  3  4  1  0
  4  5  1  0
  4  6  2  0
  6  7  1  0
  7  8  2  0
  8  9  1  0
  9 10  2  0
 10 11  1  0
 11 12  1  0
 12 13  1  0
 13 14  2  0
 13 15  1  0
 15 16  1  0
 15 17  1  0
 17 18  1  0
 17 19  1  0
 17 20  1  0
 20 21  2  0
 21 22  1  0
 21 23  1  0
 23 24  1  0
 23 25  2  0
 25 26  1  0
 25 27  1  0
 27 28  1  0
 27 29  2  0
 29 30  1  0
 12 31  2  0
 31 32  1  0
  6 33  1  0
 33 34  1  0
 33 35  2  0
 35 36  1  0
 35  2  1  0
 32  7  1  0
 32 10  1  0
 29 20  1  0
M  END
>  <cnnaffinity>  (1) 
-5.31239

>  <filename>  (1) 
O=C(NCc1ccccc1)c1nn2c(-c3cccnc3)nnc2s1

$$$$
