
     RDKit          3D

 31 33  0  0  0  0  0  0  0  0999 V2000
    5.2581   -8.3337   23.6517 O   0  0  0  0  0  0  0  0  0  0  0  0
    5.7819   -7.5803   22.8386 C   0  0  0  0  0  0  0  0  0  0  0  0
    6.7722   -7.6840   22.0938 O   0  0  0  0  0  1  0  0  0  0  0  0
    5.0311   -5.9826   22.6876 C   0  0  0  0  0  0  0  0  0  0  0  0
    3.9134   -5.5951   23.2947 N   0  0  0  0  0  0  0  0  0  0  0  0
    3.8114   -4.2855   23.0392 N   0  0  0  0  0  0  0  0  0  0  0  0
    4.8273   -3.8397   22.2689 C   0  0  0  0  0  0  0  0  0  0  0  0
    5.6108   -4.9143   21.9798 C   0  0  0  0  0  0  0  0  0  0  0  0
    6.7104   -4.5075   21.0440 C   0  0  0  0  0  0  0  0  0  0  0  0
    6.6496   -3.0346   21.1397 N   0  0  0  0  0  0  0  0  0  0  0  0
    7.7810   -2.2631   21.0199 C   0  0  0  0  0  0  0  0  0  0  0  0
    8.8986   -2.7509   20.9717 O   0  0  0  0  0  0  0  0  0  0  0  0
    7.5840   -0.7267   21.0033 C   0  0  0  0  0  0  0  0  0  0  0  0
    6.7456   -0.1021   19.8862 C   0  0  0  0  0  0  0  0  0  0  0  0
    5.5329    0.5528   20.1401 C   0  0  0  0  0  0  0  0  0  0  0  0
    4.8879    1.2315   19.1006 C   0  0  0  0  0  0  0  0  0  0  0  0
    5.4669    1.2157   17.8306 C   0  0  0  0  0  0  0  0  0  0  0  0
    6.6014    0.5582   17.5473 N   0  0  0  0  0  0  0  0  0  0  0  0
    7.2092   -0.0802   18.5539 C   0  0  0  0  0  0  0  0  0  0  0  0
    8.1287   -0.6095   18.3058 H   0  0  0  0  0  0  0  0  0  0  0  0
    5.0077    1.7540   17.0029 H   0  0  0  0  0  0  0  0  0  0  0  0
    3.9716    1.7863   19.2643 H   0  0  0  0  0  0  0  0  0  0  0  0
    5.1055    0.5427   21.1440 H   0  0  0  0  0  0  0  0  0  0  0  0
    7.1648   -0.4310   21.9753 H   0  0  0  0  0  0  0  0  0  0  0  0
    8.5969   -0.3118   20.9837 H   0  0  0  0  0  0  0  0  0  0  0  0
    5.5142   -2.5676   21.9344 C   0  0  0  0  0  0  0  0  0  0  0  0
    4.9382   -1.8241   21.3939 H   0  0  0  0  0  0  0  0  0  0  0  0
    5.8593   -2.0973   22.8625 H   0  0  0  0  0  0  0  0  0  0  0  0
    7.7088   -4.8704   21.3087 H   0  0  0  0  0  0  0  0  0  0  0  0
    6.4989   -4.8286   20.0120 H   0  0  0  0  0  0  0  0  0  0  0  0
    3.0342   -3.7877   23.4410 H   0  0  0  0  0  0  0  0  0  0  0  0
  1  2  2  0
  2  3  1  0
  2  4  1  0
  4  5  2  0
  5  6  1  0
  6  7  1  0
  7  8  2  0
  8  9  1  0
  9 10  1  0
 10 11  1  0
 11 12  2  0
 11 13  1  0
 13 14  1  0
 14 15  2  0
 15 16  1  0
 16 17  2  0
 17 18  1  0
 18 19  2  0
 19 20  1  0
 17 21  1  0
 16 22  1  0
 15 23  1  0
 13 24  1  0
 13 25  1  0
 10 26  1  0
 26 27  1  0
 26 28  1  0
  9 29  1  0
  9 30  1  0
  6 31  1  0
  8  4  1  0
 19 14  1  0
 26  7  1  0
M  CHG  1   3  -1
M  END
>  <cnnaffinity>  (1) 
-4.61345

>  <filename>  (1) 
O=C([O-])c1n[nH]c2c1CN(C(=O)Cc1cccnc1)C2

$$$$
