
     RDKit          3D

 42 44  0  0  0  0  0  0  0  0999 V2000
    4.9308    1.8420   16.9876 H   0  0  0  0  0  0  0  0  0  0  0  0
    5.3889    1.3159   17.8202 C   0  0  0  0  0  0  0  0  0  0  0  0
    6.5456    0.6909   17.5606 N   0  0  0  0  0  0  0  0  0  0  0  0
    7.1460    0.0618   18.5800 C   0  0  0  0  0  0  0  0  0  0  0  0
    8.0966   -0.4181   18.3465 H   0  0  0  0  0  0  0  0  0  0  0  0
    6.6293    0.0100   19.8882 C   0  0  0  0  0  0  0  0  0  0  0  0
    7.3834   -0.6966   21.0024 C   0  0  0  0  0  0  0  0  0  0  0  0
    7.3280   -1.7839   20.8834 H   0  0  0  0  0  0  0  0  0  0  0  0
    6.9495   -0.4548   21.9777 H   0  0  0  0  0  0  0  0  0  0  0  0
    8.8111   -0.3788   21.0506 N   0  0  0  0  0  0  0  0  0  0  0  0
    9.8232   -1.3025   20.9324 C   0  0  0  0  0  0  0  0  0  0  0  0
    9.5797   -2.3447   20.7809 H   0  0  0  0  0  0  0  0  0  0  0  0
   11.0282   -0.6563   21.0227 C   0  0  0  0  0  0  0  0  0  0  0  0
   11.9947   -1.1386   20.9287 H   0  0  0  0  0  0  0  0  0  0  0  0
   10.7476    0.7286   21.1986 C   0  0  0  0  0  0  0  0  0  0  0  0
   11.4600    1.5431   21.2877 H   0  0  0  0  0  0  0  0  0  0  0  0
    9.3832    0.8638   21.2153 C   0  0  0  0  0  0  0  0  0  0  0  0
    8.6167    2.0298   21.3755 N   0  0  0  0  0  0  0  0  0  0  0  0
    8.9015    2.8496   20.8626 H   0  0  0  0  0  0  0  0  0  0  0  0
    7.7335    2.2593   22.4099 C   0  0  0  0  0  0  0  0  0  0  0  0
    7.4522    1.4107   23.2328 O   0  0  0  0  0  0  0  0  0  0  0  0
    7.1682    3.6892   22.4102 C   0  0  0  0  0  0  0  0  0  0  0  0
    8.0472    4.3268   22.2295 H   0  0  0  0  0  0  0  0  0  0  0  0
    6.5550    4.0384   23.7896 C   0  0  0  0  0  0  0  0  0  0  0  0
    5.9934    3.1657   24.1429 H   0  0  0  0  0  0  0  0  0  0  0  0
    7.3544    4.1974   24.5180 H   0  0  0  0  0  0  0  0  0  0  0  0
    5.6252    5.2522   23.7351 C   0  0  0  0  0  0  0  0  0  0  0  0
    5.2687    5.4859   24.7444 H   0  0  0  0  0  0  0  0  0  0  0  0
    6.1959    6.1287   23.4060 H   0  0  0  0  0  0  0  0  0  0  0  0
    4.4316    5.0344   22.7745 C   0  0  0  0  0  0  0  0  0  0  0  0
    4.1811    5.9893   22.2983 H   0  0  0  0  0  0  0  0  0  0  0  0
    3.5364    4.7509   23.3397 H   0  0  0  0  0  0  0  0  0  0  0  0
    4.7095    3.9558   21.7030 C   0  0  0  0  0  0  0  0  0  0  0  0
    4.4871    2.9693   22.1357 H   0  0  0  0  0  0  0  0  0  0  0  0
    4.0288    4.0817   20.8536 H   0  0  0  0  0  0  0  0  0  0  0  0
    6.1708    3.9477   21.2324 C   0  0  0  0  0  0  0  0  0  0  0  0
    6.3011    3.2042   20.4352 H   0  0  0  0  0  0  0  0  0  0  0  0
    6.4243    4.9162   20.7758 H   0  0  0  0  0  0  0  0  0  0  0  0
    5.4027    0.6445   20.1259 C   0  0  0  0  0  0  0  0  0  0  0  0
    4.9750    0.6575   21.1305 H   0  0  0  0  0  0  0  0  0  0  0  0
    4.7738    1.3130   19.0745 C   0  0  0  0  0  0  0  0  0  0  0  0
    3.8497    1.8663   19.2139 H   0  0  0  0  0  0  0  0  0  0  0  0
  1  2  1  0
  2  3  2  0
  3  4  1  0
  4  5  1  0
  4  6  2  0
  6  7  1  0
  7  8  1  0
  7  9  1  0
  7 10  1  0
 10 11  1  0
 11 12  1  0
 11 13  2  0
 13 14  1  0
 13 15  1  0
 15 16  1  0
 15 17  2  0
 17 18  1  0
 18 19  1  0
 18 20  1  0
 20 21  2  0
 20 22  1  0
 22 23  1  0
 22 24  1  0
 24 25  1  0
 24 26  1  0
 24 27  1  0
 27 28  1  0
 27 29  1  0
 27 30  1  0
 30 31  1  0
 30 32  1  0
 30 33  1  0
 33 34  1  0
 33 35  1  0
 33 36  1  0
 36 37  1  0
 36 38  1  0
  6 39  1  0
 39 40  1  0
 39 41  2  0
 41 42  1  0
 41  2  1  0
 17 10  1  0
 36 22  1  0
M  END
>  <cnnaffinity>  (1) 
-4.98259

>  <filename>  (1) 
O=C(Nc1cccn1Cc1cccnc1)C1CCCCC1

$$$$
