
     RDKit          3D

 38 39  0  0  0  0  0  0  0  0999 V2000
    5.3458   -8.1638   22.6539 H   0  0  0  0  0  0  0  0  0  0  0  0
    5.4621   -7.2206   22.8788 O   0  0  0  0  0  0  0  0  0  0  0  0
    6.7395   -7.0977   22.4828 C   0  0  0  0  0  0  0  0  0  0  0  0
    7.2946   -8.0776   22.0522 O   0  0  0  0  0  0  0  0  0  0  0  0
    7.3295   -5.7223   22.6237 C   0  0  0  0  0  0  0  0  0  0  0  0
    8.4116   -5.8368   22.5374 H   0  0  0  0  0  0  0  0  0  0  0  0
    7.1188   -5.3700   23.6381 H   0  0  0  0  0  0  0  0  0  0  0  0
    6.8016   -4.6962   21.6047 C   0  0  0  0  0  0  0  0  0  0  0  0
    7.0390   -5.0206   20.5804 H   0  0  0  0  0  0  0  0  0  0  0  0
    5.7066   -4.6546   21.6715 H   0  0  0  0  0  0  0  0  0  0  0  0
    7.3796   -3.2995   21.8445 C   0  0  0  0  0  0  0  0  0  0  0  0
    8.4704   -3.3404   21.7264 H   0  0  0  0  0  0  0  0  0  0  0  0
    7.1893   -2.9936   22.8799 H   0  0  0  0  0  0  0  0  0  0  0  0
    6.7903   -2.2444   20.9078 C   0  0  0  0  0  0  0  0  0  0  0  0
    6.8780   -2.5675   19.8669 H   0  0  0  0  0  0  0  0  0  0  0  0
    5.7060   -2.1809   21.0765 H   0  0  0  0  0  0  0  0  0  0  0  0
    7.3457   -0.7918   20.9996 C   0  0  1  0  0  0  0  0  0  0  0  0
    6.6414    0.0230   19.8961 C   0  0  0  0  0  0  0  0  0  0  0  0
    7.1476    0.0640   18.5782 C   0  0  0  0  0  0  0  0  0  0  0  0
    8.0956   -0.4182   18.3345 H   0  0  0  0  0  0  0  0  0  0  0  0
    6.5468    0.6787   17.5474 N   0  0  0  0  0  0  0  0  0  0  0  0
    5.3908    1.3071   17.7944 C   0  0  0  0  0  0  0  0  0  0  0  0
    4.9322    1.8220   16.9531 H   0  0  0  0  0  0  0  0  0  0  0  0
    4.7841    1.3262   19.0536 C   0  0  0  0  0  0  0  0  0  0  0  0
    3.8521    1.8601   19.1975 H   0  0  0  0  0  0  0  0  0  0  0  0
    5.4158    0.6721   20.1149 C   0  0  0  0  0  0  0  0  0  0  0  0
    4.9596    0.6811   21.1065 H   0  0  0  0  0  0  0  0  0  0  0  0
    7.1349   -0.2048   22.4222 C   0  0  0  0  0  0  0  0  0  0  0  0
    7.0229    0.8926   22.3509 H   0  0  0  0  0  0  0  0  0  0  0  0
    6.2227   -0.6042   22.8853 H   0  0  0  0  0  0  0  0  0  0  0  0
    8.2951   -0.6197   23.2034 N   0  0  0  0  0  0  0  0  0  0  0  0
    8.4513   -0.0262   24.0103 H   0  0  0  0  0  0  0  0  0  0  0  0
    9.4613   -0.7193   22.3343 C   0  0  0  0  0  0  0  0  0  0  0  0
   10.0193   -1.6404   22.5625 H   0  0  0  0  0  0  0  0  0  0  0  0
   10.1692    0.1163   22.4706 H   0  0  0  0  0  0  0  0  0  0  0  0
    8.8959   -0.7201   20.8989 C   0  0  0  0  0  0  0  0  0  0  0  0
    9.1791    0.2202   20.4135 H   0  0  0  0  0  0  0  0  0  0  0  0
    9.3119   -1.5344   20.2961 H   0  0  0  0  0  0  0  0  0  0  0  0
  1  2  1  0
  2  3  1  0
  3  4  2  0
  3  5  1  0
  5  6  1  0
  5  7  1  0
  5  8  1  0
  8  9  1  0
  8 10  1  0
  8 11  1  0
 11 12  1  0
 11 13  1  0
 11 14  1  0
 14 15  1  0
 14 16  1  0
 17 14  1  1
 17 18  1  0
 18 19  2  0
 19 20  1  0
 19 21  1  0
 21 22  2  0
 22 23  1  0
 22 24  1  0
 24 25  1  0
 24 26  2  0
 26 27  1  0
 17 28  1  0
 28 29  1  0
 28 30  1  0
 28 31  1  0
 31 32  1  0
 31 33  1  0
 33 34  1  0
 33 35  1  0
 33 36  1  0
 36 37  1  0
 36 38  1  0
 36 17  1  0
 26 18  1  0
M  END
>  <cnnaffinity>  (1) 
-4.85045

>  <filename>  (1) 
O=C(O)CCCC[C@]1(c2cccnc2)CCNC1

$$$$
