
     RDKit          3D

 35 37  0  0  0  0  0  0  0  0999 V2000
    5.1062    1.7919   16.9910 H   0  0  0  0  0  0  0  0  0  0  0  0
    5.5228    1.1884   17.7969 C   0  0  0  0  0  0  0  0  0  0  0  0
    6.6178    0.4694   17.5091 N   0  0  0  0  0  0  0  0  0  0  0  0
    7.1709   -0.2384   18.5064 C   0  0  0  0  0  0  0  0  0  0  0  0
    8.0571   -0.8095   18.2367 H   0  0  0  0  0  0  0  0  0  0  0  0
    6.6916   -0.2546   19.8261 C   0  0  0  0  0  0  0  0  0  0  0  0
    7.4620   -0.9557   20.9035 C   0  0  0  0  0  0  0  0  0  0  0  0
    7.4533   -2.3785   20.8572 O   0  0  0  0  0  0  0  0  0  0  0  0
    6.2926   -2.9529   21.2578 C   0  0  0  0  0  0  0  0  0  0  0  0
    5.2559   -2.3711   21.4607 O   0  0  0  0  0  0  0  0  0  0  0  0
    6.4656   -4.3044   21.3870 N   0  0  0  0  0  0  0  0  0  0  0  0
    7.4166   -4.4972   21.6491 H   0  0  0  0  0  0  0  0  0  0  0  0
    5.3797   -5.0874   21.9763 C   0  0  0  0  0  0  0  0  0  0  0  0
    4.4527   -4.6992   21.5534 H   0  0  0  0  0  0  0  0  0  0  0  0
    5.4817   -6.1216   21.6284 H   0  0  0  0  0  0  0  0  0  0  0  0
    5.2352   -5.0781   23.4958 C   0  0  0  0  0  0  0  0  0  0  0  0
    6.2020   -5.6557   24.3347 C   0  0  0  0  0  0  0  0  0  0  0  0
    7.1309   -6.0627   23.9446 H   0  0  0  0  0  0  0  0  0  0  0  0
    5.9573   -5.7272   25.7082 C   0  0  0  0  0  0  0  0  0  0  0  0
    6.6940   -6.1879   26.3634 H   0  0  0  0  0  0  0  0  0  0  0  0
    4.8454   -5.2772   26.2980 N   0  0  0  0  0  0  0  0  0  0  0  0
    3.9341   -4.6992   25.5051 C   0  0  0  0  0  0  0  0  0  0  0  0
    3.0377   -4.3344   26.0024 H   0  0  0  0  0  0  0  0  0  0  0  0
    4.0834   -4.5705   24.1212 C   0  0  0  0  0  0  0  0  0  0  0  0
    3.3237   -4.0481   23.5454 H   0  0  0  0  0  0  0  0  0  0  0  0
    7.5838   -0.3885   22.2859 C   0  0  0  0  0  0  0  0  0  0  0  0
    7.0934    0.5582   22.5037 H   0  0  0  0  0  0  0  0  0  0  0  0
    7.5833   -1.1169   23.0908 H   0  0  0  0  0  0  0  0  0  0  0  0
    8.7753   -0.4049   21.3651 C   0  0  0  0  0  0  0  0  0  0  0  0
    9.5591   -1.1325   21.5624 H   0  0  0  0  0  0  0  0  0  0  0  0
    9.0923    0.5445   20.9457 H   0  0  0  0  0  0  0  0  0  0  0  0
    5.4931    0.4340   20.0768 C   0  0  0  0  0  0  0  0  0  0  0  0
    5.0213    0.3631   21.0570 H   0  0  0  0  0  0  0  0  0  0  0  0
    4.9125    1.1802   19.0540 C   0  0  0  0  0  0  0  0  0  0  0  0
    4.0149    1.7634   19.2207 H   0  0  0  0  0  0  0  0  0  0  0  0
  1  2  1  0
  2  3  2  0
  3  4  1  0
  4  5  1  0
  4  6  2  0
  6  7  1  0
  7  8  1  0
  8  9  1  0
  9 10  2  0
  9 11  1  0
 11 12  1  0
 11 13  1  0
 13 14  1  0
 13 15  1  0
 13 16  1  0
 16 17  2  0
 17 18  1  0
 17 19  1  0
 19 20  1  0
 19 21  2  0
 21 22  1  0
 22 23  1  0
 22 24  2  0
 24 25  1  0
  7 26  1  0
 26 27  1  0
 26 28  1  0
 26 29  1  0
 29 30  1  0
 29 31  1  0
  6 32  1  0
 32 33  1  0
 32 34  2  0
 34 35  1  0
 34  2  1  0
 29  7  1  0
 24 16  1  0
M  END
>  <cnnaffinity>  (1) 
-4.68779

>  <filename>  (1) 
O=C(NCc1ccncc1)OC1(c2cccnc2)CC1

$$$$
