
     RDKit          3D

 35 37  0  0  0  0  0  0  0  0999 V2000
    4.9776    1.7812   17.0001 H   0  0  0  0  0  0  0  0  0  0  0  0
    5.4254    1.2803   17.8514 C   0  0  0  0  0  0  0  0  0  0  0  0
    6.5892    0.6554   17.6131 N   0  0  0  0  0  0  0  0  0  0  0  0
    7.1749    0.0532   18.6506 C   0  0  0  0  0  0  0  0  0  0  0  0
    8.1285   -0.4292   18.4315 H   0  0  0  0  0  0  0  0  0  0  0  0
    6.6577    0.0281   19.9645 C   0  0  0  0  0  0  0  0  0  0  0  0
    7.4174   -0.6562   21.0250 C   0  0  0  0  0  0  0  0  0  0  0  0
    7.1057   -0.4535   22.7137 S   0  0  0  0  0  0  0  0  0  0  0  0
    8.2976   -1.6221   23.1422 C   0  0  0  0  0  0  0  0  0  0  0  0
    8.5113   -1.8240   24.5980 C   0  0  0  0  0  0  0  0  0  0  0  0
    7.8578   -1.2500   25.4575 O   0  0  0  0  0  0  0  0  0  0  0  0
    9.5160   -2.6889   24.8877 N   0  0  0  0  0  0  0  0  0  0  0  0
   10.0010   -3.0834   24.1059 H   0  0  0  0  0  0  0  0  0  0  0  0
    9.7029   -3.2481   26.2154 C   0  0  0  0  0  0  0  0  0  0  0  0
    9.7939   -2.4320   26.9448 H   0  0  0  0  0  0  0  0  0  0  0  0
   10.6424   -3.8094   26.2039 H   0  0  0  0  0  0  0  0  0  0  0  0
    8.5925   -4.1561   26.6562 C   0  0  0  0  0  0  0  0  0  0  0  0
    7.5952   -3.6719   27.5051 C   0  0  0  0  0  0  0  0  0  0  0  0
    7.5662   -2.6108   27.7342 H   0  0  0  0  0  0  0  0  0  0  0  0
    6.6099   -4.5239   28.0025 C   0  0  0  0  0  0  0  0  0  0  0  0
    5.9199   -4.1693   28.7579 H   0  0  0  0  0  0  0  0  0  0  0  0
    6.5287   -5.8346   27.5360 C   0  0  0  0  0  0  0  0  0  0  0  0
    5.7701   -6.5111   27.9232 H   0  0  0  0  0  0  0  0  0  0  0  0
    7.4422   -6.2675   26.5736 C   0  0  0  0  0  0  0  0  0  0  0  0
    7.2952   -7.2199   26.1039 H   0  0  0  0  0  0  0  0  0  0  0  0
    8.5153   -5.4673   26.1839 C   0  0  0  0  0  0  0  0  0  0  0  0
    9.3047   -5.8549   25.5405 H   0  0  0  0  0  0  0  0  0  0  0  0
    8.9013   -2.1536   22.0233 C   0  0  0  0  0  0  0  0  0  0  0  0
    9.6315   -2.9634   22.0037 H   0  0  0  0  0  0  0  0  0  0  0  0
    8.4277   -1.5621   20.8322 C   0  0  0  0  0  0  0  0  0  0  0  0
    8.8457   -1.7853   19.8587 H   0  0  0  0  0  0  0  0  0  0  0  0
    5.4178    0.6659   20.1795 C   0  0  0  0  0  0  0  0  0  0  0  0
    4.9468    0.6670   21.1636 H   0  0  0  0  0  0  0  0  0  0  0  0
    4.8051    1.3041   19.1035 C   0  0  0  0  0  0  0  0  0  0  0  0
    3.8679    1.8322   19.2259 H   0  0  0  0  0  0  0  0  0  0  0  0
  1  2  1  0
  2  3  2  0
  3  4  1  0
  4  5  1  0
  4  6  2  0
  6  7  1  0
  7  8  1  0
  8  9  1  0
  9 10  1  0
 10 11  2  0
 10 12  1  0
 12 13  1  0
 12 14  1  0
 14 15  1  0
 14 16  1  0
 14 17  1  0
 17 18  2  0
 18 19  1  0
 18 20  1  0
 20 21  1  0
 20 22  2  0
 22 23  1  0
 22 24  1  0
 24 25  1  0
 24 26  2  0
 26 27  1  0
  9 28  2  0
 28 29  1  0
 28 30  1  0
 30 31  1  0
  6 32  1  0
 32 33  1  0
 32 34  2  0
 34 35  1  0
 34  2  1  0
 30  7  2  0
 26 17  1  0
M  END
>  <cnnaffinity>  (1) 
-4.29595

>  <filename>  (1) 
O=C(NCc1ccccc1)c1ccc(-c2cccnc2)s1

$$$$
