
     RDKit          3D

 29 30  0  0  0  0  0  0  0  0999 V2000
    5.0678    1.7463   17.0381 H   0  0  0  0  0  0  0  0  0  0  0  0
    5.5257    1.2528   17.8961 C   0  0  0  0  0  0  0  0  0  0  0  0
    6.6903    0.6268   17.6724 N   0  0  0  0  0  0  0  0  0  0  0  0
    7.2673    0.0116   18.7096 C   0  0  0  0  0  0  0  0  0  0  0  0
    8.2011   -0.5018   18.4853 H   0  0  0  0  0  0  0  0  0  0  0  0
    6.7174   -0.0268   19.9976 C   0  0  0  0  0  0  0  0  0  0  0  0
    7.3859   -0.7910   21.0751 C   0  0  0  0  0  0  0  0  0  0  0  0
    6.7893   -1.2884   22.0216 O   0  0  0  0  0  0  0  0  0  0  0  0
    8.7424   -0.8967   20.9059 N   0  0  0  0  0  0  0  0  0  0  0  0
    9.1272   -0.0221   20.5814 H   0  0  0  0  0  0  0  0  0  0  0  0
    9.5129   -1.5434   21.9399 C   0  0  0  0  0  0  0  0  0  0  0  0
    9.1879   -2.5861   22.0154 H   0  0  0  0  0  0  0  0  0  0  0  0
   10.5807   -1.5388   21.6875 H   0  0  0  0  0  0  0  0  0  0  0  0
    9.2798   -0.9476   23.2177 N   0  0  0  0  0  0  0  0  0  0  0  0
    8.2848   -1.0203   23.4081 H   0  0  0  0  0  0  0  0  0  0  0  0
    9.7414    0.2905   23.5796 C   0  0  0  0  0  0  0  0  0  0  0  0
    9.3345    0.7758   24.8262 C   0  0  0  0  0  0  0  0  0  0  0  0
    8.7113    0.1580   25.4602 H   0  0  0  0  0  0  0  0  0  0  0  0
    9.7807    2.0185   25.2298 C   0  0  0  0  0  0  0  0  0  0  0  0
    9.4770    2.4242   26.1937 H   0  0  0  0  0  0  0  0  0  0  0  0
   10.5822    2.8047   24.4956 N   0  0  0  0  0  0  0  0  0  0  0  0
   10.9694    2.3173   23.3130 C   0  0  0  0  0  0  0  0  0  0  0  0
   11.6212    2.9645   22.7291 H   0  0  0  0  0  0  0  0  0  0  0  0
   10.5969    1.0764   22.8104 C   0  0  0  0  0  0  0  0  0  0  0  0
   10.9566    0.7271   21.8555 H   0  0  0  0  0  0  0  0  0  0  0  0
    5.5009    0.6302   20.2209 C   0  0  0  0  0  0  0  0  0  0  0  0
    5.0573    0.6263   21.2182 H   0  0  0  0  0  0  0  0  0  0  0  0
    4.8966    1.2784   19.1460 C   0  0  0  0  0  0  0  0  0  0  0  0
    3.9531    1.7967   19.2648 H   0  0  0  0  0  0  0  0  0  0  0  0
  1  2  1  0
  2  3  2  0
  3  4  1  0
  4  5  1  0
  4  6  2  0
  6  7  1  0
  7  8  2  0
  7  9  1  0
  9 10  1  0
  9 11  1  0
 11 12  1  0
 11 13  1  0
 11 14  1  0
 14 15  1  0
 14 16  1  0
 16 17  2  0
 17 18  1  0
 17 19  1  0
 19 20  1  0
 19 21  2  0
 21 22  1  0
 22 23  1  0
 22 24  2  0
 24 25  1  0
  6 26  1  0
 26 27  1  0
 26 28  2  0
 28 29  1  0
 28  2  1  0
 24 16  1  0
M  END
>  <cnnaffinity>  (1) 
-4.5901

>  <filename>  (1) 
O=C(NCNc1ccncc1)c1cccnc1

$$$$
