
     RDKit          3D

 35 36  0  0  0  0  0  0  0  0999 V2000
    7.0533   -0.6474   24.1622 O   0  0  0  0  0  0  0  0  0  0  0  0
    7.9481    0.1820   24.1729 C   0  0  0  0  0  0  0  0  0  0  0  0
    7.7764    1.6007   24.6961 C   0  0  0  0  0  0  0  0  0  0  0  0
    6.8672    2.3834   23.7604 C   0  0  0  0  0  0  0  0  0  0  0  0
    5.4773    2.2963   23.9455 C   0  0  0  0  0  0  0  0  0  0  0  0
    4.5763    2.9332   23.0943 C   0  0  0  0  0  0  0  0  0  0  0  0
    5.0602    3.6998   22.0342 C   0  0  0  0  0  0  0  0  0  0  0  0
    6.4380    3.8372   21.8472 C   0  0  0  0  0  0  0  0  0  0  0  0
    7.3271    3.1370   22.6682 C   0  0  0  0  0  0  0  0  0  0  0  0
    9.0212    3.1753   22.2419 Cl  0  0  0  0  0  0  0  0  0  0  0  0
    6.8427    4.5078   21.1004 H   0  0  0  0  0  0  0  0  0  0  0  0
    4.3612    4.1574   21.3354 H   0  0  0  0  0  0  0  0  0  0  0  0
    3.5084    2.8405   23.2658 H   0  0  0  0  0  0  0  0  0  0  0  0
    5.1060    1.6996   24.7709 H   0  0  0  0  0  0  0  0  0  0  0  0
    8.7497    2.0950   24.7998 H   0  0  0  0  0  0  0  0  0  0  0  0
    7.3094    1.5239   25.6809 H   0  0  0  0  0  0  0  0  0  0  0  0
    9.1654   -0.0666   23.5919 N   0  0  0  0  0  0  0  0  0  0  0  0
    9.2848   -1.0485   22.4958 C   0  0  0  0  0  0  0  0  0  0  0  0
    8.7709   -0.5839   21.1054 C   0  0  0  0  0  0  0  0  0  0  0  0
    9.5358   -0.2182   20.2347 O   0  0  0  0  0  0  0  0  0  0  0  0
    7.4009   -0.6067   20.9514 N   0  0  0  0  0  0  0  0  0  0  0  0
    6.6959   -0.0029   19.8845 C   0  0  0  0  0  0  0  0  0  0  0  0
    5.4812    0.6238   20.1692 C   0  0  0  0  0  0  0  0  0  0  0  0
    4.8241    1.2941   19.1330 C   0  0  0  0  0  0  0  0  0  0  0  0
    5.3863    1.2962   17.8527 C   0  0  0  0  0  0  0  0  0  0  0  0
    6.5264    0.6533   17.5512 N   0  0  0  0  0  0  0  0  0  0  0  0
    7.1673    0.0281   18.5476 C   0  0  0  0  0  0  0  0  0  0  0  0
    8.1074   -0.4576   18.3020 H   0  0  0  0  0  0  0  0  0  0  0  0
    4.9069    1.8320   17.0369 H   0  0  0  0  0  0  0  0  0  0  0  0
    3.9025    1.8377   19.3078 H   0  0  0  0  0  0  0  0  0  0  0  0
    5.0931    0.6284   21.1891 H   0  0  0  0  0  0  0  0  0  0  0  0
    6.8632   -0.6982   21.8076 H   0  0  0  0  0  0  0  0  0  0  0  0
   10.3353   -1.3174   22.3718 H   0  0  0  0  0  0  0  0  0  0  0  0
    8.7296   -1.9440   22.7954 H   0  0  0  0  0  0  0  0  0  0  0  0
    9.7841    0.7340   23.5826 H   0  0  0  0  0  0  0  0  0  0  0  0
  1  2  2  0
  2  3  1  0
  3  4  1  0
  4  5  2  0
  5  6  1  0
  6  7  2  0
  7  8  1  0
  8  9  2  0
  9 10  1  0
  8 11  1  0
  7 12  1  0
  6 13  1  0
  5 14  1  0
  3 15  1  0
  3 16  1  0
  2 17  1  0
 17 18  1  0
 18 19  1  0
 19 20  2  0
 19 21  1  0
 21 22  1  0
 22 23  2  0
 23 24  1  0
 24 25  2  0
 25 26  1  0
 26 27  2  0
 27 28  1  0
 25 29  1  0
 24 30  1  0
 23 31  1  0
 21 32  1  0
 18 33  1  0
 18 34  1  0
 17 35  1  0
  9  4  1  0
 27 22  1  0
M  END
>  <cnnaffinity>  (1) 
-4.93895

>  <filename>  (1) 
O=C(Cc1ccccc1Cl)NCC(=O)Nc1cccnc1

$$$$
