
     RDKit          3D

 32 34  0  0  0  0  0  0  0  0999 V2000
    5.7203   -4.6390   27.7340 H   0  0  0  0  0  0  0  0  0  0  0  0
    6.7477   -4.7071   27.3791 C   0  0  0  0  0  0  0  0  0  0  0  0
    6.9935   -4.1919   26.1728 N   0  0  0  0  0  0  0  0  0  0  0  0
    8.2577   -4.2372   25.6881 C   0  0  0  0  0  0  0  0  0  0  0  0
    8.5757   -3.5338   24.3550 C   0  0  0  0  0  0  0  0  0  0  0  0
    9.7162   -3.4888   23.9105 O   0  0  0  0  0  0  0  0  0  0  0  0
    7.5118   -2.9496   23.7185 N   0  0  0  0  0  0  0  0  0  0  0  0
    6.6297   -2.9831   24.2092 H   0  0  0  0  0  0  0  0  0  0  0  0
    7.6146   -2.0642   22.6667 C   0  0  0  0  0  0  0  0  0  0  0  0
    6.6804   -1.6240   21.8073 C   0  0  0  0  0  0  0  0  0  0  0  0
    5.6408   -1.8857   21.7098 H   0  0  0  0  0  0  0  0  0  0  0  0
    7.3123   -0.6912   20.9774 N   0  0  0  0  0  0  0  0  0  0  0  0
    6.6559   -0.0071   19.9080 C   0  0  0  0  0  0  0  0  0  0  0  0
    7.1737    0.0283   18.5982 C   0  0  0  0  0  0  0  0  0  0  0  0
    8.1173   -0.4667   18.3694 H   0  0  0  0  0  0  0  0  0  0  0  0
    6.5597    0.6481   17.5811 N   0  0  0  0  0  0  0  0  0  0  0  0
    5.4057    1.2881   17.8280 C   0  0  0  0  0  0  0  0  0  0  0  0
    4.9425    1.8037   16.9859 H   0  0  0  0  0  0  0  0  0  0  0  0
    4.8159    1.3109   19.0925 C   0  0  0  0  0  0  0  0  0  0  0  0
    3.8891    1.8468   19.2439 H   0  0  0  0  0  0  0  0  0  0  0  0
    5.4474    0.6507   20.1504 C   0  0  0  0  0  0  0  0  0  0  0  0
    5.0330    0.6491   21.1556 H   0  0  0  0  0  0  0  0  0  0  0  0
    8.6246   -0.5212   21.3873 C   0  0  0  0  0  0  0  0  0  0  0  0
    9.7757    0.5488   20.8670 S   0  0  0  0  0  0  0  0  0  0  0  0
    8.7907   -1.4339   22.3808 N   0  0  0  0  0  0  0  0  0  0  0  0
    9.6819   -1.6731   22.7860 H   0  0  0  0  0  0  0  0  0  0  0  0
    9.3101   -4.8429   26.3981 C   0  0  0  0  0  0  0  0  0  0  0  0
   10.2909   -4.9275   25.9367 H   0  0  0  0  0  0  0  0  0  0  0  0
    9.0584   -5.3215   27.6818 C   0  0  0  0  0  0  0  0  0  0  0  0
    9.8732   -5.7167   28.2888 H   0  0  0  0  0  0  0  0  0  0  0  0
    7.7490   -5.2750   28.1692 C   0  0  0  0  0  0  0  0  0  0  0  0
    7.4907   -5.6857   29.1294 H   0  0  0  0  0  0  0  0  0  0  0  0
  1  2  1  0
  2  3  2  0
  3  4  1  0
  4  5  1  0
  5  6  2  0
  5  7  1  0
  7  8  1  0
  7  9  1  0
  9 10  2  0
 10 11  1  0
 10 12  1  0
 12 13  1  0
 13 14  2  0
 14 15  1  0
 14 16  1  0
 16 17  2  0
 17 18  1  0
 17 19  1  0
 19 20  1  0
 19 21  2  0
 21 22  1  0
 12 23  1  0
 23 24  2  0
 23 25  1  0
 25 26  1  0
  4 27  2  0
 27 28  1  0
 27 29  1  0
 29 30  1  0
 29 31  2  0
 31 32  1  0
 31  2  1  0
 25  9  1  0
 21 13  1  0
M  END
>  <cnnaffinity>  (1) 
-5.11678

>  <filename>  (1) 
O=C(Nc1cn(-c2cccnc2)c(=S)[nH]1)c1ccccn1

$$$$
