
     RDKit          3D

 31 33  0  0  0  0  0  0  0  0999 V2000
    5.0150    1.6619   16.8738 H   0  0  0  0  0  0  0  0  0  0  0  0
    5.4621    1.2227   17.7645 C   0  0  0  0  0  0  0  0  0  0  0  0
    6.6489    0.6230   17.5923 N   0  0  0  0  0  0  0  0  0  0  0  0
    7.2344    0.0926   18.6679 C   0  0  0  0  0  0  0  0  0  0  0  0
    8.2065   -0.3689   18.5082 H   0  0  0  0  0  0  0  0  0  0  0  0
    6.6674    0.1070   19.9525 C   0  0  0  0  0  0  0  0  0  0  0  0
    7.4516   -0.5089   21.1044 C   0  0  0  0  0  0  0  0  0  0  0  0
    7.0327    0.0834   22.2721 F   0  0  0  0  0  0  0  0  0  0  0  0
    8.7623   -0.1797   20.9589 F   0  0  0  0  0  0  0  0  0  0  0  0
    7.3633   -2.0893   21.3157 C   0  0  0  0  0  0  0  0  0  0  0  0
    8.3416   -2.7988   21.2025 O   0  0  0  0  0  0  0  0  0  0  0  0
    6.1250   -2.5833   21.6535 N   0  0  0  0  0  0  0  0  0  0  0  0
    5.3933   -1.9159   21.8291 H   0  0  0  0  0  0  0  0  0  0  0  0
    5.7491   -3.9396   21.5238 C   0  0  0  0  0  0  0  0  0  0  0  0
    6.3163   -4.7990   20.6450 C   0  0  0  0  0  0  0  0  0  0  0  0
    7.2088   -4.6021   20.0748 H   0  0  0  0  0  0  0  0  0  0  0  0
    5.5059   -6.3190   20.5602 S   0  0  0  0  0  0  0  0  0  0  0  0
    4.4008   -5.8583   21.8177 C   0  0  0  0  0  0  0  0  0  0  0  0
    3.3407   -6.6262   22.3334 C   0  0  0  0  0  0  0  0  0  0  0  0
    3.0842   -7.5881   21.8985 H   0  0  0  0  0  0  0  0  0  0  0  0
    2.6278   -6.1046   23.4070 C   0  0  0  0  0  0  0  0  0  0  0  0
    1.8432   -6.6971   23.8663 H   0  0  0  0  0  0  0  0  0  0  0  0
    2.9243   -4.8305   23.9324 C   0  0  0  0  0  0  0  0  0  0  0  0
    2.3341   -4.4390   24.7600 H   0  0  0  0  0  0  0  0  0  0  0  0
    3.9362   -4.0594   23.3738 C   0  0  0  0  0  0  0  0  0  0  0  0
    4.1786   -3.0845   23.7831 H   0  0  0  0  0  0  0  0  0  0  0  0
    4.6742   -4.5512   22.2808 C   0  0  0  0  0  0  0  0  0  0  0  0
    5.4234    0.7365   20.1207 C   0  0  0  0  0  0  0  0  0  0  0  0
    4.9581    0.8328   21.1037 H   0  0  0  0  0  0  0  0  0  0  0  0
    4.8141    1.3030   19.0002 C   0  0  0  0  0  0  0  0  0  0  0  0
    3.8670    1.8277   19.0736 H   0  0  0  0  0  0  0  0  0  0  0  0
  1  2  1  0
  2  3  2  0
  3  4  1  0
  4  5  1  0
  4  6  2  0
  6  7  1  0
  7  8  1  0
  7  9  1  0
  7 10  1  0
 10 11  2  0
 10 12  1  0
 12 13  1  0
 12 14  1  0
 14 15  2  0
 15 16  1  0
 15 17  1  0
 17 18  1  0
 18 19  2  0
 19 20  1  0
 19 21  1  0
 21 22  1  0
 21 23  2  0
 23 24  1  0
 23 25  1  0
 25 26  1  0
 25 27  2  0
  6 28  1  0
 28 29  1  0
 28 30  2  0
 30 31  1  0
 30  2  1  0
 27 14  1  0
 27 18  1  0
M  END
>  <cnnaffinity>  (1) 
-5.45618

>  <filename>  (1) 
O=C(Nc1csc2ccccc12)C(F)(F)c1cccnc1

$$$$
