
     RDKit          3D

 25 26  0  0  0  0  0  0  0  0999 V2000
    4.9838    1.8215   16.9853 H   0  0  0  0  0  0  0  0  0  0  0  0
    5.4416    1.2861   17.8154 C   0  0  0  0  0  0  0  0  0  0  0  0
    6.6007    0.6519   17.5604 N   0  0  0  0  0  0  0  0  0  0  0  0
    7.1938    0.0095   18.5799 C   0  0  0  0  0  0  0  0  0  0  0  0
    8.1354   -0.4864   18.3480 H   0  0  0  0  0  0  0  0  0  0  0  0
    6.6858   -0.0405   19.9003 C   0  0  0  0  0  0  0  0  0  0  0  0
    7.3580   -0.7003   20.9497 N   0  0  0  0  0  0  0  0  0  0  0  0
    7.5385   -1.7038   20.9115 H   0  0  0  0  0  0  0  0  0  0  0  0
    7.4047   -0.2452   22.2562 C   0  0  0  0  0  0  0  0  0  0  0  0
    7.2785    1.0346   22.8445 C   0  0  0  0  0  0  0  0  0  0  0  0
    7.0699    1.9780   22.3595 H   0  0  0  0  0  0  0  0  0  0  0  0
    7.4682    0.9817   24.1591 N   0  0  0  0  0  0  0  0  0  0  0  0
    7.7187   -0.2980   24.4344 N   0  0  0  0  0  0  0  0  0  0  0  0
    7.8992   -0.5462   25.4039 H   0  0  0  0  0  0  0  0  0  0  0  0
    7.6952   -1.0899   23.3135 C   0  0  0  0  0  0  0  0  0  0  0  0
    7.9672   -2.5285   23.2227 C   0  0  0  0  0  0  0  0  0  0  0  0
    7.8890   -3.1474   22.1720 O   0  0  0  0  0  0  0  0  0  0  0  0
    8.3994   -3.2345   24.5646 C   0  0  0  0  0  0  0  0  0  0  0  0
    9.5030   -2.6398   25.0654 F   0  0  0  0  0  0  0  0  0  0  0  0
    8.6546   -4.5296   24.4260 F   0  0  0  0  0  0  0  0  0  0  0  0
    7.4422   -3.0911   25.5073 F   0  0  0  0  0  0  0  0  0  0  0  0
    5.4609    0.6029   20.1299 C   0  0  0  0  0  0  0  0  0  0  0  0
    5.0399    0.5765   21.1353 H   0  0  0  0  0  0  0  0  0  0  0  0
    4.8359    1.2748   19.0754 C   0  0  0  0  0  0  0  0  0  0  0  0
    3.9017    1.8021   19.2301 H   0  0  0  0  0  0  0  0  0  0  0  0
  1  2  1  0
  2  3  2  0
  3  4  1  0
  4  5  1  0
  4  6  2  0
  6  7  1  0
  7  8  1  0
  7  9  1  0
  9 10  1  0
 10 11  1  0
 10 12  2  0
 12 13  1  0
 13 14  1  0
 13 15  1  0
 15 16  1  0
 16 17  2  0
 16 18  1  0
 18 19  1  0
 18 20  1  0
 18 21  1  0
  6 22  1  0
 22 23  1  0
 22 24  2  0
 24 25  1  0
 24  2  1  0
 15  9  2  0
M  END
>  <cnnaffinity>  (1) 
-5.10736

>  <filename>  (1) 
O=C(c1[nH]ncc1Nc1cccnc1)C(F)(F)F

$$$$
