
     RDKit          3D

 35 37  0  0  0  0  0  0  0  0999 V2000
    4.9221    1.8050   16.9860 H   0  0  0  0  0  0  0  0  0  0  0  0
    5.3962    1.3002   17.8255 C   0  0  0  0  0  0  0  0  0  0  0  0
    6.5533    0.6753   17.5612 N   0  0  0  0  0  0  0  0  0  0  0  0
    7.1707    0.0465   18.5713 C   0  0  0  0  0  0  0  0  0  0  0  0
    8.1130   -0.4399   18.3309 H   0  0  0  0  0  0  0  0  0  0  0  0
    6.6607   -0.0132   19.8846 C   0  0  0  0  0  0  0  0  0  0  0  0
    7.3326   -0.7227   20.9344 N   0  0  0  0  0  0  0  0  0  0  0  0
    8.6408   -0.4901   21.4317 C   0  0  0  0  0  0  0  0  0  0  0  0
    9.5907    0.5855   20.9777 C   0  0  0  0  0  0  0  0  0  0  0  0
    9.1990    1.0415   20.0693 H   0  0  0  0  0  0  0  0  0  0  0  0
   10.5581    0.1317   20.7381 H   0  0  0  0  0  0  0  0  0  0  0  0
    9.8443    1.6448   21.9490 N   0  0  0  0  0  0  0  0  0  0  0  0
   10.5595    1.4982   22.6398 H   0  0  0  0  0  0  0  0  0  0  0  0
    8.8254    2.4815   22.3310 C   0  0  0  0  0  0  0  0  0  0  0  0
    7.7233    2.4229   21.8132 O   0  0  0  0  0  0  0  0  0  0  0  0
    9.1480    3.4726   23.4256 C   0  0  0  0  0  0  0  0  0  0  0  0
   10.4595    3.8822   23.7267 C   0  0  0  0  0  0  0  0  0  0  0  0
   11.3070    3.4898   23.1691 H   0  0  0  0  0  0  0  0  0  0  0  0
   10.6965    4.8471   24.7070 C   0  0  0  0  0  0  0  0  0  0  0  0
   11.7161    5.1557   24.9221 H   0  0  0  0  0  0  0  0  0  0  0  0
    9.6276    5.4104   25.4115 C   0  0  0  0  0  0  0  0  0  0  0  0
    9.8102    6.1606   26.1779 H   0  0  0  0  0  0  0  0  0  0  0  0
    8.3185    5.0120   25.1185 C   0  0  0  0  0  0  0  0  0  0  0  0
    7.4820    5.4634   25.6461 H   0  0  0  0  0  0  0  0  0  0  0  0
    8.0787    4.0556   24.1301 C   0  0  0  0  0  0  0  0  0  0  0  0
    7.0584    3.7722   23.8778 H   0  0  0  0  0  0  0  0  0  0  0  0
    8.8204   -1.3970   22.3981 C   0  0  0  0  0  0  0  0  0  0  0  0
    9.6687   -1.6323   23.0249 H   0  0  0  0  0  0  0  0  0  0  0  0
    7.6988   -2.1662   22.5677 O   0  0  0  0  0  0  0  0  0  0  0  0
    6.7401   -1.7577   21.6774 C   0  0  0  0  0  0  0  0  0  0  0  0
    5.6520   -2.2556   21.5804 O   0  0  0  0  0  0  0  0  0  0  0  0
    5.4472    0.6395   20.1416 C   0  0  0  0  0  0  0  0  0  0  0  0
    5.0405    0.6153   21.1537 H   0  0  0  0  0  0  0  0  0  0  0  0
    4.8068    1.3150   19.0941 C   0  0  0  0  0  0  0  0  0  0  0  0
    3.8733    1.8500   19.2463 H   0  0  0  0  0  0  0  0  0  0  0  0
  1  2  1  0
  2  3  2  0
  3  4  1  0
  4  5  1  0
  4  6  2  0
  6  7  1  0
  7  8  1  0
  8  9  1  0
  9 10  1  0
  9 11  1  0
  9 12  1  0
 12 13  1  0
 12 14  1  0
 14 15  2  0
 14 16  1  0
 16 17  2  0
 17 18  1  0
 17 19  1  0
 19 20  1  0
 19 21  2  0
 21 22  1  0
 21 23  1  0
 23 24  1  0
 23 25  2  0
 25 26  1  0
  8 27  2  0
 27 28  1  0
 27 29  1  0
 29 30  1  0
 30 31  2  0
  6 32  1  0
 32 33  1  0
 32 34  2  0
 34 35  1  0
 34  2  1  0
 30  7  1  0
 25 16  1  0
M  END
>  <cnnaffinity>  (1) 
-4.82684

>  <filename>  (1) 
O=C(NCc1coc(=O)n1-c1cccnc1)c1ccccc1

$$$$
