
     RDKit          3D

 28 29  0  0  0  0  0  0  0  0999 V2000
    8.2447   -1.3387   20.6106 O   0  0  0  0  0  0  0  0  0  0  0  0
    7.1073   -0.9655   20.8574 C   0  0  0  0  0  0  0  0  0  0  0  0
    6.4556   -1.3780   22.0107 N   0  0  0  0  0  0  0  0  0  0  0  0
    7.0676   -2.0292   23.0846 C   0  0  0  0  0  0  0  0  0  0  0  0
    6.3312   -2.4078   24.2156 C   0  0  0  0  0  0  0  0  0  0  0  0
    6.9589   -2.9373   25.3728 C   0  0  0  0  0  0  0  0  0  0  0  0
    6.1830   -3.3279   26.6332 C   0  0  0  0  0  0  0  0  0  0  0  0
    6.9825   -4.0314   27.4848 F   0  0  0  0  0  0  0  0  0  0  0  0
    5.7389   -2.2174   27.2796 F   0  0  0  0  0  0  0  0  0  0  0  0
    5.1133   -4.1102   26.3286 F   0  0  0  0  0  0  0  0  0  0  0  0
    8.3510   -3.1312   25.3232 C   0  0  0  0  0  0  0  0  0  0  0  0
    9.0728   -2.8519   24.1658 C   0  0  0  0  0  0  0  0  0  0  0  0
   10.9049   -3.3190   23.9937 Br  0  0  0  0  0  0  0  0  0  0  0  0
    8.4330   -2.2883   23.0740 C   0  0  0  0  0  0  0  0  0  0  0  0
    9.0305   -2.0709   22.2056 H   0  0  0  0  0  0  0  0  0  0  0  0
    8.8739   -3.5515   26.1755 H   0  0  0  0  0  0  0  0  0  0  0  0
    5.2572   -2.3067   24.1659 H   0  0  0  0  0  0  0  0  0  0  0  0
    5.5107   -1.0361   22.1505 H   0  0  0  0  0  0  0  0  0  0  0  0
    6.4670   -0.1203   19.8812 C   0  0  0  0  0  0  0  0  0  0  0  0
    5.2678    0.5606   20.1073 C   0  0  0  0  0  0  0  0  0  0  0  0
    4.7621    1.3079   19.0506 C   0  0  0  0  0  0  0  0  0  0  0  0
    5.4461    1.3544   17.8318 C   0  0  0  0  0  0  0  0  0  0  0  0
    6.6006    0.7032   17.6270 N   0  0  0  0  0  0  0  0  0  0  0  0
    7.1061   -0.0060   18.6418 C   0  0  0  0  0  0  0  0  0  0  0  0
    8.0522   -0.5213   18.4888 H   0  0  0  0  0  0  0  0  0  0  0  0
    5.0317    1.9384   17.0181 H   0  0  0  0  0  0  0  0  0  0  0  0
    3.8422    1.8671   19.1545 H   0  0  0  0  0  0  0  0  0  0  0  0
    4.7426    0.5252   21.0636 H   0  0  0  0  0  0  0  0  0  0  0  0
  1  2  2  0
  2  3  1  0
  3  4  1  0
  4  5  2  0
  5  6  1  0
  6  7  1  0
  7  8  1  0
  7  9  1  0
  7 10  1  0
  6 11  2  0
 11 12  1  0
 12 13  1  0
 12 14  2  0
 14 15  1  0
 11 16  1  0
  5 17  1  0
  3 18  1  0
  2 19  1  0
 19 20  2  0
 20 21  1  0
 21 22  2  0
 22 23  1  0
 23 24  2  0
 24 25  1  0
 22 26  1  0
 21 27  1  0
 20 28  1  0
 14  4  1  0
 24 19  1  0
M  END
>  <cnnaffinity>  (1) 
-4.90816

>  <filename>  (1) 
O=C(Nc1cc(Br)cc(C(F)(F)F)c1)c1cccnc1

$$$$
