
     RDKit          3D

 29 30  0  0  0  0  0  0  0  0999 V2000
    5.8530    1.6145   23.7074 H   0  0  0  0  0  0  0  0  0  0  0  0
    5.4003    1.6948   24.5647 O   0  0  0  0  0  0  0  0  0  0  0  0
    5.4017    0.4402   25.0765 C   0  0  0  0  0  0  0  0  0  0  0  0
    4.7254    0.2140   26.2726 C   0  0  0  0  0  0  0  0  0  0  0  0
    4.2620    1.0489   26.7844 H   0  0  0  0  0  0  0  0  0  0  0  0
    4.6236   -1.0829   26.7727 C   0  0  0  0  0  0  0  0  0  0  0  0
    3.7400   -1.3728   28.2428 Cl  0  0  0  0  0  0  0  0  0  0  0  0
    5.2166   -2.1506   26.0970 C   0  0  0  0  0  0  0  0  0  0  0  0
    5.0848   -3.1532   26.4789 H   0  0  0  0  0  0  0  0  0  0  0  0
    5.9230   -1.9270   24.9061 C   0  0  0  0  0  0  0  0  0  0  0  0
    6.3123   -2.7774   24.3445 H   0  0  0  0  0  0  0  0  0  0  0  0
    6.0331   -0.6314   24.3950 C   0  0  0  0  0  0  0  0  0  0  0  0
    6.5703   -0.2842   23.1542 O   0  0  0  0  0  0  0  0  0  0  0  0
    6.8981   -1.3047   22.2204 C   0  0  1  0  0  0  0  0  0  0  0  0
    7.7053   -1.9349   22.6215 H   0  0  0  0  0  0  0  0  0  0  0  0
    5.7436   -2.0545   21.9541 O   0  0  0  0  0  0  0  0  0  0  0  0
    5.0363   -1.5986   22.4594 H   0  0  0  0  0  0  0  0  0  0  0  0
    7.5397   -0.6590   20.9477 C   0  0  0  0  0  0  0  0  0  0  0  0
    8.7389   -0.7922   20.7815 O   0  0  0  0  0  0  0  0  0  0  0  0
    6.7091    0.0521   19.9328 C   0  0  0  0  0  0  0  0  0  0  0  0
    7.2330    0.0883   18.6301 C   0  0  0  0  0  0  0  0  0  0  0  0
    8.1860   -0.3912   18.4141 H   0  0  0  0  0  0  0  0  0  0  0  0
    6.6178    0.6697   17.6032 N   0  0  0  0  0  0  0  0  0  0  0  0
    5.4420    1.2699   17.8447 C   0  0  0  0  0  0  0  0  0  0  0  0
    4.9720    1.7562   16.9926 H   0  0  0  0  0  0  0  0  0  0  0  0
    4.8382    1.3027   19.1062 C   0  0  0  0  0  0  0  0  0  0  0  0
    3.8932    1.8203   19.2280 H   0  0  0  0  0  0  0  0  0  0  0  0
    5.4826    0.6879   20.1780 C   0  0  0  0  0  0  0  0  0  0  0  0
    5.0434    0.7110   21.1809 H   0  0  0  0  0  0  0  0  0  0  0  0
  1  2  1  0
  2  3  1  0
  3  4  2  0
  4  5  1  0
  4  6  1  0
  6  7  1  0
  6  8  2  0
  8  9  1  0
  8 10  1  0
 10 11  1  0
 10 12  2  0
 12 13  1  0
 13 14  1  0
 14 15  1  1
 14 16  1  0
 16 17  1  0
 14 18  1  0
 18 19  2  0
 18 20  1  0
 20 21  2  0
 21 22  1  0
 21 23  1  0
 23 24  2  0
 24 25  1  0
 24 26  1  0
 26 27  1  0
 26 28  2  0
 28 29  1  0
 12  3  1  0
 28 20  1  0
M  END
>  <cnnaffinity>  (1) 
-4.58437

>  <filename>  (1) 
O=C(c1cccnc1)[C@H](O)Oc1ccc(Cl)cc1O

$$$$
