
     RDKit          3D

 40 42  0  0  0  0  0  0  0  0999 V2000
    5.8535   -2.3964   21.2854 O   0  0  0  0  0  0  0  0  0  0  0  0
    6.8180   -1.7508   21.6575 C   0  0  0  0  0  0  0  0  0  0  0  0
    7.4140   -0.7947   20.8601 N   0  0  0  0  0  0  0  0  0  0  0  0
    6.7065   -0.0808   19.8277 C   0  0  0  0  0  0  0  0  0  0  0  0
    5.4970    0.5655   20.1063 C   0  0  0  0  0  0  0  0  0  0  0  0
    4.8680    1.2694   19.0717 C   0  0  0  0  0  0  0  0  0  0  0  0
    5.4688    1.3045   17.8105 C   0  0  0  0  0  0  0  0  0  0  0  0
    6.6350    0.6985   17.5309 N   0  0  0  0  0  0  0  0  0  0  0  0
    7.2372    0.0337   18.5267 C   0  0  0  0  0  0  0  0  0  0  0  0
    8.1914   -0.4417   18.3078 H   0  0  0  0  0  0  0  0  0  0  0  0
    4.9944    1.8280   16.9844 H   0  0  0  0  0  0  0  0  0  0  0  0
    3.9386    1.8016   19.2364 H   0  0  0  0  0  0  0  0  0  0  0  0
    5.0792    0.5287   21.1126 H   0  0  0  0  0  0  0  0  0  0  0  0
    8.1593   -0.2785   21.3282 H   0  0  0  0  0  0  0  0  0  0  0  0
    7.5296   -1.8967   23.1041 C   0  0  0  0  0  0  0  0  0  0  0  0
    8.4380   -1.1350   23.4202 O   0  0  0  0  0  0  0  0  0  0  0  0
    7.0585   -2.8479   23.9704 N   0  0  0  0  0  0  0  0  0  0  0  0
    7.4201   -2.7481   25.3991 C   0  0  0  0  0  0  0  0  0  0  0  0
    6.4893   -3.5390   26.2860 C   0  0  0  0  0  0  0  0  0  0  0  0
    5.5326   -4.3714   25.8493 C   0  0  0  0  0  0  0  0  0  0  0  0
    4.6898   -5.2042   26.7555 C   0  0  0  0  0  0  0  0  0  0  0  0
    3.3235   -5.4213   26.4796 C   0  0  0  0  0  0  0  0  0  0  0  0
    2.5261   -6.1876   27.3342 C   0  0  0  0  0  0  0  0  0  0  0  0
    3.0858   -6.7729   28.4747 C   0  0  0  0  0  0  0  0  0  0  0  0
    4.4440   -6.5869   28.7562 C   0  0  0  0  0  0  0  0  0  0  0  0
    5.2341   -5.8058   27.9087 C   0  0  0  0  0  0  0  0  0  0  0  0
    6.2918   -5.6747   28.1263 H   0  0  0  0  0  0  0  0  0  0  0  0
    4.8880   -7.0459   29.6367 H   0  0  0  0  0  0  0  0  0  0  0  0
    2.4693   -7.3727   29.1387 H   0  0  0  0  0  0  0  0  0  0  0  0
    1.4727   -6.3339   27.1058 H   0  0  0  0  0  0  0  0  0  0  0  0
    2.8852   -4.9875   25.5832 H   0  0  0  0  0  0  0  0  0  0  0  0
    5.2591   -4.4343   24.3541 C   0  0  0  0  0  0  0  0  0  0  0  0
    6.5161   -4.1416   23.5481 C   0  0  0  0  0  0  0  0  0  0  0  0
    7.2767   -4.9208   23.7152 H   0  0  0  0  0  0  0  0  0  0  0  0
    6.2739   -4.1130   22.4879 H   0  0  0  0  0  0  0  0  0  0  0  0
    4.8676   -5.4152   24.0710 H   0  0  0  0  0  0  0  0  0  0  0  0
    4.5072   -3.6742   24.0969 H   0  0  0  0  0  0  0  0  0  0  0  0
    6.6332   -3.4043   27.3547 H   0  0  0  0  0  0  0  0  0  0  0  0
    8.4526   -3.0969   25.5585 H   0  0  0  0  0  0  0  0  0  0  0  0
    7.4076   -1.6976   25.7209 H   0  0  0  0  0  0  0  0  0  0  0  0
  1  2  2  0
  2  3  1  0
  3  4  1  0
  4  5  2  0
  5  6  1  0
  6  7  2  0
  7  8  1  0
  8  9  2  0
  9 10  1  0
  7 11  1  0
  6 12  1  0
  5 13  1  0
  3 14  1  0
  2 15  1  0
 15 16  2  0
 15 17  1  0
 17 18  1  0
 18 19  1  0
 19 20  2  0
 20 21  1  0
 21 22  2  0
 22 23  1  0
 23 24  2  0
 24 25  1  0
 25 26  2  0
 26 27  1  0
 25 28  1  0
 24 29  1  0
 23 30  1  0
 22 31  1  0
 20 32  1  0
 32 33  1  0
 33 34  1  0
 33 35  1  0
 32 36  1  0
 32 37  1  0
 19 38  1  0
 18 39  1  0
 18 40  1  0
  9  4  1  0
 33 17  1  0
 26 21  1  0
M  END
>  <cnnaffinity>  (1) 
-5.09797

>  <filename>  (1) 
O=C(Nc1cccnc1)C(=O)N1CC=C(c2ccccc2)CC1

$$$$
