
     RDKit          3D

 27 28  0  0  0  0  0  0  0  0999 V2000
   11.2876   -4.2792   22.7972 H   0  0  0  0  0  0  0  0  0  0  0  0
   11.1340   -3.4609   23.3096 O   0  0  0  0  0  0  0  0  0  0  0  0
    9.8750   -3.6864   23.7066 C   0  0  0  0  0  0  0  0  0  0  0  0
    9.3298   -4.7313   23.4513 O   0  0  0  0  0  0  0  0  0  0  0  0
    9.2203   -2.4820   24.3136 C   0  0  0  0  0  0  0  0  0  0  0  0
    8.4346   -2.7859   25.0035 H   0  0  0  0  0  0  0  0  0  0  0  0
    9.9392   -1.8673   24.8514 H   0  0  0  0  0  0  0  0  0  0  0  0
    8.6614   -1.7758   23.1187 C   0  0  0  0  0  0  0  0  0  0  0  0
    9.2395   -0.7578   22.4723 C   0  0  0  0  0  0  0  0  0  0  0  0
   10.2298   -0.4002   22.6983 H   0  0  0  0  0  0  0  0  0  0  0  0
    8.6117   -0.1393   21.3249 C   0  0  0  0  0  0  0  0  0  0  0  0
    9.1161    0.7830   20.7199 O   0  0  0  0  0  0  0  0  0  0  0  0
    7.3624   -0.6754   20.9000 N   0  0  0  0  0  0  0  0  0  0  0  0
    6.6290   -0.0193   19.8261 C   0  0  0  0  0  0  0  0  0  0  0  0
    7.1425    0.0558   18.5125 C   0  0  0  0  0  0  0  0  0  0  0  0
    8.1030   -0.4055   18.2884 H   0  0  0  0  0  0  0  0  0  0  0  0
    6.5237    0.6906   17.5095 N   0  0  0  0  0  0  0  0  0  0  0  0
    5.3713    1.3187   17.7941 C   0  0  0  0  0  0  0  0  0  0  0  0
    4.9075    1.8542   16.9681 H   0  0  0  0  0  0  0  0  0  0  0  0
    4.7846    1.3119   19.0627 C   0  0  0  0  0  0  0  0  0  0  0  0
    3.8668    1.8622   19.2253 H   0  0  0  0  0  0  0  0  0  0  0  0
    5.4181    0.6181   20.1014 C   0  0  0  0  0  0  0  0  0  0  0  0
    5.0042    0.5908   21.1085 H   0  0  0  0  0  0  0  0  0  0  0  0
    6.8163   -1.7989   21.5171 C   0  0  0  0  0  0  0  0  0  0  0  0
    5.7899   -2.3364   21.1742 O   0  0  0  0  0  0  0  0  0  0  0  0
    7.5408   -2.3248   22.5633 N   0  0  0  0  0  0  0  0  0  0  0  0
    7.1556   -3.2063   22.8483 H   0  0  0  0  0  0  0  0  0  0  0  0
  1  2  1  0
  2  3  1  0
  3  4  2  0
  3  5  1  0
  5  6  1  0
  5  7  1  0
  5  8  1  0
  8  9  2  0
  9 10  1  0
  9 11  1  0
 11 12  2  0
 11 13  1  0
 13 14  1  0
 14 15  2  0
 15 16  1  0
 15 17  1  0
 17 18  2  0
 18 19  1  0
 18 20  1  0
 20 21  1  0
 20 22  2  0
 22 23  1  0
 13 24  1  0
 24 25  2  0
 24 26  1  0
 26 27  1  0
 26  8  1  0
 22 14  1  0
M  END
>  <cnnaffinity>  (1) 
-4.94669

>  <filename>  (1) 
O=C(O)Cc1cc(=O)n(-c2cccnc2)c(=O)[nH]1

$$$$
