
     RDKit          3D

 28 30  0  0  0  0  0  0  0  0999 V2000
    6.6447    0.7873   22.6636 O   0  0  0  0  0  0  0  0  0  0  0  0
    7.2856   -0.1996   22.3107 C   0  0  0  0  0  0  0  0  0  0  0  0
    7.3968   -0.5422   20.9628 N   0  0  0  0  0  0  0  0  0  0  0  0
    6.7310    0.0684   19.8788 C   0  0  0  0  0  0  0  0  0  0  0  0
    5.5465    0.7513   20.1277 C   0  0  0  0  0  0  0  0  0  0  0  0
    4.8885    1.3620   19.0610 C   0  0  0  0  0  0  0  0  0  0  0  0
    5.4274    1.2918   17.7709 C   0  0  0  0  0  0  0  0  0  0  0  0
    6.5510    0.6029   17.5004 N   0  0  0  0  0  0  0  0  0  0  0  0
    7.1808   -0.0015   18.5317 C   0  0  0  0  0  0  0  0  0  0  0  0
    8.0843   -0.5584   18.3026 H   0  0  0  0  0  0  0  0  0  0  0  0
    4.9190    1.8083   16.9632 H   0  0  0  0  0  0  0  0  0  0  0  0
    3.9664    1.9020   19.2277 H   0  0  0  0  0  0  0  0  0  0  0  0
    5.1529    0.7829   21.1415 H   0  0  0  0  0  0  0  0  0  0  0  0
    7.9545   -1.3715   20.7753 H   0  0  0  0  0  0  0  0  0  0  0  0
    7.9011   -1.1189   23.2906 C   0  0  0  0  0  0  0  0  0  0  0  0
    8.1469   -0.9742   24.6531 C   0  0  0  0  0  0  0  0  0  0  0  0
    8.7115   -2.2284   25.1031 C   0  0  0  0  0  0  0  0  0  0  0  0
    9.1192   -2.7786   26.3288 C   0  0  0  0  0  0  0  0  0  0  0  0
    9.5982   -4.1120   26.3502 C   0  0  0  0  0  0  0  0  0  0  0  0
   10.1197   -4.9608   27.9635 Br  0  0  0  0  0  0  0  0  0  0  0  0
    9.6770   -4.8718   25.1735 C   0  0  0  0  0  0  0  0  0  0  0  0
    9.2639   -4.3045   23.9723 C   0  0  0  0  0  0  0  0  0  0  0  0
    8.7886   -3.0008   23.9550 C   0  0  0  0  0  0  0  0  0  0  0  0
    8.3219   -2.3551   22.8543 O   0  0  0  0  0  0  0  0  0  0  0  0
    9.2902   -4.8771   23.0587 H   0  0  0  0  0  0  0  0  0  0  0  0
   10.0397   -5.9021   25.1954 H   0  0  0  0  0  0  0  0  0  0  0  0
    9.0468   -2.1758   27.2348 H   0  0  0  0  0  0  0  0  0  0  0  0
    7.9457   -0.1153   25.2939 H   0  0  0  0  0  0  0  0  0  0  0  0
  1  2  2  0
  2  3  1  0
  3  4  1  0
  4  5  2  0
  5  6  1  0
  6  7  2  0
  7  8  1  0
  8  9  2  0
  9 10  1  0
  7 11  1  0
  6 12  1  0
  5 13  1  0
  3 14  1  0
  2 15  1  0
 15 16  2  0
 16 17  1  0
 17 18  2  0
 18 19  1  0
 19 20  1  0
 19 21  2  0
 21 22  1  0
 22 23  2  0
 23 24  1  0
 22 25  1  0
 21 26  1  0
 18 27  1  0
 16 28  1  0
  9  4  1  0
 24 15  1  0
 23 17  1  0
M  END
>  <cnnaffinity>  (1) 
-4.75896

>  <filename>  (1) 
O=C(Nc1cccnc1)c1cc2cc(Br)ccc2o1

$$$$
