
     RDKit          3D

 32 34  0  0  0  0  0  0  0  0999 V2000
    4.7162    2.1068   16.7266 H   0  0  0  0  0  0  0  0  0  0  0  0
    4.9898    1.3935   17.4947 C   0  0  0  0  0  0  0  0  0  0  0  0
    5.7987    0.4005   17.0955 N   0  0  0  0  0  0  0  0  0  0  0  0
    6.1986   -0.4786   18.0176 C   0  0  0  0  0  0  0  0  0  0  0  0
    6.8706   -1.2756   17.6924 H   0  0  0  0  0  0  0  0  0  0  0  0
    5.8168   -0.3978   19.3679 C   0  0  0  0  0  0  0  0  0  0  0  0
    6.3823   -1.2791   20.3397 N   0  0  0  0  0  0  0  0  0  0  0  0
    5.6958   -2.2171   21.0308 N   0  0  0  0  0  0  0  0  0  0  0  0
    6.5168   -2.7188   21.8778 N   0  0  0  0  0  0  0  0  0  0  0  0
    7.7389   -2.1396   21.7878 N   0  0  0  0  0  0  0  0  0  0  0  0
    7.6371   -1.2379   20.8401 C   0  0  0  0  0  0  0  0  0  0  0  0
    8.6909   -0.3277   20.2827 C   0  0  0  0  0  0  0  0  0  0  0  0
    8.2366    0.6126   19.9375 H   0  0  0  0  0  0  0  0  0  0  0  0
    9.1402   -0.8224   19.4060 H   0  0  0  0  0  0  0  0  0  0  0  0
    9.6991   -0.0255   21.2671 N   0  0  0  0  0  0  0  0  0  0  0  0
    9.9970   -0.7784   21.8605 H   0  0  0  0  0  0  0  0  0  0  0  0
   10.1804    1.2114   21.5459 C   0  0  0  0  0  0  0  0  0  0  0  0
    9.7883    2.2164   20.9810 O   0  0  0  0  0  0  0  0  0  0  0  0
   11.2709    1.2076   22.6104 C   0  0  0  0  0  0  0  0  0  0  0  0
   11.3866    0.2314   23.6247 C   0  0  0  0  0  0  0  0  0  0  0  0
   10.6839   -0.5902   23.7516 H   0  0  0  0  0  0  0  0  0  0  0  0
   12.4257    0.3227   24.5501 C   0  0  0  0  0  0  0  0  0  0  0  0
   12.5170   -0.4255   25.3385 H   0  0  0  0  0  0  0  0  0  0  0  0
   13.3459    1.2906   24.5203 N   0  0  0  0  0  0  0  0  0  0  0  0
   13.2425    2.2195   23.5629 C   0  0  0  0  0  0  0  0  0  0  0  0
   13.9750    3.0208   23.5803 H   0  0  0  0  0  0  0  0  0  0  0  0
   12.2396    2.2233   22.5943 C   0  0  0  0  0  0  0  0  0  0  0  0
   12.2271    3.0042   21.8401 H   0  0  0  0  0  0  0  0  0  0  0  0
    4.9701    0.6367   19.7808 C   0  0  0  0  0  0  0  0  0  0  0  0
    4.6996    0.7254   20.8346 H   0  0  0  0  0  0  0  0  0  0  0  0
    4.5287    1.5382   18.8086 C   0  0  0  0  0  0  0  0  0  0  0  0
    3.8650    2.3599   19.0595 H   0  0  0  0  0  0  0  0  0  0  0  0
  1  2  1  0
  2  3  2  0
  3  4  1  0
  4  5  1  0
  4  6  2  0
  6  7  1  0
  7  8  1  0
  8  9  2  0
  9 10  1  0
 10 11  2  0
 11 12  1  0
 12 13  1  0
 12 14  1  0
 12 15  1  0
 15 16  1  0
 15 17  1  0
 17 18  2  0
 17 19  1  0
 19 20  2  0
 20 21  1  0
 20 22  1  0
 22 23  1  0
 22 24  2  0
 24 25  1  0
 25 26  1  0
 25 27  2  0
 27 28  1  0
  6 29  1  0
 29 30  1  0
 29 31  2  0
 31 32  1  0
 31  2  1  0
 11  7  1  0
 27 19  1  0
M  END
>  <cnnaffinity>  (1) 
-5.1037

>  <filename>  (1) 
O=C(NCc1nnnn1-c1cccnc1)c1ccncc1

$$$$
