
     RDKit          3D

 39 41  0  0  0  0  0  0  0  0999 V2000
    5.0220    1.8158   16.9505 H   0  0  0  0  0  0  0  0  0  0  0  0
    5.4473    1.3192   17.8191 C   0  0  0  0  0  0  0  0  0  0  0  0
    6.6168    0.6880   17.6213 N   0  0  0  0  0  0  0  0  0  0  0  0
    7.1675    0.0522   18.6594 C   0  0  0  0  0  0  0  0  0  0  0  0
    8.1306   -0.4284   18.4792 H   0  0  0  0  0  0  0  0  0  0  0  0
    6.5869    0.0136   19.9391 C   0  0  0  0  0  0  0  0  0  0  0  0
    7.2339   -0.7105   20.9865 N   0  0  0  0  0  0  0  0  0  0  0  0
    7.4255   -2.0816   20.9814 C   0  0  0  0  0  0  0  0  0  0  0  0
    6.9790   -2.6647   20.1921 H   0  0  0  0  0  0  0  0  0  0  0  0
    8.1784   -2.4301   22.0803 C   0  0  0  0  0  0  0  0  0  0  0  0
    8.4734   -3.4365   22.3691 H   0  0  0  0  0  0  0  0  0  0  0  0
    8.4834   -1.2252   22.7810 C   0  0  0  0  0  0  0  0  0  0  0  0
    9.0790   -1.0502   23.6663 H   0  0  0  0  0  0  0  0  0  0  0  0
    7.8793   -0.1984   22.0964 C   0  0  0  0  0  0  0  0  0  0  0  0
    7.7890    1.1610   22.3913 N   0  0  0  0  0  0  0  0  0  0  0  0
    7.1131    1.6935   21.8689 H   0  0  0  0  0  0  0  0  0  0  0  0
    8.3403    1.7725   23.4900 C   0  0  0  0  0  0  0  0  0  0  0  0
    9.2512    1.2775   24.1306 O   0  0  0  0  0  0  0  0  0  0  0  0
    7.7412    3.1539   23.7954 C   0  0  0  0  0  0  0  0  0  0  0  0
    6.7496    3.2120   23.3277 H   0  0  0  0  0  0  0  0  0  0  0  0
    7.5427    3.3456   25.3256 C   0  0  0  0  0  0  0  0  0  0  0  0
    7.1698    2.4251   25.7864 H   0  0  0  0  0  0  0  0  0  0  0  0
    6.7710    4.1086   25.5126 H   0  0  0  0  0  0  0  0  0  0  0  0
    8.8655    3.7778   25.9644 C   0  0  0  0  0  0  0  0  0  0  0  0
    8.7846    3.7669   27.0538 H   0  0  0  0  0  0  0  0  0  0  0  0
    9.6141    3.0215   25.7078 H   0  0  0  0  0  0  0  0  0  0  0  0
    9.3067    5.1681   25.4462 C   0  0  0  0  0  0  0  0  0  0  0  0
   10.4024    5.2070   25.4225 H   0  0  0  0  0  0  0  0  0  0  0  0
    8.9843    5.9392   26.1538 H   0  0  0  0  0  0  0  0  0  0  0  0
    8.7546    5.5117   24.0377 C   0  0  0  0  0  0  0  0  0  0  0  0
    7.7591    5.9698   24.1202 H   0  0  0  0  0  0  0  0  0  0  0  0
    9.3900    6.2689   23.5618 H   0  0  0  0  0  0  0  0  0  0  0  0
    8.6596    4.2541   23.1609 C   0  0  0  0  0  0  0  0  0  0  0  0
    8.2950    4.5038   22.1579 H   0  0  0  0  0  0  0  0  0  0  0  0
    9.6758    3.8584   23.0252 H   0  0  0  0  0  0  0  0  0  0  0  0
    5.3799    0.7018   20.1483 C   0  0  0  0  0  0  0  0  0  0  0  0
    4.9257    0.7207   21.1405 H   0  0  0  0  0  0  0  0  0  0  0  0
    4.7944    1.3503   19.0554 C   0  0  0  0  0  0  0  0  0  0  0  0
    3.8606    1.8921   19.1583 H   0  0  0  0  0  0  0  0  0  0  0  0
  1  2  1  0
  2  3  2  0
  3  4  1  0
  4  5  1  0
  4  6  2  0
  6  7  1  0
  7  8  1  0
  8  9  1  0
  8 10  2  0
 10 11  1  0
 10 12  1  0
 12 13  1  0
 12 14  2  0
 14 15  1  0
 15 16  1  0
 15 17  1  0
 17 18  2  0
 17 19  1  0
 19 20  1  0
 19 21  1  0
 21 22  1  0
 21 23  1  0
 21 24  1  0
 24 25  1  0
 24 26  1  0
 24 27  1  0
 27 28  1  0
 27 29  1  0
 27 30  1  0
 30 31  1  0
 30 32  1  0
 30 33  1  0
 33 34  1  0
 33 35  1  0
  6 36  1  0
 36 37  1  0
 36 38  2  0
 38 39  1  0
 38  2  1  0
 14  7  1  0
 33 19  1  0
M  END
>  <cnnaffinity>  (1) 
-5.15805

>  <filename>  (1) 
O=C(Nc1cccn1-c1cccnc1)C1CCCCC1

$$$$
