
     RDKit          3D

 18 18  0  0  0  0  0  0  0  0999 V2000
   10.9235    1.4640   21.0012 H   0  0  0  0  0  0  0  0  0  0  0  0
   10.6656    0.5680   21.2882 O   0  0  0  0  0  0  0  0  0  0  0  0
    9.3507    0.6905   21.0687 C   0  0  0  0  0  0  0  0  0  0  0  0
    8.9233    1.7391   20.6557 O   0  0  0  0  0  0  0  0  0  0  0  0
    8.6097   -0.5266   21.4178 C   0  0  0  0  0  0  0  0  0  0  0  0
    9.1385   -1.1681   22.1081 H   0  0  0  0  0  0  0  0  0  0  0  0
    7.3759   -0.7728   20.9691 C   0  0  0  0  0  0  0  0  0  0  0  0
    6.4628   -2.0759   21.6881 Cl  0  0  0  0  0  0  0  0  0  0  0  0
    6.6746   -0.0012   19.9166 C   0  0  0  0  0  0  0  0  0  0  0  0
    7.1929    0.0622   18.6114 C   0  0  0  0  0  0  0  0  0  0  0  0
    8.1342   -0.4280   18.3706 H   0  0  0  0  0  0  0  0  0  0  0  0
    6.5750    0.6731   17.5877 N   0  0  0  0  0  0  0  0  0  0  0  0
    5.4135    1.2881   17.8466 C   0  0  0  0  0  0  0  0  0  0  0  0
    4.9398    1.7895   17.0032 H   0  0  0  0  0  0  0  0  0  0  0  0
    4.8131    1.3060   19.1125 C   0  0  0  0  0  0  0  0  0  0  0  0
    3.8789    1.8375   19.2556 H   0  0  0  0  0  0  0  0  0  0  0  0
    5.4540    0.6478   20.1629 C   0  0  0  0  0  0  0  0  0  0  0  0
    5.0170    0.6231   21.1615 H   0  0  0  0  0  0  0  0  0  0  0  0
  1  2  1  0
  2  3  1  0
  3  4  2  0
  3  5  1  0
  5  6  1  0
  5  7  2  3
  7  8  1  0
  7  9  1  0
  9 10  2  0
 10 11  1  0
 10 12  1  0
 12 13  2  0
 13 14  1  0
 13 15  1  0
 15 16  1  0
 15 17  2  0
 17 18  1  0
 17  9  1  0
M  END
>  <cnnaffinity>  (1) 
-4.05137

>  <filename>  (1) 
O=C(O)C=C(Cl)c1cccnc1

$$$$
