
     RDKit          3D

 34 36  0  0  0  0  0  0  0  0999 V2000
    8.6141   -1.0034   20.8225 O   0  0  0  0  0  0  0  0  0  0  0  0
    7.4108   -0.8233   20.9664 C   0  0  0  0  0  0  0  0  0  0  0  0
    6.7283   -1.4196   21.9756 N   0  0  0  0  0  0  0  0  0  0  0  0
    7.3031   -2.1626   22.9714 C   0  0  0  0  0  0  0  0  0  0  0  0
    6.7064   -2.4582   24.0887 N   0  0  0  0  0  0  0  0  0  0  0  0
    7.6470   -3.2119   24.7365 C   0  0  0  0  0  0  0  0  0  0  0  0
    7.4450   -3.7955   26.0869 C   0  0  0  0  0  0  0  0  0  0  0  0
    6.2477   -3.5828   26.7994 C   0  0  0  0  0  0  0  0  0  0  0  0
    6.0686   -4.1633   28.0659 C   0  0  0  0  0  0  0  0  0  0  0  0
    4.8169   -3.8840   28.8800 C   0  0  0  0  0  0  0  0  0  0  0  0
    3.7286   -3.7437   28.1020 F   0  0  0  0  0  0  0  0  0  0  0  0
    4.5426   -4.8684   29.7573 F   0  0  0  0  0  0  0  0  0  0  0  0
    4.9247   -2.7504   29.5997 F   0  0  0  0  0  0  0  0  0  0  0  0
    7.0869   -4.9510   28.6237 C   0  0  0  0  0  0  0  0  0  0  0  0
    8.2788   -5.1436   27.9249 C   0  0  0  0  0  0  0  0  0  0  0  0
    8.4636   -4.5746   26.6689 C   0  0  0  0  0  0  0  0  0  0  0  0
    9.3957   -4.7290   26.1303 H   0  0  0  0  0  0  0  0  0  0  0  0
    9.0756   -5.7379   28.3574 H   0  0  0  0  0  0  0  0  0  0  0  0
    6.9573   -5.4133   29.5998 H   0  0  0  0  0  0  0  0  0  0  0  0
    5.4683   -2.9709   26.3447 H   0  0  0  0  0  0  0  0  0  0  0  0
    8.7729   -3.3835   24.0547 N   0  0  0  0  0  0  0  0  0  0  0  0
    8.5195   -2.7016   22.9081 N   0  0  0  0  0  0  0  0  0  0  0  0
    9.1811   -2.3946   22.2093 H   0  0  0  0  0  0  0  0  0  0  0  0
    5.7604   -1.2205   22.1255 H   0  0  0  0  0  0  0  0  0  0  0  0
    6.6074   -0.0345   20.0092 C   0  0  0  0  0  0  0  0  0  0  0  0
    5.3882    0.6333   20.2299 C   0  0  0  0  0  0  0  0  0  0  0  0
    4.7996    1.2785   19.1425 C   0  0  0  0  0  0  0  0  0  0  0  0
    5.4410    1.2378   17.8995 C   0  0  0  0  0  0  0  0  0  0  0  0
    6.6021    0.6055   17.6840 N   0  0  0  0  0  0  0  0  0  0  0  0
    7.1745    0.0114   18.7291 C   0  0  0  0  0  0  0  0  0  0  0  0
    8.1383   -0.4633   18.5494 H   0  0  0  0  0  0  0  0  0  0  0  0
    5.0202    1.7578   17.0433 H   0  0  0  0  0  0  0  0  0  0  0  0
    3.8757    1.8368   19.2460 H   0  0  0  0  0  0  0  0  0  0  0  0
    4.8995    0.7060   21.2054 H   0  0  0  0  0  0  0  0  0  0  0  0
  1  2  2  0
  2  3  1  0
  3  4  1  0
  4  5  2  0
  5  6  1  0
  6  7  1  0
  7  8  2  0
  8  9  1  0
  9 10  1  0
 10 11  1  0
 10 12  1  0
 10 13  1  0
  9 14  2  0
 14 15  1  0
 15 16  2  0
 16 17  1  0
 15 18  1  0
 14 19  1  0
  8 20  1  0
  6 21  2  0
 21 22  1  0
 22 23  1  0
  3 24  1  0
  2 25  1  0
 25 26  2  0
 26 27  1  0
 27 28  2  0
 28 29  1  0
 29 30  2  0
 30 31  1  0
 28 32  1  0
 27 33  1  0
 26 34  1  0
 22  4  1  0
 30 25  1  0
 16  7  1  0
M  END
>  <cnnaffinity>  (1) 
-5.09037

>  <filename>  (1) 
O=C(Nc1nc(-c2cccc(C(F)(F)F)c2)n[nH]1)c1cccnc1

$$$$
