
     RDKit          3D

 28 28  0  0  0  0  0  0  0  0999 V2000
    8.1981    4.1549   27.9702 H   0  0  0  0  0  0  0  0  0  0  0  0
    7.6989    3.3190   28.0327 O   0  0  0  0  0  0  0  0  0  0  0  0
    8.1206    2.7505   26.9019 C   0  0  0  0  0  0  0  0  0  0  0  0
    8.9004    3.3426   26.1929 O   0  0  0  0  0  0  0  0  0  0  0  0
    7.5080    1.3081   26.5984 C   0  0  0  0  0  0  0  0  0  0  0  0
    6.7192    0.7874   27.3849 O   0  0  0  0  0  0  0  0  0  0  0  0
    7.9022    0.6725   25.3547 C   0  0  0  0  0  0  0  0  0  0  0  0
    8.5578    1.2471   24.7115 H   0  0  0  0  0  0  0  0  0  0  0  0
    7.4567   -0.5881   25.0234 C   0  0  0  0  0  0  0  0  0  0  0  0
    6.6560   -1.2470   25.8294 O   0  0  0  0  0  0  0  0  0  0  0  0
    6.4654   -0.6463   26.6240 H   0  0  0  0  0  0  0  0  0  0  0  0
    7.9381   -1.3994   23.3932 S   0  0  0  0  0  0  0  0  0  0  0  0
    9.3161   -1.0091   23.1531 O   0  0  0  0  0  0  0  0  0  0  0  0
    7.4614   -2.7550   23.2965 O   0  0  0  0  0  0  0  0  0  0  0  0
    7.0025   -0.5209   22.3149 N   0  0  0  0  0  0  0  0  0  0  0  0
    7.1074    0.4678   22.4833 H   0  0  0  0  0  0  0  0  0  0  0  0
    7.3657   -0.8110   20.9970 C   0  0  0  0  0  0  0  0  0  0  0  0
    8.2117   -1.6107   20.6827 O   0  0  0  0  0  0  0  0  0  0  0  0
    6.6253   -0.0133   20.0089 C   0  0  0  0  0  0  0  0  0  0  0  0
    7.1876   -0.0048   18.7252 C   0  0  0  0  0  0  0  0  0  0  0  0
    8.1227   -0.5341   18.5451 H   0  0  0  0  0  0  0  0  0  0  0  0
    6.6456    0.6259   17.6839 N   0  0  0  0  0  0  0  0  0  0  0  0
    5.4903    1.2740   17.8983 C   0  0  0  0  0  0  0  0  0  0  0  0
    5.0626    1.7767   17.0340 H   0  0  0  0  0  0  0  0  0  0  0  0
    4.8347    1.3147   19.1368 C   0  0  0  0  0  0  0  0  0  0  0  0
    3.8980    1.8595   19.2300 H   0  0  0  0  0  0  0  0  0  0  0  0
    5.4128    0.6629   20.2250 C   0  0  0  0  0  0  0  0  0  0  0  0
    4.9252    0.6698   21.2037 H   0  0  0  0  0  0  0  0  0  0  0  0
  1  2  1  0
  2  3  1  0
  3  4  2  0
  3  5  1  0
  5  6  2  0
  5  7  1  0
  7  8  1  0
  7  9  2  3
  9 10  1  0
 10 11  1  0
  9 12  1  0
 12 13  2  0
 12 14  2  0
 12 15  1  0
 15 16  1  0
 15 17  1  0
 17 18  2  0
 17 19  1  0
 19 20  2  0
 20 21  1  0
 20 22  1  0
 22 23  2  0
 23 24  1  0
 23 25  1  0
 25 26  1  0
 25 27  2  0
 27 28  1  0
 27 19  1  0
M  END
>  <cnnaffinity>  (1) 
-4.22466

>  <filename>  (1) 
O=C(O)C(=O)C=C(O)S(=O)(=O)NC(=O)c1cccnc1

$$$$
