
     RDKit          3D

 21 22  0  0  0  0  0  0  0  0999 V2000
    9.9052    2.4319   22.6032 H   0  0  0  0  0  0  0  0  0  0  0  0
    9.7367    1.4907   22.7860 O   0  0  0  0  0  0  0  0  0  0  0  0
    8.8207    1.2258   21.8462 C   0  0  0  0  0  0  0  0  0  0  0  0
    8.4726    2.0973   21.0813 O   0  0  0  0  0  0  0  0  0  0  0  0
    8.3200   -0.1973   21.8454 C   0  0  0  0  0  0  0  0  0  0  0  0
    8.7236   -1.1422   22.6517 N   0  0  0  0  0  0  0  0  0  0  0  0
    8.0145   -2.2169   22.2699 N   0  0  0  0  0  0  0  0  0  0  0  0
    8.1059   -3.1107   22.7303 H   0  0  0  0  0  0  0  0  0  0  0  0
    7.1549   -2.0159   21.2489 C   0  0  0  0  0  0  0  0  0  0  0  0
    6.1418   -3.1410   20.5730 S   0  0  0  0  0  0  0  0  0  0  0  0
    7.3687   -0.6775   20.9529 N   0  0  0  0  0  0  0  0  0  0  0  0
    6.6860    0.0385   19.9107 C   0  0  0  0  0  0  0  0  0  0  0  0
    7.1929    0.0724   18.6013 C   0  0  0  0  0  0  0  0  0  0  0  0
    8.1315   -0.4326   18.3774 H   0  0  0  0  0  0  0  0  0  0  0  0
    6.5671    0.6759   17.5828 N   0  0  0  0  0  0  0  0  0  0  0  0
    5.4043    1.2916   17.8452 C   0  0  0  0  0  0  0  0  0  0  0  0
    4.9257    1.7855   17.0001 H   0  0  0  0  0  0  0  0  0  0  0  0
    4.8166    1.3070   19.1139 C   0  0  0  0  0  0  0  0  0  0  0  0
    3.8814    1.8332   19.2612 H   0  0  0  0  0  0  0  0  0  0  0  0
    5.4633    0.6561   20.1723 C   0  0  0  0  0  0  0  0  0  0  0  0
    5.0384    0.6117   21.1758 H   0  0  0  0  0  0  0  0  0  0  0  0
  1  2  1  0
  2  3  1  0
  3  4  2  0
  3  5  1  0
  5  6  2  0
  6  7  1  0
  7  8  1  0
  7  9  1  0
  9 10  2  0
  9 11  1  0
 11 12  1  0
 12 13  2  0
 13 14  1  0
 13 15  1  0
 15 16  2  0
 16 17  1  0
 16 18  1  0
 18 19  1  0
 18 20  2  0
 20 21  1  0
 11  5  1  0
 20 12  1  0
M  END
>  <cnnaffinity>  (1) 
-4.3669

>  <filename>  (1) 
O=C(O)c1n[nH]c(=S)n1-c1cccnc1

$$$$
