
     RDKit          3D

 31 32  0  0  0  0  0  0  0  0999 V2000
    4.9735    1.7767   17.0024 H   0  0  0  0  0  0  0  0  0  0  0  0
    5.4103    1.2716   17.8618 C   0  0  0  0  0  0  0  0  0  0  0  0
    6.5701    0.6409   17.6316 N   0  0  0  0  0  0  0  0  0  0  0  0
    7.1540    0.0262   18.6630 C   0  0  0  0  0  0  0  0  0  0  0  0
    8.1191   -0.4369   18.4645 H   0  0  0  0  0  0  0  0  0  0  0  0
    6.6057   -0.0244   19.9466 C   0  0  0  0  0  0  0  0  0  0  0  0
    7.4330   -0.7226   20.9677 C   0  0  0  0  0  0  0  0  0  0  0  0
    8.6477   -0.8164   20.8587 O   0  0  0  0  0  0  0  0  0  0  0  0
    6.7308   -1.2502   21.9971 N   0  0  0  0  0  0  0  0  0  0  0  0
    5.7318   -1.2547   21.8921 H   0  0  0  0  0  0  0  0  0  0  0  0
    7.3602   -1.9314   23.1162 C   0  0  0  0  0  0  0  0  0  0  0  0
    8.1999   -1.3146   23.4680 H   0  0  0  0  0  0  0  0  0  0  0  0
    6.6350   -2.0163   23.9343 H   0  0  0  0  0  0  0  0  0  0  0  0
    7.8995   -3.3261   22.7367 C   0  0  0  0  0  0  0  0  0  0  0  0
    7.0770   -3.9545   22.3759 H   0  0  0  0  0  0  0  0  0  0  0  0
    8.5988   -3.1932   21.9007 H   0  0  0  0  0  0  0  0  0  0  0  0
    8.5947   -4.0023   23.8989 C   0  0  0  0  0  0  0  0  0  0  0  0
    9.9776   -3.8326   24.0773 C   0  0  0  0  0  0  0  0  0  0  0  0
   10.5275   -3.2328   23.3530 H   0  0  0  0  0  0  0  0  0  0  0  0
   10.6524   -4.4221   25.1463 C   0  0  0  0  0  0  0  0  0  0  0  0
   11.7262   -4.3347   25.1970 H   0  0  0  0  0  0  0  0  0  0  0  0
    9.9520   -5.1584   26.1048 C   0  0  0  0  0  0  0  0  0  0  0  0
   10.4808   -5.6011   26.9470 H   0  0  0  0  0  0  0  0  0  0  0  0
    8.5708   -5.3301   25.9678 C   0  0  0  0  0  0  0  0  0  0  0  0
    7.9979   -5.9115   26.6854 H   0  0  0  0  0  0  0  0  0  0  0  0
    7.9104   -4.7539   24.8752 C   0  0  0  0  0  0  0  0  0  0  0  0
    6.1810   -4.9880   24.7541 Cl  0  0  0  0  0  0  0  0  0  0  0  0
    5.3882    0.6371   20.1804 C   0  0  0  0  0  0  0  0  0  0  0  0
    4.9322    0.6959   21.1728 H   0  0  0  0  0  0  0  0  0  0  0  0
    4.7843    1.3009   19.1140 C   0  0  0  0  0  0  0  0  0  0  0  0
    3.8607    1.8592   19.2324 H   0  0  0  0  0  0  0  0  0  0  0  0
  1  2  1  0
  2  3  2  0
  3  4  1  0
  4  5  1  0
  4  6  2  0
  6  7  1  0
  7  8  2  0
  7  9  1  0
  9 10  1  0
  9 11  1  0
 11 12  1  0
 11 13  1  0
 11 14  1  0
 14 15  1  0
 14 16  1  0
 14 17  1  0
 17 18  2  0
 18 19  1  0
 18 20  1  0
 20 21  1  0
 20 22  2  0
 22 23  1  0
 22 24  1  0
 24 25  1  0
 24 26  2  0
 26 27  1  0
  6 28  1  0
 28 29  1  0
 28 30  2  0
 30 31  1  0
 30  2  1  0
 26 17  1  0
M  END
>  <cnnaffinity>  (1) 
-4.67766

>  <filename>  (1) 
O=C(NCCc1ccccc1Cl)c1cccnc1

$$$$
