
     RDKit          3D

 33 36  0  0  0  0  0  0  0  0999 V2000
    4.2989    5.2421   29.0171 H   0  0  0  0  0  0  0  0  0  0  0  0
    4.4144    4.8501   28.1346 O   0  0  0  0  0  0  0  0  0  0  0  0
    5.2718    3.8864   28.5170 C   0  0  0  0  0  0  0  0  0  0  0  0
    5.5686    3.8502   29.6921 O   0  0  0  0  0  0  0  0  0  0  0  0
    5.7472    2.9863   27.4338 C   0  0  0  0  0  0  0  0  0  0  0  0
    5.3115    3.1632   26.1029 C   0  0  0  0  0  0  0  0  0  0  0  0
    4.6199    3.9660   25.8607 H   0  0  0  0  0  0  0  0  0  0  0  0
    5.7622    2.3191   25.0981 C   0  0  0  0  0  0  0  0  0  0  0  0
    5.4259    2.4640   24.0754 H   0  0  0  0  0  0  0  0  0  0  0  0
    6.6596    1.2716   25.3949 C   0  0  0  0  0  0  0  0  0  0  0  0
    7.1236    0.3781   24.3181 C   0  0  0  0  0  0  0  0  0  0  0  0
    6.7450    0.5269   23.0862 N   0  0  0  0  0  0  0  0  0  0  0  0
    7.3270   -0.4268   22.3259 N   0  0  0  0  0  0  0  0  0  0  0  0
    7.4098   -0.6775   20.9609 C   0  0  0  0  0  0  0  0  0  0  0  0
    6.6624    0.0247   19.9089 C   0  0  0  0  0  0  0  0  0  0  0  0
    7.1567    0.0743   18.5865 C   0  0  0  0  0  0  0  0  0  0  0  0
    8.1077   -0.3985   18.3412 H   0  0  0  0  0  0  0  0  0  0  0  0
    6.5449    0.6847   17.5684 N   0  0  0  0  0  0  0  0  0  0  0  0
    5.3801    1.3029   17.8237 C   0  0  0  0  0  0  0  0  0  0  0  0
    4.9106    1.8065   16.9773 H   0  0  0  0  0  0  0  0  0  0  0  0
    4.7900    1.3155   19.0908 C   0  0  0  0  0  0  0  0  0  0  0  0
    3.8574    1.8500   19.2347 H   0  0  0  0  0  0  0  0  0  0  0  0
    5.4333    0.6656   20.1467 C   0  0  0  0  0  0  0  0  0  0  0  0
    5.0156    0.6526   21.1495 H   0  0  0  0  0  0  0  0  0  0  0  0
    8.3226   -1.7052   20.8939 C   0  0  0  0  0  0  0  0  0  0  0  0
    8.7177   -2.1272   19.9935 H   0  0  0  0  0  0  0  0  0  0  0  0
    8.7797   -2.1164   22.1158 N   0  0  0  0  0  0  0  0  0  0  0  0
    8.1686   -1.3066   22.9391 C   0  0  0  0  0  0  0  0  0  0  0  0
    8.2455   -0.9607   24.6292 S   0  0  0  0  0  0  0  0  0  0  0  0
    7.0961    1.0990   26.7250 C   0  0  0  0  0  0  0  0  0  0  0  0
    7.7906    0.3037   26.9803 H   0  0  0  0  0  0  0  0  0  0  0  0
    6.6461    1.9436   27.7342 C   0  0  0  0  0  0  0  0  0  0  0  0
    6.9932    1.7922   28.7556 H   0  0  0  0  0  0  0  0  0  0  0  0
  1  2  1  0
  2  3  1  0
  3  4  2  0
  3  5  1  0
  5  6  2  0
  6  7  1  0
  6  8  1  0
  8  9  1  0
  8 10  2  0
 10 11  1  0
 11 12  2  0
 12 13  1  0
 13 14  1  0
 14 15  1  0
 15 16  2  0
 16 17  1  0
 16 18  1  0
 18 19  2  0
 19 20  1  0
 19 21  1  0
 21 22  1  0
 21 23  2  0
 23 24  1  0
 14 25  2  0
 25 26  1  0
 25 27  1  0
 27 28  2  0
 28 29  1  0
 10 30  1  0
 30 31  1  0
 30 32  2  0
 32 33  1  0
 32  5  1  0
 29 11  1  0
 28 13  1  0
 23 15  1  0
M  END
>  <cnnaffinity>  (1) 
-5.05483

>  <filename>  (1) 
O=C(O)c1ccc(-c2nn3c(-c4cccnc4)cnc3s2)cc1

$$$$
