
     RDKit          3D

 32 34  0  0  0  0  0  0  0  0999 V2000
    6.2154    6.7667   26.6898 H   0  0  0  0  0  0  0  0  0  0  0  0
    6.4804    5.9586   27.1675 O   0  0  0  0  0  0  0  0  0  0  0  0
    6.8859    5.2570   26.1053 C   0  0  0  0  0  0  0  0  0  0  0  0
    6.7630    5.7539   25.0049 O   0  0  0  0  0  0  0  0  0  0  0  0
    7.4839    3.8509   26.3662 C   0  0  0  0  0  0  0  0  0  0  0  0
    7.7325    3.4608   27.6082 O   0  0  0  0  0  0  0  0  0  0  0  0
    8.0725    2.5204   27.5290 H   0  0  0  0  0  0  0  0  0  0  0  0
    7.7226    3.0235   25.3178 C   0  0  0  0  0  0  0  0  0  0  0  0
    7.6382    3.4318   24.3201 H   0  0  0  0  0  0  0  0  0  0  0  0
    8.0788    1.6143   25.4728 C   0  0  0  0  0  0  0  0  0  0  0  0
    8.4035    1.1734   26.5804 O   0  0  0  0  0  0  0  0  0  0  0  0
    7.9978    0.7633   24.2261 C   0  0  0  0  0  0  0  0  0  0  0  0
    8.6881   -0.3826   24.1217 N   0  0  0  0  0  0  0  0  0  0  0  0
    8.4314   -0.7632   22.8659 N   0  0  0  0  0  0  0  0  0  0  0  0
    8.9028   -1.7829   22.0613 C   0  0  0  0  0  0  0  0  0  0  0  0
    9.5373   -2.5345   22.4960 H   0  0  0  0  0  0  0  0  0  0  0  0
    8.3612   -1.5522   20.8397 C   0  0  0  0  0  0  0  0  0  0  0  0
    8.5902   -2.0024   19.9021 H   0  0  0  0  0  0  0  0  0  0  0  0
    7.5119   -0.4486   20.8940 N   0  0  0  0  0  0  0  0  0  0  0  0
    6.7166    0.0646   19.8432 C   0  0  0  0  0  0  0  0  0  0  0  0
    7.1934    0.0525   18.5171 C   0  0  0  0  0  0  0  0  0  0  0  0
    8.1278   -0.4518   18.2767 H   0  0  0  0  0  0  0  0  0  0  0  0
    6.5710    0.6561   17.4991 N   0  0  0  0  0  0  0  0  0  0  0  0
    5.4059    1.2721   17.7570 C   0  0  0  0  0  0  0  0  0  0  0  0
    4.9327    1.7782   16.9173 H   0  0  0  0  0  0  0  0  0  0  0  0
    4.8090    1.2752   19.0246 C   0  0  0  0  0  0  0  0  0  0  0  0
    3.8576    1.7768   19.1666 H   0  0  0  0  0  0  0  0  0  0  0  0
    5.4634    0.6489   20.0906 C   0  0  0  0  0  0  0  0  0  0  0  0
    5.0237    0.6147   21.0906 H   0  0  0  0  0  0  0  0  0  0  0  0
    7.6107    0.0572   22.1801 C   0  0  0  0  0  0  0  0  0  0  0  0
    7.2672    1.0797   23.0396 C   0  0  0  0  0  0  0  0  0  0  0  0
    6.5869    1.8929   22.8672 H   0  0  0  0  0  0  0  0  0  0  0  0
  1  2  1  0
  2  3  1  0
  3  4  2  0
  3  5  1  0
  5  6  1  0
  6  7  1  0
  5  8  2  3
  8  9  1  0
  8 10  1  0
 10 11  2  0
 10 12  1  0
 12 13  2  0
 13 14  1  0
 14 15  1  0
 15 16  1  0
 15 17  2  0
 17 18  1  0
 17 19  1  0
 19 20  1  0
 20 21  2  0
 21 22  1  0
 21 23  1  0
 23 24  2  0
 24 25  1  0
 24 26  1  0
 26 27  1  0
 26 28  2  0
 28 29  1  0
 19 30  1  0
 30 31  2  0
 31 32  1  0
 31 12  1  0
 30 14  1  0
 28 20  1  0
M  END
>  <cnnaffinity>  (1) 
-4.8587

>  <filename>  (1) 
O=C(O)C(O)=CC(=O)c1cc2n(-c3cccnc3)ccn2n1

$$$$
