
     RDKit          3D

 31 33  0  0  0  0  0  0  0  0999 V2000
    6.5341   -5.5543   20.4552 H   0  0  0  0  0  0  0  0  0  0  0  0
    6.7706   -4.8253   21.0584 O   0  0  0  0  0  0  0  0  0  0  0  0
    6.1204   -3.8540   20.3976 C   0  0  0  0  0  0  0  0  0  0  0  0
    5.5388   -4.1625   19.3845 O   0  0  0  0  0  0  0  0  0  0  0  0
    6.1026   -2.4915   21.0696 C   0  0  0  0  0  0  0  0  0  0  0  0
    5.5801   -2.6511   22.0209 H   0  0  0  0  0  0  0  0  0  0  0  0
    5.4707   -1.8627   20.4414 H   0  0  0  0  0  0  0  0  0  0  0  0
    7.4276   -1.8102   21.3323 C   0  0  0  0  0  0  0  0  0  0  0  0
    8.0396   -0.7318   20.6258 C   0  0  0  0  0  0  0  0  0  0  0  0
    7.3353    0.1325   19.6815 C   0  0  0  0  0  0  0  0  0  0  0  0
    7.8119    0.2883   18.3718 C   0  0  0  0  0  0  0  0  0  0  0  0
    8.7751   -0.1368   18.0926 H   0  0  0  0  0  0  0  0  0  0  0  0
    7.1234    0.9135   17.4110 N   0  0  0  0  0  0  0  0  0  0  0  0
    5.9373    1.4541   17.7285 C   0  0  0  0  0  0  0  0  0  0  0  0
    5.3875    1.9272   16.9144 H   0  0  0  0  0  0  0  0  0  0  0  0
    5.4129    1.4250   19.0249 C   0  0  0  0  0  0  0  0  0  0  0  0
    4.4727    1.9189   19.2310 H   0  0  0  0  0  0  0  0  0  0  0  0
    6.1224    0.7554   20.0189 C   0  0  0  0  0  0  0  0  0  0  0  0
    5.7345    0.7028   21.0379 H   0  0  0  0  0  0  0  0  0  0  0  0
    9.3253   -0.5777   20.9331 N   0  0  0  0  0  0  0  0  0  0  0  0
    9.5042   -1.4700   21.9104 N   0  0  0  0  0  0  0  0  0  0  0  0
    8.4100   -2.1890   22.2197 C   0  0  0  0  0  0  0  0  0  0  0  0
    8.6829   -3.0409   23.4155 C   0  0  0  0  0  0  0  0  0  0  0  0
    7.8594   -3.0311   24.1345 H   0  0  0  0  0  0  0  0  0  0  0  0
    8.8355   -4.0813   23.1121 H   0  0  0  0  0  0  0  0  0  0  0  0
    9.9733   -2.3912   23.9736 C   0  0  0  0  0  0  0  0  0  0  0  0
    9.6907   -1.6045   24.6800 H   0  0  0  0  0  0  0  0  0  0  0  0
   10.6206   -3.1015   24.4916 H   0  0  0  0  0  0  0  0  0  0  0  0
   10.6530   -1.7279   22.7516 C   0  0  0  0  0  0  0  0  0  0  0  0
   11.3463   -2.4158   22.2552 H   0  0  0  0  0  0  0  0  0  0  0  0
   11.1897   -0.8037   22.9778 H   0  0  0  0  0  0  0  0  0  0  0  0
  1  2  1  0
  2  3  1  0
  3  4  2  0
  3  5  1  0
  5  6  1  0
  5  7  1  0
  5  8  1  0
  8  9  1  0
  9 10  1  0
 10 11  2  0
 11 12  1  0
 11 13  1  0
 13 14  2  0
 14 15  1  0
 14 16  1  0
 16 17  1  0
 16 18  2  0
 18 19  1  0
  9 20  2  0
 20 21  1  0
 21 22  1  0
 22 23  1  0
 23 24  1  0
 23 25  1  0
 23 26  1  0
 26 27  1  0
 26 28  1  0
 26 29  1  0
 29 30  1  0
 29 31  1  0
 22  8  2  0
 18 10  1  0
 29 21  1  0
M  END
>  <cnnaffinity>  (1) 
-5.17622

>  <filename>  (1) 
O=C(O)Cc1c(-c2cccnc2)nn2c1CCC2

$$$$
