
     RDKit          3D

 40 41  0  0  0  0  0  0  0  0999 V2000
    8.1973   -2.6179   22.8959 O   0  0  0  0  0  0  0  0  0  0  0  0
    7.3674   -2.9926   22.0868 C   0  0  0  0  0  0  0  0  0  0  0  0
    6.7958   -4.4062   22.1210 C   0  0  0  0  0  0  0  0  0  0  0  0
    5.7454   -4.5962   23.2506 C   0  0  0  0  0  0  0  0  0  0  0  0
    4.4044   -3.9169   22.9159 C   0  0  0  0  0  0  0  0  0  0  0  0
    3.3240   -3.8801   23.9885 C   0  0  0  0  0  0  0  0  0  0  0  0
    3.2366   -2.8869   24.9819 C   0  0  0  0  0  0  0  0  0  0  0  0
    2.1488   -2.8620   25.8816 C   0  0  0  0  0  0  0  0  0  0  0  0
    2.0226   -1.7744   26.9385 C   0  0  0  0  0  0  0  0  0  0  0  0
    1.3087   -0.7251   26.4799 F   0  0  0  0  0  0  0  0  0  0  0  0
    3.2144   -1.2948   27.3375 F   0  0  0  0  0  0  0  0  0  0  0  0
    1.3885   -2.2087   28.0472 F   0  0  0  0  0  0  0  0  0  0  0  0
    1.1161   -3.8097   25.7568 C   0  0  0  0  0  0  0  0  0  0  0  0
    1.1694   -4.7636   24.7412 C   0  0  0  0  0  0  0  0  0  0  0  0
    2.2620   -4.7916   23.8721 C   0  0  0  0  0  0  0  0  0  0  0  0
    2.2771   -5.5128   23.0591 H   0  0  0  0  0  0  0  0  0  0  0  0
    0.3617   -5.4822   24.6186 H   0  0  0  0  0  0  0  0  0  0  0  0
    0.2813   -3.8226   26.4571 H   0  0  0  0  0  0  0  0  0  0  0  0
    4.0021   -2.1110   25.0546 H   0  0  0  0  0  0  0  0  0  0  0  0
    3.9937   -4.4338   22.0383 H   0  0  0  0  0  0  0  0  0  0  0  0
    4.5989   -2.9040   22.5563 H   0  0  0  0  0  0  0  0  0  0  0  0
    6.1570   -4.2051   24.1923 H   0  0  0  0  0  0  0  0  0  0  0  0
    5.5863   -5.6739   23.4008 H   0  0  0  0  0  0  0  0  0  0  0  0
    7.6556   -5.0620   22.3037 H   0  0  0  0  0  0  0  0  0  0  0  0
    6.3890   -4.6866   21.1372 H   0  0  0  0  0  0  0  0  0  0  0  0
    6.8840   -2.1690   21.1163 N   0  0  0  0  0  0  0  0  0  0  0  0
    7.3629   -0.8000   21.0040 C   0  0  0  0  0  0  0  0  0  0  0  0
    6.6275   -0.0624   19.9170 C   0  0  0  0  0  0  0  0  0  0  0  0
    5.4269    0.6193   20.1484 C   0  0  0  0  0  0  0  0  0  0  0  0
    4.8153    1.2904   19.0878 C   0  0  0  0  0  0  0  0  0  0  0  0
    5.4251    1.2632   17.8298 C   0  0  0  0  0  0  0  0  0  0  0  0
    6.5695    0.6113   17.5830 N   0  0  0  0  0  0  0  0  0  0  0  0
    7.1443   -0.0279   18.6115 C   0  0  0  0  0  0  0  0  0  0  0  0
    8.0889   -0.5217   18.3854 H   0  0  0  0  0  0  0  0  0  0  0  0
    4.9823    1.7978   16.9900 H   0  0  0  0  0  0  0  0  0  0  0  0
    3.8921    1.8395   19.2210 H   0  0  0  0  0  0  0  0  0  0  0  0
    4.9836    0.6370   21.1473 H   0  0  0  0  0  0  0  0  0  0  0  0
    8.4442   -0.8158   20.8080 H   0  0  0  0  0  0  0  0  0  0  0  0
    7.2340   -0.3060   21.9765 H   0  0  0  0  0  0  0  0  0  0  0  0
    6.2260   -2.5194   20.4423 H   0  0  0  0  0  0  0  0  0  0  0  0
  1  2  2  0
  2  3  1  0
  3  4  1  0
  4  5  1  0
  5  6  1  0
  6  7  2  0
  7  8  1  0
  8  9  1  0
  9 10  1  0
  9 11  1  0
  9 12  1  0
  8 13  2  0
 13 14  1  0
 14 15  2  0
 15 16  1  0
 14 17  1  0
 13 18  1  0
  7 19  1  0
  5 20  1  0
  5 21  1  0
  4 22  1  0
  4 23  1  0
  3 24  1  0
  3 25  1  0
  2 26  1  0
 26 27  1  0
 27 28  1  0
 28 29  2  0
 29 30  1  0
 30 31  2  0
 31 32  1  0
 32 33  2  0
 33 34  1  0
 31 35  1  0
 30 36  1  0
 29 37  1  0
 27 38  1  0
 27 39  1  0
 26 40  1  0
 15  6  1  0
 33 28  1  0
M  END
>  <cnnaffinity>  (1) 
-4.56746

>  <filename>  (1) 
O=C(CCCc1cccc(C(F)(F)F)c1)NCc1cccnc1

$$$$
