
     RDKit          3D

 29 30  0  0  0  0  0  0  0  0999 V2000
    4.9379    1.7794   16.9806 H   0  0  0  0  0  0  0  0  0  0  0  0
    5.4247    1.2691   17.8103 C   0  0  0  0  0  0  0  0  0  0  0  0
    6.5717    0.6379   17.5176 N   0  0  0  0  0  0  0  0  0  0  0  0
    7.2016    0.0252   18.5206 C   0  0  0  0  0  0  0  0  0  0  0  0
    8.1332   -0.4850   18.2862 H   0  0  0  0  0  0  0  0  0  0  0  0
    6.7505    0.0107   19.8468 C   0  0  0  0  0  0  0  0  0  0  0  0
    7.6789   -0.6371   20.8277 C   0  0  0  0  0  0  0  0  0  0  0  0
    8.7598   -1.0564   20.4643 O   0  0  0  0  0  0  0  0  0  0  0  0
    7.2379   -0.8137   22.2628 C   0  0  0  0  0  0  0  0  0  0  0  0
    8.1426   -0.9427   22.8666 H   0  0  0  0  0  0  0  0  0  0  0  0
    6.7318    0.1087   22.5853 H   0  0  0  0  0  0  0  0  0  0  0  0
    6.2708   -2.0115   22.4185 C   0  0  0  0  0  0  0  0  0  0  0  0
    5.9137   -2.0049   23.4542 H   0  0  0  0  0  0  0  0  0  0  0  0
    5.3991   -1.8271   21.7827 H   0  0  0  0  0  0  0  0  0  0  0  0
    6.7822   -3.4155   22.1282 C   0  0  0  0  0  0  0  0  0  0  0  0
    7.4088   -4.1432   23.1605 C   0  0  0  0  0  0  0  0  0  0  0  0
    7.5701   -3.6610   24.1254 H   0  0  0  0  0  0  0  0  0  0  0  0
    7.7511   -5.4881   23.0132 C   0  0  0  0  0  0  0  0  0  0  0  0
    8.2297   -6.0215   23.8322 H   0  0  0  0  0  0  0  0  0  0  0  0
    7.4372   -6.1538   21.8249 C   0  0  0  0  0  0  0  0  0  0  0  0
    7.5928   -7.2228   21.7493 H   0  0  0  0  0  0  0  0  0  0  0  0
    6.8444   -5.4625   20.7650 C   0  0  0  0  0  0  0  0  0  0  0  0
    6.5957   -5.9692   19.8352 H   0  0  0  0  0  0  0  0  0  0  0  0
    6.5374   -4.1056   20.9174 C   0  0  0  0  0  0  0  0  0  0  0  0
    5.7681   -3.3146   19.5564 Cl  0  0  0  0  0  0  0  0  0  0  0  0
    5.5214    0.6320   20.1323 C   0  0  0  0  0  0  0  0  0  0  0  0
    5.0859    0.6306   21.1372 H   0  0  0  0  0  0  0  0  0  0  0  0
    4.8551    1.2785   19.0887 C   0  0  0  0  0  0  0  0  0  0  0  0
    3.9170    1.8015   19.2490 H   0  0  0  0  0  0  0  0  0  0  0  0
  1  2  1  0
  2  3  2  0
  3  4  1  0
  4  5  1  0
  4  6  2  0
  6  7  1  0
  7  8  2  0
  7  9  1  0
  9 10  1  0
  9 11  1  0
  9 12  1  0
 12 13  1  0
 12 14  1  0
 12 15  1  0
 15 16  2  0
 16 17  1  0
 16 18  1  0
 18 19  1  0
 18 20  2  0
 20 21  1  0
 20 22  1  0
 22 23  1  0
 22 24  2  0
 24 25  1  0
  6 26  1  0
 26 27  1  0
 26 28  2  0
 28 29  1  0
 28  2  1  0
 24 15  1  0
M  END
>  <cnnaffinity>  (1) 
-4.11709

>  <filename>  (1) 
O=C(CCc1ccccc1Cl)c1cccnc1

$$$$
