
     RDKit          3D

 33 34  0  0  0  0  0  0  0  0999 V2000
    4.9208    1.7821   16.9971 H   0  0  0  0  0  0  0  0  0  0  0  0
    5.3986    1.2917   17.8430 C   0  0  0  0  0  0  0  0  0  0  0  0
    6.5631    0.6736   17.5848 N   0  0  0  0  0  0  0  0  0  0  0  0
    7.1802    0.0658   18.5975 C   0  0  0  0  0  0  0  0  0  0  0  0
    8.1256   -0.4169   18.3671 H   0  0  0  0  0  0  0  0  0  0  0  0
    6.6680    0.0126   19.9126 C   0  0  0  0  0  0  0  0  0  0  0  0
    7.4271   -0.6761   20.9944 C   0  0  0  0  0  0  0  0  0  0  0  0
    9.0488   -0.5057   21.1396 S   0  0  0  0  0  0  0  0  0  0  0  0
    6.6108   -1.6441   21.9328 C   0  0  0  0  0  0  0  0  0  0  0  0
    5.5475   -2.1067   21.5478 O   0  0  0  0  0  0  0  0  0  0  0  0
    7.1542   -1.9672   23.1379 N   0  0  0  0  0  0  0  0  0  0  0  0
    8.0307   -1.5395   23.3940 H   0  0  0  0  0  0  0  0  0  0  0  0
    6.5670   -3.0009   23.9883 C   0  0  0  0  0  0  0  0  0  0  0  0
    5.4864   -2.8019   24.0336 H   0  0  0  0  0  0  0  0  0  0  0  0
    6.7572   -4.4073   23.3885 C   0  0  0  0  0  0  0  0  0  0  0  0
    6.3068   -4.4352   22.3913 H   0  0  0  0  0  0  0  0  0  0  0  0
    7.8340   -4.5899   23.2597 H   0  0  0  0  0  0  0  0  0  0  0  0
    6.1507   -5.4895   24.2892 C   0  0  0  0  0  0  0  0  0  0  0  0
    6.3244   -6.4682   23.8350 H   0  0  0  0  0  0  0  0  0  0  0  0
    5.0581   -5.3671   24.3216 H   0  0  0  0  0  0  0  0  0  0  0  0
    6.7102   -5.4236   25.7187 C   0  0  0  0  0  0  0  0  0  0  0  0
    6.2331   -6.1800   26.3566 H   0  0  0  0  0  0  0  0  0  0  0  0
    7.7818   -5.6714   25.6998 H   0  0  0  0  0  0  0  0  0  0  0  0
    6.5338   -4.0195   26.3198 C   0  0  0  0  0  0  0  0  0  0  0  0
    5.4607   -3.8199   26.4562 H   0  0  0  0  0  0  0  0  0  0  0  0
    6.9793   -3.9728   27.3199 H   0  0  0  0  0  0  0  0  0  0  0  0
    7.1379   -2.9321   25.4126 C   0  0  0  0  0  0  0  0  0  0  0  0
    6.9564   -1.9365   25.8354 H   0  0  0  0  0  0  0  0  0  0  0  0
    8.2300   -3.0668   25.3657 H   0  0  0  0  0  0  0  0  0  0  0  0
    5.4369    0.6433   20.1642 C   0  0  0  0  0  0  0  0  0  0  0  0
    4.9963    0.6204   21.1606 H   0  0  0  0  0  0  0  0  0  0  0  0
    4.8092    1.3080   19.1093 C   0  0  0  0  0  0  0  0  0  0  0  0
    3.8773    1.8427   19.2545 H   0  0  0  0  0  0  0  0  0  0  0  0
  1  2  1  0
  2  3  2  0
  3  4  1  0
  4  5  1  0
  4  6  2  0
  6  7  1  0
  7  8  2  0
  7  9  1  0
  9 10  2  0
  9 11  1  0
 11 12  1  0
 11 13  1  0
 13 14  1  0
 13 15  1  0
 15 16  1  0
 15 17  1  0
 15 18  1  0
 18 19  1  0
 18 20  1  0
 18 21  1  0
 21 22  1  0
 21 23  1  0
 21 24  1  0
 24 25  1  0
 24 26  1  0
 24 27  1  0
 27 28  1  0
 27 29  1  0
  6 30  1  0
 30 31  1  0
 30 32  2  0
 32 33  1  0
 32  2  1  0
 27 13  1  0
M  END
>  <cnnaffinity>  (1) 
-4.86122

>  <filename>  (1) 
O=C(NC1CCCCC1)C(=S)c1cccnc1

$$$$
