
     RDKit          3D

 27 28  0  0  0  0  0  0  0  0999 V2000
    6.2338    3.6168   27.6714 H   0  0  0  0  0  0  0  0  0  0  0  0
    6.6852    3.8430   26.8367 O   0  0  0  0  0  0  0  0  0  0  0  0
    6.6473    2.6579   26.2188 C   0  0  0  0  0  0  0  0  0  0  0  0
    6.1569    1.7091   26.7875 O   0  0  0  0  0  0  0  0  0  0  0  0
    7.2254    2.5982   24.7329 C   0  0  0  0  0  0  0  0  0  0  0  0
    7.5049    3.6259   24.1181 O   0  0  0  0  0  0  0  0  0  0  0  0
    7.3499    1.2823   24.1413 C   0  0  0  0  0  0  0  0  0  0  0  0
    7.2799    0.4179   24.7903 H   0  0  0  0  0  0  0  0  0  0  0  0
    7.4648    1.1077   22.7910 C   0  0  0  0  0  0  0  0  0  0  0  0
    7.3813    2.1528   21.9815 O   0  0  0  0  0  0  0  0  0  0  0  0
    7.5076    2.9557   22.5672 H   0  0  0  0  0  0  0  0  0  0  0  0
    7.6587   -0.2496   22.2105 C   0  0  0  0  0  0  0  0  0  0  0  0
    8.1994   -1.2396   22.8836 N   0  0  0  0  0  0  0  0  0  0  0  0
    8.1530   -2.3588   22.1125 N   0  0  0  0  0  0  0  0  0  0  0  0
    7.5897   -2.0260   20.9900 C   0  0  0  0  0  0  0  0  0  0  0  0
    7.3064   -2.7097   20.2119 H   0  0  0  0  0  0  0  0  0  0  0  0
    7.2917   -0.6919   20.9459 N   0  0  0  0  0  0  0  0  0  0  0  0
    6.6409    0.0129   19.8856 C   0  0  0  0  0  0  0  0  0  0  0  0
    7.1745    0.0634   18.5775 C   0  0  0  0  0  0  0  0  0  0  0  0
    8.1296   -0.4100   18.3552 H   0  0  0  0  0  0  0  0  0  0  0  0
    6.5732    0.6957   17.5629 N   0  0  0  0  0  0  0  0  0  0  0  0
    5.4055    1.3097   17.8100 C   0  0  0  0  0  0  0  0  0  0  0  0
    4.9320    1.8157   16.9691 H   0  0  0  0  0  0  0  0  0  0  0  0
    4.7969    1.3057   19.0690 C   0  0  0  0  0  0  0  0  0  0  0  0
    3.8568    1.8210   19.2163 H   0  0  0  0  0  0  0  0  0  0  0  0
    5.4213    0.6406   20.1281 C   0  0  0  0  0  0  0  0  0  0  0  0
    4.9856    0.6184   21.1280 H   0  0  0  0  0  0  0  0  0  0  0  0
  1  2  1  0
  2  3  1  0
  3  4  2  0
  3  5  1  0
  5  6  2  0
  5  7  1  0
  7  8  1  0
  7  9  2  3
  9 10  1  0
 10 11  1  0
  9 12  1  0
 12 13  2  0
 13 14  1  0
 14 15  2  0
 15 16  1  0
 15 17  1  0
 17 18  1  0
 18 19  2  0
 19 20  1  0
 19 21  1  0
 21 22  2  0
 22 23  1  0
 22 24  1  0
 24 25  1  0
 24 26  2  0
 26 27  1  0
 17 12  1  0
 26 18  1  0
M  END
>  <cnnaffinity>  (1) 
-4.22468

>  <filename>  (1) 
O=C(O)C(=O)C=C(O)c1nncn1-c1cccnc1

$$$$
