
     RDKit          3D

 30 31  0  0  0  0  0  0  0  0999 V2000
    4.9603    1.8554   16.9415 H   0  0  0  0  0  0  0  0  0  0  0  0
    5.3968    1.3031   17.7703 C   0  0  0  0  0  0  0  0  0  0  0  0
    6.5145    0.6158   17.4966 N   0  0  0  0  0  0  0  0  0  0  0  0
    7.0844   -0.0540   18.5011 C   0  0  0  0  0  0  0  0  0  0  0  0
    7.9753   -0.6271   18.2551 H   0  0  0  0  0  0  0  0  0  0  0  0
    6.5902   -0.0453   19.8128 C   0  0  0  0  0  0  0  0  0  0  0  0
    7.4011   -0.6274   20.9474 C   0  0  0  0  0  0  0  0  0  0  0  0
    8.3531   -1.4888   20.4340 F   0  0  0  0  0  0  0  0  0  0  0  0
    6.6087   -1.3770   21.7473 F   0  0  0  0  0  0  0  0  0  0  0  0
    8.1504    0.4883   21.8007 C   0  0  0  0  0  0  0  0  0  0  0  0
    7.7405    0.9010   22.8630 O   0  0  0  0  0  0  0  0  0  0  0  0
    9.2407    1.0172   21.1381 N   0  0  0  0  0  0  0  0  0  0  0  0
    9.7470    0.3310   20.5983 H   0  0  0  0  0  0  0  0  0  0  0  0
   10.1133    1.9946   21.7931 C   0  0  0  0  0  0  0  0  0  0  0  0
   10.7761    2.4113   21.0250 H   0  0  0  0  0  0  0  0  0  0  0  0
    9.5069    2.8171   22.1859 H   0  0  0  0  0  0  0  0  0  0  0  0
   10.9382    1.3869   22.9127 C   0  0  0  0  0  0  0  0  0  0  0  0
   10.5162    1.4610   24.2466 C   0  0  0  0  0  0  0  0  0  0  0  0
    9.5527    1.8884   24.4884 H   0  0  0  0  0  0  0  0  0  0  0  0
   11.3286    0.9417   25.2546 C   0  0  0  0  0  0  0  0  0  0  0  0
   11.0174    1.0352   26.2968 H   0  0  0  0  0  0  0  0  0  0  0  0
   12.5093    0.3529   25.0164 N   0  0  0  0  0  0  0  0  0  0  0  0
   12.8874    0.2360   23.7385 C   0  0  0  0  0  0  0  0  0  0  0  0
   13.8463   -0.2512   23.5628 H   0  0  0  0  0  0  0  0  0  0  0  0
   12.1357    0.7054   22.6650 C   0  0  0  0  0  0  0  0  0  0  0  0
   12.4927    0.5134   21.6620 H   0  0  0  0  0  0  0  0  0  0  0  0
    5.3954    0.6332   20.0803 C   0  0  0  0  0  0  0  0  0  0  0  0
    4.9590    0.6221   21.0806 H   0  0  0  0  0  0  0  0  0  0  0  0
    4.7918    1.3225   19.0317 C   0  0  0  0  0  0  0  0  0  0  0  0
    3.8789    1.8854   19.1801 H   0  0  0  0  0  0  0  0  0  0  0  0
  1  2  1  0
  2  3  2  0
  3  4  1  0
  4  5  1  0
  4  6  2  0
  6  7  1  0
  7  8  1  0
  7  9  1  0
  7 10  1  0
 10 11  2  0
 10 12  1  0
 12 13  1  0
 12 14  1  0
 14 15  1  0
 14 16  1  0
 14 17  1  0
 17 18  2  0
 18 19  1  0
 18 20  1  0
 20 21  1  0
 20 22  2  0
 22 23  1  0
 23 24  1  0
 23 25  2  0
 25 26  1  0
  6 27  1  0
 27 28  1  0
 27 29  2  0
 29 30  1  0
 29  2  1  0
 25 17  1  0
M  END
>  <cnnaffinity>  (1) 
-4.53892

>  <filename>  (1) 
O=C(NCc1ccncc1)C(F)(F)c1cccnc1

$$$$
