
     RDKit          3D

 32 34  0  0  0  0  0  0  0  0999 V2000
    4.9392    1.7842   16.9968 H   0  0  0  0  0  0  0  0  0  0  0  0
    5.4075    1.2895   17.8432 C   0  0  0  0  0  0  0  0  0  0  0  0
    6.5731    0.6674   17.5990 N   0  0  0  0  0  0  0  0  0  0  0  0
    7.1758    0.0359   18.6086 C   0  0  0  0  0  0  0  0  0  0  0  0
    8.1224   -0.4446   18.3739 H   0  0  0  0  0  0  0  0  0  0  0  0
    6.6514    0.0063   19.9114 C   0  0  0  0  0  0  0  0  0  0  0  0
    7.3680   -0.6521   20.9439 N   0  0  0  0  0  0  0  0  0  0  0  0
    7.9555   -1.8475   20.7040 N   0  0  0  0  0  0  0  0  0  0  0  0
    8.4809   -2.2123   21.8650 C   0  0  0  0  0  0  0  0  0  0  0  0
    9.0101   -3.1548   21.9190 H   0  0  0  0  0  0  0  0  0  0  0  0
    8.2624   -1.2648   22.8834 C   0  0  0  0  0  0  0  0  0  0  0  0
    8.5427   -1.2613   23.9235 H   0  0  0  0  0  0  0  0  0  0  0  0
    7.5506   -0.2753   22.2533 C   0  0  0  0  0  0  0  0  0  0  0  0
    7.0820    0.9314   22.7840 N   0  0  0  0  0  0  0  0  0  0  0  0
    7.0944    1.7439   22.1878 H   0  0  0  0  0  0  0  0  0  0  0  0
    6.8297    1.1260   24.1270 C   0  0  0  0  0  0  0  0  0  0  0  0
    6.9679    0.2296   24.9393 O   0  0  0  0  0  0  0  0  0  0  0  0
    6.3639    2.5186   24.5388 C   0  0  0  0  0  0  0  0  0  0  0  0
    6.5815    2.9206   25.8742 C   0  0  0  0  0  0  0  0  0  0  0  0
    7.0840    2.2370   26.5578 H   0  0  0  0  0  0  0  0  0  0  0  0
    6.1328    4.1600   26.3384 C   0  0  0  0  0  0  0  0  0  0  0  0
    6.3120    4.4474   27.3721 H   0  0  0  0  0  0  0  0  0  0  0  0
    5.4438    5.0243   25.4803 C   0  0  0  0  0  0  0  0  0  0  0  0
    5.1006    5.9933   25.8393 H   0  0  0  0  0  0  0  0  0  0  0  0
    5.2004    4.6339   24.1596 C   0  0  0  0  0  0  0  0  0  0  0  0
    4.6661    5.2980   23.4817 H   0  0  0  0  0  0  0  0  0  0  0  0
    5.6554    3.3944   23.6913 C   0  0  0  0  0  0  0  0  0  0  0  0
    5.4139    3.1174   22.6647 H   0  0  0  0  0  0  0  0  0  0  0  0
    5.4317    0.6420   20.1638 C   0  0  0  0  0  0  0  0  0  0  0  0
    4.9957    0.6173   21.1650 H   0  0  0  0  0  0  0  0  0  0  0  0
    4.8076    1.3012   19.1049 C   0  0  0  0  0  0  0  0  0  0  0  0
    3.8808    1.8351   19.2539 H   0  0  0  0  0  0  0  0  0  0  0  0
  1  2  1  0
  2  3  2  0
  3  4  1  0
  4  5  1  0
  4  6  2  0
  6  7  1  0
  7  8  1  0
  8  9  2  0
  9 10  1  0
  9 11  1  0
 11 12  1  0
 11 13  2  0
 13 14  1  0
 14 15  1  0
 14 16  1  0
 16 17  2  0
 16 18  1  0
 18 19  2  0
 19 20  1  0
 19 21  1  0
 21 22  1  0
 21 23  2  0
 23 24  1  0
 23 25  1  0
 25 26  1  0
 25 27  2  0
 27 28  1  0
  6 29  1  0
 29 30  1  0
 29 31  2  0
 31 32  1  0
 31  2  1  0
 13  7  1  0
 27 18  1  0
M  END
>  <cnnaffinity>  (1) 
-4.85198

>  <filename>  (1) 
O=C(Nc1ccnn1-c1cccnc1)c1ccccc1

$$$$
