
     RDKit          3D

 39 41  0  0  0  0  0  0  0  0999 V2000
    4.9407    1.7874   17.0031 H   0  0  0  0  0  0  0  0  0  0  0  0
    5.4137    1.2816   17.8415 C   0  0  0  0  0  0  0  0  0  0  0  0
    6.5750    0.6560   17.5796 N   0  0  0  0  0  0  0  0  0  0  0  0
    7.2044    0.0617   18.6042 C   0  0  0  0  0  0  0  0  0  0  0  0
    8.1507   -0.4359   18.3881 H   0  0  0  0  0  0  0  0  0  0  0  0
    6.6859    0.0390   19.9098 C   0  0  0  0  0  0  0  0  0  0  0  0
    7.4401   -0.5392   20.9330 O   0  0  0  0  0  0  0  0  0  0  0  0
    6.8614   -1.4154   21.8234 C   0  0  0  0  0  0  0  0  0  0  0  0
    5.8119   -1.9769   21.6071 O   0  0  0  0  0  0  0  0  0  0  0  0
    7.8044   -1.6901   23.0252 C   0  0  0  0  0  0  0  0  0  0  0  0
    8.2850   -0.6619   23.9400 N   0  0  0  0  0  0  0  0  0  0  0  0
    8.8355    0.0620   23.4794 H   0  0  0  0  0  0  0  0  0  0  0  0
    7.3069   -0.0401   24.8398 C   0  0  0  0  0  0  0  0  0  0  0  0
    6.4963   -0.7682   25.0050 H   0  0  0  0  0  0  0  0  0  0  0  0
    6.6992    1.2464   24.2449 C   0  0  0  0  0  0  0  0  0  0  0  0
    6.2225    1.0175   23.2838 H   0  0  0  0  0  0  0  0  0  0  0  0
    7.5236    1.9452   24.0206 H   0  0  0  0  0  0  0  0  0  0  0  0
    5.6947    1.9114   25.2051 C   0  0  0  0  0  0  0  0  0  0  0  0
    5.3081    2.8385   24.7649 H   0  0  0  0  0  0  0  0  0  0  0  0
    4.8238    1.2482   25.3299 H   0  0  0  0  0  0  0  0  0  0  0  0
    6.3310    2.1910   26.5791 C   0  0  0  0  0  0  0  0  0  0  0  0
    7.1187    2.9516   26.4588 H   0  0  0  0  0  0  0  0  0  0  0  0
    5.5906    2.6264   27.2630 H   0  0  0  0  0  0  0  0  0  0  0  0
    6.9499    0.9171   27.1867 C   0  0  0  0  0  0  0  0  0  0  0  0
    7.4393    1.1474   28.1425 H   0  0  0  0  0  0  0  0  0  0  0  0
    6.1455    0.2020   27.4249 H   0  0  0  0  0  0  0  0  0  0  0  0
    7.9471    0.2527   26.2116 C   0  0  0  0  0  0  0  0  0  0  0  0
    8.3341   -0.6886   26.6201 H   0  0  0  0  0  0  0  0  0  0  0  0
    8.8178    0.9127   26.0657 H   0  0  0  0  0  0  0  0  0  0  0  0
    7.6336   -3.0354   23.6922 C   0  0  0  0  0  0  0  0  0  0  0  0
    6.7894   -3.6480   23.3875 H   0  0  0  0  0  0  0  0  0  0  0  0
    7.8550   -3.0378   24.7587 H   0  0  0  0  0  0  0  0  0  0  0  0
    8.7903   -2.8103   22.7628 C   0  0  0  0  0  0  0  0  0  0  0  0
    8.7853   -3.2552   21.7730 H   0  0  0  0  0  0  0  0  0  0  0  0
    9.7851   -2.6924   23.1862 H   0  0  0  0  0  0  0  0  0  0  0  0
    5.4604    0.6511   20.1645 C   0  0  0  0  0  0  0  0  0  0  0  0
    5.0194    0.5972   21.1611 H   0  0  0  0  0  0  0  0  0  0  0  0
    4.8209    1.3037   19.1076 C   0  0  0  0  0  0  0  0  0  0  0  0
    3.8865    1.8318   19.2619 H   0  0  0  0  0  0  0  0  0  0  0  0
  1  2  1  0
  2  3  2  0
  3  4  1  0
  4  5  1  0
  4  6  2  0
  6  7  1  0
  7  8  1  0
  8  9  2  0
  8 10  1  0
 10 11  1  0
 11 12  1  0
 11 13  1  0
 13 14  1  0
 13 15  1  0
 15 16  1  0
 15 17  1  0
 15 18  1  0
 18 19  1  0
 18 20  1  0
 18 21  1  0
 21 22  1  0
 21 23  1  0
 21 24  1  0
 24 25  1  0
 24 26  1  0
 24 27  1  0
 27 28  1  0
 27 29  1  0
 10 30  1  0
 30 31  1  0
 30 32  1  0
 30 33  1  0
 33 34  1  0
 33 35  1  0
  6 36  1  0
 36 37  1  0
 36 38  2  0
 38 39  1  0
 38  2  1  0
 33 10  1  0
 27 13  1  0
M  END
>  <cnnaffinity>  (1) 
-4.66797

>  <filename>  (1) 
O=C(Oc1cccnc1)C1(NC2CCCCC2)CC1

$$$$
