
     RDKit          3D

 41 43  0  0  0  0  0  0  0  0999 V2000
    4.9475    1.8094   17.0025 H   0  0  0  0  0  0  0  0  0  0  0  0
    5.4003    1.2944   17.8466 C   0  0  0  0  0  0  0  0  0  0  0  0
    6.5558    0.6568   17.6034 N   0  0  0  0  0  0  0  0  0  0  0  0
    7.1469    0.0328   18.6253 C   0  0  0  0  0  0  0  0  0  0  0  0
    8.0800   -0.4778   18.3903 H   0  0  0  0  0  0  0  0  0  0  0  0
    6.6426    0.0333   19.9340 C   0  0  0  0  0  0  0  0  0  0  0  0
    7.4137   -0.7049   20.9489 C   0  0  0  0  0  0  0  0  0  0  0  0
    7.8053   -1.9433   20.7860 N   0  0  0  0  0  0  0  0  0  0  0  0
    8.4364   -2.3023   21.9476 C   0  0  0  0  0  0  0  0  0  0  0  0
    8.8214   -3.3044   22.0929 H   0  0  0  0  0  0  0  0  0  0  0  0
    8.4685   -1.2508   22.8093 C   0  0  0  0  0  0  0  0  0  0  0  0
    8.8638   -1.1383   23.8100 H   0  0  0  0  0  0  0  0  0  0  0  0
    7.8116   -0.2139   22.1717 N   0  0  0  0  0  0  0  0  0  0  0  0
    7.7517    1.1684   22.6377 C   0  0  0  0  0  0  0  0  0  0  0  0
    6.9516    1.6597   22.0859 H   0  0  0  0  0  0  0  0  0  0  0  0
    8.6969    1.6847   22.4133 H   0  0  0  0  0  0  0  0  0  0  0  0
    7.4563    1.2422   24.0505 N   0  0  0  0  0  0  0  0  0  0  0  0
    8.1524    1.5387   24.7076 H   0  0  0  0  0  0  0  0  0  0  0  0
    6.2036    0.9844   24.5452 C   0  0  0  0  0  0  0  0  0  0  0  0
    5.2393    0.8749   23.8045 O   0  0  0  0  0  0  0  0  0  0  0  0
    6.0770    0.8742   26.0731 C   0  0  0  0  0  0  0  0  0  0  0  0
    6.9142    1.4369   26.5090 H   0  0  0  0  0  0  0  0  0  0  0  0
    4.7455    1.5198   26.5120 C   0  0  0  0  0  0  0  0  0  0  0  0
    4.6964    2.5553   26.1546 H   0  0  0  0  0  0  0  0  0  0  0  0
    3.9467    0.9693   25.9950 H   0  0  0  0  0  0  0  0  0  0  0  0
    4.5418    1.4658   28.0269 C   0  0  0  0  0  0  0  0  0  0  0  0
    3.5714    1.9067   28.2842 H   0  0  0  0  0  0  0  0  0  0  0  0
    5.3071    2.0851   28.5192 H   0  0  0  0  0  0  0  0  0  0  0  0
    4.6371    0.0303   28.5580 C   0  0  0  0  0  0  0  0  0  0  0  0
    4.5407    0.0219   29.6513 H   0  0  0  0  0  0  0  0  0  0  0  0
    3.7907   -0.5585   28.1738 H   0  0  0  0  0  0  0  0  0  0  0  0
    5.9541   -0.6346   28.1309 C   0  0  0  0  0  0  0  0  0  0  0  0
    5.9752   -1.6722   28.4821 H   0  0  0  0  0  0  0  0  0  0  0  0
    6.7877   -0.1228   28.6351 H   0  0  0  0  0  0  0  0  0  0  0  0
    6.1620   -0.5833   26.6048 C   0  0  0  0  0  0  0  0  0  0  0  0
    7.1255   -1.0402   26.3422 H   0  0  0  0  0  0  0  0  0  0  0  0
    5.3831   -1.1840   26.1127 H   0  0  0  0  0  0  0  0  0  0  0  0
    5.4185    0.6838   20.1716 C   0  0  0  0  0  0  0  0  0  0  0  0
    4.9790    0.6877   21.1716 H   0  0  0  0  0  0  0  0  0  0  0  0
    4.7837    1.3192   19.1009 C   0  0  0  0  0  0  0  0  0  0  0  0
    3.8481    1.8530   19.2287 H   0  0  0  0  0  0  0  0  0  0  0  0
  1  2  1  0
  2  3  2  0
  3  4  1  0
  4  5  1  0
  4  6  2  0
  6  7  1  0
  7  8  2  0
  8  9  1  0
  9 10  1  0
  9 11  2  0
 11 12  1  0
 11 13  1  0
 13 14  1  0
 14 15  1  0
 14 16  1  0
 14 17  1  0
 17 18  1  0
 17 19  1  0
 19 20  2  0
 19 21  1  0
 21 22  1  0
 21 23  1  0
 23 24  1  0
 23 25  1  0
 23 26  1  0
 26 27  1  0
 26 28  1  0
 26 29  1  0
 29 30  1  0
 29 31  1  0
 29 32  1  0
 32 33  1  0
 32 34  1  0
 32 35  1  0
 35 36  1  0
 35 37  1  0
  6 38  1  0
 38 39  1  0
 38 40  2  0
 40 41  1  0
 40  2  1  0
 13  7  1  0
 35 21  1  0
M  END
>  <cnnaffinity>  (1) 
-5.09238

>  <filename>  (1) 
O=C(NCn1ccnc1-c1cccnc1)C1CCCCC1

$$$$
