
     RDKit          3D

 32 34  0  0  0  0  0  0  0  0999 V2000
   10.2105   -6.5297   27.1057 H   0  0  0  0  0  0  0  0  0  0  0  0
    9.3450   -6.1448   26.8872 O   0  0  0  0  0  0  0  0  0  0  0  0
    9.6814   -5.3122   25.8986 C   0  0  0  0  0  0  0  0  0  0  0  0
   10.8414   -5.2272   25.5641 O   0  0  0  0  0  0  0  0  0  0  0  0
    8.4886   -4.6008   25.3526 C   0  0  0  0  0  0  0  0  0  0  0  0
    7.1950   -4.8400   25.8799 C   0  0  0  0  0  0  0  0  0  0  0  0
    7.0544   -5.5511   26.6941 H   0  0  0  0  0  0  0  0  0  0  0  0
    6.1016   -4.1586   25.3528 C   0  0  0  0  0  0  0  0  0  0  0  0
    5.1044   -4.3347   25.7493 H   0  0  0  0  0  0  0  0  0  0  0  0
    6.2871   -3.2478   24.3125 C   0  0  0  0  0  0  0  0  0  0  0  0
    5.4394   -2.7064   23.9112 H   0  0  0  0  0  0  0  0  0  0  0  0
    7.5614   -3.0032   23.7732 C   0  0  0  0  0  0  0  0  0  0  0  0
    7.6857   -2.0615   22.6627 C   0  0  0  0  0  0  0  0  0  0  0  0
    6.7446   -1.6037   21.8046 C   0  0  0  0  0  0  0  0  0  0  0  0
    5.7001   -1.8460   21.7163 H   0  0  0  0  0  0  0  0  0  0  0  0
    7.3386   -0.6916   20.9478 N   0  0  0  0  0  0  0  0  0  0  0  0
    6.6544   -0.0027   19.9002 C   0  0  0  0  0  0  0  0  0  0  0  0
    7.1735    0.0452   18.5902 C   0  0  0  0  0  0  0  0  0  0  0  0
    8.1267   -0.4319   18.3642 H   0  0  0  0  0  0  0  0  0  0  0  0
    6.5560    0.6653   17.5792 N   0  0  0  0  0  0  0  0  0  0  0  0
    5.3976    1.2904   17.8407 C   0  0  0  0  0  0  0  0  0  0  0  0
    4.9261    1.7885   16.9980 H   0  0  0  0  0  0  0  0  0  0  0  0
    4.8095    1.3097   19.1088 C   0  0  0  0  0  0  0  0  0  0  0  0
    3.8795    1.8417   19.2602 H   0  0  0  0  0  0  0  0  0  0  0  0
    5.4434    0.6444   20.1609 C   0  0  0  0  0  0  0  0  0  0  0  0
    5.0311    0.6300   21.1705 H   0  0  0  0  0  0  0  0  0  0  0  0
    8.6624   -0.5344   21.2991 C   0  0  0  0  0  0  0  0  0  0  0  0
    9.8075    0.5125   20.7363 S   0  0  0  0  0  0  0  0  0  0  0  0
    8.8617   -1.4180   22.3073 N   0  0  0  0  0  0  0  0  0  0  0  0
    9.7613   -1.4302   22.7564 H   0  0  0  0  0  0  0  0  0  0  0  0
    8.6630   -3.6908   24.3063 C   0  0  0  0  0  0  0  0  0  0  0  0
    9.6676   -3.5445   23.9107 H   0  0  0  0  0  0  0  0  0  0  0  0
  1  2  1  0
  2  3  1  0
  3  4  2  0
  3  5  1  0
  5  6  2  0
  6  7  1  0
  6  8  1  0
  8  9  1  0
  8 10  2  0
 10 11  1  0
 10 12  1  0
 12 13  1  0
 13 14  2  0
 14 15  1  0
 14 16  1  0
 16 17  1  0
 17 18  2  0
 18 19  1  0
 18 20  1  0
 20 21  2  0
 21 22  1  0
 21 23  1  0
 23 24  1  0
 23 25  2  0
 25 26  1  0
 16 27  1  0
 27 28  2  0
 27 29  1  0
 29 30  1  0
 12 31  2  0
 31 32  1  0
 31  5  1  0
 29 13  1  0
 25 17  1  0
M  END
>  <cnnaffinity>  (1) 
-5.41615

>  <filename>  (1) 
O=C(O)c1cccc(-c2cn(-c3cccnc3)c(=S)[nH]2)c1

$$$$
