
     RDKit          3D

 39 42  0  0  0  0  0  0  0  0999 V2000
    5.0534    1.7703   17.1811 H   0  0  0  0  0  0  0  0  0  0  0  0
    5.5155    1.1864   17.9723 C   0  0  0  0  0  0  0  0  0  0  0  0
    6.6670    0.5841   17.6392 N   0  0  0  0  0  0  0  0  0  0  0  0
    7.2996   -0.0940   18.5987 C   0  0  0  0  0  0  0  0  0  0  0  0
    8.2587   -0.5371   18.3350 H   0  0  0  0  0  0  0  0  0  0  0  0
    6.7953   -0.2469   19.9007 C   0  0  0  0  0  0  0  0  0  0  0  0
    7.6309   -0.9656   20.8712 C   0  0  0  0  0  0  0  0  0  0  0  0
    8.9397   -0.8881   20.9428 N   0  0  0  0  0  0  0  0  0  0  0  0
    9.3692   -1.5222   22.0893 N   0  0  0  0  0  0  0  0  0  0  0  0
    8.2937   -1.9824   22.6695 C   0  0  0  0  0  0  0  0  0  0  0  0
    7.8520   -2.7934   24.1491 S   0  0  0  0  0  0  0  0  0  0  0  0
    6.1879   -2.6723   23.5899 C   0  0  0  0  0  0  0  0  0  0  0  0
    5.0814   -3.0395   24.3144 N   0  0  0  0  0  0  0  0  0  0  0  0
    4.2245   -2.7887   23.8594 H   0  0  0  0  0  0  0  0  0  0  0  0
    5.0445   -3.4498   25.6256 C   0  0  0  0  0  0  0  0  0  0  0  0
    6.0803   -3.6141   26.2354 O   0  0  0  0  0  0  0  0  0  0  0  0
    3.5974   -3.6564   26.1375 C   0  0  0  0  0  0  0  0  0  0  0  0
    3.0676   -2.7245   25.8875 H   0  0  0  0  0  0  0  0  0  0  0  0
    3.4938   -3.8826   27.6602 C   0  0  0  0  0  0  0  0  0  0  0  0
    3.9451   -3.0587   28.2238 H   0  0  0  0  0  0  0  0  0  0  0  0
    2.4236   -3.8687   27.9148 H   0  0  0  0  0  0  0  0  0  0  0  0
    4.0937   -5.2310   28.0912 C   0  0  0  0  0  0  0  0  0  0  0  0
    5.1733   -5.1967   27.9054 H   0  0  0  0  0  0  0  0  0  0  0  0
    3.9518   -5.3714   29.1692 H   0  0  0  0  0  0  0  0  0  0  0  0
    3.4798   -6.4137   27.3239 C   0  0  0  0  0  0  0  0  0  0  0  0
    3.9959   -7.3462   27.5852 H   0  0  0  0  0  0  0  0  0  0  0  0
    2.4356   -6.5627   27.6396 H   0  0  0  0  0  0  0  0  0  0  0  0
    3.5198   -6.1860   25.8037 C   0  0  0  0  0  0  0  0  0  0  0  0
    3.0058   -7.0049   25.2866 H   0  0  0  0  0  0  0  0  0  0  0  0
    4.5634   -6.1967   25.4541 H   0  0  0  0  0  0  0  0  0  0  0  0
    2.8755   -4.8412   25.4325 C   0  0  0  0  0  0  0  0  0  0  0  0
    2.8216   -4.7093   24.3457 H   0  0  0  0  0  0  0  0  0  0  0  0
    1.8323   -4.8388   25.7792 H   0  0  0  0  0  0  0  0  0  0  0  0
    5.9826   -2.1885   22.4050 N   0  0  0  0  0  0  0  0  0  0  0  0
    7.1796   -1.7172   21.9331 N   0  0  0  0  0  0  0  0  0  0  0  0
    5.5753    0.3650   20.2332 C   0  0  0  0  0  0  0  0  0  0  0  0
    5.1544    0.2688   21.2384 H   0  0  0  0  0  0  0  0  0  0  0  0
    4.9344    1.1142   19.2454 C   0  0  0  0  0  0  0  0  0  0  0  0
    4.0244    1.6742   19.4435 H   0  0  0  0  0  0  0  0  0  0  0  0
  1  2  1  0
  2  3  2  0
  3  4  1  0
  4  5  1  0
  4  6  2  0
  6  7  1  0
  7  8  2  0
  8  9  1  0
  9 10  2  0
 10 11  1  0
 11 12  1  0
 12 13  1  0
 13 14  1  0
 13 15  1  0
 15 16  2  0
 15 17  1  0
 17 18  1  0
 17 19  1  0
 19 20  1  0
 19 21  1  0
 19 22  1  0
 22 23  1  0
 22 24  1  0
 22 25  1  0
 25 26  1  0
 25 27  1  0
 25 28  1  0
 28 29  1  0
 28 30  1  0
 28 31  1  0
 31 32  1  0
 31 33  1  0
 12 34  2  0
 34 35  1  0
  6 36  1  0
 36 37  1  0
 36 38  2  0
 38 39  1  0
 38  2  1  0
 35  7  1  0
 35 10  1  0
 31 17  1  0
M  END
>  <cnnaffinity>  (1) 
-5.52381

>  <filename>  (1) 
O=C(Nc1nn2c(-c3cccnc3)nnc2s1)C1CCCCC1

$$$$
