
     RDKit          3D

 39 40  0  0  0  0  0  0  0  0999 V2000
   14.9493    3.6915   21.9850 H   0  0  0  0  0  0  0  0  0  0  0  0
   14.4618    4.5373   21.8799 O   0  0  0  0  0  0  0  0  0  0  0  0
   13.1448    4.2857   22.2587 N   0  0  0  0  0  0  0  0  0  0  0  0
   12.4883    4.6798   21.6007 H   0  0  0  0  0  0  0  0  0  0  0  0
   12.7715    3.1924   22.9809 C   0  0  0  0  0  0  0  0  0  0  0  0
   13.5909    2.4086   23.4421 O   0  0  0  0  0  0  0  0  0  0  0  0
   11.2702    3.0692   23.1674 C   0  0  0  0  0  0  0  0  0  0  0  0
   11.1369    2.9613   24.2469 H   0  0  0  0  0  0  0  0  0  0  0  0
   10.7569    3.9948   22.8788 H   0  0  0  0  0  0  0  0  0  0  0  0
   10.6453    1.8527   22.4605 C   0  0  0  0  0  0  0  0  0  0  0  0
    9.5594    1.8832   22.6250 H   0  0  0  0  0  0  0  0  0  0  0  0
   10.7837    1.9216   21.3717 H   0  0  0  0  0  0  0  0  0  0  0  0
   11.2207    0.5217   22.9555 C   0  0  0  0  0  0  0  0  0  0  0  0
   12.3070    0.6153   23.0471 H   0  0  0  0  0  0  0  0  0  0  0  0
   10.8535    0.3389   23.9760 H   0  0  0  0  0  0  0  0  0  0  0  0
   10.8597   -0.6599   22.0398 C   0  0  0  0  0  0  0  0  0  0  0  0
   11.3578   -1.5712   22.3959 H   0  0  0  0  0  0  0  0  0  0  0  0
   11.2206   -0.4724   21.0205 H   0  0  0  0  0  0  0  0  0  0  0  0
    9.3765   -0.9033   21.9925 C   0  0  0  0  0  0  0  0  0  0  0  0
    8.7228   -0.5400   20.9470 N   0  0  0  0  0  0  0  0  0  0  0  0
    7.3412   -0.7467   20.9306 N   0  0  0  0  0  0  0  0  0  0  0  0
    6.6669   -0.0232   19.9065 C   0  0  0  0  0  0  0  0  0  0  0  0
    7.2354    0.0710   18.6218 C   0  0  0  0  0  0  0  0  0  0  0  0
    8.1983   -0.3907   18.4274 H   0  0  0  0  0  0  0  0  0  0  0  0
    6.6371    0.6913   17.5988 N   0  0  0  0  0  0  0  0  0  0  0  0
    5.4589    1.2910   17.8395 C   0  0  0  0  0  0  0  0  0  0  0  0
    4.9976    1.7902   16.9900 H   0  0  0  0  0  0  0  0  0  0  0  0
    4.8371    1.2904   19.0930 C   0  0  0  0  0  0  0  0  0  0  0  0
    3.9008    1.8209   19.2247 H   0  0  0  0  0  0  0  0  0  0  0  0
    5.4450    0.6091   20.1544 C   0  0  0  0  0  0  0  0  0  0  0  0
    4.9912    0.5681   21.1447 H   0  0  0  0  0  0  0  0  0  0  0  0
    6.6709   -1.7560   21.6605 C   0  0  0  0  0  0  0  0  0  0  0  0
    5.5605   -2.1629   21.3805 O   0  0  0  0  0  0  0  0  0  0  0  0
    7.4895   -2.3450   22.8001 C   0  0  0  0  0  0  0  0  0  0  0  0
    7.8226   -3.3270   22.4385 H   0  0  0  0  0  0  0  0  0  0  0  0
    6.8007   -2.5304   23.6264 H   0  0  0  0  0  0  0  0  0  0  0  0
    8.6771   -1.4652   23.2174 C   0  0  0  0  0  0  0  0  0  0  0  0
    9.3921   -2.0337   23.8251 H   0  0  0  0  0  0  0  0  0  0  0  0
    8.3418   -0.6162   23.8396 H   0  0  0  0  0  0  0  0  0  0  0  0
  1  2  1  0
  2  3  1  0
  3  4  1  0
  3  5  1  0
  5  6  2  0
  5  7  1  0
  7  8  1  0
  7  9  1  0
  7 10  1  0
 10 11  1  0
 10 12  1  0
 10 13  1  0
 13 14  1  0
 13 15  1  0
 13 16  1  0
 16 17  1  0
 16 18  1  0
 16 19  1  0
 19 20  2  0
 20 21  1  0
 21 22  1  0
 22 23  2  0
 23 24  1  0
 23 25  1  0
 25 26  2  0
 26 27  1  0
 26 28  1  0
 28 29  1  0
 28 30  2  0
 30 31  1  0
 21 32  1  0
 32 33  2  0
 32 34  1  0
 34 35  1  0
 34 36  1  0
 34 37  1  0
 37 38  1  0
 37 39  1  0
 37 19  1  0
 30 22  1  0
M  END
>  <cnnaffinity>  (1) 
-5.62255

>  <filename>  (1) 
O=C(CCCCC1=NN(c2cccnc2)C(=O)CC1)NO

$$$$
