
     RDKit          3D

 36 37  0  0  0  0  0  0  0  0999 V2000
    6.9717    2.1492   21.7866 O   0  0  0  0  0  0  0  0  0  0  0  0
    7.2962    1.2708   22.5581 C   0  0  0  0  0  0  0  0  0  0  0  0
    7.5491   -0.1546   22.2125 C   0  0  0  0  0  0  0  0  0  0  0  0
    7.3389   -0.7035   21.0071 C   0  0  0  0  0  0  0  0  0  0  0  0
    6.6176   -0.0350   19.9065 C   0  0  0  0  0  0  0  0  0  0  0  0
    5.3952    0.6171   20.1111 C   0  0  0  0  0  0  0  0  0  0  0  0
    4.8064    1.2887   19.0387 C   0  0  0  0  0  0  0  0  0  0  0  0
    5.4517    1.2735   17.7997 C   0  0  0  0  0  0  0  0  0  0  0  0
    6.6007    0.6152   17.5690 N   0  0  0  0  0  0  0  0  0  0  0  0
    7.1550   -0.0185   18.6068 C   0  0  0  0  0  0  0  0  0  0  0  0
    8.0917   -0.5401   18.4040 H   0  0  0  0  0  0  0  0  0  0  0  0
    5.0331    1.8050   16.9488 H   0  0  0  0  0  0  0  0  0  0  0  0
    3.8844    1.8431   19.1662 H   0  0  0  0  0  0  0  0  0  0  0  0
    4.9438    0.6199   21.1032 H   0  0  0  0  0  0  0  0  0  0  0  0
    7.7430   -1.6996   20.8078 H   0  0  0  0  0  0  0  0  0  0  0  0
    7.9270   -0.7654   23.0255 H   0  0  0  0  0  0  0  0  0  0  0  0
    7.4645    1.4765   23.9295 N   0  0  0  0  0  0  0  0  0  0  0  0
    7.6127    2.7263   24.5297 N   0  0  0  0  0  0  0  0  0  0  0  0
    8.6771    3.5797   24.2141 C   0  0  0  0  0  0  0  0  0  0  0  0
    9.6923    3.2246   23.6544 O   0  0  0  0  0  0  0  0  0  0  0  0
    8.4275    4.9977   24.6617 C   0  0  0  0  0  0  0  0  0  0  0  0
    7.8899    5.2883   25.9281 C   0  0  0  0  0  0  0  0  0  0  0  0
    7.8005    6.6185   26.3607 C   0  0  0  0  0  0  0  0  0  0  0  0
    7.2161    6.9465   27.7176 C   0  0  0  0  0  0  0  0  0  0  0  0
    7.5091    6.0093   28.6394 F   0  0  0  0  0  0  0  0  0  0  0  0
    5.8736    7.0454   27.6765 F   0  0  0  0  0  0  0  0  0  0  0  0
    7.6732    8.1199   28.1956 F   0  0  0  0  0  0  0  0  0  0  0  0
    8.2109    7.6566   25.5094 C   0  0  0  0  0  0  0  0  0  0  0  0
    8.7116    7.3650   24.2392 C   0  0  0  0  0  0  0  0  0  0  0  0
    8.8256    6.0428   23.8099 C   0  0  0  0  0  0  0  0  0  0  0  0
    9.2186    5.8069   22.8188 H   0  0  0  0  0  0  0  0  0  0  0  0
    9.0269    8.1742   23.5919 H   0  0  0  0  0  0  0  0  0  0  0  0
    8.1511    8.6894   25.8428 H   0  0  0  0  0  0  0  0  0  0  0  0
    7.5779    4.4684   26.5747 H   0  0  0  0  0  0  0  0  0  0  0  0
    6.7416    3.2317   24.6474 H   0  0  0  0  0  0  0  0  0  0  0  0
    7.9721    0.7435   24.3986 H   0  0  0  0  0  0  0  0  0  0  0  0
  1  2  2  0
  2  3  1  0
  3  4  2  3
  4  5  1  0
  5  6  2  0
  6  7  1  0
  7  8  2  0
  8  9  1  0
  9 10  2  0
 10 11  1  0
  8 12  1  0
  7 13  1  0
  6 14  1  0
  4 15  1  0
  3 16  1  0
  2 17  1  0
 17 18  1  0
 18 19  1  0
 19 20  2  0
 19 21  1  0
 21 22  2  0
 22 23  1  0
 23 24  1  0
 24 25  1  0
 24 26  1  0
 24 27  1  0
 23 28  2  0
 28 29  1  0
 29 30  2  0
 30 31  1  0
 29 32  1  0
 28 33  1  0
 22 34  1  0
 18 35  1  0
 17 36  1  0
 10  5  1  0
 30 21  1  0
M  END
>  <cnnaffinity>  (1) 
-4.82613

>  <filename>  (1) 
O=C(C=Cc1cccnc1)NNC(=O)c1cccc(C(F)(F)F)c1

$$$$
