
     RDKit          3D

 34 36  0  0  0  0  0  0  0  0999 V2000
    4.9824    1.7624   17.0550 H   0  0  0  0  0  0  0  0  0  0  0  0
    5.4512    1.2505   17.8887 C   0  0  0  0  0  0  0  0  0  0  0  0
    6.6151    0.6272   17.6270 N   0  0  0  0  0  0  0  0  0  0  0  0
    7.2247    0.0017   18.6418 C   0  0  0  0  0  0  0  0  0  0  0  0
    8.1781   -0.4788   18.4063 H   0  0  0  0  0  0  0  0  0  0  0  0
    6.7129   -0.0574   19.9722 C   0  0  0  0  0  0  0  0  0  0  0  0
    7.3586   -0.7116   20.9929 N   0  0  0  0  0  0  0  0  0  0  0  0
    8.6132   -1.4307   21.0409 C   0  0  0  0  0  0  0  0  0  0  0  0
    8.6332   -2.3214   20.4088 H   0  0  0  0  0  0  0  0  0  0  0  0
    9.4962   -0.8110   20.8316 H   0  0  0  0  0  0  0  0  0  0  0  0
    8.3177   -1.7282   22.5267 C   0  0  0  0  0  0  0  0  0  0  0  0
    9.0366   -1.2962   23.2273 H   0  0  0  0  0  0  0  0  0  0  0  0
    8.1692   -3.2086   22.8148 C   0  0  0  0  0  0  0  0  0  0  0  0
    8.6649   -4.0802   22.1205 O   0  0  0  0  0  0  0  0  0  0  0  0
    7.4354   -3.4925   23.9210 N   0  0  0  0  0  0  0  0  0  0  0  0
    7.0143   -2.7107   24.3773 H   0  0  0  0  0  0  0  0  0  0  0  0
    7.0543   -4.8566   24.2736 C   0  0  0  0  0  0  0  0  0  0  0  0
    6.6452   -4.8477   25.2944 H   0  0  0  0  0  0  0  0  0  0  0  0
    7.9593   -5.4682   24.2936 H   0  0  0  0  0  0  0  0  0  0  0  0
    6.0808   -5.4738   23.2904 C   0  0  0  0  0  0  0  0  0  0  0  0
    6.4929   -5.5605   22.2897 H   0  0  0  0  0  0  0  0  0  0  0  0
    5.1347   -6.5597   23.7110 C   0  0  0  0  0  0  0  0  0  0  0  0
    5.1568   -6.8841   24.7480 H   0  0  0  0  0  0  0  0  0  0  0  0
    4.9318   -7.3604   23.0060 H   0  0  0  0  0  0  0  0  0  0  0  0
    4.6128   -5.1855   23.3975 C   0  0  0  0  0  0  0  0  0  0  0  0
    4.2885   -4.5624   24.2263 H   0  0  0  0  0  0  0  0  0  0  0  0
    4.0480   -5.0383   22.4827 H   0  0  0  0  0  0  0  0  0  0  0  0
    7.0063   -0.9002   22.3857 C   0  0  0  0  0  0  0  0  0  0  0  0
    6.9712    0.0301   22.9718 H   0  0  0  0  0  0  0  0  0  0  0  0
    6.0602   -1.4404   22.5214 H   0  0  0  0  0  0  0  0  0  0  0  0
    5.4868    0.6021   20.2113 C   0  0  0  0  0  0  0  0  0  0  0  0
    5.0570    0.6027   21.2131 H   0  0  0  0  0  0  0  0  0  0  0  0
    4.8551    1.2595   19.1557 C   0  0  0  0  0  0  0  0  0  0  0  0
    3.9183    1.7914   19.3100 H   0  0  0  0  0  0  0  0  0  0  0  0
  1  2  1  0
  2  3  2  0
  3  4  1  0
  4  5  1  0
  4  6  2  0
  6  7  1  0
  7  8  1  0
  8  9  1  0
  8 10  1  0
  8 11  1  0
 11 12  1  0
 11 13  1  0
 13 14  2  0
 13 15  1  0
 15 16  1  0
 15 17  1  0
 17 18  1  0
 17 19  1  0
 17 20  1  0
 20 21  1  0
 20 22  1  0
 22 23  1  0
 22 24  1  0
 22 25  1  0
 25 26  1  0
 25 27  1  0
 11 28  1  0
 28 29  1  0
 28 30  1  0
  6 31  1  0
 31 32  1  0
 31 33  2  0
 33 34  1  0
 33  2  1  0
 28  7  1  0
 25 20  1  0
M  END
>  <cnnaffinity>  (1) 
-4.88837

>  <filename>  (1) 
O=C(NCC1CC1)C1CN(c2cccnc2)C1

$$$$
