
     RDKit          3D

 39 42  0  0  0  0  0  0  0  0999 V2000
    4.9658    1.8519   16.9931 H   0  0  0  0  0  0  0  0  0  0  0  0
    5.4930    1.3328   17.7889 C   0  0  0  0  0  0  0  0  0  0  0  0
    6.6518    0.7475   17.4457 N   0  0  0  0  0  0  0  0  0  0  0  0
    7.3363    0.0951   18.3940 C   0  0  0  0  0  0  0  0  0  0  0  0
    8.2679   -0.3799   18.0790 H   0  0  0  0  0  0  0  0  0  0  0  0
    6.8917   -0.0161   19.7247 C   0  0  0  0  0  0  0  0  0  0  0  0
    7.5939   -0.7878   20.6868 N   0  0  0  0  0  0  0  0  0  0  0  0
    8.9483   -0.7517   21.0208 C   0  0  0  0  0  0  0  0  0  0  0  0
    9.6061   -0.0712   20.5082 H   0  0  0  0  0  0  0  0  0  0  0  0
    9.1838   -1.6109   22.0542 C   0  0  0  0  0  0  0  0  0  0  0  0
   10.0726   -1.8603   22.6056 H   0  0  0  0  0  0  0  0  0  0  0  0
    7.9577   -2.1911   22.3594 N   0  0  0  0  0  0  0  0  0  0  0  0
    7.5120   -3.1418   23.2185 N   0  0  0  0  0  0  0  0  0  0  0  0
    6.2023   -3.2423   22.8780 C   0  0  0  0  0  0  0  0  0  0  0  0
    5.1287   -4.2219   23.3666 C   0  0  0  0  0  0  0  0  0  0  0  0
    4.1024   -4.3290   22.7007 O   0  0  0  0  0  0  0  0  0  0  0  0
    5.2900   -5.0208   24.4789 N   0  0  0  0  0  0  0  0  0  0  0  0
    4.7658   -6.3965   24.3501 C   0  0  0  0  0  0  0  0  0  0  0  0
    3.9380   -6.3744   23.6345 H   0  0  0  0  0  0  0  0  0  0  0  0
    5.5481   -7.0341   23.9114 H   0  0  0  0  0  0  0  0  0  0  0  0
    4.3019   -6.9714   25.6796 C   0  0  0  0  0  0  0  0  0  0  0  0
    3.3827   -6.4623   25.9948 H   0  0  0  0  0  0  0  0  0  0  0  0
    4.0502   -8.0306   25.5363 H   0  0  0  0  0  0  0  0  0  0  0  0
    5.3706   -6.7848   26.7563 C   0  0  0  0  0  0  0  0  0  0  0  0
    6.2756   -7.3310   26.4661 H   0  0  0  0  0  0  0  0  0  0  0  0
    5.0357   -7.2079   27.7083 H   0  0  0  0  0  0  0  0  0  0  0  0
    5.7067   -5.2980   26.8929 C   0  0  0  0  0  0  0  0  0  0  0  0
    4.7969   -4.7541   27.1766 H   0  0  0  0  0  0  0  0  0  0  0  0
    6.4442   -5.1281   27.6878 H   0  0  0  0  0  0  0  0  0  0  0  0
    6.2318   -4.7391   25.5687 C   0  0  0  0  0  0  0  0  0  0  0  0
    7.2125   -5.1736   25.3331 H   0  0  0  0  0  0  0  0  0  0  0  0
    6.3814   -3.6581   25.6460 H   0  0  0  0  0  0  0  0  0  0  0  0
    5.8406   -2.3689   21.8339 C   0  0  0  0  0  0  0  0  0  0  0  0
    4.8395   -2.3046   21.4732 H   0  0  0  0  0  0  0  0  0  0  0  0
    7.0045   -1.7046   21.5369 C   0  0  0  0  0  0  0  0  0  0  0  0
    5.6861    0.6159   20.0752 C   0  0  0  0  0  0  0  0  0  0  0  0
    5.3440    0.5807   21.1091 H   0  0  0  0  0  0  0  0  0  0  0  0
    4.9769    1.2985   19.0874 C   0  0  0  0  0  0  0  0  0  0  0  0
    4.0511    1.8149   19.3133 H   0  0  0  0  0  0  0  0  0  0  0  0
  1  2  1  0
  2  3  2  0
  3  4  1  0
  4  5  1  0
  4  6  2  0
  6  7  1  0
  7  8  1  0
  8  9  1  0
  8 10  2  0
 10 11  1  0
 10 12  1  0
 12 13  1  0
 13 14  2  0
 14 15  1  0
 15 16  2  0
 15 17  1  0
 17 18  1  0
 18 19  1  0
 18 20  1  0
 18 21  1  0
 21 22  1  0
 21 23  1  0
 21 24  1  0
 24 25  1  0
 24 26  1  0
 24 27  1  0
 27 28  1  0
 27 29  1  0
 27 30  1  0
 30 31  1  0
 30 32  1  0
 14 33  1  0
 33 34  1  0
 33 35  2  0
  6 36  1  0
 36 37  1  0
 36 38  2  0
 38 39  1  0
 38  2  1  0
 35  7  1  0
 35 12  1  0
 30 17  1  0
M  END
>  <cnnaffinity>  (1) 
-5.37055

>  <filename>  (1) 
O=C(c1cc2n(-c3cccnc3)ccn2n1)N1CCCCC1

$$$$
