
     RDKit          3D

 45 47  0  0  0  0  0  0  0  0999 V2000
    5.0471    1.9896   16.8349 H   0  0  0  0  0  0  0  0  0  0  0  0
    5.4900    1.4998   17.6970 C   0  0  0  0  0  0  0  0  0  0  0  0
    6.5552    0.7166   17.4506 N   0  0  0  0  0  0  0  0  0  0  0  0
    7.1249    0.1108   18.4992 C   0  0  0  0  0  0  0  0  0  0  0  0
    7.9767   -0.5348   18.2761 H   0  0  0  0  0  0  0  0  0  0  0  0
    6.7033    0.2526   19.8557 C   0  0  0  0  0  0  0  0  0  0  0  0
    7.3601   -0.4112   20.8923 N   0  0  0  0  0  0  0  0  0  0  0  0
    7.3392    0.0423   22.2876 C   0  0  0  0  0  0  0  0  0  0  0  0
    6.4020   -0.2342   22.8008 H   0  0  0  0  0  0  0  0  0  0  0  0
    7.4256    1.1346   22.3195 H   0  0  0  0  0  0  0  0  0  0  0  0
    8.5259   -0.5706   23.0556 C   0  0  0  0  0  0  0  0  0  0  0  0
    8.4964   -0.2490   24.1010 H   0  0  0  0  0  0  0  0  0  0  0  0
    9.4631   -0.2044   22.6198 H   0  0  0  0  0  0  0  0  0  0  0  0
    8.5620   -2.0571   23.0073 N   0  0  0  0  0  0  0  0  0  0  0  0
    8.2545   -2.6673   24.2198 N   0  0  0  0  0  0  0  0  0  0  0  0
    9.0571   -3.0484   24.6962 H   0  0  0  0  0  0  0  0  0  0  0  0
    7.0341   -3.1145   24.6684 C   0  0  0  0  0  0  0  0  0  0  0  0
    5.9582   -2.6659   24.3018 O   0  0  0  0  0  0  0  0  0  0  0  0
    7.1656   -4.2406   25.6855 C   0  0  0  0  0  0  0  0  0  0  0  0
    8.2067   -4.5949   25.6846 H   0  0  0  0  0  0  0  0  0  0  0  0
    6.3011   -5.4594   25.2999 C   0  0  0  0  0  0  0  0  0  0  0  0
    6.5630   -5.8049   24.2872 H   0  0  0  0  0  0  0  0  0  0  0  0
    5.2383   -5.1769   25.2816 H   0  0  0  0  0  0  0  0  0  0  0  0
    6.5776   -6.5825   26.3072 C   0  0  0  0  0  0  0  0  0  0  0  0
    7.6415   -6.8487   26.2085 H   0  0  0  0  0  0  0  0  0  0  0  0
    5.9861   -7.4758   26.0603 H   0  0  0  0  0  0  0  0  0  0  0  0
    6.3169   -6.1616   27.7613 C   0  0  0  0  0  0  0  0  0  0  0  0
    5.2365   -6.0499   27.9125 H   0  0  0  0  0  0  0  0  0  0  0  0
    6.6362   -6.9647   28.4401 H   0  0  0  0  0  0  0  0  0  0  0  0
    7.0251   -4.8548   28.1489 C   0  0  0  0  0  0  0  0  0  0  0  0
    6.6316   -4.5282   29.1178 H   0  0  0  0  0  0  0  0  0  0  0  0
    8.0954   -5.0528   28.2941 H   0  0  0  0  0  0  0  0  0  0  0  0
    6.8535   -3.7375   27.1105 C   0  0  0  0  0  0  0  0  0  0  0  0
    7.5174   -2.8993   27.3579 H   0  0  0  0  0  0  0  0  0  0  0  0
    5.8328   -3.3405   27.1319 H   0  0  0  0  0  0  0  0  0  0  0  0
    7.7940   -2.6460   21.8784 C   0  0  0  0  0  0  0  0  0  0  0  0
    8.2134   -3.6306   21.6541 H   0  0  0  0  0  0  0  0  0  0  0  0
    6.7390   -2.7747   22.1603 H   0  0  0  0  0  0  0  0  0  0  0  0
    7.8774   -1.7604   20.6425 C   0  0  0  0  0  0  0  0  0  0  0  0
    8.9177   -1.7378   20.2789 H   0  0  0  0  0  0  0  0  0  0  0  0
    7.2570   -2.2095   19.8596 H   0  0  0  0  0  0  0  0  0  0  0  0
    5.5743    1.0678   20.0770 C   0  0  0  0  0  0  0  0  0  0  0  0
    5.1870    1.1843   21.0894 H   0  0  0  0  0  0  0  0  0  0  0  0
    4.9644    1.6892   18.9812 C   0  0  0  0  0  0  0  0  0  0  0  0
    4.0929    2.3217   19.1142 H   0  0  0  0  0  0  0  0  0  0  0  0
  1  2  1  0
  2  3  2  0
  3  4  1  0
  4  5  1  0
  4  6  2  0
  6  7  1  0
  7  8  1  0
  8  9  1  0
  8 10  1  0
  8 11  1  0
 11 12  1  0
 11 13  1  0
 11 14  1  0
 14 15  1  0
 15 16  1  0
 15 17  1  0
 17 18  2  0
 17 19  1  0
 19 20  1  0
 19 21  1  0
 21 22  1  0
 21 23  1  0
 21 24  1  0
 24 25  1  0
 24 26  1  0
 24 27  1  0
 27 28  1  0
 27 29  1  0
 27 30  1  0
 30 31  1  0
 30 32  1  0
 30 33  1  0
 33 34  1  0
 33 35  1  0
 14 36  1  0
 36 37  1  0
 36 38  1  0
 36 39  1  0
 39 40  1  0
 39 41  1  0
  6 42  1  0
 42 43  1  0
 42 44  2  0
 44 45  1  0
 44  2  1  0
 39  7  1  0
 33 19  1  0
M  END
>  <cnnaffinity>  (1) 
-5.09837

>  <filename>  (1) 
O=C(NN1CCN(c2cccnc2)CC1)C1CCCCC1

$$$$
