
     RDKit          3D

 41 43  0  0  0  0  0  0  0  0999 V2000
    5.0377    1.8918   16.9467 H   0  0  0  0  0  0  0  0  0  0  0  0
    5.4483    1.3522   17.7990 C   0  0  0  0  0  0  0  0  0  0  0  0
    6.6026    0.7001   17.5841 N   0  0  0  0  0  0  0  0  0  0  0  0
    7.1420    0.0303   18.6102 C   0  0  0  0  0  0  0  0  0  0  0  0
    8.1054   -0.4478   18.4494 H   0  0  0  0  0  0  0  0  0  0  0  0
    6.5402   -0.0629   19.8782 C   0  0  0  0  0  0  0  0  0  0  0  0
    7.1868   -0.7510   20.9728 N   0  0  0  0  0  0  0  0  0  0  0  0
    7.8093    0.0499   21.9254 C   0  0  0  0  0  0  0  0  0  0  0  0
    7.7291    1.1227   21.7852 H   0  0  0  0  0  0  0  0  0  0  0  0
    8.4587   -0.4785   22.9891 C   0  0  0  0  0  0  0  0  0  0  0  0
    8.8706    0.3612   24.0702 N   0  0  0  0  0  0  0  0  0  0  0  0
    8.8997   -0.0586   24.9877 H   0  0  0  0  0  0  0  0  0  0  0  0
    9.0423    1.7388   24.0190 C   0  0  0  0  0  0  0  0  0  0  0  0
    9.1926    2.3008   22.9505 O   0  0  0  0  0  0  0  0  0  0  0  0
    9.0124    2.4876   25.3716 C   0  0  0  0  0  0  0  0  0  0  0  0
    9.7252    1.9590   26.0233 H   0  0  0  0  0  0  0  0  0  0  0  0
    9.4513    3.9648   25.2088 C   0  0  0  0  0  0  0  0  0  0  0  0
   10.4097    4.0266   24.6835 H   0  0  0  0  0  0  0  0  0  0  0  0
    9.6023    4.3920   26.2125 H   0  0  0  0  0  0  0  0  0  0  0  0
    8.4071    4.7958   24.4489 C   0  0  0  0  0  0  0  0  0  0  0  0
    8.7792    5.8196   24.3253 H   0  0  0  0  0  0  0  0  0  0  0  0
    8.2874    4.3555   23.4488 H   0  0  0  0  0  0  0  0  0  0  0  0
    7.0553    4.7807   25.1758 C   0  0  0  0  0  0  0  0  0  0  0  0
    7.1535    5.2367   26.1772 H   0  0  0  0  0  0  0  0  0  0  0  0
    6.3270    5.3969   24.6272 H   0  0  0  0  0  0  0  0  0  0  0  0
    6.5628    3.3280   25.3315 C   0  0  0  0  0  0  0  0  0  0  0  0
    6.3246    2.9216   24.3359 H   0  0  0  0  0  0  0  0  0  0  0  0
    5.6265    3.3017   25.9016 H   0  0  0  0  0  0  0  0  0  0  0  0
    7.6114    2.4506   26.0475 C   0  0  0  0  0  0  0  0  0  0  0  0
    7.2638    1.4149   26.1517 H   0  0  0  0  0  0  0  0  0  0  0  0
    7.7331    2.8342   27.0710 H   0  0  0  0  0  0  0  0  0  0  0  0
    8.6112   -1.9807   23.0361 C   0  0  0  0  0  0  0  0  0  0  0  0
    9.0898   -2.6448   23.9277 O   0  0  0  0  0  0  0  0  0  0  0  0
    8.1137   -2.6542   21.9336 N   0  0  0  0  0  0  0  0  0  0  0  0
    8.0588   -3.6440   22.0875 H   0  0  0  0  0  0  0  0  0  0  0  0
    7.1216   -2.1612   21.1232 C   0  0  0  0  0  0  0  0  0  0  0  0
    6.3243   -2.8856   20.5855 O   0  0  0  0  0  0  0  0  0  0  0  0
    5.3555    0.6439   20.0981 C   0  0  0  0  0  0  0  0  0  0  0  0
    4.9129    0.6349   21.0935 H   0  0  0  0  0  0  0  0  0  0  0  0
    4.7941    1.3650   19.0368 C   0  0  0  0  0  0  0  0  0  0  0  0
    3.8740    1.9301   19.1527 H   0  0  0  0  0  0  0  0  0  0  0  0
  1  2  1  0
  2  3  2  0
  3  4  1  0
  4  5  1  0
  4  6  2  0
  6  7  1  0
  7  8  1  0
  8  9  1  0
  8 10  2  0
 10 11  1  0
 11 12  1  0
 11 13  1  0
 13 14  2  0
 13 15  1  0
 15 16  1  0
 15 17  1  0
 17 18  1  0
 17 19  1  0
 17 20  1  0
 20 21  1  0
 20 22  1  0
 20 23  1  0
 23 24  1  0
 23 25  1  0
 23 26  1  0
 26 27  1  0
 26 28  1  0
 26 29  1  0
 29 30  1  0
 29 31  1  0
 10 32  1  0
 32 33  2  0
 32 34  1  0
 34 35  1  0
 34 36  1  0
 36 37  2  0
  6 38  1  0
 38 39  1  0
 38 40  2  0
 40 41  1  0
 40  2  1  0
 36  7  1  0
 29 15  1  0
M  END
>  <cnnaffinity>  (1) 
-5.44306

>  <filename>  (1) 
O=C(Nc1cn(-c2cccnc2)c(=O)[nH]c1=O)C1CCCCC1

$$$$
