
     RDKit          3D

 40 42  0  0  0  0  0  0  0  0999 V2000
    4.9270    1.8012   16.9783 H   0  0  0  0  0  0  0  0  0  0  0  0
    5.3909    1.2940   17.8246 C   0  0  0  0  0  0  0  0  0  0  0  0
    6.5525    0.6696   17.5692 N   0  0  0  0  0  0  0  0  0  0  0  0
    7.1577    0.0643   18.6005 C   0  0  0  0  0  0  0  0  0  0  0  0
    8.1063   -0.4201   18.3590 H   0  0  0  0  0  0  0  0  0  0  0  0
    6.6599    0.0430   19.9195 C   0  0  0  0  0  0  0  0  0  0  0  0
    7.3590   -0.6965   21.0173 C   0  0  0  0  0  0  0  0  0  0  0  0
    7.8020   -0.1202   22.2354 C   0  0  0  0  0  0  0  0  0  0  0  0
    7.7082    1.4290   22.4219 C   0  0  0  0  0  0  0  0  0  0  0  0
    7.7362    2.1903   21.4645 O   0  0  0  0  0  0  0  0  0  0  0  0
    7.5576    1.8825   23.7004 N   0  0  0  0  0  0  0  0  0  0  0  0
    7.6383    1.1805   24.4238 H   0  0  0  0  0  0  0  0  0  0  0  0
    7.6097    3.3095   24.0151 C   0  0  0  0  0  0  0  0  0  0  0  0
    6.9521    3.8259   23.2959 H   0  0  0  0  0  0  0  0  0  0  0  0
    7.0991    3.5608   25.4397 C   0  0  0  0  0  0  0  0  0  0  0  0
    7.7355    2.9958   26.1416 H   0  0  0  0  0  0  0  0  0  0  0  0
    6.0839    3.1571   25.5336 H   0  0  0  0  0  0  0  0  0  0  0  0
    7.1337    5.0604   25.8028 C   0  0  0  0  0  0  0  0  0  0  0  0
    6.4162    5.5996   25.1629 H   0  0  0  0  0  0  0  0  0  0  0  0
    6.7914    5.2077   26.8350 H   0  0  0  0  0  0  0  0  0  0  0  0
    8.5405    5.6570   25.6067 C   0  0  0  0  0  0  0  0  0  0  0  0
    8.5334    6.7327   25.8248 H   0  0  0  0  0  0  0  0  0  0  0  0
    9.2291    5.2009   26.3347 H   0  0  0  0  0  0  0  0  0  0  0  0
    9.0681    5.3986   24.1831 C   0  0  0  0  0  0  0  0  0  0  0  0
    8.4534    5.9562   23.4573 H   0  0  0  0  0  0  0  0  0  0  0  0
   10.0900    5.7842   24.0730 H   0  0  0  0  0  0  0  0  0  0  0  0
    9.0272    3.8980   23.8298 C   0  0  0  0  0  0  0  0  0  0  0  0
    9.3384    3.7274   22.7919 H   0  0  0  0  0  0  0  0  0  0  0  0
    9.7262    3.3396   24.4729 H   0  0  0  0  0  0  0  0  0  0  0  0
    8.3308   -0.8814   23.2251 N   0  0  0  0  0  0  0  0  0  0  0  0
    8.5312   -2.1877   23.0185 C   0  0  0  0  0  0  0  0  0  0  0  0
    8.9958   -2.7433   23.8370 H   0  0  0  0  0  0  0  0  0  0  0  0
    8.1490   -2.8338   21.8371 C   0  0  0  0  0  0  0  0  0  0  0  0
    8.3128   -3.8986   21.7197 H   0  0  0  0  0  0  0  0  0  0  0  0
    7.5200   -2.0757   20.8526 C   0  0  0  0  0  0  0  0  0  0  0  0
    7.0759   -2.5091   19.9612 H   0  0  0  0  0  0  0  0  0  0  0  0
    5.4310    0.6690   20.1499 C   0  0  0  0  0  0  0  0  0  0  0  0
    5.0069    0.6498   21.1530 H   0  0  0  0  0  0  0  0  0  0  0  0
    4.7912    1.3107   19.0869 C   0  0  0  0  0  0  0  0  0  0  0  0
    3.8626    1.8477   19.2296 H   0  0  0  0  0  0  0  0  0  0  0  0
  1  2  1  0
  2  3  2  0
  3  4  1  0
  4  5  1  0
  4  6  2  0
  6  7  1  0
  7  8  1  0
  8  9  1  0
  9 10  2  0
  9 11  1  0
 11 12  1  0
 11 13  1  0
 13 14  1  0
 13 15  1  0
 15 16  1  0
 15 17  1  0
 15 18  1  0
 18 19  1  0
 18 20  1  0
 18 21  1  0
 21 22  1  0
 21 23  1  0
 21 24  1  0
 24 25  1  0
 24 26  1  0
 24 27  1  0
 27 28  1  0
 27 29  1  0
  8 30  2  0
 30 31  1  0
 31 32  1  0
 31 33  2  0
 33 34  1  0
 33 35  1  0
 35 36  1  0
  6 37  1  0
 37 38  1  0
 37 39  2  0
 39 40  1  0
 39  2  1  0
 35  7  2  0
 27 13  1  0
M  END
>  <cnnaffinity>  (1) 
-4.97861

>  <filename>  (1) 
O=C(NC1CCCCC1)c1ncccc1-c1cccnc1

$$$$
