
     RDKit          3D

 40 42  0  0  0  0  0  0  0  0999 V2000
    5.0188    1.8816   17.0162 H   0  0  0  0  0  0  0  0  0  0  0  0
    5.5143    1.3243   17.8090 C   0  0  0  0  0  0  0  0  0  0  0  0
    6.6883    0.7524   17.4951 N   0  0  0  0  0  0  0  0  0  0  0  0
    7.3390    0.0878   18.4609 C   0  0  0  0  0  0  0  0  0  0  0  0
    8.2730   -0.3890   18.1657 H   0  0  0  0  0  0  0  0  0  0  0  0
    6.8684   -0.0582   19.7946 C   0  0  0  0  0  0  0  0  0  0  0  0
    7.6011   -0.7284   20.7967 N   0  0  0  0  0  0  0  0  0  0  0  0
    6.9392   -1.5432   21.8001 C   0  0  0  0  0  0  0  0  0  0  0  0
    7.5932   -2.3989   21.9997 H   0  0  0  0  0  0  0  0  0  0  0  0
    6.0148   -1.9442   21.3724 H   0  0  0  0  0  0  0  0  0  0  0  0
    6.6211   -0.9051   23.1673 C   0  0  0  0  0  0  0  0  0  0  0  0
    5.9061   -0.0878   23.0233 H   0  0  0  0  0  0  0  0  0  0  0  0
    6.1244   -1.6674   23.7717 H   0  0  0  0  0  0  0  0  0  0  0  0
    7.7586   -0.3486   23.8930 N   0  0  0  0  0  0  0  0  0  0  0  0
    8.5545   -1.0346   24.8001 C   0  0  0  0  0  0  0  0  0  0  0  0
    9.7545   -0.7895   24.8830 O   0  0  0  0  0  0  0  0  0  0  0  0
    7.8943   -2.0768   25.6923 C   0  0  0  0  0  0  0  0  0  0  0  0
    8.6401   -3.2055   26.0900 C   0  0  0  0  0  0  0  0  0  0  0  0
    9.6769   -3.3085   25.7773 H   0  0  0  0  0  0  0  0  0  0  0  0
    8.0651   -4.1851   26.9052 C   0  0  0  0  0  0  0  0  0  0  0  0
    8.6467   -5.0556   27.1917 H   0  0  0  0  0  0  0  0  0  0  0  0
    6.7550   -4.0380   27.3703 C   0  0  0  0  0  0  0  0  0  0  0  0
    6.3182   -4.7924   28.0187 H   0  0  0  0  0  0  0  0  0  0  0  0
    6.0196   -2.9044   27.0167 C   0  0  0  0  0  0  0  0  0  0  0  0
    5.0054   -2.7766   27.3783 H   0  0  0  0  0  0  0  0  0  0  0  0
    6.5867   -1.9230   26.1979 C   0  0  0  0  0  0  0  0  0  0  0  0
    6.0003   -1.0327   25.9751 H   0  0  0  0  0  0  0  0  0  0  0  0
    8.2437    0.9297   23.3660 C   0  0  0  0  0  0  0  0  0  0  0  0
    7.3546    1.5577   23.2107 H   0  0  0  0  0  0  0  0  0  0  0  0
    8.8208    1.4221   24.1561 H   0  0  0  0  0  0  0  0  0  0  0  0
    9.1026    0.8818   22.0792 C   0  0  0  0  0  0  0  0  0  0  0  0
    8.8990    1.8056   21.5216 H   0  0  0  0  0  0  0  0  0  0  0  0
   10.1566    0.9083   22.3735 H   0  0  0  0  0  0  0  0  0  0  0  0
    8.9579   -0.3302   21.1355 C   0  0  0  0  0  0  0  0  0  0  0  0
    9.4435   -1.2046   21.5893 H   0  0  0  0  0  0  0  0  0  0  0  0
    9.5078   -0.1250   20.2063 H   0  0  0  0  0  0  0  0  0  0  0  0
    5.6025    0.4901   20.0665 C   0  0  0  0  0  0  0  0  0  0  0  0
    5.1794    0.3344   21.0545 H   0  0  0  0  0  0  0  0  0  0  0  0
    4.9331    1.2159   19.0763 C   0  0  0  0  0  0  0  0  0  0  0  0
    3.9785    1.6899   19.2767 H   0  0  0  0  0  0  0  0  0  0  0  0
  1  2  1  0
  2  3  2  0
  3  4  1  0
  4  5  1  0
  4  6  2  0
  6  7  1  0
  7  8  1  0
  8  9  1  0
  8 10  1  0
  8 11  1  0
 11 12  1  0
 11 13  1  0
 11 14  1  0
 14 15  1  0
 15 16  2  0
 15 17  1  0
 17 18  2  0
 18 19  1  0
 18 20  1  0
 20 21  1  0
 20 22  2  0
 22 23  1  0
 22 24  1  0
 24 25  1  0
 24 26  2  0
 26 27  1  0
 14 28  1  0
 28 29  1  0
 28 30  1  0
 28 31  1  0
 31 32  1  0
 31 33  1  0
 31 34  1  0
 34 35  1  0
 34 36  1  0
  6 37  1  0
 37 38  1  0
 37 39  2  0
 39 40  1  0
 39  2  1  0
 34  7  1  0
 26 17  1  0
M  END
>  <cnnaffinity>  (1) 
-4.92934

>  <filename>  (1) 
O=C(c1ccccc1)N1CCCN(c2cccnc2)CC1

$$$$
