
     RDKit          3D

 35 37  0  0  0  0  0  0  0  0999 V2000
    4.9527    1.8063   16.9956 H   0  0  0  0  0  0  0  0  0  0  0  0
    5.4080    1.2890   17.8354 C   0  0  0  0  0  0  0  0  0  0  0  0
    6.5690    0.6555   17.5868 N   0  0  0  0  0  0  0  0  0  0  0  0
    7.1716    0.0284   18.5983 C   0  0  0  0  0  0  0  0  0  0  0  0
    8.1133   -0.4757   18.3866 H   0  0  0  0  0  0  0  0  0  0  0  0
    6.6443    0.0065   19.9014 C   0  0  0  0  0  0  0  0  0  0  0  0
    7.3352   -0.6776   20.9408 N   0  0  0  0  0  0  0  0  0  0  0  0
    7.9230   -1.8756   20.7349 N   0  0  0  0  0  0  0  0  0  0  0  0
    8.4832   -2.2103   21.8377 N   0  0  0  0  0  0  0  0  0  0  0  0
    8.3047   -1.2627   22.7830 N   0  0  0  0  0  0  0  0  0  0  0  0
    7.5836   -0.3152   22.2290 C   0  0  0  0  0  0  0  0  0  0  0  0
    7.1617    0.9730   22.8758 C   0  0  0  0  0  0  0  0  0  0  0  0
    7.1511    1.7658   22.1154 H   0  0  0  0  0  0  0  0  0  0  0  0
    7.9351    1.2472   23.6070 H   0  0  0  0  0  0  0  0  0  0  0  0
    5.8249    0.9680   23.5165 N   0  0  0  0  0  0  0  0  0  0  0  0
    5.4535    0.1088   23.8974 H   0  0  0  0  0  0  0  0  0  0  0  0
    5.4812    2.0662   24.2885 C   0  0  0  0  0  0  0  0  0  0  0  0
    6.1189    3.1019   24.2937 O   0  0  0  0  0  0  0  0  0  0  0  0
    4.3365    1.8390   25.0098 N   0  0  0  0  0  0  0  0  0  0  0  0
    3.8331    1.0064   24.7708 H   0  0  0  0  0  0  0  0  0  0  0  0
    3.7318    2.7774   25.8731 C   0  0  0  0  0  0  0  0  0  0  0  0
    2.3365    2.8773   25.9502 C   0  0  0  0  0  0  0  0  0  0  0  0
    1.7174    2.2388   25.3275 H   0  0  0  0  0  0  0  0  0  0  0  0
    1.7531    3.8233   26.8042 C   0  0  0  0  0  0  0  0  0  0  0  0
    0.6670    3.9161   26.8519 H   0  0  0  0  0  0  0  0  0  0  0  0
    2.5634    4.6502   27.5927 C   0  0  0  0  0  0  0  0  0  0  0  0
    2.1150    5.3853   28.2536 H   0  0  0  0  0  0  0  0  0  0  0  0
    3.9574    4.5378   27.5254 C   0  0  0  0  0  0  0  0  0  0  0  0
    4.5987    5.1779   28.1327 H   0  0  0  0  0  0  0  0  0  0  0  0
    4.5386    3.6096   26.6617 C   0  0  0  0  0  0  0  0  0  0  0  0
    5.6109    3.5219   26.5586 H   0  0  0  0  0  0  0  0  0  0  0  0
    5.4354    0.6589   20.1557 C   0  0  0  0  0  0  0  0  0  0  0  0
    5.0123    0.6611   21.1583 H   0  0  0  0  0  0  0  0  0  0  0  0
    4.8009    1.3090   19.0935 C   0  0  0  0  0  0  0  0  0  0  0  0
    3.8670    1.8438   19.2377 H   0  0  0  0  0  0  0  0  0  0  0  0
  1  2  1  0
  2  3  2  0
  3  4  1  0
  4  5  1  0
  4  6  2  0
  6  7  1  0
  7  8  1  0
  8  9  2  0
  9 10  1  0
 10 11  2  0
 11 12  1  0
 12 13  1  0
 12 14  1  0
 12 15  1  0
 15 16  1  0
 15 17  1  0
 17 18  2  0
 17 19  1  0
 19 20  1  0
 19 21  1  0
 21 22  2  0
 22 23  1  0
 22 24  1  0
 24 25  1  0
 24 26  2  0
 26 27  1  0
 26 28  1  0
 28 29  1  0
 28 30  2  0
 30 31  1  0
  6 32  1  0
 32 33  1  0
 32 34  2  0
 34 35  1  0
 34  2  1  0
 11  7  1  0
 30 21  1  0
M  END
>  <cnnaffinity>  (1) 
-4.91431

>  <filename>  (1) 
O=C(NCc1nnnn1-c1cccnc1)Nc1ccccc1

$$$$
