
     RDKit          3D

 40 42  0  0  0  0  0  0  0  0999 V2000
    4.9857    1.7615   17.0131 H   0  0  0  0  0  0  0  0  0  0  0  0
    5.4235    1.2663   17.8785 C   0  0  0  0  0  0  0  0  0  0  0  0
    6.5858    0.6356   17.6588 N   0  0  0  0  0  0  0  0  0  0  0  0
    7.1707    0.0261   18.6979 C   0  0  0  0  0  0  0  0  0  0  0  0
    8.1230   -0.4554   18.4832 H   0  0  0  0  0  0  0  0  0  0  0  0
    6.6235   -0.0050   19.9897 C   0  0  0  0  0  0  0  0  0  0  0  0
    7.3923   -0.7239   21.0401 C   0  0  0  0  0  0  0  0  0  0  0  0
    8.4788   -1.2194   20.8316 O   0  0  0  0  0  0  0  0  0  0  0  0
    6.7313   -0.7695   22.2175 O   0  0  0  0  0  0  0  0  0  0  0  0
    7.3439   -1.2596   23.4112 C   0  0  0  0  0  0  0  0  0  0  0  0
    6.3883   -1.1238   24.5770 C   0  0  0  0  0  0  0  0  0  0  0  0
    5.5817   -1.8645   24.4802 H   0  0  0  0  0  0  0  0  0  0  0  0
    6.9337   -1.3864   25.4935 H   0  0  0  0  0  0  0  0  0  0  0  0
    5.7771    0.2676   24.7677 C   0  0  0  0  0  0  0  0  0  0  0  0
    5.1069    0.4885   23.9280 H   0  0  0  0  0  0  0  0  0  0  0  0
    5.1377    0.2610   25.6752 H   0  0  0  0  0  0  0  0  0  0  0  0
    6.7948    1.3145   24.8326 N   0  0  0  0  0  0  0  0  0  0  0  0
    6.2991    2.6012   24.3255 C   0  0  0  0  0  0  0  0  0  0  0  0
    5.4269    2.9678   24.9032 H   0  0  0  0  0  0  0  0  0  0  0  0
    5.9794    2.4583   23.2843 H   0  0  0  0  0  0  0  0  0  0  0  0
    7.4002    3.6601   24.3594 C   0  0  0  0  0  0  0  0  0  0  0  0
    8.1969    3.3680   23.6543 H   0  0  0  0  0  0  0  0  0  0  0  0
    6.9963    4.6327   24.0669 H   0  0  0  0  0  0  0  0  0  0  0  0
    7.9378    3.8192   25.6676 O   0  0  0  0  0  0  0  0  0  0  0  0
    8.4411    2.5804   26.1591 C   0  0  0  0  0  0  0  0  0  0  0  0
    9.2921    2.2462   25.5383 H   0  0  0  0  0  0  0  0  0  0  0  0
    8.7763    2.7761   27.1767 H   0  0  0  0  0  0  0  0  0  0  0  0
    7.3689    1.4876   26.1761 C   0  0  0  0  0  0  0  0  0  0  0  0
    7.8276    0.5489   26.5161 H   0  0  0  0  0  0  0  0  0  0  0  0
    6.5948    1.7638   26.9200 H   0  0  0  0  0  0  0  0  0  0  0  0
    8.2297   -2.4649   23.4139 C   0  0  0  0  0  0  0  0  0  0  0  0
    8.1177   -3.1585   24.2493 H   0  0  0  0  0  0  0  0  0  0  0  0
    8.4789   -2.9363   22.4689 H   0  0  0  0  0  0  0  0  0  0  0  0
    8.8069   -1.0834   23.6892 C   0  0  0  0  0  0  0  0  0  0  0  0
    9.0583   -0.8248   24.7208 H   0  0  0  0  0  0  0  0  0  0  0  0
    9.4345   -0.6339   22.9279 H   0  0  0  0  0  0  0  0  0  0  0  0
    5.3996    0.6558   20.2017 C   0  0  0  0  0  0  0  0  0  0  0  0
    4.9288    0.6695   21.1825 H   0  0  0  0  0  0  0  0  0  0  0  0
    4.7957    1.3041   19.1264 C   0  0  0  0  0  0  0  0  0  0  0  0
    3.8656    1.8466   19.2370 H   0  0  0  0  0  0  0  0  0  0  0  0
  1  2  1  0
  2  3  2  0
  3  4  1  0
  4  5  1  0
  4  6  2  0
  6  7  1  0
  7  8  2  0
  7  9  1  0
  9 10  1  0
 10 11  1  0
 11 12  1  0
 11 13  1  0
 11 14  1  0
 14 15  1  0
 14 16  1  0
 14 17  1  0
 17 18  1  0
 18 19  1  0
 18 20  1  0
 18 21  1  0
 21 22  1  0
 21 23  1  0
 21 24  1  0
 24 25  1  0
 25 26  1  0
 25 27  1  0
 25 28  1  0
 28 29  1  0
 28 30  1  0
 10 31  1  0
 31 32  1  0
 31 33  1  0
 31 34  1  0
 34 35  1  0
 34 36  1  0
  6 37  1  0
 37 38  1  0
 37 39  2  0
 39 40  1  0
 39  2  1  0
 34 10  1  0
 28 17  1  0
M  END
>  <cnnaffinity>  (1) 
-4.74396

>  <filename>  (1) 
O=C(OC1(CCN2CCOCC2)CC1)c1cccnc1

$$$$
