
     RDKit          3D

 33 35  0  0  0  0  0  0  0  0999 V2000
    4.8400    1.7822   16.8269 H   0  0  0  0  0  0  0  0  0  0  0  0
    5.3536    1.3059   17.6600 C   0  0  0  0  0  0  0  0  0  0  0  0
    6.4935    0.6579   17.3678 N   0  0  0  0  0  0  0  0  0  0  0  0
    7.1831    0.1015   18.3729 C   0  0  0  0  0  0  0  0  0  0  0  0
    8.1025   -0.4147   18.0947 H   0  0  0  0  0  0  0  0  0  0  0  0
    6.7658    0.1563   19.7225 C   0  0  0  0  0  0  0  0  0  0  0  0
    7.4858   -0.4469   20.8021 N   0  0  0  0  0  0  0  0  0  0  0  0
    6.8976   -1.2860   21.7309 C   0  0  0  0  0  0  0  0  0  0  0  0
    5.8338   -1.4923   21.7302 H   0  0  0  0  0  0  0  0  0  0  0  0
    7.8402   -1.7846   22.5644 C   0  0  0  0  0  0  0  0  0  0  0  0
    7.4958   -2.8016   23.6221 C   0  0  0  0  0  0  0  0  0  0  0  0
    6.3507   -3.2163   23.6940 O   0  0  0  0  0  0  0  0  0  0  0  0
    8.4889   -3.2167   24.4594 N   0  0  0  0  0  0  0  0  0  0  0  0
    9.3054   -2.6400   24.4825 H   0  0  0  0  0  0  0  0  0  0  0  0
    8.3701   -4.1693   25.4949 C   0  0  0  0  0  0  0  0  0  0  0  0
    9.2248   -4.0496   26.5939 C   0  0  0  0  0  0  0  0  0  0  0  0
    9.9035   -3.2078   26.6533 H   0  0  0  0  0  0  0  0  0  0  0  0
    9.1684   -4.9934   27.6211 C   0  0  0  0  0  0  0  0  0  0  0  0
    9.8539   -4.9217   28.4567 H   0  0  0  0  0  0  0  0  0  0  0  0
    8.2533   -6.0463   27.5606 C   0  0  0  0  0  0  0  0  0  0  0  0
    8.2147   -6.7577   28.3798 H   0  0  0  0  0  0  0  0  0  0  0  0
    7.3978   -6.1618   26.4610 C   0  0  0  0  0  0  0  0  0  0  0  0
    6.6926   -6.9889   26.4162 H   0  0  0  0  0  0  0  0  0  0  0  0
    7.4482   -5.2246   25.4232 C   0  0  0  0  0  0  0  0  0  0  0  0
    6.7673   -5.2724   24.5852 H   0  0  0  0  0  0  0  0  0  0  0  0
    9.0522   -1.1816   22.1564 N   0  0  0  0  0  0  0  0  0  0  0  0
   10.0238   -1.3913   22.3216 H   0  0  0  0  0  0  0  0  0  0  0  0
    8.8695   -0.3757   21.0545 C   0  0  0  0  0  0  0  0  0  0  0  0
    9.7410    0.2253   20.4636 O   0  0  0  0  0  0  0  0  0  0  0  0
    5.5525    0.7997   20.0039 C   0  0  0  0  0  0  0  0  0  0  0  0
    5.1954    0.8396   21.0334 H   0  0  0  0  0  0  0  0  0  0  0  0
    4.8399    1.3901   18.9572 C   0  0  0  0  0  0  0  0  0  0  0  0
    3.9084    1.9155   19.1407 H   0  0  0  0  0  0  0  0  0  0  0  0
  1  2  1  0
  2  3  2  0
  3  4  1  0
  4  5  1  0
  4  6  2  0
  6  7  1  0
  7  8  1  0
  8  9  1  0
  8 10  2  0
 10 11  1  0
 11 12  2  0
 11 13  1  0
 13 14  1  0
 13 15  1  0
 15 16  2  0
 16 17  1  0
 16 18  1  0
 18 19  1  0
 18 20  2  0
 20 21  1  0
 20 22  1  0
 22 23  1  0
 22 24  2  0
 24 25  1  0
 10 26  1  0
 26 27  1  0
 26 28  1  0
 28 29  2  0
  6 30  1  0
 30 31  1  0
 30 32  2  0
 32 33  1  0
 32  2  1  0
 28  7  1  0
 24 15  1  0
M  END
>  <cnnaffinity>  (1) 
-5.00338

>  <filename>  (1) 
O=C(Nc1ccccc1)c1cn(-c2cccnc2)c(=O)[nH]1

$$$$
