
     RDKit          3D

 33 35  0  0  0  0  0  0  0  0999 V2000
    5.1307    1.6379   17.1779 H   0  0  0  0  0  0  0  0  0  0  0  0
    5.5048    1.2550   18.1258 C   0  0  0  0  0  0  0  0  0  0  0  0
    6.6347    0.5370   18.0670 N   0  0  0  0  0  0  0  0  0  0  0  0
    7.1127    0.0407   19.2184 C   0  0  0  0  0  0  0  0  0  0  0  0
    8.0395   -0.5236   19.1597 H   0  0  0  0  0  0  0  0  0  0  0  0
    6.4860    0.2055   20.4676 C   0  0  0  0  0  0  0  0  0  0  0  0
    6.9651   -0.5207   21.6742 C   0  0  0  0  0  0  0  0  0  0  0  0
    8.0335   -0.4004   22.5492 C   0  0  0  0  0  0  0  0  0  0  0  0
    9.2263    0.5039   22.3678 C   0  0  0  0  0  0  0  0  0  0  0  0
    8.8967    1.4489   21.9268 H   0  0  0  0  0  0  0  0  0  0  0  0
    9.6777    0.7376   23.3339 H   0  0  0  0  0  0  0  0  0  0  0  0
   10.2775   -0.0841   21.4170 C   0  0  0  0  0  0  0  0  0  0  0  0
    9.9323   -0.4873   20.3234 O   0  0  0  0  0  0  0  0  0  0  0  0
   11.6973   -0.2277   21.8944 C   0  0  0  0  0  0  0  0  0  0  0  0
   12.2428    0.6228   22.8758 C   0  0  0  0  0  0  0  0  0  0  0  0
   11.6655    1.4642   23.2555 H   0  0  0  0  0  0  0  0  0  0  0  0
   13.5148    0.3769   23.3890 C   0  0  0  0  0  0  0  0  0  0  0  0
   13.8861    0.9716   24.2217 H   0  0  0  0  0  0  0  0  0  0  0  0
   14.2625   -0.6931   22.8972 C   0  0  0  0  0  0  0  0  0  0  0  0
   15.1715   -0.9561   23.4062 H   0  0  0  0  0  0  0  0  0  0  0  0
   13.7668   -1.5069   21.8722 C   0  0  0  0  0  0  0  0  0  0  0  0
   14.3614   -2.3358   21.4952 H   0  0  0  0  0  0  0  0  0  0  0  0
   12.4797   -1.2843   21.3861 C   0  0  0  0  0  0  0  0  0  0  0  0
   12.0708   -1.9553   20.6365 H   0  0  0  0  0  0  0  0  0  0  0  0
    7.8021   -1.3984   23.5317 C   0  0  0  0  0  0  0  0  0  0  0  0
    8.3903   -1.6440   24.4105 H   0  0  0  0  0  0  0  0  0  0  0  0
    6.7129   -2.1117   23.2690 N   0  0  0  0  0  0  0  0  0  0  0  0
    6.2373   -1.5627   22.1424 N   0  0  0  0  0  0  0  0  0  0  0  0
    5.3306   -1.8367   21.7840 H   0  0  0  0  0  0  0  0  0  0  0  0
    5.3103    0.9763   20.5029 C   0  0  0  0  0  0  0  0  0  0  0  0
    4.7978    1.1478   21.4491 H   0  0  0  0  0  0  0  0  0  0  0  0
    4.8162    1.5107   19.3143 C   0  0  0  0  0  0  0  0  0  0  0  0
    3.9121    2.1096   19.2951 H   0  0  0  0  0  0  0  0  0  0  0  0
  1  2  1  0
  2  3  2  0
  3  4  1  0
  4  5  1  0
  4  6  2  0
  6  7  1  0
  7  8  2  0
  8  9  1  0
  9 10  1  0
  9 11  1  0
  9 12  1  0
 12 13  2  0
 12 14  1  0
 14 15  2  0
 15 16  1  0
 15 17  1  0
 17 18  1  0
 17 19  2  0
 19 20  1  0
 19 21  1  0
 21 22  1  0
 21 23  2  0
 23 24  1  0
  8 25  1  0
 25 26  1  0
 25 27  2  0
 27 28  1  0
 28 29  1  0
  6 30  1  0
 30 31  1  0
 30 32  2  0
 32 33  1  0
 32  2  1  0
 28  7  1  0
 23 14  1  0
M  END
>  <cnnaffinity>  (1) 
-5.81739

>  <filename>  (1) 
O=C(Cc1cn[nH]c1-c1cccnc1)c1ccccc1

$$$$
