
     RDKit          3D

 32 34  0  0  0  0  0  0  0  0999 V2000
    5.1242    1.8766   16.9447 H   0  0  0  0  0  0  0  0  0  0  0  0
    5.4888    1.3799   17.8426 C   0  0  0  0  0  0  0  0  0  0  0  0
    6.6823    0.7732   17.7414 N   0  0  0  0  0  0  0  0  0  0  0  0
    7.1583    0.1562   18.8309 C   0  0  0  0  0  0  0  0  0  0  0  0
    8.1243   -0.3336   18.7337 H   0  0  0  0  0  0  0  0  0  0  0  0
    6.4763    0.1059   20.0664 C   0  0  0  0  0  0  0  0  0  0  0  0
    7.0179   -0.5836   21.2008 N   0  0  0  0  0  0  0  0  0  0  0  0
    7.6210   -0.0323   22.3740 C   0  0  0  0  0  0  0  0  0  0  0  0
    7.5766    1.3479   22.9606 C   0  0  0  0  0  0  0  0  0  0  0  0
    7.9101    1.4939   24.1277 O   0  0  0  0  0  0  0  0  0  0  0  0
    7.1640    2.3834   22.1938 N   0  0  0  0  0  0  0  0  0  0  0  0
    7.0849    2.2476   21.2001 H   0  0  0  0  0  0  0  0  0  0  0  0
    6.8299    3.6745   22.7726 C   0  0  0  0  0  0  0  0  0  0  0  0
    7.5534    3.9037   23.5669 H   0  0  0  0  0  0  0  0  0  0  0  0
    5.8433    3.6155   23.2595 H   0  0  0  0  0  0  0  0  0  0  0  0
    6.8039    4.7385   21.7129 C   0  0  0  0  0  0  0  0  0  0  0  0
    6.2677    4.4211   20.8203 H   0  0  0  0  0  0  0  0  0  0  0  0
    6.6176    6.1870   22.0779 C   0  0  0  0  0  0  0  0  0  0  0  0
    6.5951    6.4461   23.1351 H   0  0  0  0  0  0  0  0  0  0  0  0
    5.9539    6.7933   21.4627 H   0  0  0  0  0  0  0  0  0  0  0  0
    7.9259    5.7189   21.5053 C   0  0  0  0  0  0  0  0  0  0  0  0
    8.7852    5.6707   22.1720 H   0  0  0  0  0  0  0  0  0  0  0  0
    8.1816    5.9894   20.4850 H   0  0  0  0  0  0  0  0  0  0  0  0
    8.1334   -1.0903   23.0264 C   0  0  0  0  0  0  0  0  0  0  0  0
    8.6808   -1.1721   23.9605 H   0  0  0  0  0  0  0  0  0  0  0  0
    7.8778   -2.2476   22.3601 O   0  0  0  0  0  0  0  0  0  0  0  0
    7.1179   -1.9765   21.2458 C   0  0  0  0  0  0  0  0  0  0  0  0
    6.6631   -2.8024   20.5029 O   0  0  0  0  0  0  0  0  0  0  0  0
    5.2229    0.7126   20.1493 C   0  0  0  0  0  0  0  0  0  0  0  0
    4.6803    0.6772   21.0951 H   0  0  0  0  0  0  0  0  0  0  0  0
    4.7290    1.3757   19.0173 C   0  0  0  0  0  0  0  0  0  0  0  0
    3.7742    1.8850   19.0406 H   0  0  0  0  0  0  0  0  0  0  0  0
  1  2  1  0
  2  3  2  0
  3  4  1  0
  4  5  1  0
  4  6  2  0
  6  7  1  0
  7  8  1  0
  8  9  1  0
  9 10  2  0
  9 11  1  0
 11 12  1  0
 11 13  1  0
 13 14  1  0
 13 15  1  0
 13 16  1  0
 16 17  1  0
 16 18  1  0
 18 19  1  0
 18 20  1  0
 18 21  1  0
 21 22  1  0
 21 23  1  0
  8 24  2  0
 24 25  1  0
 24 26  1  0
 26 27  1  0
 27 28  2  0
  6 29  1  0
 29 30  1  0
 29 31  2  0
 31 32  1  0
 31  2  1  0
 27  7  1  0
 21 16  1  0
M  END
>  <cnnaffinity>  (1) 
-4.55815

>  <filename>  (1) 
O=C(NCC1CC1)c1coc(=O)n1-c1cccnc1

$$$$
