
     RDKit          3D

 35 37  0  0  0  0  0  0  0  0999 V2000
    7.7519   -2.6854   23.3116 O   0  0  0  0  0  0  0  0  0  0  0  0
    6.9014   -3.0347   22.5380 C   0  0  0  0  0  0  0  0  0  0  0  0
    6.1432   -4.3375   22.6753 C   0  0  0  0  0  0  0  0  0  0  0  0
    4.9983   -4.1973   23.6342 C   0  0  0  0  0  0  0  0  0  0  0  0
    5.0386   -3.7983   24.9355 C   0  0  0  0  0  0  0  0  0  0  0  0
    3.6771   -3.7621   25.3996 C   0  0  0  0  0  0  0  0  0  0  0  0
    2.9771   -3.4374   26.6342 C   0  0  0  0  0  0  0  0  0  0  0  0
    1.5887   -3.5321   26.4149 C   0  0  0  0  0  0  0  0  0  0  0  0
    0.6456   -2.1877   27.0814 Cl  0  0  0  0  0  0  0  0  0  0  0  0
    1.0299   -3.8512   25.0139 C   0  0  0  0  0  0  0  0  0  0  0  0
    1.0315   -3.9662   24.9896 C   0  0  0  0  0  0  0  0  0  0  0  0
    2.8200   -4.0772   24.3216 C   0  0  0  0  0  0  0  0  0  0  0  0
    3.6897   -4.3783   23.2503 N   0  0  0  0  0  0  0  0  0  0  0  0
    3.4233   -4.6746   22.3274 H   0  0  0  0  0  0  0  0  0  0  0  0
    0.9799   -3.5755   23.7731 H   0  0  0  0  0  0  0  0  0  0  0  0
   -0.1254   -4.0017   25.5817 H   0  0  0  0  0  0  0  0  0  0  0  0
    3.4032   -3.0997   27.5763 H   0  0  0  0  0  0  0  0  0  0  0  0
    5.9467   -3.5045   25.4550 H   0  0  0  0  0  0  0  0  0  0  0  0
    6.8732   -5.0439   23.0808 H   0  0  0  0  0  0  0  0  0  0  0  0
    5.8053   -4.6951   21.6974 H   0  0  0  0  0  0  0  0  0  0  0  0
    6.5032   -2.3179   21.3966 N   0  0  0  0  0  0  0  0  0  0  0  0
    7.5011   -0.9847   21.1977 S   0  0  0  0  0  0  0  0  0  0  0  0
    7.4711   -0.1599   22.3726 O   0  0  0  0  0  0  0  0  0  0  0  0
    8.6872   -1.5841   20.6142 O   0  0  0  0  0  0  0  0  0  0  0  0
    6.6094   -0.1803   19.9633 C   0  0  0  0  0  0  0  0  0  0  0  0
    5.4717    0.5903   20.2260 C   0  0  0  0  0  0  0  0  0  0  0  0
    4.8880    1.2046   19.1209 C   0  0  0  0  0  0  0  0  0  0  0  0
    5.4613    1.0253   17.8544 C   0  0  0  0  0  0  0  0  0  0  0  0
    6.5540    0.2788   17.6374 N   0  0  0  0  0  0  0  0  0  0  0  0
    7.1194   -0.3169   18.6824 C   0  0  0  0  0  0  0  0  0  0  0  0
    8.0157   -0.8992   18.4856 H   0  0  0  0  0  0  0  0  0  0  0  0
    5.0261    1.5051   16.9772 H   0  0  0  0  0  0  0  0  0  0  0  0
    4.0077    1.8330   19.2189 H   0  0  0  0  0  0  0  0  0  0  0  0
    5.0624    0.7303   21.2316 H   0  0  0  0  0  0  0  0  0  0  0  0
    6.7597   -2.8722   20.5902 H   0  0  0  0  0  0  0  0  0  0  0  0
  1  2  2  0
  2  3  1  0
  3  4  1  0
  4  5  2  0
  5  6  1  0
  6  7  2  0
  7  8  1  0
  8  9  1  0
  8 10  2  0
 10 11  1  0
 11 12  2  0
 12 13  1  0
 13 14  1  0
 11 15  1  0
 10 16  1  0
  7 17  1  0
  5 18  1  0
  3 19  1  0
  3 20  1  0
  2 21  1  0
 21 22  1  0
 22 23  2  0
 22 24  2  0
 22 25  1  0
 25 26  2  0
 26 27  1  0
 27 28  2  0
 28 29  1  0
 29 30  2  0
 30 31  1  0
 28 32  1  0
 27 33  1  0
 26 34  1  0
 21 35  1  0
 13  4  1  0
 30 25  1  0
 12  6  1  0
M  END
>  <cnnaffinity>  (1) 
-5.39864

>  <filename>  (1) 
O=C(Cc1cc2cc(Cl)ccc2[nH]1)NS(=O)(=O)c1cccnc1

$$$$
