
     RDKit          3D

 40 43  0  0  0  0  0  0  0  0999 V2000
    9.5115   -2.3834   25.0143 O   0  0  0  0  0  0  0  0  0  0  0  0
    8.5388   -1.7608   25.3966 C   0  0  0  0  0  0  0  0  0  0  0  0
    8.1203   -1.7008   26.8582 C   0  0  0  0  0  0  0  0  0  0  0  0
    6.7894   -2.3699   27.1456 C   0  0  0  0  0  0  0  0  0  0  0  0
    5.6717   -1.5901   27.3696 C   0  0  0  0  0  0  0  0  0  0  0  0
    4.3854   -2.1636   27.5652 C   0  0  0  0  0  0  0  0  0  0  0  0
    4.2285   -3.5250   27.5481 C   0  0  0  0  0  0  0  0  0  0  0  0
    5.3512   -4.3758   27.3321 C   0  0  0  0  0  0  0  0  0  0  0  0
    5.1969   -5.7913   27.3139 C   0  0  0  0  0  0  0  0  0  0  0  0
    6.2714   -6.6147   27.1086 C   0  0  0  0  0  0  0  0  0  0  0  0
    7.5679   -6.0673   26.9170 C   0  0  0  0  0  0  0  0  0  0  0  0
    7.7547   -4.7018   26.9213 C   0  0  0  0  0  0  0  0  0  0  0  0
    6.6534   -3.8049   27.1270 C   0  0  0  0  0  0  0  0  0  0  0  0
    8.7512   -4.2967   26.7585 H   0  0  0  0  0  0  0  0  0  0  0  0
    8.4195   -6.7266   26.7654 H   0  0  0  0  0  0  0  0  0  0  0  0
    6.1074   -7.6881   27.0909 H   0  0  0  0  0  0  0  0  0  0  0  0
    4.2043   -6.2123   27.4625 H   0  0  0  0  0  0  0  0  0  0  0  0
    3.2531   -3.9871   27.6893 H   0  0  0  0  0  0  0  0  0  0  0  0
    3.5279   -1.5164   27.7285 H   0  0  0  0  0  0  0  0  0  0  0  0
    5.7670   -0.5073   27.4301 H   0  0  0  0  0  0  0  0  0  0  0  0
    8.9539   -2.1500   27.4067 H   0  0  0  0  0  0  0  0  0  0  0  0
    8.0832   -0.6444   27.1411 H   0  0  0  0  0  0  0  0  0  0  0  0
    7.7708   -1.0708   24.5040 N   0  0  0  0  0  0  0  0  0  0  0  0
    7.8877   -1.1764   23.1420 C   0  0  0  0  0  0  0  0  0  0  0  0
    7.1120   -0.4426   22.4117 N   0  0  0  0  0  0  0  0  0  0  0  0
    7.3870   -0.6665   21.0788 C   0  0  0  0  0  0  0  0  0  0  0  0
    6.6411    0.0308   20.0218 C   0  0  0  0  0  0  0  0  0  0  0  0
    5.4091    0.6789   20.2290 C   0  0  0  0  0  0  0  0  0  0  0  0
    4.8039    1.3002   19.1384 C   0  0  0  0  0  0  0  0  0  0  0  0
    5.4393    1.2577   17.8922 C   0  0  0  0  0  0  0  0  0  0  0  0
    6.6022    0.6312   17.6749 N   0  0  0  0  0  0  0  0  0  0  0  0
    7.1782    0.0416   18.7220 C   0  0  0  0  0  0  0  0  0  0  0  0
    8.1291   -0.4385   18.4985 H   0  0  0  0  0  0  0  0  0  0  0  0
    5.0000    1.7485   17.0296 H   0  0  0  0  0  0  0  0  0  0  0  0
    3.8634    1.8293   19.2402 H   0  0  0  0  0  0  0  0  0  0  0  0
    4.9463    0.6965   21.2195 H   0  0  0  0  0  0  0  0  0  0  0  0
    8.3669   -1.5788   20.8372 C   0  0  0  0  0  0  0  0  0  0  0  0
    8.9725   -2.2378   22.3104 S   0  0  0  0  0  0  0  0  0  0  0  0
    8.7757   -1.8621   19.8850 H   0  0  0  0  0  0  0  0  0  0  0  0
    6.9728   -0.5258   24.7682 H   0  0  0  0  0  0  0  0  0  0  0  0
  1  2  2  0
  2  3  1  0
  3  4  1  0
  4  5  2  0
  5  6  1  0
  6  7  2  0
  7  8  1  0
  8  9  2  0
  9 10  1  0
 10 11  2  0
 11 12  1  0
 12 13  2  0
 12 14  1  0
 11 15  1  0
 10 16  1  0
  9 17  1  0
  7 18  1  0
  6 19  1  0
  5 20  1  0
  3 21  1  0
  3 22  1  0
  2 23  1  0
 23 24  1  0
 24 25  2  0
 25 26  1  0
 26 27  1  0
 27 28  2  0
 28 29  1  0
 29 30  2  0
 30 31  1  0
 31 32  2  0
 32 33  1  0
 30 34  1  0
 29 35  1  0
 28 36  1  0
 26 37  2  0
 37 38  1  0
 37 39  1  0
 23 40  1  0
 13  4  1  0
 38 24  1  0
 13  8  1  0
 32 27  1  0
M  END
>  <cnnaffinity>  (1) 
-5.39601

>  <filename>  (1) 
O=C(Cc1cccc2ccccc12)Nc1nc(-c2cccnc2)cs1

$$$$
