
     RDKit          3D

 28 29  0  0  0  0  0  0  0  0999 V2000
    4.9850    1.7666   17.0028 H   0  0  0  0  0  0  0  0  0  0  0  0
    5.4380    1.2854   17.8648 C   0  0  0  0  0  0  0  0  0  0  0  0
    6.5991    0.6529   17.6448 N   0  0  0  0  0  0  0  0  0  0  0  0
    7.1668    0.0394   18.6850 C   0  0  0  0  0  0  0  0  0  0  0  0
    8.1069   -0.4758   18.4971 H   0  0  0  0  0  0  0  0  0  0  0  0
    6.6212    0.0380   19.9676 C   0  0  0  0  0  0  0  0  0  0  0  0
    7.3819   -0.7609   20.9580 C   0  0  0  0  0  0  0  0  0  0  0  0
    8.1284   -1.6653   20.6291 O   0  0  0  0  0  0  0  0  0  0  0  0
    7.1521   -0.4023   22.2487 N   0  0  0  0  0  0  0  0  0  0  0  0
    6.8254    0.5438   22.3318 H   0  0  0  0  0  0  0  0  0  0  0  0
    7.8733   -1.0082   23.3583 C   0  0  0  0  0  0  0  0  0  0  0  0
    7.7199   -2.0882   23.3069 H   0  0  0  0  0  0  0  0  0  0  0  0
    7.3998   -0.6714   24.2860 H   0  0  0  0  0  0  0  0  0  0  0  0
    9.3671   -0.7304   23.3545 C   0  0  0  0  0  0  0  0  0  0  0  0
   10.2662   -1.6999   22.8771 C   0  0  0  0  0  0  0  0  0  0  0  0
    9.8929   -2.6836   22.6005 H   0  0  0  0  0  0  0  0  0  0  0  0
   11.6248   -1.4197   22.7169 C   0  0  0  0  0  0  0  0  0  0  0  0
   12.3146   -2.1650   22.3273 H   0  0  0  0  0  0  0  0  0  0  0  0
   12.1171   -0.1976   23.1852 C   0  0  0  0  0  0  0  0  0  0  0  0
   13.8342    0.1071   23.1909 Cl  0  0  0  0  0  0  0  0  0  0  0  0
   11.2527    0.7735   23.6927 C   0  0  0  0  0  0  0  0  0  0  0  0
   11.6662    1.7044   24.0640 H   0  0  0  0  0  0  0  0  0  0  0  0
    9.8784    0.5162   23.7448 C   0  0  0  0  0  0  0  0  0  0  0  0
    9.2067    1.2703   24.1524 H   0  0  0  0  0  0  0  0  0  0  0  0
    5.4036    0.7018   20.1933 C   0  0  0  0  0  0  0  0  0  0  0  0
    4.9074    0.7009   21.1707 H   0  0  0  0  0  0  0  0  0  0  0  0
    4.7972    1.3321   19.1105 C   0  0  0  0  0  0  0  0  0  0  0  0
    3.8510    1.8530   19.2191 H   0  0  0  0  0  0  0  0  0  0  0  0
  1  2  1  0
  2  3  2  0
  3  4  1  0
  4  5  1  0
  4  6  2  0
  6  7  1  0
  7  8  2  0
  7  9  1  0
  9 10  1  0
  9 11  1  0
 11 12  1  0
 11 13  1  0
 11 14  1  0
 14 15  2  0
 15 16  1  0
 15 17  1  0
 17 18  1  0
 17 19  2  0
 19 20  1  0
 19 21  1  0
 21 22  1  0
 21 23  2  0
 23 24  1  0
  6 25  1  0
 25 26  1  0
 25 27  2  0
 27 28  1  0
 27  2  1  0
 23 14  1  0
M  END
>  <cnnaffinity>  (1) 
-4.50223

>  <filename>  (1) 
O=C(NCc1ccc(Cl)cc1)c1cccnc1

$$$$
