
     RDKit          3D

 37 39  0  0  0  0  0  0  0  0999 V2000
    4.9680    1.7680   16.9803 H   0  0  0  0  0  0  0  0  0  0  0  0
    5.4412    1.2769   17.8280 C   0  0  0  0  0  0  0  0  0  0  0  0
    6.6052    0.6613   17.5754 N   0  0  0  0  0  0  0  0  0  0  0  0
    7.2144    0.0584   18.5989 C   0  0  0  0  0  0  0  0  0  0  0  0
    8.1694   -0.4144   18.3832 H   0  0  0  0  0  0  0  0  0  0  0  0
    6.6888    0.0037   19.8967 C   0  0  0  0  0  0  0  0  0  0  0  0
    7.4561   -0.7154   20.9341 C   0  0  0  0  0  0  0  0  0  0  0  0
    8.7531   -0.6546   20.8390 N   0  0  0  0  0  0  0  0  0  0  0  0
    9.4908   -1.2847   21.8047 C   0  0  0  0  0  0  0  0  0  0  0  0
   10.6986   -1.3412   21.8472 O   0  0  0  0  0  0  0  0  0  0  0  0
    8.8027   -1.9466   22.8404 N   0  0  0  0  0  0  0  0  0  0  0  0
    9.4729   -2.4066   23.4331 H   0  0  0  0  0  0  0  0  0  0  0  0
    7.4404   -2.0481   22.9657 C   0  0  0  0  0  0  0  0  0  0  0  0
    6.8661   -2.8853   24.1875 C   0  0  0  0  0  0  0  0  0  0  0  0
    7.5212   -3.7586   24.7311 O   0  0  0  0  0  0  0  0  0  0  0  0
    5.6100   -2.5484   24.6035 N   0  0  0  0  0  0  0  0  0  0  0  0
    5.1386   -1.8487   24.0581 H   0  0  0  0  0  0  0  0  0  0  0  0
    4.7884   -3.3977   25.4817 C   0  0  0  0  0  0  0  0  0  0  0  0
    5.3499   -3.6254   26.3953 H   0  0  0  0  0  0  0  0  0  0  0  0
    3.9238   -2.7958   25.7892 H   0  0  0  0  0  0  0  0  0  0  0  0
    4.2962   -4.6769   24.8013 C   0  0  0  0  0  0  0  0  0  0  0  0
    4.9626   -5.9101   24.9337 C   0  0  0  0  0  0  0  0  0  0  0  0
    5.8086   -5.9961   25.6105 H   0  0  0  0  0  0  0  0  0  0  0  0
    4.5725   -7.0233   24.1779 C   0  0  0  0  0  0  0  0  0  0  0  0
    5.0756   -7.9776   24.3177 H   0  0  0  0  0  0  0  0  0  0  0  0
    3.5436   -6.9033   23.2376 C   0  0  0  0  0  0  0  0  0  0  0  0
    3.2676   -7.7443   22.6098 H   0  0  0  0  0  0  0  0  0  0  0  0
    2.8531   -5.6934   23.1088 C   0  0  0  0  0  0  0  0  0  0  0  0
    2.0686   -5.5664   22.3605 H   0  0  0  0  0  0  0  0  0  0  0  0
    3.1878   -4.6203   23.9386 C   0  0  0  0  0  0  0  0  0  0  0  0
    2.5563   -3.7363   23.9431 H   0  0  0  0  0  0  0  0  0  0  0  0
    6.7390   -1.4327   21.9608 C   0  0  0  0  0  0  0  0  0  0  0  0
    5.6665   -1.4990   21.8464 H   0  0  0  0  0  0  0  0  0  0  0  0
    5.4755    0.6570   20.1512 C   0  0  0  0  0  0  0  0  0  0  0  0
    5.0538    0.6827   21.1596 H   0  0  0  0  0  0  0  0  0  0  0  0
    4.8419    1.3048   19.0922 C   0  0  0  0  0  0  0  0  0  0  0  0
    3.9025    1.8287   19.2271 H   0  0  0  0  0  0  0  0  0  0  0  0
  1  2  1  0
  2  3  2  0
  3  4  1  0
  4  5  1  0
  4  6  2  0
  6  7  1  0
  7  8  2  0
  8  9  1  0
  9 10  2  0
  9 11  1  0
 11 12  1  0
 11 13  1  0
 13 14  1  0
 14 15  2  0
 14 16  1  0
 16 17  1  0
 16 18  1  0
 18 19  1  0
 18 20  1  0
 18 21  1  0
 21 22  2  0
 22 23  1  0
 22 24  1  0
 24 25  1  0
 24 26  2  0
 26 27  1  0
 26 28  1  0
 28 29  1  0
 28 30  2  0
 30 31  1  0
 13 32  2  0
 32 33  1  0
  6 34  1  0
 34 35  1  0
 34 36  2  0
 36 37  1  0
 36  2  1  0
 32  7  1  0
 30 21  1  0
M  END
>  <cnnaffinity>  (1) 
-5.16436

>  <filename>  (1) 
O=C(NCc1ccccc1)c1cc(-c2cccnc2)nc(=O)[nH]1

$$$$
