
     RDKit          3D

 35 36  0  0  0  0  0  0  0  0999 V2000
   11.3864   -1.9667   21.2743 O   0  0  0  0  0  0  0  0  0  0  0  0
   10.9457   -1.2330   22.1373 C   0  0  0  0  0  0  0  0  0  0  0  0
    9.7941   -1.5216   22.8215 N   0  0  0  0  0  0  0  0  0  0  0  0
    8.7242   -2.2448   22.1407 C   0  0  0  0  0  0  0  0  0  0  0  0
    8.1790   -1.4435   21.0030 C   0  0  0  0  0  0  0  0  0  0  0  0
    7.0343   -0.7537   21.0500 C   0  0  0  0  0  0  0  0  0  0  0  0
    6.5069    0.0345   19.9278 C   0  0  0  0  0  0  0  0  0  0  0  0
    5.3350    0.7899   20.0878 C   0  0  0  0  0  0  0  0  0  0  0  0
    4.7948    1.4426   18.9815 C   0  0  0  0  0  0  0  0  0  0  0  0
    5.4521    1.3340   17.7514 C   0  0  0  0  0  0  0  0  0  0  0  0
    6.5962    0.6560   17.5807 N   0  0  0  0  0  0  0  0  0  0  0  0
    7.1073    0.0431   18.6534 C   0  0  0  0  0  0  0  0  0  0  0  0
    8.0574   -0.4632   18.4915 H   0  0  0  0  0  0  0  0  0  0  0  0
    5.0500    1.8073   16.8600 H   0  0  0  0  0  0  0  0  0  0  0  0
    3.8972    2.0468   19.0511 H   0  0  0  0  0  0  0  0  0  0  0  0
    4.8745    0.8745   21.0722 H   0  0  0  0  0  0  0  0  0  0  0  0
    6.4357   -0.7340   21.9635 H   0  0  0  0  0  0  0  0  0  0  0  0
    8.8545   -1.3469   20.1551 H   0  0  0  0  0  0  0  0  0  0  0  0
    7.9268   -2.4505   22.8645 H   0  0  0  0  0  0  0  0  0  0  0  0
    9.1107   -3.2013   21.7870 H   0  0  0  0  0  0  0  0  0  0  0  0
    9.4597   -0.7646   23.3861 H   0  0  0  0  0  0  0  0  0  0  0  0
   11.7054    0.0097   22.5919 C   0  0  0  0  0  0  0  0  0  0  0  0
   13.0654   -0.1915   22.8872 C   0  0  0  0  0  0  0  0  0  0  0  0
   13.8549    0.8506   23.3743 C   0  0  0  0  0  0  0  0  0  0  0  0
   13.3150    2.1301   23.5080 C   0  0  0  0  0  0  0  0  0  0  0  0
   11.9882    2.3628   23.1466 C   0  0  0  0  0  0  0  0  0  0  0  0
   11.1728    1.3251   22.6667 C   0  0  0  0  0  0  0  0  0  0  0  0
    9.7769    1.6655   22.1410 C   0  0  0  0  0  0  0  0  0  0  0  0
    9.5070    2.9805   22.1595 F   0  0  0  0  0  0  0  0  0  0  0  0
    9.5979    1.2319   20.8729 F   0  0  0  0  0  0  0  0  0  0  0  0
    8.8015    1.0762   22.8793 F   0  0  0  0  0  0  0  0  0  0  0  0
   11.5812    3.3653   23.2164 H   0  0  0  0  0  0  0  0  0  0  0  0
   13.9182    2.9697   23.8348 H   0  0  0  0  0  0  0  0  0  0  0  0
   14.8888    0.6607   23.6198 H   0  0  0  0  0  0  0  0  0  0  0  0
   13.5047   -1.1776   22.7424 H   0  0  0  0  0  0  0  0  0  0  0  0
  1  2  2  0
  2  3  1  0
  3  4  1  0
  4  5  1  0
  5  6  2  3
  6  7  1  0
  7  8  2  0
  8  9  1  0
  9 10  2  0
 10 11  1  0
 11 12  2  0
 12 13  1  0
 10 14  1  0
  9 15  1  0
  8 16  1  0
  6 17  1  0
  5 18  1  0
  4 19  1  0
  4 20  1  0
  3 21  1  0
  2 22  1  0
 22 23  2  0
 23 24  1  0
 24 25  2  0
 25 26  1  0
 26 27  2  0
 27 28  1  0
 28 29  1  0
 28 30  1  0
 28 31  1  0
 26 32  1  0
 25 33  1  0
 24 34  1  0
 23 35  1  0
 12  7  1  0
 27 22  1  0
M  END
>  <cnnaffinity>  (1) 
-5.45894

>  <filename>  (1) 
O=C(NCC=Cc1cccnc1)c1ccccc1C(F)(F)F

$$$$
