
     RDKit          3D

 42 44  0  0  0  0  0  0  0  0999 V2000
    5.0767    1.7360   16.9244 H   0  0  0  0  0  0  0  0  0  0  0  0
    5.5350    1.2537   17.7835 C   0  0  0  0  0  0  0  0  0  0  0  0
    6.6957    0.6243   17.5507 N   0  0  0  0  0  0  0  0  0  0  0  0
    7.2907    0.0325   18.5888 C   0  0  0  0  0  0  0  0  0  0  0  0
    8.2434   -0.4614   18.4007 H   0  0  0  0  0  0  0  0  0  0  0  0
    6.7491    0.0082   19.8764 C   0  0  0  0  0  0  0  0  0  0  0  0
    7.4724   -0.7534   20.9089 C   0  0  0  0  0  0  0  0  0  0  0  0
    8.7815   -0.7512   20.8609 N   0  0  0  0  0  0  0  0  0  0  0  0
    9.4606   -1.4336   21.8378 C   0  0  0  0  0  0  0  0  0  0  0  0
   10.6632   -1.5235   21.9085 O   0  0  0  0  0  0  0  0  0  0  0  0
    8.7204   -2.0937   22.8224 N   0  0  0  0  0  0  0  0  0  0  0  0
    9.2345   -2.7292   23.4065 H   0  0  0  0  0  0  0  0  0  0  0  0
    7.3881   -2.1120   22.8203 C   0  0  0  0  0  0  0  0  0  0  0  0
    6.7467   -2.7553   23.8272 N   0  0  0  0  0  0  0  0  0  0  0  0
    5.7480   -2.7474   23.7606 H   0  0  0  0  0  0  0  0  0  0  0  0
    7.2619   -3.8327   24.5090 C   0  0  0  0  0  0  0  0  0  0  0  0
    8.3688   -4.3032   24.3145 O   0  0  0  0  0  0  0  0  0  0  0  0
    6.3299   -4.2746   25.4067 N   0  0  0  0  0  0  0  0  0  0  0  0
    5.7928   -3.4934   25.7458 H   0  0  0  0  0  0  0  0  0  0  0  0
    6.7173   -5.2753   26.3897 C   0  0  0  0  0  0  0  0  0  0  0  0
    7.0231   -6.1662   25.8258 H   0  0  0  0  0  0  0  0  0  0  0  0
    5.5231   -5.6752   27.2583 C   0  0  0  0  0  0  0  0  0  0  0  0
    5.2251   -4.8129   27.8749 H   0  0  0  0  0  0  0  0  0  0  0  0
    4.6703   -5.9356   26.6190 H   0  0  0  0  0  0  0  0  0  0  0  0
    5.8929   -6.8453   28.1881 C   0  0  0  0  0  0  0  0  0  0  0  0
    6.0481   -7.7473   27.5798 H   0  0  0  0  0  0  0  0  0  0  0  0
    5.0582   -7.0694   28.8638 H   0  0  0  0  0  0  0  0  0  0  0  0
    7.1659   -6.5334   28.9973 C   0  0  0  0  0  0  0  0  0  0  0  0
    7.4526   -7.3895   29.6167 H   0  0  0  0  0  0  0  0  0  0  0  0
    6.9334   -5.7136   29.6916 H   0  0  0  0  0  0  0  0  0  0  0  0
    8.3227   -6.0856   28.0922 C   0  0  0  0  0  0  0  0  0  0  0  0
    8.5748   -6.8854   27.3797 H   0  0  0  0  0  0  0  0  0  0  0  0
    9.2346   -5.8841   28.6594 H   0  0  0  0  0  0  0  0  0  0  0  0
    7.9141   -4.8707   27.2657 C   0  0  0  0  0  0  0  0  0  0  0  0
    7.6265   -4.0272   27.9076 H   0  0  0  0  0  0  0  0  0  0  0  0
    8.7372   -4.5312   26.6337 H   0  0  0  0  0  0  0  0  0  0  0  0
    6.7009   -1.4578   21.8490 C   0  0  0  0  0  0  0  0  0  0  0  0
    5.6285   -1.5155   21.7742 H   0  0  0  0  0  0  0  0  0  0  0  0
    5.5274    0.6595   20.1109 C   0  0  0  0  0  0  0  0  0  0  0  0
    5.0732    0.6750   21.1075 H   0  0  0  0  0  0  0  0  0  0  0  0
    4.9165    1.3032   19.0390 C   0  0  0  0  0  0  0  0  0  0  0  0
    3.9792    1.8354   19.1586 H   0  0  0  0  0  0  0  0  0  0  0  0
  1  2  1  0
  2  3  2  0
  3  4  1  0
  4  5  1  0
  4  6  2  0
  6  7  1  0
  7  8  2  0
  8  9  1  0
  9 10  2  0
  9 11  1  0
 11 12  1  0
 11 13  1  0
 13 14  1  0
 14 15  1  0
 14 16  1  0
 16 17  2  0
 16 18  1  0
 18 19  1  0
 18 20  1  0
 20 21  1  0
 20 22  1  0
 22 23  1  0
 22 24  1  0
 22 25  1  0
 25 26  1  0
 25 27  1  0
 25 28  1  0
 28 29  1  0
 28 30  1  0
 28 31  1  0
 31 32  1  0
 31 33  1  0
 31 34  1  0
 34 35  1  0
 34 36  1  0
 13 37  2  0
 37 38  1  0
  6 39  1  0
 39 40  1  0
 39 41  2  0
 41 42  1  0
 41  2  1  0
 37  7  1  0
 34 20  1  0
M  END
>  <cnnaffinity>  (1) 
-5.05259

>  <filename>  (1) 
O=C(Nc1cc(-c2cccnc2)nc(=O)[nH]1)NC1CCCCC1

$$$$
