
     RDKit          3D

 37 39  0  0  0  0  0  0  0  0999 V2000
    5.0192    1.6892   16.9584 H   0  0  0  0  0  0  0  0  0  0  0  0
    5.5295    1.2835   17.8303 C   0  0  0  0  0  0  0  0  0  0  0  0
    6.7299    0.7253   17.6159 N   0  0  0  0  0  0  0  0  0  0  0  0
    7.3457    0.1868   18.6790 C   0  0  0  0  0  0  0  0  0  0  0  0
    8.3448   -0.2009   18.4940 H   0  0  0  0  0  0  0  0  0  0  0  0
    6.7934    0.1283   19.9674 C   0  0  0  0  0  0  0  0  0  0  0  0
    7.5393   -0.5359   21.0805 C   0  0  0  0  0  0  0  0  0  0  0  0
    8.5573    0.2923   21.6388 O   0  0  0  0  0  0  0  0  0  0  0  0
    8.0702    1.2757   22.4444 C   0  0  0  0  0  0  0  0  0  0  0  0
    6.9320    1.4065   22.8014 O   0  0  0  0  0  0  0  0  0  0  0  0
    9.1299    2.0598   22.7793 N   0  0  0  0  0  0  0  0  0  0  0  0
   10.0136    1.7429   22.4404 H   0  0  0  0  0  0  0  0  0  0  0  0
    8.9838    3.1649   23.5806 C   0  0  0  0  0  0  0  0  0  0  0  0
    7.9260    3.5565   24.0090 O   0  0  0  0  0  0  0  0  0  0  0  0
   10.2032    3.7410   23.8207 N   0  0  0  0  0  0  0  0  0  0  0  0
   10.9551    3.4334   23.2389 H   0  0  0  0  0  0  0  0  0  0  0  0
   10.4857    4.7530   24.7586 C   0  0  0  0  0  0  0  0  0  0  0  0
   11.7579    5.3388   24.7506 C   0  0  0  0  0  0  0  0  0  0  0  0
   12.4704    5.0572   23.9818 H   0  0  0  0  0  0  0  0  0  0  0  0
   12.1022    6.2766   25.7304 C   0  0  0  0  0  0  0  0  0  0  0  0
   13.1010    6.7022   25.7338 H   0  0  0  0  0  0  0  0  0  0  0  0
   11.1834    6.6355   26.7214 C   0  0  0  0  0  0  0  0  0  0  0  0
   11.4602    7.3406   27.5003 H   0  0  0  0  0  0  0  0  0  0  0  0
    9.9084    6.0606   26.7136 C   0  0  0  0  0  0  0  0  0  0  0  0
    9.1770    6.3353   27.4710 H   0  0  0  0  0  0  0  0  0  0  0  0
    9.5472    5.1396   25.7306 C   0  0  0  0  0  0  0  0  0  0  0  0
    8.5593    4.6999   25.7009 H   0  0  0  0  0  0  0  0  0  0  0  0
    6.8802   -1.4465   22.0760 C   0  0  0  0  0  0  0  0  0  0  0  0
    5.8150   -1.6340   21.9921 H   0  0  0  0  0  0  0  0  0  0  0  0
    7.2701   -1.3594   23.0846 H   0  0  0  0  0  0  0  0  0  0  0  0
    7.8117   -2.0042   21.0445 C   0  0  0  0  0  0  0  0  0  0  0  0
    7.3165   -2.5523   20.2555 H   0  0  0  0  0  0  0  0  0  0  0  0
    8.7868   -2.3609   21.3535 H   0  0  0  0  0  0  0  0  0  0  0  0
    5.5842    0.8058   20.1880 C   0  0  0  0  0  0  0  0  0  0  0  0
    5.2197    0.9381   21.2099 H   0  0  0  0  0  0  0  0  0  0  0  0
    4.9285    1.3648   19.0923 C   0  0  0  0  0  0  0  0  0  0  0  0
    3.9721    1.8650   19.2029 H   0  0  0  0  0  0  0  0  0  0  0  0
  1  2  1  0
  2  3  2  0
  3  4  1  0
  4  5  1  0
  4  6  2  0
  6  7  1  0
  7  8  1  0
  8  9  1  0
  9 10  2  0
  9 11  1  0
 11 12  1  0
 11 13  1  0
 13 14  2  0
 13 15  1  0
 15 16  1  0
 15 17  1  0
 17 18  2  0
 18 19  1  0
 18 20  1  0
 20 21  1  0
 20 22  2  0
 22 23  1  0
 22 24  1  0
 24 25  1  0
 24 26  2  0
 26 27  1  0
  7 28  1  0
 28 29  1  0
 28 30  1  0
 28 31  1  0
 31 32  1  0
 31 33  1  0
  6 34  1  0
 34 35  1  0
 34 36  2  0
 36 37  1  0
 36  2  1  0
 31  7  1  0
 26 17  1  0
M  END
>  <cnnaffinity>  (1) 
-4.79646

>  <filename>  (1) 
O=C(NC(=O)OC1(c2cccnc2)CC1)Nc1ccccc1

$$$$
