
     RDKit          3D

 33 35  0  0  0  0  0  0  0  0999 V2000
    5.0209    1.8072   16.8449 H   0  0  0  0  0  0  0  0  0  0  0  0
    5.4453    1.3072   17.7139 C   0  0  0  0  0  0  0  0  0  0  0  0
    6.6086    0.6688   17.5202 N   0  0  0  0  0  0  0  0  0  0  0  0
    7.1570    0.0553   18.5762 C   0  0  0  0  0  0  0  0  0  0  0  0
    8.1063   -0.4470   18.3819 H   0  0  0  0  0  0  0  0  0  0  0  0
    6.5824    0.0200   19.8600 C   0  0  0  0  0  0  0  0  0  0  0  0
    7.2347   -0.7491   20.9978 C   0  0  0  0  0  0  0  0  0  0  0  0
    6.6364   -0.6601   21.9030 H   0  0  0  0  0  0  0  0  0  0  0  0
    7.2775   -1.8146   20.7485 H   0  0  0  0  0  0  0  0  0  0  0  0
    8.6148   -0.3561   21.3017 N   0  0  0  0  0  0  0  0  0  0  0  0
    9.0847    0.6948   22.0551 C   0  0  0  0  0  0  0  0  0  0  0  0
    8.1460    1.6361   22.7695 C   0  0  0  0  0  0  0  0  0  0  0  0
    6.9536    1.6272   22.5114 O   0  0  0  0  0  0  0  0  0  0  0  0
    8.6549    2.6471   23.8072 C   0  0  0  0  0  0  0  0  0  0  0  0
    8.0464    3.8701   23.6794 C   0  0  0  0  0  0  0  0  0  0  0  0
    7.3258    4.0488   22.8932 H   0  0  0  0  0  0  0  0  0  0  0  0
    8.4088    4.8627   24.6563 C   0  0  0  0  0  0  0  0  0  0  0  0
    7.9856    5.8642   24.5651 H   0  0  0  0  0  0  0  0  0  0  0  0
    9.2326    4.5850   25.6967 C   0  0  0  0  0  0  0  0  0  0  0  0
    9.4795    5.5087   26.6373 F   0  0  0  0  0  0  0  0  0  0  0  0
    9.6228    2.1678   24.8693 C   0  0  0  0  0  0  0  0  0  0  0  0
    9.9868    2.1792   26.0313 H   0  0  0  0  0  0  0  0  0  0  0  0
    9.6671    2.2721   24.7725 C   0  0  0  0  0  0  0  0  0  0  0  0
   10.5748    1.7095   24.1494 H   0  0  0  0  0  0  0  0  0  0  0  0
   10.4102    0.7134   22.0509 N   0  0  0  0  0  0  0  0  0  0  0  0
   10.8126   -0.3607   21.3224 C   0  0  0  0  0  0  0  0  0  0  0  0
   11.8610   -0.5910   21.1800 H   0  0  0  0  0  0  0  0  0  0  0  0
    9.7197   -1.0363   20.8586 C   0  0  0  0  0  0  0  0  0  0  0  0
    9.6315   -1.9398   20.2734 H   0  0  0  0  0  0  0  0  0  0  0  0
    5.3647    0.6905   20.0342 C   0  0  0  0  0  0  0  0  0  0  0  0
    4.8893    0.7212   21.0153 H   0  0  0  0  0  0  0  0  0  0  0  0
    4.7873    1.3447   18.9444 C   0  0  0  0  0  0  0  0  0  0  0  0
    3.8565    1.8908   19.0421 H   0  0  0  0  0  0  0  0  0  0  0  0
  1  2  1  0
  2  3  2  0
  3  4  1  0
  4  5  1  0
  4  6  2  0
  6  7  1  0
  7  8  1  0
  7  9  1  0
  7 10  1  0
 10 11  1  0
 11 12  1  0
 12 13  2  0
 12 14  1  0
 14 15  2  0
 15 16  1  0
 15 17  1  0
 17 18  1  0
 17 19  2  0
 19 20  1  0
 19 21  1  0
 21 22  1  0
 21 23  2  0
 23 24  1  0
 11 25  2  0
 25 26  1  0
 26 27  1  0
 26 28  2  0
 28 29  1  0
  6 30  1  0
 30 31  1  0
 30 32  2  0
 32 33  1  0
 32  2  1  0
 28 10  1  0
 23 14  1  0
M  END
>  <cnnaffinity>  (1) 
-4.71166

>  <filename>  (1) 
O=C(c1ccc(F)cc1)c1nccn1Cc1cccnc1

$$$$
