
     RDKit          3D

 35 37  0  0  0  0  0  0  0  0999 V2000
    4.9308    1.8572   16.9393 H   0  0  0  0  0  0  0  0  0  0  0  0
    5.3989    1.3749   17.7931 C   0  0  0  0  0  0  0  0  0  0  0  0
    6.6122    0.8463   17.5776 N   0  0  0  0  0  0  0  0  0  0  0  0
    7.2320    0.2747   18.6106 C   0  0  0  0  0  0  0  0  0  0  0  0
    8.2287   -0.1026   18.3896 H   0  0  0  0  0  0  0  0  0  0  0  0
    6.6857    0.1680   19.9119 C   0  0  0  0  0  0  0  0  0  0  0  0
    7.4317   -0.4543   20.9611 N   0  0  0  0  0  0  0  0  0  0  0  0
    8.4421   -1.3749   20.7917 C   0  0  0  0  0  0  0  0  0  0  0  0
    8.6769   -1.7759   19.8184 H   0  0  0  0  0  0  0  0  0  0  0  0
    9.0126   -1.7228   21.8978 N   0  0  0  0  0  0  0  0  0  0  0  0
    8.3676   -1.0108   22.9012 C   0  0  0  0  0  0  0  0  0  0  0  0
    8.7382   -1.1700   24.3827 C   0  0  0  0  0  0  0  0  0  0  0  0
    9.5904   -1.9404   24.7935 O   0  0  0  0  0  0  0  0  0  0  0  0
    8.0539   -0.3610   25.2728 N   0  0  0  0  0  0  0  0  0  0  0  0
    7.2268    0.0807   24.9124 H   0  0  0  0  0  0  0  0  0  0  0  0
    8.0511   -0.6688   26.7108 C   0  0  0  0  0  0  0  0  0  0  0  0
    7.7726    0.2378   27.2662 H   0  0  0  0  0  0  0  0  0  0  0  0
    9.0804   -0.9068   27.0006 H   0  0  0  0  0  0  0  0  0  0  0  0
    7.1329   -1.8299   27.0661 C   0  0  0  0  0  0  0  0  0  0  0  0
    5.7961   -1.6036   27.4396 C   0  0  0  0  0  0  0  0  0  0  0  0
    5.4251   -0.5818   27.5192 H   0  0  0  0  0  0  0  0  0  0  0  0
    4.9540   -2.6799   27.7407 C   0  0  0  0  0  0  0  0  0  0  0  0
    3.9239   -2.4890   28.0335 H   0  0  0  0  0  0  0  0  0  0  0  0
    5.4384   -3.9903   27.6743 C   0  0  0  0  0  0  0  0  0  0  0  0
    4.7943   -4.8286   27.9290 H   0  0  0  0  0  0  0  0  0  0  0  0
    6.7632   -4.2271   27.2920 C   0  0  0  0  0  0  0  0  0  0  0  0
    7.1453   -5.2452   27.2404 H   0  0  0  0  0  0  0  0  0  0  0  0
    7.6031   -3.1555   26.9819 C   0  0  0  0  0  0  0  0  0  0  0  0
    8.6154   -3.3444   26.6286 H   0  0  0  0  0  0  0  0  0  0  0  0
    7.3824   -0.2249   22.3281 C   0  0  0  0  0  0  0  0  0  0  0  0
    6.6685    0.4915   22.7213 H   0  0  0  0  0  0  0  0  0  0  0  0
    5.4058    0.7090   20.1151 C   0  0  0  0  0  0  0  0  0  0  0  0
    4.9172    0.6650   21.0880 H   0  0  0  0  0  0  0  0  0  0  0  0
    4.7631    1.3246   19.0345 C   0  0  0  0  0  0  0  0  0  0  0  0
    3.7905    1.7878   19.1521 H   0  0  0  0  0  0  0  0  0  0  0  0
  1  2  1  0
  2  3  2  0
  3  4  1  0
  4  5  1  0
  4  6  2  0
  6  7  1  0
  7  8  1  0
  8  9  1  0
  8 10  2  0
 10 11  1  0
 11 12  1  0
 12 13  2  0
 12 14  1  0
 14 15  1  0
 14 16  1  0
 16 17  1  0
 16 18  1  0
 16 19  1  0
 19 20  2  0
 20 21  1  0
 20 22  1  0
 22 23  1  0
 22 24  2  0
 24 25  1  0
 24 26  1  0
 26 27  1  0
 26 28  2  0
 28 29  1  0
 11 30  2  0
 30 31  1  0
  6 32  1  0
 32 33  1  0
 32 34  2  0
 34 35  1  0
 34  2  1  0
 30  7  1  0
 28 19  1  0
M  END
>  <cnnaffinity>  (1) 
-4.7244

>  <filename>  (1) 
O=C(NCc1ccccc1)c1cn(-c2cccnc2)cn1

$$$$
