
     RDKit          3D

 35 36  0  0  0  0  0  0  0  0999 V2000
    5.2332    2.6772   15.7594 H   0  0  0  0  0  0  0  0  0  0  0  0
    5.5073    2.2483   16.7217 C   0  0  0  0  0  0  0  0  0  0  0  0
    6.6232    1.5034   16.7489 N   0  0  0  0  0  0  0  0  0  0  0  0
    6.9913    0.9880   17.9317 C   0  0  0  0  0  0  0  0  0  0  0  0
    7.9209    0.4164   17.9383 H   0  0  0  0  0  0  0  0  0  0  0  0
    6.2529    1.1562   19.1185 C   0  0  0  0  0  0  0  0  0  0  0  0
    6.7743    0.4761   20.6707 S   0  0  0  0  0  0  0  0  0  0  0  0
    6.3605   -1.2857   20.3985 C   0  0  0  0  0  0  0  0  0  0  0  0
    5.3279   -1.3670   20.0404 H   0  0  0  0  0  0  0  0  0  0  0  0
    7.0284   -1.6994   19.6400 H   0  0  0  0  0  0  0  0  0  0  0  0
    6.5377   -2.0249   21.6225 N   0  0  0  0  0  0  0  0  0  0  0  0
    5.9308   -1.7427   22.3753 H   0  0  0  0  0  0  0  0  0  0  0  0
    7.8214   -2.4386   21.9759 C   0  0  0  0  0  0  0  0  0  0  0  0
    8.8003   -2.1076   21.3344 O   0  0  0  0  0  0  0  0  0  0  0  0
    7.8832   -3.5016   23.0746 C   0  0  0  0  0  0  0  0  0  0  0  0
    7.0902   -3.2968   23.8111 H   0  0  0  0  0  0  0  0  0  0  0  0
    9.2501   -3.5048   23.7980 C   0  0  0  0  0  0  0  0  0  0  0  0
   10.0416   -3.5847   23.0387 H   0  0  0  0  0  0  0  0  0  0  0  0
    9.4100   -2.5404   24.2989 H   0  0  0  0  0  0  0  0  0  0  0  0
    9.3840   -4.6468   24.8335 C   0  0  0  0  0  0  0  0  0  0  0  0
    9.1071   -4.2854   25.8349 H   0  0  0  0  0  0  0  0  0  0  0  0
   10.4415   -4.9424   24.8980 H   0  0  0  0  0  0  0  0  0  0  0  0
    8.5262   -5.8987   24.5306 C   0  0  0  0  0  0  0  0  0  0  0  0
    7.5726   -5.8275   25.0697 H   0  0  0  0  0  0  0  0  0  0  0  0
    9.0510   -6.7692   24.9359 H   0  0  0  0  0  0  0  0  0  0  0  0
    8.2110   -6.0974   23.0436 C   0  0  0  0  0  0  0  0  0  0  0  0
    9.1270   -6.3106   22.4871 H   0  0  0  0  0  0  0  0  0  0  0  0
    7.5795   -6.9827   22.9061 H   0  0  0  0  0  0  0  0  0  0  0  0
    7.5299   -4.8741   22.3967 C   0  0  0  0  0  0  0  0  0  0  0  0
    6.4369   -4.9763   22.4141 H   0  0  0  0  0  0  0  0  0  0  0  0
    7.7979   -4.8705   21.3297 H   0  0  0  0  0  0  0  0  0  0  0  0
    5.0872    1.9311   19.0695 C   0  0  0  0  0  0  0  0  0  0  0  0
    4.5044    2.1044   19.9711 H   0  0  0  0  0  0  0  0  0  0  0  0
    4.7125    2.4871   17.8440 C   0  0  0  0  0  0  0  0  0  0  0  0
    3.8268    3.1044   17.7552 H   0  0  0  0  0  0  0  0  0  0  0  0
  1  2  1  0
  2  3  2  0
  3  4  1  0
  4  5  1  0
  4  6  2  0
  6  7  1  0
  7  8  1  0
  8  9  1  0
  8 10  1  0
  8 11  1  0
 11 12  1  0
 11 13  1  0
 13 14  2  0
 13 15  1  0
 15 16  1  0
 15 17  1  0
 17 18  1  0
 17 19  1  0
 17 20  1  0
 20 21  1  0
 20 22  1  0
 20 23  1  0
 23 24  1  0
 23 25  1  0
 23 26  1  0
 26 27  1  0
 26 28  1  0
 26 29  1  0
 29 30  1  0
 29 31  1  0
  6 32  1  0
 32 33  1  0
 32 34  2  0
 34 35  1  0
 34  2  1  0
 29 15  1  0
M  END
>  <cnnaffinity>  (1) 
-4.81766

>  <filename>  (1) 
O=C(NCSc1cccnc1)C1CCCCC1

$$$$
