
     RDKit          3D

 29 30  0  0  0  0  0  0  0  0999 V2000
   10.0575   -2.2305   20.9129 H   0  0  0  0  0  0  0  0  0  0  0  0
    9.1560   -2.0227   20.5728 O   0  0  0  0  0  0  0  0  0  0  0  0
    8.7687   -0.7670   21.1031 C   0  0  1  0  0  0  0  0  0  0  0  0
    9.1245    0.0691   20.4677 H   0  0  0  0  0  0  0  0  0  0  0  0
    7.2007   -0.6594   21.0972 C   0  0  0  0  0  0  0  0  0  0  0  0
    6.5371   -1.0893   22.0198 O   0  0  0  0  0  0  0  0  0  0  0  0
    6.5358    0.0190   19.9430 C   0  0  0  0  0  0  0  0  0  0  0  0
    7.1325   -0.0340   18.6816 C   0  0  0  0  0  0  0  0  0  0  0  0
    8.0521   -0.6041   18.5289 H   0  0  0  0  0  0  0  0  0  0  0  0
    6.6458    0.5859   17.6027 N   0  0  0  0  0  0  0  0  0  0  0  0
    5.5198    1.2991   17.7524 C   0  0  0  0  0  0  0  0  0  0  0  0
    5.1515    1.8113   16.8630 H   0  0  0  0  0  0  0  0  0  0  0  0
    4.8170    1.3765   18.9601 C   0  0  0  0  0  0  0  0  0  0  0  0
    3.8997    1.9558   19.0081 H   0  0  0  0  0  0  0  0  0  0  0  0
    5.3173    0.7116   20.0781 C   0  0  0  0  0  0  0  0  0  0  0  0
    4.7908    0.7343   21.0321 H   0  0  0  0  0  0  0  0  0  0  0  0
    9.4108   -0.6385   22.4996 C   0  0  0  0  0  0  0  0  0  0  0  0
    9.0777    0.2575   23.0378 H   0  0  0  0  0  0  0  0  0  0  0  0
    9.1086   -1.5124   23.0837 H   0  0  0  0  0  0  0  0  0  0  0  0
   10.9168   -0.6724   22.3762 C   0  0  0  0  0  0  0  0  0  0  0  0
   11.4511   -1.8927   22.1810 N   0  0  0  0  0  0  0  0  0  0  0  0
   12.7849   -1.9947   22.1618 C   0  0  0  0  0  0  0  0  0  0  0  0
   13.2312   -2.9787   22.1490 H   0  0  0  0  0  0  0  0  0  0  0  0
   13.6491   -0.8989   22.2026 C   0  0  0  0  0  0  0  0  0  0  0  0
   14.7144   -1.0878   22.1647 H   0  0  0  0  0  0  0  0  0  0  0  0
   13.0945    0.3776   22.2856 C   0  0  0  0  0  0  0  0  0  0  0  0
   13.7307    1.2612   22.2731 H   0  0  0  0  0  0  0  0  0  0  0  0
   11.7017    0.4857   22.3829 C   0  0  0  0  0  0  0  0  0  0  0  0
   11.2057    1.4475   22.4428 H   0  0  0  0  0  0  0  0  0  0  0  0
  1  2  1  0
  2  3  1  0
  3  4  1  6
  3  5  1  0
  5  6  2  0
  5  7  1  0
  7  8  2  0
  8  9  1  0
  8 10  1  0
 10 11  2  0
 11 12  1  0
 11 13  1  0
 13 14  1  0
 13 15  2  0
 15 16  1  0
  3 17  1  0
 17 18  1  0
 17 19  1  0
 17 20  1  0
 20 21  2  0
 21 22  1  0
 22 23  1  0
 22 24  2  0
 24 25  1  0
 24 26  1  0
 26 27  1  0
 26 28  2  0
 28 29  1  0
 15  7  1  0
 28 20  1  0
M  END
>  <cnnaffinity>  (1) 
-4.82053

>  <filename>  (1) 
O=C(c1cccnc1)[C@H](O)Cc1ccccn1

$$$$
