
     RDKit          3D

 36 39  0  0  0  0  0  0  0  0999 V2000
    4.9615    1.7627   17.0066 H   0  0  0  0  0  0  0  0  0  0  0  0
    5.4181    1.2751   17.8665 C   0  0  0  0  0  0  0  0  0  0  0  0
    6.5806    0.6469   17.6392 N   0  0  0  0  0  0  0  0  0  0  0  0
    7.1817    0.0494   18.6751 C   0  0  0  0  0  0  0  0  0  0  0  0
    8.1154   -0.4587   18.4361 H   0  0  0  0  0  0  0  0  0  0  0  0
    6.6670    0.0555   19.9817 C   0  0  0  0  0  0  0  0  0  0  0  0
    7.4435   -0.6740   21.0434 C   0  0  0  0  0  0  0  0  0  0  0  0
    8.0520   -1.7029   20.7928 O   0  0  0  0  0  0  0  0  0  0  0  0
    7.4649   -0.1340   22.2948 N   0  0  0  0  0  0  0  0  0  0  0  0
    8.1123   -0.6790   23.4839 C   0  0  0  0  0  0  0  0  0  0  0  0
    9.1737   -0.9151   23.3426 H   0  0  0  0  0  0  0  0  0  0  0  0
    7.6261   -1.5813   23.8678 H   0  0  0  0  0  0  0  0  0  0  0  0
    7.7884    0.6498   24.2317 C   0  0  0  0  0  0  0  0  0  0  0  0
    8.6962    1.2334   24.4311 H   0  0  0  0  0  0  0  0  0  0  0  0
    6.9453    0.5977   25.4932 C   0  0  0  0  0  0  0  0  0  0  0  0
    6.9804   -0.4856   26.3796 C   0  0  0  0  0  0  0  0  0  0  0  0
    7.6419   -1.3204   26.1707 H   0  0  0  0  0  0  0  0  0  0  0  0
    6.1810   -0.5251   27.5425 C   0  0  0  0  0  0  0  0  0  0  0  0
    6.2201   -1.4031   28.1827 H   0  0  0  0  0  0  0  0  0  0  0  0
    5.3404    0.5311   27.8744 C   0  0  0  0  0  0  0  0  0  0  0  0
    4.7194    0.4983   28.7636 H   0  0  0  0  0  0  0  0  0  0  0  0
    5.3444    1.6506   27.0223 C   0  0  0  0  0  0  0  0  0  0  0  0
    6.1416    1.7165   25.8523 C   0  0  0  0  0  0  0  0  0  0  0  0
    5.9141    3.0234   25.2881 C   0  0  0  0  0  0  0  0  0  0  0  0
    6.3844    3.4260   24.3973 H   0  0  0  0  0  0  0  0  0  0  0  0
    5.0178    3.6649   26.0903 C   0  0  0  0  0  0  0  0  0  0  0  0
    4.6050    4.6625   26.0146 H   0  0  0  0  0  0  0  0  0  0  0  0
    4.6662    2.8366   27.1304 N   0  0  0  0  0  0  0  0  0  0  0  0
    4.0408    3.0575   27.8883 H   0  0  0  0  0  0  0  0  0  0  0  0
    7.1072    1.1370   22.9166 C   0  0  0  0  0  0  0  0  0  0  0  0
    7.5414    2.0189   22.4291 H   0  0  0  0  0  0  0  0  0  0  0  0
    6.0294    1.2997   23.0158 H   0  0  0  0  0  0  0  0  0  0  0  0
    5.4330    0.6885   20.1962 C   0  0  0  0  0  0  0  0  0  0  0  0
    4.9508    0.6720   21.1743 H   0  0  0  0  0  0  0  0  0  0  0  0
    4.8060    1.3146   19.1222 C   0  0  0  0  0  0  0  0  0  0  0  0
    3.8649    1.8366   19.2439 H   0  0  0  0  0  0  0  0  0  0  0  0
  1  2  1  0
  2  3  2  0
  3  4  1  0
  4  5  1  0
  4  6  2  0
  6  7  1  0
  7  8  2  0
  7  9  1  0
  9 10  1  0
 10 11  1  0
 10 12  1  0
 10 13  1  0
 13 14  1  0
 13 15  1  0
 15 16  2  0
 16 17  1  0
 16 18  1  0
 18 19  1  0
 18 20  2  0
 20 21  1  0
 20 22  1  0
 22 23  2  0
 23 24  1  0
 24 25  1  0
 24 26  2  0
 26 27  1  0
 26 28  1  0
 28 29  1  0
 13 30  1  0
 30 31  1  0
 30 32  1  0
  6 33  1  0
 33 34  1  0
 33 35  2  0
 35 36  1  0
 35  2  1  0
 30  9  1  0
 23 15  1  0
 28 22  1  0
M  END
>  <cnnaffinity>  (1) 
-4.81074

>  <filename>  (1) 
O=C(c1cccnc1)N1CC(c2cccc3[nH]ccc23)C1

$$$$
