
     RDKit          3D

 33 34  0  0  0  0  0  0  0  0999 V2000
    5.2200   -0.0487   27.4748 H   0  0  0  0  0  0  0  0  0  0  0  0
    5.4466    0.7415   26.9604 O   0  0  0  0  0  0  0  0  0  0  0  0
    6.7058    0.5003   26.3543 C   0  0  2  0  0  0  0  0  0  0  0  0
    7.0021    1.4564   25.8945 H   0  0  0  0  0  0  0  0  0  0  0  0
    6.5811   -0.5520   25.2404 C   0  0  0  0  0  0  0  0  0  0  0  0
    5.9280   -0.1444   24.4692 H   0  0  0  0  0  0  0  0  0  0  0  0
    6.0777   -1.4429   25.6560 H   0  0  0  0  0  0  0  0  0  0  0  0
    7.8904   -0.9207   24.6657 N   0  0  0  0  0  0  0  0  0  0  0  0
    8.0811   -1.1469   23.3222 C   0  0  0  0  0  0  0  0  0  0  0  0
    8.8513   -2.0029   22.9029 O   0  0  0  0  0  0  0  0  0  0  0  0
    7.2462   -0.2114   22.3127 C   0  0  0  0  0  0  0  0  0  0  0  0
    6.6456    0.7883   22.6703 O   0  0  0  0  0  0  0  0  0  0  0  0
    7.2880   -0.6245   21.0060 N   0  0  0  0  0  0  0  0  0  0  0  0
    7.8188   -1.4647   20.8313 H   0  0  0  0  0  0  0  0  0  0  0  0
    6.6492    0.0152   19.9100 C   0  0  0  0  0  0  0  0  0  0  0  0
    7.1839    0.0078   18.5962 C   0  0  0  0  0  0  0  0  0  0  0  0
    8.1145   -0.5133   18.3732 H   0  0  0  0  0  0  0  0  0  0  0  0
    6.6067    0.6275   17.5567 N   0  0  0  0  0  0  0  0  0  0  0  0
    5.4517    1.2716   17.7853 C   0  0  0  0  0  0  0  0  0  0  0  0
    4.9958    1.7827   16.9404 H   0  0  0  0  0  0  0  0  0  0  0  0
    4.8287    1.3036   19.0364 C   0  0  0  0  0  0  0  0  0  0  0  0
    3.8901    1.8305   19.1694 H   0  0  0  0  0  0  0  0  0  0  0  0
    5.4380    0.6782   20.1228 C   0  0  0  0  0  0  0  0  0  0  0  0
    5.0045    0.7078   21.1200 H   0  0  0  0  0  0  0  0  0  0  0  0
    8.9088   -1.3529   25.6458 C   0  0  0  0  0  0  0  0  0  0  0  0
    9.8546   -1.5279   25.1257 H   0  0  0  0  0  0  0  0  0  0  0  0
    8.6086   -2.3066   26.1117 H   0  0  0  0  0  0  0  0  0  0  0  0
    9.0839   -0.2623   26.7103 C   0  0  0  0  0  0  0  0  0  0  0  0
    9.8233   -0.5641   27.4619 H   0  0  0  0  0  0  0  0  0  0  0  0
    9.4821    0.6353   26.2149 H   0  0  0  0  0  0  0  0  0  0  0  0
    7.7500    0.0683   27.3880 C   0  0  0  0  0  0  0  0  0  0  0  0
    7.8756    0.8582   28.1396 H   0  0  0  0  0  0  0  0  0  0  0  0
    7.3645   -0.8289   27.9062 H   0  0  0  0  0  0  0  0  0  0  0  0
  1  2  1  0
  2  3  1  0
  3  4  1  6
  3  5  1  0
  5  6  1  0
  5  7  1  0
  5  8  1  0
  8  9  1  0
  9 10  2  0
  9 11  1  0
 11 12  2  0
 11 13  1  0
 13 14  1  0
 13 15  1  0
 15 16  2  0
 16 17  1  0
 16 18  1  0
 18 19  2  0
 19 20  1  0
 19 21  1  0
 21 22  1  0
 21 23  2  0
 23 24  1  0
  8 25  1  0
 25 26  1  0
 25 27  1  0
 25 28  1  0
 28 29  1  0
 28 30  1  0
 28 31  1  0
 31 32  1  0
 31 33  1  0
 31  3  1  0
 23 15  1  0
M  END
>  <cnnaffinity>  (1) 
-4.12188

>  <filename>  (1) 
O=C(Nc1cccnc1)C(=O)N1CCC[C@H](O)C1

$$$$
