
     RDKit          3D

 36 37  0  0  0  0  0  0  0  0999 V2000
    9.4877    0.1590   20.1715 O   0  0  0  0  0  0  0  0  0  0  0  0
    8.7940   -0.5480   20.8684 C   0  0  0  0  0  0  0  0  0  0  0  0
    9.2444   -1.3133   21.9025 N   0  0  0  0  0  0  0  0  0  0  0  0
   10.6463   -1.6524   22.0873 C   0  0  0  0  0  0  0  0  0  0  0  0
   10.6942   -2.7423   23.1559 C   0  0  0  0  0  0  0  0  0  0  0  0
   10.1067   -2.3239   24.5087 C   0  0  0  0  0  0  0  0  0  0  0  0
   10.2382   -0.9996   24.9648 C   0  0  0  0  0  0  0  0  0  0  0  0
    9.7560   -0.6019   26.2124 C   0  0  0  0  0  0  0  0  0  0  0  0
    9.1103   -1.5254   27.0336 C   0  0  0  0  0  0  0  0  0  0  0  0
    8.9162   -2.8329   26.5835 C   0  0  0  0  0  0  0  0  0  0  0  0
    9.4122   -3.2413   25.3342 C   0  0  0  0  0  0  0  0  0  0  0  0
    9.2070   -4.6740   24.8740 C   0  0  0  0  0  0  0  0  0  0  0  0
   10.3739   -5.3244   24.6916 F   0  0  0  0  0  0  0  0  0  0  0  0
    8.5449   -4.7403   23.6901 F   0  0  0  0  0  0  0  0  0  0  0  0
    8.4864   -5.4109   25.7338 F   0  0  0  0  0  0  0  0  0  0  0  0
    8.3920   -3.5442   27.2162 H   0  0  0  0  0  0  0  0  0  0  0  0
    8.7616   -1.2261   28.0160 H   0  0  0  0  0  0  0  0  0  0  0  0
    9.8804    0.4265   26.5458 H   0  0  0  0  0  0  0  0  0  0  0  0
   10.7341   -0.2624   24.3381 H   0  0  0  0  0  0  0  0  0  0  0  0
   11.7215   -3.1011   23.2673 H   0  0  0  0  0  0  0  0  0  0  0  0
   10.1364   -3.5914   22.7592 H   0  0  0  0  0  0  0  0  0  0  0  0
   11.2360   -0.7734   22.3699 H   0  0  0  0  0  0  0  0  0  0  0  0
   11.1008   -2.0049   21.1526 H   0  0  0  0  0  0  0  0  0  0  0  0
    8.6226   -2.0684   22.1336 H   0  0  0  0  0  0  0  0  0  0  0  0
    7.4145   -0.7100   20.7283 N   0  0  0  0  0  0  0  0  0  0  0  0
    6.6635   -0.0291   19.7393 C   0  0  0  0  0  0  0  0  0  0  0  0
    5.4495    0.5825   20.0713 C   0  0  0  0  0  0  0  0  0  0  0  0
    4.7682    1.2990   19.0770 C   0  0  0  0  0  0  0  0  0  0  0  0
    5.3073    1.3486   17.7852 C   0  0  0  0  0  0  0  0  0  0  0  0
    6.4463    0.7250   17.4368 N   0  0  0  0  0  0  0  0  0  0  0  0
    7.1003    0.0585   18.3936 C   0  0  0  0  0  0  0  0  0  0  0  0
    8.0289   -0.4292   18.1105 H   0  0  0  0  0  0  0  0  0  0  0  0
    4.8095    1.9028   16.9931 H   0  0  0  0  0  0  0  0  0  0  0  0
    3.8405    1.8253   19.2900 H   0  0  0  0  0  0  0  0  0  0  0  0
    5.0618    0.5177   21.0895 H   0  0  0  0  0  0  0  0  0  0  0  0
    6.9566   -0.8325   21.6192 H   0  0  0  0  0  0  0  0  0  0  0  0
  1  2  2  0
  2  3  1  0
  3  4  1  0
  4  5  1  0
  5  6  1  0
  6  7  2  0
  7  8  1  0
  8  9  2  0
  9 10  1  0
 10 11  2  0
 11 12  1  0
 12 13  1  0
 12 14  1  0
 12 15  1  0
 10 16  1  0
  9 17  1  0
  8 18  1  0
  7 19  1  0
  5 20  1  0
  5 21  1  0
  4 22  1  0
  4 23  1  0
  3 24  1  0
  2 25  1  0
 25 26  1  0
 26 27  2  0
 27 28  1  0
 28 29  2  0
 29 30  1  0
 30 31  2  0
 31 32  1  0
 29 33  1  0
 28 34  1  0
 27 35  1  0
 25 36  1  0
 11  6  1  0
 31 26  1  0
M  END
>  <cnnaffinity>  (1) 
-5.23595

>  <filename>  (1) 
O=C(NCCc1ccccc1C(F)(F)F)Nc1cccnc1

$$$$
