
     RDKit          3D

 38 40  0  0  0  0  0  0  0  0999 V2000
    5.0516    1.7498   17.1186 H   0  0  0  0  0  0  0  0  0  0  0  0
    5.5629    1.3828   18.0066 C   0  0  0  0  0  0  0  0  0  0  0  0
    6.7556    0.8012   17.8077 N   0  0  0  0  0  0  0  0  0  0  0  0
    7.3879    0.3130   18.8852 C   0  0  0  0  0  0  0  0  0  0  0  0
    8.3810   -0.1020   18.7008 H   0  0  0  0  0  0  0  0  0  0  0  0
    6.8547    0.3166   20.1920 C   0  0  0  0  0  0  0  0  0  0  0  0
    7.4258   -0.4813   21.3712 C   0  0  0  0  0  0  0  0  0  0  0  0
    7.7974    0.4397   22.5789 C   0  0  0  0  0  0  0  0  0  0  0  0
    6.9830    0.7254   23.4446 O   0  0  0  0  0  0  0  0  0  0  0  0
    9.1099    0.8673   22.6643 N   0  0  0  0  0  0  0  0  0  0  0  0
    9.8836    1.4568   21.5593 C   0  0  0  0  0  0  0  0  0  0  0  0
    9.4235    1.2258   20.5907 H   0  0  0  0  0  0  0  0  0  0  0  0
    9.8732    2.5563   21.6687 H   0  0  0  0  0  0  0  0  0  0  0  0
   11.3455    0.9847   21.5754 C   0  0  0  0  0  0  0  0  0  0  0  0
   11.9199    1.5740   20.8491 H   0  0  0  0  0  0  0  0  0  0  0  0
   11.3900   -0.0605   21.2425 H   0  0  0  0  0  0  0  0  0  0  0  0
   11.9750    1.1062   22.9715 C   0  0  0  0  0  0  0  0  0  0  0  0
   12.0926    2.1714   23.2230 H   0  0  0  0  0  0  0  0  0  0  0  0
   12.9830    0.6786   22.9937 H   0  0  0  0  0  0  0  0  0  0  0  0
   11.0870    0.4332   24.0222 C   0  0  0  0  0  0  0  0  0  0  0  0
   11.5187    0.5117   25.0248 H   0  0  0  0  0  0  0  0  0  0  0  0
   10.9878   -0.6433   23.8124 H   0  0  0  0  0  0  0  0  0  0  0  0
    9.6962    1.0669   23.9960 C   0  0  0  0  0  0  0  0  0  0  0  0
    9.0382    0.6119   24.7401 H   0  0  0  0  0  0  0  0  0  0  0  0
    9.7479    2.1462   24.2222 H   0  0  0  0  0  0  0  0  0  0  0  0
    8.4906   -1.5736   21.0380 C   0  0  0  0  0  0  0  0  0  0  0  0
    8.7091   -1.6556   19.9750 H   0  0  0  0  0  0  0  0  0  0  0  0
    9.4433   -1.4620   21.5625 H   0  0  0  0  0  0  0  0  0  0  0  0
    7.5642   -2.6844   21.5804 C   0  0  0  0  0  0  0  0  0  0  0  0
    7.2859   -3.4496   20.8503 H   0  0  0  0  0  0  0  0  0  0  0  0
    7.9364   -3.1978   22.4743 H   0  0  0  0  0  0  0  0  0  0  0  0
    6.4660   -1.6379   21.8564 C   0  0  0  0  0  0  0  0  0  0  0  0
    5.5659   -1.7349   21.2387 H   0  0  0  0  0  0  0  0  0  0  0  0
    6.1722   -1.5391   22.9064 H   0  0  0  0  0  0  0  0  0  0  0  0
    5.6450    1.0044   20.3803 C   0  0  0  0  0  0  0  0  0  0  0  0
    5.2331    1.0988   21.3858 H   0  0  0  0  0  0  0  0  0  0  0  0
    4.9866    1.5403   19.2710 C   0  0  0  0  0  0  0  0  0  0  0  0
    4.0471    2.0709   19.3751 H   0  0  0  0  0  0  0  0  0  0  0  0
  1  2  1  0
  2  3  2  0
  3  4  1  0
  4  5  1  0
  4  6  2  0
  6  7  1  0
  7  8  1  0
  8  9  2  0
  8 10  1  0
 10 11  1  0
 11 12  1  0
 11 13  1  0
 11 14  1  0
 14 15  1  0
 14 16  1  0
 14 17  1  0
 17 18  1  0
 17 19  1  0
 17 20  1  0
 20 21  1  0
 20 22  1  0
 20 23  1  0
 23 24  1  0
 23 25  1  0
  7 26  1  0
 26 27  1  0
 26 28  1  0
 26 29  1  0
 29 30  1  0
 29 31  1  0
 29 32  1  0
 32 33  1  0
 32 34  1  0
  6 35  1  0
 35 36  1  0
 35 37  2  0
 37 38  1  0
 37  2  1  0
 32  7  1  0
 23 10  1  0
M  END
>  <cnnaffinity>  (1) 
-4.94177

>  <filename>  (1) 
O=C(N1CCCCC1)C1(c2cccnc2)CCC1

$$$$
