
     RDKit          3D

 37 38  0  0  0  0  0  0  0  0999 V2000
    5.6006   -2.6817   17.3145 H   0  0  0  0  0  0  0  0  0  0  0  0
    5.0910   -2.9039   18.1176 O   0  0  0  0  0  0  0  0  0  0  0  0
    5.9656   -3.3866   19.0805 N   0  0  0  0  0  0  0  0  0  0  0  0
    6.2313   -2.6754   19.7500 H   0  0  0  0  0  0  0  0  0  0  0  0
    5.9896   -4.6852   19.5387 C   0  0  0  0  0  0  0  0  0  0  0  0
    5.5318   -5.6524   18.9658 O   0  0  0  0  0  0  0  0  0  0  0  0
    6.6556   -4.8180   20.9004 C   0  0  0  0  0  0  0  0  0  0  0  0
    7.4573   -4.0875   21.0506 H   0  0  0  0  0  0  0  0  0  0  0  0
    7.1373   -5.7962   20.8595 H   0  0  0  0  0  0  0  0  0  0  0  0
    5.6254   -4.7942   22.0567 C   0  0  0  0  0  0  0  0  0  0  0  0
    5.0976   -5.7581   22.0380 H   0  0  0  0  0  0  0  0  0  0  0  0
    4.8504   -4.0288   21.8884 H   0  0  0  0  0  0  0  0  0  0  0  0
    6.2525   -4.5160   23.4323 C   0  0  0  0  0  0  0  0  0  0  0  0
    5.6032   -4.9547   24.1990 H   0  0  0  0  0  0  0  0  0  0  0  0
    7.2326   -5.0040   23.5452 H   0  0  0  0  0  0  0  0  0  0  0  0
    6.3609   -3.0078   23.7457 C   0  0  0  0  0  0  0  0  0  0  0  0
    5.3511   -2.5936   23.7166 H   0  0  0  0  0  0  0  0  0  0  0  0
    6.7564   -2.8668   24.7601 H   0  0  0  0  0  0  0  0  0  0  0  0
    7.1991   -2.2003   22.7729 C   0  0  0  0  0  0  0  0  0  0  0  0
    6.5802   -1.5783   21.8043 N   0  0  0  0  0  0  0  0  0  0  0  0
    7.3348   -0.8328   20.9287 N   0  0  0  0  0  0  0  0  0  0  0  0
    6.6256   -0.1473   19.8911 C   0  0  0  0  0  0  0  0  0  0  0  0
    7.1204   -0.1567   18.5699 C   0  0  0  0  0  0  0  0  0  0  0  0
    8.0227   -0.7247   18.3438 H   0  0  0  0  0  0  0  0  0  0  0  0
    6.5552    0.5046   17.5503 N   0  0  0  0  0  0  0  0  0  0  0  0
    5.4548    1.2270   17.8179 C   0  0  0  0  0  0  0  0  0  0  0  0
    5.0241    1.7728   16.9805 H   0  0  0  0  0  0  0  0  0  0  0  0
    4.8649    1.2765   19.0884 C   0  0  0  0  0  0  0  0  0  0  0  0
    3.9651    1.8660   19.2345 H   0  0  0  0  0  0  0  0  0  0  0  0
    5.4460    0.5672   20.1489 C   0  0  0  0  0  0  0  0  0  0  0  0
    5.0136    0.5635   21.1513 H   0  0  0  0  0  0  0  0  0  0  0  0
    8.6821   -0.6636   21.1016 C   0  0  0  0  0  0  0  0  0  0  0  0
    9.1508    0.0336   20.4111 H   0  0  0  0  0  0  0  0  0  0  0  0
    9.3793   -1.3058   22.0660 C   0  0  0  0  0  0  0  0  0  0  0  0
   10.4448   -1.1946   22.2086 H   0  0  0  0  0  0  0  0  0  0  0  0
    8.6869   -2.1809   22.9793 C   0  0  0  0  0  0  0  0  0  0  0  0
    9.2507   -2.8300   23.8531 O   0  0  0  0  0  0  0  0  0  0  0  0
  1  2  1  0
  2  3  1  0
  3  4  1  0
  3  5  1  0
  5  6  2  0
  5  7  1  0
  7  8  1  0
  7  9  1  0
  7 10  1  0
 10 11  1  0
 10 12  1  0
 10 13  1  0
 13 14  1  0
 13 15  1  0
 13 16  1  0
 16 17  1  0
 16 18  1  0
 16 19  1  0
 19 20  2  0
 20 21  1  0
 21 22  1  0
 22 23  2  0
 23 24  1  0
 23 25  1  0
 25 26  2  0
 26 27  1  0
 26 28  1  0
 28 29  1  0
 28 30  2  0
 30 31  1  0
 21 32  1  0
 32 33  1  0
 32 34  2  0
 34 35  1  0
 34 36  1  0
 36 37  2  0
 36 19  1  0
 30 22  1  0
M  END
>  <cnnaffinity>  (1) 
-5.43309

>  <filename>  (1) 
O=C(CCCCc1nn(-c2cccnc2)ccc1=O)NO

$$$$
