
     RDKit          3D

 35 36  0  0  0  0  0  0  0  0999 V2000
    9.2742    1.3358   27.9365 H   0  0  0  0  0  0  0  0  0  0  0  0
    8.5649    1.1732   27.2722 O   0  0  0  0  0  0  0  0  0  0  0  0
    9.2044    1.1828   26.0283 N   0  0  0  0  0  0  0  0  0  0  0  0
    8.8786    0.4228   25.4433 H   0  0  0  0  0  0  0  0  0  0  0  0
    9.3926    2.3541   25.3098 C   0  0  0  0  0  0  0  0  0  0  0  0
    9.2675    3.4814   25.7392 O   0  0  0  0  0  0  0  0  0  0  0  0
    9.7929    2.0645   23.8806 C   0  0  0  0  0  0  0  0  0  0  0  0
   10.2504    1.0748   23.7800 H   0  0  0  0  0  0  0  0  0  0  0  0
   10.5518    2.8111   23.6290 H   0  0  0  0  0  0  0  0  0  0  0  0
    8.5624    2.2090   22.9695 C   0  0  0  0  0  0  0  0  0  0  0  0
    7.8186    1.4352   23.2255 H   0  0  0  0  0  0  0  0  0  0  0  0
    8.1039    3.1811   23.1906 H   0  0  0  0  0  0  0  0  0  0  0  0
    8.8684    2.1179   21.4715 C   0  0  0  0  0  0  0  0  0  0  0  0
    7.9377    2.2840   20.9148 H   0  0  0  0  0  0  0  0  0  0  0  0
    9.5618    2.9149   21.1819 H   0  0  0  0  0  0  0  0  0  0  0  0
    9.4583    0.7646   21.0404 C   0  0  0  0  0  0  0  0  0  0  0  0
   10.4620    0.6243   21.4535 H   0  0  0  0  0  0  0  0  0  0  0  0
    9.5494    0.7235   19.9519 H   0  0  0  0  0  0  0  0  0  0  0  0
    8.6248   -0.3860   21.4887 C   0  0  0  0  0  0  0  0  0  0  0  0
    8.9323   -1.1814   22.4723 N   0  0  0  0  0  0  0  0  0  0  0  0
    7.8515   -2.0057   22.5606 N   0  0  0  0  0  0  0  0  0  0  0  0
    7.7598   -2.7707   23.2151 H   0  0  0  0  0  0  0  0  0  0  0  0
    6.8803   -1.7677   21.6675 C   0  0  0  0  0  0  0  0  0  0  0  0
    5.4956   -2.6714   21.4753 S   0  0  0  0  0  0  0  0  0  0  0  0
    7.3706   -0.6754   20.9638 N   0  0  0  0  0  0  0  0  0  0  0  0
    6.6812    0.0138   19.9017 C   0  0  0  0  0  0  0  0  0  0  0  0
    7.1901    0.0576   18.5871 C   0  0  0  0  0  0  0  0  0  0  0  0
    8.1274   -0.4493   18.3570 H   0  0  0  0  0  0  0  0  0  0  0  0
    6.5706    0.6746   17.5722 N   0  0  0  0  0  0  0  0  0  0  0  0
    5.4105    1.2936   17.8415 C   0  0  0  0  0  0  0  0  0  0  0  0
    4.9344    1.7951   17.0050 H   0  0  0  0  0  0  0  0  0  0  0  0
    4.8174    1.3080   19.1109 C   0  0  0  0  0  0  0  0  0  0  0  0
    3.8764    1.8318   19.2611 H   0  0  0  0  0  0  0  0  0  0  0  0
    5.4612    0.6420   20.1626 C   0  0  0  0  0  0  0  0  0  0  0  0
    5.0429    0.5839   21.1704 H   0  0  0  0  0  0  0  0  0  0  0  0
  1  2  1  0
  2  3  1  0
  3  4  1  0
  3  5  1  0
  5  6  2  0
  5  7  1  0
  7  8  1  0
  7  9  1  0
  7 10  1  0
 10 11  1  0
 10 12  1  0
 10 13  1  0
 13 14  1  0
 13 15  1  0
 13 16  1  0
 16 17  1  0
 16 18  1  0
 16 19  1  0
 19 20  2  0
 20 21  1  0
 21 22  1  0
 21 23  1  0
 23 24  2  0
 23 25  1  0
 25 26  1  0
 26 27  2  0
 27 28  1  0
 27 29  1  0
 29 30  2  0
 30 31  1  0
 30 32  1  0
 32 33  1  0
 32 34  2  0
 34 35  1  0
 25 19  1  0
 34 26  1  0
M  END
>  <cnnaffinity>  (1) 
-5.08817

>  <filename>  (1) 
O=C(CCCCc1n[nH]c(=S)n1-c1cccnc1)NO

$$$$
