
     RDKit          3D

 25 26  0  0  0  0  0  0  0  0999 V2000
    4.9876    1.7507   17.0557 H   0  0  0  0  0  0  0  0  0  0  0  0
    5.4467    1.2320   17.8960 C   0  0  0  0  0  0  0  0  0  0  0  0
    6.6116    0.6107   17.6538 N   0  0  0  0  0  0  0  0  0  0  0  0
    7.1935   -0.0184   18.6837 C   0  0  0  0  0  0  0  0  0  0  0  0
    8.1508   -0.4992   18.4905 H   0  0  0  0  0  0  0  0  0  0  0  0
    6.6628   -0.0961   19.9929 C   0  0  0  0  0  0  0  0  0  0  0  0
    7.4296   -0.6890   21.0330 N   0  0  0  0  0  0  0  0  0  0  0  0
    7.0559   -1.5790   22.0305 C   0  0  0  0  0  0  0  0  0  0  0  0
    5.9159   -2.5448   21.8801 C   0  0  0  0  0  0  0  0  0  0  0  0
    5.3874   -2.8694   20.8406 O   0  0  0  0  0  0  0  0  0  0  0  0
    5.5952   -3.2438   23.2401 C   0  0  0  0  0  0  0  0  0  0  0  0
    4.3531   -3.7430   23.2431 F   0  0  0  0  0  0  0  0  0  0  0  0
    5.7184   -2.4442   24.3060 F   0  0  0  0  0  0  0  0  0  0  0  0
    6.4675   -4.2510   23.4047 F   0  0  0  0  0  0  0  0  0  0  0  0
    7.8369   -1.6413   23.0440 N   0  0  0  0  0  0  0  0  0  0  0  0
    8.9901   -0.8083   22.7527 C   0  0  0  0  0  0  0  0  0  0  0  0
    9.9008   -1.4188   22.7931 H   0  0  0  0  0  0  0  0  0  0  0  0
    9.0639   -0.0119   23.5002 H   0  0  0  0  0  0  0  0  0  0  0  0
    8.7869   -0.2452   21.3335 C   0  0  0  0  0  0  0  0  0  0  0  0
    9.5224   -0.6689   20.6342 H   0  0  0  0  0  0  0  0  0  0  0  0
    8.8460    0.8463   21.2853 H   0  0  0  0  0  0  0  0  0  0  0  0
    5.4344    0.5456   20.2214 C   0  0  0  0  0  0  0  0  0  0  0  0
    4.9986    0.5571   21.2234 H   0  0  0  0  0  0  0  0  0  0  0  0
    4.8271    1.2227   19.1529 C   0  0  0  0  0  0  0  0  0  0  0  0
    3.8981    1.7621   19.2890 H   0  0  0  0  0  0  0  0  0  0  0  0
  1  2  1  0
  2  3  2  0
  3  4  1  0
  4  5  1  0
  4  6  2  0
  6  7  1  0
  7  8  1  0
  8  9  1  0
  9 10  2  0
  9 11  1  0
 11 12  1  0
 11 13  1  0
 11 14  1  0
  8 15  2  0
 15 16  1  0
 16 17  1  0
 16 18  1  0
 16 19  1  0
 19 20  1  0
 19 21  1  0
  6 22  1  0
 22 23  1  0
 22 24  2  0
 24 25  1  0
 24  2  1  0
 19  7  1  0
M  END
>  <cnnaffinity>  (1) 
-4.5979

>  <filename>  (1) 
O=C(C1=NCCN1c1cccnc1)C(F)(F)F

$$$$
