
     RDKit          3D

 28 29  0  0  0  0  0  0  0  0999 V2000
    4.9213    1.7869   16.9929 H   0  0  0  0  0  0  0  0  0  0  0  0
    5.4038    1.2917   17.8326 C   0  0  0  0  0  0  0  0  0  0  0  0
    6.5672    0.6731   17.5730 N   0  0  0  0  0  0  0  0  0  0  0  0
    7.1737    0.0468   18.5915 C   0  0  0  0  0  0  0  0  0  0  0  0
    8.1265   -0.4269   18.3588 H   0  0  0  0  0  0  0  0  0  0  0  0
    6.6661   -0.0041   19.9122 C   0  0  0  0  0  0  0  0  0  0  0  0
    7.3377   -0.6909   20.9598 N   0  0  0  0  0  0  0  0  0  0  0  0
    7.9091   -1.4880   20.7300 H   0  0  0  0  0  0  0  0  0  0  0  0
    7.4426   -0.2332   22.2565 C   0  0  0  0  0  0  0  0  0  0  0  0
    7.0198    0.8516   22.5995 O   0  0  0  0  0  0  0  0  0  0  0  0
    8.1095   -1.1641   23.2630 C   0  0  0  0  0  0  0  0  0  0  0  0
    8.1741   -2.1948   22.8946 H   0  0  0  0  0  0  0  0  0  0  0  0
    7.4318   -1.1628   24.1213 H   0  0  0  0  0  0  0  0  0  0  0  0
    9.4590   -0.6216   23.6913 C   0  0  0  0  0  0  0  0  0  0  0  0
    9.5501    0.2962   24.7495 C   0  0  0  0  0  0  0  0  0  0  0  0
    8.6379    0.5795   25.2669 H   0  0  0  0  0  0  0  0  0  0  0  0
   10.7735    0.8554   25.1287 C   0  0  0  0  0  0  0  0  0  0  0  0
   10.8173    1.5506   25.9632 H   0  0  0  0  0  0  0  0  0  0  0  0
   11.9344    0.5175   24.4257 C   0  0  0  0  0  0  0  0  0  0  0  0
   12.8963    0.9276   24.7198 H   0  0  0  0  0  0  0  0  0  0  0  0
   11.8648   -0.3541   23.3363 C   0  0  0  0  0  0  0  0  0  0  0  0
   12.7532   -0.6604   22.7917 H   0  0  0  0  0  0  0  0  0  0  0  0
   10.6345   -0.9196   22.9909 C   0  0  0  0  0  0  0  0  0  0  0  0
   10.5788   -2.0152   21.6369 Cl  0  0  0  0  0  0  0  0  0  0  0  0
    5.4499    0.6429   20.1663 C   0  0  0  0  0  0  0  0  0  0  0  0
    5.0382    0.6304   21.1755 H   0  0  0  0  0  0  0  0  0  0  0  0
    4.8152    1.2968   19.1032 C   0  0  0  0  0  0  0  0  0  0  0  0
    3.8860    1.8332   19.2603 H   0  0  0  0  0  0  0  0  0  0  0  0
  1  2  1  0
  2  3  2  0
  3  4  1  0
  4  5  1  0
  4  6  2  0
  6  7  1  0
  7  8  1  0
  7  9  1  0
  9 10  2  0
  9 11  1  0
 11 12  1  0
 11 13  1  0
 11 14  1  0
 14 15  2  0
 15 16  1  0
 15 17  1  0
 17 18  1  0
 17 19  2  0
 19 20  1  0
 19 21  1  0
 21 22  1  0
 21 23  2  0
 23 24  1  0
  6 25  1  0
 25 26  1  0
 25 27  2  0
 27 28  1  0
 27  2  1  0
 23 14  1  0
M  END
>  <cnnaffinity>  (1) 
-4.98335

>  <filename>  (1) 
O=C(Cc1ccccc1Cl)Nc1cccnc1

$$$$
