
     RDKit          3D

 32 34  0  0  0  0  0  0  0  0999 V2000
    4.9204    1.7905   16.9960 H   0  0  0  0  0  0  0  0  0  0  0  0
    5.3945    1.2917   17.8375 C   0  0  0  0  0  0  0  0  0  0  0  0
    6.5528    0.6680   17.5731 N   0  0  0  0  0  0  0  0  0  0  0  0
    7.1733    0.0528   18.5845 C   0  0  0  0  0  0  0  0  0  0  0  0
    8.1287   -0.4191   18.3657 H   0  0  0  0  0  0  0  0  0  0  0  0
    6.6606    0.0020   19.9011 C   0  0  0  0  0  0  0  0  0  0  0  0
    7.3447   -0.6794   20.9507 N   0  0  0  0  0  0  0  0  0  0  0  0
    6.7463   -1.4337   21.9552 C   0  0  0  0  0  0  0  0  0  0  0  0
    5.6736   -1.5814   21.9189 H   0  0  0  0  0  0  0  0  0  0  0  0
    7.7059   -1.9224   22.7847 C   0  0  0  0  0  0  0  0  0  0  0  0
    7.6382   -2.8425   23.9833 C   0  0  0  0  0  0  0  0  0  0  0  0
    8.6317   -3.3082   24.5153 O   0  0  0  0  0  0  0  0  0  0  0  0
    6.3659   -3.1397   24.4090 N   0  0  0  0  0  0  0  0  0  0  0  0
    5.6293   -2.5012   24.1770 H   0  0  0  0  0  0  0  0  0  0  0  0
    6.0551   -4.1637   25.2979 C   0  0  0  0  0  0  0  0  0  0  0  0
    5.0054   -4.0366   26.2047 C   0  0  0  0  0  0  0  0  0  0  0  0
    4.4080   -3.1358   26.2678 H   0  0  0  0  0  0  0  0  0  0  0  0
    4.7609   -5.0996   27.0724 C   0  0  0  0  0  0  0  0  0  0  0  0
    3.9615   -5.0451   27.8096 H   0  0  0  0  0  0  0  0  0  0  0  0
    5.4557   -6.2427   27.0715 N   0  0  0  0  0  0  0  0  0  0  0  0
    6.4473   -6.3395   26.1764 C   0  0  0  0  0  0  0  0  0  0  0  0
    7.0089   -7.2629   26.1775 H   0  0  0  0  0  0  0  0  0  0  0  0
    6.7877   -5.3490   25.2722 C   0  0  0  0  0  0  0  0  0  0  0  0
    7.6016   -5.4886   24.5766 H   0  0  0  0  0  0  0  0  0  0  0  0
    8.9209   -1.4599   22.2435 N   0  0  0  0  0  0  0  0  0  0  0  0
    9.8692   -1.6068   22.5472 H   0  0  0  0  0  0  0  0  0  0  0  0
    8.7402   -0.6798   21.1374 C   0  0  0  0  0  0  0  0  0  0  0  0
    9.6120   -0.1323   20.4942 O   0  0  0  0  0  0  0  0  0  0  0  0
    5.4449    0.6444   20.1596 C   0  0  0  0  0  0  0  0  0  0  0  0
    5.0287    0.6377   21.1676 H   0  0  0  0  0  0  0  0  0  0  0  0
    4.8100    1.3078   19.1074 C   0  0  0  0  0  0  0  0  0  0  0  0
    3.8801    1.8392   19.2610 H   0  0  0  0  0  0  0  0  0  0  0  0
  1  2  1  0
  2  3  2  0
  3  4  1  0
  4  5  1  0
  4  6  2  0
  6  7  1  0
  7  8  1  0
  8  9  1  0
  8 10  2  0
 10 11  1  0
 11 12  2  0
 11 13  1  0
 13 14  1  0
 13 15  1  0
 15 16  2  0
 16 17  1  0
 16 18  1  0
 18 19  1  0
 18 20  2  0
 20 21  1  0
 21 22  1  0
 21 23  2  0
 23 24  1  0
 10 25  1  0
 25 26  1  0
 25 27  1  0
 27 28  2  0
  6 29  1  0
 29 30  1  0
 29 31  2  0
 31 32  1  0
 31  2  1  0
 27  7  1  0
 23 15  1  0
M  END
>  <cnnaffinity>  (1) 
-5.18303

>  <filename>  (1) 
O=C(Nc1ccncc1)c1cn(-c2cccnc2)c(=O)[nH]1

$$$$
