
     RDKit          3D

 34 36  0  0  0  0  0  0  0  0999 V2000
   11.3555    1.4074   24.5534 H   0  0  0  0  0  0  0  0  0  0  0  0
   12.0764    2.0546   24.5188 O   0  0  0  0  0  0  0  0  0  0  0  0
   12.1029    2.5627   23.2618 C   0  0  0  0  0  0  0  0  0  0  0  0
   13.0511    3.5575   23.0041 C   0  0  0  0  0  0  0  0  0  0  0  0
   13.7022    3.8643   23.8121 H   0  0  0  0  0  0  0  0  0  0  0  0
   13.1230    4.1339   21.7314 C   0  0  0  0  0  0  0  0  0  0  0  0
   14.1782    5.4835   21.4365 Cl  0  0  0  0  0  0  0  0  0  0  0  0
   12.3382    3.6544   20.6849 C   0  0  0  0  0  0  0  0  0  0  0  0
   12.4141    4.1086   19.7027 H   0  0  0  0  0  0  0  0  0  0  0  0
   11.4276    2.6212   20.9363 C   0  0  0  0  0  0  0  0  0  0  0  0
   10.8523    2.1530   20.1607 H   0  0  0  0  0  0  0  0  0  0  0  0
   11.2405    2.1342   22.2215 C   0  0  0  0  0  0  0  0  0  0  0  0
   10.1466    1.3279   22.5673 O   0  0  0  0  0  0  0  0  0  0  0  0
    9.5469    0.4776   21.6694 C   0  0  0  0  0  0  0  0  0  0  0  0
   10.0815   -0.0440   20.7244 O   0  0  0  0  0  0  0  0  0  0  0  0
    8.2679    0.2855   22.0803 N   0  0  0  0  0  0  0  0  0  0  0  0
    7.9164    1.0419   22.6390 H   0  0  0  0  0  0  0  0  0  0  0  0
    7.3335   -0.4772   21.3044 C   0  0  0  0  0  0  0  0  0  0  0  0
    6.6561    0.2199   20.1682 C   0  0  0  0  0  0  0  0  0  0  0  0
    7.2727    0.2125   18.9066 C   0  0  0  0  0  0  0  0  0  0  0  0
    8.2478   -0.2620   18.8040 H   0  0  0  0  0  0  0  0  0  0  0  0
    6.7284    0.7183   17.7899 N   0  0  0  0  0  0  0  0  0  0  0  0
    5.5223    1.2896   17.9088 C   0  0  0  0  0  0  0  0  0  0  0  0
    5.0862    1.6747   16.9885 H   0  0  0  0  0  0  0  0  0  0  0  0
    4.8268    1.3853   19.1209 C   0  0  0  0  0  0  0  0  0  0  0  0
    3.8532    1.8624   19.1426 H   0  0  0  0  0  0  0  0  0  0  0  0
    5.4053    0.8461   20.2727 C   0  0  0  0  0  0  0  0  0  0  0  0
    4.8971    0.8925   21.2379 H   0  0  0  0  0  0  0  0  0  0  0  0
    7.6670   -1.9283   21.1048 C   0  0  0  0  0  0  0  0  0  0  0  0
    7.3248   -2.3703   20.1779 H   0  0  0  0  0  0  0  0  0  0  0  0
    8.6295   -2.2724   21.4638 H   0  0  0  0  0  0  0  0  0  0  0  0
    6.6119   -1.5389   22.0872 C   0  0  0  0  0  0  0  0  0  0  0  0
    6.8769   -1.6143   23.1350 H   0  0  0  0  0  0  0  0  0  0  0  0
    5.5747   -1.7366   21.8431 H   0  0  0  0  0  0  0  0  0  0  0  0
  1  2  1  0
  2  3  1  0
  3  4  2  0
  4  5  1  0
  4  6  1  0
  6  7  1  0
  6  8  2  0
  8  9  1  0
  8 10  1  0
 10 11  1  0
 10 12  2  0
 12 13  1  0
 13 14  1  0
 14 15  2  0
 14 16  1  0
 16 17  1  0
 16 18  1  0
 18 19  1  0
 19 20  2  0
 20 21  1  0
 20 22  1  0
 22 23  2  0
 23 24  1  0
 23 25  1  0
 25 26  1  0
 25 27  2  0
 27 28  1  0
 18 29  1  0
 29 30  1  0
 29 31  1  0
 29 32  1  0
 32 33  1  0
 32 34  1  0
 12  3  1  0
 32 18  1  0
 27 19  1  0
M  END
>  <cnnaffinity>  (1) 
-5.26632

>  <filename>  (1) 
O=C(NC1(c2cccnc2)CC1)Oc1ccc(Cl)cc1O

$$$$
