
     RDKit          3D

 34 36  0  0  0  0  0  0  0  0999 V2000
    6.9922    1.7655   22.1467 H   0  0  0  0  0  0  0  0  0  0  0  0
    7.3597    0.9741   22.7946 C   0  0  0  0  0  0  0  0  0  0  0  0
    7.6007    1.3713   24.2143 C   0  0  0  0  0  0  0  0  0  0  0  0
    7.7005    0.5347   25.0993 O   0  0  0  0  0  0  0  0  0  0  0  0
    7.7088    2.8373   24.5416 C   0  0  0  0  0  0  0  0  0  0  0  0
    7.4448    3.2561   25.8627 C   0  0  0  0  0  0  0  0  0  0  0  0
    7.1647    2.5123   26.6035 H   0  0  0  0  0  0  0  0  0  0  0  0
    7.5484    4.5954   26.2278 C   0  0  0  0  0  0  0  0  0  0  0  0
    7.3437    4.9287   27.2408 H   0  0  0  0  0  0  0  0  0  0  0  0
    7.9297    5.5193   25.2567 C   0  0  0  0  0  0  0  0  0  0  0  0
    8.0287    6.8110   25.6010 F   0  0  0  0  0  0  0  0  0  0  0  0
    8.2159    5.1483   23.9445 C   0  0  0  0  0  0  0  0  0  0  0  0
    8.5096    5.9028   23.2201 H   0  0  0  0  0  0  0  0  0  0  0  0
    8.1049    3.8026   23.5940 C   0  0  0  0  0  0  0  0  0  0  0  0
    8.3529    3.5124   22.5742 H   0  0  0  0  0  0  0  0  0  0  0  0
    7.5891   -0.2684   22.3014 C   0  0  0  0  0  0  0  0  0  0  0  0
    7.3781   -0.7664   20.9199 C   0  0  0  0  0  0  0  0  0  0  0  0
    6.6488    0.0087   19.8988 C   0  0  0  0  0  0  0  0  0  0  0  0
    7.1688    0.0529   18.6016 C   0  0  0  0  0  0  0  0  0  0  0  0
    8.1128   -0.4371   18.3779 H   0  0  0  0  0  0  0  0  0  0  0  0
    6.5705    0.6789   17.5863 N   0  0  0  0  0  0  0  0  0  0  0  0
    5.4047    1.2924   17.8414 C   0  0  0  0  0  0  0  0  0  0  0  0
    4.9240    1.7801   16.9967 H   0  0  0  0  0  0  0  0  0  0  0  0
    4.8010    1.3104   19.1041 C   0  0  0  0  0  0  0  0  0  0  0  0
    3.8693    1.8451   19.2544 H   0  0  0  0  0  0  0  0  0  0  0  0
    5.4340    0.6576   20.1600 C   0  0  0  0  0  0  0  0  0  0  0  0
    4.9953    0.6375   21.1628 H   0  0  0  0  0  0  0  0  0  0  0  0
    7.8820   -1.9231   20.6939 N   0  0  0  0  0  0  0  0  0  0  0  0
    8.4735   -2.4372   21.9302 C   0  0  0  0  0  0  0  0  0  0  0  0
    9.5372   -2.6076   21.7490 H   0  0  0  0  0  0  0  0  0  0  0  0
    8.0217   -3.4034   22.1673 H   0  0  0  0  0  0  0  0  0  0  0  0
    8.2444   -1.3960   23.0531 C   0  0  0  0  0  0  0  0  0  0  0  0
    7.5999   -1.7622   23.8586 H   0  0  0  0  0  0  0  0  0  0  0  0
    9.1711   -1.0666   23.5324 H   0  0  0  0  0  0  0  0  0  0  0  0
  1  2  1  0
  2  3  1  0
  3  4  2  0
  3  5  1  0
  5  6  2  0
  6  7  1  0
  6  8  1  0
  8  9  1  0
  8 10  2  0
 10 11  1  0
 10 12  1  0
 12 13  1  0
 12 14  2  0
 14 15  1  0
  2 16  2  3
 16 17  1  0
 17 18  1  0
 18 19  2  0
 19 20  1  0
 19 21  1  0
 21 22  2  0
 22 23  1  0
 22 24  1  0
 24 25  1  0
 24 26  2  0
 26 27  1  0
 17 28  2  0
 28 29  1  0
 29 30  1  0
 29 31  1  0
 29 32  1  0
 32 33  1  0
 32 34  1  0
 14  5  1  0
 32 16  1  0
 26 18  1  0
M  END
>  <cnnaffinity>  (1) 
-5.00741

>  <filename>  (1) 
O=C(C=C1CCN=C1c1cccnc1)c1ccc(F)cc1

$$$$
