
     RDKit          3D

 37 38  0  0  0  0  0  0  0  0999 V2000
    5.0718    1.8116   16.9744 H   0  0  0  0  0  0  0  0  0  0  0  0
    5.5100    1.3007   17.8303 C   0  0  0  0  0  0  0  0  0  0  0  0
    6.6563    0.6414   17.6014 N   0  0  0  0  0  0  0  0  0  0  0  0
    7.2261    0.0151   18.6343 C   0  0  0  0  0  0  0  0  0  0  0  0
    8.1549   -0.5131   18.4276 H   0  0  0  0  0  0  0  0  0  0  0  0
    6.6892    0.0127   19.9260 C   0  0  0  0  0  0  0  0  0  0  0  0
    7.4330   -0.7489   20.9486 C   0  0  0  0  0  0  0  0  0  0  0  0
    8.4128   -1.4282   20.6675 O   0  0  0  0  0  0  0  0  0  0  0  0
    6.9010   -0.6365   22.2355 N   0  0  0  0  0  0  0  0  0  0  0  0
    6.7544    0.3436   22.4682 H   0  0  0  0  0  0  0  0  0  0  0  0
    7.4843   -1.3151   23.3343 N   0  0  0  0  0  0  0  0  0  0  0  0
    7.2488   -2.3123   23.3454 H   0  0  0  0  0  0  0  0  0  0  0  0
    8.8970   -1.1337   23.3271 N   0  0  0  0  0  0  0  0  0  0  0  0
    9.2557   -1.4673   22.4205 H   0  0  0  0  0  0  0  0  0  0  0  0
    9.3075    0.1968   23.5519 C   0  0  0  0  0  0  0  0  0  0  0  0
    8.6199    1.0550   24.0632 O   0  0  0  0  0  0  0  0  0  0  0  0
   10.7416    0.4596   23.1194 C   0  0  0  0  0  0  0  0  0  0  0  0
   11.1527   -0.4362   22.6221 H   0  0  0  0  0  0  0  0  0  0  0  0
   10.8337    1.6463   22.1185 C   0  0  0  0  0  0  0  0  0  0  0  0
   10.3373    2.5291   22.5456 H   0  0  0  0  0  0  0  0  0  0  0  0
   10.3166    1.4003   21.1769 H   0  0  0  0  0  0  0  0  0  0  0  0
   12.2988    1.9668   21.8226 C   0  0  0  0  0  0  0  0  0  0  0  0
   12.7420    1.0710   21.3952 H   0  0  0  0  0  0  0  0  0  0  0  0
   12.3877    2.7624   21.0777 H   0  0  0  0  0  0  0  0  0  0  0  0
   13.1329    2.2265   23.0816 C   0  0  0  0  0  0  0  0  0  0  0  0
   12.7539    3.1105   23.6123 H   0  0  0  0  0  0  0  0  0  0  0  0
   14.1715    2.4395   22.8053 H   0  0  0  0  0  0  0  0  0  0  0  0
   13.0499    0.9683   23.9577 C   0  0  0  0  0  0  0  0  0  0  0  0
   13.7293    0.9755   24.8073 H   0  0  0  0  0  0  0  0  0  0  0  0
   13.3607    0.1144   23.3421 H   0  0  0  0  0  0  0  0  0  0  0  0
   11.6088    0.6974   24.3830 C   0  0  0  0  0  0  0  0  0  0  0  0
   11.2003    1.5449   24.9484 H   0  0  0  0  0  0  0  0  0  0  0  0
   11.5552   -0.1717   25.0492 H   0  0  0  0  0  0  0  0  0  0  0  0
    5.4727    0.6794   20.1500 C   0  0  0  0  0  0  0  0  0  0  0  0
    4.9962    0.6491   21.1316 H   0  0  0  0  0  0  0  0  0  0  0  0
    4.8817    1.3421   19.0794 C   0  0  0  0  0  0  0  0  0  0  0  0
    3.9620    1.9035   19.2050 H   0  0  0  0  0  0  0  0  0  0  0  0
  1  2  1  0
  2  3  2  0
  3  4  1  0
  4  5  1  0
  4  6  2  0
  6  7  1  0
  7  8  2  0
  7  9  1  0
  9 10  1  0
  9 11  1  0
 11 12  1  0
 11 13  1  0
 13 14  1  0
 13 15  1  0
 15 16  2  0
 15 17  1  0
 17 18  1  0
 17 19  1  0
 19 20  1  0
 19 21  1  0
 19 22  1  0
 22 23  1  0
 22 24  1  0
 22 25  1  0
 25 26  1  0
 25 27  1  0
 25 28  1  0
 28 29  1  0
 28 30  1  0
 28 31  1  0
 31 32  1  0
 31 33  1  0
  6 34  1  0
 34 35  1  0
 34 36  2  0
 36 37  1  0
 36  2  1  0
 31 17  1  0
M  END
>  <cnnaffinity>  (1) 
-5.03385

>  <filename>  (1) 
O=C(NNNC(=O)C1CCCCC1)c1cccnc1

$$$$
