
     RDKit          3D

 28 29  0  0  0  0  0  0  0  0999 V2000
    4.9230    1.7864   17.0052 H   0  0  0  0  0  0  0  0  0  0  0  0
    5.4030    1.2865   17.8477 C   0  0  0  0  0  0  0  0  0  0  0  0
    6.5592    0.6635   17.5798 N   0  0  0  0  0  0  0  0  0  0  0  0
    7.1931    0.0541   18.5884 C   0  0  0  0  0  0  0  0  0  0  0  0
    8.1336   -0.4251   18.3473 H   0  0  0  0  0  0  0  0  0  0  0  0
    6.6950    0.0081   19.9089 C   0  0  0  0  0  0  0  0  0  0  0  0
    7.3105   -0.7096   20.9431 O   0  0  0  0  0  0  0  0  0  0  0  0
    8.6785   -0.7599   21.0689 C   0  0  0  0  0  0  0  0  0  0  0  0
    9.4189   -0.0486   20.4352 O   0  0  0  0  0  0  0  0  0  0  0  0
    9.1451   -1.8057   22.0597 C   0  0  0  0  0  0  0  0  0  0  0  0
   10.5381   -1.9636   22.2310 C   0  0  0  0  0  0  0  0  0  0  0  0
   11.2213   -1.3319   21.6706 H   0  0  0  0  0  0  0  0  0  0  0  0
   11.0279   -2.9299   23.1050 C   0  0  0  0  0  0  0  0  0  0  0  0
   12.0940   -3.0971   23.1573 H   0  0  0  0  0  0  0  0  0  0  0  0
   10.1819   -3.7370   23.8694 C   0  0  0  0  0  0  0  0  0  0  0  0
   10.5875   -4.4665   24.5643 H   0  0  0  0  0  0  0  0  0  0  0  0
    8.8067   -3.5911   23.6813 C   0  0  0  0  0  0  0  0  0  0  0  0
    7.8599   -4.3644   24.3493 O   0  0  0  0  0  0  0  0  0  0  0  0
    8.1967   -5.3154   25.2499 C   0  0  0  0  0  0  0  0  0  0  0  0
    7.0562   -5.8393   25.6789 F   0  0  0  0  0  0  0  0  0  0  0  0
    8.9567   -6.2912   24.7230 F   0  0  0  0  0  0  0  0  0  0  0  0
    8.8793   -4.8340   26.3028 F   0  0  0  0  0  0  0  0  0  0  0  0
    8.2814   -2.6495   22.7871 C   0  0  0  0  0  0  0  0  0  0  0  0
    7.2002   -2.5953   22.6873 H   0  0  0  0  0  0  0  0  0  0  0  0
    5.4768    0.6340   20.1810 C   0  0  0  0  0  0  0  0  0  0  0  0
    5.0543    0.6018   21.1861 H   0  0  0  0  0  0  0  0  0  0  0  0
    4.8327    1.2947   19.1242 C   0  0  0  0  0  0  0  0  0  0  0  0
    3.8994    1.8205   19.2717 H   0  0  0  0  0  0  0  0  0  0  0  0
  1  2  1  0
  2  3  2  0
  3  4  1  0
  4  5  1  0
  4  6  2  0
  6  7  1  0
  7  8  1  0
  8  9  2  0
  8 10  1  0
 10 11  2  0
 11 12  1  0
 11 13  1  0
 13 14  1  0
 13 15  2  0
 15 16  1  0
 15 17  1  0
 17 18  1  0
 18 19  1  0
 19 20  1  0
 19 21  1  0
 19 22  1  0
 17 23  2  0
 23 24  1  0
  6 25  1  0
 25 26  1  0
 25 27  2  0
 27 28  1  0
 27  2  1  0
 23 10  1  0
M  END
>  <cnnaffinity>  (1) 
-4.97546

>  <filename>  (1) 
O=C(Oc1cccnc1)c1cccc(OC(F)(F)F)c1

$$$$
