
     RDKit          3D

 31 33  0  0  0  0  0  0  0  0999 V2000
    4.6313    4.3216   25.0173 H   0  0  0  0  0  0  0  0  0  0  0  0
    5.3195    4.4754   24.1885 C   0  0  0  0  0  0  0  0  0  0  0  0
    5.9717    3.3920   23.7507 N   0  0  0  0  0  0  0  0  0  0  0  0
    6.8376    3.5329   22.7161 C   0  0  0  0  0  0  0  0  0  0  0  0
    7.5494    2.2805   22.1430 C   0  0  0  0  0  0  0  0  0  0  0  0
    8.2537    2.3078   21.1503 O   0  0  0  0  0  0  0  0  0  0  0  0
    7.3149    1.1095   22.8424 N   0  0  0  0  0  0  0  0  0  0  0  0
    6.6624    1.1913   23.6147 H   0  0  0  0  0  0  0  0  0  0  0  0
    7.5825   -0.1840   22.3686 C   0  0  0  0  0  0  0  0  0  0  0  0
    8.1430   -1.2557   23.0029 C   0  0  0  0  0  0  0  0  0  0  0  0
    8.5493   -1.2484   24.0069 H   0  0  0  0  0  0  0  0  0  0  0  0
    8.1308   -2.3727   22.1992 N   0  0  0  0  0  0  0  0  0  0  0  0
    7.5703   -1.9744   21.0881 C   0  0  0  0  0  0  0  0  0  0  0  0
    7.3222   -2.5940   20.2409 H   0  0  0  0  0  0  0  0  0  0  0  0
    7.2304   -0.6413   21.0968 N   0  0  0  0  0  0  0  0  0  0  0  0
    6.5983    0.0498   20.0043 C   0  0  0  0  0  0  0  0  0  0  0  0
    7.1957    0.1072   18.7314 C   0  0  0  0  0  0  0  0  0  0  0  0
    8.1681   -0.3577   18.5688 H   0  0  0  0  0  0  0  0  0  0  0  0
    6.6404    0.7107   17.6708 N   0  0  0  0  0  0  0  0  0  0  0  0
    5.4499    1.3053   17.8466 C   0  0  0  0  0  0  0  0  0  0  0  0
    5.0124    1.7788   16.9684 H   0  0  0  0  0  0  0  0  0  0  0  0
    4.7785    1.3167   19.0724 C   0  0  0  0  0  0  0  0  0  0  0  0
    3.8178    1.8127   19.1554 H   0  0  0  0  0  0  0  0  0  0  0  0
    5.3597    0.6788   20.1723 C   0  0  0  0  0  0  0  0  0  0  0  0
    4.8722    0.6601   21.1475 H   0  0  0  0  0  0  0  0  0  0  0  0
    7.0884    4.7817   22.1252 C   0  0  0  0  0  0  0  0  0  0  0  0
    7.8130    4.8438   21.3217 H   0  0  0  0  0  0  0  0  0  0  0  0
    6.3870    5.9018   22.5769 C   0  0  0  0  0  0  0  0  0  0  0  0
    6.5426    6.8694   22.0996 H   0  0  0  0  0  0  0  0  0  0  0  0
    5.4862    5.7469   23.6314 C   0  0  0  0  0  0  0  0  0  0  0  0
    4.9246    6.5907   24.0174 H   0  0  0  0  0  0  0  0  0  0  0  0
  1  2  1  0
  2  3  2  0
  3  4  1  0
  4  5  1  0
  5  6  2  0
  5  7  1  0
  7  8  1  0
  7  9  1  0
  9 10  2  0
 10 11  1  0
 10 12  1  0
 12 13  2  0
 13 14  1  0
 13 15  1  0
 15 16  1  0
 16 17  2  0
 17 18  1  0
 17 19  1  0
 19 20  2  0
 20 21  1  0
 20 22  1  0
 22 23  1  0
 22 24  2  0
 24 25  1  0
  4 26  2  0
 26 27  1  0
 26 28  1  0
 28 29  1  0
 28 30  2  0
 30 31  1  0
 30  2  1  0
 15  9  1  0
 24 16  1  0
M  END
>  <cnnaffinity>  (1) 
-5.1543

>  <filename>  (1) 
O=C(Nc1cncn1-c1cccnc1)c1ccccn1

$$$$
