
     RDKit          3D

 34 36  0  0  0  0  0  0  0  0999 V2000
    4.9614    1.8394   16.9181 H   0  0  0  0  0  0  0  0  0  0  0  0
    5.4044    1.2894   17.7465 C   0  0  0  0  0  0  0  0  0  0  0  0
    6.5053    0.5821   17.4527 N   0  0  0  0  0  0  0  0  0  0  0  0
    7.0913   -0.0876   18.4467 C   0  0  0  0  0  0  0  0  0  0  0  0
    7.9795   -0.6602   18.1883 H   0  0  0  0  0  0  0  0  0  0  0  0
    6.6329   -0.0599   19.7715 C   0  0  0  0  0  0  0  0  0  0  0  0
    7.4475   -0.6715   20.8907 C   0  0  0  0  0  0  0  0  0  0  0  0
    6.7009   -1.5757   21.5674 F   0  0  0  0  0  0  0  0  0  0  0  0
    8.5092   -1.3775   20.3574 F   0  0  0  0  0  0  0  0  0  0  0  0
    7.9985    0.4149   21.9095 C   0  0  0  0  0  0  0  0  0  0  0  0
    7.4016    0.7238   22.9166 O   0  0  0  0  0  0  0  0  0  0  0  0
    9.1575    1.0135   21.4788 N   0  0  0  0  0  0  0  0  0  0  0  0
    9.7193    0.4727   20.8408 H   0  0  0  0  0  0  0  0  0  0  0  0
    9.8258    2.0879   22.1190 C   0  0  0  0  0  0  0  0  0  0  0  0
    9.1890    3.2818   22.3544 C   0  0  0  0  0  0  0  0  0  0  0  0
    8.1165    3.3394   22.1963 H   0  0  0  0  0  0  0  0  0  0  0  0
    9.9276    4.4120   22.8223 C   0  0  0  0  0  0  0  0  0  0  0  0
    9.4115    5.3622   22.9626 H   0  0  0  0  0  0  0  0  0  0  0  0
   11.2839    4.3172   23.0418 C   0  0  0  0  0  0  0  0  0  0  0  0
   11.8660    5.1795   23.3628 H   0  0  0  0  0  0  0  0  0  0  0  0
   11.9647    3.0707   22.8555 C   0  0  0  0  0  0  0  0  0  0  0  0
   13.3737    2.9364   23.0350 C   0  0  0  0  0  0  0  0  0  0  0  0
   13.9465    3.8083   23.3352 H   0  0  0  0  0  0  0  0  0  0  0  0
   13.9952    1.7242   22.8373 C   0  0  0  0  0  0  0  0  0  0  0  0
   15.0743    1.6412   22.8496 H   0  0  0  0  0  0  0  0  0  0  0  0
   13.2415    0.5699   22.5206 C   0  0  0  0  0  0  0  0  0  0  0  0
   13.7554   -0.3789   22.3956 H   0  0  0  0  0  0  0  0  0  0  0  0
   11.8842    0.6591   22.3472 C   0  0  0  0  0  0  0  0  0  0  0  0
   11.2923   -0.2389   22.1786 H   0  0  0  0  0  0  0  0  0  0  0  0
   11.2185    1.9216   22.4341 C   0  0  0  0  0  0  0  0  0  0  0  0
    5.4570    0.6440   20.0647 C   0  0  0  0  0  0  0  0  0  0  0  0
    5.0609    0.6660   21.0823 H   0  0  0  0  0  0  0  0  0  0  0  0
    4.8328    1.3287   19.0226 C   0  0  0  0  0  0  0  0  0  0  0  0
    3.9303    1.9054   19.1802 H   0  0  0  0  0  0  0  0  0  0  0  0
  1  2  1  0
  2  3  2  0
  3  4  1  0
  4  5  1  0
  4  6  2  0
  6  7  1  0
  7  8  1  0
  7  9  1  0
  7 10  1  0
 10 11  2  0
 10 12  1  0
 12 13  1  0
 12 14  1  0
 14 15  2  0
 15 16  1  0
 15 17  1  0
 17 18  1  0
 17 19  2  0
 19 20  1  0
 19 21  1  0
 21 22  2  0
 22 23  1  0
 22 24  1  0
 24 25  1  0
 24 26  2  0
 26 27  1  0
 26 28  1  0
 28 29  1  0
 28 30  2  0
  6 31  1  0
 31 32  1  0
 31 33  2  0
 33 34  1  0
 33  2  1  0
 30 14  1  0
 30 21  1  0
M  END
>  <cnnaffinity>  (1) 
-5.00084

>  <filename>  (1) 
O=C(Nc1cccc2ccccc12)C(F)(F)c1cccnc1

$$$$
