
     RDKit          3D

 32 33  0  0  0  0  0  0  0  0999 V2000
    4.9153    1.7780   16.9999 H   0  0  0  0  0  0  0  0  0  0  0  0
    5.4006    1.2918   17.8437 C   0  0  0  0  0  0  0  0  0  0  0  0
    6.5644    0.6773   17.5791 N   0  0  0  0  0  0  0  0  0  0  0  0
    7.1775    0.0704   18.5943 C   0  0  0  0  0  0  0  0  0  0  0  0
    8.1231   -0.4239   18.3699 H   0  0  0  0  0  0  0  0  0  0  0  0
    6.6620    0.0169   19.9069 C   0  0  0  0  0  0  0  0  0  0  0  0
    7.3978   -0.7000   20.9817 C   0  0  0  0  0  0  0  0  0  0  0  0
    9.0228   -0.6435   21.0637 S   0  0  0  0  0  0  0  0  0  0  0  0
    6.5423   -1.5873   21.9037 C   0  0  0  0  0  0  0  0  0  0  0  0
    5.5443   -2.1356   21.4705 O   0  0  0  0  0  0  0  0  0  0  0  0
    7.0476   -1.7752   23.3771 C   0  0  0  0  0  0  0  0  0  0  0  0
    7.9115   -1.0650   23.8595 O   0  0  0  0  0  0  0  0  0  0  0  0
    6.4722   -2.7813   24.0857 N   0  0  0  0  0  0  0  0  0  0  0  0
    5.7452   -3.3456   23.6763 H   0  0  0  0  0  0  0  0  0  0  0  0
    6.8304   -3.0184   25.4819 C   0  0  0  0  0  0  0  0  0  0  0  0
    6.6707   -2.0995   26.0604 H   0  0  0  0  0  0  0  0  0  0  0  0
    7.9046   -3.2311   25.5382 H   0  0  0  0  0  0  0  0  0  0  0  0
    6.0302   -4.1582   26.0667 C   0  0  0  0  0  0  0  0  0  0  0  0
    4.8001   -3.9201   26.7028 C   0  0  0  0  0  0  0  0  0  0  0  0
    4.4237   -2.9025   26.7794 H   0  0  0  0  0  0  0  0  0  0  0  0
    4.0495   -4.9785   27.2296 C   0  0  0  0  0  0  0  0  0  0  0  0
    3.0958   -4.7790   27.7115 H   0  0  0  0  0  0  0  0  0  0  0  0
    4.5248   -6.2910   27.1316 C   0  0  0  0  0  0  0  0  0  0  0  0
    3.9455   -7.1160   27.5400 H   0  0  0  0  0  0  0  0  0  0  0  0
    5.7512   -6.5386   26.5060 C   0  0  0  0  0  0  0  0  0  0  0  0
    6.1222   -7.5551   26.4259 H   0  0  0  0  0  0  0  0  0  0  0  0
    6.5002   -5.4793   25.9809 C   0  0  0  0  0  0  0  0  0  0  0  0
    7.4526   -5.6808   25.4956 H   0  0  0  0  0  0  0  0  0  0  0  0
    5.4386    0.6488   20.1614 C   0  0  0  0  0  0  0  0  0  0  0  0
    4.9971    0.6287   21.1623 H   0  0  0  0  0  0  0  0  0  0  0  0
    4.8057    1.3122   19.1085 C   0  0  0  0  0  0  0  0  0  0  0  0
    3.8725    1.8456   19.2597 H   0  0  0  0  0  0  0  0  0  0  0  0
  1  2  1  0
  2  3  2  0
  3  4  1  0
  4  5  1  0
  4  6  2  0
  6  7  1  0
  7  8  2  0
  7  9  1  0
  9 10  2  0
  9 11  1  0
 11 12  2  0
 11 13  1  0
 13 14  1  0
 13 15  1  0
 15 16  1  0
 15 17  1  0
 15 18  1  0
 18 19  2  0
 19 20  1  0
 19 21  1  0
 21 22  1  0
 21 23  2  0
 23 24  1  0
 23 25  1  0
 25 26  1  0
 25 27  2  0
 27 28  1  0
  6 29  1  0
 29 30  1  0
 29 31  2  0
 31 32  1  0
 31  2  1  0
 27 18  1  0
M  END
>  <cnnaffinity>  (1) 
-4.59285

>  <filename>  (1) 
O=C(NCc1ccccc1)C(=O)C(=S)c1cccnc1

$$$$
