
     RDKit          3D

 31 32  0  0  0  0  0  0  0  0999 V2000
    5.0156    1.8642   16.9792 H   0  0  0  0  0  0  0  0  0  0  0  0
    5.4547    1.3362   17.8240 C   0  0  0  0  0  0  0  0  0  0  0  0
    6.6056    0.6924   17.5796 N   0  0  0  0  0  0  0  0  0  0  0  0
    7.1794    0.0491   18.5983 C   0  0  0  0  0  0  0  0  0  0  0  0
    8.1107   -0.4678   18.3851 H   0  0  0  0  0  0  0  0  0  0  0  0
    6.6416    0.0145   19.8933 C   0  0  0  0  0  0  0  0  0  0  0  0
    7.4894   -0.6458   20.9243 C   0  0  0  0  0  0  0  0  0  0  0  0
    8.5255   -1.1996   20.6540 O   0  0  0  0  0  0  0  0  0  0  0  0
    6.9774   -0.4673   22.6503 S   0  0  0  0  0  0  0  0  0  0  0  0
    8.2472    0.7922   22.9997 C   0  0  0  0  0  0  0  0  0  0  0  0
    9.2059    0.3700   22.6692 H   0  0  0  0  0  0  0  0  0  0  0  0
    8.2980    0.9507   24.0927 H   0  0  0  0  0  0  0  0  0  0  0  0
    8.0010    2.0008   22.2629 N   0  0  0  0  0  0  0  0  0  0  0  0
    6.8636    2.8005   22.7751 C   0  0  0  0  0  0  0  0  0  0  0  0
    5.9253    2.3792   22.3979 H   0  0  0  0  0  0  0  0  0  0  0  0
    6.8044    2.7394   23.8769 H   0  0  0  0  0  0  0  0  0  0  0  0
    6.8810    4.2842   22.3221 C   0  0  0  0  0  0  0  0  0  0  0  0
    6.5598    4.2734   21.2726 H   0  0  0  0  0  0  0  0  0  0  0  0
    6.1023    4.8337   22.8626 H   0  0  0  0  0  0  0  0  0  0  0  0
    8.1662    5.0111   22.4874 N   0  0  0  0  0  0  0  0  0  0  0  0
    8.3140    5.5267   21.6198 H   0  0  0  0  0  0  0  0  0  0  0  0
    9.3070    4.0961   22.6957 C   0  0  0  0  0  0  0  0  0  0  0  0
    9.3477    3.8250   23.7610 H   0  0  0  0  0  0  0  0  0  0  0  0
   10.2384    4.6230   22.4683 H   0  0  0  0  0  0  0  0  0  0  0  0
    9.1856    2.7978   21.8662 C   0  0  0  0  0  0  0  0  0  0  0  0
   10.0947    2.1919   21.9451 H   0  0  0  0  0  0  0  0  0  0  0  0
    9.0801    3.0545   20.8019 H   0  0  0  0  0  0  0  0  0  0  0  0
    5.4148    0.6525   20.1298 C   0  0  0  0  0  0  0  0  0  0  0  0
    4.9404    0.6284   21.1138 H   0  0  0  0  0  0  0  0  0  0  0  0
    4.8185    1.3358   19.0701 C   0  0  0  0  0  0  0  0  0  0  0  0
    3.8871    1.8737   19.2018 H   0  0  0  0  0  0  0  0  0  0  0  0
  1  2  1  0
  2  3  2  0
  3  4  1  0
  4  5  1  0
  4  6  2  0
  6  7  1  0
  7  8  2  0
  7  9  1  0
  9 10  1  0
 10 11  1  0
 10 12  1  0
 10 13  1  0
 13 14  1  0
 14 15  1  0
 14 16  1  0
 14 17  1  0
 17 18  1  0
 17 19  1  0
 17 20  1  0
 20 21  1  0
 20 22  1  0
 22 23  1  0
 22 24  1  0
 22 25  1  0
 25 26  1  0
 25 27  1  0
  6 28  1  0
 28 29  1  0
 28 30  2  0
 30 31  1  0
 30  2  1  0
 25 13  1  0
M  END
>  <cnnaffinity>  (1) 
-3.92972

>  <filename>  (1) 
O=C(SCN1CCNCC1)c1cccnc1

$$$$
