
     RDKit          3D

 31 33  0  0  0  0  0  0  0  0999 V2000
    4.9215    1.7786   16.9986 H   0  0  0  0  0  0  0  0  0  0  0  0
    5.4057    1.2910   17.8443 C   0  0  0  0  0  0  0  0  0  0  0  0
    6.5749    0.6736   17.5954 N   0  0  0  0  0  0  0  0  0  0  0  0
    7.1793    0.0424   18.6054 C   0  0  0  0  0  0  0  0  0  0  0  0
    8.1259   -0.4398   18.3763 H   0  0  0  0  0  0  0  0  0  0  0  0
    6.6550   -0.0009   19.9070 C   0  0  0  0  0  0  0  0  0  0  0  0
    7.3622   -0.6752   20.9364 N   0  0  0  0  0  0  0  0  0  0  0  0
    7.9566   -1.8685   20.6965 N   0  0  0  0  0  0  0  0  0  0  0  0
    8.4754   -2.2217   21.8620 C   0  0  0  0  0  0  0  0  0  0  0  0
    9.0211   -3.1501   21.9491 H   0  0  0  0  0  0  0  0  0  0  0  0
    8.2519   -1.2783   22.8743 C   0  0  0  0  0  0  0  0  0  0  0  0
    8.5630   -1.2748   23.9026 H   0  0  0  0  0  0  0  0  0  0  0  0
    7.5488   -0.2876   22.2421 C   0  0  0  0  0  0  0  0  0  0  0  0
    7.1048    0.9282   22.7695 N   0  0  0  0  0  0  0  0  0  0  0  0
    7.1026    1.7281   22.1613 H   0  0  0  0  0  0  0  0  0  0  0  0
    6.8372    1.1107   24.1072 C   0  0  0  0  0  0  0  0  0  0  0  0
    6.9565    0.2099   24.9147 O   0  0  0  0  0  0  0  0  0  0  0  0
    6.3700    2.5030   24.5414 C   0  0  0  0  0  0  0  0  0  0  0  0
    6.5664    2.9172   25.8759 C   0  0  0  0  0  0  0  0  0  0  0  0
    7.0628    2.2703   26.5924 H   0  0  0  0  0  0  0  0  0  0  0  0
    6.0999    4.1683   26.2877 C   0  0  0  0  0  0  0  0  0  0  0  0
    6.2559    4.4950   27.3124 H   0  0  0  0  0  0  0  0  0  0  0  0
    5.4501    5.0285   25.4926 N   0  0  0  0  0  0  0  0  0  0  0  0
    5.2450    4.6281   24.2315 C   0  0  0  0  0  0  0  0  0  0  0  0
    4.7180    5.3202   23.5830 H   0  0  0  0  0  0  0  0  0  0  0  0
    5.6694    3.3989   23.7166 C   0  0  0  0  0  0  0  0  0  0  0  0
    5.4243    3.1545   22.6880 H   0  0  0  0  0  0  0  0  0  0  0  0
    5.4387    0.6448   20.1650 C   0  0  0  0  0  0  0  0  0  0  0  0
    5.0005    0.6208   21.1643 H   0  0  0  0  0  0  0  0  0  0  0  0
    4.8077    1.3040   19.1080 C   0  0  0  0  0  0  0  0  0  0  0  0
    3.8770    1.8397   19.2620 H   0  0  0  0  0  0  0  0  0  0  0  0
  1  2  1  0
  2  3  2  0
  3  4  1  0
  4  5  1  0
  4  6  2  0
  6  7  1  0
  7  8  1  0
  8  9  2  0
  9 10  1  0
  9 11  1  0
 11 12  1  0
 11 13  2  0
 13 14  1  0
 14 15  1  0
 14 16  1  0
 16 17  2  0
 16 18  1  0
 18 19  2  0
 19 20  1  0
 19 21  1  0
 21 22  1  0
 21 23  2  0
 23 24  1  0
 24 25  1  0
 24 26  2  0
 26 27  1  0
  6 28  1  0
 28 29  1  0
 28 30  2  0
 30 31  1  0
 30  2  1  0
 13  7  1  0
 26 18  1  0
M  END
>  <cnnaffinity>  (1) 
-4.9073

>  <filename>  (1) 
O=C(Nc1ccnn1-c1cccnc1)c1ccncc1

$$$$
