
     RDKit          3D

 18 18  0  0  0  0  0  0  0  0999 V2000
    4.9485    1.7731   16.9999 H   0  0  0  0  0  0  0  0  0  0  0  0
    5.4098    1.2803   17.8549 C   0  0  0  0  0  0  0  0  0  0  0  0
    6.5720    0.6540   17.6260 N   0  0  0  0  0  0  0  0  0  0  0  0
    7.1567    0.0306   18.6525 C   0  0  0  0  0  0  0  0  0  0  0  0
    8.1179   -0.4240   18.4215 H   0  0  0  0  0  0  0  0  0  0  0  0
    6.6030   -0.0440   19.9352 C   0  0  0  0  0  0  0  0  0  0  0  0
    7.4269   -0.7291   20.9826 C   0  0  0  0  0  0  0  0  0  0  0  0
    8.6384   -0.7953   20.9163 O   0  0  0  0  0  0  0  0  0  0  0  0
    6.7243   -1.2379   22.0330 N   0  0  0  0  0  0  0  0  0  0  0  0
    5.7289   -1.3271   21.9213 H   0  0  0  0  0  0  0  0  0  0  0  0
    7.3828   -1.8818   23.1350 C   0  0  0  0  0  0  0  0  0  0  0  0
    8.1465   -1.2181   23.5546 H   0  0  0  0  0  0  0  0  0  0  0  0
    6.6500   -2.1316   23.9035 H   0  0  0  0  0  0  0  0  0  0  0  0
    8.2001   -3.3919   22.6710 Cl  0  0  0  0  0  0  0  0  0  0  0  0
    5.3968    0.6359   20.1749 C   0  0  0  0  0  0  0  0  0  0  0  0
    4.9589    0.6800   21.1768 H   0  0  0  0  0  0  0  0  0  0  0  0
    4.7975    1.3096   19.1122 C   0  0  0  0  0  0  0  0  0  0  0  0
    3.8697    1.8517   19.2475 H   0  0  0  0  0  0  0  0  0  0  0  0
  1  2  1  0
  2  3  2  0
  3  4  1  0
  4  5  1  0
  4  6  2  0
  6  7  1  0
  7  8  2  0
  7  9  1  0
  9 10  1  0
  9 11  1  0
 11 12  1  0
 11 13  1  0
 11 14  1  0
  6 15  1  0
 15 16  1  0
 15 17  2  0
 17 18  1  0
 17  2  1  0
M  END
>  <cnnaffinity>  (1) 
-3.74532

>  <filename>  (1) 
O=C(NCCl)c1cccnc1

$$$$
