
     RDKit          3D

 33 35  0  0  0  0  0  0  0  0999 V2000
    4.9208    1.7908   16.9955 H   0  0  0  0  0  0  0  0  0  0  0  0
    5.3941    1.2919   17.8369 C   0  0  0  0  0  0  0  0  0  0  0  0
    6.5523    0.6681   17.5713 N   0  0  0  0  0  0  0  0  0  0  0  0
    7.1728    0.0531   18.5833 C   0  0  0  0  0  0  0  0  0  0  0  0
    8.1286   -0.4193   18.3650 H   0  0  0  0  0  0  0  0  0  0  0  0
    6.6607    0.0033   19.9000 C   0  0  0  0  0  0  0  0  0  0  0  0
    7.3467   -0.6771   20.9477 N   0  0  0  0  0  0  0  0  0  0  0  0
    6.7467   -1.4321   21.9517 C   0  0  0  0  0  0  0  0  0  0  0  0
    5.6756   -1.5814   21.9149 H   0  0  0  0  0  0  0  0  0  0  0  0
    7.7057   -1.9197   22.7834 C   0  0  0  0  0  0  0  0  0  0  0  0
    7.6339   -2.8376   23.9867 C   0  0  0  0  0  0  0  0  0  0  0  0
    8.6307   -3.2993   24.5171 O   0  0  0  0  0  0  0  0  0  0  0  0
    6.3643   -3.1356   24.4135 N   0  0  0  0  0  0  0  0  0  0  0  0
    5.6308   -2.4992   24.1652 H   0  0  0  0  0  0  0  0  0  0  0  0
    6.0481   -4.1724   25.3120 C   0  0  0  0  0  0  0  0  0  0  0  0
    6.7822   -5.3622   25.2719 C   0  0  0  0  0  0  0  0  0  0  0  0
    7.5892   -5.4724   24.5571 H   0  0  0  0  0  0  0  0  0  0  0  0
    6.4854   -6.3863   26.1606 C   0  0  0  0  0  0  0  0  0  0  0  0
    7.0791   -7.2790   26.1343 H   0  0  0  0  0  0  0  0  0  0  0  0
    5.4547   -6.2467   27.0882 C   0  0  0  0  0  0  0  0  0  0  0  0
    5.1142   -7.5553   28.1786 Cl  0  0  0  0  0  0  0  0  0  0  0  0
    4.7046   -5.0697   27.1310 C   0  0  0  0  0  0  0  0  0  0  0  0
    3.9027   -4.9779   27.8590 H   0  0  0  0  0  0  0  0  0  0  0  0
    5.0009   -4.0341   26.2311 C   0  0  0  0  0  0  0  0  0  0  0  0
    4.4299   -3.1110   26.2591 H   0  0  0  0  0  0  0  0  0  0  0  0
    8.9200   -1.4576   22.2414 N   0  0  0  0  0  0  0  0  0  0  0  0
    9.8718   -1.5996   22.5379 H   0  0  0  0  0  0  0  0  0  0  0  0
    8.7429   -0.6780   21.1351 C   0  0  0  0  0  0  0  0  0  0  0  0
    9.6189   -0.1329   20.4960 O   0  0  0  0  0  0  0  0  0  0  0  0
    5.4445    0.6456   20.1590 C   0  0  0  0  0  0  0  0  0  0  0  0
    5.0295    0.6374   21.1671 H   0  0  0  0  0  0  0  0  0  0  0  0
    4.8092    1.3085   19.1066 C   0  0  0  0  0  0  0  0  0  0  0  0
    3.8792    1.8398   19.2605 H   0  0  0  0  0  0  0  0  0  0  0  0
  1  2  1  0
  2  3  2  0
  3  4  1  0
  4  5  1  0
  4  6  2  0
  6  7  1  0
  7  8  1  0
  8  9  1  0
  8 10  2  0
 10 11  1  0
 11 12  2  0
 11 13  1  0
 13 14  1  0
 13 15  1  0
 15 16  2  0
 16 17  1  0
 16 18  1  0
 18 19  1  0
 18 20  2  0
 20 21  1  0
 20 22  1  0
 22 23  1  0
 22 24  2  0
 24 25  1  0
 10 26  1  0
 26 27  1  0
 26 28  1  0
 28 29  2  0
  6 30  1  0
 30 31  1  0
 30 32  2  0
 32 33  1  0
 32  2  1  0
 28  7  1  0
 24 15  1  0
M  END
>  <cnnaffinity>  (1) 
-5.24896

>  <filename>  (1) 
O=C(Nc1ccc(Cl)cc1)c1cn(-c2cccnc2)c(=O)[nH]1

$$$$
