
     RDKit          3D

 48 50  0  0  0  0  0  0  0  0999 V2000
    4.9072    1.8374   16.9663 H   0  0  0  0  0  0  0  0  0  0  0  0
    5.3870    1.3251   17.7980 C   0  0  0  0  0  0  0  0  0  0  0  0
    6.5520    0.7120   17.5305 N   0  0  0  0  0  0  0  0  0  0  0  0
    7.1772    0.0818   18.5370 C   0  0  0  0  0  0  0  0  0  0  0  0
    8.1271   -0.3908   18.2805 H   0  0  0  0  0  0  0  0  0  0  0  0
    6.6782   -0.0061   19.8649 C   0  0  0  0  0  0  0  0  0  0  0  0
    7.3557   -0.6700   20.9188 N   0  0  0  0  0  0  0  0  0  0  0  0
    6.6775   -1.6799   21.7282 C   0  0  0  0  0  0  0  0  0  0  0  0
    7.1807   -2.6603   21.6354 H   0  0  0  0  0  0  0  0  0  0  0  0
    5.6615   -1.8216   21.3406 H   0  0  0  0  0  0  0  0  0  0  0  0
    6.5672   -1.3182   23.2275 C   0  0  0  0  0  0  0  0  0  0  0  0
    6.3225   -0.2486   23.3219 H   0  0  0  0  0  0  0  0  0  0  0  0
    5.7546   -1.8915   23.6805 H   0  0  0  0  0  0  0  0  0  0  0  0
    7.7372   -1.5822   24.0705 N   0  0  0  0  0  0  0  0  0  0  0  0
    7.6468   -2.7590   24.8086 N   0  0  0  0  0  0  0  0  0  0  0  0
    7.4110   -3.6015   24.2955 H   0  0  0  0  0  0  0  0  0  0  0  0
    7.3245   -2.8111   26.1597 C   0  0  0  0  0  0  0  0  0  0  0  0
    7.2871   -1.8629   26.9130 O   0  0  0  0  0  0  0  0  0  0  0  0
    7.0810   -4.2493   26.6437 C   0  0  0  0  0  0  0  0  0  0  0  0
    7.0570   -4.9291   25.7803 H   0  0  0  0  0  0  0  0  0  0  0  0
    8.2608   -4.6200   27.5682 C   0  0  0  0  0  0  0  0  0  0  0  0
    9.2078   -4.5952   27.0156 H   0  0  0  0  0  0  0  0  0  0  0  0
    8.3090   -3.8207   28.3106 H   0  0  0  0  0  0  0  0  0  0  0  0
    8.0743   -5.9676   28.2598 C   0  0  0  0  0  0  0  0  0  0  0  0
    8.9154   -6.1435   28.9356 H   0  0  0  0  0  0  0  0  0  0  0  0
    8.1103   -6.7685   27.5099 H   0  0  0  0  0  0  0  0  0  0  0  0
    6.7397   -6.0369   29.0128 C   0  0  0  0  0  0  0  0  0  0  0  0
    6.7543   -5.3182   29.8466 H   0  0  0  0  0  0  0  0  0  0  0  0
    6.6095   -7.0284   29.4636 H   0  0  0  0  0  0  0  0  0  0  0  0
    5.5618   -5.7113   28.0815 C   0  0  0  0  0  0  0  0  0  0  0  0
    5.4827   -6.4990   27.3166 H   0  0  0  0  0  0  0  0  0  0  0  0
    4.6178   -5.7266   28.6387 H   0  0  0  0  0  0  0  0  0  0  0  0
    5.7375   -4.3494   27.3989 C   0  0  0  0  0  0  0  0  0  0  0  0
    4.8983   -4.1582   26.7170 H   0  0  0  0  0  0  0  0  0  0  0  0
    5.7282   -3.5454   28.1475 H   0  0  0  0  0  0  0  0  0  0  0  0
    9.0721   -1.4071   23.5014 C   0  0  0  0  0  0  0  0  0  0  0  0
    9.7524   -1.3257   24.3541 H   0  0  0  0  0  0  0  0  0  0  0  0
    9.3861   -2.3249   22.9693 H   0  0  0  0  0  0  0  0  0  0  0  0
    9.2001   -0.2010   22.5722 C   0  0  0  0  0  0  0  0  0  0  0  0
   10.2484    0.1181   22.5636 H   0  0  0  0  0  0  0  0  0  0  0  0
    8.6146    0.6353   22.9721 H   0  0  0  0  0  0  0  0  0  0  0  0
    8.7890   -0.4892   21.1197 C   0  0  0  0  0  0  0  0  0  0  0  0
    9.1083    0.3517   20.4936 H   0  0  0  0  0  0  0  0  0  0  0  0
    9.3601   -1.3711   20.7686 H   0  0  0  0  0  0  0  0  0  0  0  0
    5.4450    0.6331   20.1015 C   0  0  0  0  0  0  0  0  0  0  0  0
    5.0337    0.6023   21.1062 H   0  0  0  0  0  0  0  0  0  0  0  0
    4.7990    1.3159   19.0645 C   0  0  0  0  0  0  0  0  0  0  0  0
    3.8602    1.8379   19.2279 H   0  0  0  0  0  0  0  0  0  0  0  0
  1  2  1  0
  2  3  2  0
  3  4  1  0
  4  5  1  0
  4  6  2  0
  6  7  1  0
  7  8  1  0
  8  9  1  0
  8 10  1  0
  8 11  1  0
 11 12  1  0
 11 13  1  0
 11 14  1  0
 14 15  1  0
 15 16  1  0
 15 17  1  0
 17 18  2  0
 17 19  1  0
 19 20  1  0
 19 21  1  0
 21 22  1  0
 21 23  1  0
 21 24  1  0
 24 25  1  0
 24 26  1  0
 24 27  1  0
 27 28  1  0
 27 29  1  0
 27 30  1  0
 30 31  1  0
 30 32  1  0
 30 33  1  0
 33 34  1  0
 33 35  1  0
 14 36  1  0
 36 37  1  0
 36 38  1  0
 36 39  1  0
 39 40  1  0
 39 41  1  0
 39 42  1  0
 42 43  1  0
 42 44  1  0
  6 45  1  0
 45 46  1  0
 45 47  2  0
 47 48  1  0
 47  2  1  0
 42  7  1  0
 33 19  1  0
M  END
>  <cnnaffinity>  (1) 
-5.24115

>  <filename>  (1) 
O=C(NN1CCCN(c2cccnc2)CC1)C1CCCCC1

$$$$
