
     RDKit          3D

 35 36  0  0  0  0  0  0  0  0999 V2000
    7.7770   -3.5195   21.1687 O   0  0  0  0  0  0  0  0  0  0  0  0
    6.7823   -2.8532   20.9227 C   0  0  0  0  0  0  0  0  0  0  0  0
    5.6109   -3.0438   20.6486 O   0  0  0  0  0  1  0  0  0  0  0  0
    7.0457   -0.9152   21.1021 C   0  0  0  0  0  0  0  0  0  0  0  0
    8.3342   -0.2009   21.4539 N   0  0  0  0  0  4  0  0  0  0  0  0
    9.1534   -0.6668   22.6050 C   0  0  0  0  0  0  0  0  0  0  0  0
   10.4879    0.0558   22.5619 C   0  0  0  0  0  0  0  0  0  0  0  0
   11.7023   -0.5951   22.2453 C   0  0  0  0  0  0  0  0  0  0  0  0
   12.8899    0.1359   22.2095 C   0  0  0  0  0  0  0  0  0  0  0  0
   12.9627    1.4548   22.4618 N   0  0  0  0  0  0  0  0  0  0  0  0
   11.8336    2.0504   22.7638 C   0  0  0  0  0  0  0  0  0  0  0  0
   11.8018    3.3886   23.0572 O   0  0  0  0  0  0  0  0  0  0  0  0
   12.8682    4.1731   22.7163 C   0  0  0  0  0  0  0  0  0  0  0  0
   13.1673    4.1128   21.4199 F   0  0  0  0  0  0  0  0  0  0  0  0
   12.5152    5.4285   22.9886 F   0  0  0  0  0  0  0  0  0  0  0  0
   13.9532    3.8964   23.4322 F   0  0  0  0  0  0  0  0  0  0  0  0
   10.5861    1.4244   22.8355 C   0  0  0  0  0  0  0  0  0  0  0  0
    9.7521    2.0616   23.0840 H   0  0  0  0  0  0  0  0  0  0  0  0
   13.8279   -0.3508   21.9471 H   0  0  0  0  0  0  0  0  0  0  0  0
   11.7236   -1.6587   22.0249 H   0  0  0  0  0  0  0  0  0  0  0  0
    8.6556   -0.4603   23.5578 H   0  0  0  0  0  0  0  0  0  0  0  0
    9.2913   -1.7466   22.5315 H   0  0  0  0  0  0  0  0  0  0  0  0
    8.1406    0.8359   21.5749 H   0  0  0  0  0  0  0  0  0  0  0  0
    8.9513   -0.2541   20.6021 H   0  0  0  0  0  0  0  0  0  0  0  0
    6.5277   -0.1660   19.9155 C   0  0  0  0  0  0  0  0  0  0  0  0
    5.3149    0.5262   20.0430 C   0  0  0  0  0  0  0  0  0  0  0  0
    4.8432    1.2911   18.9762 C   0  0  0  0  0  0  0  0  0  0  0  0
    5.5905    1.3170   17.7965 C   0  0  0  0  0  0  0  0  0  0  0  0
    6.7487    0.6587   17.6417 N   0  0  0  0  0  0  0  0  0  0  0  0
    7.2076   -0.0485   18.6849 C   0  0  0  0  0  0  0  0  0  0  0  0
    8.1410   -0.5842   18.5009 H   0  0  0  0  0  0  0  0  0  0  0  0
    5.2420    1.8946   16.9412 H   0  0  0  0  0  0  0  0  0  0  0  0
    3.9351    1.8776   19.0585 H   0  0  0  0  0  0  0  0  0  0  0  0
    4.7740    0.4735   20.9886 H   0  0  0  0  0  0  0  0  0  0  0  0
    6.3247   -0.8765   21.9235 H   0  0  0  0  0  0  0  0  0  0  0  0
  1  2  2  0
  2  3  1  0
  2  4  1  0
  4  5  1  0
  5  6  1  0
  6  7  1  0
  7  8  2  0
  8  9  1  0
  9 10  2  0
 10 11  1  0
 11 12  1  0
 12 13  1  0
 13 14  1  0
 13 15  1  0
 13 16  1  0
 11 17  2  0
 17 18  1  0
  9 19  1  0
  8 20  1  0
  6 21  1  0
  6 22  1  0
  5 23  1  0
  5 24  1  0
  4 25  1  0
 25 26  2  0
 26 27  1  0
 27 28  2  0
 28 29  1  0
 29 30  2  0
 30 31  1  0
 28 32  1  0
 27 33  1  0
 26 34  1  0
  4 35  1  0
 17  7  1  0
 30 25  1  0
M  CHG  2   3  -1   5   1
M  END
>  <cnnaffinity>  (1) 
-4.44532

>  <filename>  (1) 
O=C([O-])C([NH2+]Cc1ccnc(OC(F)(F)F)c1)c1cccnc1

$$$$
