
     RDKit          3D

 28 29  0  0  0  0  0  0  0  0999 V2000
    6.4156   -0.5555   22.2054 O   0  0  0  0  0  0  0  0  0  0  0  0
    6.9194   -0.6510   21.0986 C   0  0  0  0  0  0  0  0  0  0  0  0
    8.0590   -1.4186   20.9342 N   0  0  0  0  0  0  0  0  0  0  0  0
    8.7043   -2.0887   21.9713 C   0  0  0  0  0  0  0  0  0  0  0  0
   10.0790   -2.2869   21.8961 C   0  0  0  0  0  0  0  0  0  0  0  0
   10.7446   -2.9899   22.9089 C   0  0  0  0  0  0  0  0  0  0  0  0
   10.0252   -3.5446   23.9738 C   0  0  0  0  0  0  0  0  0  0  0  0
   10.9273   -4.6564   25.2471 Br  0  0  0  0  0  0  0  0  0  0  0  0
    8.6440   -3.3120   24.0943 C   0  0  0  0  0  0  0  0  0  0  0  0
    7.9019   -3.9203   25.2772 C   0  0  0  0  0  0  0  0  0  0  0  0
    7.8819   -5.2738   25.1616 F   0  0  0  0  0  0  0  0  0  0  0  0
    8.5342   -3.6087   26.4380 F   0  0  0  0  0  0  0  0  0  0  0  0
    6.6175   -3.4798   25.3466 F   0  0  0  0  0  0  0  0  0  0  0  0
    7.9930   -2.5597   23.0854 C   0  0  0  0  0  0  0  0  0  0  0  0
    6.9285   -2.3387   23.1178 H   0  0  0  0  0  0  0  0  0  0  0  0
   11.8173   -3.1543   22.8598 H   0  0  0  0  0  0  0  0  0  0  0  0
   10.6270   -1.8958   21.0425 H   0  0  0  0  0  0  0  0  0  0  0  0
    8.5128   -1.3868   20.0275 H   0  0  0  0  0  0  0  0  0  0  0  0
    6.3583    0.0597   19.9637 C   0  0  0  0  0  0  0  0  0  0  0  0
    5.2253    0.8892   20.0326 C   0  0  0  0  0  0  0  0  0  0  0  0
    4.8116    1.4953   18.8475 C   0  0  0  0  0  0  0  0  0  0  0  0
    5.5169    1.2621   17.6626 C   0  0  0  0  0  0  0  0  0  0  0  0
    6.6029    0.4709   17.6111 N   0  0  0  0  0  0  0  0  0  0  0  0
    7.0071   -0.1093   18.7454 C   0  0  0  0  0  0  0  0  0  0  0  0
    7.8835   -0.7491   18.7145 H   0  0  0  0  0  0  0  0  0  0  0  0
    5.1785    1.7432   16.7513 H   0  0  0  0  0  0  0  0  0  0  0  0
    3.9521    2.1593   18.8258 H   0  0  0  0  0  0  0  0  0  0  0  0
    4.6783    1.0771   20.9612 H   0  0  0  0  0  0  0  0  0  0  0  0
  1  2  2  0
  2  3  1  0
  3  4  1  0
  4  5  2  0
  5  6  1  0
  6  7  2  0
  7  8  1  0
  7  9  1  0
  9 10  1  0
 10 11  1  0
 10 12  1  0
 10 13  1  0
  9 14  2  0
 14 15  1  0
  6 16  1  0
  5 17  1  0
  3 18  1  0
  2 19  1  0
 19 20  2  0
 20 21  1  0
 21 22  2  0
 22 23  1  0
 23 24  2  0
 24 25  1  0
 22 26  1  0
 21 27  1  0
 20 28  1  0
 14  4  1  0
 24 19  1  0
M  END
>  <cnnaffinity>  (1) 
-5.20388

>  <filename>  (1) 
O=C(Nc1ccc(Br)c(C(F)(F)F)c1)c1cccnc1

$$$$
