
     RDKit          3D

 37 39  0  0  0  0  0  0  0  0999 V2000
    7.6226   -1.7913   20.7309 H   0  0  0  0  0  0  0  0  0  0  0  0
    7.3946   -0.7397   20.9404 C   0  0  0  0  0  0  0  0  0  0  0  0
    7.8144   -0.1682   22.0795 C   0  0  0  0  0  0  0  0  0  0  0  0
    8.5766   -0.7789   23.1821 C   0  0  0  0  0  0  0  0  0  0  0  0
    9.0262   -2.2659   23.1558 C   0  0  0  0  0  0  0  0  0  0  0  0
    9.3095   -2.8382   22.1095 O   0  0  0  0  0  0  0  0  0  0  0  0
    9.1113   -2.9355   24.3700 N   0  0  0  0  0  0  0  0  0  0  0  0
    8.4334   -2.5048   25.6032 C   0  0  0  0  0  0  0  0  0  0  0  0
    7.4957   -2.0057   25.3432 H   0  0  0  0  0  0  0  0  0  0  0  0
    9.0428   -1.7806   26.1565 H   0  0  0  0  0  0  0  0  0  0  0  0
    8.1220   -3.7047   26.5023 C   0  0  0  0  0  0  0  0  0  0  0  0
    7.7471   -3.3611   27.4700 H   0  0  0  0  0  0  0  0  0  0  0  0
    7.3387   -4.3257   26.0393 H   0  0  0  0  0  0  0  0  0  0  0  0
    9.2719   -4.4942   26.7515 O   0  0  0  0  0  0  0  0  0  0  0  0
    9.7661   -5.0252   25.5321 C   0  0  0  0  0  0  0  0  0  0  0  0
   10.6193   -5.6640   25.7792 H   0  0  0  0  0  0  0  0  0  0  0  0
    8.9957   -5.6567   25.0639 H   0  0  0  0  0  0  0  0  0  0  0  0
   10.1914   -3.9201   24.5672 C   0  0  0  0  0  0  0  0  0  0  0  0
   11.1046   -3.4439   24.9541 H   0  0  0  0  0  0  0  0  0  0  0  0
   10.4313   -4.3499   23.5993 H   0  0  0  0  0  0  0  0  0  0  0  0
    8.8942    0.0500   24.1199 N   0  0  0  0  0  0  0  0  0  0  0  0
    8.4022    1.3816   23.7898 C   0  0  0  0  0  0  0  0  0  0  0  0
    7.7297    1.6979   24.5903 H   0  0  0  0  0  0  0  0  0  0  0  0
    9.2443    2.0775   23.7570 H   0  0  0  0  0  0  0  0  0  0  0  0
    7.6695    1.3000   22.4357 C   0  0  0  0  0  0  0  0  0  0  0  0
    6.6193    1.5945   22.5238 H   0  0  0  0  0  0  0  0  0  0  0  0
    8.1242    1.9423   21.6739 H   0  0  0  0  0  0  0  0  0  0  0  0
    6.6488   -0.0033   19.8930 C   0  0  0  0  0  0  0  0  0  0  0  0
    7.1609    0.0561   18.5855 C   0  0  0  0  0  0  0  0  0  0  0  0
    8.1128   -0.4287   18.3750 H   0  0  0  0  0  0  0  0  0  0  0  0
    6.5647    0.6841   17.5688 N   0  0  0  0  0  0  0  0  0  0  0  0
    5.3985    1.2978   17.8334 C   0  0  0  0  0  0  0  0  0  0  0  0
    4.9121    1.7843   16.9931 H   0  0  0  0  0  0  0  0  0  0  0  0
    4.7999    1.3142   19.0973 C   0  0  0  0  0  0  0  0  0  0  0  0
    3.8686    1.8468   19.2572 H   0  0  0  0  0  0  0  0  0  0  0  0
    5.4345    0.6552   20.1485 C   0  0  0  0  0  0  0  0  0  0  0  0
    5.0094    0.6228   21.1549 H   0  0  0  0  0  0  0  0  0  0  0  0
  1  2  1  0
  2  3  2  3
  3  4  1  0
  4  5  1  0
  5  6  2  0
  5  7  1  0
  7  8  1  0
  8  9  1  0
  8 10  1  0
  8 11  1  0
 11 12  1  0
 11 13  1  0
 11 14  1  0
 14 15  1  0
 15 16  1  0
 15 17  1  0
 15 18  1  0
 18 19  1  0
 18 20  1  0
  4 21  2  0
 21 22  1  0
 22 23  1  0
 22 24  1  0
 22 25  1  0
 25 26  1  0
 25 27  1  0
  2 28  1  0
 28 29  2  0
 29 30  1  0
 29 31  1  0
 31 32  2  0
 32 33  1  0
 32 34  1  0
 34 35  1  0
 34 36  2  0
 36 37  1  0
 25  3  1  0
 36 28  1  0
 18  7  1  0
M  END
>  <cnnaffinity>  (1) 
-5.14117

>  <filename>  (1) 
O=C(C1=NCCC1=Cc1cccnc1)N1CCOCC1

$$$$
