
     RDKit          3D

 27 28  0  0  0  0  0  0  0  0999 V2000
    4.9248    1.8370   16.9068 H   0  0  0  0  0  0  0  0  0  0  0  0
    5.3692    1.3158   17.7507 C   0  0  0  0  0  0  0  0  0  0  0  0
    6.5125    0.6566   17.5087 N   0  0  0  0  0  0  0  0  0  0  0  0
    7.0762    0.0004   18.5260 C   0  0  0  0  0  0  0  0  0  0  0  0
    8.0118   -0.5189   18.3247 H   0  0  0  0  0  0  0  0  0  0  0  0
    6.5363   -0.0383   19.8218 C   0  0  0  0  0  0  0  0  0  0  0  0
    7.4623   -0.8380   21.1186 S   0  0  0  0  0  0  0  0  0  0  0  0
    8.4522    0.5745   21.6638 C   0  0  0  0  0  0  0  0  0  0  0  0
    9.9449    0.9211   21.1123 S   0  0  0  0  0  0  0  0  0  0  0  0
    7.7614    1.3563   22.5668 N   0  0  0  0  0  0  0  0  0  0  0  0
    6.8108    1.6109   22.3361 H   0  0  0  0  0  0  0  0  0  0  0  0
    8.2918    2.4467   23.2676 C   0  0  0  0  0  0  0  0  0  0  0  0
    7.5779    3.4156   23.3769 O   0  0  0  0  0  0  0  0  0  0  0  0
    9.6905    2.3191   23.8297 C   0  0  0  0  0  0  0  0  0  0  0  0
   10.1717    1.1071   24.3497 C   0  0  0  0  0  0  0  0  0  0  0  0
    9.5511    0.2122   24.4148 H   0  0  0  0  0  0  0  0  0  0  0  0
   11.5267    1.0217   24.6888 C   0  0  0  0  0  0  0  0  0  0  0  0
   11.9462    0.0868   25.0517 H   0  0  0  0  0  0  0  0  0  0  0  0
   12.3859    2.0365   24.5555 N   0  0  0  0  0  0  0  0  0  0  0  0
   11.9190    3.2034   24.0922 C   0  0  0  0  0  0  0  0  0  0  0  0
   12.6395    4.0155   23.9881 H   0  0  0  0  0  0  0  0  0  0  0  0
   10.5793    3.4063   23.7520 C   0  0  0  0  0  0  0  0  0  0  0  0
   10.2710    4.3973   23.4277 H   0  0  0  0  0  0  0  0  0  0  0  0
    5.3290    0.6286   20.0550 C   0  0  0  0  0  0  0  0  0  0  0  0
    4.8677    0.6111   21.0433 H   0  0  0  0  0  0  0  0  0  0  0  0
    4.7363    1.3210   18.9952 C   0  0  0  0  0  0  0  0  0  0  0  0
    3.8088    1.8664   19.1302 H   0  0  0  0  0  0  0  0  0  0  0  0
  1  2  1  0
  2  3  2  0
  3  4  1  0
  4  5  1  0
  4  6  2  0
  6  7  1  0
  7  8  1  0
  8  9  2  0
  8 10  1  0
 10 11  1  0
 10 12  1  0
 12 13  2  0
 12 14  1  0
 14 15  2  0
 15 16  1  0
 15 17  1  0
 17 18  1  0
 17 19  2  0
 19 20  1  0
 20 21  1  0
 20 22  2  0
 22 23  1  0
  6 24  1  0
 24 25  1  0
 24 26  2  0
 26 27  1  0
 26  2  1  0
 22 14  1  0
M  END
>  <cnnaffinity>  (1) 
-4.9504

>  <filename>  (1) 
O=C(NC(=S)Sc1cccnc1)c1ccncc1

$$$$
