
     RDKit          3D

 30 32  0  0  0  0  0  0  0  0999 V2000
    4.9506    1.7824   17.0065 H   0  0  0  0  0  0  0  0  0  0  0  0
    5.4205    1.2742   17.8442 C   0  0  0  0  0  0  0  0  0  0  0  0
    6.5825    0.6475   17.5937 N   0  0  0  0  0  0  0  0  0  0  0  0
    7.2126    0.0582   18.6229 C   0  0  0  0  0  0  0  0  0  0  0  0
    8.1537   -0.4395   18.4038 H   0  0  0  0  0  0  0  0  0  0  0  0
    6.6854    0.0428   19.9294 C   0  0  0  0  0  0  0  0  0  0  0  0
    7.4285   -0.5204   20.9807 O   0  0  0  0  0  0  0  0  0  0  0  0
    6.8354   -1.4134   21.8398 C   0  0  0  0  0  0  0  0  0  0  0  0
    5.7968   -1.9763   21.5956 O   0  0  0  0  0  0  0  0  0  0  0  0
    7.7302   -1.6878   23.0710 C   0  0  0  0  0  0  0  0  0  0  0  0
    7.8003   -0.6547   24.1819 C   0  0  0  0  0  0  0  0  0  0  0  0
    6.9516   -0.6977   25.3098 C   0  0  0  0  0  0  0  0  0  0  0  0
    6.1865   -1.4692   25.4056 H   0  0  0  0  0  0  0  0  0  0  0  0
    7.0186    0.1811   26.3250 N   0  0  0  0  0  0  0  0  0  0  0  0
    7.9409    1.1502   26.2744 C   0  0  0  0  0  0  0  0  0  0  0  0
    7.9829    1.8601   27.1013 H   0  0  0  0  0  0  0  0  0  0  0  0
    8.8264    1.2737   25.2035 C   0  0  0  0  0  0  0  0  0  0  0  0
    9.7350    2.2610   25.2055 F   0  0  0  0  0  0  0  0  0  0  0  0
    8.7672    0.3677   24.1445 C   0  0  0  0  0  0  0  0  0  0  0  0
    9.4700    0.4508   23.3232 H   0  0  0  0  0  0  0  0  0  0  0  0
    8.9765   -2.5160   22.7890 C   0  0  0  0  0  0  0  0  0  0  0  0
    9.1934   -2.7438   21.7495 H   0  0  0  0  0  0  0  0  0  0  0  0
    9.8691   -2.2899   23.3708 H   0  0  0  0  0  0  0  0  0  0  0  0
    7.8078   -3.1498   23.4774 C   0  0  0  0  0  0  0  0  0  0  0  0
    7.1666   -3.8383   22.9307 H   0  0  0  0  0  0  0  0  0  0  0  0
    7.8845   -3.3657   24.5421 H   0  0  0  0  0  0  0  0  0  0  0  0
    5.4586    0.6602   20.1737 C   0  0  0  0  0  0  0  0  0  0  0  0
    5.0224    0.6206   21.1712 H   0  0  0  0  0  0  0  0  0  0  0  0
    4.8200    1.3028   19.1087 C   0  0  0  0  0  0  0  0  0  0  0  0
    3.8842    1.8331   19.2591 H   0  0  0  0  0  0  0  0  0  0  0  0
  1  2  1  0
  2  3  2  0
  3  4  1  0
  4  5  1  0
  4  6  2  0
  6  7  1  0
  7  8  1  0
  8  9  2  0
  8 10  1  0
 10 11  1  0
 11 12  2  0
 12 13  1  0
 12 14  1  0
 14 15  2  0
 15 16  1  0
 15 17  1  0
 17 18  1  0
 17 19  2  0
 19 20  1  0
 10 21  1  0
 21 22  1  0
 21 23  1  0
 21 24  1  0
 24 25  1  0
 24 26  1  0
  6 27  1  0
 27 28  1  0
 27 29  2  0
 29 30  1  0
 29  2  1  0
 24 10  1  0
 19 11  1  0
M  END
>  <cnnaffinity>  (1) 
-5.01425

>  <filename>  (1) 
O=C(Oc1cccnc1)C1(c2cncc(F)c2)CC1

$$$$
