
     RDKit          3D

 31 32  0  0  0  0  0  0  0  0999 V2000
    5.0933    1.6969   16.9106 H   0  0  0  0  0  0  0  0  0  0  0  0
    5.5031    1.2447   17.8105 C   0  0  0  0  0  0  0  0  0  0  0  0
    6.6934    0.6441   17.6749 N   0  0  0  0  0  0  0  0  0  0  0  0
    7.2353    0.1000   18.7605 C   0  0  0  0  0  0  0  0  0  0  0  0
    8.2328   -0.3237   18.6592 H   0  0  0  0  0  0  0  0  0  0  0  0
    6.5761    0.0796   19.9766 C   0  0  0  0  0  0  0  0  0  0  0  0
    7.4357   -0.8154   21.1656 S   0  0  0  0  0  0  0  0  0  0  0  0
    6.8490   -2.1105   21.4134 O   0  0  0  0  0  0  0  0  0  0  0  0
    8.8561   -0.6808   20.9279 O   0  0  0  0  0  0  0  0  0  0  0  0
    7.0099    0.0176   22.5186 N   0  0  0  0  0  0  0  0  0  0  0  0
    7.2285   -0.6063   23.2756 H   0  0  0  0  0  0  0  0  0  0  0  0
    7.4505    1.3270   22.5284 C   0  0  0  0  0  0  0  0  0  0  0  0
    7.8418    1.8842   21.5306 O   0  0  0  0  0  0  0  0  0  0  0  0
    7.3120    1.9813   23.8754 C   0  0  0  0  0  0  0  0  0  0  0  0
    6.3333    1.7136   24.2904 H   0  0  0  0  0  0  0  0  0  0  0  0
    7.3492    3.0557   23.7010 H   0  0  0  0  0  0  0  0  0  0  0  0
    8.4090    1.5083   24.8039 C   0  0  0  0  0  0  0  0  0  0  0  0
    8.0989    0.5206   25.7490 C   0  0  0  0  0  0  0  0  0  0  0  0
    7.0571    0.2199   25.8729 H   0  0  0  0  0  0  0  0  0  0  0  0
    9.0978   -0.0848   26.5132 C   0  0  0  0  0  0  0  0  0  0  0  0
    8.8438   -0.8413   27.2511 H   0  0  0  0  0  0  0  0  0  0  0  0
   10.4288    0.2936   26.3246 C   0  0  0  0  0  0  0  0  0  0  0  0
   11.1886   -0.1569   26.9413 H   0  0  0  0  0  0  0  0  0  0  0  0
   10.7679    1.2812   25.3997 C   0  0  0  0  0  0  0  0  0  0  0  0
   11.7990    1.5737   25.2248 H   0  0  0  0  0  0  0  0  0  0  0  0
    9.7543    1.9000   24.6661 C   0  0  0  0  0  0  0  0  0  0  0  0
   10.2050    3.1820   23.5815 Cl  0  0  0  0  0  0  0  0  0  0  0  0
    5.3495    0.7272   20.1560 C   0  0  0  0  0  0  0  0  0  0  0  0
    4.8461    0.8097   21.1234 H   0  0  0  0  0  0  0  0  0  0  0  0
    4.8104    1.3243   19.0234 C   0  0  0  0  0  0  0  0  0  0  0  0
    3.8758    1.8676   19.0658 H   0  0  0  0  0  0  0  0  0  0  0  0
  1  2  1  0
  2  3  2  0
  3  4  1  0
  4  5  1  0
  4  6  2  0
  6  7  1  0
  7  8  2  0
  7  9  2  0
  7 10  1  0
 10 11  1  0
 10 12  1  0
 12 13  2  0
 12 14  1  0
 14 15  1  0
 14 16  1  0
 14 17  1  0
 17 18  2  0
 18 19  1  0
 18 20  1  0
 20 21  1  0
 20 22  2  0
 22 23  1  0
 22 24  1  0
 24 25  1  0
 24 26  2  0
 26 27  1  0
  6 28  1  0
 28 29  1  0
 28 30  2  0
 30 31  1  0
 30  2  1  0
 26 17  1  0
M  END
>  <cnnaffinity>  (1) 
-4.94765

>  <filename>  (1) 
O=C(Cc1ccccc1Cl)NS(=O)(=O)c1cccnc1

$$$$
