
     RDKit          3D

 43 45  0  0  0  0  0  0  0  0999 V2000
    9.6941   -2.8323   24.4199 O   0  0  0  0  0  0  0  0  0  0  0  0
    8.5308   -2.6156   24.7088 C   0  0  0  0  0  0  0  0  0  0  0  0
    7.7722   -1.6971   24.0396 N   0  0  0  0  0  0  0  0  0  0  0  0
    8.1907   -0.9443   22.8607 C   0  0  0  0  0  0  0  0  0  0  0  0
    8.8358   -1.7996   21.7623 C   0  0  0  0  0  0  0  0  0  0  0  0
    8.7069   -0.9332   20.5132 C   0  0  0  0  0  0  0  0  0  0  0  0
    7.5119   -0.1252   20.7543 N   0  0  0  0  0  0  0  0  0  0  0  0
    6.7591    0.4140   19.7280 C   0  0  0  0  0  0  0  0  0  0  0  0
    5.5026    1.0158   19.9649 C   0  0  0  0  0  0  0  0  0  0  0  0
    4.7558    1.4877   18.8831 C   0  0  0  0  0  0  0  0  0  0  0  0
    5.2716    1.3758   17.5893 C   0  0  0  0  0  0  0  0  0  0  0  0
    6.4789    0.8509   17.3310 N   0  0  0  0  0  0  0  0  0  0  0  0
    7.1977    0.4098   18.3689 C   0  0  0  0  0  0  0  0  0  0  0  0
    8.1932    0.0469   18.1218 H   0  0  0  0  0  0  0  0  0  0  0  0
    4.7204    1.7250   16.7250 H   0  0  0  0  0  0  0  0  0  0  0  0
    3.7903    1.9583   19.0372 H   0  0  0  0  0  0  0  0  0  0  0  0
    5.1415    1.1177   20.9856 H   0  0  0  0  0  0  0  0  0  0  0  0
    7.0086   -0.2992   22.1145 C   0  0  0  0  0  0  0  0  0  0  0  0
    6.7178    0.6556   22.5706 H   0  0  0  0  0  0  0  0  0  0  0  0
    6.1327   -0.9712   22.1365 H   0  0  0  0  0  0  0  0  0  0  0  0
    9.5807   -0.2813   20.3710 H   0  0  0  0  0  0  0  0  0  0  0  0
    8.6024   -1.5294   19.6001 H   0  0  0  0  0  0  0  0  0  0  0  0
    8.2556   -2.7233   21.6509 H   0  0  0  0  0  0  0  0  0  0  0  0
    9.8631   -2.0790   21.9972 H   0  0  0  0  0  0  0  0  0  0  0  0
    8.8951   -0.1443   23.1405 H   0  0  0  0  0  0  0  0  0  0  0  0
    6.8615   -1.5152   24.4225 H   0  0  0  0  0  0  0  0  0  0  0  0
    7.7729   -3.4010   25.7938 C   0  0  0  0  0  0  0  0  0  0  0  0
    8.5176   -3.4119   27.1586 C   0  0  0  0  0  0  0  0  0  0  0  0
    9.6451   -4.4468   27.1771 C   0  0  0  0  0  0  0  0  0  0  0  0
    9.0330   -5.8597   27.0238 C   0  0  0  0  0  0  0  0  0  0  0  0
    7.6441   -5.9051   26.3487 C   0  0  0  0  0  0  0  0  0  0  0  0
    7.4791   -4.8456   25.2583 C   0  0  0  0  0  0  0  0  0  0  0  0
    8.1511   -5.0995   24.4286 H   0  0  0  0  0  0  0  0  0  0  0  0
    6.4600   -4.8855   24.8551 H   0  0  0  0  0  0  0  0  0  0  0  0
    7.4763   -6.9040   25.9403 H   0  0  0  0  0  0  0  0  0  0  0  0
    6.8633   -5.7620   27.1082 H   0  0  0  0  0  0  0  0  0  0  0  0
    8.8901   -6.2843   28.0215 H   0  0  0  0  0  0  0  0  0  0  0  0
    9.7309   -6.5067   26.4795 H   0  0  0  0  0  0  0  0  0  0  0  0
   10.3545   -4.2215   26.3720 H   0  0  0  0  0  0  0  0  0  0  0  0
   10.2062   -4.3897   28.1187 H   0  0  0  0  0  0  0  0  0  0  0  0
    7.7890   -3.7119   27.9255 H   0  0  0  0  0  0  0  0  0  0  0  0
    8.8670   -2.4077   27.4228 H   0  0  0  0  0  0  0  0  0  0  0  0
    6.8103   -2.9045   25.9693 H   0  0  0  0  0  0  0  0  0  0  0  0
  1  2  2  0
  2  3  1  0
  3  4  1  0
  4  5  1  0
  5  6  1  0
  6  7  1  0
  7  8  1  0
  8  9  2  0
  9 10  1  0
 10 11  2  0
 11 12  1  0
 12 13  2  0
 13 14  1  0
 11 15  1  0
 10 16  1  0
  9 17  1  0
  7 18  1  0
 18 19  1  0
 18 20  1  0
  6 21  1  0
  6 22  1  0
  5 23  1  0
  5 24  1  0
  4 25  1  0
  3 26  1  0
  2 27  1  0
 27 28  1  0
 28 29  1  0
 29 30  1  0
 30 31  1  0
 31 32  1  0
 32 33  1  0
 32 34  1  0
 31 35  1  0
 31 36  1  0
 30 37  1  0
 30 38  1  0
 29 39  1  0
 29 40  1  0
 28 41  1  0
 28 42  1  0
 27 43  1  0
 18  4  1  0
 32 27  1  0
 13  8  1  0
M  END
>  <cnnaffinity>  (1) 
-4.74987

>  <filename>  (1) 
O=C(NC1CCN(c2cccnc2)C1)C1CCCCC1

$$$$
