
     RDKit          3D

 42 44  0  0  0  0  0  0  0  0999 V2000
    6.9894    1.8450   21.8604 H   0  0  0  0  0  0  0  0  0  0  0  0
    7.2972    1.0850   22.5854 C   0  0  0  0  0  0  0  0  0  0  0  0
    7.5472   -0.1914   22.2561 C   0  0  0  0  0  0  0  0  0  0  0  0
    7.3054   -0.7774   20.9306 C   0  0  0  0  0  0  0  0  0  0  0  0
    6.5674   -0.0814   19.8549 C   0  0  0  0  0  0  0  0  0  0  0  0
    7.1486   -0.0588   18.5830 C   0  0  0  0  0  0  0  0  0  0  0  0
    8.0793   -0.5923   18.4016 H   0  0  0  0  0  0  0  0  0  0  0  0
    6.6383    0.6129   17.5479 N   0  0  0  0  0  0  0  0  0  0  0  0
    5.4909    1.2800   17.7521 C   0  0  0  0  0  0  0  0  0  0  0  0
    5.1077    1.8411   16.9028 H   0  0  0  0  0  0  0  0  0  0  0  0
    4.8050    1.2786   18.9707 C   0  0  0  0  0  0  0  0  0  0  0  0
    3.8913    1.8492   19.0773 H   0  0  0  0  0  0  0  0  0  0  0  0
    5.3432    0.5742   20.0453 C   0  0  0  0  0  0  0  0  0  0  0  0
    4.8398    0.5502   21.0141 H   0  0  0  0  0  0  0  0  0  0  0  0
    7.8208   -1.9330   20.7492 N   0  0  0  0  0  0  0  0  0  0  0  0
    8.4792   -2.3776   21.9811 C   0  0  0  0  0  0  0  0  0  0  0  0
    9.5445   -2.5173   21.7678 H   0  0  0  0  0  0  0  0  0  0  0  0
    8.0730   -3.3533   22.2673 H   0  0  0  0  0  0  0  0  0  0  0  0
    8.2454   -1.2850   23.0673 C   0  0  0  0  0  0  0  0  0  0  0  0
    9.1900   -0.9385   23.5118 H   0  0  0  0  0  0  0  0  0  0  0  0
    7.6039   -1.6667   23.8721 H   0  0  0  0  0  0  0  0  0  0  0  0
    7.4296    1.5498   23.8846 N   0  0  0  0  0  0  0  0  0  0  0  0
    7.7277    0.8522   24.5478 H   0  0  0  0  0  0  0  0  0  0  0  0
    7.1025    2.8225   24.3240 C   0  0  0  0  0  0  0  0  0  0  0  0
    6.6782    3.6824   23.5752 O   0  0  0  0  0  0  0  0  0  0  0  0
    7.4546    3.0623   25.7904 C   0  0  0  0  0  0  0  0  0  0  0  0
    7.2759    2.1159   26.3188 H   0  0  0  0  0  0  0  0  0  0  0  0
    8.9715    3.3859   25.8428 C   0  0  0  0  0  0  0  0  0  0  0  0
    9.5472    2.6277   25.2957 H   0  0  0  0  0  0  0  0  0  0  0  0
    9.2759    3.3339   26.8840 H   0  0  0  0  0  0  0  0  0  0  0  0
    9.2645    4.7878   25.3032 C   0  0  0  0  0  0  0  0  0  0  0  0
   10.3401    4.9938   25.3045 H   0  0  0  0  0  0  0  0  0  0  0  0
    8.9321    4.8295   24.2603 H   0  0  0  0  0  0  0  0  0  0  0  0
    8.5113    5.8425   26.1219 C   0  0  0  0  0  0  0  0  0  0  0  0
    8.8529    5.7674   27.1664 H   0  0  0  0  0  0  0  0  0  0  0  0
    8.7577    6.8590   25.7789 H   0  0  0  0  0  0  0  0  0  0  0  0
    6.9929    5.6011   26.0758 C   0  0  0  0  0  0  0  0  0  0  0  0
    6.4880    6.3158   26.7365 H   0  0  0  0  0  0  0  0  0  0  0  0
    6.6111    5.8038   25.0700 H   0  0  0  0  0  0  0  0  0  0  0  0
    6.6173    4.1648   26.4912 C   0  0  0  0  0  0  0  0  0  0  0  0
    6.7832    4.0752   27.5749 H   0  0  0  0  0  0  0  0  0  0  0  0
    5.5421    4.0007   26.3341 H   0  0  0  0  0  0  0  0  0  0  0  0
  1  2  1  0
  2  3  2  3
  3  4  1  0
  4  5  1  0
  5  6  2  0
  6  7  1  0
  6  8  1  0
  8  9  2  0
  9 10  1  0
  9 11  1  0
 11 12  1  0
 11 13  2  0
 13 14  1  0
  4 15  2  0
 15 16  1  0
 16 17  1  0
 16 18  1  0
 16 19  1  0
 19 20  1  0
 19 21  1  0
  2 22  1  0
 22 23  1  0
 22 24  1  0
 24 25  2  0
 24 26  1  0
 26 27  1  0
 26 28  1  0
 28 29  1  0
 28 30  1  0
 28 31  1  0
 31 32  1  0
 31 33  1  0
 31 34  1  0
 34 35  1  0
 34 36  1  0
 34 37  1  0
 37 38  1  0
 37 39  1  0
 37 40  1  0
 40 41  1  0
 40 42  1  0
 19  3  1  0
 40 26  1  0
 13  5  1  0
M  END
>  <cnnaffinity>  (1) 
-4.9743

>  <filename>  (1) 
O=C(NC=C1CCN=C1c1cccnc1)C1CCCCC1

$$$$
