
     RDKit          3D

 33 36  0  0  0  0  0  0  0  0999 V2000
    4.9180    1.7770   17.0010 H   0  0  0  0  0  0  0  0  0  0  0  0
    5.4038    1.2903   17.8417 C   0  0  0  0  0  0  0  0  0  0  0  0
    6.5690    0.6778   17.5767 N   0  0  0  0  0  0  0  0  0  0  0  0
    7.1741    0.0559   18.5892 C   0  0  0  0  0  0  0  0  0  0  0  0
    8.1231   -0.4340   18.3729 H   0  0  0  0  0  0  0  0  0  0  0  0
    6.6481    0.0112   19.8914 C   0  0  0  0  0  0  0  0  0  0  0  0
    7.4039   -0.7013   20.9141 C   0  0  0  0  0  0  0  0  0  0  0  0
    8.3325   -1.6009   20.7029 N   0  0  0  0  0  0  0  0  0  0  0  0
    8.8279   -2.0346   21.9110 N   0  0  0  0  0  0  0  0  0  0  0  0
    8.1911   -1.3557   22.8269 C   0  0  0  0  0  0  0  0  0  0  0  0
    8.2240   -1.0849   24.5470 S   0  0  0  0  0  0  0  0  0  0  0  0
    7.0092    0.1741   24.3018 C   0  0  0  0  0  0  0  0  0  0  0  0
    6.5117    0.9509   25.5177 C   0  0  0  0  0  0  0  0  0  0  0  0
    6.9433    0.6674   26.6199 O   0  0  0  0  0  0  0  0  0  0  0  0
    5.5784    1.9337   25.3037 N   0  0  0  0  0  0  0  0  0  0  0  0
    5.4611    2.2609   24.3572 H   0  0  0  0  0  0  0  0  0  0  0  0
    4.8322    2.5781   26.3269 C   0  0  0  0  0  0  0  0  0  0  0  0
    4.4737    3.9249   26.1910 C   0  0  0  0  0  0  0  0  0  0  0  0
    4.7696    4.4808   25.3079 H   0  0  0  0  0  0  0  0  0  0  0  0
    3.7442    4.5744   27.1945 C   0  0  0  0  0  0  0  0  0  0  0  0
    3.4656    5.6190   27.0975 H   0  0  0  0  0  0  0  0  0  0  0  0
    3.3586    3.8647   28.3340 C   0  0  0  0  0  0  0  0  0  0  0  0
    2.4468    4.6589   29.5880 Cl  0  0  0  0  0  0  0  0  0  0  0  0
    3.6908    2.5161   28.4727 C   0  0  0  0  0  0  0  0  0  0  0  0
    3.3834    1.9712   29.3595 H   0  0  0  0  0  0  0  0  0  0  0  0
    4.4225    1.8760   27.4706 C   0  0  0  0  0  0  0  0  0  0  0  0
    4.6723    0.8284   27.5723 H   0  0  0  0  0  0  0  0  0  0  0  0
    6.6060    0.3581   23.0841 N   0  0  0  0  0  0  0  0  0  0  0  0
    7.2631   -0.5174   22.2734 N   0  0  0  0  0  0  0  0  0  0  0  0
    5.4314    0.6531   20.1615 C   0  0  0  0  0  0  0  0  0  0  0  0
    5.0097    0.6361   21.1697 H   0  0  0  0  0  0  0  0  0  0  0  0
    4.8050    1.3083   19.1075 C   0  0  0  0  0  0  0  0  0  0  0  0
    3.8749    1.8429   19.2601 H   0  0  0  0  0  0  0  0  0  0  0  0
  1  2  1  0
  2  3  2  0
  3  4  1  0
  4  5  1  0
  4  6  2  0
  6  7  1  0
  7  8  2  0
  8  9  1  0
  9 10  2  0
 10 11  1  0
 11 12  1  0
 12 13  1  0
 13 14  2  0
 13 15  1  0
 15 16  1  0
 15 17  1  0
 17 18  2  0
 18 19  1  0
 18 20  1  0
 20 21  1  0
 20 22  2  0
 22 23  1  0
 22 24  1  0
 24 25  1  0
 24 26  2  0
 26 27  1  0
 12 28  2  0
 28 29  1  0
  6 30  1  0
 30 31  1  0
 30 32  2  0
 32 33  1  0
 32  2  1  0
 29  7  1  0
 29 10  1  0
 26 17  1  0
M  END
>  <cnnaffinity>  (1) 
-5.39317

>  <filename>  (1) 
O=C(Nc1ccc(Cl)cc1)c1nn2c(-c3cccnc3)nnc2s1

$$$$
