
     RDKit          3D

 40 42  0  0  0  0  0  0  0  0999 V2000
    4.9746    1.8195   16.9608 H   0  0  0  0  0  0  0  0  0  0  0  0
    5.4247    1.3045   17.8085 C   0  0  0  0  0  0  0  0  0  0  0  0
    6.5755    0.6610   17.5635 N   0  0  0  0  0  0  0  0  0  0  0  0
    7.1622    0.0442   18.6000 C   0  0  0  0  0  0  0  0  0  0  0  0
    8.0823   -0.4807   18.3576 H   0  0  0  0  0  0  0  0  0  0  0  0
    6.6593    0.0262   19.9142 C   0  0  0  0  0  0  0  0  0  0  0  0
    7.3755   -0.6689   21.0290 C   0  0  0  0  0  0  0  0  0  0  0  0
    6.5595   -1.1959   22.0014 N   0  0  0  0  0  0  0  0  0  0  0  0
    7.0961   -1.8844   22.9957 C   0  0  0  0  0  0  0  0  0  0  0  0
    6.2657   -2.7611   23.8996 C   0  0  0  0  0  0  0  0  0  0  0  0
    5.3245   -3.4193   23.4836 O   0  0  0  0  0  0  0  0  0  0  0  0
    6.6540   -2.7758   25.2173 N   0  0  0  0  0  0  0  0  0  0  0  0
    7.6564   -2.6873   25.3735 H   0  0  0  0  0  0  0  0  0  0  0  0
    5.9362   -3.6147   26.1658 C   0  0  0  0  0  0  0  0  0  0  0  0
    4.8608   -3.4119   26.0394 H   0  0  0  0  0  0  0  0  0  0  0  0
    6.3524   -3.2589   27.5918 C   0  0  0  0  0  0  0  0  0  0  0  0
    6.1751   -2.1925   27.7824 H   0  0  0  0  0  0  0  0  0  0  0  0
    7.4451   -3.4197   27.6589 H   0  0  0  0  0  0  0  0  0  0  0  0
    5.6413   -4.1491   28.6388 C   0  0  0  0  0  0  0  0  0  0  0  0
    4.5588   -3.9544   28.6087 H   0  0  0  0  0  0  0  0  0  0  0  0
    5.9355   -3.9036   29.6637 H   0  0  0  0  0  0  0  0  0  0  0  0
    5.9103   -5.6356   28.3720 C   0  0  0  0  0  0  0  0  0  0  0  0
    6.9825   -5.8435   28.5175 H   0  0  0  0  0  0  0  0  0  0  0  0
    5.3747   -6.2562   29.1018 H   0  0  0  0  0  0  0  0  0  0  0  0
    5.5014   -6.0008   26.9397 C   0  0  0  0  0  0  0  0  0  0  0  0
    5.7157   -7.0531   26.7334 H   0  0  0  0  0  0  0  0  0  0  0  0
    4.4116   -5.8781   26.8438 H   0  0  0  0  0  0  0  0  0  0  0  0
    6.2002   -5.1105   25.9030 C   0  0  0  0  0  0  0  0  0  0  0  0
    5.8735   -5.3538   24.8862 H   0  0  0  0  0  0  0  0  0  0  0  0
    7.2911   -5.2751   25.9461 H   0  0  0  0  0  0  0  0  0  0  0  0
    8.5414   -2.0139   23.1997 C   0  0  0  0  0  0  0  0  0  0  0  0
    9.1403   -2.5442   24.1355 O   0  0  0  0  0  0  0  0  0  0  0  0
    9.2936   -1.4921   22.1599 N   0  0  0  0  0  0  0  0  0  0  0  0
   10.2841   -1.6621   22.3117 H   0  0  0  0  0  0  0  0  0  0  0  0
    8.7440   -0.8037   21.0921 C   0  0  0  0  0  0  0  0  0  0  0  0
    9.4266   -0.3657   20.3707 H   0  0  0  0  0  0  0  0  0  0  0  0
    5.4251    0.6653   20.1333 C   0  0  0  0  0  0  0  0  0  0  0  0
    4.9654    0.6357   21.1244 H   0  0  0  0  0  0  0  0  0  0  0  0
    4.8101    1.3229   19.0670 C   0  0  0  0  0  0  0  0  0  0  0  0
    3.8734    1.8542   19.1945 H   0  0  0  0  0  0  0  0  0  0  0  0
  1  2  1  0
  2  3  2  0
  3  4  1  0
  4  5  1  0
  4  6  2  0
  6  7  1  0
  7  8  1  0
  8  9  2  0
  9 10  1  0
 10 11  2  0
 10 12  1  0
 12 13  1  0
 12 14  1  0
 14 15  1  0
 14 16  1  0
 16 17  1  0
 16 18  1  0
 16 19  1  0
 19 20  1  0
 19 21  1  0
 19 22  1  0
 22 23  1  0
 22 24  1  0
 22 25  1  0
 25 26  1  0
 25 27  1  0
 25 28  1  0
 28 29  1  0
 28 30  1  0
  9 31  1  0
 31 32  2  0
 31 33  1  0
 33 34  1  0
 33 35  1  0
 35 36  1  0
  6 37  1  0
 37 38  1  0
 37 39  2  0
 39 40  1  0
 39  2  1  0
 35  7  2  0
 28 14  1  0
M  END
>  <cnnaffinity>  (1) 
-5.22767

>  <filename>  (1) 
O=C(NC1CCCCC1)c1nc(-c2cccnc2)c[nH]c1=O

$$$$
