
     RDKit          3D

 32 34  0  0  0  0  0  0  0  0999 V2000
    4.9597    1.7661   17.0029 H   0  0  0  0  0  0  0  0  0  0  0  0
    5.4139    1.2795   17.8655 C   0  0  0  0  0  0  0  0  0  0  0  0
    6.5769    0.6536   17.6354 N   0  0  0  0  0  0  0  0  0  0  0  0
    7.1768    0.0595   18.6729 C   0  0  0  0  0  0  0  0  0  0  0  0
    8.1085   -0.4550   18.4396 H   0  0  0  0  0  0  0  0  0  0  0  0
    6.6655    0.0622   19.9781 C   0  0  0  0  0  0  0  0  0  0  0  0
    7.4405   -0.7246   20.9801 C   0  0  0  0  0  0  0  0  0  0  0  0
    8.1225   -1.6718   20.6435 O   0  0  0  0  0  0  0  0  0  0  0  0
    7.3089   -0.3259   22.2745 N   0  0  0  0  0  0  0  0  0  0  0  0
    6.9163    0.5846   22.4336 H   0  0  0  0  0  0  0  0  0  0  0  0
    7.9968   -0.9820   23.3502 C   0  0  0  0  0  0  0  0  0  0  0  0
    7.6175   -0.6049   24.3077 H   0  0  0  0  0  0  0  0  0  0  0  0
    7.8558   -2.0670   23.2880 H   0  0  0  0  0  0  0  0  0  0  0  0
    9.4107   -0.7371   23.2917 N   0  0  0  0  0  0  0  0  0  0  0  0
    9.9508    0.5189   23.5023 C   0  0  0  0  0  0  0  0  0  0  0  0
    9.3066    1.4535   23.9198 O   0  0  0  0  0  0  0  0  0  0  0  0
   11.3952    0.4227   23.1237 C   0  0  0  0  0  0  0  0  0  0  0  0
   12.4294    1.3693   23.1340 C   0  0  0  0  0  0  0  0  0  0  0  0
   12.2615    2.3956   23.4596 H   0  0  0  0  0  0  0  0  0  0  0  0
   13.6903    0.9516   22.6965 C   0  0  0  0  0  0  0  0  0  0  0  0
   14.5174    1.6568   22.6707 H   0  0  0  0  0  0  0  0  0  0  0  0
   13.8965   -0.3741   22.2675 C   0  0  0  0  0  0  0  0  0  0  0  0
   14.8632   -0.7145   21.9545 H   0  0  0  0  0  0  0  0  0  0  0  0
   12.8662   -1.3087   22.2428 C   0  0  0  0  0  0  0  0  0  0  0  0
   13.0546   -2.3290   21.9139 H   0  0  0  0  0  0  0  0  0  0  0  0
   11.6143   -0.8863   22.6817 C   0  0  0  0  0  0  0  0  0  0  0  0
   10.3389   -1.6475   22.8146 C   0  0  0  0  0  0  0  0  0  0  0  0
   10.1116   -2.8148   22.6123 O   0  0  0  0  0  0  0  0  0  0  0  0
    5.4294    0.6915   20.1989 C   0  0  0  0  0  0  0  0  0  0  0  0
    4.9351    0.6641   21.1726 H   0  0  0  0  0  0  0  0  0  0  0  0
    4.8009    1.3161   19.1222 C   0  0  0  0  0  0  0  0  0  0  0  0
    3.8622    1.8434   19.2399 H   0  0  0  0  0  0  0  0  0  0  0  0
  1  2  1  0
  2  3  2  0
  3  4  1  0
  4  5  1  0
  4  6  2  0
  6  7  1  0
  7  8  2  0
  7  9  1  0
  9 10  1  0
  9 11  1  0
 11 12  1  0
 11 13  1  0
 11 14  1  0
 14 15  1  0
 15 16  2  0
 15 17  1  0
 17 18  2  0
 18 19  1  0
 18 20  1  0
 20 21  1  0
 20 22  2  0
 22 23  1  0
 22 24  1  0
 24 25  1  0
 24 26  2  0
 26 27  1  0
 27 28  2  0
  6 29  1  0
 29 30  1  0
 29 31  2  0
 31 32  1  0
 31  2  1  0
 27 14  1  0
 26 17  1  0
M  END
>  <cnnaffinity>  (1) 
-5.34509

>  <filename>  (1) 
O=C(NCN1C(=O)c2ccccc2C1=O)c1cccnc1

$$$$
