
     RDKit          3D

 33 35  0  0  0  0  0  0  0  0999 V2000
    4.9442    1.7692   17.0118 H   0  0  0  0  0  0  0  0  0  0  0  0
    5.4149    1.2741   17.8582 C   0  0  0  0  0  0  0  0  0  0  0  0
    6.5755    0.6527   17.6080 N   0  0  0  0  0  0  0  0  0  0  0  0
    7.1893    0.0482   18.6299 C   0  0  0  0  0  0  0  0  0  0  0  0
    8.1403   -0.4264   18.3890 H   0  0  0  0  0  0  0  0  0  0  0  0
    6.6673   -0.0003   19.9301 C   0  0  0  0  0  0  0  0  0  0  0  0
    7.4263   -0.7224   20.9793 C   0  0  0  0  0  0  0  0  0  0  0  0
    8.7342   -0.6989   20.8917 N   0  0  0  0  0  0  0  0  0  0  0  0
    9.4557   -1.3251   21.8760 C   0  0  0  0  0  0  0  0  0  0  0  0
   10.6621   -1.3552   21.9527 O   0  0  0  0  0  0  0  0  0  0  0  0
    8.7672   -2.0011   22.8796 N   0  0  0  0  0  0  0  0  0  0  0  0
    9.3764   -2.4530   23.5313 H   0  0  0  0  0  0  0  0  0  0  0  0
    7.4397   -2.0470   22.9486 C   0  0  0  0  0  0  0  0  0  0  0  0
    6.8924   -2.7124   24.0171 N   0  0  0  0  0  0  0  0  0  0  0  0
    5.9326   -2.4808   24.1851 H   0  0  0  0  0  0  0  0  0  0  0  0
    7.3919   -3.8938   24.5552 C   0  0  0  0  0  0  0  0  0  0  0  0
    8.2597   -4.5406   23.9973 O   0  0  0  0  0  0  0  0  0  0  0  0
    6.8107   -4.3168   25.9208 C   0  0  0  0  0  0  0  0  0  0  0  0
    6.1404   -3.4465   26.8087 C   0  0  0  0  0  0  0  0  0  0  0  0
    5.9732   -2.3983   26.5846 H   0  0  0  0  0  0  0  0  0  0  0  0
    5.7147   -3.9117   28.0597 C   0  0  0  0  0  0  0  0  0  0  0  0
    5.1987   -3.2463   28.7497 H   0  0  0  0  0  0  0  0  0  0  0  0
    5.9107   -5.1608   28.4961 N   0  0  0  0  0  0  0  0  0  0  0  0
    6.5538   -5.9970   27.6715 C   0  0  0  0  0  0  0  0  0  0  0  0
    6.7096   -7.0074   28.0454 H   0  0  0  0  0  0  0  0  0  0  0  0
    7.0155   -5.6310   26.4027 C   0  0  0  0  0  0  0  0  0  0  0  0
    7.5565   -6.3623   25.8150 H   0  0  0  0  0  0  0  0  0  0  0  0
    6.7133   -1.4045   21.9927 C   0  0  0  0  0  0  0  0  0  0  0  0
    5.6444   -1.4710   21.9628 H   0  0  0  0  0  0  0  0  0  0  0  0
    5.4439    0.6440   20.1749 C   0  0  0  0  0  0  0  0  0  0  0  0
    5.0006    0.6493   21.1728 H   0  0  0  0  0  0  0  0  0  0  0  0
    4.8177    1.3006   19.1206 C   0  0  0  0  0  0  0  0  0  0  0  0
    3.8865    1.8327   19.2613 H   0  0  0  0  0  0  0  0  0  0  0  0
  1  2  1  0
  2  3  2  0
  3  4  1  0
  4  5  1  0
  4  6  2  0
  6  7  1  0
  7  8  2  0
  8  9  1  0
  9 10  2  0
  9 11  1  0
 11 12  1  0
 11 13  1  0
 13 14  1  0
 14 15  1  0
 14 16  1  0
 16 17  2  0
 16 18  1  0
 18 19  2  0
 19 20  1  0
 19 21  1  0
 21 22  1  0
 21 23  2  0
 23 24  1  0
 24 25  1  0
 24 26  2  0
 26 27  1  0
 13 28  2  0
 28 29  1  0
  6 30  1  0
 30 31  1  0
 30 32  2  0
 32 33  1  0
 32  2  1  0
 28  7  1  0
 26 18  1  0
M  END
>  <cnnaffinity>  (1) 
-5.07416

>  <filename>  (1) 
O=C(Nc1cc(-c2cccnc2)nc(=O)[nH]1)c1ccncc1

$$$$
