
     RDKit          3D

 31 32  0  0  0  0  0  0  0  0999 V2000
    4.9640    1.7975   17.0014 H   0  0  0  0  0  0  0  0  0  0  0  0
    5.4627    1.3004   17.8341 C   0  0  0  0  0  0  0  0  0  0  0  0
    6.6372    0.7058   17.5576 N   0  0  0  0  0  0  0  0  0  0  0  0
    7.2609    0.0693   18.5584 C   0  0  0  0  0  0  0  0  0  0  0  0
    8.2083   -0.4042   18.3068 H   0  0  0  0  0  0  0  0  0  0  0  0
    6.7591   -0.0275   19.8749 C   0  0  0  0  0  0  0  0  0  0  0  0
    7.4463   -0.7267   20.9137 N   0  0  0  0  0  0  0  0  0  0  0  0
    8.3009   -0.3109   21.2535 H   0  0  0  0  0  0  0  0  0  0  0  0
    6.8491   -1.5805   21.8158 C   0  0  0  0  0  0  0  0  0  0  0  0
    5.8371   -2.2031   21.5572 O   0  0  0  0  0  0  0  0  0  0  0  0
    7.6278   -1.7449   23.1167 C   0  0  0  0  0  0  0  0  0  0  0  0
    7.2763   -2.6697   23.5806 H   0  0  0  0  0  0  0  0  0  0  0  0
    8.6845   -1.8868   22.8640 H   0  0  0  0  0  0  0  0  0  0  0  0
    7.5272   -0.5888   24.1529 C   0  0  0  0  0  0  0  0  0  0  0  0
    8.0681   -0.9130   25.0523 H   0  0  0  0  0  0  0  0  0  0  0  0
    6.4830   -0.4248   24.4591 H   0  0  0  0  0  0  0  0  0  0  0  0
    8.1149    0.7256   23.6699 C   0  0  0  0  0  0  0  0  0  0  0  0
    7.2795    1.7503   23.1800 C   0  0  0  0  0  0  0  0  0  0  0  0
    6.2012    1.6126   23.2263 H   0  0  0  0  0  0  0  0  0  0  0  0
    7.7967    2.9344   22.6499 C   0  0  0  0  0  0  0  0  0  0  0  0
    7.1301    3.6930   22.2471 H   0  0  0  0  0  0  0  0  0  0  0  0
    9.1785    3.1393   22.6321 C   0  0  0  0  0  0  0  0  0  0  0  0
    9.5876    4.0598   22.2327 H   0  0  0  0  0  0  0  0  0  0  0  0
   10.0390    2.1594   23.1290 C   0  0  0  0  0  0  0  0  0  0  0  0
   11.1156    2.3011   23.1158 H   0  0  0  0  0  0  0  0  0  0  0  0
    9.5028    0.9750   23.6425 C   0  0  0  0  0  0  0  0  0  0  0  0
   10.6307   -0.1949   24.2843 Cl  0  0  0  0  0  0  0  0  0  0  0  0
    5.5359    0.5956   20.1437 C   0  0  0  0  0  0  0  0  0  0  0  0
    5.1200    0.5402   21.1520 H   0  0  0  0  0  0  0  0  0  0  0  0
    4.8871    1.2777   19.1073 C   0  0  0  0  0  0  0  0  0  0  0  0
    3.9383    1.7749   19.2757 H   0  0  0  0  0  0  0  0  0  0  0  0
  1  2  1  0
  2  3  2  0
  3  4  1  0
  4  5  1  0
  4  6  2  0
  6  7  1  0
  7  8  1  0
  7  9  1  0
  9 10  2  0
  9 11  1  0
 11 12  1  0
 11 13  1  0
 11 14  1  0
 14 15  1  0
 14 16  1  0
 14 17  1  0
 17 18  2  0
 18 19  1  0
 18 20  1  0
 20 21  1  0
 20 22  2  0
 22 23  1  0
 22 24  1  0
 24 25  1  0
 24 26  2  0
 26 27  1  0
  6 28  1  0
 28 29  1  0
 28 30  2  0
 30 31  1  0
 30  2  1  0
 26 17  1  0
M  END
>  <cnnaffinity>  (1) 
-5.1075

>  <filename>  (1) 
O=C(CCc1ccccc1Cl)Nc1cccnc1

$$$$
