
     RDKit          3D

 33 34  0  0  0  0  0  0  0  0999 V2000
    7.4608   -2.3869   20.2868 H   0  0  0  0  0  0  0  0  0  0  0  0
    8.0201   -1.7178   20.7281 O   0  0  0  0  0  0  0  0  0  0  0  0
    7.1130   -0.7187   21.1425 N   0  0  0  0  0  0  0  0  0  0  0  0
    7.1330   -0.3010   22.5053 C   0  0  0  0  0  0  0  0  0  0  0  0
    6.5077    0.6864   22.8718 O   0  0  0  0  0  0  0  0  0  0  0  0
    7.8402   -1.0960   23.3681 N   0  0  0  0  0  0  0  0  0  0  0  0
    8.5396   -1.6431   22.9004 H   0  0  0  0  0  0  0  0  0  0  0  0
    8.1728   -0.5513   24.6688 C   0  0  0  0  0  0  0  0  0  0  0  0
    8.7928    0.3715   24.5857 H   0  0  0  0  0  0  0  0  0  0  0  0
    8.7621   -1.2854   25.2390 H   0  0  0  0  0  0  0  0  0  0  0  0
    6.9147   -0.3371   25.3088 N   0  0  0  0  0  0  0  0  0  0  0  0
    6.2462   -0.0475   24.6083 H   0  0  0  0  0  0  0  0  0  0  0  0
    6.7594    0.2540   26.5471 C   0  0  0  0  0  0  0  0  0  0  0  0
    7.8326    0.5427   27.4073 C   0  0  0  0  0  0  0  0  0  0  0  0
    8.8454    0.3652   27.0652 H   0  0  0  0  0  0  0  0  0  0  0  0
    7.5893    1.0398   28.6931 C   0  0  0  0  0  0  0  0  0  0  0  0
    8.4312    1.2306   29.3545 H   0  0  0  0  0  0  0  0  0  0  0  0
    6.2835    1.2723   29.1335 C   0  0  0  0  0  0  0  0  0  0  0  0
    6.1002    1.6480   30.1375 H   0  0  0  0  0  0  0  0  0  0  0  0
    5.2132    1.0137   28.2677 C   0  0  0  0  0  0  0  0  0  0  0  0
    4.1930    1.1888   28.6010 H   0  0  0  0  0  0  0  0  0  0  0  0
    5.4472    0.5213   26.9819 C   0  0  0  0  0  0  0  0  0  0  0  0
    4.6241    0.3028   26.3080 H   0  0  0  0  0  0  0  0  0  0  0  0
    6.5607    0.0170   20.0431 C   0  0  0  0  0  0  0  0  0  0  0  0
    7.1501   -0.0785   18.7578 C   0  0  0  0  0  0  0  0  0  0  0  0
    8.0693   -0.6413   18.6319 H   0  0  0  0  0  0  0  0  0  0  0  0
    6.6555    0.4947   17.6598 N   0  0  0  0  0  0  0  0  0  0  0  0
    5.5296    1.2138   17.7936 C   0  0  0  0  0  0  0  0  0  0  0  0
    5.1408    1.6648   16.8827 H   0  0  0  0  0  0  0  0  0  0  0  0
    4.8795    1.3908   19.0179 C   0  0  0  0  0  0  0  0  0  0  0  0
    3.9812    1.9989   19.0526 H   0  0  0  0  0  0  0  0  0  0  0  0
    5.3992    0.7985   20.1745 C   0  0  0  0  0  0  0  0  0  0  0  0
    4.9355    0.9395   21.1488 H   0  0  0  0  0  0  0  0  0  0  0  0
  1  2  1  0
  2  3  1  0
  3  4  1  0
  4  5  2  0
  4  6  1  0
  6  7  1  0
  6  8  1  0
  8  9  1  0
  8 10  1  0
  8 11  1  0
 11 12  1  0
 11 13  1  0
 13 14  2  0
 14 15  1  0
 14 16  1  0
 16 17  1  0
 16 18  2  0
 18 19  1  0
 18 20  1  0
 20 21  1  0
 20 22  2  0
 22 23  1  0
  3 24  1  0
 24 25  2  0
 25 26  1  0
 25 27  1  0
 27 28  2  0
 28 29  1  0
 28 30  1  0
 30 31  1  0
 30 32  2  0
 32 33  1  0
 22 13  1  0
 32 24  1  0
M  END
>  <cnnaffinity>  (1) 
-4.46504

>  <filename>  (1) 
O=C(NCNc1ccccc1)N(O)c1cccnc1

$$$$
