
     RDKit          3D

 40 42  0  0  0  0  0  0  0  0999 V2000
    4.9227    1.7821   16.9952 H   0  0  0  0  0  0  0  0  0  0  0  0
    5.4002    1.2947   17.8394 C   0  0  0  0  0  0  0  0  0  0  0  0
    6.5643    0.6792   17.5842 N   0  0  0  0  0  0  0  0  0  0  0  0
    7.1669    0.0592   18.5992 C   0  0  0  0  0  0  0  0  0  0  0  0
    8.1109   -0.4357   18.3824 H   0  0  0  0  0  0  0  0  0  0  0  0
    6.6476    0.0306   19.9016 C   0  0  0  0  0  0  0  0  0  0  0  0
    7.3737   -0.7117   20.9314 C   0  0  0  0  0  0  0  0  0  0  0  0
    7.9313   -1.8830   20.7572 N   0  0  0  0  0  0  0  0  0  0  0  0
    8.5047   -2.2566   21.9439 N   0  0  0  0  0  0  0  0  0  0  0  0
    8.2932   -1.2917   22.7919 C   0  0  0  0  0  0  0  0  0  0  0  0
    8.6724   -1.2760   23.8072 H   0  0  0  0  0  0  0  0  0  0  0  0
    7.5609   -0.2802   22.2241 N   0  0  0  0  0  0  0  0  0  0  0  0
    7.2392    0.9963   22.8221 C   0  0  0  0  0  0  0  0  0  0  0  0
    7.1452    1.7770   22.0582 H   0  0  0  0  0  0  0  0  0  0  0  0
    8.0589    1.3174   23.4791 H   0  0  0  0  0  0  0  0  0  0  0  0
    5.9993    0.8862   23.5681 N   0  0  0  0  0  0  0  0  0  0  0  0
    5.5812   -0.0245   23.6550 H   0  0  0  0  0  0  0  0  0  0  0  0
    5.4448    1.9739   24.1991 C   0  0  0  0  0  0  0  0  0  0  0  0
    5.9998    3.0605   24.1638 O   0  0  0  0  0  0  0  0  0  0  0  0
    4.1075    1.7900   24.9447 C   0  0  0  0  0  0  0  0  0  0  0  0
    3.7079    0.7931   24.7118 H   0  0  0  0  0  0  0  0  0  0  0  0
    4.3456    1.8612   26.4879 C   0  0  0  0  0  0  0  0  0  0  0  0
    5.1253    2.6025   26.7142 H   0  0  0  0  0  0  0  0  0  0  0  0
    4.7232    0.8971   26.8476 H   0  0  0  0  0  0  0  0  0  0  0  0
    3.0685    2.2473   27.2484 C   0  0  0  0  0  0  0  0  0  0  0  0
    3.2398    2.2015   28.3304 H   0  0  0  0  0  0  0  0  0  0  0  0
    2.2901    1.4998   27.0417 H   0  0  0  0  0  0  0  0  0  0  0  0
    2.5556    3.6552   26.8541 C   0  0  0  0  0  0  0  0  0  0  0  0
    1.4628    3.6792   26.9662 H   0  0  0  0  0  0  0  0  0  0  0  0
    2.9471    4.4057   27.5533 H   0  0  0  0  0  0  0  0  0  0  0  0
    2.9508    4.0617   25.4148 C   0  0  0  0  0  0  0  0  0  0  0  0
    2.2281    4.7900   25.0253 H   0  0  0  0  0  0  0  0  0  0  0  0
    3.9226    4.5731   25.4224 H   0  0  0  0  0  0  0  0  0  0  0  0
    3.0456    2.8460   24.4749 C   0  0  0  0  0  0  0  0  0  0  0  0
    2.0576    2.3680   24.4355 H   0  0  0  0  0  0  0  0  0  0  0  0
    3.2555    3.1872   23.4542 H   0  0  0  0  0  0  0  0  0  0  0  0
    5.4288    0.6684   20.1592 C   0  0  0  0  0  0  0  0  0  0  0  0
    5.0016    0.6449   21.1666 H   0  0  0  0  0  0  0  0  0  0  0  0
    4.7967    1.3153   19.1017 C   0  0  0  0  0  0  0  0  0  0  0  0
    3.8663    1.8474   19.2524 H   0  0  0  0  0  0  0  0  0  0  0  0
  1  2  1  0
  2  3  2  0
  3  4  1  0
  4  5  1  0
  4  6  2  0
  6  7  1  0
  7  8  2  0
  8  9  1  0
  9 10  2  0
 10 11  1  0
 10 12  1  0
 12 13  1  0
 13 14  1  0
 13 15  1  0
 13 16  1  0
 16 17  1  0
 16 18  1  0
 18 19  2  0
 18 20  1  0
 20 21  1  0
 20 22  1  0
 22 23  1  0
 22 24  1  0
 22 25  1  0
 25 26  1  0
 25 27  1  0
 25 28  1  0
 28 29  1  0
 28 30  1  0
 28 31  1  0
 31 32  1  0
 31 33  1  0
 31 34  1  0
 34 35  1  0
 34 36  1  0
  6 37  1  0
 37 38  1  0
 37 39  2  0
 39 40  1  0
 39  2  1  0
 12  7  1  0
 34 20  1  0
M  END
>  <cnnaffinity>  (1) 
-4.917

>  <filename>  (1) 
O=C(NCn1cnnc1-c1cccnc1)C1CCCCC1

$$$$
