
     RDKit          3D

 33 34  0  0  0  0  0  0  0  0999 V2000
    4.9189    1.8030   16.9818 H   0  0  0  0  0  0  0  0  0  0  0  0
    5.3873    1.2993   17.8283 C   0  0  0  0  0  0  0  0  0  0  0  0
    6.5462    0.6769   17.5663 N   0  0  0  0  0  0  0  0  0  0  0  0
    7.1537    0.0577   18.5858 C   0  0  0  0  0  0  0  0  0  0  0  0
    8.1108   -0.4140   18.3591 H   0  0  0  0  0  0  0  0  0  0  0  0
    6.6530    0.0018   19.9005 C   0  0  0  0  0  0  0  0  0  0  0  0
    7.4363   -0.6901   21.0027 C   0  0  0  0  0  0  0  0  0  0  0  0
    6.7766   -0.9679   21.8274 H   0  0  0  0  0  0  0  0  0  0  0  0
    7.9256   -1.6008   20.6442 H   0  0  0  0  0  0  0  0  0  0  0  0
    8.5433    0.2182   21.5301 C   0  0  0  0  0  0  0  0  0  0  0  0
    9.6705    0.1383   21.0895 O   0  0  0  0  0  0  0  0  0  0  0  0
    8.1210    1.3075   22.6023 C   0  0  0  0  0  0  0  0  0  0  0  0
    6.9792    1.3435   23.0433 O   0  0  0  0  0  0  0  0  0  0  0  0
    9.0828    2.1873   22.9959 N   0  0  0  0  0  0  0  0  0  0  0  0
    9.9876    2.1302   22.5466 H   0  0  0  0  0  0  0  0  0  0  0  0
    8.7264    3.3714   23.7912 C   0  0  0  0  0  0  0  0  0  0  0  0
    9.6682    3.8474   24.0859 H   0  0  0  0  0  0  0  0  0  0  0  0
    8.2083    3.0508   24.7032 H   0  0  0  0  0  0  0  0  0  0  0  0
    7.8615    4.3881   23.0510 C   0  0  0  0  0  0  0  0  0  0  0  0
    6.4749    4.5088   23.2676 C   0  0  0  0  0  0  0  0  0  0  0  0
    6.0068    3.8980   24.0410 H   0  0  0  0  0  0  0  0  0  0  0  0
    5.7059    5.3913   22.4938 C   0  0  0  0  0  0  0  0  0  0  0  0
    4.6358    5.4951   22.6813 H   0  0  0  0  0  0  0  0  0  0  0  0
    6.3132    6.1277   21.4675 C   0  0  0  0  0  0  0  0  0  0  0  0
    5.7194    6.8016   20.8486 H   0  0  0  0  0  0  0  0  0  0  0  0
    7.6928    6.0182   21.2595 C   0  0  0  0  0  0  0  0  0  0  0  0
    8.1580    6.5436   20.4376 H   0  0  0  0  0  0  0  0  0  0  0  0
    8.4692    5.2098   22.0947 C   0  0  0  0  0  0  0  0  0  0  0  0
    9.5595    5.2149   22.0511 H   0  0  0  0  0  0  0  0  0  0  0  0
    5.4408    0.6555   20.1483 C   0  0  0  0  0  0  0  0  0  0  0  0
    5.0215    0.6524   21.1535 H   0  0  0  0  0  0  0  0  0  0  0  0
    4.7990    1.3159   19.0949 C   0  0  0  0  0  0  0  0  0  0  0  0
    3.8678    1.8498   19.2381 H   0  0  0  0  0  0  0  0  0  0  0  0
  1  2  1  0
  2  3  2  0
  3  4  1  0
  4  5  1  0
  4  6  2  0
  6  7  1  0
  7  8  1  0
  7  9  1  0
  7 10  1  0
 10 11  2  0
 10 12  1  0
 12 13  2  0
 12 14  1  0
 14 15  1  0
 14 16  1  0
 16 17  1  0
 16 18  1  0
 16 19  1  0
 19 20  2  0
 20 21  1  0
 20 22  1  0
 22 23  1  0
 22 24  2  0
 24 25  1  0
 24 26  1  0
 26 27  1  0
 26 28  2  0
 28 29  1  0
  6 30  1  0
 30 31  1  0
 30 32  2  0
 32 33  1  0
 32  2  1  0
 28 19  1  0
M  END
>  <cnnaffinity>  (1) 
-4.47365

>  <filename>  (1) 
O=C(Cc1cccnc1)C(=O)NCc1ccccc1

$$$$
