
     RDKit          3D

 39 41  0  0  0  0  0  0  0  0999 V2000
    5.0878    1.7714   17.0287 H   0  0  0  0  0  0  0  0  0  0  0  0
    5.5037    1.2615   17.8963 C   0  0  0  0  0  0  0  0  0  0  0  0
    6.6447    0.5893   17.6884 N   0  0  0  0  0  0  0  0  0  0  0  0
    7.1826   -0.0380   18.7379 C   0  0  0  0  0  0  0  0  0  0  0  0
    8.0958   -0.5842   18.5234 H   0  0  0  0  0  0  0  0  0  0  0  0
    6.6355   -0.0307   20.0236 C   0  0  0  0  0  0  0  0  0  0  0  0
    7.3221   -0.7676   21.1298 C   0  0  0  0  0  0  0  0  0  0  0  0
    6.7293   -1.5583   21.8423 O   0  0  0  0  0  0  0  0  0  0  0  0
    8.6421   -0.4810   21.3411 N   0  0  0  0  0  0  0  0  0  0  0  0
    9.7060    0.1128   20.5393 C   0  0  0  0  0  0  0  0  0  0  0  0
    9.8040   -0.3479   19.5477 H   0  0  0  0  0  0  0  0  0  0  0  0
    9.6559    1.2028   20.4275 H   0  0  0  0  0  0  0  0  0  0  0  0
   10.7277   -0.4613   21.5576 C   0  0  0  0  0  0  0  0  0  0  0  0
   11.4986   -1.0897   21.1147 H   0  0  0  0  0  0  0  0  0  0  0  0
   11.4542    0.5259   22.4401 C   0  0  0  0  0  0  0  0  0  0  0  0
   12.6679    0.4931   22.5663 O   0  0  0  0  0  0  0  0  0  0  0  0
   10.6621    1.3960   23.1269 N   0  0  0  0  0  0  0  0  0  0  0  0
    9.7240    1.5332   22.7825 H   0  0  0  0  0  0  0  0  0  0  0  0
   11.2310    2.3925   24.0263 C   0  0  0  0  0  0  0  0  0  0  0  0
   11.9912    1.9005   24.6359 H   0  0  0  0  0  0  0  0  0  0  0  0
   10.4464    2.7093   24.7152 H   0  0  0  0  0  0  0  0  0  0  0  0
   11.8355    3.5871   23.3262 C   0  0  0  0  0  0  0  0  0  0  0  0
   11.0198    4.6402   22.8944 C   0  0  0  0  0  0  0  0  0  0  0  0
    9.9574    4.6446   23.1368 H   0  0  0  0  0  0  0  0  0  0  0  0
   11.5609    5.6893   22.1563 C   0  0  0  0  0  0  0  0  0  0  0  0
   10.8784    6.4248   21.7379 H   0  0  0  0  0  0  0  0  0  0  0  0
   12.9441    5.7585   21.9355 C   0  0  0  0  0  0  0  0  0  0  0  0
   13.3874    6.6022   21.4096 H   0  0  0  0  0  0  0  0  0  0  0  0
   13.7688    4.7318   22.3957 C   0  0  0  0  0  0  0  0  0  0  0  0
   14.8343    4.7745   22.1902 H   0  0  0  0  0  0  0  0  0  0  0  0
   13.2131    3.6304   23.0504 C   0  0  0  0  0  0  0  0  0  0  0  0
   13.8359    2.7727   23.2926 H   0  0  0  0  0  0  0  0  0  0  0  0
    9.5400   -1.2252   22.2174 C   0  0  0  0  0  0  0  0  0  0  0  0
    9.3731   -1.0705   23.2918 H   0  0  0  0  0  0  0  0  0  0  0  0
    9.5284   -2.3058   22.0262 H   0  0  0  0  0  0  0  0  0  0  0  0
    5.4137    0.6342   20.2212 C   0  0  0  0  0  0  0  0  0  0  0  0
    4.9205    0.6401   21.1980 H   0  0  0  0  0  0  0  0  0  0  0  0
    4.8494    1.3046   19.1348 C   0  0  0  0  0  0  0  0  0  0  0  0
    3.9171    1.8566   19.2235 H   0  0  0  0  0  0  0  0  0  0  0  0
  1  2  1  0
  2  3  2  0
  3  4  1  0
  4  5  1  0
  4  6  2  0
  6  7  1  0
  7  8  2  0
  7  9  1  0
  9 10  1  0
 10 11  1  0
 10 12  1  0
 10 13  1  0
 13 14  1  0
 13 15  1  0
 15 16  2  0
 15 17  1  0
 17 18  1  0
 17 19  1  0
 19 20  1  0
 19 21  1  0
 19 22  1  0
 22 23  2  0
 23 24  1  0
 23 25  1  0
 25 26  1  0
 25 27  2  0
 27 28  1  0
 27 29  1  0
 29 30  1  0
 29 31  2  0
 31 32  1  0
 13 33  1  0
 33 34  1  0
 33 35  1  0
  6 36  1  0
 36 37  1  0
 36 38  2  0
 38 39  1  0
 38  2  1  0
 33  9  1  0
 31 22  1  0
M  END
>  <cnnaffinity>  (1) 
-4.92708

>  <filename>  (1) 
O=C(NCc1ccccc1)C1CN(C(=O)c2cccnc2)C1

$$$$
