
     RDKit          3D

 37 38  0  0  0  0  0  0  0  0999 V2000
    6.1522    2.1428   29.2575 H   0  0  0  0  0  0  0  0  0  0  0  0
    6.4302    2.4953   28.3919 O   0  0  0  0  0  0  0  0  0  0  0  0
    7.2264    1.5080   27.8073 N   0  0  0  0  0  0  0  0  0  0  0  0
    8.0404    1.9281   27.3750 H   0  0  0  0  0  0  0  0  0  0  0  0
    6.6731    0.4848   27.0372 C   0  0  0  0  0  0  0  0  0  0  0  0
    5.5203    0.1239   27.0880 O   0  0  0  0  0  0  0  0  0  0  0  0
    7.7298   -0.1968   26.1872 C   0  0  0  0  0  0  0  0  0  0  0  0
    8.7290    0.0678   26.5523 H   0  0  0  0  0  0  0  0  0  0  0  0
    7.5880   -1.2661   26.3689 H   0  0  0  0  0  0  0  0  0  0  0  0
    7.5935    0.1123   24.6871 C   0  0  0  0  0  0  0  0  0  0  0  0
    8.2459   -0.5735   24.1323 H   0  0  0  0  0  0  0  0  0  0  0  0
    6.5606   -0.1086   24.3786 H   0  0  0  0  0  0  0  0  0  0  0  0
    7.9569    1.5535   24.3234 C   0  0  0  0  0  0  0  0  0  0  0  0
    7.2987    2.2584   24.8489 H   0  0  0  0  0  0  0  0  0  0  0  0
    8.9813    1.7733   24.6570 H   0  0  0  0  0  0  0  0  0  0  0  0
    7.8831    1.8536   22.8107 C   0  0  0  0  0  0  0  0  0  0  0  0
    6.8812    1.6443   22.4242 H   0  0  0  0  0  0  0  0  0  0  0  0
    8.0698    2.9171   22.6333 H   0  0  0  0  0  0  0  0  0  0  0  0
    8.9002    1.1044   22.0138 C   0  0  0  0  0  0  0  0  0  0  0  0
   10.1729    1.4187   21.9693 N   0  0  0  0  0  0  0  0  0  0  0  0
   10.8146    0.4629   21.2287 N   0  0  0  0  0  0  0  0  0  0  0  0
    9.9104   -0.3913   20.8459 C   0  0  0  0  0  0  0  0  0  0  0  0
   10.0795   -1.2838   20.2601 H   0  0  0  0  0  0  0  0  0  0  0  0
    8.6750   -0.0518   21.3121 N   0  0  0  0  0  0  0  0  0  0  0  0
    7.4028   -0.7012   21.0063 C   0  0  0  0  0  0  0  0  0  0  0  0
    7.6354   -1.7339   20.7155 H   0  0  0  0  0  0  0  0  0  0  0  0
    6.8083   -0.7791   21.9268 H   0  0  0  0  0  0  0  0  0  0  0  0
    6.6299    0.0058   19.9064 C   0  0  0  0  0  0  0  0  0  0  0  0
    7.1517    0.0667   18.6007 C   0  0  0  0  0  0  0  0  0  0  0  0
    8.1027   -0.4114   18.3605 H   0  0  0  0  0  0  0  0  0  0  0  0
    6.5553    0.6863   17.5754 N   0  0  0  0  0  0  0  0  0  0  0  0
    5.3921    1.3082   17.8204 C   0  0  0  0  0  0  0  0  0  0  0  0
    4.9322    1.8215   16.9785 H   0  0  0  0  0  0  0  0  0  0  0  0
    4.7756    1.3177   19.0734 C   0  0  0  0  0  0  0  0  0  0  0  0
    3.8414    1.8557   19.2138 H   0  0  0  0  0  0  0  0  0  0  0  0
    5.4043    0.6506   20.1292 C   0  0  0  0  0  0  0  0  0  0  0  0
    4.9433    0.6489   21.1187 H   0  0  0  0  0  0  0  0  0  0  0  0
  1  2  1  0
  2  3  1  0
  3  4  1  0
  3  5  1  0
  5  6  2  0
  5  7  1  0
  7  8  1  0
  7  9  1  0
  7 10  1  0
 10 11  1  0
 10 12  1  0
 10 13  1  0
 13 14  1  0
 13 15  1  0
 13 16  1  0
 16 17  1  0
 16 18  1  0
 16 19  1  0
 19 20  2  0
 20 21  1  0
 21 22  2  0
 22 23  1  0
 22 24  1  0
 24 25  1  0
 25 26  1  0
 25 27  1  0
 25 28  1  0
 28 29  2  0
 29 30  1  0
 29 31  1  0
 31 32  2  0
 32 33  1  0
 32 34  1  0
 34 35  1  0
 34 36  2  0
 36 37  1  0
 24 19  1  0
 36 28  1  0
M  END
>  <cnnaffinity>  (1) 
-4.80368

>  <filename>  (1) 
O=C(CCCCc1nncn1Cc1cccnc1)NO

$$$$
