
     RDKit          3D

 34 36  0  0  0  0  0  0  0  0999 V2000
    5.7963   -2.2558   21.4790 O   0  0  0  0  0  0  0  0  0  0  0  0
    6.7872   -1.6191   21.7705 C   0  0  0  0  0  0  0  0  0  0  0  0
    7.5601   -1.8201   23.0876 C   0  0  0  0  0  0  0  0  0  0  0  0
    7.5105   -0.6862   24.1123 C   0  0  0  0  0  0  0  0  0  0  0  0
    6.5192   -0.5884   25.0442 C   0  0  0  0  0  0  0  0  0  0  0  0
    6.4566    0.4807   26.0223 C   0  0  0  0  0  0  0  0  0  0  0  0
    5.4258    0.6071   26.9946 C   0  0  0  0  0  0  0  0  0  0  0  0
    5.4145    1.6691   27.8833 C   0  0  0  0  0  0  0  0  0  0  0  0
    6.4359    2.6450   27.8393 C   0  0  0  0  0  0  0  0  0  0  0  0
    7.4659    2.5410   26.9098 C   0  0  0  0  0  0  0  0  0  0  0  0
    7.4835    1.4631   26.0074 C   0  0  0  0  0  0  0  0  0  0  0  0
    8.4935    1.3302   25.0714 N   0  0  0  0  0  0  0  0  0  0  0  0
    8.5794    0.3633   24.0970 C   0  0  0  0  0  0  0  0  0  0  0  0
    9.4879    0.4276   23.2788 O   0  0  0  0  0  0  0  0  0  0  0  0
    9.2263    2.0155   24.9737 H   0  0  0  0  0  0  0  0  0  0  0  0
    8.2534    3.2922   26.8757 H   0  0  0  0  0  0  0  0  0  0  0  0
    6.4072    3.4772   28.5401 H   0  0  0  0  0  0  0  0  0  0  0  0
    4.6134    1.7559   28.6160 H   0  0  0  0  0  0  0  0  0  0  0  0
    4.6371   -0.1463   27.0257 H   0  0  0  0  0  0  0  0  0  0  0  0
    5.7379   -1.3511   25.0714 H   0  0  0  0  0  0  0  0  0  0  0  0
    8.6021   -2.0177   22.8102 H   0  0  0  0  0  0  0  0  0  0  0  0
    7.1629   -2.7431   23.5210 H   0  0  0  0  0  0  0  0  0  0  0  0
    7.3964   -0.7110   20.9279 N   0  0  0  0  0  0  0  0  0  0  0  0
    6.7221   -0.0226   19.8708 C   0  0  0  0  0  0  0  0  0  0  0  0
    5.5005    0.6123   20.1271 C   0  0  0  0  0  0  0  0  0  0  0  0
    4.8582    1.2908   19.0845 C   0  0  0  0  0  0  0  0  0  0  0  0
    5.4453    1.2984   17.8154 C   0  0  0  0  0  0  0  0  0  0  0  0
    6.6145    0.6916   17.5476 N   0  0  0  0  0  0  0  0  0  0  0  0
    7.2320    0.0556   18.5546 C   0  0  0  0  0  0  0  0  0  0  0  0
    8.1784   -0.4258   18.3160 H   0  0  0  0  0  0  0  0  0  0  0  0
    4.9592    1.8020   16.9802 H   0  0  0  0  0  0  0  0  0  0  0  0
    3.9165    1.8036   19.2446 H   0  0  0  0  0  0  0  0  0  0  0  0
    5.0801    0.5729   21.1322 H   0  0  0  0  0  0  0  0  0  0  0  0
    8.2238   -0.2755   21.3170 H   0  0  0  0  0  0  0  0  0  0  0  0
  1  2  2  0
  2  3  1  0
  3  4  1  0
  4  5  2  0
  5  6  1  0
  6  7  2  0
  7  8  1  0
  8  9  2  0
  9 10  1  0
 10 11  2  0
 11 12  1  0
 12 13  1  0
 13 14  2  0
 12 15  1  0
 10 16  1  0
  9 17  1  0
  8 18  1  0
  7 19  1  0
  5 20  1  0
  3 21  1  0
  3 22  1  0
  2 23  1  0
 23 24  1  0
 24 25  2  0
 25 26  1  0
 26 27  2  0
 27 28  1  0
 28 29  2  0
 29 30  1  0
 27 31  1  0
 26 32  1  0
 25 33  1  0
 23 34  1  0
 13  4  1  0
 29 24  1  0
 11  6  1  0
M  END
>  <cnnaffinity>  (1) 
-5.15297

>  <filename>  (1) 
O=C(Cc1cc2ccccc2[nH]c1=O)Nc1cccnc1

$$$$
