
     RDKit          3D

 32 34  0  0  0  0  0  0  0  0999 V2000
    5.0204    1.8301   16.8908 H   0  0  0  0  0  0  0  0  0  0  0  0
    5.4304    1.2837   17.7390 C   0  0  0  0  0  0  0  0  0  0  0  0
    6.5420    0.5711   17.4947 N   0  0  0  0  0  0  0  0  0  0  0  0
    7.0895   -0.0796   18.5257 C   0  0  0  0  0  0  0  0  0  0  0  0
    7.9728   -0.6815   18.3138 H   0  0  0  0  0  0  0  0  0  0  0  0
    6.5847   -0.0186   19.8345 C   0  0  0  0  0  0  0  0  0  0  0  0
    7.4272   -0.5781   20.9637 C   0  0  0  0  0  0  0  0  0  0  0  0
    7.9960   -1.7454   20.5702 F   0  0  0  0  0  0  0  0  0  0  0  0
    6.6093   -0.8795   22.0289 F   0  0  0  0  0  0  0  0  0  0  0  0
    8.5799    0.4034   21.4313 C   0  0  0  0  0  0  0  0  0  0  0  0
    9.6753    0.3688   20.9017 O   0  0  0  0  0  0  0  0  0  0  0  0
    8.2255    1.3169   22.3953 N   0  0  0  0  0  0  0  0  0  0  0  0
    7.3186    1.2520   22.8232 H   0  0  0  0  0  0  0  0  0  0  0  0
    8.9646    2.4301   22.7974 C   0  0  0  0  0  0  0  0  0  0  0  0
    8.6422    3.3697   23.7415 C   0  0  0  0  0  0  0  0  0  0  0  0
    7.7737    3.3733   24.3838 H   0  0  0  0  0  0  0  0  0  0  0  0
    9.7251    4.3252   23.7522 C   0  0  0  0  0  0  0  0  0  0  0  0
   10.0307    5.4956   24.4875 C   0  0  0  0  0  0  0  0  0  0  0  0
    9.3416    5.8493   25.2546 H   0  0  0  0  0  0  0  0  0  0  0  0
   11.2202    6.1750   24.2184 C   0  0  0  0  0  0  0  0  0  0  0  0
   11.4729    7.0654   24.7898 H   0  0  0  0  0  0  0  0  0  0  0  0
   12.1087    5.7200   23.2100 C   0  0  0  0  0  0  0  0  0  0  0  0
   13.0227    6.2735   23.0039 H   0  0  0  0  0  0  0  0  0  0  0  0
   11.8336    4.5711   22.4741 C   0  0  0  0  0  0  0  0  0  0  0  0
   12.4832    4.2000   21.6842 H   0  0  0  0  0  0  0  0  0  0  0  0
   10.6547    3.8803   22.7734 C   0  0  0  0  0  0  0  0  0  0  0  0
   10.1626    2.7192   22.2174 N   0  0  0  0  0  0  0  0  0  0  0  0
   10.6618    2.0428   21.6587 H   0  0  0  0  0  0  0  0  0  0  0  0
    5.3747    0.6541   20.0612 C   0  0  0  0  0  0  0  0  0  0  0  0
    4.8813    0.6124   21.0364 H   0  0  0  0  0  0  0  0  0  0  0  0
    4.7931    1.3302   18.9863 C   0  0  0  0  0  0  0  0  0  0  0  0
    3.8736    1.8993   19.1062 H   0  0  0  0  0  0  0  0  0  0  0  0
  1  2  1  0
  2  3  2  0
  3  4  1  0
  4  5  1  0
  4  6  2  0
  6  7  1  0
  7  8  1  0
  7  9  1  0
  7 10  1  0
 10 11  2  0
 10 12  1  0
 12 13  1  0
 12 14  1  0
 14 15  2  0
 15 16  1  0
 15 17  1  0
 17 18  2  0
 18 19  1  0
 18 20  1  0
 20 21  1  0
 20 22  2  0
 22 23  1  0
 22 24  1  0
 24 25  1  0
 24 26  2  0
 26 27  1  0
 27 28  1  0
  6 29  1  0
 29 30  1  0
 29 31  2  0
 31 32  1  0
 31  2  1  0
 27 14  1  0
 26 17  1  0
M  END
>  <cnnaffinity>  (1) 
-4.5387

>  <filename>  (1) 
O=C(Nc1cc2ccccc2[nH]1)C(F)(F)c1cccnc1

$$$$
