
     RDKit          3D

 28 29  0  0  0  0  0  0  0  0999 V2000
    8.6696   -0.7448   20.8739 O   0  0  0  0  0  0  0  0  0  0  0  0
    7.4545   -0.7360   20.9700 C   0  0  0  0  0  0  0  0  0  0  0  0
    6.7681   -1.3781   21.9649 N   0  0  0  0  0  0  0  0  0  0  0  0
    7.3456   -2.1832   22.9737 C   0  0  0  0  0  0  0  0  0  0  0  0
    8.4537   -2.9852   22.6835 C   0  0  0  0  0  0  0  0  0  0  0  0
    9.0409   -3.7470   23.6935 C   0  0  0  0  0  0  0  0  0  0  0  0
    8.5187   -3.7149   24.9906 C   0  0  0  0  0  0  0  0  0  0  0  0
    9.3398   -4.6685   26.1886 Cl  0  0  0  0  0  0  0  0  0  0  0  0
    7.3834   -2.9400   25.2933 C   0  0  0  0  0  0  0  0  0  0  0  0
    6.8434   -2.9028   26.7101 C   0  0  0  0  0  0  0  0  0  0  0  0
    6.4674   -4.1169   27.1450 F   0  0  0  0  0  0  0  0  0  0  0  0
    5.7690   -2.0990   26.8228 F   0  0  0  0  0  0  0  0  0  0  0  0
    7.7815   -2.4382   27.5501 F   0  0  0  0  0  0  0  0  0  0  0  0
    6.8030   -2.1718   24.2631 C   0  0  0  0  0  0  0  0  0  0  0  0
    5.9428   -1.5327   24.4535 H   0  0  0  0  0  0  0  0  0  0  0  0
    9.9220   -4.3504   23.5059 H   0  0  0  0  0  0  0  0  0  0  0  0
    8.8512   -2.9744   21.6749 H   0  0  0  0  0  0  0  0  0  0  0  0
    5.7727   -1.2592   21.9715 H   0  0  0  0  0  0  0  0  0  0  0  0
    6.6048   -0.0349   19.9603 C   0  0  0  0  0  0  0  0  0  0  0  0
    5.3885    0.6286   20.1927 C   0  0  0  0  0  0  0  0  0  0  0  0
    4.7869    1.2971   19.1228 C   0  0  0  0  0  0  0  0  0  0  0  0
    5.4071    1.2715   17.8688 C   0  0  0  0  0  0  0  0  0  0  0  0
    6.5668    0.6422   17.6396 N   0  0  0  0  0  0  0  0  0  0  0  0
    7.1505    0.0252   18.6699 C   0  0  0  0  0  0  0  0  0  0  0  0
    8.1158   -0.4258   18.4567 H   0  0  0  0  0  0  0  0  0  0  0  0
    4.9705    1.7749   17.0075 H   0  0  0  0  0  0  0  0  0  0  0  0
    3.8660    1.8552   19.2386 H   0  0  0  0  0  0  0  0  0  0  0  0
    4.9305    0.6935   21.1833 H   0  0  0  0  0  0  0  0  0  0  0  0
  1  2  2  0
  2  3  1  0
  3  4  1  0
  4  5  2  0
  5  6  1  0
  6  7  2  0
  7  8  1  0
  7  9  1  0
  9 10  1  0
 10 11  1  0
 10 12  1  0
 10 13  1  0
  9 14  2  0
 14 15  1  0
  6 16  1  0
  5 17  1  0
  3 18  1  0
  2 19  1  0
 19 20  2  0
 20 21  1  0
 21 22  2  0
 22 23  1  0
 23 24  2  0
 24 25  1  0
 22 26  1  0
 21 27  1  0
 20 28  1  0
 14  4  1  0
 24 19  1  0
M  END
>  <cnnaffinity>  (1) 
-5.06018

>  <filename>  (1) 
O=C(Nc1ccc(Cl)c(C(F)(F)F)c1)c1cccnc1

$$$$
