
     RDKit          3D

 26 27  0  0  0  0  0  0  0  0999 V2000
    5.1734   -1.2046   25.7602 H   0  0  0  0  0  0  0  0  0  0  0  0
    5.7542   -0.5453   25.3469 O   0  0  0  0  0  0  0  0  0  0  0  0
    6.9149   -1.2107   25.3771 C   0  0  0  0  0  0  0  0  0  0  0  0
    6.9795   -2.3123   25.8683 O   0  0  0  0  0  0  0  0  0  0  0  0
    8.0508   -0.4647   24.7427 C   0  0  0  0  0  0  0  0  0  0  0  0
    8.9630   -0.8398   25.2078 H   0  0  0  0  0  0  0  0  0  0  0  0
    7.9328    0.6029   24.9084 H   0  0  0  0  0  0  0  0  0  0  0  0
    8.0171   -0.7570   23.2807 C   0  0  0  0  0  0  0  0  0  0  0  0
    7.3160   -0.0611   22.3378 C   0  0  0  0  0  0  0  0  0  0  0  0
    6.7830    0.8403   22.5991 H   0  0  0  0  0  0  0  0  0  0  0  0
    7.3132   -0.5632   20.9993 C   0  0  0  0  0  0  0  0  0  0  0  0
    6.5863    0.1460   19.9242 C   0  0  0  0  0  0  0  0  0  0  0  0
    7.1258    0.1276   18.6268 C   0  0  0  0  0  0  0  0  0  0  0  0
    8.0582   -0.4000   18.4219 H   0  0  0  0  0  0  0  0  0  0  0  0
    6.5555    0.7295   17.5794 N   0  0  0  0  0  0  0  0  0  0  0  0
    5.3867    1.3509   17.7870 C   0  0  0  0  0  0  0  0  0  0  0  0
    4.9410    1.8212   16.9151 H   0  0  0  0  0  0  0  0  0  0  0  0
    4.7475    1.3946   19.0279 C   0  0  0  0  0  0  0  0  0  0  0  0
    3.7964    1.9015   19.1125 H   0  0  0  0  0  0  0  0  0  0  0  0
    5.3552    0.7889   20.1244 C   0  0  0  0  0  0  0  0  0  0  0  0
    4.8680    0.8024   21.1031 H   0  0  0  0  0  0  0  0  0  0  0  0
    7.9184   -1.6623   20.6415 N   0  0  0  0  0  0  0  0  0  0  0  0
    8.4292   -2.4629   21.6211 C   0  0  0  0  0  0  0  0  0  0  0  0
    8.7214   -3.6316   21.4953 O   0  0  0  0  0  0  0  0  0  0  0  0
    8.6249   -1.8934   22.8852 N   0  0  0  0  0  0  0  0  0  0  0  0
    8.8937   -2.6180   23.5247 H   0  0  0  0  0  0  0  0  0  0  0  0
  1  2  1  0
  2  3  1  0
  3  4  2  0
  3  5  1  0
  5  6  1  0
  5  7  1  0
  5  8  1  0
  8  9  2  0
  9 10  1  0
  9 11  1  0
 11 12  1  0
 12 13  2  0
 13 14  1  0
 13 15  1  0
 15 16  2  0
 16 17  1  0
 16 18  1  0
 18 19  1  0
 18 20  2  0
 20 21  1  0
 11 22  2  0
 22 23  1  0
 23 24  2  0
 23 25  1  0
 25 26  1  0
 25  8  1  0
 20 12  1  0
M  END
>  <cnnaffinity>  (1) 
-4.61834

>  <filename>  (1) 
O=C(O)Cc1cc(-c2cccnc2)nc(=O)[nH]1

$$$$
