
     RDKit          3D

 32 34  0  0  0  0  0  0  0  0999 V2000
    4.9226    1.8266   16.9470 H   0  0  0  0  0  0  0  0  0  0  0  0
    5.3777    1.3358   17.8030 C   0  0  0  0  0  0  0  0  0  0  0  0
    6.5428    0.7125   17.5718 N   0  0  0  0  0  0  0  0  0  0  0  0
    7.1325    0.1122   18.6063 C   0  0  0  0  0  0  0  0  0  0  0  0
    8.0584   -0.4289   18.4133 H   0  0  0  0  0  0  0  0  0  0  0  0
    6.6196    0.1363   19.9099 C   0  0  0  0  0  0  0  0  0  0  0  0
    7.3709   -0.5954   20.9493 C   0  0  0  0  0  0  0  0  0  0  0  0
    8.0254   -1.6414   20.5436 N   0  0  0  0  0  0  0  0  0  0  0  0
    8.4962   -2.5001   21.4930 C   0  0  0  0  0  0  0  0  0  0  0  0
    8.7490   -3.6683   21.3212 O   0  0  0  0  0  0  0  0  0  0  0  0
    8.6846   -1.9891   22.7882 N   0  0  0  0  0  0  0  0  0  0  0  0
    9.0793   -2.7161   23.3619 H   0  0  0  0  0  0  0  0  0  0  0  0
    8.0432   -0.8688   23.2615 C   0  0  0  0  0  0  0  0  0  0  0  0
    8.1041   -0.5288   24.7697 C   0  0  0  0  0  0  0  0  0  0  0  0
    8.2103   -1.4254   25.5850 O   0  0  0  0  0  0  0  0  0  0  0  0
    8.0405    0.9223   25.1618 C   0  0  0  0  0  0  0  0  0  0  0  0
    8.6416    1.9133   24.3592 C   0  0  0  0  0  0  0  0  0  0  0  0
    9.1452    1.6389   23.4330 H   0  0  0  0  0  0  0  0  0  0  0  0
    8.5968    3.2546   24.7341 C   0  0  0  0  0  0  0  0  0  0  0  0
    9.0357    4.0325   24.1191 H   0  0  0  0  0  0  0  0  0  0  0  0
    7.9379    3.5936   25.9134 C   0  0  0  0  0  0  0  0  0  0  0  0
    7.8721    4.8839   26.2715 F   0  0  0  0  0  0  0  0  0  0  0  0
    7.3368    2.6401   26.7332 C   0  0  0  0  0  0  0  0  0  0  0  0
    6.8141    2.9547   27.6302 H   0  0  0  0  0  0  0  0  0  0  0  0
    7.4045    1.2991   26.3590 C   0  0  0  0  0  0  0  0  0  0  0  0
    6.9653    0.5309   26.9915 H   0  0  0  0  0  0  0  0  0  0  0  0
    7.3453   -0.1603   22.3119 C   0  0  0  0  0  0  0  0  0  0  0  0
    6.8108    0.7365   22.5604 H   0  0  0  0  0  0  0  0  0  0  0  0
    5.3833    0.7512   20.1342 C   0  0  0  0  0  0  0  0  0  0  0  0
    4.9150    0.7063   21.1187 H   0  0  0  0  0  0  0  0  0  0  0  0
    4.7544    1.3659   19.0543 C   0  0  0  0  0  0  0  0  0  0  0  0
    3.8050    1.8739   19.1699 H   0  0  0  0  0  0  0  0  0  0  0  0
  1  2  1  0
  2  3  2  0
  3  4  1  0
  4  5  1  0
  4  6  2  0
  6  7  1  0
  7  8  2  0
  8  9  1  0
  9 10  2  0
  9 11  1  0
 11 12  1  0
 11 13  1  0
 13 14  1  0
 14 15  2  0
 14 16  1  0
 16 17  2  0
 17 18  1  0
 17 19  1  0
 19 20  1  0
 19 21  2  0
 21 22  1  0
 21 23  1  0
 23 24  1  0
 23 25  2  0
 25 26  1  0
 13 27  2  0
 27 28  1  0
  6 29  1  0
 29 30  1  0
 29 31  2  0
 31 32  1  0
 31  2  1  0
 27  7  1  0
 25 16  1  0
M  END
>  <cnnaffinity>  (1) 
-5.21414

>  <filename>  (1) 
O=C(c1ccc(F)cc1)c1cc(-c2cccnc2)nc(=O)[nH]1

$$$$
