
     RDKit          3D

 34 36  0  0  0  0  0  0  0  0999 V2000
    4.9572    1.8111   16.9492 H   0  0  0  0  0  0  0  0  0  0  0  0
    5.4127    1.2977   17.7938 C   0  0  0  0  0  0  0  0  0  0  0  0
    6.5687    0.6551   17.5550 N   0  0  0  0  0  0  0  0  0  0  0  0
    7.1514    0.0350   18.5877 C   0  0  0  0  0  0  0  0  0  0  0  0
    8.0758   -0.5038   18.3829 H   0  0  0  0  0  0  0  0  0  0  0  0
    6.6425    0.0517   19.8980 C   0  0  0  0  0  0  0  0  0  0  0  0
    7.3981   -0.5959   20.9668 C   0  0  0  0  0  0  0  0  0  0  0  0
    8.1360   -1.7499   20.7839 N   0  0  0  0  0  0  0  0  0  0  0  0
    8.5568   -2.0880   21.9753 C   0  0  0  0  0  0  0  0  0  0  0  0
    9.1410   -2.9656   22.2264 H   0  0  0  0  0  0  0  0  0  0  0  0
    8.1771   -1.1959   22.9298 N   0  0  0  0  0  0  0  0  0  0  0  0
    8.1454   -1.2523   23.9454 H   0  0  0  0  0  0  0  0  0  0  0  0
    7.4575   -0.2319   22.2990 C   0  0  0  0  0  0  0  0  0  0  0  0
    6.9545    0.8564   23.0223 N   0  0  0  0  0  0  0  0  0  0  0  0
    6.9003    1.7509   22.5639 H   0  0  0  0  0  0  0  0  0  0  0  0
    6.8665    0.8542   24.4017 C   0  0  0  0  0  0  0  0  0  0  0  0
    7.0934   -0.1234   25.0934 O   0  0  0  0  0  0  0  0  0  0  0  0
    6.4893    2.0732   24.8686 N   0  0  0  0  0  0  0  0  0  0  0  0
    6.2928    2.7677   24.1784 H   0  0  0  0  0  0  0  0  0  0  0  0
    6.4192    2.4477   26.2227 C   0  0  0  0  0  0  0  0  0  0  0  0
    5.5524    3.4805   26.5993 C   0  0  0  0  0  0  0  0  0  0  0  0
    4.9639    3.9959   25.8432 H   0  0  0  0  0  0  0  0  0  0  0  0
    5.4316    3.8192   27.9526 C   0  0  0  0  0  0  0  0  0  0  0  0
    4.7335    4.5946   28.2529 H   0  0  0  0  0  0  0  0  0  0  0  0
    6.1943    3.1580   28.9217 C   0  0  0  0  0  0  0  0  0  0  0  0
    6.0900    3.4075   29.9738 H   0  0  0  0  0  0  0  0  0  0  0  0
    7.0865    2.1579   28.5259 C   0  0  0  0  0  0  0  0  0  0  0  0
    7.6939    1.6309   29.2567 H   0  0  0  0  0  0  0  0  0  0  0  0
    7.2030    1.7961   27.1860 C   0  0  0  0  0  0  0  0  0  0  0  0
    7.8800    1.0103   26.8768 H   0  0  0  0  0  0  0  0  0  0  0  0
    5.4100    0.6939   20.1209 C   0  0  0  0  0  0  0  0  0  0  0  0
    4.9459    0.6636   21.1081 H   0  0  0  0  0  0  0  0  0  0  0  0
    4.7912    1.3275   19.0466 C   0  0  0  0  0  0  0  0  0  0  0  0
    3.8509    1.8508   19.1693 H   0  0  0  0  0  0  0  0  0  0  0  0
  1  2  1  0
  2  3  2  0
  3  4  1  0
  4  5  1  0
  4  6  2  0
  6  7  1  0
  7  8  1  0
  8  9  2  0
  9 10  1  0
  9 11  1  0
 11 12  1  0
 11 13  1  0
 13 14  1  0
 14 15  1  0
 14 16  1  0
 16 17  2  0
 16 18  1  0
 18 19  1  0
 18 20  1  0
 20 21  2  0
 21 22  1  0
 21 23  1  0
 23 24  1  0
 23 25  2  0
 25 26  1  0
 25 27  1  0
 27 28  1  0
 27 29  2  0
 29 30  1  0
  6 31  1  0
 31 32  1  0
 31 33  2  0
 33 34  1  0
 33  2  1  0
 13  7  2  0
 29 20  1  0
M  END
>  <cnnaffinity>  (1) 
-4.77566

>  <filename>  (1) 
O=C(Nc1ccccc1)Nc1[nH]cnc1-c1cccnc1

$$$$
