
     RDKit          3D

 35 37  0  0  0  0  0  0  0  0999 V2000
    5.0311    1.7661   17.0172 H   0  0  0  0  0  0  0  0  0  0  0  0
    5.4945    1.2467   17.8517 C   0  0  0  0  0  0  0  0  0  0  0  0
    6.6510    0.6117   17.5915 N   0  0  0  0  0  0  0  0  0  0  0  0
    7.2549   -0.0201   18.6050 C   0  0  0  0  0  0  0  0  0  0  0  0
    8.1892   -0.5314   18.3686 H   0  0  0  0  0  0  0  0  0  0  0  0
    6.7536   -0.0619   19.9386 C   0  0  0  0  0  0  0  0  0  0  0  0
    7.4065   -0.7089   20.9522 N   0  0  0  0  0  0  0  0  0  0  0  0
    7.0404   -0.8644   22.3400 C   0  0  0  0  0  0  0  0  0  0  0  0
    7.0135    0.0715   22.9171 H   0  0  0  0  0  0  0  0  0  0  0  0
    6.0922   -1.4002   22.4856 H   0  0  0  0  0  0  0  0  0  0  0  0
    8.3329   -1.7203   22.5013 C   0  0  0  0  0  0  0  0  0  0  0  0
    8.9891   -1.3834   23.3084 H   0  0  0  0  0  0  0  0  0  0  0  0
    7.9685   -3.1869   22.6668 C   0  0  0  0  0  0  0  0  0  0  0  0
    8.2622   -4.0443   21.8633 O   0  0  0  0  0  0  0  0  0  0  0  0
    7.1905   -3.5296   23.9354 C   0  0  0  0  0  0  0  0  0  0  0  0
    6.7317   -2.6288   24.3526 H   0  0  0  0  0  0  0  0  0  0  0  0
    6.3881   -4.2135   23.6443 H   0  0  0  0  0  0  0  0  0  0  0  0
    8.0939   -4.1711   24.9726 C   0  0  0  0  0  0  0  0  0  0  0  0
    8.4671   -5.5228   24.8377 C   0  0  0  0  0  0  0  0  0  0  0  0
    8.0447   -6.0991   24.0244 H   0  0  0  0  0  0  0  0  0  0  0  0
    9.4090   -6.1252   25.6790 C   0  0  0  0  0  0  0  0  0  0  0  0
    9.6852   -7.1752   25.5667 H   0  0  0  0  0  0  0  0  0  0  0  0
    9.9940   -5.3601   26.6873 C   0  0  0  0  0  0  0  0  0  0  0  0
   10.7518   -5.8004   27.3275 H   0  0  0  0  0  0  0  0  0  0  0  0
    9.6110   -4.0322   26.8688 C   0  0  0  0  0  0  0  0  0  0  0  0
   10.0440   -3.3983   27.6189 H   0  0  0  0  0  0  0  0  0  0  0  0
    8.6691   -3.4461   26.0261 C   0  0  0  0  0  0  0  0  0  0  0  0
    8.3182   -1.7500   26.3105 Cl  0  0  0  0  0  0  0  0  0  0  0  0
    8.7231   -1.3124   21.0541 C   0  0  0  0  0  0  0  0  0  0  0  0
    8.9162   -2.1286   20.3501 H   0  0  0  0  0  0  0  0  0  0  0  0
    9.5422   -0.5811   20.9776 H   0  0  0  0  0  0  0  0  0  0  0  0
    5.5259    0.5930   20.1752 C   0  0  0  0  0  0  0  0  0  0  0  0
    5.0928    0.5872   21.1747 H   0  0  0  0  0  0  0  0  0  0  0  0
    4.8982    1.2519   19.1180 C   0  0  0  0  0  0  0  0  0  0  0  0
    3.9602    1.7777   19.2659 H   0  0  0  0  0  0  0  0  0  0  0  0
  1  2  1  0
  2  3  2  0
  3  4  1  0
  4  5  1  0
  4  6  2  0
  6  7  1  0
  7  8  1  0
  8  9  1  0
  8 10  1  0
  8 11  1  0
 11 12  1  0
 11 13  1  0
 13 14  2  0
 13 15  1  0
 15 16  1  0
 15 17  1  0
 15 18  1  0
 18 19  2  0
 19 20  1  0
 19 21  1  0
 21 22  1  0
 21 23  2  0
 23 24  1  0
 23 25  1  0
 25 26  1  0
 25 27  2  0
 27 28  1  0
 11 29  1  0
 29 30  1  0
 29 31  1  0
  6 32  1  0
 32 33  1  0
 32 34  2  0
 34 35  1  0
 34  2  1  0
 29  7  1  0
 27 18  1  0
M  END
>  <cnnaffinity>  (1) 
-5.50724

>  <filename>  (1) 
O=C(Cc1ccccc1Cl)C1CN(c2cccnc2)C1

$$$$
