
     RDKit          3D

 37 38  0  0  0  0  0  0  0  0999 V2000
   12.7000    4.4870   21.4835 H   0  0  0  0  0  0  0  0  0  0  0  0
   13.0869    3.8793   22.1416 O   0  0  0  0  0  0  0  0  0  0  0  0
   12.0833    2.9765   22.4777 N   0  0  0  0  0  0  0  0  0  0  0  0
   12.3523    2.0169   22.3185 H   0  0  0  0  0  0  0  0  0  0  0  0
   11.1315    3.2097   23.4481 C   0  0  0  0  0  0  0  0  0  0  0  0
   10.9249    4.2757   23.9893 O   0  0  0  0  0  0  0  0  0  0  0  0
   10.2398    2.0028   23.7089 C   0  0  0  0  0  0  0  0  0  0  0  0
   10.7175    1.0382   23.4945 H   0  0  0  0  0  0  0  0  0  0  0  0
   10.0462    2.0325   24.7843 H   0  0  0  0  0  0  0  0  0  0  0  0
    8.8930    2.1223   22.9556 C   0  0  0  0  0  0  0  0  0  0  0  0
    8.2123    1.3368   23.3188 H   0  0  0  0  0  0  0  0  0  0  0  0
    8.4414    3.0840   23.2276 H   0  0  0  0  0  0  0  0  0  0  0  0
    9.0006    2.0277   21.4255 C   0  0  0  0  0  0  0  0  0  0  0  0
    9.6696    2.8092   21.0520 H   0  0  0  0  0  0  0  0  0  0  0  0
    8.0190    2.2318   20.9729 H   0  0  0  0  0  0  0  0  0  0  0  0
    9.5153    0.6637   20.9298 C   0  0  0  0  0  0  0  0  0  0  0  0
   10.5363    0.4667   21.2743 H   0  0  0  0  0  0  0  0  0  0  0  0
    9.5224    0.6448   19.8391 H   0  0  0  0  0  0  0  0  0  0  0  0
    8.6822   -0.4883   21.4138 C   0  0  0  0  0  0  0  0  0  0  0  0
    9.0639   -1.3001   22.3229 N   0  0  0  0  0  0  0  0  0  0  0  0
    7.9627   -2.2207   22.6018 C   0  0  0  0  0  0  0  0  0  0  0  0
    7.7241   -2.1770   23.6728 H   0  0  0  0  0  0  0  0  0  0  0  0
    8.2812   -3.2479   22.3779 H   0  0  0  0  0  0  0  0  0  0  0  0
    6.7799   -1.7574   21.7161 C   0  0  0  0  0  0  0  0  0  0  0  0
    6.3933   -2.5390   21.0517 H   0  0  0  0  0  0  0  0  0  0  0  0
    5.9417   -1.3774   22.3050 H   0  0  0  0  0  0  0  0  0  0  0  0
    7.3874   -0.6774   20.9386 N   0  0  0  0  0  0  0  0  0  0  0  0
    6.7082    0.0151   19.9010 C   0  0  0  0  0  0  0  0  0  0  0  0
    7.1875    0.0707   18.5652 C   0  0  0  0  0  0  0  0  0  0  0  0
    8.1216   -0.4264   18.3166 H   0  0  0  0  0  0  0  0  0  0  0  0
    6.5555    0.6840   17.5494 N   0  0  0  0  0  0  0  0  0  0  0  0
    5.3969    1.3009   17.8263 C   0  0  0  0  0  0  0  0  0  0  0  0
    4.9157    1.8112   16.9931 H   0  0  0  0  0  0  0  0  0  0  0  0
    4.8198    1.3060   19.1016 C   0  0  0  0  0  0  0  0  0  0  0  0
    3.8813    1.8265   19.2607 H   0  0  0  0  0  0  0  0  0  0  0  0
    5.4800    0.6448   20.1504 C   0  0  0  0  0  0  0  0  0  0  0  0
    5.0658    0.6096   21.1574 H   0  0  0  0  0  0  0  0  0  0  0  0
  1  2  1  0
  2  3  1  0
  3  4  1  0
  3  5  1  0
  5  6  2  0
  5  7  1  0
  7  8  1  0
  7  9  1  0
  7 10  1  0
 10 11  1  0
 10 12  1  0
 10 13  1  0
 13 14  1  0
 13 15  1  0
 13 16  1  0
 16 17  1  0
 16 18  1  0
 16 19  1  0
 19 20  2  0
 20 21  1  0
 21 22  1  0
 21 23  1  0
 21 24  1  0
 24 25  1  0
 24 26  1  0
 24 27  1  0
 27 28  1  0
 28 29  2  0
 29 30  1  0
 29 31  1  0
 31 32  2  0
 32 33  1  0
 32 34  1  0
 34 35  1  0
 34 36  2  0
 36 37  1  0
 27 19  1  0
 36 28  1  0
M  END
>  <cnnaffinity>  (1) 
-4.7557

>  <filename>  (1) 
O=C(CCCCC1=NCCN1c1cccnc1)NO

$$$$
