
     RDKit          3D

 40 42  0  0  0  0  0  0  0  0999 V2000
    4.9518    1.7713   17.0310 H   0  0  0  0  0  0  0  0  0  0  0  0
    5.4277    1.2673   17.8680 C   0  0  0  0  0  0  0  0  0  0  0  0
    6.5925    0.6492   17.6025 N   0  0  0  0  0  0  0  0  0  0  0  0
    7.2035    0.0300   18.6204 C   0  0  0  0  0  0  0  0  0  0  0  0
    8.1523   -0.4440   18.3725 H   0  0  0  0  0  0  0  0  0  0  0  0
    6.7041   -0.0332   19.9554 C   0  0  0  0  0  0  0  0  0  0  0  0
    7.3713   -0.6893   20.9663 N   0  0  0  0  0  0  0  0  0  0  0  0
    7.0568   -0.8979   22.3657 C   0  0  0  0  0  0  0  0  0  0  0  0
    7.0090    0.0205   22.9644 H   0  0  0  0  0  0  0  0  0  0  0  0
    6.1344   -1.4607   22.5560 H   0  0  0  0  0  0  0  0  0  0  0  0
    8.3835   -1.7102   22.4782 C   0  0  0  0  0  0  0  0  0  0  0  0
    9.1318   -1.2785   23.1481 H   0  0  0  0  0  0  0  0  0  0  0  0
    8.1890   -3.1820   22.7647 C   0  0  0  0  0  0  0  0  0  0  0  0
    7.4312   -3.8488   22.0880 O   0  0  0  0  0  0  0  0  0  0  0  0
    8.9777   -3.7952   23.9557 C   0  0  0  0  0  0  0  0  0  0  0  0
   10.0468   -3.5781   23.8234 H   0  0  0  0  0  0  0  0  0  0  0  0
    8.8837   -4.8850   23.8636 H   0  0  0  0  0  0  0  0  0  0  0  0
    8.6047   -3.4110   25.3271 N   0  0  0  0  0  0  0  0  0  0  0  0
    8.6499   -2.3991   25.4787 H   0  0  0  0  0  0  0  0  0  0  0  0
    7.2855   -3.8691   25.7603 C   0  0  0  0  0  0  0  0  0  0  0  0
    7.1689   -4.9142   25.4168 H   0  0  0  0  0  0  0  0  0  0  0  0
    6.0782   -3.0425   25.2580 C   0  0  0  0  0  0  0  0  0  0  0  0
    5.7301   -3.4168   24.2893 H   0  0  0  0  0  0  0  0  0  0  0  0
    6.3927   -1.9995   25.0941 H   0  0  0  0  0  0  0  0  0  0  0  0
    5.0033   -3.1139   26.3736 C   0  0  0  0  0  0  0  0  0  0  0  0
    4.1222   -3.6798   26.0504 H   0  0  0  0  0  0  0  0  0  0  0  0
    4.6404   -2.1098   26.6195 H   0  0  0  0  0  0  0  0  0  0  0  0
    5.6773   -3.7932   27.5979 C   0  0  0  0  0  0  0  0  0  0  0  0
    5.2935   -4.8134   27.7232 H   0  0  0  0  0  0  0  0  0  0  0  0
    5.4586   -3.2707   28.5366 H   0  0  0  0  0  0  0  0  0  0  0  0
    7.1841   -3.8241   27.2817 C   0  0  0  0  0  0  0  0  0  0  0  0
    7.7168   -4.6685   27.7354 H   0  0  0  0  0  0  0  0  0  0  0  0
    7.6867   -2.9072   27.6206 H   0  0  0  0  0  0  0  0  0  0  0  0
    8.6298   -1.4027   20.9736 C   0  0  0  0  0  0  0  0  0  0  0  0
    9.5097   -0.7939   20.7301 H   0  0  0  0  0  0  0  0  0  0  0  0
    8.6593   -2.2867   20.3371 H   0  0  0  0  0  0  0  0  0  0  0  0
    5.4749    0.6199   20.1978 C   0  0  0  0  0  0  0  0  0  0  0  0
    5.0350    0.6161   21.1959 H   0  0  0  0  0  0  0  0  0  0  0  0
    4.8403    1.2768   19.1393 C   0  0  0  0  0  0  0  0  0  0  0  0
    3.9029    1.8109   19.2882 H   0  0  0  0  0  0  0  0  0  0  0  0
  1  2  1  0
  2  3  2  0
  3  4  1  0
  4  5  1  0
  4  6  2  0
  6  7  1  0
  7  8  1  0
  8  9  1  0
  8 10  1  0
  8 11  1  0
 11 12  1  0
 11 13  1  0
 13 14  2  0
 13 15  1  0
 15 16  1  0
 15 17  1  0
 15 18  1  0
 18 19  1  0
 18 20  1  0
 20 21  1  0
 20 22  1  0
 22 23  1  0
 22 24  1  0
 22 25  1  0
 25 26  1  0
 25 27  1  0
 25 28  1  0
 28 29  1  0
 28 30  1  0
 28 31  1  0
 31 32  1  0
 31 33  1  0
 11 34  1  0
 34 35  1  0
 34 36  1  0
  6 37  1  0
 37 38  1  0
 37 39  2  0
 39 40  1  0
 39  2  1  0
 34  7  1  0
 31 20  1  0
M  END
>  <cnnaffinity>  (1) 
-4.89199

>  <filename>  (1) 
O=C(CNC1CCCC1)C1CN(c2cccnc2)C1

$$$$
