
     RDKit          3D

 36 38  0  0  0  0  0  0  0  0999 V2000
    4.9577    1.7878   16.9773 H   0  0  0  0  0  0  0  0  0  0  0  0
    5.3976    1.2995   17.8440 C   0  0  0  0  0  0  0  0  0  0  0  0
    6.5632    0.6702   17.6317 N   0  0  0  0  0  0  0  0  0  0  0  0
    7.1523    0.0875   18.6786 C   0  0  0  0  0  0  0  0  0  0  0  0
    8.0798   -0.4551   18.4929 H   0  0  0  0  0  0  0  0  0  0  0  0
    6.6277    0.1361   19.9739 C   0  0  0  0  0  0  0  0  0  0  0  0
    7.3786   -0.5334   21.0493 C   0  0  0  0  0  0  0  0  0  0  0  0
    8.0673   -1.5798   20.6833 N   0  0  0  0  0  0  0  0  0  0  0  0
    8.6242   -2.3416   21.6606 C   0  0  0  0  0  0  0  0  0  0  0  0
    8.9714   -3.4895   21.5317 O   0  0  0  0  0  0  0  0  0  0  0  0
    8.8038   -1.7644   22.9311 N   0  0  0  0  0  0  0  0  0  0  0  0
    9.0901   -2.5014   23.5471 H   0  0  0  0  0  0  0  0  0  0  0  0
    7.9765   -0.7814   23.3218 C   0  0  0  0  0  0  0  0  0  0  0  0
    7.9205   -0.5642   24.6705 N   0  0  0  0  0  0  0  0  0  0  0  0
    8.7563   -0.7182   25.1955 H   0  0  0  0  0  0  0  0  0  0  0  0
    6.8685    0.1104   25.2488 C   0  0  0  0  0  0  0  0  0  0  0  0
    5.8002    0.2723   24.6991 O   0  0  0  0  0  0  0  0  0  0  0  0
    7.1712    0.5928   26.4946 N   0  0  0  0  0  0  0  0  0  0  0  0
    8.0325    0.3082   26.9262 H   0  0  0  0  0  0  0  0  0  0  0  0
    6.2951    1.4472   27.2019 C   0  0  0  0  0  0  0  0  0  0  0  0
    6.2476    1.3925   28.5951 C   0  0  0  0  0  0  0  0  0  0  0  0
    6.8893    0.6945   29.1227 H   0  0  0  0  0  0  0  0  0  0  0  0
    5.3488    2.2032   29.3011 C   0  0  0  0  0  0  0  0  0  0  0  0
    5.2792    2.1552   30.3844 H   0  0  0  0  0  0  0  0  0  0  0  0
    4.5197    3.0849   28.6001 C   0  0  0  0  0  0  0  0  0  0  0  0
    3.3922    4.0985   29.4590 Cl  0  0  0  0  0  0  0  0  0  0  0  0
    4.5763    3.1658   27.2052 C   0  0  0  0  0  0  0  0  0  0  0  0
    3.9251    3.8501   26.6638 H   0  0  0  0  0  0  0  0  0  0  0  0
    5.4606    2.3441   26.5113 C   0  0  0  0  0  0  0  0  0  0  0  0
    5.4988    2.3571   25.4323 H   0  0  0  0  0  0  0  0  0  0  0  0
    7.2878   -0.0817   22.3785 C   0  0  0  0  0  0  0  0  0  0  0  0
    6.6832    0.7418   22.6941 H   0  0  0  0  0  0  0  0  0  0  0  0
    5.3862    0.7462   20.1769 C   0  0  0  0  0  0  0  0  0  0  0  0
    4.9181    0.7163   21.1635 H   0  0  0  0  0  0  0  0  0  0  0  0
    4.7605    1.3465   19.0886 C   0  0  0  0  0  0  0  0  0  0  0  0
    3.8123    1.8622   19.1932 H   0  0  0  0  0  0  0  0  0  0  0  0
  1  2  1  0
  2  3  2  0
  3  4  1  0
  4  5  1  0
  4  6  2  0
  6  7  1  0
  7  8  2  0
  8  9  1  0
  9 10  2  0
  9 11  1  0
 11 12  1  0
 11 13  1  0
 13 14  1  0
 14 15  1  0
 14 16  1  0
 16 17  2  0
 16 18  1  0
 18 19  1  0
 18 20  1  0
 20 21  2  0
 21 22  1  0
 21 23  1  0
 23 24  1  0
 23 25  2  0
 25 26  1  0
 25 27  1  0
 27 28  1  0
 27 29  2  0
 29 30  1  0
 13 31  2  0
 31 32  1  0
  6 33  1  0
 33 34  1  0
 33 35  2  0
 35 36  1  0
 35  2  1  0
 31  7  1  0
 29 20  1  0
M  END
>  <cnnaffinity>  (1) 
-5.35586

>  <filename>  (1) 
O=C(Nc1ccc(Cl)cc1)Nc1cc(-c2cccnc2)nc(=O)[nH]1

$$$$
