
     RDKit          3D

 41 43  0  0  0  0  0  0  0  0999 V2000
    4.9900    1.8136   17.0154 H   0  0  0  0  0  0  0  0  0  0  0  0
    5.4255    1.2736   17.8565 C   0  0  0  0  0  0  0  0  0  0  0  0
    6.5827    0.6376   17.6153 N   0  0  0  0  0  0  0  0  0  0  0  0
    7.1453   -0.0127   18.6424 C   0  0  0  0  0  0  0  0  0  0  0  0
    8.0964   -0.5012   18.4314 H   0  0  0  0  0  0  0  0  0  0  0  0
    6.5983   -0.1054   19.9407 C   0  0  0  0  0  0  0  0  0  0  0  0
    7.3140   -0.8279   21.0636 C   0  0  0  0  0  0  0  0  0  0  0  0
    7.0039   -2.3061   21.3693 C   0  0  0  0  0  0  0  0  0  0  0  0
    7.7725   -3.2312   21.2409 O   0  0  0  0  0  0  0  0  0  0  0  0
    5.7505   -2.4334   21.9244 O   0  0  0  0  0  0  0  0  0  0  0  0
    5.2276   -3.7369   22.1204 N   0  0  0  0  0  0  0  0  0  0  0  0
    5.9443   -4.4436   21.9990 H   0  0  0  0  0  0  0  0  0  0  0  0
    4.4356   -3.9826   23.2571 C   0  0  0  0  0  0  0  0  0  0  0  0
    4.0102   -3.1666   24.0408 O   0  0  0  0  0  0  0  0  0  0  0  0
    4.1012   -5.4787   23.3778 C   0  0  0  0  0  0  0  0  0  0  0  0
    4.5568   -6.0234   22.5345 H   0  0  0  0  0  0  0  0  0  0  0  0
    4.6686   -6.0231   24.7285 C   0  0  0  0  0  0  0  0  0  0  0  0
    4.7177   -5.1965   25.4495 H   0  0  0  0  0  0  0  0  0  0  0  0
    5.7001   -6.3658   24.5629 H   0  0  0  0  0  0  0  0  0  0  0  0
    3.8167   -7.1488   25.3621 C   0  0  0  0  0  0  0  0  0  0  0  0
    3.0646   -6.6988   26.0286 H   0  0  0  0  0  0  0  0  0  0  0  0
    4.4508   -7.7653   26.0044 H   0  0  0  0  0  0  0  0  0  0  0  0
    3.0982   -7.9985   24.3076 C   0  0  0  0  0  0  0  0  0  0  0  0
    2.5669   -8.8337   24.7808 H   0  0  0  0  0  0  0  0  0  0  0  0
    3.8431   -8.4414   23.6333 H   0  0  0  0  0  0  0  0  0  0  0  0
    2.1132   -7.1395   23.4815 C   0  0  0  0  0  0  0  0  0  0  0  0
    1.1284   -7.1335   23.9668 H   0  0  0  0  0  0  0  0  0  0  0  0
    1.9676   -7.6077   22.5002 H   0  0  0  0  0  0  0  0  0  0  0  0
    2.5635   -5.6658   23.3173 C   0  0  0  0  0  0  0  0  0  0  0  0
    2.1618   -5.2514   22.3838 H   0  0  0  0  0  0  0  0  0  0  0  0
    2.1437   -5.0629   24.1353 H   0  0  0  0  0  0  0  0  0  0  0  0
    8.7564   -0.4147   21.2934 C   0  0  0  0  0  0  0  0  0  0  0  0
    9.4502   -1.2043   21.5750 H   0  0  0  0  0  0  0  0  0  0  0  0
    9.1662    0.3549   20.6350 H   0  0  0  0  0  0  0  0  0  0  0  0
    7.7045    0.0043   22.2739 C   0  0  0  0  0  0  0  0  0  0  0  0
    7.6764   -0.4710   23.2503 H   0  0  0  0  0  0  0  0  0  0  0  0
    7.4123    1.0544   22.2698 H   0  0  0  0  0  0  0  0  0  0  0  0
    5.3913    0.5732   20.1626 C   0  0  0  0  0  0  0  0  0  0  0  0
    4.9429    0.5692   21.1580 H   0  0  0  0  0  0  0  0  0  0  0  0
    4.7956    1.2676   19.1049 C   0  0  0  0  0  0  0  0  0  0  0  0
    3.8736    1.8248   19.2345 H   0  0  0  0  0  0  0  0  0  0  0  0
  1  2  1  0
  2  3  2  0
  3  4  1  0
  4  5  1  0
  4  6  2  0
  6  7  1  0
  7  8  1  0
  8  9  2  0
  8 10  1  0
 10 11  1  0
 11 12  1  0
 11 13  1  0
 13 14  2  0
 13 15  1  0
 15 16  1  0
 15 17  1  0
 17 18  1  0
 17 19  1  0
 17 20  1  0
 20 21  1  0
 20 22  1  0
 20 23  1  0
 23 24  1  0
 23 25  1  0
 23 26  1  0
 26 27  1  0
 26 28  1  0
 26 29  1  0
 29 30  1  0
 29 31  1  0
  7 32  1  0
 32 33  1  0
 32 34  1  0
 32 35  1  0
 35 36  1  0
 35 37  1  0
  6 38  1  0
 38 39  1  0
 38 40  2  0
 40 41  1  0
 40  2  1  0
 35  7  1  0
 29 15  1  0
M  END
>  <cnnaffinity>  (1) 
-5.35456

>  <filename>  (1) 
O=C(NOC(=O)C1(c2cccnc2)CC1)C1CCCCC1

$$$$
