
     RDKit          3D

 35 37  0  0  0  0  0  0  0  0999 V2000
    4.9530    1.8144   16.9723 H   0  0  0  0  0  0  0  0  0  0  0  0
    5.3984    1.3035   17.8262 C   0  0  0  0  0  0  0  0  0  0  0  0
    6.5551    0.6639   17.5977 N   0  0  0  0  0  0  0  0  0  0  0  0
    7.1453    0.0405   18.6210 C   0  0  0  0  0  0  0  0  0  0  0  0
    8.0835   -0.4625   18.3910 H   0  0  0  0  0  0  0  0  0  0  0  0
    6.6180    0.0264   19.9215 C   0  0  0  0  0  0  0  0  0  0  0  0
    7.3398   -0.7032   20.9696 C   0  0  0  0  0  0  0  0  0  0  0  0
    8.0222   -1.8186   20.8280 N   0  0  0  0  0  0  0  0  0  0  0  0
    8.5268   -2.1142   22.0460 N   0  0  0  0  0  0  0  0  0  0  0  0
    8.2070   -1.2189   22.9090 N   0  0  0  0  0  0  0  0  0  0  0  0
    7.4497   -0.3084   22.2589 N   0  0  0  0  0  0  0  0  0  0  0  0
    7.1021    0.9420   22.8818 C   0  0  0  0  0  0  0  0  0  0  0  0
    7.0908    1.7474   22.1334 H   0  0  0  0  0  0  0  0  0  0  0  0
    7.8906    1.1689   23.6133 H   0  0  0  0  0  0  0  0  0  0  0  0
    5.7838    0.8688   23.5000 N   0  0  0  0  0  0  0  0  0  0  0  0
    5.4861   -0.0378   23.8308 H   0  0  0  0  0  0  0  0  0  0  0  0
    5.4166    1.9297   24.3016 C   0  0  0  0  0  0  0  0  0  0  0  0
    6.0445    2.9739   24.3298 O   0  0  0  0  0  0  0  0  0  0  0  0
    4.2718    1.6740   25.0090 N   0  0  0  0  0  0  0  0  0  0  0  0
    3.7994    0.8292   24.7502 H   0  0  0  0  0  0  0  0  0  0  0  0
    3.6333    2.5844   25.8849 C   0  0  0  0  0  0  0  0  0  0  0  0
    2.2348    2.6433   25.9556 C   0  0  0  0  0  0  0  0  0  0  0  0
    1.6371    1.9972   25.3205 H   0  0  0  0  0  0  0  0  0  0  0  0
    1.6160    3.5521   26.8257 C   0  0  0  0  0  0  0  0  0  0  0  0
    0.5284    3.6085   26.8682 H   0  0  0  0  0  0  0  0  0  0  0  0
    2.3917    4.3864   27.6391 C   0  0  0  0  0  0  0  0  0  0  0  0
    1.9135    5.0932   28.3108 H   0  0  0  0  0  0  0  0  0  0  0  0
    3.7882    4.3163   27.5781 C   0  0  0  0  0  0  0  0  0  0  0  0
    4.4003    4.9629   28.2071 H   0  0  0  0  0  0  0  0  0  0  0  0
    4.4066    3.4266   26.6972 C   0  0  0  0  0  0  0  0  0  0  0  0
    5.4826    3.3741   26.6020 H   0  0  0  0  0  0  0  0  0  0  0  0
    5.4059    0.6950   20.1468 C   0  0  0  0  0  0  0  0  0  0  0  0
    4.9633    0.7116   21.1416 H   0  0  0  0  0  0  0  0  0  0  0  0
    4.7801    1.3360   19.0784 C   0  0  0  0  0  0  0  0  0  0  0  0
    3.8430    1.8667   19.2027 H   0  0  0  0  0  0  0  0  0  0  0  0
  1  2  1  0
  2  3  2  0
  3  4  1  0
  4  5  1  0
  4  6  2  0
  6  7  1  0
  7  8  2  0
  8  9  1  0
  9 10  2  0
 10 11  1  0
 11 12  1  0
 12 13  1  0
 12 14  1  0
 12 15  1  0
 15 16  1  0
 15 17  1  0
 17 18  2  0
 17 19  1  0
 19 20  1  0
 19 21  1  0
 21 22  2  0
 22 23  1  0
 22 24  1  0
 24 25  1  0
 24 26  2  0
 26 27  1  0
 26 28  1  0
 28 29  1  0
 28 30  2  0
 30 31  1  0
  6 32  1  0
 32 33  1  0
 32 34  2  0
 34 35  1  0
 34  2  1  0
 11  7  1  0
 30 21  1  0
M  END
>  <cnnaffinity>  (1) 
-5.1482

>  <filename>  (1) 
O=C(NCn1nnnc1-c1cccnc1)Nc1ccccc1

$$$$
