
     RDKit          3D

 45 47  0  0  0  0  0  0  0  0999 V2000
    6.7939    1.4813   22.0453 H   0  0  0  0  0  0  0  0  0  0  0  0
    7.1447    0.4728   21.8317 C   0  0  0  0  0  0  0  0  0  0  0  0
    7.1258    0.0137   20.5730 C   0  0  0  0  0  0  0  0  0  0  0  0
    6.4927    0.7514   19.4439 C   0  0  0  0  0  0  0  0  0  0  0  0
    7.0542    0.6943   18.1510 C   0  0  0  0  0  0  0  0  0  0  0  0
    7.9802    0.1414   17.9916 H   0  0  0  0  0  0  0  0  0  0  0  0
    6.5301    1.2700   17.0631 N   0  0  0  0  0  0  0  0  0  0  0  0
    5.3813    1.9438   17.2257 C   0  0  0  0  0  0  0  0  0  0  0  0
    4.9717    2.4117   16.3337 H   0  0  0  0  0  0  0  0  0  0  0  0
    4.7247    2.0623   18.4568 C   0  0  0  0  0  0  0  0  0  0  0  0
    3.7947    2.6162   18.5165 H   0  0  0  0  0  0  0  0  0  0  0  0
    5.2955    1.4746   19.5866 C   0  0  0  0  0  0  0  0  0  0  0  0
    4.8208    1.5575   20.5677 H   0  0  0  0  0  0  0  0  0  0  0  0
    7.7606   -1.3331   20.2361 C   0  0  0  0  0  0  0  0  0  0  0  0
    7.2154   -1.7663   19.3948 H   0  0  0  0  0  0  0  0  0  0  0  0
    8.7941   -1.1675   19.8871 H   0  0  0  0  0  0  0  0  0  0  0  0
    7.7353   -2.3103   21.4176 C   0  0  0  0  0  0  0  0  0  0  0  0
    8.2957   -3.2222   21.1788 H   0  0  0  0  0  0  0  0  0  0  0  0
    6.7023   -2.6062   21.6322 H   0  0  0  0  0  0  0  0  0  0  0  0
    8.3157   -1.6575   22.6791 C   0  0  2  0  0  0  0  0  0  0  0  0
    9.3621   -1.3978   22.4718 H   0  0  0  0  0  0  0  0  0  0  0  0
    8.3570   -2.5818   23.8139 N   0  0  0  0  0  0  0  0  0  0  0  0
    9.2586   -2.9130   24.1008 H   0  0  0  0  0  0  0  0  0  0  0  0
    7.2903   -3.1723   24.4359 C   0  0  0  0  0  0  0  0  0  0  0  0
    6.1384   -2.8474   24.2138 O   0  0  0  0  0  0  0  0  0  0  0  0
    7.6783   -4.2908   25.4380 C   0  0  0  0  0  0  0  0  0  0  0  0
    6.7255   -4.6581   25.8298 H   0  0  0  0  0  0  0  0  0  0  0  0
    8.4632   -3.6874   26.6459 C   0  0  0  0  0  0  0  0  0  0  0  0
    7.7310   -3.2217   27.3170 H   0  0  0  0  0  0  0  0  0  0  0  0
    9.1287   -2.8741   26.3157 H   0  0  0  0  0  0  0  0  0  0  0  0
    9.2929   -4.7145   27.4269 C   0  0  0  0  0  0  0  0  0  0  0  0
    9.9313   -4.2081   28.1566 H   0  0  0  0  0  0  0  0  0  0  0  0
    8.6273   -5.3914   27.9935 H   0  0  0  0  0  0  0  0  0  0  0  0
   10.1811   -5.5179   26.4713 C   0  0  0  0  0  0  0  0  0  0  0  0
   10.8221   -4.8418   25.8834 H   0  0  0  0  0  0  0  0  0  0  0  0
   10.8793   -6.1389   27.0299 H   0  0  0  0  0  0  0  0  0  0  0  0
    9.3204   -6.3629   25.5300 C   0  0  0  0  0  0  0  0  0  0  0  0
    8.7830   -7.1189   26.1150 H   0  0  0  0  0  0  0  0  0  0  0  0
    9.9475   -6.9292   24.8307 H   0  0  0  0  0  0  0  0  0  0  0  0
    8.3569   -5.4963   24.7003 C   0  0  0  0  0  0  0  0  0  0  0  0
    7.5601   -6.1257   24.2740 H   0  0  0  0  0  0  0  0  0  0  0  0
    8.9460   -5.1203   23.8553 H   0  0  0  0  0  0  0  0  0  0  0  0
    7.5777   -0.3470   23.0346 C   0  0  0  0  0  0  0  0  0  0  0  0
    8.2241    0.2561   23.6842 H   0  0  0  0  0  0  0  0  0  0  0  0
    6.6933   -0.5945   23.6326 H   0  0  0  0  0  0  0  0  0  0  0  0
  1  2  1  0
  2  3  2  0
  3  4  1  0
  4  5  2  0
  5  6  1  0
  5  7  1  0
  7  8  2  0
  8  9  1  0
  8 10  1  0
 10 11  1  0
 10 12  2  0
 12 13  1  0
  3 14  1  0
 14 15  1  0
 14 16  1  0
 14 17  1  0
 17 18  1  0
 17 19  1  0
 17 20  1  0
 20 21  1  6
 20 22  1  0
 22 23  1  0
 22 24  1  0
 24 25  2  0
 24 26  1  0
 26 27  1  0
 26 28  1  0
 28 29  1  0
 28 30  1  0
 28 31  1  0
 31 32  1  0
 31 33  1  0
 31 34  1  0
 34 35  1  0
 34 36  1  0
 34 37  1  0
 37 38  1  0
 37 39  1  0
 37 40  1  0
 40 41  1  0
 40 42  1  0
 20 43  1  0
 43 44  1  0
 43 45  1  0
 43  2  1  0
 12  4  1  0
 40 26  1  0
M  END
>  <cnnaffinity>  (1) 
-5.20407

>  <filename>  (1) 
O=C(N[C@@H]1CC=C(c2cccnc2)CC1)C1CCCCC1

$$$$
