
     RDKit          3D

 32 34  0  0  0  0  0  0  0  0999 V2000
    5.0499    1.8917   16.7085 H   0  0  0  0  0  0  0  0  0  0  0  0
    5.4038    1.3709   17.5969 C   0  0  0  0  0  0  0  0  0  0  0  0
    6.5496    0.6839   17.4633 N   0  0  0  0  0  0  0  0  0  0  0  0
    7.0238    0.0601   18.5462 C   0  0  0  0  0  0  0  0  0  0  0  0
    7.9602   -0.4875   18.4363 H   0  0  0  0  0  0  0  0  0  0  0  0
    6.3756    0.0844   19.7841 C   0  0  0  0  0  0  0  0  0  0  0  0
    7.0385   -0.6340   20.8918 C   0  0  0  0  0  0  0  0  0  0  0  0
    7.9379   -1.4210   20.7682 O   0  0  0  0  0  0  0  0  0  0  0  0
    6.4521   -0.2508   22.0977 O   0  0  0  0  0  0  0  0  0  0  0  0
    6.9870   -0.6633   23.3423 N   0  0  0  0  0  0  0  0  0  0  0  0
    6.6412   -1.6045   23.5120 H   0  0  0  0  0  0  0  0  0  0  0  0
    8.4008   -0.6429   23.3965 C   0  0  0  0  0  0  0  0  0  0  0  0
    9.0683   -1.8121   23.6851 C   0  0  0  0  0  0  0  0  0  0  0  0
    8.4931   -2.6865   23.9655 H   0  0  0  0  0  0  0  0  0  0  0  0
   10.4725   -1.8867   23.5430 C   0  0  0  0  0  0  0  0  0  0  0  0
   10.9575   -2.8450   23.7072 H   0  0  0  0  0  0  0  0  0  0  0  0
   11.2028   -0.7635   23.2224 C   0  0  0  0  0  0  0  0  0  0  0  0
   12.2840   -0.8059   23.1206 H   0  0  0  0  0  0  0  0  0  0  0  0
   10.5536    0.4950   23.0403 C   0  0  0  0  0  0  0  0  0  0  0  0
   11.2718    1.7145   22.8142 C   0  0  0  0  0  0  0  0  0  0  0  0
   12.3601    1.6998   22.8059 H   0  0  0  0  0  0  0  0  0  0  0  0
   10.5975    2.9028   22.6295 C   0  0  0  0  0  0  0  0  0  0  0  0
   11.1440    3.8296   22.4653 H   0  0  0  0  0  0  0  0  0  0  0  0
    9.1771    2.9428   22.6651 C   0  0  0  0  0  0  0  0  0  0  0  0
    8.6550    3.8848   22.5117 H   0  0  0  0  0  0  0  0  0  0  0  0
    8.4536    1.7988   22.8988 C   0  0  0  0  0  0  0  0  0  0  0  0
    7.3685    1.8095   22.9596 H   0  0  0  0  0  0  0  0  0  0  0  0
    9.1226    0.5532   23.1023 C   0  0  0  0  0  0  0  0  0  0  0  0
    5.1698    0.7852   19.9192 C   0  0  0  0  0  0  0  0  0  0  0  0
    4.6523    0.8124   20.8781 H   0  0  0  0  0  0  0  0  0  0  0  0
    4.6777    1.4420   18.7923 C   0  0  0  0  0  0  0  0  0  0  0  0
    3.7604    2.0183   18.8393 H   0  0  0  0  0  0  0  0  0  0  0  0
  1  2  1  0
  2  3  2  0
  3  4  1  0
  4  5  1  0
  4  6  2  0
  6  7  1  0
  7  8  2  0
  7  9  1  0
  9 10  1  0
 10 11  1  0
 10 12  1  0
 12 13  2  0
 13 14  1  0
 13 15  1  0
 15 16  1  0
 15 17  2  0
 17 18  1  0
 17 19  1  0
 19 20  2  0
 20 21  1  0
 20 22  1  0
 22 23  1  0
 22 24  2  0
 24 25  1  0
 24 26  1  0
 26 27  1  0
 26 28  2  0
  6 29  1  0
 29 30  1  0
 29 31  2  0
 31 32  1  0
 31  2  1  0
 28 12  1  0
 28 19  1  0
M  END
>  <cnnaffinity>  (1) 
-5.15627

>  <filename>  (1) 
O=C(ONc1cccc2ccccc12)c1cccnc1

$$$$
