
     RDKit          3D

 31 33  0  0  0  0  0  0  0  0999 V2000
    4.9116    1.8096   16.9706 H   0  0  0  0  0  0  0  0  0  0  0  0
    5.3837    1.3086   17.8148 C   0  0  0  0  0  0  0  0  0  0  0  0
    6.5472    0.6913   17.5509 N   0  0  0  0  0  0  0  0  0  0  0  0
    7.1574    0.0694   18.5663 C   0  0  0  0  0  0  0  0  0  0  0  0
    8.1137   -0.3955   18.3260 H   0  0  0  0  0  0  0  0  0  0  0  0
    6.6527    0.0170   19.8824 C   0  0  0  0  0  0  0  0  0  0  0  0
    7.3781   -0.6537   20.9724 C   0  0  0  0  0  0  0  0  0  0  0  0
    7.5372   -0.3250   22.3067 C   0  0  0  0  0  0  0  0  0  0  0  0
    7.0365    0.8342   22.9382 N   0  0  0  0  0  0  0  0  0  0  0  0
    6.9544    1.6582   22.3664 H   0  0  0  0  0  0  0  0  0  0  0  0
    6.8018    0.9445   24.2854 C   0  0  0  0  0  0  0  0  0  0  0  0
    7.0137    0.0199   25.0515 O   0  0  0  0  0  0  0  0  0  0  0  0
    6.2795    2.3038   24.7708 C   0  0  0  0  0  0  0  0  0  0  0  0
    5.5169    3.2129   24.0053 C   0  0  0  0  0  0  0  0  0  0  0  0
    5.2312    3.0308   22.9755 H   0  0  0  0  0  0  0  0  0  0  0  0
    5.0500    4.3991   24.5877 C   0  0  0  0  0  0  0  0  0  0  0  0
    4.4606    5.1042   24.0055 H   0  0  0  0  0  0  0  0  0  0  0  0
    5.2809    4.7461   25.8590 N   0  0  0  0  0  0  0  0  0  0  0  0
    6.0026    3.8928   26.5966 C   0  0  0  0  0  0  0  0  0  0  0  0
    6.1723    4.1855   27.6304 H   0  0  0  0  0  0  0  0  0  0  0  0
    6.5105    2.6835   26.1092 C   0  0  0  0  0  0  0  0  0  0  0  0
    7.0559    2.0318   26.7823 H   0  0  0  0  0  0  0  0  0  0  0  0
    8.3000   -1.3847   22.8692 C   0  0  0  0  0  0  0  0  0  0  0  0
    8.6104   -1.4810   23.9024 H   0  0  0  0  0  0  0  0  0  0  0  0
    8.5992   -2.2970   21.9521 N   0  0  0  0  0  0  0  0  0  0  0  0
    8.0441   -1.8327   20.8219 N   0  0  0  0  0  0  0  0  0  0  0  0
    8.1054   -2.3815   19.9739 H   0  0  0  0  0  0  0  0  0  0  0  0
    5.4293    0.6577   20.1296 C   0  0  0  0  0  0  0  0  0  0  0  0
    5.0068    0.6155   21.1325 H   0  0  0  0  0  0  0  0  0  0  0  0
    4.7882    1.3188   19.0820 C   0  0  0  0  0  0  0  0  0  0  0  0
    3.8572    1.8512   19.2335 H   0  0  0  0  0  0  0  0  0  0  0  0
  1  2  1  0
  2  3  2  0
  3  4  1  0
  4  5  1  0
  4  6  2  0
  6  7  1  0
  7  8  2  0
  8  9  1  0
  9 10  1  0
  9 11  1  0
 11 12  2  0
 11 13  1  0
 13 14  2  0
 14 15  1  0
 14 16  1  0
 16 17  1  0
 16 18  2  0
 18 19  1  0
 19 20  1  0
 19 21  2  0
 21 22  1  0
  8 23  1  0
 23 24  1  0
 23 25  2  0
 25 26  1  0
 26 27  1  0
  6 28  1  0
 28 29  1  0
 28 30  2  0
 30 31  1  0
 30  2  1  0
 26  7  1  0
 21 13  1  0
M  END
>  <cnnaffinity>  (1) 
-5.10858

>  <filename>  (1) 
O=C(Nc1cn[nH]c1-c1cccnc1)c1ccncc1

$$$$
