
     RDKit          3D

 30 32  0  0  0  0  0  0  0  0999 V2000
    4.9362    1.7705   17.0035 H   0  0  0  0  0  0  0  0  0  0  0  0
    5.4112    1.2818   17.8556 C   0  0  0  0  0  0  0  0  0  0  0  0
    6.5742    0.6596   17.6218 N   0  0  0  0  0  0  0  0  0  0  0  0
    7.1742    0.0447   18.6487 C   0  0  0  0  0  0  0  0  0  0  0  0
    8.1174   -0.4335   18.4077 H   0  0  0  0  0  0  0  0  0  0  0  0
    6.6461   -0.0000   19.9483 C   0  0  0  0  0  0  0  0  0  0  0  0
    7.4282   -0.7401   20.9927 C   0  0  0  0  0  0  0  0  0  0  0  0
    8.4822   -1.2867   20.7751 O   0  0  0  0  0  0  0  0  0  0  0  0
    6.8347   -0.7200   22.2127 O   0  0  0  0  0  0  0  0  0  0  0  0
    7.4401   -1.4132   23.3067 C   0  0  0  0  0  0  0  0  0  0  0  0
    7.3549   -2.9075   23.2819 C   0  0  0  0  0  0  0  0  0  0  0  0
    8.4539   -3.6991   22.9249 C   0  0  0  0  0  0  0  0  0  0  0  0
    9.3923   -3.2259   22.6499 H   0  0  0  0  0  0  0  0  0  0  0  0
    8.4395   -5.0419   22.8899 N   0  0  0  0  0  0  0  0  0  0  0  0
    7.3008   -5.6555   23.2309 C   0  0  0  0  0  0  0  0  0  0  0  0
    7.2802   -6.7410   23.1872 H   0  0  0  0  0  0  0  0  0  0  0  0
    6.1561   -4.9477   23.6153 C   0  0  0  0  0  0  0  0  0  0  0  0
    5.0435   -5.6207   23.9394 F   0  0  0  0  0  0  0  0  0  0  0  0
    6.1630   -3.5618   23.6541 C   0  0  0  0  0  0  0  0  0  0  0  0
    5.2745   -3.0142   23.9667 H   0  0  0  0  0  0  0  0  0  0  0  0
    7.2160   -0.7442   24.6334 C   0  0  0  0  0  0  0  0  0  0  0  0
    7.1006   -1.3716   25.5125 H   0  0  0  0  0  0  0  0  0  0  0  0
    6.6425    0.1753   24.6711 H   0  0  0  0  0  0  0  0  0  0  0  0
    8.5753   -0.7168   23.9953 C   0  0  0  0  0  0  0  0  0  0  0  0
    9.3636   -1.3157   24.4461 H   0  0  0  0  0  0  0  0  0  0  0  0
    8.8939    0.2329   23.5839 H   0  0  0  0  0  0  0  0  0  0  0  0
    5.4239    0.6540   20.1823 C   0  0  0  0  0  0  0  0  0  0  0  0
    4.9791    0.6464   21.1798 H   0  0  0  0  0  0  0  0  0  0  0  0
    4.8047    1.3075   19.1167 C   0  0  0  0  0  0  0  0  0  0  0  0
    3.8727    1.8446   19.2546 H   0  0  0  0  0  0  0  0  0  0  0  0
  1  2  1  0
  2  3  2  0
  3  4  1  0
  4  5  1  0
  4  6  2  0
  6  7  1  0
  7  8  2  0
  7  9  1  0
  9 10  1  0
 10 11  1  0
 11 12  2  0
 12 13  1  0
 12 14  1  0
 14 15  2  0
 15 16  1  0
 15 17  1  0
 17 18  1  0
 17 19  2  0
 19 20  1  0
 10 21  1  0
 21 22  1  0
 21 23  1  0
 21 24  1  0
 24 25  1  0
 24 26  1  0
  6 27  1  0
 27 28  1  0
 27 29  2  0
 29 30  1  0
 29  2  1  0
 24 10  1  0
 19 11  1  0
M  END
>  <cnnaffinity>  (1) 
-4.92237

>  <filename>  (1) 
O=C(OC1(c2cncc(F)c2)CC1)c1cccnc1

$$$$
