
     RDKit          3D

 38 39  0  0  0  0  0  0  0  0999 V2000
    9.9329   -2.8007   21.8530 O   0  0  0  0  0  0  0  0  0  0  0  0
    8.9118   -2.1966   22.1335 C   0  0  0  0  0  0  0  0  0  0  0  0
    8.1837   -1.4610   21.0666 C   0  0  0  0  0  0  0  0  0  0  0  0
    7.2363   -0.5226   21.1295 C   0  0  0  0  0  0  0  0  0  0  0  0
    6.5879    0.0865   19.9513 C   0  0  0  0  0  0  0  0  0  0  0  0
    5.3627    0.7508   20.1377 C   0  0  0  0  0  0  0  0  0  0  0  0
    4.7492    1.3631   19.0502 C   0  0  0  0  0  0  0  0  0  0  0  0
    5.3891    1.3029   17.8089 C   0  0  0  0  0  0  0  0  0  0  0  0
    6.5466    0.6609   17.5945 N   0  0  0  0  0  0  0  0  0  0  0  0
    7.1241    0.0645   18.6446 C   0  0  0  0  0  0  0  0  0  0  0  0
    8.0762   -0.4266   18.4317 H   0  0  0  0  0  0  0  0  0  0  0  0
    4.9593    1.7944   16.9439 H   0  0  0  0  0  0  0  0  0  0  0  0
    3.8120    1.8960   19.1525 H   0  0  0  0  0  0  0  0  0  0  0  0
    4.9062    0.7794   21.1284 H   0  0  0  0  0  0  0  0  0  0  0  0
    6.8344   -0.1285   22.0704 H   0  0  0  0  0  0  0  0  0  0  0  0
    8.5380   -1.7899   20.0992 H   0  0  0  0  0  0  0  0  0  0  0  0
    8.4024   -2.1890   23.3958 N   0  0  0  0  0  0  0  0  0  0  0  0
    9.0381   -2.9362   24.4668 C   0  0  0  0  0  0  0  0  0  0  0  0
    8.6779   -4.4346   24.4992 C   0  0  0  0  0  0  0  0  0  0  0  0
    7.2200   -4.6975   24.7983 C   0  0  0  0  0  0  0  0  0  0  0  0
    6.2944   -4.6300   23.7452 C   0  0  0  0  0  0  0  0  0  0  0  0
    4.9258   -4.7696   23.9757 C   0  0  0  0  0  0  0  0  0  0  0  0
    4.4646   -4.9892   25.2747 C   0  0  0  0  0  0  0  0  0  0  0  0
    5.3672   -5.0714   26.3352 C   0  0  0  0  0  0  0  0  0  0  0  0
    6.7456   -4.9318   26.1053 C   0  0  0  0  0  0  0  0  0  0  0  0
    7.7298   -5.0363   27.2508 C   0  0  0  0  0  0  0  0  0  0  0  0
    8.5418   -3.9521   27.3125 F   0  0  0  0  0  0  0  0  0  0  0  0
    8.5417   -6.1066   27.1167 F   0  0  0  0  0  0  0  0  0  0  0  0
    7.1456   -5.1410   28.4556 F   0  0  0  0  0  0  0  0  0  0  0  0
    5.0010   -5.2307   27.3475 H   0  0  0  0  0  0  0  0  0  0  0  0
    3.4016   -5.0896   25.4673 H   0  0  0  0  0  0  0  0  0  0  0  0
    4.2236   -4.6946   23.1517 H   0  0  0  0  0  0  0  0  0  0  0  0
    6.6627   -4.4413   22.7392 H   0  0  0  0  0  0  0  0  0  0  0  0
    9.3359   -4.9406   25.2093 H   0  0  0  0  0  0  0  0  0  0  0  0
    8.9281   -4.8378   23.5118 H   0  0  0  0  0  0  0  0  0  0  0  0
   10.1138   -2.8707   24.2843 H   0  0  0  0  0  0  0  0  0  0  0  0
    8.8444   -2.4565   25.4314 H   0  0  0  0  0  0  0  0  0  0  0  0
    7.4870   -1.7933   23.5230 H   0  0  0  0  0  0  0  0  0  0  0  0
  1  2  2  0
  2  3  1  0
  3  4  2  3
  4  5  1  0
  5  6  2  0
  6  7  1  0
  7  8  2  0
  8  9  1  0
  9 10  2  0
 10 11  1  0
  8 12  1  0
  7 13  1  0
  6 14  1  0
  4 15  1  0
  3 16  1  0
  2 17  1  0
 17 18  1  0
 18 19  1  0
 19 20  1  0
 20 21  2  0
 21 22  1  0
 22 23  2  0
 23 24  1  0
 24 25  2  0
 25 26  1  0
 26 27  1  0
 26 28  1  0
 26 29  1  0
 24 30  1  0
 23 31  1  0
 22 32  1  0
 21 33  1  0
 19 34  1  0
 19 35  1  0
 18 36  1  0
 18 37  1  0
 17 38  1  0
 10  5  1  0
 25 20  1  0
M  END
>  <cnnaffinity>  (1) 
-5.23994

>  <filename>  (1) 
O=C(C=Cc1cccnc1)NCCc1ccccc1C(F)(F)F

$$$$
