
     RDKit          3D

 26 27  0  0  0  0  0  0  0  0999 V2000
    4.9334    1.7819   16.9929 H   0  0  0  0  0  0  0  0  0  0  0  0
    5.4026    1.2876   17.8408 C   0  0  0  0  0  0  0  0  0  0  0  0
    6.5636    0.6658   17.5885 N   0  0  0  0  0  0  0  0  0  0  0  0
    7.1737    0.0620   18.6095 C   0  0  0  0  0  0  0  0  0  0  0  0
    8.1228   -0.4166   18.3818 H   0  0  0  0  0  0  0  0  0  0  0  0
    6.6473    0.0190   19.9063 C   0  0  0  0  0  0  0  0  0  0  0  0
    7.4495   -0.6854   20.9453 C   0  0  0  0  0  0  0  0  0  0  0  0
    8.6530   -0.7697   20.8495 O   0  0  0  0  0  0  0  0  0  0  0  0
    6.6918   -1.2940   22.1267 C   0  0  0  0  0  0  0  0  0  0  0  0
    6.6688   -0.5513   22.9320 H   0  0  0  0  0  0  0  0  0  0  0  0
    5.6642   -1.4917   21.8121 H   0  0  0  0  0  0  0  0  0  0  0  0
    7.3225   -2.5681   22.6186 C   0  0  0  0  0  0  0  0  0  0  0  0
    8.1704   -2.5534   23.7285 C   0  0  0  0  0  0  0  0  0  0  0  0
    8.3155   -1.6077   24.2402 H   0  0  0  0  0  0  0  0  0  0  0  0
    8.8286   -3.7050   24.1609 C   0  0  0  0  0  0  0  0  0  0  0  0
    9.4727   -3.6743   25.0352 H   0  0  0  0  0  0  0  0  0  0  0  0
    8.6393   -4.9026   23.4751 C   0  0  0  0  0  0  0  0  0  0  0  0
    9.1129   -5.8251   23.7966 H   0  0  0  0  0  0  0  0  0  0  0  0
    7.7965   -4.9356   22.3593 C   0  0  0  0  0  0  0  0  0  0  0  0
    7.4804   -6.4408   21.5836 Cl  0  0  0  0  0  0  0  0  0  0  0  0
    7.1542   -3.7698   21.9164 C   0  0  0  0  0  0  0  0  0  0  0  0
    6.1396   -3.8298   20.5052 Cl  0  0  0  0  0  0  0  0  0  0  0  0
    5.4207    0.6538   20.1623 C   0  0  0  0  0  0  0  0  0  0  0  0
    4.9842    0.6534   21.1640 H   0  0  0  0  0  0  0  0  0  0  0  0
    4.8004    1.3124   19.1023 C   0  0  0  0  0  0  0  0  0  0  0  0
    3.8701    1.8458   19.2464 H   0  0  0  0  0  0  0  0  0  0  0  0
  1  2  1  0
  2  3  2  0
  3  4  1  0
  4  5  1  0
  4  6  2  0
  6  7  1  0
  7  8  2  0
  7  9  1  0
  9 10  1  0
  9 11  1  0
  9 12  1  0
 12 13  2  0
 13 14  1  0
 13 15  1  0
 15 16  1  0
 15 17  2  0
 17 18  1  0
 17 19  1  0
 19 20  1  0
 19 21  2  0
 21 22  1  0
  6 23  1  0
 23 24  1  0
 23 25  2  0
 25 26  1  0
 25  2  1  0
 21 12  1  0
M  END
>  <cnnaffinity>  (1) 
-4.91341

>  <filename>  (1) 
O=C(Cc1cccc(Cl)c1Cl)c1cccnc1

$$$$
