
     RDKit          3D

 42 45  0  0  0  0  0  0  0  0999 V2000
    4.9269    1.8008   16.9858 H   0  0  0  0  0  0  0  0  0  0  0  0
    5.3830    1.2986   17.8340 C   0  0  0  0  0  0  0  0  0  0  0  0
    6.5462    0.6745   17.5873 N   0  0  0  0  0  0  0  0  0  0  0  0
    7.1590    0.0900   18.6212 C   0  0  0  0  0  0  0  0  0  0  0  0
    8.1027   -0.3951   18.3694 H   0  0  0  0  0  0  0  0  0  0  0  0
    6.6673    0.0783   19.9546 C   0  0  0  0  0  0  0  0  0  0  0  0
    7.4188   -0.5814   21.0499 C   0  0  0  0  0  0  0  0  0  0  0  0
    8.3339   -1.6139   20.9918 C   0  0  0  0  0  0  0  0  0  0  0  0
    8.7188   -2.0870   20.1033 H   0  0  0  0  0  0  0  0  0  0  0  0
    8.7705   -2.0351   22.2147 N   0  0  0  0  0  0  0  0  0  0  0  0
    8.1408   -1.2371   23.0370 C   0  0  0  0  0  0  0  0  0  0  0  0
    8.2263   -0.9516   24.7350 S   0  0  0  0  0  0  0  0  0  0  0  0
    7.1605    0.4026   24.4344 C   0  0  0  0  0  0  0  0  0  0  0  0
    6.7594    1.2575   25.4232 N   0  0  0  0  0  0  0  0  0  0  0  0
    6.1476    1.9828   25.0977 H   0  0  0  0  0  0  0  0  0  0  0  0
    7.0754    1.1048   26.7608 C   0  0  0  0  0  0  0  0  0  0  0  0
    7.7462    0.1688   27.1577 O   0  0  0  0  0  0  0  0  0  0  0  0
    6.5956    2.0854   27.5634 N   0  0  0  0  0  0  0  0  0  0  0  0
    6.0095    2.7754   27.1354 H   0  0  0  0  0  0  0  0  0  0  0  0
    6.8255    2.0341   29.0137 C   0  0  0  0  0  0  0  0  0  0  0  0
    7.8816    1.7594   29.1564 H   0  0  0  0  0  0  0  0  0  0  0  0
    6.5776    3.3972   29.6668 C   0  0  0  0  0  0  0  0  0  0  0  0
    5.5383    3.6919   29.4648 H   0  0  0  0  0  0  0  0  0  0  0  0
    7.2213    4.1539   29.2058 H   0  0  0  0  0  0  0  0  0  0  0  0
    6.7942    3.3658   31.1949 C   0  0  0  0  0  0  0  0  0  0  0  0
    6.5617    4.3463   31.6336 H   0  0  0  0  0  0  0  0  0  0  0  0
    7.8568    3.1737   31.4090 H   0  0  0  0  0  0  0  0  0  0  0  0
    5.9501    2.2697   31.8682 C   0  0  0  0  0  0  0  0  0  0  0  0
    6.1698    2.2232   32.9429 H   0  0  0  0  0  0  0  0  0  0  0  0
    4.8837    2.5264   31.7858 H   0  0  0  0  0  0  0  0  0  0  0  0
    6.1945    0.8990   31.2169 C   0  0  0  0  0  0  0  0  0  0  0  0
    7.2291    0.5843   31.4215 H   0  0  0  0  0  0  0  0  0  0  0  0
    5.5459    0.1348   31.6668 H   0  0  0  0  0  0  0  0  0  0  0  0
    5.9738    0.9448   29.6964 C   0  0  0  0  0  0  0  0  0  0  0  0
    4.9160    1.1489   29.4849 H   0  0  0  0  0  0  0  0  0  0  0  0
    6.2088   -0.0195   29.2380 H   0  0  0  0  0  0  0  0  0  0  0  0
    6.7461    0.6158   23.2218 N   0  0  0  0  0  0  0  0  0  0  0  0
    7.3009   -0.3526   22.4228 N   0  0  0  0  0  0  0  0  0  0  0  0
    5.4206    0.7015   20.1647 C   0  0  0  0  0  0  0  0  0  0  0  0
    4.9744    0.6955   21.1561 H   0  0  0  0  0  0  0  0  0  0  0  0
    4.7771    1.3250   19.0925 C   0  0  0  0  0  0  0  0  0  0  0  0
    3.8332    1.8515   19.2161 H   0  0  0  0  0  0  0  0  0  0  0  0
  1  2  1  0
  2  3  2  0
  3  4  1  0
  4  5  1  0
  4  6  2  0
  6  7  1  0
  7  8  2  0
  8  9  1  0
  8 10  1  0
 10 11  2  0
 11 12  1  0
 12 13  1  0
 13 14  1  0
 14 15  1  0
 14 16  1  0
 16 17  2  0
 16 18  1  0
 18 19  1  0
 18 20  1  0
 20 21  1  0
 20 22  1  0
 22 23  1  0
 22 24  1  0
 22 25  1  0
 25 26  1  0
 25 27  1  0
 25 28  1  0
 28 29  1  0
 28 30  1  0
 28 31  1  0
 31 32  1  0
 31 33  1  0
 31 34  1  0
 34 35  1  0
 34 36  1  0
 13 37  2  0
 37 38  1  0
  6 39  1  0
 39 40  1  0
 39 41  2  0
 41 42  1  0
 41  2  1  0
 38  7  1  0
 38 11  1  0
 34 20  1  0
M  END
>  <cnnaffinity>  (1) 
-5.18481

>  <filename>  (1) 
O=C(Nc1nn2c(-c3cccnc3)cnc2s1)NC1CCCCC1

$$$$
