
     RDKit          3D

 40 43  0  0  0  0  0  0  0  0999 V2000
    4.9303    1.7747   17.0001 H   0  0  0  0  0  0  0  0  0  0  0  0
    5.4075    1.2866   17.8462 C   0  0  0  0  0  0  0  0  0  0  0  0
    6.5709    0.6672   17.5973 N   0  0  0  0  0  0  0  0  0  0  0  0
    7.1758    0.0540   18.6179 C   0  0  0  0  0  0  0  0  0  0  0  0
    8.1224   -0.4272   18.3745 H   0  0  0  0  0  0  0  0  0  0  0  0
    6.6495    0.0105   19.9202 C   0  0  0  0  0  0  0  0  0  0  0  0
    7.3474   -0.6908   21.0088 C   0  0  0  0  0  0  0  0  0  0  0  0
    6.8707   -0.7432   22.2108 N   0  0  0  0  0  0  0  0  0  0  0  0
    7.7121   -1.4527   23.0001 N   0  0  0  0  0  0  0  0  0  0  0  0
    7.7350   -1.8696   24.3249 C   0  0  0  0  0  0  0  0  0  0  0  0
    6.7228   -1.5924   25.2595 N   0  0  0  0  0  0  0  0  0  0  0  0
    5.8628   -1.2091   24.9002 H   0  0  0  0  0  0  0  0  0  0  0  0
    6.8551   -1.7985   26.6249 C   0  0  0  0  0  0  0  0  0  0  0  0
    7.9376   -2.0700   27.1120 O   0  0  0  0  0  0  0  0  0  0  0  0
    5.5964   -1.6866   27.4868 C   0  0  0  0  0  0  0  0  0  0  0  0
    5.9340   -1.9782   28.4833 H   0  0  0  0  0  0  0  0  0  0  0  0
    5.0876   -0.2387   27.5983 C   0  0  0  0  0  0  0  0  0  0  0  0
    5.8879    0.4155   27.9686 H   0  0  0  0  0  0  0  0  0  0  0  0
    4.8234    0.1196   26.5964 H   0  0  0  0  0  0  0  0  0  0  0  0
    3.8607   -0.1416   28.5124 C   0  0  0  0  0  0  0  0  0  0  0  0
    4.1583   -0.3682   29.5457 H   0  0  0  0  0  0  0  0  0  0  0  0
    3.4871    0.8883   28.5196 H   0  0  0  0  0  0  0  0  0  0  0  0
    2.7532   -1.1131   28.0831 C   0  0  0  0  0  0  0  0  0  0  0  0
    2.3810   -0.8128   27.0943 H   0  0  0  0  0  0  0  0  0  0  0  0
    1.8997   -1.0461   28.7674 H   0  0  0  0  0  0  0  0  0  0  0  0
    3.2634   -2.5581   28.0037 C   0  0  0  0  0  0  0  0  0  0  0  0
    2.4690   -3.2272   27.6531 H   0  0  0  0  0  0  0  0  0  0  0  0
    3.5323   -2.9019   29.0123 H   0  0  0  0  0  0  0  0  0  0  0  0
    4.4841   -2.6765   27.0835 C   0  0  0  0  0  0  0  0  0  0  0  0
    4.1799   -2.4664   26.0510 H   0  0  0  0  0  0  0  0  0  0  0  0
    4.8682   -3.7056   27.0920 H   0  0  0  0  0  0  0  0  0  0  0  0
    8.8921   -2.6110   24.4186 C   0  0  0  0  0  0  0  0  0  0  0  0
    9.2334   -3.1047   25.3172 H   0  0  0  0  0  0  0  0  0  0  0  0
    9.5760   -2.6665   23.2322 N   0  0  0  0  0  0  0  0  0  0  0  0
    8.8376   -1.9639   22.4198 C   0  0  0  0  0  0  0  0  0  0  0  0
    8.8892   -1.5216   20.7548 S   0  0  0  0  0  0  0  0  0  0  0  0
    5.4251    0.6584   20.1669 C   0  0  0  0  0  0  0  0  0  0  0  0
    4.9958    0.6385   21.1716 H   0  0  0  0  0  0  0  0  0  0  0  0
    4.8033    1.3110   19.1069 C   0  0  0  0  0  0  0  0  0  0  0  0
    3.8733    1.8444   19.2541 H   0  0  0  0  0  0  0  0  0  0  0  0
  1  2  1  0
  2  3  2  0
  3  4  1  0
  4  5  1  0
  4  6  2  0
  6  7  1  0
  7  8  2  0
  8  9  1  0
  9 10  1  0
 10 11  1  0
 11 12  1  0
 11 13  1  0
 13 14  2  0
 13 15  1  0
 15 16  1  0
 15 17  1  0
 17 18  1  0
 17 19  1  0
 17 20  1  0
 20 21  1  0
 20 22  1  0
 20 23  1  0
 23 24  1  0
 23 25  1  0
 23 26  1  0
 26 27  1  0
 26 28  1  0
 26 29  1  0
 29 30  1  0
 29 31  1  0
 10 32  2  0
 32 33  1  0
 32 34  1  0
 34 35  2  0
 35 36  1  0
  6 37  1  0
 37 38  1  0
 37 39  2  0
 39 40  1  0
 39  2  1  0
 36  7  1  0
 35  9  1  0
 29 15  1  0
M  END
>  <cnnaffinity>  (1) 
-5.52095

>  <filename>  (1) 
O=C(Nc1cnc2sc(-c3cccnc3)nn12)C1CCCCC1

$$$$
