
     RDKit          3D

 34 36  0  0  0  0  0  0  0  0999 V2000
    4.9405    1.8188   16.9944 H   0  0  0  0  0  0  0  0  0  0  0  0
    5.3877    1.2911   17.8370 C   0  0  0  0  0  0  0  0  0  0  0  0
    6.5417    0.6515   17.5858 N   0  0  0  0  0  0  0  0  0  0  0  0
    7.1371    0.0011   18.5923 C   0  0  0  0  0  0  0  0  0  0  0  0
    8.1075   -0.4445   18.3764 H   0  0  0  0  0  0  0  0  0  0  0  0
    6.5887   -0.0895   19.8916 C   0  0  0  0  0  0  0  0  0  0  0  0
    7.2776   -0.7835   20.9616 N   0  0  0  0  0  0  0  0  0  0  0  0
    6.8513   -1.8014   21.8125 C   0  0  0  0  0  0  0  0  0  0  0  0
    5.6159   -2.3796   21.7163 N   0  0  0  0  0  0  0  0  0  0  0  0
    5.0469   -2.1861   20.9160 H   0  0  0  0  0  0  0  0  0  0  0  0
    5.1880   -3.3141   22.6561 C   0  0  0  0  0  0  0  0  0  0  0  0
    5.7559   -3.5805   23.6810 O   0  0  0  0  0  0  0  0  0  0  0  0
    4.0246   -3.9210   22.2246 N   0  0  0  0  0  0  0  0  0  0  0  0
    3.4648   -3.3141   21.6517 H   0  0  0  0  0  0  0  0  0  0  0  0
    3.3578   -4.9168   22.9916 C   0  0  0  0  0  0  0  0  0  0  0  0
    1.9708   -4.8922   23.1970 C   0  0  0  0  0  0  0  0  0  0  0  0
    1.3445   -4.0899   22.8205 H   0  0  0  0  0  0  0  0  0  0  0  0
    1.3639   -5.9004   23.9539 C   0  0  0  0  0  0  0  0  0  0  0  0
    0.2917   -5.8610   24.1315 H   0  0  0  0  0  0  0  0  0  0  0  0
    2.1230   -6.9447   24.4888 C   0  0  0  0  0  0  0  0  0  0  0  0
    1.6439   -7.7367   25.0571 H   0  0  0  0  0  0  0  0  0  0  0  0
    3.5076   -6.9676   24.2846 C   0  0  0  0  0  0  0  0  0  0  0  0
    4.1200   -7.7586   24.7117 H   0  0  0  0  0  0  0  0  0  0  0  0
    4.1237   -5.9518   23.5537 C   0  0  0  0  0  0  0  0  0  0  0  0
    5.2003   -5.9079   23.4453 H   0  0  0  0  0  0  0  0  0  0  0  0
    7.7570   -2.1584   22.6727 N   0  0  0  0  0  0  0  0  0  0  0  0
    8.7835   -1.3143   22.3754 N   0  0  0  0  0  0  0  0  0  0  0  0
    9.6551   -1.3138   22.8724 H   0  0  0  0  0  0  0  0  0  0  0  0
    8.5638   -0.4522   21.3797 C   0  0  0  0  0  0  0  0  0  0  0  0
    9.6166    0.7053   20.8268 S   0  0  0  0  0  0  0  0  0  0  0  0
    5.4050    0.6091   20.1485 C   0  0  0  0  0  0  0  0  0  0  0  0
    5.0212    0.6358   21.1683 H   0  0  0  0  0  0  0  0  0  0  0  0
    4.7837    1.3044   19.0979 C   0  0  0  0  0  0  0  0  0  0  0  0
    3.8680    1.8701   19.2484 H   0  0  0  0  0  0  0  0  0  0  0  0
  1  2  1  0
  2  3  2  0
  3  4  1  0
  4  5  1  0
  4  6  2  0
  6  7  1  0
  7  8  1  0
  8  9  1  0
  9 10  1  0
  9 11  1  0
 11 12  2  0
 11 13  1  0
 13 14  1  0
 13 15  1  0
 15 16  2  0
 16 17  1  0
 16 18  1  0
 18 19  1  0
 18 20  2  0
 20 21  1  0
 20 22  1  0
 22 23  1  0
 22 24  2  0
 24 25  1  0
  8 26  2  0
 26 27  1  0
 27 28  1  0
 27 29  1  0
 29 30  2  0
  6 31  1  0
 31 32  1  0
 31 33  2  0
 33 34  1  0
 33  2  1  0
 29  7  1  0
 24 15  1  0
M  END
>  <cnnaffinity>  (1) 
-5.35827

>  <filename>  (1) 
O=C(Nc1ccccc1)Nc1n[nH]c(=S)n1-c1cccnc1

$$$$
