
     RDKit          3D

 33 35  0  0  0  0  0  0  0  0999 V2000
    1.8757    2.6149   24.0599 H   0  0  0  0  0  0  0  0  0  0  0  0
    2.5449    2.0393   24.7013 C   0  0  0  0  0  0  0  0  0  0  0  0
    3.7940    1.8973   24.2409 N   0  0  0  0  0  0  0  0  0  0  0  0
    4.6606    1.1181   24.9319 C   0  0  0  0  0  0  0  0  0  0  0  0
    6.1097    0.8792   24.3811 C   0  0  0  0  0  0  0  0  0  0  0  0
    6.9147    0.1851   24.9940 O   0  0  0  0  0  0  0  0  0  0  0  0
    6.4511    1.4595   23.1930 N   0  0  0  0  0  0  0  0  0  0  0  0
    5.8118    2.1605   22.8419 H   0  0  0  0  0  0  0  0  0  0  0  0
    7.7247    1.2095   22.5617 C   0  0  0  0  0  0  0  0  0  0  0  0
    8.5470    1.3907   23.2704 H   0  0  0  0  0  0  0  0  0  0  0  0
    7.8362    1.8808   21.7058 H   0  0  0  0  0  0  0  0  0  0  0  0
    7.8514   -0.1556   22.0968 N   0  0  0  0  0  0  0  0  0  0  0  0
    8.4647   -1.1995   22.7321 C   0  0  0  0  0  0  0  0  0  0  0  0
    8.9366   -1.1060   23.7055 H   0  0  0  0  0  0  0  0  0  0  0  0
    8.4090   -2.2811   22.0103 N   0  0  0  0  0  0  0  0  0  0  0  0
    7.7368   -1.9602   20.8523 N   0  0  0  0  0  0  0  0  0  0  0  0
    7.3955   -0.7017   20.9253 C   0  0  0  0  0  0  0  0  0  0  0  0
    6.6529    0.0370   19.9016 C   0  0  0  0  0  0  0  0  0  0  0  0
    7.1649    0.0615   18.5971 C   0  0  0  0  0  0  0  0  0  0  0  0
    8.1094   -0.4341   18.3728 H   0  0  0  0  0  0  0  0  0  0  0  0
    6.5611    0.6790   17.5799 N   0  0  0  0  0  0  0  0  0  0  0  0
    5.3966    1.2985   17.8367 C   0  0  0  0  0  0  0  0  0  0  0  0
    4.9250    1.7875   16.9883 H   0  0  0  0  0  0  0  0  0  0  0  0
    4.7967    1.3202   19.1003 C   0  0  0  0  0  0  0  0  0  0  0  0
    3.8629    1.8471   19.2454 H   0  0  0  0  0  0  0  0  0  0  0  0
    5.4302    0.6704   20.1560 C   0  0  0  0  0  0  0  0  0  0  0  0
    4.9988    0.6332   21.1591 H   0  0  0  0  0  0  0  0  0  0  0  0
    4.2827    0.5168   26.1482 C   0  0  0  0  0  0  0  0  0  0  0  0
    5.0101   -0.0685   26.6961 H   0  0  0  0  0  0  0  0  0  0  0  0
    2.9858    0.6950   26.6404 C   0  0  0  0  0  0  0  0  0  0  0  0
    2.6741    0.2517   27.5893 H   0  0  0  0  0  0  0  0  0  0  0  0
    2.0901    1.4636   25.8898 C   0  0  0  0  0  0  0  0  0  0  0  0
    1.0667    1.6316   26.2089 H   0  0  0  0  0  0  0  0  0  0  0  0
  1  2  1  0
  2  3  2  0
  3  4  1  0
  4  5  1  0
  5  6  2  0
  5  7  1  0
  7  8  1  0
  7  9  1  0
  9 10  1  0
  9 11  1  0
  9 12  1  0
 12 13  1  0
 13 14  1  0
 13 15  2  0
 15 16  1  0
 16 17  2  0
 17 18  1  0
 18 19  2  0
 19 20  1  0
 19 21  1  0
 21 22  2  0
 22 23  1  0
 22 24  1  0
 24 25  1  0
 24 26  2  0
 26 27  1  0
  4 28  2  0
 28 29  1  0
 28 30  1  0
 30 31  1  0
 30 32  2  0
 32 33  1  0
 32  2  1  0
 17 12  1  0
 26 18  1  0
M  END
>  <cnnaffinity>  (1) 
-5.02449

>  <filename>  (1) 
O=C(NCn1cnnc1-c1cccnc1)c1ccccn1

$$$$
