
     RDKit          3D

 31 32  0  0  0  0  0  0  0  0999 V2000
    4.9060    1.7802   16.9614 H   0  0  0  0  0  0  0  0  0  0  0  0
    5.3805    1.2808   17.8023 C   0  0  0  0  0  0  0  0  0  0  0  0
    6.5370    0.6568   17.5281 N   0  0  0  0  0  0  0  0  0  0  0  0
    7.1617    0.0477   18.5393 C   0  0  0  0  0  0  0  0  0  0  0  0
    8.0877   -0.4755   18.2999 H   0  0  0  0  0  0  0  0  0  0  0  0
    6.6815    0.0426   19.8605 C   0  0  0  0  0  0  0  0  0  0  0  0
    7.6602   -0.7814   21.1136 S   0  0  0  0  0  0  0  0  0  0  0  0
    8.6090    0.6070   21.7123 C   0  0  0  0  0  0  0  0  0  0  0  0
   10.1592    0.8473   21.2855 S   0  0  0  0  0  0  0  0  0  0  0  0
    7.7823    1.5219   22.6503 C   0  0  0  0  0  0  0  0  0  0  0  0
    6.7144    1.1654   23.1295 O   0  0  0  0  0  0  0  0  0  0  0  0
    8.3241    2.7245   22.9267 N   0  0  0  0  0  0  0  0  0  0  0  0
    9.2403    2.9283   22.5543 H   0  0  0  0  0  0  0  0  0  0  0  0
    7.7269    3.6550   23.8845 C   0  0  0  0  0  0  0  0  0  0  0  0
    6.7867    4.0648   23.4921 H   0  0  0  0  0  0  0  0  0  0  0  0
    7.4429    3.1060   24.7918 H   0  0  0  0  0  0  0  0  0  0  0  0
    8.7192    4.7524   24.2170 C   0  0  0  0  0  0  0  0  0  0  0  0
    9.6848    4.5309   25.2152 C   0  0  0  0  0  0  0  0  0  0  0  0
    9.6858    3.5623   25.7187 H   0  0  0  0  0  0  0  0  0  0  0  0
   10.6274    5.5222   25.5166 C   0  0  0  0  0  0  0  0  0  0  0  0
   11.3891    5.3731   26.2774 H   0  0  0  0  0  0  0  0  0  0  0  0
   10.6194    6.7372   24.8302 C   0  0  0  0  0  0  0  0  0  0  0  0
   11.3753    7.4845   25.0662 H   0  0  0  0  0  0  0  0  0  0  0  0
    9.6640    6.9620   23.8312 C   0  0  0  0  0  0  0  0  0  0  0  0
    9.6295    7.9078   23.2982 H   0  0  0  0  0  0  0  0  0  0  0  0
    8.7332    5.9695   23.5147 C   0  0  0  0  0  0  0  0  0  0  0  0
    8.0278    6.1370   22.6981 H   0  0  0  0  0  0  0  0  0  0  0  0
    5.4656    0.6830   20.1353 C   0  0  0  0  0  0  0  0  0  0  0  0
    5.0693    0.7063   21.1505 H   0  0  0  0  0  0  0  0  0  0  0  0
    4.8006    1.3105   19.0741 C   0  0  0  0  0  0  0  0  0  0  0  0
    3.8625    1.8382   19.2226 H   0  0  0  0  0  0  0  0  0  0  0  0
  1  2  1  0
  2  3  2  0
  3  4  1  0
  4  5  1  0
  4  6  2  0
  6  7  1  0
  7  8  1  0
  8  9  2  0
  8 10  1  0
 10 11  2  0
 10 12  1  0
 12 13  1  0
 12 14  1  0
 14 15  1  0
 14 16  1  0
 14 17  1  0
 17 18  2  0
 18 19  1  0
 18 20  1  0
 20 21  1  0
 20 22  2  0
 22 23  1  0
 22 24  1  0
 24 25  1  0
 24 26  2  0
 26 27  1  0
  6 28  1  0
 28 29  1  0
 28 30  2  0
 30 31  1  0
 30  2  1  0
 26 17  1  0
M  END
>  <cnnaffinity>  (1) 
-4.76592

>  <filename>  (1) 
O=C(NCc1ccccc1)C(=S)Sc1cccnc1

$$$$
