
     RDKit          3D

 34 36  0  0  0  0  0  0  0  0999 V2000
    5.2263    2.0838   16.8276 H   0  0  0  0  0  0  0  0  0  0  0  0
    5.6200    1.4482   17.6173 C   0  0  0  0  0  0  0  0  0  0  0  0
    6.7975    0.8486   17.3685 N   0  0  0  0  0  0  0  0  0  0  0  0
    7.3285    0.0944   18.3367 C   0  0  0  0  0  0  0  0  0  0  0  0
    8.2884   -0.3706   18.1175 H   0  0  0  0  0  0  0  0  0  0  0  0
    6.6968   -0.1271   19.5813 C   0  0  0  0  0  0  0  0  0  0  0  0
    7.3081   -0.8897   20.6094 N   0  0  0  0  0  0  0  0  0  0  0  0
    6.7849   -1.9321   21.4189 C   0  0  0  0  0  0  0  0  0  0  0  0
    5.6549   -2.3682   21.3605 O   0  0  0  0  0  0  0  0  0  0  0  0
    7.9074   -2.2802   22.2738 C   0  0  0  0  0  0  0  0  0  0  0  0
    7.7918   -3.3931   23.2126 C   0  0  0  0  0  0  0  0  0  0  0  0
    7.1377   -4.3854   22.9452 O   0  0  0  0  0  0  0  0  0  0  0  0
    8.4770   -3.2777   24.4134 N   0  0  0  0  0  0  0  0  0  0  0  0
    8.9910   -2.0227   24.9888 C   0  0  0  0  0  0  0  0  0  0  0  0
    8.4865   -1.1654   24.5286 H   0  0  0  0  0  0  0  0  0  0  0  0
   10.0769   -1.9313   24.8252 H   0  0  0  0  0  0  0  0  0  0  0  0
    8.7472   -1.9697   26.5060 C   0  0  0  0  0  0  0  0  0  0  0  0
    7.6765   -1.7951   26.7068 H   0  0  0  0  0  0  0  0  0  0  0  0
    9.3132   -1.1346   26.9328 H   0  0  0  0  0  0  0  0  0  0  0  0
    9.2093   -3.1411   27.1548 O   0  0  0  0  0  0  0  0  0  0  0  0
    8.5954   -4.3166   26.6496 C   0  0  0  0  0  0  0  0  0  0  0  0
    7.5065   -4.3073   26.8229 H   0  0  0  0  0  0  0  0  0  0  0  0
    9.0295   -5.1449   27.2157 H   0  0  0  0  0  0  0  0  0  0  0  0
    8.8734   -4.4893   25.1566 C   0  0  0  0  0  0  0  0  0  0  0  0
    8.3197   -5.3496   24.7682 H   0  0  0  0  0  0  0  0  0  0  0  0
    9.9483   -4.6811   25.0225 H   0  0  0  0  0  0  0  0  0  0  0  0
    8.9436   -1.4520   21.9868 C   0  0  0  0  0  0  0  0  0  0  0  0
    9.9274   -1.3874   22.4360 H   0  0  0  0  0  0  0  0  0  0  0  0
    8.6541   -0.6538   20.8930 N   0  0  0  0  0  0  0  0  0  0  0  0
    8.8615    0.3452   20.9465 H   0  0  0  0  0  0  0  0  0  0  0  0
    5.4516    0.4661   19.8111 C   0  0  0  0  0  0  0  0  0  0  0  0
    4.9370    0.2751   20.7502 H   0  0  0  0  0  0  0  0  0  0  0  0
    4.9209    1.2910   18.8173 C   0  0  0  0  0  0  0  0  0  0  0  0
    3.9917    1.8247   18.9722 H   0  0  0  0  0  0  0  0  0  0  0  0
  1  2  1  0
  2  3  2  0
  3  4  1  0
  4  5  1  0
  4  6  2  0
  6  7  1  0
  7  8  1  0
  8  9  2  0
  8 10  1  0
 10 11  1  0
 11 12  2  0
 11 13  1  0
 13 14  1  0
 14 15  1  0
 14 16  1  0
 14 17  1  0
 17 18  1  0
 17 19  1  0
 17 20  1  0
 20 21  1  0
 21 22  1  0
 21 23  1  0
 21 24  1  0
 24 25  1  0
 24 26  1  0
 10 27  2  0
 27 28  1  0
 27 29  1  0
 29 30  1  0
  6 31  1  0
 31 32  1  0
 31 33  2  0
 33 34  1  0
 33  2  1  0
 29  7  1  0
 24 13  1  0
M  END
>  <cnnaffinity>  (1) 
-4.76518

>  <filename>  (1) 
O=C(c1c[nH]n(-c2cccnc2)c1=O)N1CCOCC1

$$$$
