
     RDKit          3D

 33 35  0  0  0  0  0  0  0  0999 V2000
    7.2401    6.0144   22.5822 H   0  0  0  0  0  0  0  0  0  0  0  0
    6.8645    5.3362   23.3465 C   0  0  0  0  0  0  0  0  0  0  0  0
    7.0035    4.0307   23.0820 N   0  0  0  0  0  0  0  0  0  0  0  0
    6.5558    3.1371   23.9925 C   0  0  0  0  0  0  0  0  0  0  0  0
    6.7131    1.6111   23.7340 C   0  0  0  0  0  0  0  0  0  0  0  0
    6.3428    0.8049   24.5713 O   0  0  0  0  0  0  0  0  0  0  0  0
    7.2839    1.1999   22.5453 N   0  0  0  0  0  0  0  0  0  0  0  0
    7.3976    1.9206   21.8428 H   0  0  0  0  0  0  0  0  0  0  0  0
    7.6383   -0.1463   22.2263 C   0  0  0  0  0  0  0  0  0  0  0  0
    7.3917   -0.7449   20.9507 C   0  0  0  0  0  0  0  0  0  0  0  0
    6.6472   -0.0137   19.8975 C   0  0  0  0  0  0  0  0  0  0  0  0
    7.1690    0.0349   18.5977 C   0  0  0  0  0  0  0  0  0  0  0  0
    8.1200   -0.4404   18.3660 H   0  0  0  0  0  0  0  0  0  0  0  0
    6.5726    0.6758   17.5892 N   0  0  0  0  0  0  0  0  0  0  0  0
    5.4070    1.2891   17.8449 C   0  0  0  0  0  0  0  0  0  0  0  0
    4.9250    1.7789   17.0013 H   0  0  0  0  0  0  0  0  0  0  0  0
    4.8075    1.3040   19.1081 C   0  0  0  0  0  0  0  0  0  0  0  0
    3.8780    1.8398   19.2583 H   0  0  0  0  0  0  0  0  0  0  0  0
    5.4383    0.6468   20.1615 C   0  0  0  0  0  0  0  0  0  0  0  0
    5.0055    0.6369   21.1656 H   0  0  0  0  0  0  0  0  0  0  0  0
    7.8004   -1.9799   20.6477 N   0  0  0  0  0  0  0  0  0  0  0  0
    8.4069   -2.7069   21.5964 C   0  0  0  0  0  0  0  0  0  0  0  0
    8.7027   -3.7127   21.3129 H   0  0  0  0  0  0  0  0  0  0  0  0
    8.6753   -2.2158   22.8731 C   0  0  0  0  0  0  0  0  0  0  0  0
    9.1863   -2.8364   23.5980 H   0  0  0  0  0  0  0  0  0  0  0  0
    8.2912   -0.9142   23.1959 C   0  0  0  0  0  0  0  0  0  0  0  0
    8.4801   -0.4792   24.1767 H   0  0  0  0  0  0  0  0  0  0  0  0
    5.9578    3.5533   25.2034 C   0  0  0  0  0  0  0  0  0  0  0  0
    5.6138    2.8111   25.9165 H   0  0  0  0  0  0  0  0  0  0  0  0
    5.8143    4.9151   25.4697 C   0  0  0  0  0  0  0  0  0  0  0  0
    5.3493    5.2637   26.3944 H   0  0  0  0  0  0  0  0  0  0  0  0
    6.2793    5.8278   24.5176 C   0  0  0  0  0  0  0  0  0  0  0  0
    6.1910    6.8977   24.6676 H   0  0  0  0  0  0  0  0  0  0  0  0
  1  2  1  0
  2  3  2  0
  3  4  1  0
  4  5  1  0
  5  6  2  0
  5  7  1  0
  7  8  1  0
  7  9  1  0
  9 10  1  0
 10 11  1  0
 11 12  2  0
 12 13  1  0
 12 14  1  0
 14 15  2  0
 15 16  1  0
 15 17  1  0
 17 18  1  0
 17 19  2  0
 19 20  1  0
 10 21  2  0
 21 22  1  0
 22 23  1  0
 22 24  2  0
 24 25  1  0
 24 26  1  0
 26 27  1  0
  4 28  2  0
 28 29  1  0
 28 30  1  0
 30 31  1  0
 30 32  2  0
 32 33  1  0
 32  2  1  0
 26  9  2  0
 19 11  1  0
M  END
>  <cnnaffinity>  (1) 
-5.04137

>  <filename>  (1) 
O=C(Nc1cccnc1-c1cccnc1)c1ccccn1

$$$$
