
     RDKit          3D

 32 34  0  0  0  0  0  0  0  0999 V2000
    5.1457    1.8909   16.9899 H   0  0  0  0  0  0  0  0  0  0  0  0
    5.5161    1.3748   17.8749 C   0  0  0  0  0  0  0  0  0  0  0  0
    6.6947    0.7385   17.7541 N   0  0  0  0  0  0  0  0  0  0  0  0
    7.1645    0.0881   18.8279 C   0  0  0  0  0  0  0  0  0  0  0  0
    8.1330   -0.3966   18.7247 H   0  0  0  0  0  0  0  0  0  0  0  0
    6.4768    0.0177   20.0576 C   0  0  0  0  0  0  0  0  0  0  0  0
    6.9850   -0.6996   21.1878 N   0  0  0  0  0  0  0  0  0  0  0  0
    7.6450   -0.1627   22.3456 C   0  0  0  0  0  0  0  0  0  0  0  0
    7.6578    1.2263   22.9440 C   0  0  0  0  0  0  0  0  0  0  0  0
    7.9524    1.3471   24.1198 O   0  0  0  0  0  0  0  0  0  0  0  0
    7.3460    2.2820   22.1361 N   0  0  0  0  0  0  0  0  0  0  0  0
    7.2424    2.0712   21.1623 H   0  0  0  0  0  0  0  0  0  0  0  0
    6.9860    3.6043   22.4825 C   0  0  0  0  0  0  0  0  0  0  0  0
    6.2415    4.3178   21.5367 C   0  0  0  0  0  0  0  0  0  0  0  0
    5.9776    3.8118   20.6119 H   0  0  0  0  0  0  0  0  0  0  0  0
    5.8390    5.6343   21.7867 C   0  0  0  0  0  0  0  0  0  0  0  0
    5.2414    6.1683   21.0486 H   0  0  0  0  0  0  0  0  0  0  0  0
    6.2025    6.2555   22.9883 C   0  0  0  0  0  0  0  0  0  0  0  0
    5.9085    7.2846   23.1835 H   0  0  0  0  0  0  0  0  0  0  0  0
    6.9456    5.5387   23.9345 C   0  0  0  0  0  0  0  0  0  0  0  0
    7.2206    6.0100   24.8763 H   0  0  0  0  0  0  0  0  0  0  0  0
    7.3339    4.2129   23.6946 C   0  0  0  0  0  0  0  0  0  0  0  0
    7.8898    3.6388   24.4230 H   0  0  0  0  0  0  0  0  0  0  0  0
    8.1072   -1.2511   22.9904 C   0  0  0  0  0  0  0  0  0  0  0  0
    8.6482   -1.3616   23.9245 H   0  0  0  0  0  0  0  0  0  0  0  0
    7.7676   -2.3981   22.3438 O   0  0  0  0  0  0  0  0  0  0  0  0
    7.0005   -2.0964   21.2418 C   0  0  0  0  0  0  0  0  0  0  0  0
    6.4823   -2.9056   20.5191 O   0  0  0  0  0  0  0  0  0  0  0  0
    5.2534    0.6789   20.1655 C   0  0  0  0  0  0  0  0  0  0  0  0
    4.7296    0.6520   21.1195 H   0  0  0  0  0  0  0  0  0  0  0  0
    4.7651    1.3778   19.0571 C   0  0  0  0  0  0  0  0  0  0  0  0
    3.8201    1.9140   19.1015 H   0  0  0  0  0  0  0  0  0  0  0  0
  1  2  1  0
  2  3  2  0
  3  4  1  0
  4  5  1  0
  4  6  2  0
  6  7  1  0
  7  8  1  0
  8  9  1  0
  9 10  2  0
  9 11  1  0
 11 12  1  0
 11 13  1  0
 13 14  2  0
 14 15  1  0
 14 16  1  0
 16 17  1  0
 16 18  2  0
 18 19  1  0
 18 20  1  0
 20 21  1  0
 20 22  2  0
 22 23  1  0
  8 24  2  0
 24 25  1  0
 24 26  1  0
 26 27  1  0
 27 28  2  0
  6 29  1  0
 29 30  1  0
 29 31  2  0
 31 32  1  0
 31  2  1  0
 27  7  1  0
 22 13  1  0
M  END
>  <cnnaffinity>  (1) 
-4.8299

>  <filename>  (1) 
O=C(Nc1ccccc1)c1coc(=O)n1-c1cccnc1

$$$$
