
     RDKit          3D

 31 32  0  0  0  0  0  0  0  0999 V2000
    8.6256   -1.7487   20.0355 H   0  0  0  0  0  0  0  0  0  0  0  0
    8.1864   -1.3684   20.9659 C   0  0  0  0  0  0  0  0  0  0  0  0
    7.2060   -0.5613   21.0166 N   0  0  0  0  0  0  0  0  0  0  0  0
    6.6327    0.0222   19.8668 C   0  0  0  0  0  0  0  0  0  0  0  0
    7.1609    0.0544   18.5539 C   0  0  0  0  0  0  0  0  0  0  0  0
    8.1122   -0.4265   18.3244 H   0  0  0  0  0  0  0  0  0  0  0  0
    6.5633    0.6785   17.5290 N   0  0  0  0  0  0  0  0  0  0  0  0
    5.4041    1.3094   17.7709 C   0  0  0  0  0  0  0  0  0  0  0  0
    4.9538    1.8246   16.9270 H   0  0  0  0  0  0  0  0  0  0  0  0
    4.7872    1.3276   19.0295 C   0  0  0  0  0  0  0  0  0  0  0  0
    3.8511    1.8569   19.1670 H   0  0  0  0  0  0  0  0  0  0  0  0
    5.4120    0.6793   20.0905 C   0  0  0  0  0  0  0  0  0  0  0  0
    5.0142    0.6629   21.1042 H   0  0  0  0  0  0  0  0  0  0  0  0
    8.8693   -1.9785   22.1833 C   0  0  0  0  0  0  0  0  0  0  0  0
    9.6937   -2.8606   22.0121 O   0  0  0  0  0  0  0  0  0  0  0  0
    8.5514   -1.4813   23.4129 N   0  0  0  0  0  0  0  0  0  0  0  0
    7.7022   -0.9355   23.4614 H   0  0  0  0  0  0  0  0  0  0  0  0
    8.9901   -2.1594   24.6225 C   0  0  0  0  0  0  0  0  0  0  0  0
   10.0742   -2.3094   24.5678 H   0  0  0  0  0  0  0  0  0  0  0  0
    8.8220   -1.4798   25.4693 H   0  0  0  0  0  0  0  0  0  0  0  0
    8.3037   -3.5003   24.8537 C   0  0  0  0  0  0  0  0  0  0  0  0
    6.9459   -3.5885   25.2009 C   0  0  0  0  0  0  0  0  0  0  0  0
    6.3128   -2.7013   25.1719 H   0  0  0  0  0  0  0  0  0  0  0  0
    6.3971   -4.8112   25.5982 C   0  0  0  0  0  0  0  0  0  0  0  0
    5.3581   -4.8703   25.9097 H   0  0  0  0  0  0  0  0  0  0  0  0
    7.1877   -5.9638   25.6287 C   0  0  0  0  0  0  0  0  0  0  0  0
    6.7674   -6.8957   25.9937 H   0  0  0  0  0  0  0  0  0  0  0  0
    8.5116   -5.9083   25.1874 C   0  0  0  0  0  0  0  0  0  0  0  0
    9.1308   -6.8006   25.1967 H   0  0  0  0  0  0  0  0  0  0  0  0
    9.0474   -4.6887   24.7700 C   0  0  0  0  0  0  0  0  0  0  0  0
   10.0369   -4.6487   24.3235 H   0  0  0  0  0  0  0  0  0  0  0  0
  1  2  1  0
  2  3  2  3
  3  4  1  0
  4  5  2  0
  5  6  1  0
  5  7  1  0
  7  8  2  0
  8  9  1  0
  8 10  1  0
 10 11  1  0
 10 12  2  0
 12 13  1  0
  2 14  1  0
 14 15  2  0
 14 16  1  0
 16 17  1  0
 16 18  1  0
 18 19  1  0
 18 20  1  0
 18 21  1  0
 21 22  2  0
 22 23  1  0
 22 24  1  0
 24 25  1  0
 24 26  2  0
 26 27  1  0
 26 28  1  0
 28 29  1  0
 28 30  2  0
 30 31  1  0
 12  4  1  0
 30 21  1  0
M  END
>  <cnnaffinity>  (1) 
-4.49174

>  <filename>  (1) 
O=C(C=Nc1cccnc1)NCc1ccccc1

$$$$
