
     RDKit          3D

 40 42  0  0  0  0  0  0  0  0999 V2000
    5.0034    1.8048   16.9627 H   0  0  0  0  0  0  0  0  0  0  0  0
    5.4403    1.3183   17.8330 C   0  0  0  0  0  0  0  0  0  0  0  0
    6.6190    0.7078   17.6343 N   0  0  0  0  0  0  0  0  0  0  0  0
    7.1795    0.0761   18.6729 C   0  0  0  0  0  0  0  0  0  0  0  0
    8.1479   -0.3876   18.4946 H   0  0  0  0  0  0  0  0  0  0  0  0
    6.5910    0.0136   19.9575 C   0  0  0  0  0  0  0  0  0  0  0  0
    7.2096   -0.6927   21.0449 N   0  0  0  0  0  0  0  0  0  0  0  0
    7.5198   -2.0310   21.1048 C   0  0  0  0  0  0  0  0  0  0  0  0
    7.2173   -2.7278   20.3381 H   0  0  0  0  0  0  0  0  0  0  0  0
    8.1154   -2.3357   22.2208 N   0  0  0  0  0  0  0  0  0  0  0  0
    8.1913   -1.1842   22.9621 N   0  0  0  0  0  0  0  0  0  0  0  0
    7.6550   -0.2153   22.2682 C   0  0  0  0  0  0  0  0  0  0  0  0
    7.4046    1.1783   22.8115 C   0  0  0  0  0  0  0  0  0  0  0  0
    7.1703    1.8701   21.9948 H   0  0  0  0  0  0  0  0  0  0  0  0
    6.5206    1.1053   23.4547 H   0  0  0  0  0  0  0  0  0  0  0  0
    8.4622    1.7613   23.6306 N   0  0  0  0  0  0  0  0  0  0  0  0
    8.5060    1.4488   24.5878 H   0  0  0  0  0  0  0  0  0  0  0  0
    9.6750    2.1164   23.0905 C   0  0  0  0  0  0  0  0  0  0  0  0
    9.8649    2.0662   21.8889 O   0  0  0  0  0  0  0  0  0  0  0  0
   10.7153    2.5862   24.1266 C   0  0  0  0  0  0  0  0  0  0  0  0
   10.4564    2.1008   25.0798 H   0  0  0  0  0  0  0  0  0  0  0  0
   10.6068    4.1318   24.2835 C   0  0  0  0  0  0  0  0  0  0  0  0
    9.5750    4.4076   24.5318 H   0  0  0  0  0  0  0  0  0  0  0  0
   11.2314    4.5189   25.0952 H   0  0  0  0  0  0  0  0  0  0  0  0
   11.0804    4.8254   23.0065 C   0  0  0  0  0  0  0  0  0  0  0  0
   10.4630    4.4495   22.1932 H   0  0  0  0  0  0  0  0  0  0  0  0
   10.9323    5.9095   23.0627 H   0  0  0  0  0  0  0  0  0  0  0  0
   12.5515    4.4723   22.7451 C   0  0  0  0  0  0  0  0  0  0  0  0
   13.1518    4.7906   23.6108 H   0  0  0  0  0  0  0  0  0  0  0  0
   12.9411    5.0243   21.8802 H   0  0  0  0  0  0  0  0  0  0  0  0
   12.7180    2.9575   22.5430 C   0  0  0  0  0  0  0  0  0  0  0  0
   13.7761    2.7004   22.4307 H   0  0  0  0  0  0  0  0  0  0  0  0
   12.2043    2.6696   21.6192 H   0  0  0  0  0  0  0  0  0  0  0  0
   12.1328    2.1246   23.7018 C   0  0  0  0  0  0  0  0  0  0  0  0
   12.7945    2.1615   24.5723 H   0  0  0  0  0  0  0  0  0  0  0  0
   12.1070    1.0624   23.4146 H   0  0  0  0  0  0  0  0  0  0  0  0
    5.3744    0.6746   20.1554 C   0  0  0  0  0  0  0  0  0  0  0  0
    4.9289    0.6767   21.1524 H   0  0  0  0  0  0  0  0  0  0  0  0
    4.7842    1.3314   19.0694 C   0  0  0  0  0  0  0  0  0  0  0  0
    3.8403    1.8545   19.1730 H   0  0  0  0  0  0  0  0  0  0  0  0
  1  2  1  0
  2  3  2  0
  3  4  1  0
  4  5  1  0
  4  6  2  0
  6  7  1  0
  7  8  1  0
  8  9  1  0
  8 10  2  0
 10 11  1  0
 11 12  2  0
 12 13  1  0
 13 14  1  0
 13 15  1  0
 13 16  1  0
 16 17  1  0
 16 18  1  0
 18 19  2  0
 18 20  1  0
 20 21  1  0
 20 22  1  0
 22 23  1  0
 22 24  1  0
 22 25  1  0
 25 26  1  0
 25 27  1  0
 25 28  1  0
 28 29  1  0
 28 30  1  0
 28 31  1  0
 31 32  1  0
 31 33  1  0
 31 34  1  0
 34 35  1  0
 34 36  1  0
  6 37  1  0
 37 38  1  0
 37 39  2  0
 39 40  1  0
 39  2  1  0
 12  7  1  0
 34 20  1  0
M  END
>  <cnnaffinity>  (1) 
-5.393

>  <filename>  (1) 
O=C(NCc1nncn1-c1cccnc1)C1CCCCC1

$$$$
