
     RDKit          3D

 33 35  0  0  0  0  0  0  0  0999 V2000
    4.9301    1.7843   16.9991 H   0  0  0  0  0  0  0  0  0  0  0  0
    5.4405    1.2773   17.8172 C   0  0  0  0  0  0  0  0  0  0  0  0
    6.5885    0.6620   17.5007 N   0  0  0  0  0  0  0  0  0  0  0  0
    7.2493    0.0465   18.4827 C   0  0  0  0  0  0  0  0  0  0  0  0
    8.1737   -0.4456   18.1962 H   0  0  0  0  0  0  0  0  0  0  0  0
    6.8303    0.0200   19.8245 C   0  0  0  0  0  0  0  0  0  0  0  0
    7.7770   -0.6485   20.7943 C   0  0  0  0  0  0  0  0  0  0  0  0
    8.8523   -1.0582   20.4117 O   0  0  0  0  0  0  0  0  0  0  0  0
    7.3044   -0.8340   22.2467 C   0  0  0  0  0  0  0  0  0  0  0  0
    6.2957   -1.9811   22.4118 C   0  0  0  0  0  0  0  0  0  0  0  0
    5.9354   -1.9566   23.4502 H   0  0  0  0  0  0  0  0  0  0  0  0
    5.4415   -1.7330   21.7674 H   0  0  0  0  0  0  0  0  0  0  0  0
    6.6979   -3.4197   22.1047 C   0  0  0  0  0  0  0  0  0  0  0  0
    7.3154   -4.2366   23.0716 C   0  0  0  0  0  0  0  0  0  0  0  0
    7.5833   -3.8311   24.0470 H   0  0  0  0  0  0  0  0  0  0  0  0
    7.5217   -5.6040   22.8447 C   0  0  0  0  0  0  0  0  0  0  0  0
    8.0166   -6.2178   23.6012 H   0  0  0  0  0  0  0  0  0  0  0  0
    7.0872   -6.1869   21.6511 C   0  0  0  0  0  0  0  0  0  0  0  0
    7.2313   -7.2477   21.4731 H   0  0  0  0  0  0  0  0  0  0  0  0
    6.4684   -5.3851   20.6902 C   0  0  0  0  0  0  0  0  0  0  0  0
    5.8123   -6.1091   19.2495 Cl  0  0  0  0  0  0  0  0  0  0  0  0
    6.3015   -4.0142   20.8925 C   0  0  0  0  0  0  0  0  0  0  0  0
    5.8417   -3.4170   20.1108 H   0  0  0  0  0  0  0  0  0  0  0  0
    8.1943   -0.4883   23.4219 C   0  0  0  0  0  0  0  0  0  0  0  0
    9.1892   -0.0914   23.2391 H   0  0  0  0  0  0  0  0  0  0  0  0
    8.1358   -1.1238   24.3083 H   0  0  0  0  0  0  0  0  0  0  0  0
    7.0328    0.4035   23.0966 C   0  0  0  0  0  0  0  0  0  0  0  0
    6.1585    0.4016   23.7504 H   0  0  0  0  0  0  0  0  0  0  0  0
    7.2580    1.3864   22.6887 H   0  0  0  0  0  0  0  0  0  0  0  0
    5.5975    0.6294   20.1341 C   0  0  0  0  0  0  0  0  0  0  0  0
    5.1729    0.6324   21.1408 H   0  0  0  0  0  0  0  0  0  0  0  0
    4.9018    1.2736   19.1071 C   0  0  0  0  0  0  0  0  0  0  0  0
    3.9585    1.7782   19.2854 H   0  0  0  0  0  0  0  0  0  0  0  0
  1  2  1  0
  2  3  2  0
  3  4  1  0
  4  5  1  0
  4  6  2  0
  6  7  1  0
  7  8  2  0
  7  9  1  0
  9 10  1  0
 10 11  1  0
 10 12  1  0
 10 13  1  0
 13 14  2  0
 14 15  1  0
 14 16  1  0
 16 17  1  0
 16 18  2  0
 18 19  1  0
 18 20  1  0
 20 21  1  0
 20 22  2  0
 22 23  1  0
  9 24  1  0
 24 25  1  0
 24 26  1  0
 24 27  1  0
 27 28  1  0
 27 29  1  0
  6 30  1  0
 30 31  1  0
 30 32  2  0
 32 33  1  0
 32  2  1  0
 27  9  1  0
 22 13  1  0
M  END
>  <cnnaffinity>  (1) 
-4.87256

>  <filename>  (1) 
O=C(c1cccnc1)C1(Cc2cccc(Cl)c2)CC1

$$$$
