
     RDKit          3D

 37 40  0  0  0  0  0  0  0  0999 V2000
    4.9073    1.8250   16.9716 H   0  0  0  0  0  0  0  0  0  0  0  0
    5.3840    1.3122   17.8062 C   0  0  0  0  0  0  0  0  0  0  0  0
    6.5467    0.6920   17.5417 N   0  0  0  0  0  0  0  0  0  0  0  0
    7.1620    0.0886   18.5632 C   0  0  0  0  0  0  0  0  0  0  0  0
    8.1067   -0.3905   18.3089 H   0  0  0  0  0  0  0  0  0  0  0  0
    6.6873    0.0536   19.8986 C   0  0  0  0  0  0  0  0  0  0  0  0
    7.4607   -0.6266   20.9636 C   0  0  0  0  0  0  0  0  0  0  0  0
    8.4293   -1.6124   20.9328 C   0  0  0  0  0  0  0  0  0  0  0  0
    8.9032   -2.0621   20.0779 H   0  0  0  0  0  0  0  0  0  0  0  0
    8.8417   -2.0220   22.1715 N   0  0  0  0  0  0  0  0  0  0  0  0
    8.1508   -1.2684   22.9812 C   0  0  0  0  0  0  0  0  0  0  0  0
    8.1542   -0.9414   24.6815 S   0  0  0  0  0  0  0  0  0  0  0  0
    7.0632    0.3802   24.3328 C   0  0  0  0  0  0  0  0  0  0  0  0
    6.6301    1.2726   25.4864 C   0  0  0  0  0  0  0  0  0  0  0  0
    7.0461    1.0981   26.6223 O   0  0  0  0  0  0  0  0  0  0  0  0
    5.7425    2.2397   25.1474 N   0  0  0  0  0  0  0  0  0  0  0  0
    5.5843    2.3801   24.1576 H   0  0  0  0  0  0  0  0  0  0  0  0
    5.3448    3.2524   26.1182 C   0  0  0  0  0  0  0  0  0  0  0  0
    5.0484    2.7404   27.0429 H   0  0  0  0  0  0  0  0  0  0  0  0
    4.4545    3.7478   25.7195 H   0  0  0  0  0  0  0  0  0  0  0  0
    6.4335    4.2728   26.4295 C   0  0  0  0  0  0  0  0  0  0  0  0
    6.8577    5.2009   25.4622 C   0  0  0  0  0  0  0  0  0  0  0  0
    6.4031    5.1992   24.4708 H   0  0  0  0  0  0  0  0  0  0  0  0
    7.8800    6.1100   25.7512 C   0  0  0  0  0  0  0  0  0  0  0  0
    8.2436    6.7729   24.9704 H   0  0  0  0  0  0  0  0  0  0  0  0
    8.4463    6.1487   27.0288 C   0  0  0  0  0  0  0  0  0  0  0  0
    9.2347    6.8630   27.2480 H   0  0  0  0  0  0  0  0  0  0  0  0
    8.0080    5.2526   28.0078 C   0  0  0  0  0  0  0  0  0  0  0  0
    8.4099    5.2851   29.0162 H   0  0  0  0  0  0  0  0  0  0  0  0
    7.0453    4.2898   27.6945 C   0  0  0  0  0  0  0  0  0  0  0  0
    6.7927    3.5163   28.4225 H   0  0  0  0  0  0  0  0  0  0  0  0
    6.6945    0.5364   23.0921 N   0  0  0  0  0  0  0  0  0  0  0  0
    7.2958   -0.4128   22.3356 N   0  0  0  0  0  0  0  0  0  0  0  0
    5.4466    0.6832   20.1382 C   0  0  0  0  0  0  0  0  0  0  0  0
    5.0257    0.6880   21.1440 H   0  0  0  0  0  0  0  0  0  0  0  0
    4.7976    1.3157   19.0760 C   0  0  0  0  0  0  0  0  0  0  0  0
    3.8539    1.8321   19.2207 H   0  0  0  0  0  0  0  0  0  0  0  0
  1  2  1  0
  2  3  2  0
  3  4  1  0
  4  5  1  0
  4  6  2  0
  6  7  1  0
  7  8  2  0
  8  9  1  0
  8 10  1  0
 10 11  2  0
 11 12  1  0
 12 13  1  0
 13 14  1  0
 14 15  2  0
 14 16  1  0
 16 17  1  0
 16 18  1  0
 18 19  1  0
 18 20  1  0
 18 21  1  0
 21 22  2  0
 22 23  1  0
 22 24  1  0
 24 25  1  0
 24 26  2  0
 26 27  1  0
 26 28  1  0
 28 29  1  0
 28 30  2  0
 30 31  1  0
 13 32  2  0
 32 33  1  0
  6 34  1  0
 34 35  1  0
 34 36  2  0
 36 37  1  0
 36  2  1  0
 33  7  1  0
 33 11  1  0
 30 21  1  0
M  END
>  <cnnaffinity>  (1) 
-5.20882

>  <filename>  (1) 
O=C(NCc1ccccc1)c1nn2c(-c3cccnc3)cnc2s1

$$$$
