
     RDKit          3D

 33 35  0  0  0  0  0  0  0  0999 V2000
    4.8433    1.7739   16.8334 H   0  0  0  0  0  0  0  0  0  0  0  0
    5.3544    1.2983   17.6683 C   0  0  0  0  0  0  0  0  0  0  0  0
    6.4974    0.6557   17.3745 N   0  0  0  0  0  0  0  0  0  0  0  0
    7.1871    0.1014   18.3818 C   0  0  0  0  0  0  0  0  0  0  0  0
    8.1121   -0.4112   18.1158 H   0  0  0  0  0  0  0  0  0  0  0  0
    6.7683    0.1518   19.7320 C   0  0  0  0  0  0  0  0  0  0  0  0
    7.4920   -0.4585   20.8089 N   0  0  0  0  0  0  0  0  0  0  0  0
    6.9161   -1.3034   21.7383 C   0  0  0  0  0  0  0  0  0  0  0  0
    5.8496   -1.4886   21.7508 H   0  0  0  0  0  0  0  0  0  0  0  0
    7.8670   -1.8162   22.5551 C   0  0  0  0  0  0  0  0  0  0  0  0
    7.5127   -2.8483   23.5972 C   0  0  0  0  0  0  0  0  0  0  0  0
    6.3588   -3.2274   23.6879 O   0  0  0  0  0  0  0  0  0  0  0  0
    8.5176   -3.3234   24.3927 N   0  0  0  0  0  0  0  0  0  0  0  0
    9.3483   -2.7647   24.4244 H   0  0  0  0  0  0  0  0  0  0  0  0
    8.3637   -4.2396   25.4584 C   0  0  0  0  0  0  0  0  0  0  0  0
    9.2138   -4.1105   26.5598 C   0  0  0  0  0  0  0  0  0  0  0  0
    9.9417   -3.3065   26.5812 H   0  0  0  0  0  0  0  0  0  0  0  0
    9.1013   -4.9836   27.6425 C   0  0  0  0  0  0  0  0  0  0  0  0
    9.7658   -4.9215   28.4909 H   0  0  0  0  0  0  0  0  0  0  0  0
    8.1217   -5.9726   27.6149 C   0  0  0  0  0  0  0  0  0  0  0  0
    7.9775   -6.7894   28.6703 F   0  0  0  0  0  0  0  0  0  0  0  0
    7.2912   -6.1440   26.5135 C   0  0  0  0  0  0  0  0  0  0  0  0
    6.5720   -6.9580   26.5301 H   0  0  0  0  0  0  0  0  0  0  0  0
    7.4121   -5.2721   25.4281 C   0  0  0  0  0  0  0  0  0  0  0  0
    6.7396   -5.3351   24.5862 H   0  0  0  0  0  0  0  0  0  0  0  0
    9.0766   -1.2072   22.1411 N   0  0  0  0  0  0  0  0  0  0  0  0
   10.0508   -1.3887   22.3271 H   0  0  0  0  0  0  0  0  0  0  0  0
    8.8760   -0.3802   21.0562 C   0  0  0  0  0  0  0  0  0  0  0  0
    9.7324    0.2405   20.4661 O   0  0  0  0  0  0  0  0  0  0  0  0
    5.5515    0.7882   20.0108 C   0  0  0  0  0  0  0  0  0  0  0  0
    5.1855    0.8285   21.0361 H   0  0  0  0  0  0  0  0  0  0  0  0
    4.8357    1.3772   18.9643 C   0  0  0  0  0  0  0  0  0  0  0  0
    3.9026    1.9028   19.1461 H   0  0  0  0  0  0  0  0  0  0  0  0
  1  2  1  0
  2  3  2  0
  3  4  1  0
  4  5  1  0
  4  6  2  0
  6  7  1  0
  7  8  1  0
  8  9  1  0
  8 10  2  0
 10 11  1  0
 11 12  2  0
 11 13  1  0
 13 14  1  0
 13 15  1  0
 15 16  2  0
 16 17  1  0
 16 18  1  0
 18 19  1  0
 18 20  2  0
 20 21  1  0
 20 22  1  0
 22 23  1  0
 22 24  2  0
 24 25  1  0
 10 26  1  0
 26 27  1  0
 26 28  1  0
 28 29  2  0
  6 30  1  0
 30 31  1  0
 30 32  2  0
 32 33  1  0
 32  2  1  0
 28  7  1  0
 24 15  1  0
M  END
>  <cnnaffinity>  (1) 
-5.04805

>  <filename>  (1) 
O=C(Nc1ccc(F)cc1)c1cn(-c2cccnc2)c(=O)[nH]1

$$$$
