
     RDKit          3D

 34 35  0  0  0  0  0  0  0  0999 V2000
    5.1923    1.8933   16.9320 H   0  0  0  0  0  0  0  0  0  0  0  0
    5.5781    1.3570   17.7964 C   0  0  0  0  0  0  0  0  0  0  0  0
    6.7431    0.7129   17.6214 N   0  0  0  0  0  0  0  0  0  0  0  0
    7.2545    0.0451   18.6532 C   0  0  0  0  0  0  0  0  0  0  0  0
    8.1957   -0.4710   18.4742 H   0  0  0  0  0  0  0  0  0  0  0  0
    6.5972   -0.0000   19.8714 C   0  0  0  0  0  0  0  0  0  0  0  0
    7.3993   -0.8271   21.1441 S   0  0  0  0  0  0  0  0  0  0  0  0
    8.1586   -1.9139   20.5868 O   0  0  0  0  0  0  0  0  0  0  0  0
    6.4787   -0.9111   22.2576 O   0  0  0  0  0  0  0  0  0  0  0  0
    8.4816    0.3786   21.5777 N   0  0  0  0  0  0  0  0  0  0  0  0
    7.8874    1.1089   21.9558 H   0  0  0  0  0  0  0  0  0  0  0  0
    9.2799   -0.0748   22.6447 C   0  0  0  0  0  0  0  0  0  0  0  0
    9.2946   -1.2211   23.0273 O   0  0  0  0  0  0  0  0  0  0  0  0
   10.0631    1.0866   23.2597 C   0  0  0  0  0  0  0  0  0  0  0  0
   10.2537    1.7932   22.4396 H   0  0  0  0  0  0  0  0  0  0  0  0
   11.4086    0.6172   23.8594 C   0  0  0  0  0  0  0  0  0  0  0  0
   12.0144    0.1119   23.0946 H   0  0  0  0  0  0  0  0  0  0  0  0
   11.9725    1.5121   24.1588 H   0  0  0  0  0  0  0  0  0  0  0  0
   11.1939   -0.3009   25.0758 C   0  0  0  0  0  0  0  0  0  0  0  0
   12.1676   -0.5354   25.5239 H   0  0  0  0  0  0  0  0  0  0  0  0
   10.7303   -1.2278   24.7249 H   0  0  0  0  0  0  0  0  0  0  0  0
   10.2843    0.3467   26.1319 C   0  0  0  0  0  0  0  0  0  0  0  0
   10.0807   -0.3581   26.9497 H   0  0  0  0  0  0  0  0  0  0  0  0
   10.8367    1.1863   26.5666 H   0  0  0  0  0  0  0  0  0  0  0  0
    8.9620    0.8942   25.5619 C   0  0  0  0  0  0  0  0  0  0  0  0
    8.3081    0.0648   25.2493 H   0  0  0  0  0  0  0  0  0  0  0  0
    8.4216    1.4472   26.3471 H   0  0  0  0  0  0  0  0  0  0  0  0
    9.2281    1.8136   24.3567 C   0  0  0  0  0  0  0  0  0  0  0  0
    8.2824    2.1985   23.9433 H   0  0  0  0  0  0  0  0  0  0  0  0
    9.8128    2.6851   24.6974 H   0  0  0  0  0  0  0  0  0  0  0  0
    5.3817    0.6569   20.0827 C   0  0  0  0  0  0  0  0  0  0  0  0
    4.8756    0.6089   21.0504 H   0  0  0  0  0  0  0  0  0  0  0  0
    4.8760    1.3751   19.0081 C   0  0  0  0  0  0  0  0  0  0  0  0
    3.9632    1.9560   19.0963 H   0  0  0  0  0  0  0  0  0  0  0  0
  1  2  1  0
  2  3  2  0
  3  4  1  0
  4  5  1  0
  4  6  2  0
  6  7  1  0
  7  8  2  0
  7  9  2  0
  7 10  1  0
 10 11  1  0
 10 12  1  0
 12 13  2  0
 12 14  1  0
 14 15  1  0
 14 16  1  0
 16 17  1  0
 16 18  1  0
 16 19  1  0
 19 20  1  0
 19 21  1  0
 19 22  1  0
 22 23  1  0
 22 24  1  0
 22 25  1  0
 25 26  1  0
 25 27  1  0
 25 28  1  0
 28 29  1  0
 28 30  1  0
  6 31  1  0
 31 32  1  0
 31 33  2  0
 33 34  1  0
 33  2  1  0
 28 14  1  0
M  END
>  <cnnaffinity>  (1) 
-4.71948

>  <filename>  (1) 
O=C(NS(=O)(=O)c1cccnc1)C1CCCCC1

$$$$
