
     RDKit          3D

 30 32  0  0  0  0  0  0  0  0999 V2000
    5.1413    1.7167   16.7801 H   0  0  0  0  0  0  0  0  0  0  0  0
    5.5208    1.2538   17.6885 C   0  0  0  0  0  0  0  0  0  0  0  0
    6.6755    0.5762   17.5724 N   0  0  0  0  0  0  0  0  0  0  0  0
    7.1580   -0.0090   18.6777 C   0  0  0  0  0  0  0  0  0  0  0  0
    8.0911   -0.5594   18.5876 H   0  0  0  0  0  0  0  0  0  0  0  0
    6.5174    0.0637   19.9336 C   0  0  0  0  0  0  0  0  0  0  0  0
    7.1093   -0.6412   20.9771 O   0  0  0  0  0  0  0  0  0  0  0  0
    6.9848   -0.3049   22.3039 C   0  0  0  0  0  0  0  0  0  0  0  0
    6.4212    0.6585   22.7327 O   0  0  0  0  0  0  0  0  0  0  0  0
    7.7226   -1.3499   23.1314 C   0  0  0  0  0  0  0  0  0  0  0  0
    7.4707   -2.3461   22.7496 H   0  0  0  0  0  0  0  0  0  0  0  0
    7.3764   -1.2652   24.1628 H   0  0  0  0  0  0  0  0  0  0  0  0
    9.2015   -1.0855   23.0243 C   0  0  0  0  0  0  0  0  0  0  0  0
    9.9549    0.0799   24.0875 S   0  0  0  0  0  0  0  0  0  0  0  0
   11.4956   -0.1291   23.2979 C   0  0  0  0  0  0  0  0  0  0  0  0
   12.7065    0.5035   23.6220 C   0  0  0  0  0  0  0  0  0  0  0  0
   12.7595    1.2143   24.4424 H   0  0  0  0  0  0  0  0  0  0  0  0
   13.8372    0.1900   22.8736 C   0  0  0  0  0  0  0  0  0  0  0  0
   14.7729    0.6933   23.1005 H   0  0  0  0  0  0  0  0  0  0  0  0
   13.7682   -0.7608   21.8291 C   0  0  0  0  0  0  0  0  0  0  0  0
   14.6479   -1.0034   21.2448 H   0  0  0  0  0  0  0  0  0  0  0  0
   12.5672   -1.3817   21.5130 C   0  0  0  0  0  0  0  0  0  0  0  0
   12.5156   -2.1169   20.7112 H   0  0  0  0  0  0  0  0  0  0  0  0
   11.4022   -1.0587   22.2402 C   0  0  0  0  0  0  0  0  0  0  0  0
   10.0593   -1.5559   22.0863 C   0  0  0  0  0  0  0  0  0  0  0  0
    9.7558   -2.2068   21.2713 H   0  0  0  0  0  0  0  0  0  0  0  0
    5.3164    0.7573   20.0512 C   0  0  0  0  0  0  0  0  0  0  0  0
    4.8085    0.8222   21.0106 H   0  0  0  0  0  0  0  0  0  0  0  0
    4.8134    1.3610   18.8900 C   0  0  0  0  0  0  0  0  0  0  0  0
    3.8899    1.9262   18.9203 H   0  0  0  0  0  0  0  0  0  0  0  0
  1  2  1  0
  2  3  2  0
  3  4  1  0
  4  5  1  0
  4  6  2  0
  6  7  1  0
  7  8  1  0
  8  9  2  0
  8 10  1  0
 10 11  1  0
 10 12  1  0
 10 13  1  0
 13 14  1  0
 14 15  1  0
 15 16  2  0
 16 17  1  0
 16 18  1  0
 18 19  1  0
 18 20  2  0
 20 21  1  0
 20 22  1  0
 22 23  1  0
 22 24  2  0
 24 25  1  0
 25 26  1  0
  6 27  1  0
 27 28  1  0
 27 29  2  0
 29 30  1  0
 29  2  1  0
 25 13  2  0
 24 15  1  0
M  END
>  <cnnaffinity>  (1) 
-5.12287

>  <filename>  (1) 
O=C(Cc1cc2ccccc2s1)Oc1cccnc1

$$$$
