
     RDKit          3D

 35 37  0  0  0  0  0  0  0  0999 V2000
    4.9515    1.7829   16.9916 H   0  0  0  0  0  0  0  0  0  0  0  0
    5.4098    1.2797   17.8418 C   0  0  0  0  0  0  0  0  0  0  0  0
    6.5715    0.6499   17.6024 N   0  0  0  0  0  0  0  0  0  0  0  0
    7.1677    0.0364   18.6306 C   0  0  0  0  0  0  0  0  0  0  0  0
    8.1131   -0.4504   18.3925 H   0  0  0  0  0  0  0  0  0  0  0  0
    6.6528    0.0205   19.9412 C   0  0  0  0  0  0  0  0  0  0  0  0
    7.3767   -0.6714   21.0081 C   0  0  0  0  0  0  0  0  0  0  0  0
    7.9529   -1.8899   20.7761 N   0  0  0  0  0  0  0  0  0  0  0  0
    8.4202   -2.3014   21.9191 C   0  0  0  0  0  0  0  0  0  0  0  0
    8.9258   -3.2440   22.0898 H   0  0  0  0  0  0  0  0  0  0  0  0
    8.1999   -1.4088   22.9142 N   0  0  0  0  0  0  0  0  0  0  0  0
    8.6203   -1.5065   23.8314 H   0  0  0  0  0  0  0  0  0  0  0  0
    7.5524   -0.3108   22.3300 C   0  0  0  0  0  0  0  0  0  0  0  0
    7.2394    1.0185   22.9077 C   0  0  0  0  0  0  0  0  0  0  0  0
    7.0954    2.0164   22.2133 O   0  0  0  0  0  0  0  0  0  0  0  0
    7.1258    1.0702   24.2621 N   0  0  0  0  0  0  0  0  0  0  0  0
    7.1110    0.2075   24.7764 H   0  0  0  0  0  0  0  0  0  0  0  0
    6.8799    2.3319   24.9515 C   0  0  0  0  0  0  0  0  0  0  0  0
    7.7004    3.0237   24.7120 H   0  0  0  0  0  0  0  0  0  0  0  0
    5.9703    2.7989   24.5459 H   0  0  0  0  0  0  0  0  0  0  0  0
    6.7629    2.1275   26.4507 C   0  0  0  0  0  0  0  0  0  0  0  0
    7.9010    2.1635   27.2742 C   0  0  0  0  0  0  0  0  0  0  0  0
    8.8711    2.3547   26.8174 H   0  0  0  0  0  0  0  0  0  0  0  0
    7.7863    1.9669   28.6566 C   0  0  0  0  0  0  0  0  0  0  0  0
    8.6554    1.9745   29.3048 H   0  0  0  0  0  0  0  0  0  0  0  0
    6.5391    1.7349   29.2360 C   0  0  0  0  0  0  0  0  0  0  0  0
    6.4712    1.5769   30.3093 H   0  0  0  0  0  0  0  0  0  0  0  0
    5.3989    1.6943   28.4303 C   0  0  0  0  0  0  0  0  0  0  0  0
    4.4260    1.5085   28.8762 H   0  0  0  0  0  0  0  0  0  0  0  0
    5.5132    1.8873   27.0490 C   0  0  0  0  0  0  0  0  0  0  0  0
    4.6230    1.8649   26.4235 H   0  0  0  0  0  0  0  0  0  0  0  0
    5.4222    0.6577   20.1624 C   0  0  0  0  0  0  0  0  0  0  0  0
    4.9719    0.6657   21.1531 H   0  0  0  0  0  0  0  0  0  0  0  0
    4.7987    1.3016   19.0973 C   0  0  0  0  0  0  0  0  0  0  0  0
    3.8717    1.8415   19.2407 H   0  0  0  0  0  0  0  0  0  0  0  0
  1  2  1  0
  2  3  2  0
  3  4  1  0
  4  5  1  0
  4  6  2  0
  6  7  1  0
  7  8  1  0
  8  9  2  0
  9 10  1  0
  9 11  1  0
 11 12  1  0
 11 13  1  0
 13 14  1  0
 14 15  2  0
 14 16  1  0
 16 17  1  0
 16 18  1  0
 18 19  1  0
 18 20  1  0
 18 21  1  0
 21 22  2  0
 22 23  1  0
 22 24  1  0
 24 25  1  0
 24 26  2  0
 26 27  1  0
 26 28  1  0
 28 29  1  0
 28 30  2  0
 30 31  1  0
  6 32  1  0
 32 33  1  0
 32 34  2  0
 34 35  1  0
 34  2  1  0
 13  7  2  0
 30 21  1  0
M  END
>  <cnnaffinity>  (1) 
-4.59956

>  <filename>  (1) 
O=C(NCc1ccccc1)c1[nH]cnc1-c1cccnc1

$$$$
