
     RDKit          3D

 35 36  0  0  0  0  0  0  0  0999 V2000
    4.9488    1.7855   17.0062 H   0  0  0  0  0  0  0  0  0  0  0  0
    5.4149    1.2792   17.8454 C   0  0  0  0  0  0  0  0  0  0  0  0
    6.5738    0.6525   17.5815 N   0  0  0  0  0  0  0  0  0  0  0  0
    7.2013    0.0522   18.6039 C   0  0  0  0  0  0  0  0  0  0  0  0
    8.1494   -0.4387   18.3937 H   0  0  0  0  0  0  0  0  0  0  0  0
    6.6778    0.0318   19.9110 C   0  0  0  0  0  0  0  0  0  0  0  0
    7.4295   -0.5525   20.9327 O   0  0  0  0  0  0  0  0  0  0  0  0
    6.8202   -1.4031   21.8285 C   0  0  0  0  0  0  0  0  0  0  0  0
    5.8246   -2.0335   21.5740 O   0  0  0  0  0  0  0  0  0  0  0  0
    7.6542   -1.5541   23.1302 C   0  0  0  0  0  0  0  0  0  0  0  0
    7.4845   -2.5869   23.4356 H   0  0  0  0  0  0  0  0  0  0  0  0
    8.7061   -1.4567   22.8178 H   0  0  0  0  0  0  0  0  0  0  0  0
    7.2917   -0.6908   24.2793 N   0  0  0  0  0  0  0  0  0  0  0  0
    7.5992   -1.0877   25.1692 H   0  0  0  0  0  0  0  0  0  0  0  0
    7.7732    0.6882   24.1968 C   0  0  0  0  0  0  0  0  0  0  0  0
    7.7654    0.9609   23.1285 H   0  0  0  0  0  0  0  0  0  0  0  0
    6.8056    1.6382   24.9171 C   0  0  0  0  0  0  0  0  0  0  0  0
    5.8174    1.5057   24.4623 H   0  0  0  0  0  0  0  0  0  0  0  0
    6.7124    1.3214   25.9697 H   0  0  0  0  0  0  0  0  0  0  0  0
    7.2858    3.1039   24.8352 C   0  0  0  0  0  0  0  0  0  0  0  0
    7.2474    3.4391   23.7844 H   0  0  0  0  0  0  0  0  0  0  0  0
    6.5991    3.7618   25.3843 H   0  0  0  0  0  0  0  0  0  0  0  0
    8.7291    3.2513   25.3672 C   0  0  0  0  0  0  0  0  0  0  0  0
    9.0697    4.2909   25.2749 H   0  0  0  0  0  0  0  0  0  0  0  0
    8.7343    3.0185   26.4442 H   0  0  0  0  0  0  0  0  0  0  0  0
    9.7043    2.2965   24.6469 C   0  0  0  0  0  0  0  0  0  0  0  0
    9.7920    2.5884   23.5868 H   0  0  0  0  0  0  0  0  0  0  0  0
   10.7165    2.3709   25.0643 H   0  0  0  0  0  0  0  0  0  0  0  0
    9.2103    0.8414   24.7315 C   0  0  0  0  0  0  0  0  0  0  0  0
    9.2294    0.4915   25.7799 H   0  0  0  0  0  0  0  0  0  0  0  0
    9.8674    0.1693   24.1621 H   0  0  0  0  0  0  0  0  0  0  0  0
    5.4544    0.6439   20.1694 C   0  0  0  0  0  0  0  0  0  0  0  0
    5.0213    0.6020   21.1674 H   0  0  0  0  0  0  0  0  0  0  0  0
    4.8194    1.2980   19.1119 C   0  0  0  0  0  0  0  0  0  0  0  0
    3.8896    1.8313   19.2586 H   0  0  0  0  0  0  0  0  0  0  0  0
  1  2  1  0
  2  3  2  0
  3  4  1  0
  4  5  1  0
  4  6  2  0
  6  7  1  0
  7  8  1  0
  8  9  2  0
  8 10  1  0
 10 11  1  0
 10 12  1  0
 10 13  1  0
 13 14  1  0
 13 15  1  0
 15 16  1  0
 15 17  1  0
 17 18  1  0
 17 19  1  0
 17 20  1  0
 20 21  1  0
 20 22  1  0
 20 23  1  0
 23 24  1  0
 23 25  1  0
 23 26  1  0
 26 27  1  0
 26 28  1  0
 26 29  1  0
 29 30  1  0
 29 31  1  0
  6 32  1  0
 32 33  1  0
 32 34  2  0
 34 35  1  0
 34  2  1  0
 29 15  1  0
M  END
>  <cnnaffinity>  (1) 
-4.42568

>  <filename>  (1) 
O=C(CNC1CCCCC1)Oc1cccnc1

$$$$
