
     RDKit          3D

 31 33  0  0  0  0  0  0  0  0999 V2000
    4.9252    1.8057   16.8617 H   0  0  0  0  0  0  0  0  0  0  0  0
    5.3850    1.3424   17.7309 C   0  0  0  0  0  0  0  0  0  0  0  0
    6.5383    0.6929   17.5044 N   0  0  0  0  0  0  0  0  0  0  0  0
    7.1276    0.1186   18.5592 C   0  0  0  0  0  0  0  0  0  0  0  0
    8.0544   -0.4195   18.3529 H   0  0  0  0  0  0  0  0  0  0  0  0
    6.6373    0.1849   19.8784 C   0  0  0  0  0  0  0  0  0  0  0  0
    7.3496   -0.4928   20.9989 C   0  0  0  0  0  0  0  0  0  0  0  0
    7.5397   -1.9178   20.9220 C   0  0  0  0  0  0  0  0  0  0  0  0
    7.0954   -2.4132   20.0616 H   0  0  0  0  0  0  0  0  0  0  0  0
    8.1644   -2.6208   21.9063 C   0  0  0  0  0  0  0  0  0  0  0  0
    8.2963   -3.6955   21.9153 H   0  0  0  0  0  0  0  0  0  0  0  0
    8.6739   -1.9257   23.0800 C   0  0  0  0  0  0  0  0  0  0  0  0
    9.2459   -2.4273   24.0307 O   0  0  0  0  0  0  0  0  0  0  0  0
    8.4551   -0.5631   23.0866 N   0  0  0  0  0  0  0  0  0  0  0  0
    8.7514   -0.1468   23.9565 H   0  0  0  0  0  0  0  0  0  0  0  0
    7.7670    0.1657   22.1402 C   0  0  0  0  0  0  0  0  0  0  0  0
    7.4511    1.5572   22.5512 C   0  0  0  0  0  0  0  0  0  0  0  0
    6.7801    1.7403   23.7812 C   0  0  0  0  0  0  0  0  0  0  0  0
    6.5341    0.8664   24.3856 H   0  0  0  0  0  0  0  0  0  0  0  0
    6.4123    3.0137   24.2028 C   0  0  0  0  0  0  0  0  0  0  0  0
    5.8853    3.1441   25.1422 H   0  0  0  0  0  0  0  0  0  0  0  0
    6.7512    4.1365   23.4428 C   0  0  0  0  0  0  0  0  0  0  0  0
    6.4652    5.1364   23.7504 H   0  0  0  0  0  0  0  0  0  0  0  0
    7.4761    3.9638   22.2650 C   0  0  0  0  0  0  0  0  0  0  0  0
    7.9220    5.3950   21.3787 Cl  0  0  0  0  0  0  0  0  0  0  0  0
    7.8175    2.6909   21.7976 C   0  0  0  0  0  0  0  0  0  0  0  0
    8.3660    2.5974   20.8649 H   0  0  0  0  0  0  0  0  0  0  0  0
    5.4257    0.8577   20.0868 C   0  0  0  0  0  0  0  0  0  0  0  0
    5.0214    0.9144   21.1007 H   0  0  0  0  0  0  0  0  0  0  0  0
    4.7810    1.4317   18.9900 C   0  0  0  0  0  0  0  0  0  0  0  0
    3.8396    1.9563   19.1020 H   0  0  0  0  0  0  0  0  0  0  0  0
  1  2  1  0
  2  3  2  0
  3  4  1  0
  4  5  1  0
  4  6  2  0
  6  7  1  0
  7  8  1  0
  8  9  1  0
  8 10  2  0
 10 11  1  0
 10 12  1  0
 12 13  2  0
 12 14  1  0
 14 15  1  0
 14 16  1  0
 16 17  1  0
 17 18  2  0
 18 19  1  0
 18 20  1  0
 20 21  1  0
 20 22  2  0
 22 23  1  0
 22 24  1  0
 24 25  1  0
 24 26  2  0
 26 27  1  0
  6 28  1  0
 28 29  1  0
 28 30  2  0
 30 31  1  0
 30  2  1  0
 16  7  2  0
 26 17  1  0
M  END
>  <cnnaffinity>  (1) 
-4.76695

>  <filename>  (1) 
O=c1ccc(-c2cccnc2)c(-c2cccc(Cl)c2)[nH]1

$$$$
