
     RDKit          3D

 37 40  0  0  0  0  0  0  0  0999 V2000
    5.4562    2.0061   16.6096 H   0  0  0  0  0  0  0  0  0  0  0  0
    5.5911    1.4678   17.5440 C   0  0  0  0  0  0  0  0  0  0  0  0
    6.7209    0.7536   17.6666 N   0  0  0  0  0  0  0  0  0  0  0  0
    6.8983    0.0720   18.8104 C   0  0  0  0  0  0  0  0  0  0  0  0
    7.8313   -0.4754   18.9032 H   0  0  0  0  0  0  0  0  0  0  0  0
    5.9592    0.0192   19.8743 C   0  0  0  0  0  0  0  0  0  0  0  0
    6.1376   -0.7494   21.0472 N   0  0  0  0  0  0  0  0  0  0  0  0
    5.2870   -1.1090   21.4864 H   0  0  0  0  0  0  0  0  0  0  0  0
    7.2135   -1.6493   21.2097 C   0  0  0  0  0  0  0  0  0  0  0  0
    8.4762   -1.5026   21.8447 C   0  0  0  0  0  0  0  0  0  0  0  0
    8.9018   -0.6095   22.2849 H   0  0  0  0  0  0  0  0  0  0  0  0
    9.1381   -2.6613   21.8866 N   0  0  0  0  0  0  0  0  0  0  0  0
    8.3177   -3.5291   21.2829 N   0  0  0  0  0  0  0  0  0  0  0  0
    8.5366   -4.5142   21.2684 H   0  0  0  0  0  0  0  0  0  0  0  0
    7.1638   -2.9779   20.8420 C   0  0  0  0  0  0  0  0  0  0  0  0
    6.1007   -3.7450   20.1045 C   0  0  0  0  0  0  0  0  0  0  0  0
    5.3525   -3.0482   19.7153 H   0  0  0  0  0  0  0  0  0  0  0  0
    6.4884   -4.3229   19.2619 H   0  0  0  0  0  0  0  0  0  0  0  0
    5.4500   -4.6965   20.9925 N   0  0  0  0  0  0  0  0  0  0  0  0
    4.7271   -4.2177   22.0773 C   0  0  0  0  0  0  0  0  0  0  0  0
    4.3998   -3.0602   22.1717 O   0  0  0  0  0  0  0  0  0  0  0  0
    4.5270   -5.3508   23.0050 C   0  0  0  0  0  0  0  0  0  0  0  0
    3.7399   -5.4752   24.1502 C   0  0  0  0  0  0  0  0  0  0  0  0
    3.1253   -4.6581   24.5227 H   0  0  0  0  0  0  0  0  0  0  0  0
    3.7526   -6.7139   24.7967 C   0  0  0  0  0  0  0  0  0  0  0  0
    3.1705   -6.8738   25.7015 H   0  0  0  0  0  0  0  0  0  0  0  0
    4.5237   -7.7781   24.2965 C   0  0  0  0  0  0  0  0  0  0  0  0
    4.4257   -8.7323   24.7806 H   0  0  0  0  0  0  0  0  0  0  0  0
    5.3589   -7.6227   23.1876 C   0  0  0  0  0  0  0  0  0  0  0  0
    5.9993   -8.4217   22.8249 H   0  0  0  0  0  0  0  0  0  0  0  0
    5.3292   -6.3937   22.5419 C   0  0  0  0  0  0  0  0  0  0  0  0
    6.0571   -5.8961   21.3478 C   0  0  0  0  0  0  0  0  0  0  0  0
    7.0544   -6.3218   20.8040 O   0  0  0  0  0  0  0  0  0  0  0  0
    4.8080    0.8120   19.7297 C   0  0  0  0  0  0  0  0  0  0  0  0
    4.1024    0.8656   20.5581 H   0  0  0  0  0  0  0  0  0  0  0  0
    4.6153    1.5320   18.5448 C   0  0  0  0  0  0  0  0  0  0  0  0
    3.7364    2.1562   18.4075 H   0  0  0  0  0  0  0  0  0  0  0  0
  1  2  1  0
  2  3  2  0
  3  4  1  0
  4  5  1  0
  4  6  2  0
  6  7  1  0
  7  8  1  0
  7  9  1  0
  9 10  1  0
 10 11  1  0
 10 12  2  0
 12 13  1  0
 13 14  1  0
 13 15  1  0
 15 16  1  0
 16 17  1  0
 16 18  1  0
 16 19  1  0
 19 20  1  0
 20 21  2  0
 20 22  1  0
 22 23  2  0
 23 24  1  0
 23 25  1  0
 25 26  1  0
 25 27  2  0
 27 28  1  0
 27 29  1  0
 29 30  1  0
 29 31  2  0
 31 32  1  0
 32 33  2  0
  6 34  1  0
 34 35  1  0
 34 36  2  0
 36 37  1  0
 36  2  1  0
 15  9  2  0
 32 19  1  0
 31 22  1  0
M  END
>  <cnnaffinity>  (1) 
-5.51988

>  <filename>  (1) 
O=C1c2ccccc2C(=O)N1Cc1[nH]ncc1Nc1cccnc1

$$$$
