
     RDKit          3D

 35 37  0  0  0  0  0  0  0  0999 V2000
    9.2587   -2.6243   23.9825 O   0  0  0  0  0  0  0  0  0  0  0  0
    8.6555   -2.1504   23.0379 C   0  0  0  0  0  0  0  0  0  0  0  0
    7.2088   -2.4573   22.7499 C   0  0  0  0  0  0  0  0  0  0  0  0
    6.5141   -1.2539   22.1273 C   0  0  0  0  0  0  0  0  0  0  0  0
    7.3255   -0.6559   21.0069 C   0  0  0  0  0  0  0  0  0  0  0  0
    8.6186   -0.7282   20.9849 N   0  0  0  0  0  0  0  0  0  0  0  0
    9.2590   -1.3003   22.0857 N   0  0  0  0  0  0  0  0  0  0  0  0
   10.6669   -1.0662   22.1764 C   0  0  0  0  0  0  0  0  0  0  0  0
   11.5068   -2.1857   22.2319 C   0  0  0  0  0  0  0  0  0  0  0  0
   12.8908   -2.0519   22.1701 C   0  0  0  0  0  0  0  0  0  0  0  0
   13.4343   -0.7832   22.2556 C   0  0  0  0  0  0  0  0  0  0  0  0
   14.7543   -0.6463   22.4160 F   0  0  0  0  0  0  0  0  0  0  0  0
   12.6437    0.3507   22.2154 C   0  0  0  0  0  0  0  0  0  0  0  0
   11.2393    0.2280   22.1740 C   0  0  0  0  0  0  0  0  0  0  0  0
   10.4070    1.5012   22.2046 C   0  0  0  0  0  0  0  0  0  0  0  0
    9.9513    1.8352   20.9866 F   0  0  0  0  0  0  0  0  0  0  0  0
    9.3531    1.4110   23.0304 F   0  0  0  0  0  0  0  0  0  0  0  0
   11.1271    2.5597   22.6366 F   0  0  0  0  0  0  0  0  0  0  0  0
   13.1446    1.3127   22.2275 H   0  0  0  0  0  0  0  0  0  0  0  0
   13.5539   -2.9081   22.1270 H   0  0  0  0  0  0  0  0  0  0  0  0
   11.0566   -3.1622   22.3380 H   0  0  0  0  0  0  0  0  0  0  0  0
    6.6402    0.0519   19.9054 C   0  0  0  0  0  0  0  0  0  0  0  0
    5.4100    0.7066   20.0901 C   0  0  0  0  0  0  0  0  0  0  0  0
    4.8218    1.3420   19.0020 C   0  0  0  0  0  0  0  0  0  0  0  0
    5.4750    1.2921   17.7668 C   0  0  0  0  0  0  0  0  0  0  0  0
    6.6479    0.6693   17.5726 N   0  0  0  0  0  0  0  0  0  0  0  0
    7.2236    0.0833   18.6278 C   0  0  0  0  0  0  0  0  0  0  0  0
    8.1863   -0.3947   18.4528 H   0  0  0  0  0  0  0  0  0  0  0  0
    5.0327    1.7686   16.8952 H   0  0  0  0  0  0  0  0  0  0  0  0
    3.8807    1.8724   19.0993 H   0  0  0  0  0  0  0  0  0  0  0  0
    4.9283    0.7254   21.0698 H   0  0  0  0  0  0  0  0  0  0  0  0
    5.5329   -1.5391   21.7380 H   0  0  0  0  0  0  0  0  0  0  0  0
    6.3766   -0.4813   22.8985 H   0  0  0  0  0  0  0  0  0  0  0  0
    7.1974   -3.3266   22.0824 H   0  0  0  0  0  0  0  0  0  0  0  0
    6.7489   -2.7658   23.6889 H   0  0  0  0  0  0  0  0  0  0  0  0
  1  2  2  0
  2  3  1  0
  3  4  1  0
  4  5  1  0
  5  6  2  0
  6  7  1  0
  7  8  1  0
  8  9  2  0
  9 10  1  0
 10 11  2  0
 11 12  1  0
 11 13  1  0
 13 14  2  0
 14 15  1  0
 15 16  1  0
 15 17  1  0
 15 18  1  0
 13 19  1  0
 10 20  1  0
  9 21  1  0
  5 22  1  0
 22 23  2  0
 23 24  1  0
 24 25  2  0
 25 26  1  0
 26 27  2  0
 27 28  1  0
 25 29  1  0
 24 30  1  0
 23 31  1  0
  4 32  1  0
  4 33  1  0
  3 34  1  0
  3 35  1  0
  7  2  1  0
 14  8  1  0
 27 22  1  0
M  END
>  <cnnaffinity>  (1) 
-6.08062

>  <filename>  (1) 
O=C1CCC(c2cccnc2)=NN1c1ccc(F)cc1C(F)(F)F

$$$$
