
     RDKit          3D

 31 33  0  0  0  0  0  0  0  0999 V2000
    4.9438    1.8589   16.9457 H   0  0  0  0  0  0  0  0  0  0  0  0
    5.4083    1.3309   17.7758 C   0  0  0  0  0  0  0  0  0  0  0  0
    6.5736    0.7182   17.5156 N   0  0  0  0  0  0  0  0  0  0  0  0
    7.1600    0.0751   18.5345 C   0  0  0  0  0  0  0  0  0  0  0  0
    8.1095   -0.4035   18.2967 H   0  0  0  0  0  0  0  0  0  0  0  0
    6.6283   -0.0141   19.8406 C   0  0  0  0  0  0  0  0  0  0  0  0
    7.3474   -0.7246   20.9765 C   0  0  2  0  0  0  0  0  0  0  0  0
    8.1862   -1.2865   20.5460 H   0  0  0  0  0  0  0  0  0  0  0  0
    6.5090   -1.7768   21.7280 C   0  0  0  0  0  0  0  0  0  0  0  0
    5.8513   -2.6817   21.2673 O   0  0  0  0  0  0  0  0  0  0  0  0
    6.7000   -1.5589   23.0751 N   0  0  0  0  0  0  0  0  0  0  0  0
    5.9193   -1.9335   23.5981 H   0  0  0  0  0  0  0  0  0  0  0  0
    7.0827   -0.1873   23.3576 C   0  0  0  0  0  0  0  0  0  0  0  0
    6.2007    0.4503   23.5323 H   0  0  0  0  0  0  0  0  0  0  0  0
    7.6914   -0.1181   24.2674 H   0  0  0  0  0  0  0  0  0  0  0  0
    7.8310    0.2526   22.0893 C   0  0  1  0  0  0  0  0  0  0  0  0
    7.5812    1.2900   21.8643 H   0  0  0  0  0  0  0  0  0  0  0  0
    9.3241    0.2454   22.2622 C   0  0  0  0  0  0  0  0  0  0  0  0
   10.0581    1.2813   22.1818 N   0  0  0  0  0  0  0  0  0  0  0  0
   11.4446    0.8491   22.4151 C   0  0  0  0  0  0  0  0  0  0  0  0
   12.0371    0.9127   21.4903 H   0  0  0  0  0  0  0  0  0  0  0  0
   11.9290    1.5092   23.1440 H   0  0  0  0  0  0  0  0  0  0  0  0
   11.3394   -0.6095   22.9260 C   0  0  0  0  0  0  0  0  0  0  0  0
   11.4543   -0.6563   24.0190 H   0  0  0  0  0  0  0  0  0  0  0  0
   12.0732   -1.2823   22.4675 H   0  0  0  0  0  0  0  0  0  0  0  0
    9.9715   -0.9575   22.5097 N   0  0  0  0  0  0  0  0  0  0  0  0
    9.4459   -1.5919   23.0954 H   0  0  0  0  0  0  0  0  0  0  0  0
    5.4185    0.6444   20.0827 C   0  0  0  0  0  0  0  0  0  0  0  0
    4.9773    0.6491   21.0843 H   0  0  0  0  0  0  0  0  0  0  0  0
    4.7934    1.3215   19.0332 C   0  0  0  0  0  0  0  0  0  0  0  0
    3.8648    1.8584   19.1855 H   0  0  0  0  0  0  0  0  0  0  0  0
  1  2  1  0
  2  3  2  0
  3  4  1  0
  4  5  1  0
  4  6  2  0
  6  7  1  0
  7  8  1  6
  7  9  1  0
  9 10  2  0
  9 11  1  0
 11 12  1  0
 11 13  1  0
 13 14  1  0
 13 15  1  0
 13 16  1  0
 16 17  1  6
 16 18  1  0
 18 19  2  0
 19 20  1  0
 20 21  1  0
 20 22  1  0
 20 23  1  0
 23 24  1  0
 23 25  1  0
 23 26  1  0
 26 27  1  0
  6 28  1  0
 28 29  1  0
 28 30  2  0
 30 31  1  0
 30  2  1  0
 16  7  1  0
 26 18  1  0
M  END
>  <cnnaffinity>  (1) 
-4.88923

>  <filename>  (1) 
O=C1NC[C@@H](C2=NCCN2)[C@@H]1c1cccnc1

$$$$
