
     RDKit          3D

 40 43  0  0  0  0  0  0  0  0999 V2000
   10.1783   -1.8566   24.8989 O   0  0  0  0  0  0  0  0  0  0  0  0
   10.7396   -1.0045   24.2336 C   0  0  0  0  0  0  0  0  0  0  0  0
   11.4421    0.1415   24.7881 C   0  0  0  0  0  0  0  0  0  0  0  0
   12.2234    0.9418   24.0037 C   0  0  0  0  0  0  0  0  0  0  0  0
   12.3266    0.6862   22.5971 C   0  0  0  0  0  0  0  0  0  0  0  0
   11.6030   -0.3249   22.0445 C   0  0  0  0  0  0  0  0  0  0  0  0
   10.7988   -1.1346   22.8166 N   0  0  0  0  0  0  0  0  0  0  0  0
    9.9550   -2.1606   22.1677 C   0  0  0  0  0  0  0  0  0  0  0  0
    8.5891   -1.6671   21.7660 C   0  0  0  0  0  0  0  0  0  0  0  0
    8.2886   -1.2102   20.5676 N   0  0  0  0  0  0  0  0  0  0  0  0
    7.0558   -0.6649   20.7427 C   0  0  0  0  0  0  0  0  0  0  0  0
    6.3633    0.0496   19.6722 C   0  0  0  0  0  0  0  0  0  0  0  0
    5.1759    0.7790   19.8681 C   0  0  0  0  0  0  0  0  0  0  0  0
    4.6689    1.4890   18.7829 C   0  0  0  0  0  0  0  0  0  0  0  0
    5.3491    1.4423   17.5595 C   0  0  0  0  0  0  0  0  0  0  0  0
    6.4717    0.7361   17.3609 N   0  0  0  0  0  0  0  0  0  0  0  0
    6.9634    0.0644   18.4056 C   0  0  0  0  0  0  0  0  0  0  0  0
    7.8895   -0.4806   18.2375 H   0  0  0  0  0  0  0  0  0  0  0  0
    4.9756    1.9933   16.7004 H   0  0  0  0  0  0  0  0  0  0  0  0
    3.7730    2.0925   18.8722 H   0  0  0  0  0  0  0  0  0  0  0  0
    4.6889    0.8034   20.8470 H   0  0  0  0  0  0  0  0  0  0  0  0
    6.5817   -0.7740   21.9665 N   0  0  0  0  0  0  0  0  0  0  0  0
    7.5523   -1.4555   22.6224 N   0  0  0  0  0  0  0  0  0  0  0  0
    7.4257   -1.7537   24.0206 C   0  0  0  0  0  0  0  0  0  0  0  0
    7.4947   -3.0755   24.4783 C   0  0  0  0  0  0  0  0  0  0  0  0
    7.5917   -3.2841   25.8489 C   0  0  0  0  0  0  0  0  0  0  0  0
    7.7030   -4.5402   26.3083 F   0  0  0  0  0  0  0  0  0  0  0  0
    7.5824   -2.2421   26.7673 C   0  0  0  0  0  0  0  0  0  0  0  0
    7.3983   -0.9381   26.2996 C   0  0  0  0  0  0  0  0  0  0  0  0
    7.2809   -0.6949   24.9285 C   0  0  0  0  0  0  0  0  0  0  0  0
    7.0936    0.2997   24.5416 H   0  0  0  0  0  0  0  0  0  0  0  0
    7.3626   -0.1123   27.0095 H   0  0  0  0  0  0  0  0  0  0  0  0
    7.7562   -2.4677   27.8082 H   0  0  0  0  0  0  0  0  0  0  0  0
    7.4245   -3.9300   23.8173 H   0  0  0  0  0  0  0  0  0  0  0  0
    9.8813   -3.0156   22.8419 H   0  0  0  0  0  0  0  0  0  0  0  0
   10.4655   -2.4866   21.2589 H   0  0  0  0  0  0  0  0  0  0  0  0
   11.5768   -0.5349   20.9711 H   0  0  0  0  0  0  0  0  0  0  0  0
   12.9931    1.2705   21.9668 H   0  0  0  0  0  0  0  0  0  0  0  0
   12.7849    1.7669   24.4454 H   0  0  0  0  0  0  0  0  0  0  0  0
   11.3320    0.2469   25.8607 H   0  0  0  0  0  0  0  0  0  0  0  0
  1  2  2  0
  2  3  1  0
  3  4  2  0
  4  5  1  0
  5  6  2  0
  6  7  1  0
  7  8  1  0
  8  9  1  0
  9 10  2  0
 10 11  1  0
 11 12  1  0
 12 13  2  0
 13 14  1  0
 14 15  2  0
 15 16  1  0
 16 17  2  0
 17 18  1  0
 15 19  1  0
 14 20  1  0
 13 21  1  0
 11 22  2  0
 22 23  1  0
 23 24  1  0
 24 25  2  0
 25 26  1  0
 26 27  1  0
 26 28  2  0
 28 29  1  0
 29 30  2  0
 30 31  1  0
 29 32  1  0
 28 33  1  0
 25 34  1  0
  8 35  1  0
  8 36  1  0
  6 37  1  0
  5 38  1  0
  4 39  1  0
  3 40  1  0
  7  2  1  0
 23  9  1  0
 30 24  1  0
 17 12  1  0
M  END
>  <cnnaffinity>  (1) 
-5.97762

>  <filename>  (1) 
O=c1ccccn1Cc1nc(-c2cccnc2)nn1-c1cccc(F)c1

$$$$
