
     RDKit          3D

 40 42  0  0  0  0  0  0  0  0999 V2000
    6.7333    1.0985   25.5193 O   0  0  0  0  0  0  0  0  0  0  0  0
    7.8267    1.2509   25.0100 C   0  0  0  0  0  0  0  0  0  0  0  0
    9.0789    0.7310   25.6894 C   0  0  0  0  0  0  0  0  0  0  0  0
   10.3233    1.5144   25.3227 C   0  0  0  0  0  0  0  0  0  0  0  0
   10.4506    1.5250   23.7946 C   0  0  0  0  0  0  0  0  0  0  0  0
   11.7587    2.1459   23.3380 C   0  0  0  0  0  0  0  0  0  0  0  0
   11.8452    3.4472   23.6960 F   0  0  0  0  0  0  0  0  0  0  0  0
   11.9138    2.0894   22.0025 F   0  0  0  0  0  0  0  0  0  0  0  0
   12.8197    1.5203   23.8868 F   0  0  0  0  0  0  0  0  0  0  0  0
    9.2399    2.2247   23.1527 C   0  0  0  0  0  0  0  0  0  0  0  0
    7.9681    1.7725   23.7189 N   0  0  0  0  0  0  0  0  0  0  0  0
    6.9432    1.3396   22.7531 C   0  0  0  0  0  0  0  0  0  0  0  0
    7.2228   -0.0543   22.2645 C   0  0  0  0  0  0  0  0  0  0  0  0
    7.8125   -0.9760   22.9959 N   0  0  0  0  0  0  0  0  0  0  0  0
    8.0556   -1.9768   22.1157 C   0  0  0  0  0  0  0  0  0  0  0  0
    8.7547   -3.1929   22.6882 C   0  0  0  0  0  0  0  0  0  0  0  0
    8.4403   -4.3325   22.0291 F   0  0  0  0  0  0  0  0  0  0  0  0
   10.1153   -3.0476   22.6485 F   0  0  0  0  0  0  0  0  0  0  0  0
    8.4663   -3.2722   23.7397 H   0  0  0  0  0  0  0  0  0  0  0  0
    7.6628   -1.7326   20.8796 N   0  0  0  0  0  0  0  0  0  0  0  0
    7.0770   -0.5121   20.9831 N   0  0  0  0  0  0  0  0  0  0  0  0
    6.4489    0.1116   19.8647 C   0  0  0  0  0  0  0  0  0  0  0  0
    5.2475    0.8248   19.9934 C   0  0  0  0  0  0  0  0  0  0  0  0
    4.7337    1.4597   18.8605 C   0  0  0  0  0  0  0  0  0  0  0  0
    5.4249    1.3608   17.6503 C   0  0  0  0  0  0  0  0  0  0  0  0
    6.5582    0.6500   17.5129 N   0  0  0  0  0  0  0  0  0  0  0  0
    7.0482    0.0346   18.5921 C   0  0  0  0  0  0  0  0  0  0  0  0
    7.9679   -0.5279   18.4513 H   0  0  0  0  0  0  0  0  0  0  0  0
    5.0557    1.8585   16.7567 H   0  0  0  0  0  0  0  0  0  0  0  0
    3.8199    2.0423   18.9102 H   0  0  0  0  0  0  0  0  0  0  0  0
    4.7218    0.8942   20.9483 H   0  0  0  0  0  0  0  0  0  0  0  0
    5.9855    1.3456   23.2831 H   0  0  0  0  0  0  0  0  0  0  0  0
    6.9060    2.0432   21.9145 H   0  0  0  0  0  0  0  0  0  0  0  0
    9.3328    3.3157   23.2463 H   0  0  0  0  0  0  0  0  0  0  0  0
    9.2361    2.0011   22.0754 H   0  0  0  0  0  0  0  0  0  0  0  0
   10.4672    0.4894   23.4319 H   0  0  0  0  0  0  0  0  0  0  0  0
   10.2154    2.5355   25.6909 H   0  0  0  0  0  0  0  0  0  0  0  0
   11.2180    1.0817   25.7827 H   0  0  0  0  0  0  0  0  0  0  0  0
    9.1765   -0.3035   25.3356 H   0  0  0  0  0  0  0  0  0  0  0  0
    8.8658    0.7026   26.7583 H   0  0  0  0  0  0  0  0  0  0  0  0
  1  2  2  0
  2  3  1  0
  3  4  1  0
  4  5  1  0
  5  6  1  0
  6  7  1  0
  6  8  1  0
  6  9  1  0
  5 10  1  0
 10 11  1  0
 11 12  1  0
 12 13  1  0
 13 14  2  0
 14 15  1  0
 15 16  1  0
 16 17  1  0
 16 18  1  0
 16 19  1  0
 15 20  2  0
 20 21  1  0
 21 22  1  0
 22 23  2  0
 23 24  1  0
 24 25  2  0
 25 26  1  0
 26 27  2  0
 27 28  1  0
 25 29  1  0
 24 30  1  0
 23 31  1  0
 12 32  1  0
 12 33  1  0
 10 34  1  0
 10 35  1  0
  5 36  1  0
  4 37  1  0
  4 38  1  0
  3 39  1  0
  3 40  1  0
 11  2  1  0
 21 13  1  0
 27 22  1  0
M  END
>  <cnnaffinity>  (1) 
-6.09448

>  <filename>  (1) 
O=C1CCC(C(F)(F)F)CN1Cc1nc(C(F)F)nn1-c1cccnc1

$$$$
