
     RDKit          3D

 35 38  0  0  0  0  0  0  0  0999 V2000
    4.9854    1.7936   17.0016 H   0  0  0  0  0  0  0  0  0  0  0  0
    5.4292    1.2912   17.8612 C   0  0  0  0  0  0  0  0  0  0  0  0
    6.5950    0.6641   17.6365 N   0  0  0  0  0  0  0  0  0  0  0  0
    7.1659    0.0460   18.6780 C   0  0  0  0  0  0  0  0  0  0  0  0
    8.1058   -0.4592   18.4736 H   0  0  0  0  0  0  0  0  0  0  0  0
    6.6377    0.0198   19.9894 C   0  0  0  0  0  0  0  0  0  0  0  0
    7.3401   -0.6809   21.0952 C   0  0  0  0  0  0  0  0  0  0  0  0
    7.5938   -2.3894   21.0122 S   0  0  0  0  0  0  0  0  0  0  0  0
    8.5031   -2.3935   22.4686 C   0  0  0  0  0  0  0  0  0  0  0  0
    8.9823   -3.3036   22.8132 H   0  0  0  0  0  0  0  0  0  0  0  0
    8.5474   -1.1606   23.0351 C   0  0  0  0  0  0  0  0  0  0  0  0
    9.0617   -0.9596   23.9718 H   0  0  0  0  0  0  0  0  0  0  0  0
    7.8442   -0.1674   22.2695 C   0  0  0  0  0  0  0  0  0  0  0  0
    7.7024    1.2806   22.6952 C   0  0  0  0  0  0  0  0  0  0  0  0
    8.6568    1.8042   22.6166 H   0  0  0  0  0  0  0  0  0  0  0  0
    7.0187    1.8025   22.0261 H   0  0  0  0  0  0  0  0  0  0  0  0
    7.2266    1.4379   24.0618 N   0  0  0  0  0  0  0  0  0  0  0  0
    8.0698    1.4527   25.1700 C   0  0  0  0  0  0  0  0  0  0  0  0
    9.2684    1.6112   25.1154 O   0  0  0  0  0  0  0  0  0  0  0  0
    7.2129    1.2010   26.3587 C   0  0  0  0  0  0  0  0  0  0  0  0
    7.5398    1.1812   27.7114 C   0  0  0  0  0  0  0  0  0  0  0  0
    8.5478    1.4019   28.0360 H   0  0  0  0  0  0  0  0  0  0  0  0
    6.5231    0.8949   28.6255 C   0  0  0  0  0  0  0  0  0  0  0  0
    6.7540    0.8901   29.6898 H   0  0  0  0  0  0  0  0  0  0  0  0
    5.2080    0.6277   28.1816 C   0  0  0  0  0  0  0  0  0  0  0  0
    4.4379    0.3953   28.9173 H   0  0  0  0  0  0  0  0  0  0  0  0
    4.8861    0.6593   26.8161 C   0  0  0  0  0  0  0  0  0  0  0  0
    3.8727    0.4387   26.4779 H   0  0  0  0  0  0  0  0  0  0  0  0
    5.9100    0.9785   25.9152 C   0  0  0  0  0  0  0  0  0  0  0  0
    5.9046    1.2049   24.4352 C   0  0  0  0  0  0  0  0  0  0  0  0
    4.9644    1.2465   23.6751 O   0  0  0  0  0  0  0  0  0  0  0  0
    5.4169    0.6831   20.1991 C   0  0  0  0  0  0  0  0  0  0  0  0
    4.9680    0.7146   21.1956 H   0  0  0  0  0  0  0  0  0  0  0  0
    4.8010    1.3107   19.1097 C   0  0  0  0  0  0  0  0  0  0  0  0
    3.8522    1.8199   19.2161 H   0  0  0  0  0  0  0  0  0  0  0  0
  1  2  1  0
  2  3  2  0
  3  4  1  0
  4  5  1  0
  4  6  2  0
  6  7  1  0
  7  8  1  0
  8  9  1  0
  9 10  1  0
  9 11  2  0
 11 12  1  0
 11 13  1  0
 13 14  1  0
 14 15  1  0
 14 16  1  0
 14 17  1  0
 17 18  1  0
 18 19  2  0
 18 20  1  0
 20 21  2  0
 21 22  1  0
 21 23  1  0
 23 24  1  0
 23 25  2  0
 25 26  1  0
 25 27  1  0
 27 28  1  0
 27 29  2  0
 29 30  1  0
 30 31  2  0
  6 32  1  0
 32 33  1  0
 32 34  2  0
 34 35  1  0
 34  2  1  0
 13  7  2  0
 30 17  1  0
 29 20  1  0
M  END
>  <cnnaffinity>  (1) 
-5.21982

>  <filename>  (1) 
O=C1c2ccccc2C(=O)N1Cc1ccsc1-c1cccnc1

$$$$
