
     RDKit          3D

 29 31  0  0  0  0  0  0  0  0999 V2000
    4.9868    1.8373   16.9474 H   0  0  0  0  0  0  0  0  0  0  0  0
    5.4566    1.3275   17.7872 C   0  0  0  0  0  0  0  0  0  0  0  0
    6.6471    0.7593   17.5408 N   0  0  0  0  0  0  0  0  0  0  0  0
    7.2447    0.1240   18.5537 C   0  0  0  0  0  0  0  0  0  0  0  0
    8.2319   -0.2880   18.3550 H   0  0  0  0  0  0  0  0  0  0  0  0
    6.6629   -0.0421   19.8248 C   0  0  0  0  0  0  0  0  0  0  0  0
    7.3965   -0.8607   20.8430 C   0  0  0  0  0  0  0  0  0  0  0  0
    8.6744   -0.6111   20.8994 N   0  0  0  0  0  0  0  0  0  0  0  0
    9.4342   -1.1016   21.9351 N   0  0  0  0  0  0  0  0  0  0  0  0
   10.8213   -0.7087   22.0007 C   0  0  0  0  0  0  0  0  0  0  0  0
   11.0881    0.6044   21.9750 N   0  0  0  0  0  0  0  0  0  0  0  0
   12.3633    0.9865   22.1034 C   0  0  0  0  0  0  0  0  0  0  0  0
   12.5795    2.0543   22.1021 H   0  0  0  0  0  0  0  0  0  0  0  0
   13.4139    0.0758   22.2239 C   0  0  0  0  0  0  0  0  0  0  0  0
   14.6771    0.5173   22.3205 F   0  0  0  0  0  0  0  0  0  0  0  0
   13.1552   -1.2896   22.2079 C   0  0  0  0  0  0  0  0  0  0  0  0
   13.9934   -1.9747   22.2705 H   0  0  0  0  0  0  0  0  0  0  0  0
   11.8154   -1.6932   22.1291 C   0  0  0  0  0  0  0  0  0  0  0  0
   11.5172   -2.7337   22.1435 H   0  0  0  0  0  0  0  0  0  0  0  0
    8.8690   -1.8951   22.9201 C   0  0  0  0  0  0  0  0  0  0  0  0
    9.5271   -2.2034   23.7350 H   0  0  0  0  0  0  0  0  0  0  0  0
    7.5741   -2.2768   22.8696 C   0  0  0  0  0  0  0  0  0  0  0  0
    7.1158   -2.8967   23.6288 H   0  0  0  0  0  0  0  0  0  0  0  0
    6.7234   -1.9016   21.7393 C   0  0  0  0  0  0  0  0  0  0  0  0
    5.6149   -2.3865   21.5539 O   0  0  0  0  0  0  0  0  0  0  0  0
    5.4478    0.6100   20.0828 C   0  0  0  0  0  0  0  0  0  0  0  0
    5.0072    0.5826   21.0804 H   0  0  0  0  0  0  0  0  0  0  0  0
    4.8334    1.3011   19.0369 C   0  0  0  0  0  0  0  0  0  0  0  0
    3.9033    1.8369   19.1816 H   0  0  0  0  0  0  0  0  0  0  0  0
  1  2  1  0
  2  3  2  0
  3  4  1  0
  4  5  1  0
  4  6  2  0
  6  7  1  0
  7  8  2  0
  8  9  1  0
  9 10  1  0
 10 11  2  0
 11 12  1  0
 12 13  1  0
 12 14  2  0
 14 15  1  0
 14 16  1  0
 16 17  1  0
 16 18  2  0
 18 19  1  0
  9 20  1  0
 20 21  1  0
 20 22  2  0
 22 23  1  0
 22 24  1  0
 24 25  2  0
  6 26  1  0
 26 27  1  0
 26 28  2  0
 28 29  1  0
 28  2  1  0
 24  7  1  0
 18 10  1  0
M  END
>  <cnnaffinity>  (1) 
-5.19012

>  <filename>  (1) 
O=c1ccn(-c2ccc(F)cn2)nc1-c1cccnc1

$$$$
