
     RDKit          3D

 31 33  0  0  0  0  0  0  0  0999 V2000
    4.9047    1.8439   16.9398 H   0  0  0  0  0  0  0  0  0  0  0  0
    5.3824    1.3423   17.7789 C   0  0  0  0  0  0  0  0  0  0  0  0
    6.5478    0.7336   17.5100 N   0  0  0  0  0  0  0  0  0  0  0  0
    7.1680    0.1110   18.5197 C   0  0  0  0  0  0  0  0  0  0  0  0
    8.1110   -0.3706   18.2598 H   0  0  0  0  0  0  0  0  0  0  0  0
    6.6579    0.0179   19.8383 C   0  0  0  0  0  0  0  0  0  0  0  0
    7.3829   -0.7097   20.9316 C   0  0  0  0  0  0  0  0  0  0  0  0
    8.6808   -0.4341   21.1995 C   0  0  0  0  0  0  0  0  0  0  0  0
    9.2523    0.3082   20.6412 H   0  0  0  0  0  0  0  0  0  0  0  0
    9.4008   -1.0656   22.2128 N   0  0  0  0  0  0  0  0  0  0  0  0
   10.7938   -0.7454   22.3831 C   0  0  0  0  0  0  0  0  0  0  0  0
   11.7718   -1.7274   22.1949 C   0  0  0  0  0  0  0  0  0  0  0  0
   11.4314   -2.7412   22.0309 H   0  0  0  0  0  0  0  0  0  0  0  0
   13.1337   -1.4176   22.2609 C   0  0  0  0  0  0  0  0  0  0  0  0
   13.9162   -2.1454   22.0707 H   0  0  0  0  0  0  0  0  0  0  0  0
   13.4898   -0.1299   22.6391 C   0  0  0  0  0  0  0  0  0  0  0  0
   14.7805    0.1628   22.8098 F   0  0  0  0  0  0  0  0  0  0  0  0
   12.5575    0.8762   22.8652 C   0  0  0  0  0  0  0  0  0  0  0  0
   12.8617    1.8735   23.1550 H   0  0  0  0  0  0  0  0  0  0  0  0
   11.2160    0.5576   22.6973 C   0  0  0  0  0  0  0  0  0  0  0  0
   10.3111    1.5349   22.8581 F   0  0  0  0  0  0  0  0  0  0  0  0
    8.7969   -2.0267   23.0495 C   0  0  0  0  0  0  0  0  0  0  0  0
    9.3657   -2.6513   23.9133 O   0  0  0  0  0  0  0  0  0  0  0  0
    7.4730   -2.2135   22.8188 N   0  0  0  0  0  0  0  0  0  0  0  0
    7.0568   -2.9490   23.3564 H   0  0  0  0  0  0  0  0  0  0  0  0
    6.7162   -1.7662   21.7536 C   0  0  0  0  0  0  0  0  0  0  0  0
    5.6375   -2.2906   21.5799 O   0  0  0  0  0  0  0  0  0  0  0  0
    5.4312    0.6609   20.0832 C   0  0  0  0  0  0  0  0  0  0  0  0
    5.0047    0.6134   21.0850 H   0  0  0  0  0  0  0  0  0  0  0  0
    4.7886    1.3405   19.0429 C   0  0  0  0  0  0  0  0  0  0  0  0
    3.8480    1.8616   19.1904 H   0  0  0  0  0  0  0  0  0  0  0  0
  1  2  1  0
  2  3  2  0
  3  4  1  0
  4  5  1  0
  4  6  2  0
  6  7  1  0
  7  8  2  0
  8  9  1  0
  8 10  1  0
 10 11  1  0
 11 12  2  0
 12 13  1  0
 12 14  1  0
 14 15  1  0
 14 16  2  0
 16 17  1  0
 16 18  1  0
 18 19  1  0
 18 20  2  0
 20 21  1  0
 10 22  1  0
 22 23  2  0
 22 24  1  0
 24 25  1  0
 24 26  1  0
 26 27  2  0
  6 28  1  0
 28 29  1  0
 28 30  2  0
 30 31  1  0
 30  2  1  0
 26  7  1  0
 20 11  1  0
M  END
>  <cnnaffinity>  (1) 
-5.3764

>  <filename>  (1) 
O=c1[nH]c(=O)n(-c2ccc(F)cc2F)cc1-c1cccnc1

$$$$
