
     RDKit          3D

 33 36  0  0  0  0  0  0  0  0999 V2000
    4.8476    1.7285   16.9849 H   0  0  0  0  0  0  0  0  0  0  0  0
    5.3688    1.2834   17.8292 C   0  0  0  0  0  0  0  0  0  0  0  0
    6.5574    0.7123   17.5522 N   0  0  0  0  0  0  0  0  0  0  0  0
    7.2336    0.1884   18.5683 C   0  0  0  0  0  0  0  0  0  0  0  0
    8.1869   -0.2945   18.3596 H   0  0  0  0  0  0  0  0  0  0  0  0
    6.7971    0.2096   19.9236 C   0  0  0  0  0  0  0  0  0  0  0  0
    7.6623   -0.3479   20.8579 N   0  0  0  0  0  0  0  0  0  0  0  0
    7.6535   -0.0736   22.1090 C   0  0  0  0  0  0  0  0  0  0  0  0
    7.3455    1.2370   22.7236 C   0  0  0  0  0  0  0  0  0  0  0  0
    7.8394    2.3990   22.1305 C   0  0  0  0  0  0  0  0  0  0  0  0
    8.4609    2.3640   21.2370 H   0  0  0  0  0  0  0  0  0  0  0  0
    7.6367    3.6565   22.6048 N   0  0  0  0  0  0  0  0  0  0  0  0
    6.9204    3.8010   23.6974 C   0  0  0  0  0  0  0  0  0  0  0  0
    6.7563    4.8176   24.0630 H   0  0  0  0  0  0  0  0  0  0  0  0
    6.3635    2.7156   24.4362 C   0  0  0  0  0  0  0  0  0  0  0  0
    5.6168    2.9251   25.6332 C   0  0  0  0  0  0  0  0  0  0  0  0
    5.4756    3.9407   25.9929 H   0  0  0  0  0  0  0  0  0  0  0  0
    5.0730    1.8614   26.3073 C   0  0  0  0  0  0  0  0  0  0  0  0
    4.4972    2.0268   27.2118 H   0  0  0  0  0  0  0  0  0  0  0  0
    5.2462    0.5435   25.8158 C   0  0  0  0  0  0  0  0  0  0  0  0
    4.8013   -0.2867   26.3542 H   0  0  0  0  0  0  0  0  0  0  0  0
    5.9703    0.3110   24.6633 C   0  0  0  0  0  0  0  0  0  0  0  0
    6.0752   -0.7002   24.2815 H   0  0  0  0  0  0  0  0  0  0  0  0
    6.5668    1.3912   23.9429 C   0  0  0  0  0  0  0  0  0  0  0  0
    8.3254   -1.0987   22.9860 C   0  0  0  0  0  0  0  0  0  0  0  0
    8.4427   -0.8117   24.0498 H   0  0  0  0  0  0  0  0  0  0  0  0
    8.7430   -2.1564   22.5697 O   0  0  0  0  0  0  0  0  0  0  0  0
    6.8775   -2.7672   21.0577 C   0  0  0  0  0  0  0  0  0  0  0  0
    6.6509   -3.0720   20.9460 O   0  0  0  0  0  0  0  0  0  0  0  0
    5.5312    0.7612   20.1839 C   0  0  0  0  0  0  0  0  0  0  0  0
    5.1478    0.7919   21.2059 H   0  0  0  0  0  0  0  0  0  0  0  0
    4.8184    1.3107   19.1109 C   0  0  0  0  0  0  0  0  0  0  0  0
    3.8597    1.7898   19.2686 H   0  0  0  0  0  0  0  0  0  0  0  0
  1  2  1  0
  2  3  2  0
  3  4  1  0
  4  5  1  0
  4  6  2  0
  6  7  1  0
  7  8  1  0
  8  9  1  0
  9 10  2  0
 10 11  1  0
 10 12  1  0
 12 13  2  0
 13 14  1  0
 13 15  1  0
 15 16  2  0
 16 17  1  0
 16 18  1  0
 18 19  1  0
 18 20  2  0
 20 21  1  0
 20 22  1  0
 22 23  1  0
 22 24  2  0
  8 25  2  0
 25 26  1  0
 25 27  1  0
 27 28  1  0
 28 29  2  0
  6 30  1  0
 30 31  1  0
 30 32  2  0
 32 33  1  0
 32  2  1  0
 28  7  1  0
 24  9  1  0
 24 15  1  0
M  END
>  <cnnaffinity>  (1) 
-5.22003

>  <filename>  (1) 
O=c1occ(-c2cncc3ccccc23)n1-c1cccnc1

$$$$
