
     RDKit          3D

 34 37  0  0  0  0  0  0  0  0999 V2000
    4.9322    1.7960   16.9883 H   0  0  0  0  0  0  0  0  0  0  0  0
    5.3918    1.2964   17.8389 C   0  0  0  0  0  0  0  0  0  0  0  0
    6.5473    0.6665   17.5826 N   0  0  0  0  0  0  0  0  0  0  0  0
    7.1378    0.0350   18.5993 C   0  0  0  0  0  0  0  0  0  0  0  0
    8.1105   -0.4129   18.3965 H   0  0  0  0  0  0  0  0  0  0  0  0
    6.6026   -0.0304   19.8990 C   0  0  0  0  0  0  0  0  0  0  0  0
    7.3239   -0.7438   20.9900 C   0  0  0  0  0  0  0  0  0  0  0  0
    6.5850   -1.5054   21.7583 N   0  0  0  0  0  0  0  0  0  0  0  0
    7.1669   -2.1772   22.8047 N   0  0  0  0  0  0  0  0  0  0  0  0
    6.2967   -2.9883   23.6261 C   0  0  0  0  0  0  0  0  0  0  0  0
    6.5304   -3.1125   25.0280 C   0  0  0  0  0  0  0  0  0  0  0  0
    7.3614   -2.5606   25.4609 H   0  0  0  0  0  0  0  0  0  0  0  0
    5.7007   -3.8904   25.8310 C   0  0  0  0  0  0  0  0  0  0  0  0
    5.8912   -3.9801   26.8996 H   0  0  0  0  0  0  0  0  0  0  0  0
    4.6254   -4.5562   25.2125 C   0  0  0  0  0  0  0  0  0  0  0  0
    4.3719   -4.4476   23.8194 C   0  0  0  0  0  0  0  0  0  0  0  0
    5.2248   -3.6482   23.0285 C   0  0  0  0  0  0  0  0  0  0  0  0
    5.0733   -3.5075   21.9641 H   0  0  0  0  0  0  0  0  0  0  0  0
    3.1985   -5.2387   23.5541 C   0  0  0  0  0  0  0  0  0  0  0  0
    2.7307   -5.3664   22.5873 H   0  0  0  0  0  0  0  0  0  0  0  0
    2.7980   -5.7808   24.7402 C   0  0  0  0  0  0  0  0  0  0  0  0
    1.9632   -6.4337   24.9642 H   0  0  0  0  0  0  0  0  0  0  0  0
    3.6555   -5.3726   25.7418 N   0  0  0  0  0  0  0  0  0  0  0  0
    3.5978   -5.6244   26.7134 H   0  0  0  0  0  0  0  0  0  0  0  0
    8.5262   -2.1168   23.0210 C   0  0  0  0  0  0  0  0  0  0  0  0
    8.8875   -2.7398   23.8354 H   0  0  0  0  0  0  0  0  0  0  0  0
    9.3513   -1.3625   22.2754 C   0  0  0  0  0  0  0  0  0  0  0  0
   10.4162   -1.2922   22.4484 H   0  0  0  0  0  0  0  0  0  0  0  0
    8.8098   -0.5646   21.1849 C   0  0  0  0  0  0  0  0  0  0  0  0
    9.5130    0.1706   20.4995 O   0  0  0  0  0  0  0  0  0  0  0  0
    5.3969    0.6327   20.1531 C   0  0  0  0  0  0  0  0  0  0  0  0
    4.9869    0.6180   21.1638 H   0  0  0  0  0  0  0  0  0  0  0  0
    4.7890    1.3190   19.1015 C   0  0  0  0  0  0  0  0  0  0  0  0
    3.8639    1.8641   19.2390 H   0  0  0  0  0  0  0  0  0  0  0  0
  1  2  1  0
  2  3  2  0
  3  4  1  0
  4  5  1  0
  4  6  2  0
  6  7  1  0
  7  8  2  0
  8  9  1  0
  9 10  1  0
 10 11  2  0
 11 12  1  0
 11 13  1  0
 13 14  1  0
 13 15  2  0
 15 16  1  0
 16 17  2  0
 17 18  1  0
 16 19  1  0
 19 20  1  0
 19 21  2  0
 21 22  1  0
 21 23  1  0
 23 24  1  0
  9 25  1  0
 25 26  1  0
 25 27  2  0
 27 28  1  0
 27 29  1  0
 29 30  2  0
  6 31  1  0
 31 32  1  0
 31 33  2  0
 33 34  1  0
 33  2  1  0
 29  7  1  0
 17 10  1  0
 23 15  1  0
M  END
>  <cnnaffinity>  (1) 
-5.54113

>  <filename>  (1) 
O=c1ccn(-c2ccc3[nH]ccc3c2)nc1-c1cccnc1

$$$$
