
     RDKit          3D

 42 44  0  0  0  0  0  0  0  0999 V2000
    5.0144    1.7926   17.0120 H   0  0  0  0  0  0  0  0  0  0  0  0
    5.4602    1.2720   17.8603 C   0  0  0  0  0  0  0  0  0  0  0  0
    6.6105    0.6247   17.6198 N   0  0  0  0  0  0  0  0  0  0  0  0
    7.1770   -0.0101   18.6529 C   0  0  0  0  0  0  0  0  0  0  0  0
    8.1075   -0.5280   18.4272 H   0  0  0  0  0  0  0  0  0  0  0  0
    6.6459   -0.0633   19.9537 C   0  0  0  0  0  0  0  0  0  0  0  0
    7.3940   -0.8072   21.0031 C   0  0  0  0  0  0  0  0  0  0  0  0
    6.4356   -1.8471   22.0378 S   0  0  0  0  0  0  0  0  0  0  0  0
    7.6118   -2.4005   23.1995 C   0  0  0  0  0  0  0  0  0  0  0  0
    6.9678   -3.1084   24.1402 O   0  0  0  0  0  0  0  0  0  0  0  0
    7.6771   -3.7829   25.1949 C   0  0  0  0  0  0  0  0  0  0  0  0
    8.3907   -4.5069   24.7824 H   0  0  0  0  0  0  0  0  0  0  0  0
    8.2305   -3.0644   25.8175 H   0  0  0  0  0  0  0  0  0  0  0  0
    6.6156   -4.5201   26.0214 C   0  0  0  0  0  0  0  0  0  0  0  0
    6.0508   -5.1501   25.3202 H   0  0  0  0  0  0  0  0  0  0  0  0
    5.9100   -3.7689   26.4275 H   0  0  0  0  0  0  0  0  0  0  0  0
    7.2371   -5.3689   27.0336 N   0  0  0  0  0  0  0  0  0  0  0  0
    6.6780   -6.6889   27.2996 C   0  0  0  0  0  0  0  0  0  0  0  0
    7.4782   -7.2130   27.8400 H   0  0  0  0  0  0  0  0  0  0  0  0
    6.4760   -7.2076   26.3554 H   0  0  0  0  0  0  0  0  0  0  0  0
    5.4592   -6.7172   28.2318 C   0  0  0  0  0  0  0  0  0  0  0  0
    5.1146   -7.7519   28.3516 H   0  0  0  0  0  0  0  0  0  0  0  0
    4.6440   -6.1426   27.7774 H   0  0  0  0  0  0  0  0  0  0  0  0
    5.8191   -6.0992   29.5876 C   0  0  0  0  0  0  0  0  0  0  0  0
    6.4645   -6.7859   30.1586 H   0  0  0  0  0  0  0  0  0  0  0  0
    4.9144   -5.9606   30.1920 H   0  0  0  0  0  0  0  0  0  0  0  0
    6.4969   -4.7386   29.3633 C   0  0  0  0  0  0  0  0  0  0  0  0
    5.7371   -4.0287   29.0023 H   0  0  0  0  0  0  0  0  0  0  0  0
    6.8738   -4.3437   30.3131 H   0  0  0  0  0  0  0  0  0  0  0  0
    7.6352   -4.7761   28.3063 C   0  0  0  0  0  0  0  0  0  0  0  0
    8.4630   -5.4065   28.6736 H   0  0  0  0  0  0  0  0  0  0  0  0
    8.0504   -3.7742   28.1300 H   0  0  0  0  0  0  0  0  0  0  0  0
    8.9351   -2.1690   23.1396 C   0  0  0  0  0  0  0  0  0  0  0  0
    9.6201   -2.5850   23.8668 H   0  0  0  0  0  0  0  0  0  0  0  0
    9.5715   -1.3471   22.1285 C   0  0  0  0  0  0  0  0  0  0  0  0
   10.7828   -1.1855   22.1257 O   0  0  0  0  0  0  0  0  0  0  0  0
    8.7324   -0.7048   21.1079 C   0  0  0  0  0  0  0  0  0  0  0  0
    9.3007   -0.0777   20.4330 H   0  0  0  0  0  0  0  0  0  0  0  0
    5.4406    0.6250   20.1840 C   0  0  0  0  0  0  0  0  0  0  0  0
    4.9966    0.6487   21.1787 H   0  0  0  0  0  0  0  0  0  0  0  0
    4.8427    1.2955   19.1143 C   0  0  0  0  0  0  0  0  0  0  0  0
    3.9152    1.8441   19.2403 H   0  0  0  0  0  0  0  0  0  0  0  0
  1  2  1  0
  2  3  2  0
  3  4  1  0
  4  5  1  0
  4  6  2  0
  6  7  1  0
  7  8  1  0
  8  9  1  0
  9 10  1  0
 10 11  1  0
 11 12  1  0
 11 13  1  0
 11 14  1  0
 14 15  1  0
 14 16  1  0
 14 17  1  0
 17 18  1  0
 18 19  1  0
 18 20  1  0
 18 21  1  0
 21 22  1  0
 21 23  1  0
 21 24  1  0
 24 25  1  0
 24 26  1  0
 24 27  1  0
 27 28  1  0
 27 29  1  0
 27 30  1  0
 30 31  1  0
 30 32  1  0
  9 33  2  0
 33 34  1  0
 33 35  1  0
 35 36  2  0
 35 37  1  0
 37 38  1  0
  6 39  1  0
 39 40  1  0
 39 41  2  0
 41 42  1  0
 41  2  1  0
 37  7  2  0
 30 17  1  0
M  END
>  <cnnaffinity>  (1) 
-5.1687

>  <filename>  (1) 
O=c1cc(OCCN2CCCCC2)sc(-c2cccnc2)c1

$$$$
