
     RDKit          3D

 33 35  0  0  0  0  0  0  0  0999 V2000
    4.9085    1.7552   16.9169 H   0  0  0  0  0  0  0  0  0  0  0  0
    5.3729    1.3603   17.8194 C   0  0  0  0  0  0  0  0  0  0  0  0
    6.5804    0.8050   17.6553 N   0  0  0  0  0  0  0  0  0  0  0  0
    7.1637    0.2734   18.7372 C   0  0  0  0  0  0  0  0  0  0  0  0
    8.1352   -0.1860   18.5568 H   0  0  0  0  0  0  0  0  0  0  0  0
    6.6024    0.2822   20.0318 C   0  0  0  0  0  0  0  0  0  0  0  0
    7.2950   -0.4489   21.1321 C   0  0  0  0  0  0  0  0  0  0  0  0
    7.5226    0.3756   22.6631 S   0  0  0  0  0  0  0  0  0  0  0  0
    8.2959   -0.8615   23.6494 C   0  0  0  0  0  0  0  0  0  0  0  0
    8.4278   -0.5466   25.1330 C   0  0  0  0  0  0  0  0  0  0  0  0
    8.4523    0.5353   25.2832 H   0  0  0  0  0  0  0  0  0  0  0  0
    9.3888   -0.9485   25.4819 H   0  0  0  0  0  0  0  0  0  0  0  0
    7.2967   -1.1863   25.9278 C   0  0  0  0  0  0  0  0  0  0  0  0
    7.4272   -2.4726   26.4747 C   0  0  0  0  0  0  0  0  0  0  0  0
    8.3739   -3.0012   26.3903 H   0  0  0  0  0  0  0  0  0  0  0  0
    6.3603   -3.0937   27.1299 C   0  0  0  0  0  0  0  0  0  0  0  0
    6.4450   -4.0899   27.5522 H   0  0  0  0  0  0  0  0  0  0  0  0
    5.1566   -2.4041   27.2384 C   0  0  0  0  0  0  0  0  0  0  0  0
    4.1263   -2.9881   27.8721 F   0  0  0  0  0  0  0  0  0  0  0  0
    4.9828   -1.1320   26.6983 C   0  0  0  0  0  0  0  0  0  0  0  0
    4.0215   -0.6391   26.7934 H   0  0  0  0  0  0  0  0  0  0  0  0
    6.0605   -0.5341   26.0406 C   0  0  0  0  0  0  0  0  0  0  0  0
    5.9394    0.4479   25.5894 H   0  0  0  0  0  0  0  0  0  0  0  0
    8.6859   -2.0634   23.1768 C   0  0  0  0  0  0  0  0  0  0  0  0
    9.2413   -2.7656   23.7956 H   0  0  0  0  0  0  0  0  0  0  0  0
    8.3466   -2.6096   21.8650 C   0  0  0  0  0  0  0  0  0  0  0  0
    8.5726   -3.7732   21.5664 O   0  0  0  0  0  0  0  0  0  0  0  0
    7.7255   -1.7042   20.9062 C   0  0  0  0  0  0  0  0  0  0  0  0
    7.5761   -2.1182   19.9268 H   0  0  0  0  0  0  0  0  0  0  0  0
    5.3535    0.9008   20.1833 C   0  0  0  0  0  0  0  0  0  0  0  0
    4.8828    0.9618   21.1631 H   0  0  0  0  0  0  0  0  0  0  0  0
    4.7228    1.4289   19.0526 C   0  0  0  0  0  0  0  0  0  0  0  0
    3.7490    1.8972   19.1093 H   0  0  0  0  0  0  0  0  0  0  0  0
  1  2  1  0
  2  3  2  0
  3  4  1  0
  4  5  1  0
  4  6  2  0
  6  7  1  0
  7  8  1  0
  8  9  1  0
  9 10  1  0
 10 11  1  0
 10 12  1  0
 10 13  1  0
 13 14  2  0
 14 15  1  0
 14 16  1  0
 16 17  1  0
 16 18  2  0
 18 19  1  0
 18 20  1  0
 20 21  1  0
 20 22  2  0
 22 23  1  0
  9 24  2  0
 24 25  1  0
 24 26  1  0
 26 27  2  0
 26 28  1  0
 28 29  1  0
  6 30  1  0
 30 31  1  0
 30 32  2  0
 32 33  1  0
 32  2  1  0
 28  7  2  0
 22 13  1  0
M  END
>  <cnnaffinity>  (1) 
-5.47062

>  <filename>  (1) 
O=c1cc(Cc2ccc(F)cc2)sc(-c2cccnc2)c1

$$$$
