
     RDKit          3D

 31 33  0  0  0  0  0  0  0  0999 V2000
    4.9206    1.8786   16.9297 H   0  0  0  0  0  0  0  0  0  0  0  0
    5.3886    1.3531   17.7620 C   0  0  0  0  0  0  0  0  0  0  0  0
    6.5583    0.7458   17.5037 N   0  0  0  0  0  0  0  0  0  0  0  0
    7.1505    0.0976   18.5163 C   0  0  0  0  0  0  0  0  0  0  0  0
    8.0978   -0.3767   18.2635 H   0  0  0  0  0  0  0  0  0  0  0  0
    6.6184   -0.0192   19.8269 C   0  0  0  0  0  0  0  0  0  0  0  0
    7.3215   -0.7566   20.9257 C   0  0  0  0  0  0  0  0  0  0  0  0
    8.6106   -0.4842   21.2343 C   0  0  0  0  0  0  0  0  0  0  0  0
    9.1775    0.2737   20.6961 H   0  0  0  0  0  0  0  0  0  0  0  0
    9.2881   -1.1263   22.2666 N   0  0  0  0  0  0  0  0  0  0  0  0
   10.6712   -0.8367   22.5045 C   0  0  0  0  0  0  0  0  0  0  0  0
   11.6340   -1.3781   21.6422 C   0  0  0  0  0  0  0  0  0  0  0  0
   11.3216   -2.1132   20.9109 H   0  0  0  0  0  0  0  0  0  0  0  0
   12.9626   -0.9615   21.6902 C   0  0  0  0  0  0  0  0  0  0  0  0
   13.6987   -1.3499   20.9926 H   0  0  0  0  0  0  0  0  0  0  0  0
   13.3218    0.0080   22.6287 C   0  0  0  0  0  0  0  0  0  0  0  0
   14.8527    0.8043   22.5133 Cl  0  0  0  0  0  0  0  0  0  0  0  0
   12.4299    0.4287   23.6119 C   0  0  0  0  0  0  0  0  0  0  0  0
   12.7853    1.0658   24.4156 H   0  0  0  0  0  0  0  0  0  0  0  0
   11.0941    0.0170   23.5409 C   0  0  0  0  0  0  0  0  0  0  0  0
    9.9946    0.6327   24.7237 Cl  0  0  0  0  0  0  0  0  0  0  0  0
    8.6579   -2.0888   23.0685 C   0  0  0  0  0  0  0  0  0  0  0  0
    9.1914   -2.7619   23.9125 O   0  0  0  0  0  0  0  0  0  0  0  0
    7.3325   -2.2393   22.8183 N   0  0  0  0  0  0  0  0  0  0  0  0
    6.9214   -3.0065   23.3083 H   0  0  0  0  0  0  0  0  0  0  0  0
    6.6282   -1.8097   21.7198 C   0  0  0  0  0  0  0  0  0  0  0  0
    5.5577   -2.3383   21.5025 O   0  0  0  0  0  0  0  0  0  0  0  0
    5.3957    0.6364   20.0617 C   0  0  0  0  0  0  0  0  0  0  0  0
    4.9516    0.6060   21.0582 H   0  0  0  0  0  0  0  0  0  0  0  0
    4.7770    1.3337   19.0187 C   0  0  0  0  0  0  0  0  0  0  0  0
    3.8475    1.8743   19.1701 H   0  0  0  0  0  0  0  0  0  0  0  0
  1  2  1  0
  2  3  2  0
  3  4  1  0
  4  5  1  0
  4  6  2  0
  6  7  1  0
  7  8  2  0
  8  9  1  0
  8 10  1  0
 10 11  1  0
 11 12  2  0
 12 13  1  0
 12 14  1  0
 14 15  1  0
 14 16  2  0
 16 17  1  0
 16 18  1  0
 18 19  1  0
 18 20  2  0
 20 21  1  0
 10 22  1  0
 22 23  2  0
 22 24  1  0
 24 25  1  0
 24 26  1  0
 26 27  2  0
  6 28  1  0
 28 29  1  0
 28 30  2  0
 30 31  1  0
 30  2  1  0
 26  7  1  0
 20 11  1  0
M  END
>  <cnnaffinity>  (1) 
-5.77458

>  <filename>  (1) 
O=c1[nH]c(=O)n(-c2ccc(Cl)cc2Cl)cc1-c1cccnc1

$$$$
