
     RDKit          3D

 19 20  0  0  0  0  0  0  0  0999 V2000
    4.9248    1.7147   16.9618 H   0  0  0  0  0  0  0  0  0  0  0  0
    5.4204    1.2369   17.8053 C   0  0  0  0  0  0  0  0  0  0  0  0
    6.5665    0.5604   17.6039 N   0  0  0  0  0  0  0  0  0  0  0  0
    7.1913    0.0167   18.6731 C   0  0  0  0  0  0  0  0  0  0  0  0
    8.1142   -0.5198   18.4825 H   0  0  0  0  0  0  0  0  0  0  0  0
    6.7121    0.1432   20.0014 C   0  0  0  0  0  0  0  0  0  0  0  0
    7.3922   -0.3430   21.1439 N   0  0  0  0  0  0  0  0  0  0  0  0
    8.0401   -1.5779   21.2778 C   0  0  0  0  0  0  0  0  0  0  0  0
    8.1874   -2.3182   20.5007 H   0  0  0  0  0  0  0  0  0  0  0  0
    8.3453   -1.7864   22.5977 C   0  0  0  0  0  0  0  0  0  0  0  0
    9.1029   -3.7294   23.4490 I   0  0  0  0  0  0  0  0  0  0  0  0
    7.9829   -0.6261   23.2737 N   0  0  0  0  0  0  0  0  0  0  0  0
    7.8242   -0.5596   24.2743 H   0  0  0  0  0  0  0  0  0  0  0  0
    7.2971    0.1961   22.4209 C   0  0  0  0  0  0  0  0  0  0  0  0
    6.6735    1.1642   22.8243 O   0  0  0  0  0  0  0  0  0  0  0  0
    5.5023    0.8156   20.1860 C   0  0  0  0  0  0  0  0  0  0  0  0
    5.0867    0.9073   21.1881 H   0  0  0  0  0  0  0  0  0  0  0  0
    4.8492    1.3524   19.0741 C   0  0  0  0  0  0  0  0  0  0  0  0
    3.9112    1.8800   19.1872 H   0  0  0  0  0  0  0  0  0  0  0  0
  1  2  1  0
  2  3  2  0
  3  4  1  0
  4  5  1  0
  4  6  2  0
  6  7  1  0
  7  8  1  0
  8  9  1  0
  8 10  2  0
 10 11  1  0
 10 12  1  0
 12 13  1  0
 12 14  1  0
 14 15  2  0
  6 16  1  0
 16 17  1  0
 16 18  2  0
 18 19  1  0
 18  2  1  0
 14  7  1  0
M  END
>  <cnnaffinity>  (1) 
-4.28643

>  <filename>  (1) 
O=c1[nH]c(I)cn1-c1cccnc1

$$$$
