
     RDKit          3D

 50 53  0  0  0  0  0  0  0  0999 V2000
   10.9603    2.5382   24.3816 O   0  0  0  0  0  0  0  0  0  0  0  0
    9.8445    2.1814   24.7228 C   0  0  0  0  0  0  0  0  0  0  0  0
    9.3594    0.8272   24.8330 C   0  0  0  0  0  0  0  0  0  0  0  0
    8.0857    0.5618   25.2473 C   0  0  0  0  0  0  0  0  0  0  0  0
    7.6044   -0.7838   25.3510 N   0  0  0  0  0  0  0  0  0  0  0  0
    6.9968   -1.2643   26.4774 N   0  0  0  0  0  0  0  0  0  0  0  0
    6.7097   -2.5063   26.1570 C   0  0  0  0  0  0  0  0  0  0  0  0
    5.9889   -3.4444   27.0842 C   0  0  0  0  0  0  0  0  0  0  0  0
    6.7674   -4.7623   27.3021 C   0  0  0  0  0  0  0  0  0  0  0  0
    6.0175   -5.7177   28.2391 C   0  0  0  0  0  0  0  0  0  0  0  0
    4.5878   -5.9889   27.7538 C   0  0  0  0  0  0  0  0  0  0  0  0
    3.8071   -4.6860   27.5413 C   0  0  0  0  0  0  0  0  0  0  0  0
    4.5444   -3.7246   26.6013 C   0  0  0  0  0  0  0  0  0  0  0  0
    3.9870   -2.7839   26.5116 H   0  0  0  0  0  0  0  0  0  0  0  0
    4.5930   -4.1554   25.5932 H   0  0  0  0  0  0  0  0  0  0  0  0
    3.6565   -4.1945   28.5125 H   0  0  0  0  0  0  0  0  0  0  0  0
    2.8059   -4.8991   27.1489 H   0  0  0  0  0  0  0  0  0  0  0  0
    4.0603   -6.6424   28.4585 H   0  0  0  0  0  0  0  0  0  0  0  0
    4.6332   -6.5356   26.8026 H   0  0  0  0  0  0  0  0  0  0  0  0
    5.9788   -5.2782   29.2455 H   0  0  0  0  0  0  0  0  0  0  0  0
    6.5720   -6.6585   28.3376 H   0  0  0  0  0  0  0  0  0  0  0  0
    7.7674   -4.5514   27.7010 H   0  0  0  0  0  0  0  0  0  0  0  0
    6.9186   -5.2430   26.3269 H   0  0  0  0  0  0  0  0  0  0  0  0
    5.9170   -2.9223   28.0421 H   0  0  0  0  0  0  0  0  0  0  0  0
    7.0641   -2.8581   24.8889 N   0  0  0  0  0  0  0  0  0  0  0  0
    7.6160   -1.7645   24.4082 C   0  0  0  0  0  0  0  0  0  0  0  0
    8.0147   -1.5820   22.9814 C   0  0  0  0  0  0  0  0  0  0  0  0
    6.9719   -0.7742   22.2076 C   0  0  0  0  0  0  0  0  0  0  0  0
    7.4173   -0.6823   20.8549 O   0  0  0  0  0  0  0  0  0  0  0  0
    6.6695   -0.0026   19.9379 C   0  0  0  0  0  0  0  0  0  0  0  0
    5.4466    0.6418   20.1824 C   0  0  0  0  0  0  0  0  0  0  0  0
    4.8157    1.3025   19.1124 C   0  0  0  0  0  0  0  0  0  0  0  0
    5.4017    1.2903   17.8446 C   0  0  0  0  0  0  0  0  0  0  0  0
    6.5697    0.6682   17.5971 N   0  0  0  0  0  0  0  0  0  0  0  0
    7.1794    0.0539   18.6165 C   0  0  0  0  0  0  0  0  0  0  0  0
    8.1235   -0.4349   18.3985 H   0  0  0  0  0  0  0  0  0  0  0  0
    4.9191    1.7801   16.9971 H   0  0  0  0  0  0  0  0  0  0  0  0
    3.8824    1.8363   19.2624 H   0  0  0  0  0  0  0  0  0  0  0  0
    5.0007    0.6305   21.1800 H   0  0  0  0  0  0  0  0  0  0  0  0
    6.8531    0.2252   22.6499 H   0  0  0  0  0  0  0  0  0  0  0  0
    6.0059   -1.2912   22.2481 H   0  0  0  0  0  0  0  0  0  0  0  0
    8.9828   -1.0826   22.9010 H   0  0  0  0  0  0  0  0  0  0  0  0
    8.1243   -2.5672   22.5229 H   0  0  0  0  0  0  0  0  0  0  0  0
    7.1918    1.6368   25.5803 C   0  0  0  0  0  0  0  0  0  0  0  0
    7.6254    2.9199   25.4752 C   0  0  0  0  0  0  0  0  0  0  0  0
    8.9065    3.1619   25.0600 N   0  0  0  0  0  0  0  0  0  0  0  0
    9.3056    4.0789   24.9458 H   0  0  0  0  0  0  0  0  0  0  0  0
    7.0009    3.7834   25.7147 H   0  0  0  0  0  0  0  0  0  0  0  0
    6.1899    1.4180   25.9253 H   0  0  0  0  0  0  0  0  0  0  0  0
   10.0909    0.0695   24.6135 H   0  0  0  0  0  0  0  0  0  0  0  0
  1  2  2  0
  2  3  1  0
  3  4  2  0
  4  5  1  0
  5  6  1  0
  6  7  2  0
  7  8  1  0
  8  9  1  0
  9 10  1  0
 10 11  1  0
 11 12  1  0
 12 13  1  0
 13 14  1  0
 13 15  1  0
 12 16  1  0
 12 17  1  0
 11 18  1  0
 11 19  1  0
 10 20  1  0
 10 21  1  0
  9 22  1  0
  9 23  1  0
  8 24  1  0
  7 25  1  0
 25 26  2  0
 26 27  1  0
 27 28  1  0
 28 29  1  0
 29 30  1  0
 30 31  2  0
 31 32  1  0
 32 33  2  0
 33 34  1  0
 34 35  2  0
 35 36  1  0
 33 37  1  0
 32 38  1  0
 31 39  1  0
 28 40  1  0
 28 41  1  0
 27 42  1  0
 27 43  1  0
  4 44  1  0
 44 45  2  0
 45 46  1  0
 46 47  1  0
 45 48  1  0
 44 49  1  0
  3 50  1  0
 46  2  1  0
 26  5  1  0
 35 30  1  0
 13  8  1  0
M  END
>  <cnnaffinity>  (1) 
-5.93655

>  <filename>  (1) 
O=c1cc(-n2nc(C3CCCCC3)nc2CCOc2cccnc2)cc[nH]1

$$$$
