
     RDKit          3D

 29 31  0  0  0  0  0  0  0  0999 V2000
    4.9200    1.7974   16.9751 H   0  0  0  0  0  0  0  0  0  0  0  0
    5.3924    1.2994   17.8193 C   0  0  0  0  0  0  0  0  0  0  0  0
    6.5567    0.6797   17.5630 N   0  0  0  0  0  0  0  0  0  0  0  0
    7.1608    0.0563   18.5828 C   0  0  0  0  0  0  0  0  0  0  0  0
    8.1197   -0.4039   18.3429 H   0  0  0  0  0  0  0  0  0  0  0  0
    6.6439    0.0055   19.8925 C   0  0  0  0  0  0  0  0  0  0  0  0
    7.3311   -0.6543   21.0021 C   0  0  0  0  0  0  0  0  0  0  0  0
    7.2454   -0.4297   22.3332 C   0  0  0  0  0  0  0  0  0  0  0  0
    6.6676    0.3091   22.8654 H   0  0  0  0  0  0  0  0  0  0  0  0
    8.1063   -1.3050   22.9829 N   0  0  0  0  0  0  0  0  0  0  0  0
    8.3189   -1.3701   24.3804 C   0  0  0  0  0  0  0  0  0  0  0  0
    8.7449   -0.2031   25.0268 C   0  0  0  0  0  0  0  0  0  0  0  0
    8.8782    0.6985   24.4373 H   0  0  0  0  0  0  0  0  0  0  0  0
    9.0002   -0.2129   26.3934 C   0  0  0  0  0  0  0  0  0  0  0  0
    9.3329    0.6872   26.8935 H   0  0  0  0  0  0  0  0  0  0  0  0
    8.8208   -1.3805   27.1312 C   0  0  0  0  0  0  0  0  0  0  0  0
    9.0245   -1.3999   28.1940 H   0  0  0  0  0  0  0  0  0  0  0  0
    8.3659   -2.5406   26.5012 C   0  0  0  0  0  0  0  0  0  0  0  0
    8.1553   -3.9637   27.4637 Cl  0  0  0  0  0  0  0  0  0  0  0  0
    8.0908   -2.5492   25.1235 C   0  0  0  0  0  0  0  0  0  0  0  0
    7.4575   -3.9740   24.3781 Cl  0  0  0  0  0  0  0  0  0  0  0  0
    8.7657   -2.0975   22.0352 C   0  0  0  0  0  0  0  0  0  0  0  0
    9.5870   -2.9720   22.1660 O   0  0  0  0  0  0  0  0  0  0  0  0
    8.2644   -1.6563   20.8357 N   0  0  0  0  0  0  0  0  0  0  0  0
    8.5579   -2.1385   20.0089 H   0  0  0  0  0  0  0  0  0  0  0  0
    5.4261    0.6600   20.1341 C   0  0  0  0  0  0  0  0  0  0  0  0
    4.9914    0.6375   21.1360 H   0  0  0  0  0  0  0  0  0  0  0  0
    4.7945    1.3194   19.0836 C   0  0  0  0  0  0  0  0  0  0  0  0
    3.8640    1.8515   19.2373 H   0  0  0  0  0  0  0  0  0  0  0  0
  1  2  1  0
  2  3  2  0
  3  4  1  0
  4  5  1  0
  4  6  2  0
  6  7  1  0
  7  8  2  0
  8  9  1  0
  8 10  1  0
 10 11  1  0
 11 12  2  0
 12 13  1  0
 12 14  1  0
 14 15  1  0
 14 16  2  0
 16 17  1  0
 16 18  1  0
 18 19  1  0
 18 20  2  0
 20 21  1  0
 10 22  1  0
 22 23  2  0
 22 24  1  0
 24 25  1  0
  6 26  1  0
 26 27  1  0
 26 28  2  0
 28 29  1  0
 28  2  1  0
 24  7  1  0
 20 11  1  0
M  END
>  <cnnaffinity>  (1) 
-5.70221

>  <filename>  (1) 
O=c1[nH]c(-c2cccnc2)cn1-c1cccc(Cl)c1Cl

$$$$
