
     RDKit          3D

 39 42  0  0  0  0  0  0  0  0999 V2000
    4.8967    1.7557   16.9290 H   0  0  0  0  0  0  0  0  0  0  0  0
    5.3838    1.3522   17.8148 C   0  0  0  0  0  0  0  0  0  0  0  0
    6.5792    0.7630   17.6339 N   0  0  0  0  0  0  0  0  0  0  0  0
    7.1527    0.2197   18.7110 C   0  0  0  0  0  0  0  0  0  0  0  0
    8.1107   -0.2707   18.5295 H   0  0  0  0  0  0  0  0  0  0  0  0
    6.6155    0.2547   20.0158 C   0  0  0  0  0  0  0  0  0  0  0  0
    7.3365   -0.4533   21.1107 C   0  0  0  0  0  0  0  0  0  0  0  0
    7.4983    0.3379   22.6667 S   0  0  0  0  0  0  0  0  0  0  0  0
    8.3206   -0.8733   23.6321 C   0  0  0  0  0  0  0  0  0  0  0  0
    8.4435   -0.5477   25.1176 C   0  0  0  0  0  0  0  0  0  0  0  0
    9.4054   -0.9312   25.4808 H   0  0  0  0  0  0  0  0  0  0  0  0
    8.4596    0.5338   25.2887 H   0  0  0  0  0  0  0  0  0  0  0  0
    7.3076   -1.2046   25.9027 C   0  0  0  0  0  0  0  0  0  0  0  0
    6.0603   -0.5190   26.0179 C   0  0  0  0  0  0  0  0  0  0  0  0
    5.9601    0.4685   25.5673 H   0  0  0  0  0  0  0  0  0  0  0  0
    4.9937   -1.0893   26.6684 C   0  0  0  0  0  0  0  0  0  0  0  0
    4.0495   -0.5570   26.7463 H   0  0  0  0  0  0  0  0  0  0  0  0
    5.0977   -2.3931   27.2416 C   0  0  0  0  0  0  0  0  0  0  0  0
    4.0116   -3.0056   27.9412 C   0  0  0  0  0  0  0  0  0  0  0  0
    3.0792   -2.4560   28.0496 H   0  0  0  0  0  0  0  0  0  0  0  0
    4.1511   -4.2647   28.4772 C   0  0  0  0  0  0  0  0  0  0  0  0
    3.3303   -4.7247   29.0212 H   0  0  0  0  0  0  0  0  0  0  0  0
    5.3738   -4.9792   28.3295 C   0  0  0  0  0  0  0  0  0  0  0  0
    5.4643   -5.9743   28.7577 H   0  0  0  0  0  0  0  0  0  0  0  0
    6.4353   -4.4190   27.6596 C   0  0  0  0  0  0  0  0  0  0  0  0
    7.3708   -4.9616   27.5387 H   0  0  0  0  0  0  0  0  0  0  0  0
    6.3330   -3.1054   27.1079 C   0  0  0  0  0  0  0  0  0  0  0  0
    7.4225   -2.4757   26.4280 C   0  0  0  0  0  0  0  0  0  0  0  0
    8.3512   -3.0379   26.3356 H   0  0  0  0  0  0  0  0  0  0  0  0
    8.7161   -2.0665   23.1511 C   0  0  0  0  0  0  0  0  0  0  0  0
    9.3036   -2.7474   23.7571 H   0  0  0  0  0  0  0  0  0  0  0  0
    8.3833   -2.6133   21.8359 C   0  0  0  0  0  0  0  0  0  0  0  0
    8.5682   -3.7944   21.5763 O   0  0  0  0  0  0  0  0  0  0  0  0
    7.8035   -1.6914   20.8659 C   0  0  0  0  0  0  0  0  0  0  0  0
    7.6755   -2.0889   19.8786 H   0  0  0  0  0  0  0  0  0  0  0  0
    5.3615    0.8646   20.1791 C   0  0  0  0  0  0  0  0  0  0  0  0
    4.8830    0.8735   21.1596 H   0  0  0  0  0  0  0  0  0  0  0  0
    4.7403    1.4158   19.0559 C   0  0  0  0  0  0  0  0  0  0  0  0
    3.7559    1.8648   19.1281 H   0  0  0  0  0  0  0  0  0  0  0  0
  1  2  1  0
  2  3  2  0
  3  4  1  0
  4  5  1  0
  4  6  2  0
  6  7  1  0
  7  8  1  0
  8  9  1  0
  9 10  1  0
 10 11  1  0
 10 12  1  0
 10 13  1  0
 13 14  2  0
 14 15  1  0
 14 16  1  0
 16 17  1  0
 16 18  2  0
 18 19  1  0
 19 20  1  0
 19 21  2  0
 21 22  1  0
 21 23  1  0
 23 24  1  0
 23 25  2  0
 25 26  1  0
 25 27  1  0
 27 28  2  0
 28 29  1  0
  9 30  2  0
 30 31  1  0
 30 32  1  0
 32 33  2  0
 32 34  1  0
 34 35  1  0
  6 36  1  0
 36 37  1  0
 36 38  2  0
 38 39  1  0
 38  2  1  0
 34  7  2  0
 28 13  1  0
 27 18  1  0
M  END
>  <cnnaffinity>  (1) 
-5.68459

>  <filename>  (1) 
O=c1cc(Cc2ccc3ccccc3c2)sc(-c2cccnc2)c1

$$$$
