
     RDKit          3D

 36 39  0  0  0  0  0  0  0  0999 V2000
    4.9683    1.8049   17.0175 H   0  0  0  0  0  0  0  0  0  0  0  0
    5.4294    1.2904   17.8579 C   0  0  0  0  0  0  0  0  0  0  0  0
    6.5964    0.6681   17.6118 N   0  0  0  0  0  0  0  0  0  0  0  0
    7.1848    0.0406   18.6367 C   0  0  0  0  0  0  0  0  0  0  0  0
    8.1291   -0.4678   18.4533 H   0  0  0  0  0  0  0  0  0  0  0  0
    6.6545   -0.0019   19.9369 C   0  0  0  0  0  0  0  0  0  0  0  0
    7.3843   -0.7129   20.8577 O   0  0  0  0  0  0  0  0  0  0  0  0
    7.2972   -0.3991   22.1849 C   0  0  0  0  0  0  0  0  0  0  0  0
    7.1984   -1.3532   23.2109 C   0  0  0  0  0  0  0  0  0  0  0  0
    7.1529   -2.4319   23.1083 H   0  0  0  0  0  0  0  0  0  0  0  0
    7.1609   -0.7541   24.4021 N   0  0  0  0  0  0  0  0  0  0  0  0
    7.2419    0.5538   24.1321 N   0  0  0  0  0  0  0  0  0  0  0  0
    7.2417    1.2165   24.8948 H   0  0  0  0  0  0  0  0  0  0  0  0
    7.3566    0.8368   22.8058 C   0  0  0  0  0  0  0  0  0  0  0  0
    7.4926    2.2359   22.2796 C   0  0  0  0  0  0  0  0  0  0  0  0
    7.7988    2.2083   21.2304 H   0  0  0  0  0  0  0  0  0  0  0  0
    6.5136    2.7291   22.3048 H   0  0  0  0  0  0  0  0  0  0  0  0
    8.4421    3.0402   23.0396 N   0  0  0  0  0  0  0  0  0  0  0  0
    8.1007    3.8667   24.1003 C   0  0  0  0  0  0  0  0  0  0  0  0
    6.9651    4.0737   24.4554 O   0  0  0  0  0  0  0  0  0  0  0  0
    9.3776    4.3898   24.6692 C   0  0  0  0  0  0  0  0  0  0  0  0
    9.6200    5.3249   25.6770 C   0  0  0  0  0  0  0  0  0  0  0  0
    8.7971    5.7288   26.2622 H   0  0  0  0  0  0  0  0  0  0  0  0
   10.9480    5.7116   25.9001 C   0  0  0  0  0  0  0  0  0  0  0  0
   11.1593    6.4888   26.6305 H   0  0  0  0  0  0  0  0  0  0  0  0
   12.0027    5.1342   25.1535 C   0  0  0  0  0  0  0  0  0  0  0  0
   13.0304    5.4633   25.2895 H   0  0  0  0  0  0  0  0  0  0  0  0
   11.7524    4.1371   24.2036 C   0  0  0  0  0  0  0  0  0  0  0  0
   12.5683    3.6417   23.6756 H   0  0  0  0  0  0  0  0  0  0  0  0
   10.4195    3.7930   23.9662 C   0  0  0  0  0  0  0  0  0  0  0  0
    9.8189    2.8713   22.9588 C   0  0  0  0  0  0  0  0  0  0  0  0
   10.3817    2.1070   22.2112 O   0  0  0  0  0  0  0  0  0  0  0  0
    5.4334    0.6335   20.1876 C   0  0  0  0  0  0  0  0  0  0  0  0
    4.9985    0.6255   21.1875 H   0  0  0  0  0  0  0  0  0  0  0  0
    4.8171    1.2913   19.1148 C   0  0  0  0  0  0  0  0  0  0  0  0
    3.8757    1.8139   19.2431 H   0  0  0  0  0  0  0  0  0  0  0  0
  1  2  1  0
  2  3  2  0
  3  4  1  0
  4  5  1  0
  4  6  2  0
  6  7  1  0
  7  8  1  0
  8  9  1  0
  9 10  1  0
  9 11  2  0
 11 12  1  0
 12 13  1  0
 12 14  1  0
 14 15  1  0
 15 16  1  0
 15 17  1  0
 15 18  1  0
 18 19  1  0
 19 20  2  0
 19 21  1  0
 21 22  2  0
 22 23  1  0
 22 24  1  0
 24 25  1  0
 24 26  2  0
 26 27  1  0
 26 28  1  0
 28 29  1  0
 28 30  2  0
 30 31  1  0
 31 32  2  0
  6 33  1  0
 33 34  1  0
 33 35  2  0
 35 36  1  0
 35  2  1  0
 14  8  2  0
 31 18  1  0
 30 21  1  0
M  END
>  <cnnaffinity>  (1) 
-5.32908

>  <filename>  (1) 
O=C1c2ccccc2C(=O)N1Cc1[nH]ncc1Oc1cccnc1

$$$$
