
     RDKit          3D

 36 39  0  0  0  0  0  0  0  0999 V2000
    5.2624    1.8251   16.8679 H   0  0  0  0  0  0  0  0  0  0  0  0
    5.6063    1.3555   17.7885 C   0  0  0  0  0  0  0  0  0  0  0  0
    6.7642    0.6777   17.7061 N   0  0  0  0  0  0  0  0  0  0  0  0
    7.2082    0.0858   18.8254 C   0  0  0  0  0  0  0  0  0  0  0  0
    8.1413   -0.4739   18.7602 H   0  0  0  0  0  0  0  0  0  0  0  0
    6.5320    0.1337   20.0596 C   0  0  0  0  0  0  0  0  0  0  0  0
    7.0002   -0.5973   21.1992 N   0  0  0  0  0  0  0  0  0  0  0  0
    6.6885   -1.9442   21.3040 C   0  0  0  0  0  0  0  0  0  0  0  0
    6.1028   -2.6091   20.4775 O   0  0  0  0  0  0  0  0  0  0  0  0
    7.2181   -2.4185   22.6423 C   0  0  0  0  0  0  0  0  0  0  0  0
    6.5259   -3.1549   23.0530 H   0  0  0  0  0  0  0  0  0  0  0  0
    8.1840   -2.9096   22.4746 H   0  0  0  0  0  0  0  0  0  0  0  0
    7.3348   -1.1218   23.4366 C   0  0  0  0  0  0  0  0  0  0  0  0
    8.0288   -1.1510   24.2806 H   0  0  0  0  0  0  0  0  0  0  0  0
    6.3414   -0.8621   23.8125 H   0  0  0  0  0  0  0  0  0  0  0  0
    7.7294   -0.0815   22.3846 C   0  0  2  0  0  0  0  0  0  0  0  0
    8.8046   -0.1893   22.1634 H   0  0  0  0  0  0  0  0  0  0  0  0
    7.5179    1.3890   22.7127 C   0  0  0  0  0  0  0  0  0  0  0  0
    8.0361    2.3157   21.7996 C   0  0  0  0  0  0  0  0  0  0  0  0
    8.4749    1.9363   20.8832 H   0  0  0  0  0  0  0  0  0  0  0  0
    7.9286    3.7101   21.9926 C   0  0  0  0  0  0  0  0  0  0  0  0
    8.3575    4.3941   21.2650 H   0  0  0  0  0  0  0  0  0  0  0  0
    7.2748    4.2277   23.1013 C   0  0  0  0  0  0  0  0  0  0  0  0
    7.1701    5.2977   23.2751 H   0  0  0  0  0  0  0  0  0  0  0  0
    6.7379    3.3059   24.0109 C   0  0  0  0  0  0  0  0  0  0  0  0
    6.8745    1.8958   23.8721 C   0  0  0  0  0  0  0  0  0  0  0  0
    6.2479    1.3455   25.0584 C   0  0  0  0  0  0  0  0  0  0  0  0
    6.2160    0.3113   25.3688 H   0  0  0  0  0  0  0  0  0  0  0  0
    5.7292    2.3766   25.7810 C   0  0  0  0  0  0  0  0  0  0  0  0
    5.1999    2.3724   26.7264 H   0  0  0  0  0  0  0  0  0  0  0  0
    6.0410    3.5626   25.1617 N   0  0  0  0  0  0  0  0  0  0  0  0
    5.7081    4.4754   25.4189 H   0  0  0  0  0  0  0  0  0  0  0  0
    5.3297    0.8436   20.1289 C   0  0  0  0  0  0  0  0  0  0  0  0
    4.8006    0.8910   21.0818 H   0  0  0  0  0  0  0  0  0  0  0  0
    4.8583    1.4702   18.9668 C   0  0  0  0  0  0  0  0  0  0  0  0
    3.9315    2.0359   18.9589 H   0  0  0  0  0  0  0  0  0  0  0  0
  1  2  1  0
  2  3  2  0
  3  4  1  0
  4  5  1  0
  4  6  2  0
  6  7  1  0
  7  8  1  0
  8  9  2  0
  8 10  1  0
 10 11  1  0
 10 12  1  0
 10 13  1  0
 13 14  1  0
 13 15  1  0
 13 16  1  0
 16 17  1  6
 16 18  1  0
 18 19  2  0
 19 20  1  0
 19 21  1  0
 21 22  1  0
 21 23  2  0
 23 24  1  0
 23 25  1  0
 25 26  2  0
 26 27  1  0
 27 28  1  0
 27 29  2  0
 29 30  1  0
 29 31  1  0
 31 32  1  0
  6 33  1  0
 33 34  1  0
 33 35  2  0
 35 36  1  0
 35  2  1  0
 16  7  1  0
 26 18  1  0
 31 25  1  0
M  END
>  <cnnaffinity>  (1) 
-5.30512

>  <filename>  (1) 
O=C1CC[C@H](c2cccc3[nH]ccc23)N1c1cccnc1

$$$$
