
     RDKit          3D

 33 35  0  0  0  0  0  0  0  0999 V2000
    4.9150    1.8159   16.9721 H   0  0  0  0  0  0  0  0  0  0  0  0
    5.3845    1.3173   17.8176 C   0  0  0  0  0  0  0  0  0  0  0  0
    6.5536    0.7088   17.5617 N   0  0  0  0  0  0  0  0  0  0  0  0
    7.1651    0.1047   18.5867 C   0  0  0  0  0  0  0  0  0  0  0  0
    8.1127   -0.3750   18.3537 H   0  0  0  0  0  0  0  0  0  0  0  0
    6.6459    0.0442   19.8941 C   0  0  0  0  0  0  0  0  0  0  0  0
    7.3954   -0.6850   20.9978 C   0  0  1  0  0  0  0  0  0  0  0  0
    6.8803   -0.5319   21.9611 H   0  0  0  0  0  0  0  0  0  0  0  0
    7.5613   -2.2157   20.8265 C   0  0  0  0  0  0  0  0  0  0  0  0
    6.7335   -3.0675   20.6327 O   0  0  0  0  0  0  0  0  0  0  0  0
    8.8992   -2.4527   20.9594 N   0  0  0  0  0  0  0  0  0  0  0  0
    9.3404   -3.2809   20.6197 H   0  0  0  0  0  0  0  0  0  0  0  0
    9.6449   -1.3042   21.0876 C   0  0  0  0  0  0  0  0  0  0  0  0
   10.8444   -1.2826   21.1891 O   0  0  0  0  0  0  0  0  0  0  0  0
    8.7813   -0.2459   21.0602 N   0  0  0  0  0  0  0  0  0  0  0  0
    9.1575    1.0460   21.6091 C   0  0  0  0  0  0  0  0  0  0  0  0
   10.1973    1.2353   21.3127 H   0  0  0  0  0  0  0  0  0  0  0  0
    8.5142    1.7954   21.1265 H   0  0  0  0  0  0  0  0  0  0  0  0
    9.0082    1.0944   23.1238 C   0  0  0  0  0  0  0  0  0  0  0  0
    7.8182    1.5590   23.7121 C   0  0  0  0  0  0  0  0  0  0  0  0
    7.0168    1.9379   23.0783 H   0  0  0  0  0  0  0  0  0  0  0  0
    7.6457    1.5510   25.0996 C   0  0  0  0  0  0  0  0  0  0  0  0
    6.7422    1.8980   25.5885 H   0  0  0  0  0  0  0  0  0  0  0  0
    8.6781    1.0685   25.8960 C   0  0  0  0  0  0  0  0  0  0  0  0
    8.4844    1.0289   27.2256 F   0  0  0  0  0  0  0  0  0  0  0  0
    9.8782    0.6124   25.3575 C   0  0  0  0  0  0  0  0  0  0  0  0
   10.6512    0.2671   26.0371 H   0  0  0  0  0  0  0  0  0  0  0  0
   10.0332    0.6182   23.9630 C   0  0  0  0  0  0  0  0  0  0  0  0
   10.9592    0.2543   23.5172 H   0  0  0  0  0  0  0  0  0  0  0  0
    5.4197    0.6749   20.1360 C   0  0  0  0  0  0  0  0  0  0  0  0
    4.9807    0.6540   21.1379 H   0  0  0  0  0  0  0  0  0  0  0  0
    4.7753    1.3286   19.0781 C   0  0  0  0  0  0  0  0  0  0  0  0
    3.8326    1.8540   19.2208 H   0  0  0  0  0  0  0  0  0  0  0  0
  1  2  1  0
  2  3  2  0
  3  4  1  0
  4  5  1  0
  4  6  2  0
  6  7  1  0
  7  8  1  1
  7  9  1  0
  9 10  2  0
  9 11  1  0
 11 12  1  0
 11 13  1  0
 13 14  2  0
 13 15  1  0
 15 16  1  0
 16 17  1  0
 16 18  1  0
 16 19  1  0
 19 20  2  0
 20 21  1  0
 20 22  1  0
 22 23  1  0
 22 24  2  0
 24 25  1  0
 24 26  1  0
 26 27  1  0
 26 28  2  0
 28 29  1  0
  6 30  1  0
 30 31  1  0
 30 32  2  0
 32 33  1  0
 32  2  1  0
 15  7  1  0
 28 19  1  0
M  END
>  <cnnaffinity>  (1) 
-5.0438

>  <filename>  (1) 
O=C1NC(=O)N(Cc2ccc(F)cc2)[C@H]1c1cccnc1

$$$$
