
     RDKit          3D

 43 46  0  0  0  0  0  0  0  0999 V2000
   14.4647   -1.7449   22.2673 O   0  0  0  0  0  0  0  0  0  0  0  0
   13.4421   -1.0887   22.1954 C   0  0  0  0  0  0  0  0  0  0  0  0
   13.2016    0.2239   22.7771 C   0  0  0  0  0  0  0  0  0  0  0  0
   12.0525    0.8952   22.4979 C   0  0  0  0  0  0  0  0  0  0  0  0
   11.0374    0.3341   21.6399 C   0  0  0  0  0  0  0  0  0  0  0  0
    9.8357    1.2140   21.3058 C   0  0  0  0  0  0  0  0  0  0  0  0
    8.7138    1.1741   22.2944 C   0  0  0  0  0  0  0  0  0  0  0  0
    8.6225    1.9225   23.3707 N   0  0  0  0  0  0  0  0  0  0  0  0
    7.4795    1.4841   23.9738 C   0  0  0  0  0  0  0  0  0  0  0  0
    7.0246    2.0278   25.2919 C   0  0  0  0  0  0  0  0  0  0  0  0
    7.7112    3.1284   25.8492 C   0  0  0  0  0  0  0  0  0  0  0  0
    7.2953    3.6482   27.0685 C   0  0  0  0  0  0  0  0  0  0  0  0
    7.9605    4.6925   27.5805 F   0  0  0  0  0  0  0  0  0  0  0  0
    6.2077    3.1355   27.7686 C   0  0  0  0  0  0  0  0  0  0  0  0
    5.5618    2.0331   27.2145 C   0  0  0  0  0  0  0  0  0  0  0  0
    4.5229    1.5072   27.8783 F   0  0  0  0  0  0  0  0  0  0  0  0
    5.9460    1.4562   26.0060 C   0  0  0  0  0  0  0  0  0  0  0  0
    5.4172    0.5767   25.6464 H   0  0  0  0  0  0  0  0  0  0  0  0
    5.8759    3.5790   28.6979 H   0  0  0  0  0  0  0  0  0  0  0  0
    8.5618    3.5728   25.3398 H   0  0  0  0  0  0  0  0  0  0  0  0
    6.8549    0.5350   23.2912 N   0  0  0  0  0  0  0  0  0  0  0  0
    7.6584    0.3380   22.2224 N   0  0  0  0  0  0  0  0  0  0  0  0
    7.3071   -0.5831   21.1495 C   0  0  0  0  0  0  0  0  0  0  0  0
    6.6564    0.0901   19.9497 C   0  0  0  0  0  0  0  0  0  0  0  0
    5.4506    0.7829   20.1158 C   0  0  0  0  0  0  0  0  0  0  0  0
    4.8613    1.3798   18.9993 C   0  0  0  0  0  0  0  0  0  0  0  0
    5.4944    1.2762   17.7577 C   0  0  0  0  0  0  0  0  0  0  0  0
    6.6491    0.6195   17.5758 N   0  0  0  0  0  0  0  0  0  0  0  0
    7.2052    0.0544   18.6569 C   0  0  0  0  0  0  0  0  0  0  0  0
    8.1444   -0.4628   18.4647 H   0  0  0  0  0  0  0  0  0  0  0  0
    5.0575    1.7445   16.8757 H   0  0  0  0  0  0  0  0  0  0  0  0
    3.9377    1.9414   19.0791 H   0  0  0  0  0  0  0  0  0  0  0  0
    4.9944    0.8588   21.1061 H   0  0  0  0  0  0  0  0  0  0  0  0
    6.6387   -1.3206   21.6051 H   0  0  0  0  0  0  0  0  0  0  0  0
    8.2189   -1.1057   20.8416 H   0  0  0  0  0  0  0  0  0  0  0  0
    9.4218    1.0057   20.3165 H   0  0  0  0  0  0  0  0  0  0  0  0
   10.1646    2.2572   21.2721 H   0  0  0  0  0  0  0  0  0  0  0  0
   11.2074   -0.9411   21.1924 C   0  0  0  0  0  0  0  0  0  0  0  0
   12.3677   -1.6262   21.4944 N   0  0  0  0  0  0  0  0  0  0  0  0
   12.6318   -2.5512   21.1766 H   0  0  0  0  0  0  0  0  0  0  0  0
   10.4666   -1.4485   20.5825 H   0  0  0  0  0  0  0  0  0  0  0  0
   11.8884    1.8915   22.9119 H   0  0  0  0  0  0  0  0  0  0  0  0
   13.9960    0.6053   23.4053 H   0  0  0  0  0  0  0  0  0  0  0  0
  1  2  2  0
  2  3  1  0
  3  4  2  0
  4  5  1  0
  5  6  1  0
  6  7  1  0
  7  8  2  0
  8  9  1  0
  9 10  1  0
 10 11  2  0
 11 12  1  0
 12 13  1  0
 12 14  2  0
 14 15  1  0
 15 16  1  0
 15 17  2  0
 17 18  1  0
 14 19  1  0
 11 20  1  0
  9 21  2  0
 21 22  1  0
 22 23  1  0
 23 24  1  0
 24 25  2  0
 25 26  1  0
 26 27  2  0
 27 28  1  0
 28 29  2  0
 29 30  1  0
 27 31  1  0
 26 32  1  0
 25 33  1  0
 23 34  1  0
 23 35  1  0
  6 36  1  0
  6 37  1  0
  5 38  2  0
 38 39  1  0
 39 40  1  0
 38 41  1  0
  4 42  1  0
  3 43  1  0
 39  2  1  0
 22  7  1  0
 29 24  1  0
 17 10  1  0
M  END
>  <cnnaffinity>  (1) 
-6.64611

>  <filename>  (1) 
O=c1ccc(Cc2nc(-c3cc(F)cc(F)c3)nn2Cc2cccnc2)c[nH]1

$$$$
