
     RDKit          3D

 31 33  0  0  0  0  0  0  0  0999 V2000
    4.8818    1.7451   16.8953 H   0  0  0  0  0  0  0  0  0  0  0  0
    5.4239    1.2913   17.7188 C   0  0  0  0  0  0  0  0  0  0  0  0
    6.5555    0.6064   17.4674 N   0  0  0  0  0  0  0  0  0  0  0  0
    7.2048    0.0640   18.5131 C   0  0  0  0  0  0  0  0  0  0  0  0
    8.1126   -0.5003   18.3232 H   0  0  0  0  0  0  0  0  0  0  0  0
    6.7652    0.2030   19.8357 C   0  0  0  0  0  0  0  0  0  0  0  0
    7.5163   -0.4330   20.8976 C   0  0  0  0  0  0  0  0  0  0  0  0
    7.7863    0.1549   22.1340 C   0  0  0  0  0  0  0  0  0  0  0  0
    7.3804    1.5157   22.5216 C   0  0  0  0  0  0  0  0  0  0  0  0
    6.7287    1.6758   23.7559 C   0  0  0  0  0  0  0  0  0  0  0  0
    6.5224    0.7901   24.3457 H   0  0  0  0  0  0  0  0  0  0  0  0
    6.3460    2.9398   24.2197 C   0  0  0  0  0  0  0  0  0  0  0  0
    5.8259    3.0523   25.1712 H   0  0  0  0  0  0  0  0  0  0  0  0
    6.6466    4.0600   23.4478 C   0  0  0  0  0  0  0  0  0  0  0  0
    6.3580    5.0433   23.8036 H   0  0  0  0  0  0  0  0  0  0  0  0
    7.3314    3.9399   22.2344 C   0  0  0  0  0  0  0  0  0  0  0  0
    7.8257    5.5503   21.3155 Br  0  0  0  0  0  0  0  0  0  0  0  0
    7.6778    2.6610   21.7599 C   0  0  0  0  0  0  0  0  0  0  0  0
    8.2150    2.5720   20.8229 H   0  0  0  0  0  0  0  0  0  0  0  0
    8.4279   -0.6551   23.1807 C   0  0  0  0  0  0  0  0  0  0  0  0
    8.6995   -0.1753   24.1223 H   0  0  0  0  0  0  0  0  0  0  0  0
    8.6200   -2.0037   22.9685 C   0  0  0  0  0  0  0  0  0  0  0  0
    9.0288   -2.6527   23.7298 H   0  0  0  0  0  0  0  0  0  0  0  0
    8.2868   -2.5721   21.6733 C   0  0  0  0  0  0  0  0  0  0  0  0
    8.3490   -3.7655   21.4304 O   0  0  0  0  0  0  0  0  0  0  0  0
    7.8836   -1.7526   20.6572 N   0  0  0  0  0  0  0  0  0  0  0  0
    7.4563   -2.2422   19.8806 H   0  0  0  0  0  0  0  0  0  0  0  0
    5.5859    0.8925   20.0972 C   0  0  0  0  0  0  0  0  0  0  0  0
    5.2038    0.9730   21.1154 H   0  0  0  0  0  0  0  0  0  0  0  0
    4.9069    1.4345   19.0112 C   0  0  0  0  0  0  0  0  0  0  0  0
    3.9795    1.9685   19.1671 H   0  0  0  0  0  0  0  0  0  0  0  0
  1  2  1  0
  2  3  2  0
  3  4  1  0
  4  5  1  0
  4  6  2  0
  6  7  1  0
  7  8  2  0
  8  9  1  0
  9 10  2  0
 10 11  1  0
 10 12  1  0
 12 13  1  0
 12 14  2  0
 14 15  1  0
 14 16  1  0
 16 17  1  0
 16 18  2  0
 18 19  1  0
  8 20  1  0
 20 21  1  0
 20 22  2  0
 22 23  1  0
 22 24  1  0
 24 25  2  0
 24 26  1  0
 26 27  1  0
  6 28  1  0
 28 29  1  0
 28 30  2  0
 30 31  1  0
 30  2  1  0
 26  7  1  0
 18  9  1  0
M  END
>  <cnnaffinity>  (1) 
-5.22519

>  <filename>  (1) 
O=c1ccc(-c2cccc(Br)c2)c(-c2cccnc2)[nH]1

$$$$
