
     RDKit          3D

 48 51  0  0  0  0  0  0  0  0999 V2000
   13.6877    0.0311   22.3640 O   0  0  0  0  0  0  0  0  0  0  0  0
   12.6044    0.5912   22.3560 C   0  0  0  0  0  0  0  0  0  0  0  0
   12.1069    1.5824   23.3138 C   0  0  0  0  0  0  0  0  0  0  0  0
   10.8620    2.1166   23.1763 C   0  0  0  0  0  0  0  0  0  0  0  0
   10.0245    1.7255   22.0403 C   0  0  0  0  0  0  0  0  0  0  0  0
    8.5991    2.2006   21.8460 C   0  0  0  0  0  0  0  0  0  0  0  0
    7.5676    1.3482   22.6523 C   0  0  0  0  0  0  0  0  0  0  0  0
    7.5748   -0.1111   22.2624 C   0  0  0  0  0  0  0  0  0  0  0  0
    8.1133   -1.1144   22.9489 N   0  0  0  0  0  0  0  0  0  0  0  0
    8.1767   -2.1229   22.0365 C   0  0  0  0  0  0  0  0  0  0  0  0
    8.7704   -3.4816   22.2392 C   0  0  0  0  0  0  0  0  0  0  0  0
    7.9069   -4.5005   23.0114 C   0  0  0  0  0  0  0  0  0  0  0  0
    7.3972   -4.0022   24.3774 C   0  0  0  0  0  0  0  0  0  0  0  0
    6.0265   -3.3405   24.1130 C   0  0  0  0  0  0  0  0  0  0  0  0
    5.5499   -3.8412   22.7315 C   0  0  0  0  0  0  0  0  0  0  0  0
    6.6198   -4.8309   22.2307 C   0  0  0  0  0  0  0  0  0  0  0  0
    6.3191   -5.8681   22.4296 H   0  0  0  0  0  0  0  0  0  0  0  0
    6.7692   -4.7506   21.1459 H   0  0  0  0  0  0  0  0  0  0  0  0
    5.4584   -3.0005   22.0356 H   0  0  0  0  0  0  0  0  0  0  0  0
    4.5694   -4.3257   22.7838 H   0  0  0  0  0  0  0  0  0  0  0  0
    6.1321   -2.2527   24.0896 H   0  0  0  0  0  0  0  0  0  0  0  0
    5.3166   -3.5798   24.9119 H   0  0  0  0  0  0  0  0  0  0  0  0
    8.0947   -3.2999   24.8500 H   0  0  0  0  0  0  0  0  0  0  0  0
    7.2833   -4.8577   25.0600 H   0  0  0  0  0  0  0  0  0  0  0  0
    8.5225   -5.4006   23.1452 H   0  0  0  0  0  0  0  0  0  0  0  0
    8.9078   -3.8700   21.2249 H   0  0  0  0  0  0  0  0  0  0  0  0
    9.7511   -3.3475   22.7019 H   0  0  0  0  0  0  0  0  0  0  0  0
    7.7101   -1.8136   20.8476 N   0  0  0  0  0  0  0  0  0  0  0  0
    7.2892   -0.5357   20.9989 N   0  0  0  0  0  0  0  0  0  0  0  0
    6.6101    0.0879   19.9260 C   0  0  0  0  0  0  0  0  0  0  0  0
    5.3940    0.7389   20.1342 C   0  0  0  0  0  0  0  0  0  0  0  0
    4.7936    1.3562   19.0351 C   0  0  0  0  0  0  0  0  0  0  0  0
    5.4266    1.3006   17.7887 C   0  0  0  0  0  0  0  0  0  0  0  0
    6.5761    0.6329   17.5799 N   0  0  0  0  0  0  0  0  0  0  0  0
    7.1409    0.0243   18.6270 C   0  0  0  0  0  0  0  0  0  0  0  0
    8.0505   -0.5433   18.4436 H   0  0  0  0  0  0  0  0  0  0  0  0
    4.9987    1.8062   16.9252 H   0  0  0  0  0  0  0  0  0  0  0  0
    3.8490    1.8757   19.1404 H   0  0  0  0  0  0  0  0  0  0  0  0
    4.9274    0.7183   21.1205 H   0  0  0  0  0  0  0  0  0  0  0  0
    7.7922    1.4106   23.7222 H   0  0  0  0  0  0  0  0  0  0  0  0
    6.5645    1.7706   22.5283 H   0  0  0  0  0  0  0  0  0  0  0  0
    8.5085    3.2465   22.1498 H   0  0  0  0  0  0  0  0  0  0  0  0
    8.3608    2.1570   20.7752 H   0  0  0  0  0  0  0  0  0  0  0  0
   10.4486    0.8583   21.1641 N   0  0  0  0  0  0  0  0  0  0  0  0
   11.6661    0.2996   21.3718 N   0  0  0  0  0  0  0  0  0  0  0  0
   11.9756   -0.4125   20.7299 H   0  0  0  0  0  0  0  0  0  0  0  0
   10.4806    2.8300   23.9043 H   0  0  0  0  0  0  0  0  0  0  0  0
   12.7988    1.8252   24.1144 H   0  0  0  0  0  0  0  0  0  0  0  0
  1  2  2  0
  2  3  1  0
  3  4  2  0
  4  5  1  0
  5  6  1  0
  6  7  1  0
  7  8  1  0
  8  9  2  0
  9 10  1  0
 10 11  1  0
 11 12  1  0
 12 13  1  0
 13 14  1  0
 14 15  1  0
 15 16  1  0
 16 17  1  0
 16 18  1  0
 15 19  1  0
 15 20  1  0
 14 21  1  0
 14 22  1  0
 13 23  1  0
 13 24  1  0
 12 25  1  0
 11 26  1  0
 11 27  1  0
 10 28  2  0
 28 29  1  0
 29 30  1  0
 30 31  2  0
 31 32  1  0
 32 33  2  0
 33 34  1  0
 34 35  2  0
 35 36  1  0
 33 37  1  0
 32 38  1  0
 31 39  1  0
  7 40  1  0
  7 41  1  0
  6 42  1  0
  6 43  1  0
  5 44  2  0
 44 45  1  0
 45 46  1  0
  4 47  1  0
  3 48  1  0
 45  2  1  0
 29  8  1  0
 35 30  1  0
 16 12  1  0
M  END
>  <cnnaffinity>  (1) 
-6.17108

>  <filename>  (1) 
O=c1ccc(CCc2nc(CC3CCCC3)nn2-c2cccnc2)n[nH]1

$$$$
