
     RDKit          3D

 34 37  0  0  0  0  0  0  0  0999 V2000
    9.2154   -2.6122   24.0952 O   0  0  0  0  0  0  0  0  0  0  0  0
    8.6646   -1.9643   23.2441 C   0  0  0  0  0  0  0  0  0  0  0  0
    9.4370   -1.0082   22.3458 C   0  0  0  0  0  0  0  0  0  0  0  0
    8.8456   -0.9070   20.9307 C   0  0  0  0  0  0  0  0  0  0  0  0
    7.3344   -0.7559   20.9955 C   0  0  0  0  0  0  0  0  0  0  0  0
    6.6275   -1.2780   21.9424 N   0  0  0  0  0  0  0  0  0  0  0  0
    7.2691   -2.0114   22.9814 N   0  0  0  0  0  0  0  0  0  0  0  0
    6.4897   -2.7619   23.8722 C   0  0  0  0  0  0  0  0  0  0  0  0
    6.8552   -3.3045   24.9890 N   0  0  0  0  0  0  0  0  0  0  0  0
    5.6854   -3.8491   25.5024 C   0  0  0  0  0  0  0  0  0  0  0  0
    5.4389   -4.6346   26.6407 C   0  0  0  0  0  0  0  0  0  0  0  0
    4.1170   -4.9935   26.9144 C   0  0  0  0  0  0  0  0  0  0  0  0
    3.0643   -4.5604   26.0890 C   0  0  0  0  0  0  0  0  0  0  0  0
    3.3042   -3.8033   24.9393 C   0  0  0  0  0  0  0  0  0  0  0  0
    4.6355   -3.5349   24.6368 C   0  0  0  0  0  0  0  0  0  0  0  0
    5.1781   -2.9218   23.5478 O   0  0  0  0  0  0  0  0  0  0  0  0
    2.4969   -3.4428   24.3215 H   0  0  0  0  0  0  0  0  0  0  0  0
    2.0473   -4.8451   26.3423 H   0  0  0  0  0  0  0  0  0  0  0  0
    3.9032   -5.6136   27.7774 H   0  0  0  0  0  0  0  0  0  0  0  0
    6.2637   -4.9711   27.2594 H   0  0  0  0  0  0  0  0  0  0  0  0
    6.6293   -0.0135   19.9207 C   0  0  0  0  0  0  0  0  0  0  0  0
    5.4153    0.6486   20.1642 C   0  0  0  0  0  0  0  0  0  0  0  0
    4.8039    1.3160   19.1042 C   0  0  0  0  0  0  0  0  0  0  0  0
    5.4062    1.2905   17.8420 C   0  0  0  0  0  0  0  0  0  0  0  0
    6.5658    0.6655   17.5952 N   0  0  0  0  0  0  0  0  0  0  0  0
    7.1595    0.0467   18.6195 C   0  0  0  0  0  0  0  0  0  0  0  0
    8.1136   -0.4246   18.3772 H   0  0  0  0  0  0  0  0  0  0  0  0
    4.9476    1.7891   16.9905 H   0  0  0  0  0  0  0  0  0  0  0  0
    3.8720    1.8497   19.2363 H   0  0  0  0  0  0  0  0  0  0  0  0
    4.9826    0.6260   21.1656 H   0  0  0  0  0  0  0  0  0  0  0  0
    9.2851   -0.0655   20.3858 H   0  0  0  0  0  0  0  0  0  0  0  0
    9.0843   -1.8067   20.3433 H   0  0  0  0  0  0  0  0  0  0  0  0
    9.4392   -0.0307   22.8521 H   0  0  0  0  0  0  0  0  0  0  0  0
   10.4679   -1.3692   22.3476 H   0  0  0  0  0  0  0  0  0  0  0  0
  1  2  2  0
  2  3  1  0
  3  4  1  0
  4  5  1  0
  5  6  2  0
  6  7  1  0
  7  8  1  0
  8  9  2  0
  9 10  1  0
 10 11  2  0
 11 12  1  0
 12 13  2  0
 13 14  1  0
 14 15  2  0
 15 16  1  0
 14 17  1  0
 13 18  1  0
 12 19  1  0
 11 20  1  0
  5 21  1  0
 21 22  2  0
 22 23  1  0
 23 24  2  0
 24 25  1  0
 25 26  2  0
 26 27  1  0
 24 28  1  0
 23 29  1  0
 22 30  1  0
  4 31  1  0
  4 32  1  0
  3 33  1  0
  3 34  1  0
  7  2  1  0
 16  8  1  0
 26 21  1  0
 15 10  1  0
M  END
>  <cnnaffinity>  (1) 
-5.17897

>  <filename>  (1) 
O=C1CCC(c2cccnc2)=NN1c1nc2ccccc2o1

$$$$
