
     RDKit          3D

 34 37  0  0  0  0  0  0  0  0999 V2000
    4.8720    1.8484   16.8985 H   0  0  0  0  0  0  0  0  0  0  0  0
    5.3782    1.3530   17.7228 C   0  0  0  0  0  0  0  0  0  0  0  0
    6.5311    0.7336   17.4209 N   0  0  0  0  0  0  0  0  0  0  0  0
    7.1803    0.1039   18.4080 C   0  0  0  0  0  0  0  0  0  0  0  0
    8.1190   -0.3845   18.1535 H   0  0  0  0  0  0  0  0  0  0  0  0
    6.7030    0.0412   19.7330 C   0  0  0  0  0  0  0  0  0  0  0  0
    7.3432   -0.7319   20.7390 N   0  0  0  0  0  0  0  0  0  0  0  0
    6.6526   -1.5437   21.6291 C   0  0  0  0  0  0  0  0  0  0  0  0
    5.5782   -1.6321   21.5941 H   0  0  0  0  0  0  0  0  0  0  0  0
    7.5304   -2.0466   22.5188 C   0  0  0  0  0  0  0  0  0  0  0  0
    7.3261   -2.8656   23.7020 C   0  0  0  0  0  0  0  0  0  0  0  0
    6.4355   -3.9293   23.7315 C   0  0  0  0  0  0  0  0  0  0  0  0
    5.8186   -4.1118   22.8588 H   0  0  0  0  0  0  0  0  0  0  0  0
    6.3563   -4.8006   24.8443 C   0  0  0  0  0  0  0  0  0  0  0  0
    5.6612   -5.6379   24.8072 H   0  0  0  0  0  0  0  0  0  0  0  0
    7.1647   -4.6013   25.9436 C   0  0  0  0  0  0  0  0  0  0  0  0
    7.1367   -5.3026   26.7795 H   0  0  0  0  0  0  0  0  0  0  0  0
    8.0155   -3.4521   25.9965 C   0  0  0  0  0  0  0  0  0  0  0  0
    8.7747   -3.0882   27.1442 C   0  0  0  0  0  0  0  0  0  0  0  0
    8.8090   -3.8123   27.9555 H   0  0  0  0  0  0  0  0  0  0  0  0
    9.3819   -1.8537   27.1959 C   0  0  0  0  0  0  0  0  0  0  0  0
    9.9202   -1.4797   28.0609 H   0  0  0  0  0  0  0  0  0  0  0  0
    9.3546   -1.0204   26.0497 C   0  0  0  0  0  0  0  0  0  0  0  0
    9.8603   -0.0555   26.0884 H   0  0  0  0  0  0  0  0  0  0  0  0
    8.8077   -1.3848   24.9155 N   0  0  0  0  0  0  0  0  0  0  0  0
    8.0760   -2.5483   24.8848 C   0  0  0  0  0  0  0  0  0  0  0  0
    8.7886   -1.5677   22.1593 N   0  0  0  0  0  0  0  0  0  0  0  0
    9.5347   -1.4177   22.8232 H   0  0  0  0  0  0  0  0  0  0  0  0
    8.7046   -0.7025   21.0997 C   0  0  0  0  0  0  0  0  0  0  0  0
    9.6123   -0.0558   20.6248 O   0  0  0  0  0  0  0  0  0  0  0  0
    5.5148    0.7168   20.0397 C   0  0  0  0  0  0  0  0  0  0  0  0
    5.1506    0.7264   21.0684 H   0  0  0  0  0  0  0  0  0  0  0  0
    4.8344    1.3732   19.0118 C   0  0  0  0  0  0  0  0  0  0  0  0
    3.8946    1.8819   19.1966 H   0  0  0  0  0  0  0  0  0  0  0  0
  1  2  1  0
  2  3  2  0
  3  4  1  0
  4  5  1  0
  4  6  2  0
  6  7  1  0
  7  8  1  0
  8  9  1  0
  8 10  2  0
 10 11  1  0
 11 12  2  0
 12 13  1  0
 12 14  1  0
 14 15  1  0
 14 16  2  0
 16 17  1  0
 16 18  1  0
 18 19  2  0
 19 20  1  0
 19 21  1  0
 21 22  1  0
 21 23  2  0
 23 24  1  0
 23 25  1  0
 25 26  2  0
 10 27  1  0
 27 28  1  0
 27 29  1  0
 29 30  2  0
  6 31  1  0
 31 32  1  0
 31 33  2  0
 33 34  1  0
 33  2  1  0
 29  7  1  0
 26 11  1  0
 26 18  1  0
M  END
>  <cnnaffinity>  (1) 
-5.66241

>  <filename>  (1) 
O=c1[nH]c(-c2cccc3cccnc23)cn1-c1cccnc1

$$$$
