
     RDKit          3D

 32 34  0  0  0  0  0  0  0  0999 V2000
    9.1834   -2.7067   24.0214 O   0  0  0  0  0  0  0  0  0  0  0  0
    8.6693   -1.9823   23.1963 C   0  0  0  0  0  0  0  0  0  0  0  0
    9.4549   -1.0231   22.3200 C   0  0  0  0  0  0  0  0  0  0  0  0
    8.8585   -0.8984   20.9177 C   0  0  0  0  0  0  0  0  0  0  0  0
    7.3563   -0.7407   20.9869 C   0  0  0  0  0  0  0  0  0  0  0  0
    6.6440   -1.2522   21.9419 N   0  0  0  0  0  0  0  0  0  0  0  0
    7.2653   -1.9367   22.9816 N   0  0  0  0  0  0  0  0  0  0  0  0
    6.3782   -2.6065   23.8960 C   0  0  0  0  0  0  0  0  0  0  0  0
    6.5640   -2.5035   25.2803 C   0  0  0  0  0  0  0  0  0  0  0  0
    5.7000   -3.1452   26.1727 C   0  0  0  0  0  0  0  0  0  0  0  0
    4.6338   -3.9113   25.7059 C   0  0  0  0  0  0  0  0  0  0  0  0
    4.4321   -4.0237   24.3304 C   0  0  0  0  0  0  0  0  0  0  0  0
    3.1007   -4.9611   23.7439 Cl  0  0  0  0  0  0  0  0  0  0  0  0
    5.2900   -3.3741   23.4300 C   0  0  0  0  0  0  0  0  0  0  0  0
    5.0522   -3.5257   22.1270 F   0  0  0  0  0  0  0  0  0  0  0  0
    3.9555   -4.4211   26.3895 H   0  0  0  0  0  0  0  0  0  0  0  0
    5.8629   -3.0609   27.2414 H   0  0  0  0  0  0  0  0  0  0  0  0
    7.3935   -1.9221   25.6622 H   0  0  0  0  0  0  0  0  0  0  0  0
    6.6480    0.0012   19.9199 C   0  0  0  0  0  0  0  0  0  0  0  0
    5.4297    0.6505   20.1698 C   0  0  0  0  0  0  0  0  0  0  0  0
    4.8111    1.3110   19.1098 C   0  0  0  0  0  0  0  0  0  0  0  0
    5.4087    1.2886   17.8431 C   0  0  0  0  0  0  0  0  0  0  0  0
    6.5694    0.6672   17.5899 N   0  0  0  0  0  0  0  0  0  0  0  0
    7.1689    0.0588   18.6159 C   0  0  0  0  0  0  0  0  0  0  0  0
    8.1158   -0.4226   18.3724 H   0  0  0  0  0  0  0  0  0  0  0  0
    4.9286    1.7775   16.9977 H   0  0  0  0  0  0  0  0  0  0  0  0
    3.8766    1.8430   19.2539 H   0  0  0  0  0  0  0  0  0  0  0  0
    5.0010    0.6206   21.1738 H   0  0  0  0  0  0  0  0  0  0  0  0
    9.3226   -0.0652   20.3736 H   0  0  0  0  0  0  0  0  0  0  0  0
    9.0740   -1.8056   20.3409 H   0  0  0  0  0  0  0  0  0  0  0  0
   10.4841   -1.3787   22.2979 H   0  0  0  0  0  0  0  0  0  0  0  0
    9.4716   -0.0510   22.8302 H   0  0  0  0  0  0  0  0  0  0  0  0
  1  2  2  0
  2  3  1  0
  3  4  1  0
  4  5  1  0
  5  6  2  0
  6  7  1  0
  7  8  1  0
  8  9  2  0
  9 10  1  0
 10 11  2  0
 11 12  1  0
 12 13  1  0
 12 14  2  0
 14 15  1  0
 11 16  1  0
 10 17  1  0
  9 18  1  0
  5 19  1  0
 19 20  2  0
 20 21  1  0
 21 22  2  0
 22 23  1  0
 23 24  2  0
 24 25  1  0
 22 26  1  0
 21 27  1  0
 20 28  1  0
  4 29  1  0
  4 30  1  0
  3 31  1  0
  3 32  1  0
  7  2  1  0
 14  8  1  0
 24 19  1  0
M  END
>  <cnnaffinity>  (1) 
-5.2424

>  <filename>  (1) 
O=C1CCC(c2cccnc2)=NN1c1cccc(Cl)c1F

$$$$
