
     RDKit          3D

 45 48  0  0  0  0  0  0  0  0999 V2000
   13.8803    0.0969   25.8946 O   0  0  0  0  0  0  0  0  0  0  0  0
   13.0466    0.1595   25.0115 C   0  0  0  0  0  0  0  0  0  0  0  0
   11.6432   -0.2481   25.0590 C   0  0  0  0  0  0  0  0  0  0  0  0
   10.9342   -0.3747   23.8997 C   0  0  0  0  0  0  0  0  0  0  0  0
   11.5595   -0.0300   22.6314 C   0  0  0  0  0  0  0  0  0  0  0  0
   10.8610   -0.1979   21.3046 C   0  0  0  0  0  0  0  0  0  0  0  0
    9.9223    0.9759   20.8798 C   0  0  0  0  0  0  0  0  0  0  0  0
    8.7981    1.1796   21.8437 C   0  0  0  0  0  0  0  0  0  0  0  0
    8.7583    2.0544   22.8287 N   0  0  0  0  0  0  0  0  0  0  0  0
    7.7490    1.5900   23.6172 C   0  0  0  0  0  0  0  0  0  0  0  0
    7.4042    2.2008   24.9201 C   0  0  0  0  0  0  0  0  0  0  0  0
    6.1944    1.8770   25.5696 C   0  0  0  0  0  0  0  0  0  0  0  0
    5.8584    2.4766   26.7825 C   0  0  0  0  0  0  0  0  0  0  0  0
    6.7458    3.3880   27.3473 C   0  0  0  0  0  0  0  0  0  0  0  0
    6.4205    3.9803   28.5055 F   0  0  0  0  0  0  0  0  0  0  0  0
    7.9578    3.7132   26.7473 C   0  0  0  0  0  0  0  0  0  0  0  0
    8.2878    3.1120   25.5347 C   0  0  0  0  0  0  0  0  0  0  0  0
    9.2382    3.3475   25.0605 H   0  0  0  0  0  0  0  0  0  0  0  0
    8.6059    4.4333   27.2318 H   0  0  0  0  0  0  0  0  0  0  0  0
    4.9291    2.2625   27.2980 H   0  0  0  0  0  0  0  0  0  0  0  0
    5.5241    1.1463   25.1219 H   0  0  0  0  0  0  0  0  0  0  0  0
    7.1396    0.5210   23.1307 N   0  0  0  0  0  0  0  0  0  0  0  0
    7.8244    0.2573   21.9963 N   0  0  0  0  0  0  0  0  0  0  0  0
    7.3103   -0.7099   21.0260 C   0  0  0  0  0  0  0  0  0  0  0  0
    6.6127   -0.0465   19.8552 C   0  0  0  0  0  0  0  0  0  0  0  0
    5.4302    0.6634   20.0927 C   0  0  0  0  0  0  0  0  0  0  0  0
    4.8251    1.3340   19.0287 C   0  0  0  0  0  0  0  0  0  0  0  0
    5.4383    1.2857   17.7703 C   0  0  0  0  0  0  0  0  0  0  0  0
    6.5664    0.6033   17.5195 N   0  0  0  0  0  0  0  0  0  0  0  0
    7.1285   -0.0449   18.5484 C   0  0  0  0  0  0  0  0  0  0  0  0
    8.0445   -0.5944   18.3161 H   0  0  0  0  0  0  0  0  0  0  0  0
    5.0019    1.8102   16.9231 H   0  0  0  0  0  0  0  0  0  0  0  0
    3.9066    1.8982   19.1620 H   0  0  0  0  0  0  0  0  0  0  0  0
    5.0199    0.7001   21.1067 H   0  0  0  0  0  0  0  0  0  0  0  0
    8.1323   -1.3471   20.6836 H   0  0  0  0  0  0  0  0  0  0  0  0
    6.6183   -1.3384   21.5933 H   0  0  0  0  0  0  0  0  0  0  0  0
   10.4553    1.9288   20.7868 H   0  0  0  0  0  0  0  0  0  0  0  0
    9.4953    0.7538   19.8970 H   0  0  0  0  0  0  0  0  0  0  0  0
   11.6435   -0.3587   20.5649 H   0  0  0  0  0  0  0  0  0  0  0  0
   10.2888   -1.1319   21.3333 H   0  0  0  0  0  0  0  0  0  0  0  0
   12.7864    0.4082   22.5714 N   0  0  0  0  0  0  0  0  0  0  0  0
   13.4415    0.5696   23.7447 N   0  0  0  0  0  0  0  0  0  0  0  0
   14.4280    0.7859   23.7107 H   0  0  0  0  0  0  0  0  0  0  0  0
    9.9213   -0.7649   23.8772 H   0  0  0  0  0  0  0  0  0  0  0  0
   11.2777   -0.5412   26.0343 H   0  0  0  0  0  0  0  0  0  0  0  0
  1  2  2  0
  2  3  1  0
  3  4  2  0
  4  5  1  0
  5  6  1  0
  6  7  1  0
  7  8  1  0
  8  9  2  0
  9 10  1  0
 10 11  1  0
 11 12  2  0
 12 13  1  0
 13 14  2  0
 14 15  1  0
 14 16  1  0
 16 17  2  0
 17 18  1  0
 16 19  1  0
 13 20  1  0
 12 21  1  0
 10 22  2  0
 22 23  1  0
 23 24  1  0
 24 25  1  0
 25 26  2  0
 26 27  1  0
 27 28  2  0
 28 29  1  0
 29 30  2  0
 30 31  1  0
 28 32  1  0
 27 33  1  0
 26 34  1  0
 24 35  1  0
 24 36  1  0
  7 37  1  0
  7 38  1  0
  6 39  1  0
  6 40  1  0
  5 41  2  0
 41 42  1  0
 42 43  1  0
  4 44  1  0
  3 45  1  0
 42  2  1  0
 23  8  1  0
 30 25  1  0
 17 11  1  0
M  END
>  <cnnaffinity>  (1) 
-5.92952

>  <filename>  (1) 
O=c1ccc(CCc2nc(-c3ccc(F)cc3)nn2Cc2cccnc2)n[nH]1

$$$$
