
     RDKit          3D

 35 37  0  0  0  0  0  0  0  0999 V2000
    5.3520    1.9009   16.5284 H   0  0  0  0  0  0  0  0  0  0  0  0
    5.6187    1.2974   17.3939 C   0  0  0  0  0  0  0  0  0  0  0  0
    6.6870    0.4957   17.2550 N   0  0  0  0  0  0  0  0  0  0  0  0
    7.0493   -0.2601   18.2982 C   0  0  0  0  0  0  0  0  0  0  0  0
    7.9286   -0.8899   18.1833 H   0  0  0  0  0  0  0  0  0  0  0  0
    6.3574   -0.2738   19.5214 C   0  0  0  0  0  0  0  0  0  0  0  0
    6.8311   -1.0978   20.5890 N   0  0  0  0  0  0  0  0  0  0  0  0
    8.1844   -1.3051   20.6434 N   0  0  0  0  0  0  0  0  0  0  0  0
    8.6737   -1.8524   21.7192 C   0  0  0  0  0  0  0  0  0  0  0  0
   10.1702   -1.9646   21.8581 C   0  0  0  0  0  0  0  0  0  0  0  0
   10.4299   -2.9731   22.2052 H   0  0  0  0  0  0  0  0  0  0  0  0
   10.6077   -1.8166   20.8664 H   0  0  0  0  0  0  0  0  0  0  0  0
   10.6349   -0.9725   22.8247 N   0  0  0  0  0  0  0  0  0  0  0  0
   10.0962   -0.9203   23.6844 H   0  0  0  0  0  0  0  0  0  0  0  0
   11.6968   -0.1196   22.7634 C   0  0  0  0  0  0  0  0  0  0  0  0
   13.0334   -0.4781   22.3539 C   0  0  0  0  0  0  0  0  0  0  0  0
   13.3364   -1.4724   22.7190 H   0  0  0  0  0  0  0  0  0  0  0  0
   13.9495    0.9132   23.0181 C   0  0  0  0  0  0  0  0  0  0  0  0
   14.2828    0.6289   21.6830 H   0  0  0  0  0  0  0  0  0  0  0  0
   14.2380    1.0167   22.8392 C   0  0  0  0  0  0  0  0  0  0  0  0
   15.2126    1.6142   22.7071 H   0  0  0  0  0  0  0  0  0  0  0  0
   12.7179    1.9890   23.1732 C   0  0  0  0  0  0  0  0  0  0  0  0
   12.9168    2.7079   23.9583 H   0  0  0  0  0  0  0  0  0  0  0  0
   11.4972    1.2376   23.1769 C   0  0  0  0  0  0  0  0  0  0  0  0
   10.5096    1.5934   23.4499 H   0  0  0  0  0  0  0  0  0  0  0  0
    7.8780   -2.2811   22.8987 C   0  0  0  0  0  0  0  0  0  0  0  0
    8.3954   -2.6624   23.9474 O   0  0  0  0  0  0  0  0  0  0  0  0
    6.4527   -2.2240   22.6607 C   0  0  0  0  0  0  0  0  0  0  0  0
    5.7953   -2.6082   23.4298 H   0  0  0  0  0  0  0  0  0  0  0  0
    5.9905   -1.6313   21.5347 C   0  0  0  0  0  0  0  0  0  0  0  0
    4.9332   -1.5130   21.3298 H   0  0  0  0  0  0  0  0  0  0  0  0
    5.2456    0.5738   19.6638 C   0  0  0  0  0  0  0  0  0  0  0  0
    4.7184    0.6334   20.6156 H   0  0  0  0  0  0  0  0  0  0  0  0
    4.8759    1.3713   18.5755 C   0  0  0  0  0  0  0  0  0  0  0  0
    4.0294    2.0478   18.6346 H   0  0  0  0  0  0  0  0  0  0  0  0
  1  2  1  0
  2  3  2  0
  3  4  1  0
  4  5  1  0
  4  6  2  0
  6  7  1  0
  7  8  1  0
  8  9  2  0
  9 10  1  0
 10 11  1  0
 10 12  1  0
 10 13  1  0
 13 14  1  0
 13 15  1  0
 15 16  2  0
 16 17  1  0
 16 18  1  0
 18 19  1  0
 18 20  2  0
 20 21  1  0
 20 22  1  0
 22 23  1  0
 22 24  2  0
 24 25  1  0
  9 26  1  0
 26 27  2  0
 26 28  1  0
 28 29  1  0
 28 30  2  0
 30 31  1  0
  6 32  1  0
 32 33  1  0
 32 34  2  0
 34 35  1  0
 34  2  1  0
 30  7  1  0
 24 15  1  0
M  END
>  <cnnaffinity>  (1) 
-4.91806

>  <filename>  (1) 
O=c1ccn(-c2cccnc2)nc1CNc1ccccc1

$$$$
