
     RDKit          3D

 34 36  0  0  0  0  0  0  0  0999 V2000
    4.9292    1.7791   16.9931 H   0  0  0  0  0  0  0  0  0  0  0  0
    5.4020    1.2852   17.8378 C   0  0  0  0  0  0  0  0  0  0  0  0
    6.5636    0.6678   17.5868 N   0  0  0  0  0  0  0  0  0  0  0  0
    7.1762    0.0653   18.6105 C   0  0  0  0  0  0  0  0  0  0  0  0
    8.1219   -0.4152   18.3723 H   0  0  0  0  0  0  0  0  0  0  0  0
    6.6514    0.0272   19.9077 C   0  0  0  0  0  0  0  0  0  0  0  0
    7.3433   -0.7732   20.9805 C   0  0  0  0  0  0  0  0  0  0  0  0
    7.1585   -0.1733   22.2032 F   0  0  0  0  0  0  0  0  0  0  0  0
    8.6999   -0.7799   20.7551 F   0  0  0  0  0  0  0  0  0  0  0  0
    6.8352   -2.2021   21.0435 C   0  0  0  0  0  0  0  0  0  0  0  0
    5.7733   -2.1751   21.2875 H   0  0  0  0  0  0  0  0  0  0  0  0
    6.9048   -2.6111   20.0367 H   0  0  0  0  0  0  0  0  0  0  0  0
    7.5773   -3.1034   22.0263 C   0  0  0  0  0  0  0  0  0  0  0  0
    7.2114   -4.1311   21.9192 H   0  0  0  0  0  0  0  0  0  0  0  0
    8.6473   -3.1087   21.8027 H   0  0  0  0  0  0  0  0  0  0  0  0
    7.4050   -2.6765   23.4049 N   0  0  0  0  0  0  0  0  0  0  0  0
    6.2059   -2.7926   24.0996 C   0  0  0  0  0  0  0  0  0  0  0  0
    5.2334   -3.3604   23.6584 O   0  0  0  0  0  0  0  0  0  0  0  0
    6.4082   -2.1403   25.4281 C   0  0  0  0  0  0  0  0  0  0  0  0
    5.5461   -1.9811   26.5170 C   0  0  0  0  0  0  0  0  0  0  0  0
    4.5276   -2.3635   26.4908 H   0  0  0  0  0  0  0  0  0  0  0  0
    6.0334   -1.2911   27.6328 C   0  0  0  0  0  0  0  0  0  0  0  0
    5.3915   -1.1443   28.4996 H   0  0  0  0  0  0  0  0  0  0  0  0
    7.3464   -0.7695   27.6394 C   0  0  0  0  0  0  0  0  0  0  0  0
    7.6923   -0.1678   28.4743 H   0  0  0  0  0  0  0  0  0  0  0  0
    8.2128   -0.9659   26.5621 C   0  0  0  0  0  0  0  0  0  0  0  0
    9.2312   -0.5828   26.5904 H   0  0  0  0  0  0  0  0  0  0  0  0
    7.7130   -1.6519   25.4554 C   0  0  0  0  0  0  0  0  0  0  0  0
    8.3576   -1.9838   24.1458 C   0  0  0  0  0  0  0  0  0  0  0  0
    9.4743   -1.7397   23.7686 O   0  0  0  0  0  0  0  0  0  0  0  0
    5.4315    0.6633   20.1628 C   0  0  0  0  0  0  0  0  0  0  0  0
    4.9950    0.6503   21.1658 H   0  0  0  0  0  0  0  0  0  0  0  0
    4.8032    1.3102   19.1012 C   0  0  0  0  0  0  0  0  0  0  0  0
    3.8743    1.8422   19.2509 H   0  0  0  0  0  0  0  0  0  0  0  0
  1  2  1  0
  2  3  2  0
  3  4  1  0
  4  5  1  0
  4  6  2  0
  6  7  1  0
  7  8  1  0
  7  9  1  0
  7 10  1  0
 10 11  1  0
 10 12  1  0
 10 13  1  0
 13 14  1  0
 13 15  1  0
 13 16  1  0
 16 17  1  0
 17 18  2  0
 17 19  1  0
 19 20  2  0
 20 21  1  0
 20 22  1  0
 22 23  1  0
 22 24  2  0
 24 25  1  0
 24 26  1  0
 26 27  1  0
 26 28  2  0
 28 29  1  0
 29 30  2  0
  6 31  1  0
 31 32  1  0
 31 33  2  0
 33 34  1  0
 33  2  1  0
 29 16  1  0
 28 19  1  0
M  END
>  <cnnaffinity>  (1) 
-4.92554

>  <filename>  (1) 
O=C1c2ccccc2C(=O)N1CCC(F)(F)c1cccnc1

$$$$
