
     RDKit          3D

 34 37  0  0  0  0  0  0  0  0999 V2000
    4.9080    1.7773   16.9993 H   0  0  0  0  0  0  0  0  0  0  0  0
    5.3979    1.2958   17.8397 C   0  0  0  0  0  0  0  0  0  0  0  0
    6.5624    0.6795   17.5745 N   0  0  0  0  0  0  0  0  0  0  0  0
    7.1750    0.0596   18.5893 C   0  0  0  0  0  0  0  0  0  0  0  0
    8.1256   -0.4296   18.3820 H   0  0  0  0  0  0  0  0  0  0  0  0
    6.6438   -0.0019   19.8917 C   0  0  0  0  0  0  0  0  0  0  0  0
    7.3395   -0.6941   20.9402 N   0  0  0  0  0  0  0  0  0  0  0  0
    6.7086   -1.7455   21.5739 C   0  0  0  0  0  0  0  0  0  0  0  0
    5.7022   -1.9716   21.2284 H   0  0  0  0  0  0  0  0  0  0  0  0
    7.3270   -2.4545   22.5747 C   0  0  0  0  0  0  0  0  0  0  0  0
    6.6633   -3.5739   23.2642 C   0  0  0  0  0  0  0  0  0  0  0  0
    5.1860   -4.2759   22.6177 S   0  0  0  0  0  0  0  0  0  0  0  0
    5.1006   -5.4209   23.9259 C   0  0  0  0  0  0  0  0  0  0  0  0
    4.1273   -6.4100   24.1426 C   0  0  0  0  0  0  0  0  0  0  0  0
    3.3022   -6.5279   23.4453 H   0  0  0  0  0  0  0  0  0  0  0  0
    4.2513   -7.2223   25.2675 C   0  0  0  0  0  0  0  0  0  0  0  0
    3.5088   -7.9932   25.4578 H   0  0  0  0  0  0  0  0  0  0  0  0
    5.3262   -7.0563   26.1703 C   0  0  0  0  0  0  0  0  0  0  0  0
    5.4082   -7.6987   27.0421 H   0  0  0  0  0  0  0  0  0  0  0  0
    6.2877   -6.0801   25.9544 C   0  0  0  0  0  0  0  0  0  0  0  0
    7.1248   -5.9358   26.6339 H   0  0  0  0  0  0  0  0  0  0  0  0
    6.1781   -5.2499   24.8200 C   0  0  0  0  0  0  0  0  0  0  0  0
    7.0482   -4.1899   24.4142 C   0  0  0  0  0  0  0  0  0  0  0  0
    7.9152   -3.9239   25.0088 H   0  0  0  0  0  0  0  0  0  0  0  0
    8.6511   -2.0726   22.9524 C   0  0  0  0  0  0  0  0  0  0  0  0
    9.1763   -2.6191   23.7324 H   0  0  0  0  0  0  0  0  0  0  0  0
    9.2843   -1.0351   22.3408 C   0  0  0  0  0  0  0  0  0  0  0  0
   10.2786   -0.7116   22.5933 H   0  0  0  0  0  0  0  0  0  0  0  0
    8.6652   -0.2574   21.2877 C   0  0  0  0  0  0  0  0  0  0  0  0
    9.2054    0.6768   20.7222 O   0  0  0  0  0  0  0  0  0  0  0  0
    5.4352    0.6462   20.1556 C   0  0  0  0  0  0  0  0  0  0  0  0
    5.0204    0.6223   21.1651 H   0  0  0  0  0  0  0  0  0  0  0  0
    4.8019    1.3184   19.1067 C   0  0  0  0  0  0  0  0  0  0  0  0
    3.8679    1.8484   19.2649 H   0  0  0  0  0  0  0  0  0  0  0  0
  1  2  1  0
  2  3  2  0
  3  4  1  0
  4  5  1  0
  4  6  2  0
  6  7  1  0
  7  8  1  0
  8  9  1  0
  8 10  2  0
 10 11  1  0
 11 12  1  0
 12 13  1  0
 13 14  2  0
 14 15  1  0
 14 16  1  0
 16 17  1  0
 16 18  2  0
 18 19  1  0
 18 20  1  0
 20 21  1  0
 20 22  2  0
 22 23  1  0
 23 24  1  0
 10 25  1  0
 25 26  1  0
 25 27  2  0
 27 28  1  0
 27 29  1  0
 29 30  2  0
  6 31  1  0
 31 32  1  0
 31 33  2  0
 33 34  1  0
 33  2  1  0
 29  7  1  0
 23 11  2  0
 22 13  1  0
M  END
>  <cnnaffinity>  (1) 
-5.80508

>  <filename>  (1) 
O=c1ccc(-c2cc3ccccc3s2)cn1-c1cccnc1

$$$$
