
     RDKit          3D

 29 31  0  0  0  0  0  0  0  0999 V2000
    6.9367    5.0630   23.0914 H   0  0  0  0  0  0  0  0  0  0  0  0
    7.1075    4.0010   22.9093 C   0  0  0  0  0  0  0  0  0  0  0  0
    7.7934    3.6789   21.8176 N   0  0  0  0  0  0  0  0  0  0  0  0
    7.9651    2.3775   21.5750 C   0  0  0  0  0  0  0  0  0  0  0  0
    8.4972    2.1158   20.6546 H   0  0  0  0  0  0  0  0  0  0  0  0
    7.5041    1.3735   22.4361 C   0  0  0  0  0  0  0  0  0  0  0  0
    7.7152   -0.0797   22.1785 C   0  0  0  0  0  0  0  0  0  0  0  0
    8.3380   -0.8872   23.1907 C   0  0  0  0  0  0  0  0  0  0  0  0
    8.5914   -0.3901   24.1286 H   0  0  0  0  0  0  0  0  0  0  0  0
    8.6212   -2.2025   22.9759 C   0  0  0  0  0  0  0  0  0  0  0  0
    9.0936   -2.8445   23.7052 H   0  0  0  0  0  0  0  0  0  0  0  0
    8.2828   -2.8357   21.7069 C   0  0  0  0  0  0  0  0  0  0  0  0
    8.4330   -4.0060   21.3993 O   0  0  0  0  0  0  0  0  0  0  0  0
    7.7298   -1.9850   20.7708 N   0  0  0  0  0  0  0  0  0  0  0  0
    7.4659   -2.4924   19.9443 H   0  0  0  0  0  0  0  0  0  0  0  0
    7.3719   -0.6783   20.9787 C   0  0  0  0  0  0  0  0  0  0  0  0
    6.6355   -0.0236   19.8951 C   0  0  0  0  0  0  0  0  0  0  0  0
    7.1564    0.0266   18.5908 C   0  0  0  0  0  0  0  0  0  0  0  0
    8.1195   -0.4327   18.3593 H   0  0  0  0  0  0  0  0  0  0  0  0
    6.5650    0.6642   17.5754 N   0  0  0  0  0  0  0  0  0  0  0  0
    5.4027    1.2887   17.8322 C   0  0  0  0  0  0  0  0  0  0  0  0
    4.9355    1.7956   16.9882 H   0  0  0  0  0  0  0  0  0  0  0  0
    4.7985    1.3022   19.0945 C   0  0  0  0  0  0  0  0  0  0  0  0
    3.8732    1.8453   19.2381 H   0  0  0  0  0  0  0  0  0  0  0  0
    5.4239    0.6408   20.1495 C   0  0  0  0  0  0  0  0  0  0  0  0
    5.0100    0.6415   21.1604 H   0  0  0  0  0  0  0  0  0  0  0  0
    6.8262    1.8485   23.5625 C   0  0  0  0  0  0  0  0  0  0  0  0
    6.4208    1.1494   24.3020 H   0  0  0  0  0  0  0  0  0  0  0  0
    6.6102    3.1438   23.8041 N   0  0  0  0  0  0  0  0  0  0  0  0
  1  2  1  0
  2  3  2  0
  3  4  1  0
  4  5  1  0
  4  6  2  0
  6  7  1  0
  7  8  1  0
  8  9  1  0
  8 10  2  0
 10 11  1  0
 10 12  1  0
 12 13  2  0
 12 14  1  0
 14 15  1  0
 14 16  1  0
 16 17  1  0
 17 18  2  0
 18 19  1  0
 18 20  1  0
 20 21  2  0
 21 22  1  0
 21 23  1  0
 23 24  1  0
 23 25  2  0
 25 26  1  0
  6 27  1  0
 27 28  1  0
 27 29  2  0
 29  2  1  0
 16  7  2  0
 25 17  1  0
M  END
>  <cnnaffinity>  (1) 
-5.26208

>  <filename>  (1) 
O=c1ccc(-c2cncnc2)c(-c2cccnc2)[nH]1

$$$$
