
     RDKit          3D

 35 38  0  0  0  0  0  0  0  0999 V2000
    4.9207    1.8058   16.9837 H   0  0  0  0  0  0  0  0  0  0  0  0
    5.3936    1.3153   17.8340 C   0  0  0  0  0  0  0  0  0  0  0  0
    6.5622    0.7044   17.5886 N   0  0  0  0  0  0  0  0  0  0  0  0
    7.1593    0.0914   18.6212 C   0  0  0  0  0  0  0  0  0  0  0  0
    8.1090   -0.3913   18.3968 H   0  0  0  0  0  0  0  0  0  0  0  0
    6.6454    0.0448   19.9404 C   0  0  0  0  0  0  0  0  0  0  0  0
    7.3453   -0.6679   21.0416 C   0  0  0  0  0  0  0  0  0  0  0  0
    7.7092   -2.0392   21.1167 C   0  0  0  0  0  0  0  0  0  0  0  0
    7.4919   -2.8422   20.4267 H   0  0  0  0  0  0  0  0  0  0  0  0
    8.3516   -2.3235   22.2416 N   0  0  0  0  0  0  0  0  0  0  0  0
    8.3924   -1.1575   22.9051 N   0  0  0  0  0  0  0  0  0  0  0  0
    8.8340   -1.1308   23.8162 H   0  0  0  0  0  0  0  0  0  0  0  0
    7.7628   -0.1413   22.2634 C   0  0  0  0  0  0  0  0  0  0  0  0
    7.5673    1.2132   22.9086 C   0  0  0  0  0  0  0  0  0  0  0  0
    6.8629    1.8003   22.3159 H   0  0  0  0  0  0  0  0  0  0  0  0
    8.5038    1.7774   22.9213 H   0  0  0  0  0  0  0  0  0  0  0  0
    7.0888    1.1374   24.2897 N   0  0  0  0  0  0  0  0  0  0  0  0
    7.9204    0.9555   25.3896 C   0  0  0  0  0  0  0  0  0  0  0  0
    9.1255    1.0391   25.3371 O   0  0  0  0  0  0  0  0  0  0  0  0
    7.0459    0.5763   26.5376 C   0  0  0  0  0  0  0  0  0  0  0  0
    7.3509    0.3487   27.8824 C   0  0  0  0  0  0  0  0  0  0  0  0
    8.3658    0.4726   28.2606 H   0  0  0  0  0  0  0  0  0  0  0  0
    6.2993   -0.0417   28.7212 C   0  0  0  0  0  0  0  0  0  0  0  0
    6.4874   -0.1902   29.7828 H   0  0  0  0  0  0  0  0  0  0  0  0
    4.9949   -0.2391   28.2155 C   0  0  0  0  0  0  0  0  0  0  0  0
    4.2073   -0.5806   28.8854 H   0  0  0  0  0  0  0  0  0  0  0  0
    4.7018   -0.0013   26.8659 C   0  0  0  0  0  0  0  0  0  0  0  0
    3.7004   -0.1643   26.4674 H   0  0  0  0  0  0  0  0  0  0  0  0
    5.7454    0.4515   26.0517 C   0  0  0  0  0  0  0  0  0  0  0  0
    5.7641    0.8825   24.6214 C   0  0  0  0  0  0  0  0  0  0  0  0
    4.8302    1.0822   23.8765 O   0  0  0  0  0  0  0  0  0  0  0  0
    5.4259    0.7008   20.1663 C   0  0  0  0  0  0  0  0  0  0  0  0
    4.9882    0.7065   21.1679 H   0  0  0  0  0  0  0  0  0  0  0  0
    4.7885    1.3321   19.0940 C   0  0  0  0  0  0  0  0  0  0  0  0
    3.8413    1.8385   19.2216 H   0  0  0  0  0  0  0  0  0  0  0  0
  1  2  1  0
  2  3  2  0
  3  4  1  0
  4  5  1  0
  4  6  2  0
  6  7  1  0
  7  8  1  0
  8  9  1  0
  8 10  2  0
 10 11  1  0
 11 12  1  0
 11 13  1  0
 13 14  1  0
 14 15  1  0
 14 16  1  0
 14 17  1  0
 17 18  1  0
 18 19  2  0
 18 20  1  0
 20 21  2  0
 21 22  1  0
 21 23  1  0
 23 24  1  0
 23 25  2  0
 25 26  1  0
 25 27  1  0
 27 28  1  0
 27 29  2  0
 29 30  1  0
 30 31  2  0
  6 32  1  0
 32 33  1  0
 32 34  2  0
 34 35  1  0
 34  2  1  0
 13  7  2  0
 30 17  1  0
 29 20  1  0
M  END
>  <cnnaffinity>  (1) 
-5.18144

>  <filename>  (1) 
O=C1c2ccccc2C(=O)N1Cc1[nH]ncc1-c1cccnc1

$$$$
