
     RDKit          3D

 32 34  0  0  0  0  0  0  0  0999 V2000
    4.9093    1.7551   16.9139 H   0  0  0  0  0  0  0  0  0  0  0  0
    5.3704    1.3626   17.8190 C   0  0  0  0  0  0  0  0  0  0  0  0
    6.5819    0.8124   17.6576 N   0  0  0  0  0  0  0  0  0  0  0  0
    7.1630    0.2836   18.7404 C   0  0  0  0  0  0  0  0  0  0  0  0
    8.1381   -0.1714   18.5641 H   0  0  0  0  0  0  0  0  0  0  0  0
    6.5990    0.2874   20.0327 C   0  0  0  0  0  0  0  0  0  0  0  0
    7.2888   -0.4475   21.1339 C   0  0  0  0  0  0  0  0  0  0  0  0
    7.5261    0.3836   22.6599 S   0  0  0  0  0  0  0  0  0  0  0  0
    8.2994   -0.8536   23.6479 C   0  0  0  0  0  0  0  0  0  0  0  0
    8.4373   -0.5408   25.1317 C   0  0  0  0  0  0  0  0  0  0  0  0
    8.4607    0.5383   25.2869 H   0  0  0  0  0  0  0  0  0  0  0  0
    9.3956   -0.9449   25.4793 H   0  0  0  0  0  0  0  0  0  0  0  0
    7.3140   -1.1795   25.9275 C   0  0  0  0  0  0  0  0  0  0  0  0
    7.4368   -2.4612   26.4770 C   0  0  0  0  0  0  0  0  0  0  0  0
    8.3716   -3.0118   26.4264 H   0  0  0  0  0  0  0  0  0  0  0  0
    6.3299   -3.0355   27.1035 C   0  0  0  0  0  0  0  0  0  0  0  0
    6.4016   -4.0330   27.5314 H   0  0  0  0  0  0  0  0  0  0  0  0
    5.1452   -2.4248   27.2265 N   0  0  0  0  0  0  0  0  0  0  0  0
    5.0335   -1.2007   26.6937 C   0  0  0  0  0  0  0  0  0  0  0  0
    4.0627   -0.7214   26.7945 H   0  0  0  0  0  0  0  0  0  0  0  0
    6.0753   -0.5425   26.0403 C   0  0  0  0  0  0  0  0  0  0  0  0
    5.9182    0.4419   25.6086 H   0  0  0  0  0  0  0  0  0  0  0  0
    8.6785   -2.0616   23.1823 C   0  0  0  0  0  0  0  0  0  0  0  0
    9.2319   -2.7644   23.8026 H   0  0  0  0  0  0  0  0  0  0  0  0
    8.3371   -2.6076   21.8701 C   0  0  0  0  0  0  0  0  0  0  0  0
    8.5703   -3.7710   21.5691 O   0  0  0  0  0  0  0  0  0  0  0  0
    7.7108   -1.7023   20.9121 C   0  0  0  0  0  0  0  0  0  0  0  0
    7.5575   -2.1223   19.9342 H   0  0  0  0  0  0  0  0  0  0  0  0
    5.3498    0.9104   20.1842 C   0  0  0  0  0  0  0  0  0  0  0  0
    4.8790    0.9772   21.1630 H   0  0  0  0  0  0  0  0  0  0  0  0
    4.7212    1.4338   19.0511 C   0  0  0  0  0  0  0  0  0  0  0  0
    3.7457    1.9024   19.1041 H   0  0  0  0  0  0  0  0  0  0  0  0
  1  2  1  0
  2  3  2  0
  3  4  1  0
  4  5  1  0
  4  6  2  0
  6  7  1  0
  7  8  1  0
  8  9  1  0
  9 10  1  0
 10 11  1  0
 10 12  1  0
 10 13  1  0
 13 14  2  0
 14 15  1  0
 14 16  1  0
 16 17  1  0
 16 18  2  0
 18 19  1  0
 19 20  1  0
 19 21  2  0
 21 22  1  0
  9 23  2  0
 23 24  1  0
 23 25  1  0
 25 26  2  0
 25 27  1  0
 27 28  1  0
  6 29  1  0
 29 30  1  0
 29 31  2  0
 31 32  1  0
 31  2  1  0
 27  7  2  0
 21 13  1  0
M  END
>  <cnnaffinity>  (1) 
-5.38399

>  <filename>  (1) 
O=c1cc(Cc2ccncc2)sc(-c2cccnc2)c1

$$$$
