
     RDKit          3D

 34 37  0  0  0  0  0  0  0  0999 V2000
    4.9615    1.8239   17.0079 H   0  0  0  0  0  0  0  0  0  0  0  0
    5.4017    1.2873   17.8473 C   0  0  0  0  0  0  0  0  0  0  0  0
    6.5487    0.6393   17.6002 N   0  0  0  0  0  0  0  0  0  0  0  0
    7.1173   -0.0065   18.6225 C   0  0  0  0  0  0  0  0  0  0  0  0
    8.0714   -0.4866   18.4103 H   0  0  0  0  0  0  0  0  0  0  0  0
    6.5753   -0.0735   19.9266 C   0  0  0  0  0  0  0  0  0  0  0  0
    7.2971   -0.7991   21.0256 C   0  0  0  0  0  0  0  0  0  0  0  0
    6.5660   -1.5842   21.7886 N   0  0  0  0  0  0  0  0  0  0  0  0
    7.1720   -2.2661   22.8171 N   0  0  0  0  0  0  0  0  0  0  0  0
    6.3698   -3.0439   23.6805 C   0  0  0  0  0  0  0  0  0  0  0  0
    6.6721   -3.2363   25.0024 C   0  0  0  0  0  0  0  0  0  0  0  0
    7.4829   -2.8170   25.5807 H   0  0  0  0  0  0  0  0  0  0  0  0
    5.6794   -3.9494   25.6094 N   0  0  0  0  0  0  0  0  0  0  0  0
    5.6731   -4.3078   26.5505 H   0  0  0  0  0  0  0  0  0  0  0  0
    4.7189   -4.2674   24.6917 C   0  0  0  0  0  0  0  0  0  0  0  0
    3.5212   -4.9730   24.9117 C   0  0  0  0  0  0  0  0  0  0  0  0
    3.2161   -5.2877   25.9084 H   0  0  0  0  0  0  0  0  0  0  0  0
    2.7477   -5.2598   23.7983 C   0  0  0  0  0  0  0  0  0  0  0  0
    1.8114   -5.8104   23.9059 H   0  0  0  0  0  0  0  0  0  0  0  0
    3.1612   -4.8521   22.5127 C   0  0  0  0  0  0  0  0  0  0  0  0
    2.5260   -5.1124   21.6781 H   0  0  0  0  0  0  0  0  0  0  0  0
    4.3159   -4.0927   22.3176 C   0  0  0  0  0  0  0  0  0  0  0  0
    4.6073   -3.7541   21.3284 H   0  0  0  0  0  0  0  0  0  0  0  0
    5.1159   -3.7487   23.4300 C   0  0  0  0  0  0  0  0  0  0  0  0
    8.5342   -2.1766   23.0433 C   0  0  0  0  0  0  0  0  0  0  0  0
    8.9351   -2.7669   23.8702 H   0  0  0  0  0  0  0  0  0  0  0  0
    9.3492   -1.4222   22.2939 C   0  0  0  0  0  0  0  0  0  0  0  0
   10.4142   -1.3697   22.4630 H   0  0  0  0  0  0  0  0  0  0  0  0
    8.8075   -0.6202   21.2044 C   0  0  0  0  0  0  0  0  0  0  0  0
    9.5248    0.0936   20.5162 O   0  0  0  0  0  0  0  0  0  0  0  0
    5.3551    0.5803   20.1512 C   0  0  0  0  0  0  0  0  0  0  0  0
    4.8835    0.5328   21.1339 H   0  0  0  0  0  0  0  0  0  0  0  0
    4.7736    1.2878   19.0965 C   0  0  0  0  0  0  0  0  0  0  0  0
    3.8529    1.8433   19.2275 H   0  0  0  0  0  0  0  0  0  0  0  0
  1  2  1  0
  2  3  2  0
  3  4  1  0
  4  5  1  0
  4  6  2  0
  6  7  1  0
  7  8  2  0
  8  9  1  0
  9 10  1  0
 10 11  2  0
 11 12  1  0
 11 13  1  0
 13 14  1  0
 13 15  1  0
 15 16  2  0
 16 17  1  0
 16 18  1  0
 18 19  1  0
 18 20  2  0
 20 21  1  0
 20 22  1  0
 22 23  1  0
 22 24  2  0
  9 25  1  0
 25 26  1  0
 25 27  2  0
 27 28  1  0
 27 29  1  0
 29 30  2  0
  6 31  1  0
 31 32  1  0
 31 33  2  0
 33 34  1  0
 33  2  1  0
 29  7  1  0
 24 10  1  0
 24 15  1  0
M  END
>  <cnnaffinity>  (1) 
-5.47233

>  <filename>  (1) 
O=c1ccn(-c2c[nH]c3ccccc23)nc1-c1cccnc1

$$$$
