
     RDKit          3D

 32 34  0  0  0  0  0  0  0  0999 V2000
    4.9187    1.7958   16.9843 H   0  0  0  0  0  0  0  0  0  0  0  0
    5.3973    1.3021   17.8265 C   0  0  0  0  0  0  0  0  0  0  0  0
    6.5622    0.6883   17.5622 N   0  0  0  0  0  0  0  0  0  0  0  0
    7.1828    0.0807   18.5797 C   0  0  0  0  0  0  0  0  0  0  0  0
    8.1237   -0.4213   18.3508 H   0  0  0  0  0  0  0  0  0  0  0  0
    6.6618    0.0238   19.8874 C   0  0  0  0  0  0  0  0  0  0  0  0
    7.3523   -0.6820   20.9380 N   0  0  0  0  0  0  0  0  0  0  0  0
    8.6463   -0.2863   21.2758 C   0  0  0  0  0  0  0  0  0  0  0  0
    9.0517    0.5487   20.7060 H   0  0  0  0  0  0  0  0  0  0  0  0
    9.3718   -0.8743   22.2551 C   0  0  0  0  0  0  0  0  0  0  0  0
   10.6852   -0.4435   22.5422 N   0  0  0  0  0  0  0  0  0  0  0  0
   11.3496   -1.0985   22.9298 H   0  0  0  0  0  0  0  0  0  0  0  0
   11.1447    0.8616   22.5508 C   0  0  0  0  0  0  0  0  0  0  0  0
   12.5079    1.0915   22.3629 C   0  0  0  0  0  0  0  0  0  0  0  0
   13.1896    0.2701   22.1724 H   0  0  0  0  0  0  0  0  0  0  0  0
   12.9472    2.4108   22.3755 C   0  0  0  0  0  0  0  0  0  0  0  0
   14.0033    2.6554   22.2733 H   0  0  0  0  0  0  0  0  0  0  0  0
   12.1423    3.4684   22.5384 N   0  0  0  0  0  0  0  0  0  0  0  0
   10.8426    3.2225   22.7392 C   0  0  0  0  0  0  0  0  0  0  0  0
   10.2126    4.1003   22.8929 H   0  0  0  0  0  0  0  0  0  0  0  0
   10.2953    1.9442   22.7796 C   0  0  0  0  0  0  0  0  0  0  0  0
    9.2477    1.7836   23.0012 H   0  0  0  0  0  0  0  0  0  0  0  0
    8.7455   -2.0212   22.9939 C   0  0  0  0  0  0  0  0  0  0  0  0
    9.2159   -2.7110   23.8761 O   0  0  0  0  0  0  0  0  0  0  0  0
    7.4715   -2.3168   22.5886 N   0  0  0  0  0  0  0  0  0  0  0  0
    7.0346   -3.0821   23.0569 H   0  0  0  0  0  0  0  0  0  0  0  0
    6.7219   -1.7548   21.6098 C   0  0  0  0  0  0  0  0  0  0  0  0
    5.6282   -2.2095   21.3681 O   0  0  0  0  0  0  0  0  0  0  0  0
    5.4444    0.6559   20.1508 C   0  0  0  0  0  0  0  0  0  0  0  0
    5.0188    0.6096   21.1526 H   0  0  0  0  0  0  0  0  0  0  0  0
    4.8099    1.3181   19.0959 C   0  0  0  0  0  0  0  0  0  0  0  0
    3.8748    1.8416   19.2488 H   0  0  0  0  0  0  0  0  0  0  0  0
  1  2  1  0
  2  3  2  0
  3  4  1  0
  4  5  1  0
  4  6  2  0
  6  7  1  0
  7  8  1  0
  8  9  1  0
  8 10  2  0
 10 11  1  0
 11 12  1  0
 11 13  1  0
 13 14  2  0
 14 15  1  0
 14 16  1  0
 16 17  1  0
 16 18  2  0
 18 19  1  0
 19 20  1  0
 19 21  2  0
 21 22  1  0
 10 23  1  0
 23 24  2  0
 23 25  1  0
 25 26  1  0
 25 27  1  0
 27 28  2  0
  6 29  1  0
 29 30  1  0
 29 31  2  0
 31 32  1  0
 31  2  1  0
 27  7  1  0
 21 13  1  0
M  END
>  <cnnaffinity>  (1) 
-5.24941

>  <filename>  (1) 
O=c1[nH]c(=O)n(-c2cccnc2)cc1Nc1ccncc1

$$$$
