
     RDKit          3D

 35 38  0  0  0  0  0  0  0  0999 V2000
    4.9218    1.8222   16.9622 H   0  0  0  0  0  0  0  0  0  0  0  0
    5.4007    1.3230   17.8010 C   0  0  0  0  0  0  0  0  0  0  0  0
    6.5697    0.7176   17.5349 N   0  0  0  0  0  0  0  0  0  0  0  0
    7.1779    0.0973   18.5536 C   0  0  0  0  0  0  0  0  0  0  0  0
    8.1260   -0.3890   18.3195 H   0  0  0  0  0  0  0  0  0  0  0  0
    6.6557    0.0065   19.8641 C   0  0  0  0  0  0  0  0  0  0  0  0
    7.3870   -0.7108   20.9399 C   0  0  0  0  0  0  0  0  0  0  0  0
    8.7115   -0.4325   21.1948 C   0  0  0  0  0  0  0  0  0  0  0  0
    9.2305    0.3104   20.5875 H   0  0  0  0  0  0  0  0  0  0  0  0
    9.4468   -1.0647   22.2430 C   0  0  0  0  0  0  0  0  0  0  0  0
   10.8850   -0.7358   22.4352 C   0  0  0  0  0  0  0  0  0  0  0  0
   11.8696   -1.7191   22.2830 C   0  0  0  0  0  0  0  0  0  0  0  0
   11.5735   -2.7448   22.0851 H   0  0  0  0  0  0  0  0  0  0  0  0
   13.2455   -1.4008   22.3591 C   0  0  0  0  0  0  0  0  0  0  0  0
   13.9801   -2.1826   22.1791 H   0  0  0  0  0  0  0  0  0  0  0  0
   13.6655   -0.1202   22.7049 C   0  0  0  0  0  0  0  0  0  0  0  0
   14.7072    0.1101   22.9256 H   0  0  0  0  0  0  0  0  0  0  0  0
   12.6834    0.8718   22.8310 C   0  0  0  0  0  0  0  0  0  0  0  0
   11.3045    0.6073   22.6335 C   0  0  0  0  0  0  0  0  0  0  0  0
   10.6574    1.8933   22.6325 C   0  0  0  0  0  0  0  0  0  0  0  0
    9.6076    2.0788   22.4568 H   0  0  0  0  0  0  0  0  0  0  0  0
   11.6119    2.8400   22.8592 C   0  0  0  0  0  0  0  0  0  0  0  0
   11.5377    3.9196   22.8403 H   0  0  0  0  0  0  0  0  0  0  0  0
   12.8315    2.2215   23.0331 N   0  0  0  0  0  0  0  0  0  0  0  0
   13.7289    2.6801   23.0746 H   0  0  0  0  0  0  0  0  0  0  0  0
    8.8087   -1.9959   23.0195 C   0  0  0  0  0  0  0  0  0  0  0  0
    9.3146   -2.5293   23.8243 H   0  0  0  0  0  0  0  0  0  0  0  0
    7.4936   -2.2709   22.7819 N   0  0  0  0  0  0  0  0  0  0  0  0
    6.9422   -2.9635   23.2692 H   0  0  0  0  0  0  0  0  0  0  0  0
    6.7117   -1.7514   21.7445 C   0  0  0  0  0  0  0  0  0  0  0  0
    5.6047   -2.2491   21.6021 O   0  0  0  0  0  0  0  0  0  0  0  0
    5.4287    0.6445   20.1090 C   0  0  0  0  0  0  0  0  0  0  0  0
    4.9950    0.6077   21.1096 H   0  0  0  0  0  0  0  0  0  0  0  0
    4.7990    1.3229   19.0626 C   0  0  0  0  0  0  0  0  0  0  0  0
    3.8619    1.8490   19.2111 H   0  0  0  0  0  0  0  0  0  0  0  0
  1  2  1  0
  2  3  2  0
  3  4  1  0
  4  5  1  0
  4  6  2  0
  6  7  1  0
  7  8  2  0
  8  9  1  0
  8 10  1  0
 10 11  1  0
 11 12  2  0
 12 13  1  0
 12 14  1  0
 14 15  1  0
 14 16  2  0
 16 17  1  0
 16 18  1  0
 18 19  2  0
 19 20  1  0
 20 21  1  0
 20 22  2  0
 22 23  1  0
 22 24  1  0
 24 25  1  0
 10 26  2  0
 26 27  1  0
 26 28  1  0
 28 29  1  0
 28 30  1  0
 30 31  2  0
  6 32  1  0
 32 33  1  0
 32 34  2  0
 34 35  1  0
 34  2  1  0
 30  7  1  0
 19 11  1  0
 24 18  1  0
M  END
>  <cnnaffinity>  (1) 
-6.0078

>  <filename>  (1) 
O=c1[nH]cc(-c2cccc3[nH]ccc23)cc1-c1cccnc1

$$$$
