
     RDKit          3D

 28 30  0  0  0  0  0  0  0  0999 V2000
    4.9263    1.7880   16.9909 H   0  0  0  0  0  0  0  0  0  0  0  0
    5.4005    1.2902   17.8319 C   0  0  0  0  0  0  0  0  0  0  0  0
    6.5654    0.6744   17.5746 N   0  0  0  0  0  0  0  0  0  0  0  0
    7.1570    0.0355   18.5880 C   0  0  0  0  0  0  0  0  0  0  0  0
    8.1201   -0.4265   18.3679 H   0  0  0  0  0  0  0  0  0  0  0  0
    6.6286   -0.0203   19.8887 C   0  0  0  0  0  0  0  0  0  0  0  0
    7.3659   -0.6798   20.9658 C   0  0  0  0  0  0  0  0  0  0  0  0
    7.8002   -0.0588   22.1290 C   0  0  0  0  0  0  0  0  0  0  0  0
    7.6724    1.3756   22.4017 C   0  0  0  0  0  0  0  0  0  0  0  0
    7.6757    2.2842   21.3825 O   0  0  0  0  0  0  0  0  0  0  0  0
    7.5505    3.5117   21.9448 C   0  0  0  0  0  0  0  0  0  0  0  0
    7.5116    4.3549   21.2769 H   0  0  0  0  0  0  0  0  0  0  0  0
    7.4773    3.4215   23.2930 C   0  0  0  0  0  0  0  0  0  0  0  0
    7.3818    4.2504   23.9771 H   0  0  0  0  0  0  0  0  0  0  0  0
    7.5625    2.0292   23.5944 C   0  0  0  0  0  0  0  0  0  0  0  0
    7.5244    1.5532   24.5646 H   0  0  0  0  0  0  0  0  0  0  0  0
    8.3975   -0.8827   23.1468 C   0  0  0  0  0  0  0  0  0  0  0  0
    8.7214   -0.4104   24.0771 H   0  0  0  0  0  0  0  0  0  0  0  0
    8.5768   -2.2192   22.9651 C   0  0  0  0  0  0  0  0  0  0  0  0
    9.0325   -2.8607   23.6984 H   0  0  0  0  0  0  0  0  0  0  0  0
    8.1781   -2.8728   21.7276 C   0  0  0  0  0  0  0  0  0  0  0  0
    8.2948   -4.0558   21.4475 O   0  0  0  0  0  0  0  0  0  0  0  0
    7.6179   -2.0157   20.7954 N   0  0  0  0  0  0  0  0  0  0  0  0
    7.3150   -2.5147   19.9778 H   0  0  0  0  0  0  0  0  0  0  0  0
    5.4127    0.6325   20.1451 C   0  0  0  0  0  0  0  0  0  0  0  0
    4.9983    0.6375   21.1594 H   0  0  0  0  0  0  0  0  0  0  0  0
    4.7912    1.2988   19.0906 C   0  0  0  0  0  0  0  0  0  0  0  0
    3.8705    1.8447   19.2475 H   0  0  0  0  0  0  0  0  0  0  0  0
  1  2  1  0
  2  3  2  0
  3  4  1  0
  4  5  1  0
  4  6  2  0
  6  7  1  0
  7  8  2  0
  8  9  1  0
  9 10  1  0
 10 11  1  0
 11 12  1  0
 11 13  2  0
 13 14  1  0
 13 15  1  0
 15 16  1  0
  8 17  1  0
 17 18  1  0
 17 19  2  0
 19 20  1  0
 19 21  1  0
 21 22  2  0
 21 23  1  0
 23 24  1  0
  6 25  1  0
 25 26  1  0
 25 27  2  0
 27 28  1  0
 27  2  1  0
 23  7  1  0
 15  9  2  0
M  END
>  <cnnaffinity>  (1) 
-5.10085

>  <filename>  (1) 
O=c1ccc(-c2ccco2)c(-c2cccnc2)[nH]1

$$$$
