
     RDKit          3D

 35 38  0  0  0  0  0  0  0  0999 V2000
    4.9467    1.7734   17.0092 H   0  0  0  0  0  0  0  0  0  0  0  0
    5.4169    1.2739   17.8527 C   0  0  0  0  0  0  0  0  0  0  0  0
    6.5759    0.6533   17.5940 N   0  0  0  0  0  0  0  0  0  0  0  0
    7.1965    0.0555   18.6148 C   0  0  0  0  0  0  0  0  0  0  0  0
    8.1457   -0.4212   18.3810 H   0  0  0  0  0  0  0  0  0  0  0  0
    6.6851    0.0128   19.9173 C   0  0  0  0  0  0  0  0  0  0  0  0
    7.4555   -0.7117   20.9469 C   0  0  0  0  0  0  0  0  0  0  0  0
    8.7588   -0.6885   20.8711 N   0  0  0  0  0  0  0  0  0  0  0  0
    9.4738   -1.3312   21.8458 C   0  0  0  0  0  0  0  0  0  0  0  0
   10.6817   -1.3614   21.9385 O   0  0  0  0  0  0  0  0  0  0  0  0
    8.7756   -2.0440   22.8198 N   0  0  0  0  0  0  0  0  0  0  0  0
    9.4168   -2.3742   23.5133 H   0  0  0  0  0  0  0  0  0  0  0  0
    7.4296   -2.0364   22.9434 C   0  0  0  0  0  0  0  0  0  0  0  0
    6.8189   -2.7620   24.0600 C   0  0  0  0  0  0  0  0  0  0  0  0
    7.0546   -4.1147   24.2018 C   0  0  0  0  0  0  0  0  0  0  0  0
    7.7455   -4.6414   23.5428 H   0  0  0  0  0  0  0  0  0  0  0  0
    6.4354   -4.9088   25.1126 N   0  0  0  0  0  0  0  0  0  0  0  0
    5.5699   -4.3522   25.9364 C   0  0  0  0  0  0  0  0  0  0  0  0
    5.0924   -5.0156   26.6631 H   0  0  0  0  0  0  0  0  0  0  0  0
    5.2419   -2.9611   25.9318 C   0  0  0  0  0  0  0  0  0  0  0  0
    4.2933   -2.3847   26.8342 C   0  0  0  0  0  0  0  0  0  0  0  0
    3.7963   -3.0257   27.5614 H   0  0  0  0  0  0  0  0  0  0  0  0
    4.0244   -1.0367   26.7917 C   0  0  0  0  0  0  0  0  0  0  0  0
    3.3070   -0.6030   27.4820 H   0  0  0  0  0  0  0  0  0  0  0  0
    4.6885   -0.1987   25.8583 C   0  0  0  0  0  0  0  0  0  0  0  0
    4.4622    0.8642   25.8301 H   0  0  0  0  0  0  0  0  0  0  0  0
    5.6149   -0.7287   24.9864 C   0  0  0  0  0  0  0  0  0  0  0  0
    6.1114   -0.0936   24.2610 H   0  0  0  0  0  0  0  0  0  0  0  0
    5.9026   -2.1306   24.9756 C   0  0  0  0  0  0  0  0  0  0  0  0
    6.7334   -1.4091   21.9519 C   0  0  0  0  0  0  0  0  0  0  0  0
    5.6597   -1.4577   21.9280 H   0  0  0  0  0  0  0  0  0  0  0  0
    5.4565    0.6471   20.1711 C   0  0  0  0  0  0  0  0  0  0  0  0
    5.0085    0.6482   21.1688 H   0  0  0  0  0  0  0  0  0  0  0  0
    4.8204    1.2999   19.1183 C   0  0  0  0  0  0  0  0  0  0  0  0
    3.8849    1.8305   19.2595 H   0  0  0  0  0  0  0  0  0  0  0  0
  1  2  1  0
  2  3  2  0
  3  4  1  0
  4  5  1  0
  4  6  2  0
  6  7  1  0
  7  8  2  0
  8  9  1  0
  9 10  2  0
  9 11  1  0
 11 12  1  0
 11 13  1  0
 13 14  1  0
 14 15  2  0
 15 16  1  0
 15 17  1  0
 17 18  2  0
 18 19  1  0
 18 20  1  0
 20 21  2  0
 21 22  1  0
 21 23  1  0
 23 24  1  0
 23 25  2  0
 25 26  1  0
 25 27  1  0
 27 28  1  0
 27 29  2  0
 13 30  2  0
 30 31  1  0
  6 32  1  0
 32 33  1  0
 32 34  2  0
 34 35  1  0
 34  2  1  0
 30  7  1  0
 29 14  1  0
 29 20  1  0
M  END
>  <cnnaffinity>  (1) 
-5.41444

>  <filename>  (1) 
O=c1nc(-c2cccnc2)cc(-c2cncc3ccccc23)[nH]1

$$$$
