
     RDKit          3D

 33 35  0  0  0  0  0  0  0  0999 V2000
    4.9298    1.8184   16.9505 H   0  0  0  0  0  0  0  0  0  0  0  0
    5.3783    1.3240   17.8082 C   0  0  0  0  0  0  0  0  0  0  0  0
    6.5437    0.6996   17.5769 N   0  0  0  0  0  0  0  0  0  0  0  0
    7.1367    0.1022   18.6123 C   0  0  0  0  0  0  0  0  0  0  0  0
    8.0679   -0.4372   18.4257 H   0  0  0  0  0  0  0  0  0  0  0  0
    6.6170    0.1283   19.9113 C   0  0  0  0  0  0  0  0  0  0  0  0
    7.3683   -0.5690   20.9660 C   0  0  0  0  0  0  0  0  0  0  0  0
    8.0197   -1.6279   20.5715 N   0  0  0  0  0  0  0  0  0  0  0  0
    8.5514   -2.4358   21.5252 C   0  0  0  0  0  0  0  0  0  0  0  0
    8.8330   -3.5989   21.3677 O   0  0  0  0  0  0  0  0  0  0  0  0
    8.7915   -1.8772   22.7859 N   0  0  0  0  0  0  0  0  0  0  0  0
    9.1065   -2.6191   23.3894 H   0  0  0  0  0  0  0  0  0  0  0  0
    8.0579   -0.8265   23.2522 C   0  0  0  0  0  0  0  0  0  0  0  0
    8.0899   -0.4957   24.6918 C   0  0  0  0  0  0  0  0  0  0  0  0
    9.2742   -0.5885   25.4459 C   0  0  0  0  0  0  0  0  0  0  0  0
   10.1842   -0.9603   24.9794 H   0  0  0  0  0  0  0  0  0  0  0  0
    9.2833   -0.1814   26.7776 C   0  0  0  0  0  0  0  0  0  0  0  0
   10.2027   -0.2233   27.3460 H   0  0  0  0  0  0  0  0  0  0  0  0
    8.1237    0.2998   27.3928 C   0  0  0  0  0  0  0  0  0  0  0  0
    8.1678    0.6243   28.4300 H   0  0  0  0  0  0  0  0  0  0  0  0
    6.9276    0.3572   26.6622 C   0  0  0  0  0  0  0  0  0  0  0  0
    5.6614    0.9213   27.2696 C   0  0  0  0  0  0  0  0  0  0  0  0
    5.6142    0.7707   28.6051 F   0  0  0  0  0  0  0  0  0  0  0  0
    4.5595    0.3306   26.7644 F   0  0  0  0  0  0  0  0  0  0  0  0
    5.5429    2.2416   27.0217 F   0  0  0  0  0  0  0  0  0  0  0  0
    6.9146   -0.0441   25.3188 C   0  0  0  0  0  0  0  0  0  0  0  0
    5.9863   -0.0467   24.7490 H   0  0  0  0  0  0  0  0  0  0  0  0
    7.3363   -0.1270   22.3167 C   0  0  0  0  0  0  0  0  0  0  0  0
    6.7734    0.7483   22.5928 H   0  0  0  0  0  0  0  0  0  0  0  0
    5.3817    0.7430   20.1336 C   0  0  0  0  0  0  0  0  0  0  0  0
    4.9233    0.7036   21.1237 H   0  0  0  0  0  0  0  0  0  0  0  0
    4.7510    1.3588   19.0579 C   0  0  0  0  0  0  0  0  0  0  0  0
    3.8066    1.8757   19.1786 H   0  0  0  0  0  0  0  0  0  0  0  0
  1  2  1  0
  2  3  2  0
  3  4  1  0
  4  5  1  0
  4  6  2  0
  6  7  1  0
  7  8  2  0
  8  9  1  0
  9 10  2  0
  9 11  1  0
 11 12  1  0
 11 13  1  0
 13 14  1  0
 14 15  2  0
 15 16  1  0
 15 17  1  0
 17 18  1  0
 17 19  2  0
 19 20  1  0
 19 21  1  0
 21 22  1  0
 22 23  1  0
 22 24  1  0
 22 25  1  0
 21 26  2  0
 26 27  1  0
 13 28  2  0
 28 29  1  0
  6 30  1  0
 30 31  1  0
 30 32  2  0
 32 33  1  0
 32  2  1  0
 28  7  1  0
 26 14  1  0
M  END
>  <cnnaffinity>  (1) 
-5.30796

>  <filename>  (1) 
O=c1nc(-c2cccnc2)cc(-c2cccc(C(F)(F)F)c2)[nH]1

$$$$
