
     RDKit          3D

 30 32  0  0  0  0  0  0  0  0999 V2000
    5.0474    1.8146   16.9466 H   0  0  0  0  0  0  0  0  0  0  0  0
    5.4558    1.2872   17.8061 C   0  0  0  0  0  0  0  0  0  0  0  0
    6.5922    0.6072   17.5877 N   0  0  0  0  0  0  0  0  0  0  0  0
    7.1270   -0.0456   18.6241 C   0  0  0  0  0  0  0  0  0  0  0  0
    8.0360   -0.6095   18.4150 H   0  0  0  0  0  0  0  0  0  0  0  0
    6.5737   -0.0401   19.9163 C   0  0  0  0  0  0  0  0  0  0  0  0
    7.2902   -0.7837   20.9643 C   0  0  0  0  0  0  0  0  0  0  0  0
    8.1062   -1.7591   20.6799 N   0  0  0  0  0  0  0  0  0  0  0  0
    8.5761   -2.1721   21.8937 N   0  0  0  0  0  0  0  0  0  0  0  0
    9.2355   -2.9208   22.0098 H   0  0  0  0  0  0  0  0  0  0  0  0
    8.1241   -1.4512   22.9489 C   0  0  0  0  0  0  0  0  0  0  0  0
    8.4272   -1.5596   24.1236 O   0  0  0  0  0  0  0  0  0  0  0  0
    7.2308   -0.5392   22.3323 N   0  0  0  0  0  0  0  0  0  0  0  0
    6.6417    0.5962   22.9899 N   0  0  0  0  0  0  0  0  0  0  0  0
    6.7618    0.4287   23.9958 H   0  0  0  0  0  0  0  0  0  0  0  0
    7.3237    1.8548   22.6279 C   0  0  0  0  0  0  0  0  0  0  0  0
    6.9263    2.6353   23.2848 H   0  0  0  0  0  0  0  0  0  0  0  0
    7.0057    2.1242   21.6156 H   0  0  0  0  0  0  0  0  0  0  0  0
    8.8380    1.8158   22.6996 C   0  0  0  0  0  0  0  0  0  0  0  0
    9.2320    1.4480   23.6465 H   0  0  0  0  0  0  0  0  0  0  0  0
    9.6212    2.8968   22.0240 C   0  0  0  0  0  0  0  0  0  0  0  0
    9.0198    3.6346   21.4986 H   0  0  0  0  0  0  0  0  0  0  0  0
   10.5165    3.3035   22.4936 H   0  0  0  0  0  0  0  0  0  0  0  0
    9.6472    1.4980   21.4649 C   0  0  0  0  0  0  0  0  0  0  0  0
    9.1138    1.3357   20.5256 H   0  0  0  0  0  0  0  0  0  0  0  0
   10.5296    0.8734   21.5960 H   0  0  0  0  0  0  0  0  0  0  0  0
    5.3805    0.6668   20.1324 C   0  0  0  0  0  0  0  0  0  0  0  0
    4.9385    0.7050   21.1311 H   0  0  0  0  0  0  0  0  0  0  0  0
    4.8119    1.3394   19.0476 C   0  0  0  0  0  0  0  0  0  0  0  0
    3.9035    1.9224   19.1527 H   0  0  0  0  0  0  0  0  0  0  0  0
  1  2  1  0
  2  3  2  0
  3  4  1  0
  4  5  1  0
  4  6  2  0
  6  7  1  0
  7  8  2  0
  8  9  1  0
  9 10  1  0
  9 11  1  0
 11 12  2  0
 11 13  1  0
 13 14  1  0
 14 15  1  0
 14 16  1  0
 16 17  1  0
 16 18  1  0
 16 19  1  0
 19 20  1  0
 19 21  1  0
 21 22  1  0
 21 23  1  0
 21 24  1  0
 24 25  1  0
 24 26  1  0
  6 27  1  0
 27 28  1  0
 27 29  2  0
 29 30  1  0
 29  2  1  0
 13  7  1  0
 24 19  1  0
M  END
>  <cnnaffinity>  (1) 
-4.80046

>  <filename>  (1) 
O=c1[nH]nc(-c2cccnc2)n1NCC1CC1

$$$$
