
     RDKit          3D

 35 38  0  0  0  0  0  0  0  0999 V2000
    4.9363    1.7978   16.9843 H   0  0  0  0  0  0  0  0  0  0  0  0
    5.3993    1.2864   17.8277 C   0  0  0  0  0  0  0  0  0  0  0  0
    6.5613    0.6615   17.5732 N   0  0  0  0  0  0  0  0  0  0  0  0
    7.1562    0.0275   18.5881 C   0  0  0  0  0  0  0  0  0  0  0  0
    8.1186   -0.4348   18.3575 H   0  0  0  0  0  0  0  0  0  0  0  0
    6.6404   -0.0130   19.8939 C   0  0  0  0  0  0  0  0  0  0  0  0
    7.3916   -0.6513   20.9754 C   0  0  0  0  0  0  0  0  0  0  0  0
    7.7442   -0.0437   22.1660 C   0  0  0  0  0  0  0  0  0  0  0  0
    7.5113    1.4026   22.3942 C   0  0  0  0  0  0  0  0  0  0  0  0
    8.0593    2.3814   21.5505 C   0  0  0  0  0  0  0  0  0  0  0  0
    8.6420    2.0568   20.6936 H   0  0  0  0  0  0  0  0  0  0  0  0
    7.8600    3.7544   21.8083 C   0  0  0  0  0  0  0  0  0  0  0  0
    8.3267    4.5140   21.1846 H   0  0  0  0  0  0  0  0  0  0  0  0
    7.0567    4.1796   22.8577 C   0  0  0  0  0  0  0  0  0  0  0  0
    6.8707    5.2392   23.0049 H   0  0  0  0  0  0  0  0  0  0  0  0
    6.4928    3.1985   23.6898 C   0  0  0  0  0  0  0  0  0  0  0  0
    6.7118    1.8163   23.4888 C   0  0  0  0  0  0  0  0  0  0  0  0
    5.9759    1.1323   24.5224 C   0  0  0  0  0  0  0  0  0  0  0  0
    5.9134    0.0544   24.6288 H   0  0  0  0  0  0  0  0  0  0  0  0
    5.3710    2.0867   25.2879 C   0  0  0  0  0  0  0  0  0  0  0  0
    4.7363    1.9896   26.1584 H   0  0  0  0  0  0  0  0  0  0  0  0
    5.6817    3.3320   24.7873 N   0  0  0  0  0  0  0  0  0  0  0  0
    5.3760    4.2235   25.1412 H   0  0  0  0  0  0  0  0  0  0  0  0
    8.3808   -0.8435   23.1763 C   0  0  0  0  0  0  0  0  0  0  0  0
    8.6350   -0.3477   24.1135 H   0  0  0  0  0  0  0  0  0  0  0  0
    8.6630   -2.1614   22.9716 C   0  0  0  0  0  0  0  0  0  0  0  0
    9.1495   -2.7985   23.6993 H   0  0  0  0  0  0  0  0  0  0  0  0
    8.3061   -2.8026   21.7131 C   0  0  0  0  0  0  0  0  0  0  0  0
    8.4497   -3.9753   21.4141 O   0  0  0  0  0  0  0  0  0  0  0  0
    7.7453   -1.9602   20.7742 N   0  0  0  0  0  0  0  0  0  0  0  0
    7.4729   -2.4858   19.9598 H   0  0  0  0  0  0  0  0  0  0  0  0
    5.4257    0.6436   20.1439 C   0  0  0  0  0  0  0  0  0  0  0  0
    5.0172    0.6539   21.1558 H   0  0  0  0  0  0  0  0  0  0  0  0
    4.7956    1.2995   19.0895 C   0  0  0  0  0  0  0  0  0  0  0  0
    3.8710    1.8438   19.2342 H   0  0  0  0  0  0  0  0  0  0  0  0
  1  2  1  0
  2  3  2  0
  3  4  1  0
  4  5  1  0
  4  6  2  0
  6  7  1  0
  7  8  2  0
  8  9  1  0
  9 10  2  0
 10 11  1  0
 10 12  1  0
 12 13  1  0
 12 14  2  0
 14 15  1  0
 14 16  1  0
 16 17  2  0
 17 18  1  0
 18 19  1  0
 18 20  2  0
 20 21  1  0
 20 22  1  0
 22 23  1  0
  8 24  1  0
 24 25  1  0
 24 26  2  0
 26 27  1  0
 26 28  1  0
 28 29  2  0
 28 30  1  0
 30 31  1  0
  6 32  1  0
 32 33  1  0
 32 34  2  0
 34 35  1  0
 34  2  1  0
 30  7  1  0
 17  9  1  0
 22 16  1  0
M  END
>  <cnnaffinity>  (1) 
-5.41009

>  <filename>  (1) 
O=c1ccc(-c2cccc3[nH]ccc23)c(-c2cccnc2)[nH]1

$$$$
