
     RDKit          3D

 31 33  0  0  0  0  0  0  0  0999 V2000
   12.2770   -1.0549   22.0009 H   0  0  0  0  0  0  0  0  0  0  0  0
   11.6180   -0.1984   21.8793 C   0  0  0  0  0  0  0  0  0  0  0  0
   10.3074   -0.4463   21.9724 N   0  0  0  0  0  0  0  0  0  0  0  0
    9.4649    0.5735   21.7738 C   0  0  0  0  0  0  0  0  0  0  0  0
    8.0076    0.2910   22.0410 C   0  0  2  0  0  0  0  0  0  0  0  0
    7.4898    1.2585   21.9772 H   0  0  0  0  0  0  0  0  0  0  0  0
    7.7174   -0.3202   23.4376 C   0  0  0  0  0  0  0  0  0  0  0  0
    8.6064   -0.7610   23.9114 H   0  0  0  0  0  0  0  0  0  0  0  0
    7.3219    0.4306   24.1316 H   0  0  0  0  0  0  0  0  0  0  0  0
    6.7287   -1.3295   23.1450 N   0  0  0  0  0  0  0  0  0  0  0  0
    6.2277   -1.9072   23.7951 H   0  0  0  0  0  0  0  0  0  0  0  0
    6.5167   -1.6430   21.8484 C   0  0  0  0  0  0  0  0  0  0  0  0
    5.7898   -2.5460   21.4855 O   0  0  0  0  0  0  0  0  0  0  0  0
    7.4007   -0.7065   21.0061 C   0  0  1  0  0  0  0  0  0  0  0  0
    8.1869   -1.3540   20.5872 H   0  0  0  0  0  0  0  0  0  0  0  0
    6.6704    0.0034   19.8793 C   0  0  0  0  0  0  0  0  0  0  0  0
    7.1791    0.0725   18.5678 C   0  0  0  0  0  0  0  0  0  0  0  0
    8.1280   -0.4117   18.3298 H   0  0  0  0  0  0  0  0  0  0  0  0
    6.5648    0.6914   17.5515 N   0  0  0  0  0  0  0  0  0  0  0  0
    5.3995    1.3001   17.8222 C   0  0  0  0  0  0  0  0  0  0  0  0
    4.9215    1.8004   16.9843 H   0  0  0  0  0  0  0  0  0  0  0  0
    4.8072    1.3133   19.0898 C   0  0  0  0  0  0  0  0  0  0  0  0
    3.8729    1.8423   19.2425 H   0  0  0  0  0  0  0  0  0  0  0  0
    5.4547    0.6530   20.1354 C   0  0  0  0  0  0  0  0  0  0  0  0
    5.0235    0.6304   21.1412 H   0  0  0  0  0  0  0  0  0  0  0  0
    9.8920    1.8381   21.3412 C   0  0  0  0  0  0  0  0  0  0  0  0
    9.1428    2.5978   21.1375 H   0  0  0  0  0  0  0  0  0  0  0  0
   11.2622    2.0838   21.2177 C   0  0  0  0  0  0  0  0  0  0  0  0
   11.6261    3.0265   20.8110 H   0  0  0  0  0  0  0  0  0  0  0  0
   12.1393    1.0649   21.5968 C   0  0  0  0  0  0  0  0  0  0  0  0
   13.2119    1.1964   21.6542 H   0  0  0  0  0  0  0  0  0  0  0  0
  1  2  1  0
  2  3  2  0
  3  4  1  0
  4  5  1  0
  5  6  1  1
  5  7  1  0
  7  8  1  0
  7  9  1  0
  7 10  1  0
 10 11  1  0
 10 12  1  0
 12 13  2  0
 12 14  1  0
 14 15  1  6
 14 16  1  0
 16 17  2  0
 17 18  1  0
 17 19  1  0
 19 20  2  0
 20 21  1  0
 20 22  1  0
 22 23  1  0
 22 24  2  0
 24 25  1  0
  4 26  2  0
 26 27  1  0
 26 28  1  0
 28 29  1  0
 28 30  2  0
 30 31  1  0
 30  2  1  0
 14  5  1  0
 24 16  1  0
M  END
>  <cnnaffinity>  (1) 
-5.30035

>  <filename>  (1) 
O=C1NC[C@@H](c2ccccn2)[C@@H]1c1cccnc1

$$$$
