
     RDKit          3D

 46 49  0  0  0  0  0  0  0  0999 V2000
   10.7597    4.3404   22.8785 O   0  0  0  0  0  0  0  0  0  0  0  0
   11.1069    3.2363   23.2820 C   0  0  0  0  0  0  0  0  0  0  0  0
   12.4952    2.8975   23.5746 C   0  0  0  0  0  0  0  0  0  0  0  0
   12.8566    1.7057   24.1348 C   0  0  0  0  0  0  0  0  0  0  0  0
   11.8382    0.7582   24.4695 C   0  0  0  0  0  0  0  0  0  0  0  0
   10.5396    1.0157   24.1390 C   0  0  0  0  0  0  0  0  0  0  0  0
   10.1735    2.1802   23.4928 N   0  0  0  0  0  0  0  0  0  0  0  0
    8.8755    2.2696   22.8023 C   0  0  0  0  0  0  0  0  0  0  0  0
    9.0150    2.0035   21.2942 C   0  0  0  0  0  0  0  0  0  0  0  0
    9.5169    0.5904   20.9271 C   0  0  0  0  0  0  0  0  0  0  0  0
    8.6346   -0.5072   21.4209 C   0  0  0  0  0  0  0  0  0  0  0  0
    8.8612   -1.3598   22.3984 N   0  0  0  0  0  0  0  0  0  0  0  0
    7.6681   -2.0083   22.5447 C   0  0  0  0  0  0  0  0  0  0  0  0
    7.4498   -3.0362   23.5819 C   0  0  0  0  0  0  0  0  0  0  0  0
    6.2123   -3.7108   23.6774 C   0  0  0  0  0  0  0  0  0  0  0  0
    6.0120   -4.6802   24.6602 C   0  0  0  0  0  0  0  0  0  0  0  0
    7.0462   -4.9616   25.5517 C   0  0  0  0  0  0  0  0  0  0  0  0
    6.8510   -5.8924   26.4988 F   0  0  0  0  0  0  0  0  0  0  0  0
    8.2740   -4.3064   25.4912 C   0  0  0  0  0  0  0  0  0  0  0  0
    8.4741   -3.3446   24.5005 C   0  0  0  0  0  0  0  0  0  0  0  0
    9.4298   -2.8253   24.4350 H   0  0  0  0  0  0  0  0  0  0  0  0
    9.0446   -4.5533   26.2141 H   0  0  0  0  0  0  0  0  0  0  0  0
    5.0741   -5.2162   24.7543 H   0  0  0  0  0  0  0  0  0  0  0  0
    5.4083   -3.4614   22.9841 H   0  0  0  0  0  0  0  0  0  0  0  0
    6.7306   -1.6113   21.7015 N   0  0  0  0  0  0  0  0  0  0  0  0
    7.3619   -0.6722   20.9575 N   0  0  0  0  0  0  0  0  0  0  0  0
    6.6730   -0.0123   19.9023 C   0  0  0  0  0  0  0  0  0  0  0  0
    5.4545    0.6189   20.1605 C   0  0  0  0  0  0  0  0  0  0  0  0
    4.8297    1.2981   19.1124 C   0  0  0  0  0  0  0  0  0  0  0  0
    5.4232    1.2979   17.8443 C   0  0  0  0  0  0  0  0  0  0  0  0
    6.5693    0.6539   17.5789 N   0  0  0  0  0  0  0  0  0  0  0  0
    7.1732    0.0150   18.5878 C   0  0  0  0  0  0  0  0  0  0  0  0
    8.0975   -0.5078   18.3463 H   0  0  0  0  0  0  0  0  0  0  0  0
    4.9603    1.8228   17.0108 H   0  0  0  0  0  0  0  0  0  0  0  0
    3.8971    1.8268   19.2637 H   0  0  0  0  0  0  0  0  0  0  0  0
    5.0274    0.5687   21.1627 H   0  0  0  0  0  0  0  0  0  0  0  0
    9.5728    0.5104   19.8383 H   0  0  0  0  0  0  0  0  0  0  0  0
   10.5278    0.4259   21.3112 H   0  0  0  0  0  0  0  0  0  0  0  0
    8.0512    2.1893   20.8017 H   0  0  0  0  0  0  0  0  0  0  0  0
    9.7224    2.7384   20.9015 H   0  0  0  0  0  0  0  0  0  0  0  0
    8.4721    3.2722   22.9714 H   0  0  0  0  0  0  0  0  0  0  0  0
    8.1765    1.5594   23.2670 H   0  0  0  0  0  0  0  0  0  0  0  0
    9.7388    0.2941   24.3130 H   0  0  0  0  0  0  0  0  0  0  0  0
   12.0746   -0.1533   25.0043 H   0  0  0  0  0  0  0  0  0  0  0  0
   13.9042    1.4675   24.3203 H   0  0  0  0  0  0  0  0  0  0  0  0
   13.1819    3.6998   23.3486 H   0  0  0  0  0  0  0  0  0  0  0  0
  1  2  2  0
  2  3  1  0
  3  4  2  0
  4  5  1  0
  5  6  2  0
  6  7  1  0
  7  8  1  0
  8  9  1  0
  9 10  1  0
 10 11  1  0
 11 12  2  0
 12 13  1  0
 13 14  1  0
 14 15  2  0
 15 16  1  0
 16 17  2  0
 17 18  1  0
 17 19  1  0
 19 20  2  0
 20 21  1  0
 19 22  1  0
 16 23  1  0
 15 24  1  0
 13 25  2  0
 25 26  1  0
 26 27  1  0
 27 28  2  0
 28 29  1  0
 29 30  2  0
 30 31  1  0
 31 32  2  0
 32 33  1  0
 30 34  1  0
 29 35  1  0
 28 36  1  0
 10 37  1  0
 10 38  1  0
  9 39  1  0
  9 40  1  0
  8 41  1  0
  8 42  1  0
  6 43  1  0
  5 44  1  0
  4 45  1  0
  3 46  1  0
  7  2  1  0
 26 11  1  0
 32 27  1  0
 20 14  1  0
M  END
>  <cnnaffinity>  (1) 
-6.18242

>  <filename>  (1) 
O=c1ccccn1CCCc1nc(-c2ccc(F)cc2)nn1-c1cccnc1

$$$$
