
     RDKit          3D

 41 44  0  0  0  0  0  0  0  0999 V2000
   13.1069    1.6249   24.5362 O   0  0  0  0  0  0  0  0  0  0  0  0
   12.4788    1.3357   23.5348 C   0  0  0  0  0  0  0  0  0  0  0  0
   12.7506    0.2451   22.6177 C   0  0  0  0  0  0  0  0  0  0  0  0
   11.8435   -0.0769   21.6611 C   0  0  0  0  0  0  0  0  0  0  0  0
   10.6307    0.6755   21.4906 C   0  0  0  0  0  0  0  0  0  0  0  0
    9.5524    0.1433   20.5808 C   0  0  0  0  0  0  0  0  0  0  0  0
    8.5203   -0.6823   21.2919 C   0  0  0  0  0  0  0  0  0  0  0  0
    8.7283   -1.4682   22.3310 N   0  0  0  0  0  0  0  0  0  0  0  0
    7.5169   -2.0286   22.5444 C   0  0  0  0  0  0  0  0  0  0  0  0
    7.3044   -3.0168   23.6403 C   0  0  0  0  0  0  0  0  0  0  0  0
    6.3409   -2.5772   24.7612 C   0  0  0  0  0  0  0  0  0  0  0  0
    5.7583   -3.9020   25.2694 C   0  0  0  0  0  0  0  0  0  0  0  0
    6.0537   -4.8969   24.3020 O   0  0  0  0  0  0  0  0  0  0  0  0
    6.6826   -4.3398   23.1681 C   0  0  0  0  0  0  0  0  0  0  0  0
    7.4374   -5.0566   22.8251 H   0  0  0  0  0  0  0  0  0  0  0  0
    5.9577   -4.1725   22.3542 H   0  0  0  0  0  0  0  0  0  0  0  0
    4.6726   -3.8253   25.4107 H   0  0  0  0  0  0  0  0  0  0  0  0
    6.1982   -4.2169   26.2235 H   0  0  0  0  0  0  0  0  0  0  0  0
    6.8533   -2.0185   25.5505 H   0  0  0  0  0  0  0  0  0  0  0  0
    5.5458   -1.9446   24.3536 H   0  0  0  0  0  0  0  0  0  0  0  0
    8.2945   -3.2117   24.0628 H   0  0  0  0  0  0  0  0  0  0  0  0
    6.5675   -1.6416   21.7088 N   0  0  0  0  0  0  0  0  0  0  0  0
    7.2274   -0.7974   20.8765 N   0  0  0  0  0  0  0  0  0  0  0  0
    6.5520   -0.1019   19.8401 C   0  0  0  0  0  0  0  0  0  0  0  0
    5.3686    0.5875   20.1138 C   0  0  0  0  0  0  0  0  0  0  0  0
    4.7797    1.3130   19.0749 C   0  0  0  0  0  0  0  0  0  0  0  0
    5.3843    1.3174   17.8106 C   0  0  0  0  0  0  0  0  0  0  0  0
    6.5086    0.6381   17.5378 N   0  0  0  0  0  0  0  0  0  0  0  0
    7.0710   -0.0501   18.5358 C   0  0  0  0  0  0  0  0  0  0  0  0
    7.9973   -0.5697   18.3038 H   0  0  0  0  0  0  0  0  0  0  0  0
    4.9497    1.8789   16.9850 H   0  0  0  0  0  0  0  0  0  0  0  0
    3.8687    1.8804   19.2341 H   0  0  0  0  0  0  0  0  0  0  0  0
    4.9434    0.5618   21.1183 H   0  0  0  0  0  0  0  0  0  0  0  0
    9.0635    0.9610   20.0419 H   0  0  0  0  0  0  0  0  0  0  0  0
    9.9873   -0.5283   19.8326 H   0  0  0  0  0  0  0  0  0  0  0  0
   10.4206    1.7724   22.2752 C   0  0  0  0  0  0  0  0  0  0  0  0
   11.3595    2.1086   23.2160 N   0  0  0  0  0  0  0  0  0  0  0  0
   11.2343    2.8072   23.9344 H   0  0  0  0  0  0  0  0  0  0  0  0
    9.5302    2.4011   22.1974 H   0  0  0  0  0  0  0  0  0  0  0  0
   12.0261   -0.9227   20.9961 H   0  0  0  0  0  0  0  0  0  0  0  0
   13.6632   -0.3111   22.7839 H   0  0  0  0  0  0  0  0  0  0  0  0
  1  2  2  0
  2  3  1  0
  3  4  2  0
  4  5  1  0
  5  6  1  0
  6  7  1  0
  7  8  2  0
  8  9  1  0
  9 10  1  0
 10 11  1  0
 11 12  1  0
 12 13  1  0
 13 14  1  0
 14 15  1  0
 14 16  1  0
 12 17  1  0
 12 18  1  0
 11 19  1  0
 11 20  1  0
 10 21  1  0
  9 22  2  0
 22 23  1  0
 23 24  1  0
 24 25  2  0
 25 26  1  0
 26 27  2  0
 27 28  1  0
 28 29  2  0
 29 30  1  0
 27 31  1  0
 26 32  1  0
 25 33  1  0
  6 34  1  0
  6 35  1  0
  5 36  2  0
 36 37  1  0
 37 38  1  0
 36 39  1  0
  4 40  1  0
  3 41  1  0
 37  2  1  0
 23  7  1  0
 29 24  1  0
 14 10  1  0
M  END
>  <cnnaffinity>  (1) 
-6.16003

>  <filename>  (1) 
O=c1ccc(Cc2nc(C3CCOC3)nn2-c2cccnc2)c[nH]1

$$$$
