
     RDKit          3D

 31 33  0  0  0  0  0  0  0  0999 V2000
    4.9209    1.7910   16.9946 H   0  0  0  0  0  0  0  0  0  0  0  0
    5.3942    1.2919   17.8366 C   0  0  0  0  0  0  0  0  0  0  0  0
    6.5516    0.6675   17.5701 N   0  0  0  0  0  0  0  0  0  0  0  0
    7.1724    0.0538   18.5817 C   0  0  0  0  0  0  0  0  0  0  0  0
    8.1276   -0.4191   18.3650 H   0  0  0  0  0  0  0  0  0  0  0  0
    6.6654    0.0070   19.8981 C   0  0  0  0  0  0  0  0  0  0  0  0
    7.3616   -0.6686   20.9371 N   0  0  0  0  0  0  0  0  0  0  0  0
    6.7664   -1.4394   21.9283 C   0  0  0  0  0  0  0  0  0  0  0  0
    5.7020   -1.6019   21.9498 H   0  0  0  0  0  0  0  0  0  0  0  0
    7.7299   -1.9342   22.7374 C   0  0  0  0  0  0  0  0  0  0  0  0
    7.6160   -2.7822   23.9247 C   0  0  0  0  0  0  0  0  0  0  0  0
    6.3824   -2.8491   24.5988 C   0  0  0  0  0  0  0  0  0  0  0  0
    5.5534   -2.2489   24.2412 H   0  0  0  0  0  0  0  0  0  0  0  0
    6.2187   -3.6629   25.7224 C   0  0  0  0  0  0  0  0  0  0  0  0
    5.2590   -3.7053   26.2302 H   0  0  0  0  0  0  0  0  0  0  0  0
    7.2866   -4.4246   26.1967 C   0  0  0  0  0  0  0  0  0  0  0  0
    7.1871   -5.0640   27.0694 H   0  0  0  0  0  0  0  0  0  0  0  0
    8.5141   -4.3529   25.5213 C   0  0  0  0  0  0  0  0  0  0  0  0
    9.6608   -5.1471   26.0161 N   0  0  0  0  0  4  0  0  0  0  0  0
    9.4815   -5.8300   27.0072 O   0  0  0  0  0  0  0  0  0  0  0  0
   10.7194   -5.0745   25.4120 O   0  0  0  0  0  1  0  0  0  0  0  0
    8.6913   -3.5496   24.3970 C   0  0  0  0  0  0  0  0  0  0  0  0
    9.6559   -3.5470   23.8996 H   0  0  0  0  0  0  0  0  0  0  0  0
    8.9360   -1.4763   22.2210 N   0  0  0  0  0  0  0  0  0  0  0  0
    9.8693   -1.5707   22.5727 H   0  0  0  0  0  0  0  0  0  0  0  0
    8.7551   -0.6742   21.1290 C   0  0  0  0  0  0  0  0  0  0  0  0
    9.6326   -0.1194   20.5015 O   0  0  0  0  0  0  0  0  0  0  0  0
    5.4469    0.6445   20.1603 C   0  0  0  0  0  0  0  0  0  0  0  0
    5.0300    0.6364   21.1687 H   0  0  0  0  0  0  0  0  0  0  0  0
    4.8109    1.3071   19.1076 C   0  0  0  0  0  0  0  0  0  0  0  0
    3.8809    1.8382   19.2606 H   0  0  0  0  0  0  0  0  0  0  0  0
  1  2  1  0
  2  3  2  0
  3  4  1  0
  4  5  1  0
  4  6  2  0
  6  7  1  0
  7  8  1  0
  8  9  1  0
  8 10  2  0
 10 11  1  0
 11 12  2  0
 12 13  1  0
 12 14  1  0
 14 15  1  0
 14 16  2  0
 16 17  1  0
 16 18  1  0
 18 19  1  0
 19 20  2  0
 19 21  1  0
 18 22  2  0
 22 23  1  0
 10 24  1  0
 24 25  1  0
 24 26  1  0
 26 27  2  0
  6 28  1  0
 28 29  1  0
 28 30  2  0
 30 31  1  0
 30  2  1  0
 26  7  1  0
 22 11  1  0
M  CHG  2  19   1  21  -1
M  END
>  <cnnaffinity>  (1) 
-5.0913

>  <filename>  (1) 
O=c1[nH]c(-c2cccc([N+](=O)[O-])c2)cn1-c1cccnc1

$$$$
