
     RDKit          3D

 40 44  0  0  0  0  0  0  0  0999 V2000
    9.6541    2.1371   21.6905 O   0  0  0  0  0  0  0  0  0  0  0  0
    9.4483    1.9294   22.8775 C   0  0  0  0  0  0  0  0  0  0  0  0
   10.4922    2.0869   23.7821 N   0  0  0  0  0  0  0  0  0  0  0  0
   10.4987    1.8917   25.1286 N   0  0  0  0  0  0  0  0  0  0  0  0
    9.3705    1.5007   25.6561 C   0  0  0  0  0  0  0  0  0  0  0  0
    8.1667    1.3071   24.8812 C   0  0  0  0  0  0  0  0  0  0  0  0
    8.1799    1.5108   23.5244 C   0  0  0  0  0  0  0  0  0  0  0  0
    6.9730    1.2198   22.6458 C   0  0  0  0  0  0  0  0  0  0  0  0
    6.9215   -0.2005   22.1361 C   0  0  0  0  0  0  0  0  0  0  0  0
    7.3383   -1.2481   22.8236 N   0  0  0  0  0  0  0  0  0  0  0  0
    7.5151   -2.1940   21.8597 C   0  0  0  0  0  0  0  0  0  0  0  0
    8.4684   -3.3130   22.0178 C   0  0  0  0  0  0  0  0  0  0  0  0
    9.0521   -3.7085   23.3184 C   0  0  0  0  0  0  0  0  0  0  0  0
    9.9325   -2.7932   22.3975 C   0  0  0  0  0  0  0  0  0  0  0  0
   11.1115   -1.9942   22.8757 C   0  0  0  0  0  0  0  0  0  0  0  0
   10.5443   -1.7472   21.5203 C   0  0  0  0  0  0  0  0  0  0  0  0
   11.1610   -2.1227   20.7207 H   0  0  0  0  0  0  0  0  0  0  0  0
    9.9645   -0.8503   21.2820 H   0  0  0  0  0  0  0  0  0  0  0  0
   10.9455   -1.2827   23.6893 H   0  0  0  0  0  0  0  0  0  0  0  0
   12.0752   -2.5000   22.8538 H   0  0  0  0  0  0  0  0  0  0  0  0
    9.3909   -4.7414   23.4286 H   0  0  0  0  0  0  0  0  0  0  0  0
    8.7062   -3.2178   24.2352 H   0  0  0  0  0  0  0  0  0  0  0  0
    8.4414   -4.0220   21.1935 H   0  0  0  0  0  0  0  0  0  0  0  0
    7.0527   -1.8620   20.6707 N   0  0  0  0  0  0  0  0  0  0  0  0
    6.6372   -0.5748   20.8501 N   0  0  0  0  0  0  0  0  0  0  0  0
    6.1603    0.1716   19.7375 C   0  0  0  0  0  0  0  0  0  0  0  0
    5.0198    0.9804   19.8088 C   0  0  0  0  0  0  0  0  0  0  0  0
    4.6038    1.6273   18.6394 C   0  0  0  0  0  0  0  0  0  0  0  0
    5.3586    1.4754   17.4727 C   0  0  0  0  0  0  0  0  0  0  0  0
    6.4683    0.7194   17.4051 N   0  0  0  0  0  0  0  0  0  0  0  0
    6.8535    0.0857   18.5144 C   0  0  0  0  0  0  0  0  0  0  0  0
    7.7669   -0.5038   18.4483 H   0  0  0  0  0  0  0  0  0  0  0  0
    5.0614    1.9806   16.5562 H   0  0  0  0  0  0  0  0  0  0  0  0
    3.7215    2.2584   18.6283 H   0  0  0  0  0  0  0  0  0  0  0  0
    4.4769    1.1036   20.7479 H   0  0  0  0  0  0  0  0  0  0  0  0
    6.0347    1.3723   23.1956 H   0  0  0  0  0  0  0  0  0  0  0  0
    6.9845    1.9020   21.7887 H   0  0  0  0  0  0  0  0  0  0  0  0
    7.2639    0.9967   25.4019 H   0  0  0  0  0  0  0  0  0  0  0  0
    9.3788    1.3417   26.7255 H   0  0  0  0  0  0  0  0  0  0  0  0
   11.3326    2.4246   23.3304 H   0  0  0  0  0  0  0  0  0  0  0  0
  1  2  2  0
  2  3  1  0
  3  4  1  0
  4  5  2  0
  5  6  1  0
  6  7  2  0
  7  8  1  0
  8  9  1  0
  9 10  2  0
 10 11  1  0
 11 12  1  0
 12 13  1  0
 13 14  1  0
 14 15  1  0
 15 16  1  0
 16 17  1  0
 16 18  1  0
 15 19  1  0
 15 20  1  0
 13 21  1  0
 13 22  1  0
 12 23  1  0
 11 24  2  0
 24 25  1  0
 25 26  1  0
 26 27  2  0
 27 28  1  0
 28 29  2  0
 29 30  1  0
 30 31  2  0
 31 32  1  0
 29 33  1  0
 28 34  1  0
 27 35  1  0
  8 36  1  0
  8 37  1  0
  6 38  1  0
  5 39  1  0
  3 40  1  0
  7  2  1  0
 25  9  1  0
 31 26  1  0
 14 12  1  0
 16 14  1  0
M  END
>  <cnnaffinity>  (1) 
-6.47149

>  <filename>  (1) 
O=c1[nH]nccc1Cc1nc(C2CC23CC3)nn1-c1cccnc1

$$$$
