
     RDKit          3D

 27 29  0  0  0  0  0  0  0  0999 V2000
    4.9396    1.8119   16.9530 H   0  0  0  0  0  0  0  0  0  0  0  0
    5.3915    1.3229   17.8123 C   0  0  0  0  0  0  0  0  0  0  0  0
    6.5572    0.6967   17.5904 N   0  0  0  0  0  0  0  0  0  0  0  0
    7.1406    0.0959   18.6310 C   0  0  0  0  0  0  0  0  0  0  0  0
    8.0714   -0.4432   18.4453 H   0  0  0  0  0  0  0  0  0  0  0  0
    6.6195    0.1227   19.9292 C   0  0  0  0  0  0  0  0  0  0  0  0
    7.3727   -0.5831   20.9848 C   0  0  0  0  0  0  0  0  0  0  0  0
    8.0217   -1.6497   20.6048 N   0  0  0  0  0  0  0  0  0  0  0  0
    8.5114   -2.4680   21.5818 C   0  0  0  0  0  0  0  0  0  0  0  0
    8.7744   -3.6375   21.4394 O   0  0  0  0  0  0  0  0  0  0  0  0
    8.7024   -1.9094   22.8478 N   0  0  0  0  0  0  0  0  0  0  0  0
    9.0902   -2.5694   23.5014 H   0  0  0  0  0  0  0  0  0  0  0  0
    8.0309   -0.8120   23.2659 C   0  0  0  0  0  0  0  0  0  0  0  0
    8.0969   -0.4675   24.6385 N   0  0  0  0  0  0  0  0  0  0  0  0
    8.5974   -1.3195   25.5772 N   0  0  0  0  0  0  0  0  0  0  0  0
    8.4942   -0.6669   26.7197 C   0  0  0  0  0  0  0  0  0  0  0  0
    8.8206   -1.1206   27.6474 H   0  0  0  0  0  0  0  0  0  0  0  0
    7.9316    0.6159   26.5411 C   0  0  0  0  0  0  0  0  0  0  0  0
    7.7411    1.3551   27.3014 H   0  0  0  0  0  0  0  0  0  0  0  0
    7.6895    0.7122   25.2033 C   0  0  0  0  0  0  0  0  0  0  0  0
    7.2905    1.5174   24.6020 H   0  0  0  0  0  0  0  0  0  0  0  0
    7.3332   -0.1108   22.3182 C   0  0  0  0  0  0  0  0  0  0  0  0
    6.7530    0.7605   22.5534 H   0  0  0  0  0  0  0  0  0  0  0  0
    5.3829    0.7430   20.1406 C   0  0  0  0  0  0  0  0  0  0  0  0
    4.9125    0.7100   21.1245 H   0  0  0  0  0  0  0  0  0  0  0  0
    4.7593    1.3578   19.0594 C   0  0  0  0  0  0  0  0  0  0  0  0
    3.8114    1.8696   19.1741 H   0  0  0  0  0  0  0  0  0  0  0  0
  1  2  1  0
  2  3  2  0
  3  4  1  0
  4  5  1  0
  4  6  2  0
  6  7  1  0
  7  8  2  0
  8  9  1  0
  9 10  2  0
  9 11  1  0
 11 12  1  0
 11 13  1  0
 13 14  1  0
 14 15  1  0
 15 16  2  0
 16 17  1  0
 16 18  1  0
 18 19  1  0
 18 20  2  0
 20 21  1  0
 13 22  2  0
 22 23  1  0
  6 24  1  0
 24 25  1  0
 24 26  2  0
 26 27  1  0
 26  2  1  0
 22  7  1  0
 20 14  1  0
M  END
>  <cnnaffinity>  (1) 
-4.8968

>  <filename>  (1) 
O=c1nc(-c2cccnc2)cc(-n2cccn2)[nH]1

$$$$
