
     RDKit          3D

 38 40  0  0  0  0  0  0  0  0999 V2000
    4.9325    1.7640   16.9025 H   0  0  0  0  0  0  0  0  0  0  0  0
    5.3731    1.3421   17.8014 C   0  0  0  0  0  0  0  0  0  0  0  0
    6.5819    0.7855   17.6418 N   0  0  0  0  0  0  0  0  0  0  0  0
    7.1654    0.2656   18.7242 C   0  0  0  0  0  0  0  0  0  0  0  0
    8.1546   -0.1596   18.5503 H   0  0  0  0  0  0  0  0  0  0  0  0
    6.5937    0.2713   20.0093 C   0  0  0  0  0  0  0  0  0  0  0  0
    7.2823   -0.4573   21.1016 C   0  0  0  0  0  0  0  0  0  0  0  0
    7.5773    0.4410   22.5752 S   0  0  0  0  0  0  0  0  0  0  0  0
    8.2953   -0.7969   23.6011 C   0  0  0  0  0  0  0  0  0  0  0  0
    8.4956   -0.4369   24.8989 N   0  0  0  0  0  0  0  0  0  0  0  0
    8.8779   -1.1874   25.4595 H   0  0  0  0  0  0  0  0  0  0  0  0
    7.7652    0.5822   25.6201 C   0  0  0  0  0  0  0  0  0  0  0  0
    7.7479    1.5002   25.0121 H   0  0  0  0  0  0  0  0  0  0  0  0
    8.5110    0.9022   26.9123 C   0  0  0  0  0  0  0  0  0  0  0  0
    9.5437    1.1588   26.6374 H   0  0  0  0  0  0  0  0  0  0  0  0
    8.5476   -0.0142   27.5241 H   0  0  0  0  0  0  0  0  0  0  0  0
    7.8130    2.0365   27.6896 C   0  0  0  0  0  0  0  0  0  0  0  0
    8.3002    2.1922   28.6575 H   0  0  0  0  0  0  0  0  0  0  0  0
    7.9319    2.9736   27.1229 H   0  0  0  0  0  0  0  0  0  0  0  0
    6.3187    1.7437   27.9216 C   0  0  0  0  0  0  0  0  0  0  0  0
    6.2333    0.9190   28.6451 H   0  0  0  0  0  0  0  0  0  0  0  0
    5.8383    2.6137   28.3878 H   0  0  0  0  0  0  0  0  0  0  0  0
    5.5814    1.3477   26.6291 C   0  0  0  0  0  0  0  0  0  0  0  0
    5.5312    2.2149   25.9519 H   0  0  0  0  0  0  0  0  0  0  0  0
    4.5428    1.0780   26.8539 H   0  0  0  0  0  0  0  0  0  0  0  0
    6.3017    0.1933   25.9071 C   0  0  0  0  0  0  0  0  0  0  0  0
    6.2951   -0.7115   26.5362 H   0  0  0  0  0  0  0  0  0  0  0  0
    5.8147   -0.0718   24.9580 H   0  0  0  0  0  0  0  0  0  0  0  0
    8.6388   -2.0466   23.2128 C   0  0  0  0  0  0  0  0  0  0  0  0
    9.1606   -2.7109   23.8932 H   0  0  0  0  0  0  0  0  0  0  0  0
    8.3253   -2.6032   21.9236 C   0  0  0  0  0  0  0  0  0  0  0  0
    8.5788   -3.7691   21.6391 O   0  0  0  0  0  0  0  0  0  0  0  0
    7.6544   -1.7383   20.9350 C   0  0  0  0  0  0  0  0  0  0  0  0
    7.4851   -2.2159   19.9885 H   0  0  0  0  0  0  0  0  0  0  0  0
    5.3473    0.8968   20.1659 C   0  0  0  0  0  0  0  0  0  0  0  0
    4.9060    0.9792   21.1599 H   0  0  0  0  0  0  0  0  0  0  0  0
    4.7163    1.4213   19.0356 C   0  0  0  0  0  0  0  0  0  0  0  0
    3.7616    1.9298   19.1014 H   0  0  0  0  0  0  0  0  0  0  0  0
  1  2  1  0
  2  3  2  0
  3  4  1  0
  4  5  1  0
  4  6  2  0
  6  7  1  0
  7  8  1  0
  8  9  1  0
  9 10  1  0
 10 11  1  0
 10 12  1  0
 12 13  1  0
 12 14  1  0
 14 15  1  0
 14 16  1  0
 14 17  1  0
 17 18  1  0
 17 19  1  0
 17 20  1  0
 20 21  1  0
 20 22  1  0
 20 23  1  0
 23 24  1  0
 23 25  1  0
 23 26  1  0
 26 27  1  0
 26 28  1  0
  9 29  2  0
 29 30  1  0
 29 31  1  0
 31 32  2  0
 31 33  1  0
 33 34  1  0
  6 35  1  0
 35 36  1  0
 35 37  2  0
 37 38  1  0
 37  2  1  0
 33  7  2  0
 26 12  1  0
M  END
>  <cnnaffinity>  (1) 
-5.19253

>  <filename>  (1) 
O=c1cc(NC2CCCCC2)sc(-c2cccnc2)c1

$$$$
