
     RDKit          3D

 32 34  0  0  0  0  0  0  0  0999 V2000
    4.9318    1.7941   16.9881 H   0  0  0  0  0  0  0  0  0  0  0  0
    5.4009    1.2963   17.8341 C   0  0  0  0  0  0  0  0  0  0  0  0
    6.5651    0.6771   17.5801 N   0  0  0  0  0  0  0  0  0  0  0  0
    7.1611    0.0493   18.5971 C   0  0  0  0  0  0  0  0  0  0  0  0
    8.1081   -0.4379   18.3651 H   0  0  0  0  0  0  0  0  0  0  0  0
    6.6397    0.0189   19.9000 C   0  0  0  0  0  0  0  0  0  0  0  0
    7.3743   -0.7028   20.9357 C   0  0  0  0  0  0  0  0  0  0  0  0
    7.9585   -1.8361   20.7048 N   0  0  0  0  0  0  0  0  0  0  0  0
    8.4380   -2.2147   21.9247 N   0  0  0  0  0  0  0  0  0  0  0  0
    8.9498   -3.0620   22.0942 H   0  0  0  0  0  0  0  0  0  0  0  0
    8.1986   -1.3272   22.9231 C   0  0  0  0  0  0  0  0  0  0  0  0
    8.5490   -1.4263   24.0821 O   0  0  0  0  0  0  0  0  0  0  0  0
    7.4861   -0.3169   22.2614 N   0  0  0  0  0  0  0  0  0  0  0  0
    7.1263    0.9169   22.8742 C   0  0  0  0  0  0  0  0  0  0  0  0
    7.4375    2.1267   22.2477 C   0  0  0  0  0  0  0  0  0  0  0  0
    7.9214    2.1207   21.2775 H   0  0  0  0  0  0  0  0  0  0  0  0
    7.0651    3.3237   22.8621 C   0  0  0  0  0  0  0  0  0  0  0  0
    7.2845    4.2686   22.3753 H   0  0  0  0  0  0  0  0  0  0  0  0
    6.4009    3.3159   24.0908 C   0  0  0  0  0  0  0  0  0  0  0  0
    6.1060    4.2321   24.5954 H   0  0  0  0  0  0  0  0  0  0  0  0
    6.1112    2.0889   24.6943 C   0  0  0  0  0  0  0  0  0  0  0  0
    5.4677    2.1962   25.9207 O   0  0  0  0  0  0  0  0  0  0  0  0
    5.1201    1.1221   26.6535 C   0  0  0  0  0  0  0  0  0  0  0  0
    4.5356    1.5873   27.7502 F   0  0  0  0  0  0  0  0  0  0  0  0
    6.1685    0.3650   27.0138 F   0  0  0  0  0  0  0  0  0  0  0  0
    4.2605    0.3108   26.0182 F   0  0  0  0  0  0  0  0  0  0  0  0
    6.4652    0.8816   24.1031 C   0  0  0  0  0  0  0  0  0  0  0  0
    6.2694   -0.0730   24.5778 H   0  0  0  0  0  0  0  0  0  0  0  0
    5.4177    0.6530   20.1491 C   0  0  0  0  0  0  0  0  0  0  0  0
    5.0026    0.6456   21.1599 H   0  0  0  0  0  0  0  0  0  0  0  0
    4.7941    1.3101   19.0957 C   0  0  0  0  0  0  0  0  0  0  0  0
    3.8656    1.8459   19.2420 H   0  0  0  0  0  0  0  0  0  0  0  0
  1  2  1  0
  2  3  2  0
  3  4  1  0
  4  5  1  0
  4  6  2  0
  6  7  1  0
  7  8  2  0
  8  9  1  0
  9 10  1  0
  9 11  1  0
 11 12  2  0
 11 13  1  0
 13 14  1  0
 14 15  2  0
 15 16  1  0
 15 17  1  0
 17 18  1  0
 17 19  2  0
 19 20  1  0
 19 21  1  0
 21 22  1  0
 22 23  1  0
 23 24  1  0
 23 25  1  0
 23 26  1  0
 21 27  2  0
 27 28  1  0
  6 29  1  0
 29 30  1  0
 29 31  2  0
 31 32  1  0
 31  2  1  0
 13  7  1  0
 27 14  1  0
M  END
>  <cnnaffinity>  (1) 
-5.3214

>  <filename>  (1) 
O=c1[nH]nc(-c2cccnc2)n1-c1cccc(OC(F)(F)F)c1

$$$$
