
     RDKit          3D

 32 34  0  0  0  0  0  0  0  0999 V2000
   14.0131    2.2852   22.5024 H   0  0  0  0  0  0  0  0  0  0  0  0
   12.9286    2.2376   22.5461 C   0  0  0  0  0  0  0  0  0  0  0  0
   12.4116    1.0069   22.5573 N   0  0  0  0  0  0  0  0  0  0  0  0
   11.0772    0.9314   22.6189 C   0  0  0  0  0  0  0  0  0  0  0  0
   10.6732   -0.3814   22.5892 N   0  0  0  0  0  0  0  0  0  0  0  0
   11.5601   -0.8775   22.6164 H   0  0  0  0  0  0  0  0  0  0  0  0
    9.3915   -0.9062   22.2683 C   0  0  0  0  0  0  0  0  0  0  0  0
    8.6569   -0.3282   21.2837 C   0  0  0  0  0  0  0  0  0  0  0  0
    9.0597    0.5229   20.7402 H   0  0  0  0  0  0  0  0  0  0  0  0
    7.3637   -0.7215   20.9326 N   0  0  0  0  0  0  0  0  0  0  0  0
    6.6729   -0.0035   19.8758 C   0  0  0  0  0  0  0  0  0  0  0  0
    7.1967    0.0762   18.5670 C   0  0  0  0  0  0  0  0  0  0  0  0
    8.1381   -0.4129   18.3190 H   0  0  0  0  0  0  0  0  0  0  0  0
    6.5827    0.7056   17.5564 N   0  0  0  0  0  0  0  0  0  0  0  0
    5.4185    1.3212   17.8110 C   0  0  0  0  0  0  0  0  0  0  0  0
    4.9442    1.8309   16.9716 H   0  0  0  0  0  0  0  0  0  0  0  0
    4.8236    1.3134   19.0755 C   0  0  0  0  0  0  0  0  0  0  0  0
    3.8892    1.8385   19.2229 H   0  0  0  0  0  0  0  0  0  0  0  0
    5.4512    0.6334   20.1257 C   0  0  0  0  0  0  0  0  0  0  0  0
    5.0125    0.5985   21.1212 H   0  0  0  0  0  0  0  0  0  0  0  0
    6.7243   -1.7873   21.6118 C   0  0  0  0  0  0  0  0  0  0  0  0
    5.6331   -2.2301   21.3441 O   0  0  0  0  0  0  0  0  0  0  0  0
    7.4604   -2.3361   22.6140 N   0  0  0  0  0  0  0  0  0  0  0  0
    7.0291   -3.1074   23.0863 H   0  0  0  0  0  0  0  0  0  0  0  0
    8.7568   -2.0719   23.0015 C   0  0  0  0  0  0  0  0  0  0  0  0
    9.2245   -2.7768   23.8691 O   0  0  0  0  0  0  0  0  0  0  0  0
   10.2276    2.0290   22.7643 C   0  0  0  0  0  0  0  0  0  0  0  0
    9.1754    1.8536   22.9206 H   0  0  0  0  0  0  0  0  0  0  0  0
   10.7873    3.3028   22.7466 C   0  0  0  0  0  0  0  0  0  0  0  0
   10.1603    4.1890   22.8498 H   0  0  0  0  0  0  0  0  0  0  0  0
   12.1713    3.4084   22.6066 C   0  0  0  0  0  0  0  0  0  0  0  0
   12.6603    4.3703   22.5452 H   0  0  0  0  0  0  0  0  0  0  0  0
  1  2  1  0
  2  3  2  0
  3  4  1  0
  4  5  1  0
  5  6  1  0
  5  7  1  0
  7  8  2  0
  8  9  1  0
  8 10  1  0
 10 11  1  0
 11 12  2  0
 12 13  1  0
 12 14  1  0
 14 15  2  0
 15 16  1  0
 15 17  1  0
 17 18  1  0
 17 19  2  0
 19 20  1  0
 10 21  1  0
 21 22  2  0
 21 23  1  0
 23 24  1  0
 23 25  1  0
 25 26  2  0
  4 27  2  0
 27 28  1  0
 27 29  1  0
 29 30  1  0
 29 31  2  0
 31 32  1  0
 31  2  1  0
 25  7  1  0
 19 11  1  0
M  END
>  <cnnaffinity>  (1) 
-5.30746

>  <filename>  (1) 
O=c1[nH]c(=O)n(-c2cccnc2)cc1Nc1ccccn1

$$$$
