
     RDKit          3D

 43 46  0  0  0  0  0  0  0  0999 V2000
   14.4263   -1.7990   22.2332 O   0  0  0  0  0  0  0  0  0  0  0  0
   13.4105   -1.1315   22.1615 C   0  0  0  0  0  0  0  0  0  0  0  0
   13.1919    0.1787   22.7428 C   0  0  0  0  0  0  0  0  0  0  0  0
   12.0592    0.8751   22.4612 C   0  0  0  0  0  0  0  0  0  0  0  0
   11.0290    0.3307   21.6134 C   0  0  0  0  0  0  0  0  0  0  0  0
    9.8280    1.2067   21.2952 C   0  0  0  0  0  0  0  0  0  0  0  0
    8.7233    1.1770   22.3082 C   0  0  0  0  0  0  0  0  0  0  0  0
    8.6574    1.9102   23.3978 N   0  0  0  0  0  0  0  0  0  0  0  0
    7.5092    1.4850   24.0005 C   0  0  0  0  0  0  0  0  0  0  0  0
    7.0726    2.0072   25.3171 C   0  0  0  0  0  0  0  0  0  0  0  0
    7.8432    3.0023   25.9512 C   0  0  0  0  0  0  0  0  0  0  0  0
    7.4891    3.5075   27.2000 C   0  0  0  0  0  0  0  0  0  0  0  0
    6.3475    3.0063   27.8222 C   0  0  0  0  0  0  0  0  0  0  0  0
    5.9952    3.4943   29.0217 F   0  0  0  0  0  0  0  0  0  0  0  0
    5.5619    2.0157   27.2338 C   0  0  0  0  0  0  0  0  0  0  0  0
    5.9255    1.5189   25.9801 C   0  0  0  0  0  0  0  0  0  0  0  0
    5.3255    0.7371   25.5193 H   0  0  0  0  0  0  0  0  0  0  0  0
    4.6912    1.6418   27.7640 H   0  0  0  0  0  0  0  0  0  0  0  0
    8.0859    4.2688   27.6901 H   0  0  0  0  0  0  0  0  0  0  0  0
    8.7373    3.3644   25.4507 H   0  0  0  0  0  0  0  0  0  0  0  0
    6.8639    0.5545   23.3131 N   0  0  0  0  0  0  0  0  0  0  0  0
    7.6483    0.3661   22.2305 N   0  0  0  0  0  0  0  0  0  0  0  0
    7.2937   -0.5608   21.1615 C   0  0  0  0  0  0  0  0  0  0  0  0
    6.6522    0.1047   19.9564 C   0  0  0  0  0  0  0  0  0  0  0  0
    5.4446    0.7972   20.1155 C   0  0  0  0  0  0  0  0  0  0  0  0
    4.8603    1.3874   18.9949 C   0  0  0  0  0  0  0  0  0  0  0  0
    5.5003    1.2718   17.7582 C   0  0  0  0  0  0  0  0  0  0  0  0
    6.6521    0.6082   17.5818 N   0  0  0  0  0  0  0  0  0  0  0  0
    7.2075    0.0515   18.6676 C   0  0  0  0  0  0  0  0  0  0  0  0
    8.1468   -0.4742   18.4879 H   0  0  0  0  0  0  0  0  0  0  0  0
    5.0676    1.7349   16.8733 H   0  0  0  0  0  0  0  0  0  0  0  0
    3.9355    1.9479   19.0694 H   0  0  0  0  0  0  0  0  0  0  0  0
    4.9778    0.8779   21.0997 H   0  0  0  0  0  0  0  0  0  0  0  0
    6.6186   -1.2968   21.6080 H   0  0  0  0  0  0  0  0  0  0  0  0
    8.2050   -1.0922   20.8686 H   0  0  0  0  0  0  0  0  0  0  0  0
    9.4128    0.9935   20.3060 H   0  0  0  0  0  0  0  0  0  0  0  0
   10.1635    2.2432   21.2328 H   0  0  0  0  0  0  0  0  0  0  0  0
   11.1749   -0.9455   21.1618 C   0  0  0  0  0  0  0  0  0  0  0  0
   12.3305   -1.6406   21.4471 N   0  0  0  0  0  0  0  0  0  0  0  0
   12.5866   -2.5600   21.1149 H   0  0  0  0  0  0  0  0  0  0  0  0
   10.4098   -1.4458   20.5725 H   0  0  0  0  0  0  0  0  0  0  0  0
   11.9089    1.8629   22.8939 H   0  0  0  0  0  0  0  0  0  0  0  0
   13.9773    0.5567   23.3780 H   0  0  0  0  0  0  0  0  0  0  0  0
  1  2  2  0
  2  3  1  0
  3  4  2  0
  4  5  1  0
  5  6  1  0
  6  7  1  0
  7  8  2  0
  8  9  1  0
  9 10  1  0
 10 11  2  0
 11 12  1  0
 12 13  2  0
 13 14  1  0
 13 15  1  0
 15 16  2  0
 16 17  1  0
 15 18  1  0
 12 19  1  0
 11 20  1  0
  9 21  2  0
 21 22  1  0
 22 23  1  0
 23 24  1  0
 24 25  2  0
 25 26  1  0
 26 27  2  0
 27 28  1  0
 28 29  2  0
 29 30  1  0
 27 31  1  0
 26 32  1  0
 25 33  1  0
 23 34  1  0
 23 35  1  0
  6 36  1  0
  6 37  1  0
  5 38  2  0
 38 39  1  0
 39 40  1  0
 38 41  1  0
  4 42  1  0
  3 43  1  0
 39  2  1  0
 22  7  1  0
 29 24  1  0
 16 10  1  0
M  END
>  <cnnaffinity>  (1) 
-6.5025

>  <filename>  (1) 
O=c1ccc(Cc2nc(-c3ccc(F)cc3)nn2Cc2cccnc2)c[nH]1

$$$$
