
     RDKit          3D

 30 32  0  0  0  0  0  0  0  0999 V2000
    4.9320    1.8220   16.9496 H   0  0  0  0  0  0  0  0  0  0  0  0
    5.3813    1.3036   17.7931 C   0  0  0  0  0  0  0  0  0  0  0  0
    6.5412    0.6749   17.5445 N   0  0  0  0  0  0  0  0  0  0  0  0
    7.1457    0.0638   18.5657 C   0  0  0  0  0  0  0  0  0  0  0  0
    8.0998   -0.4109   18.3394 H   0  0  0  0  0  0  0  0  0  0  0  0
    6.6325    0.0432   19.8711 C   0  0  0  0  0  0  0  0  0  0  0  0
    7.3830   -0.5843   20.9559 C   0  0  0  0  0  0  0  0  0  0  0  0
    7.4837   -0.0696   22.2131 C   0  0  0  0  0  0  0  0  0  0  0  0
    7.0694    0.8886   22.4825 H   0  0  0  0  0  0  0  0  0  0  0  0
    8.1615   -0.8376   23.1954 C   0  0  0  0  0  0  0  0  0  0  0  0
    8.2988   -0.2821   24.5697 C   0  0  0  0  0  0  0  0  0  0  0  0
    9.5762   -0.2045   25.1511 C   0  0  0  0  0  0  0  0  0  0  0  0
   10.4389   -0.5696   24.5986 H   0  0  0  0  0  0  0  0  0  0  0  0
    9.7414    0.3059   26.4339 C   0  0  0  0  0  0  0  0  0  0  0  0
   10.7359    0.3863   26.8664 H   0  0  0  0  0  0  0  0  0  0  0  0
    8.6198    0.7114   27.1624 C   0  0  0  0  0  0  0  0  0  0  0  0
    8.6751    1.0389   28.1873 H   0  0  0  0  0  0  0  0  0  0  0  0
    7.3490    0.6765   26.6042 C   0  0  0  0  0  0  0  0  0  0  0  0
    6.0142    1.2927   27.5321 Cl  0  0  0  0  0  0  0  0  0  0  0  0
    7.1823    0.1644   25.3103 C   0  0  0  0  0  0  0  0  0  0  0  0
    5.5757    0.0179   24.7021 Cl  0  0  0  0  0  0  0  0  0  0  0  0
    8.6872   -2.0150   22.9664 N   0  0  0  0  0  0  0  0  0  0  0  0
    8.4697   -2.5828   21.7424 C   0  0  0  0  0  0  0  0  0  0  0  0
    8.6206   -3.7483   21.4525 O   0  0  0  0  0  0  0  0  0  0  0  0
    8.0460   -1.7426   20.7029 N   0  0  0  0  0  0  0  0  0  0  0  0
    7.8103   -2.3425   19.9316 H   0  0  0  0  0  0  0  0  0  0  0  0
    5.4061    0.6847   20.1112 C   0  0  0  0  0  0  0  0  0  0  0  0
    4.9757    0.6617   21.1140 H   0  0  0  0  0  0  0  0  0  0  0  0
    4.7687    1.3238   19.0505 C   0  0  0  0  0  0  0  0  0  0  0  0
    3.8404    1.8645   19.1914 H   0  0  0  0  0  0  0  0  0  0  0  0
  1  2  1  0
  2  3  2  0
  3  4  1  0
  4  5  1  0
  4  6  2  0
  6  7  1  0
  7  8  2  0
  8  9  1  0
  8 10  1  0
 10 11  1  0
 11 12  2  0
 12 13  1  0
 12 14  1  0
 14 15  1  0
 14 16  2  0
 16 17  1  0
 16 18  1  0
 18 19  1  0
 18 20  2  0
 20 21  1  0
 10 22  2  0
 22 23  1  0
 23 24  2  0
 23 25  1  0
 25 26  1  0
  6 27  1  0
 27 28  1  0
 27 29  2  0
 29 30  1  0
 29  2  1  0
 25  7  1  0
 20 11  1  0
M  END
>  <cnnaffinity>  (1) 
-5.40394

>  <filename>  (1) 
O=c1nc(-c2cccc(Cl)c2Cl)cc(-c2cccnc2)[nH]1

$$$$
