
     RDKit          3D

 44 47  0  0  0  0  0  0  0  0999 V2000
   11.2280    0.7857   23.6733 O   0  0  0  0  0  0  0  0  0  0  0  0
   10.1567    1.2307   23.3654 C   0  0  0  0  0  0  0  0  0  0  0  0
    9.1563    1.3856   24.2560 O   0  0  0  0  0  0  0  0  0  0  0  0
    7.9621    1.8982   23.6569 C   0  0  0  0  0  0  0  0  0  0  0  0
    8.3470    2.4101   22.2508 C   0  0  0  0  0  0  0  0  0  0  0  0
    9.6828    1.6955   21.9681 C   0  0  0  0  0  0  0  0  0  0  0  0
    9.5682    0.5093   20.9666 C   0  0  0  0  0  0  0  0  0  0  0  0
    8.6013   -0.5603   21.3701 C   0  0  0  0  0  0  0  0  0  0  0  0
    8.8286   -1.4214   22.3379 N   0  0  0  0  0  0  0  0  0  0  0  0
    7.6336   -2.0557   22.4872 C   0  0  0  0  0  0  0  0  0  0  0  0
    7.4090   -3.0640   23.5709 C   0  0  0  0  0  0  0  0  0  0  0  0
    8.4259   -4.2381   23.4896 C   0  0  0  0  0  0  0  0  0  0  0  0
    8.3517   -5.1417   24.6997 C   0  0  0  0  0  0  0  0  0  0  0  0
    7.7935   -4.7780   25.8599 C   0  0  0  0  0  0  0  0  0  0  0  0
    7.1080   -3.4447   26.0718 C   0  0  0  0  0  0  0  0  0  0  0  0
    7.4706   -2.4132   24.9827 C   0  0  0  0  0  0  0  0  0  0  0  0
    8.4890   -2.0201   25.1409 H   0  0  0  0  0  0  0  0  0  0  0  0
    6.7961   -1.5469   25.0410 H   0  0  0  0  0  0  0  0  0  0  0  0
    7.3519   -3.0574   27.0690 H   0  0  0  0  0  0  0  0  0  0  0  0
    6.0171   -3.6055   26.0907 H   0  0  0  0  0  0  0  0  0  0  0  0
    7.8007   -5.4689   26.7051 H   0  0  0  0  0  0  0  0  0  0  0  0
    8.8068   -6.1282   24.6035 H   0  0  0  0  0  0  0  0  0  0  0  0
    8.2598   -4.8303   22.5807 H   0  0  0  0  0  0  0  0  0  0  0  0
    9.4479   -3.8354   23.3912 H   0  0  0  0  0  0  0  0  0  0  0  0
    6.3916   -3.4434   23.4009 H   0  0  0  0  0  0  0  0  0  0  0  0
    6.6926   -1.6575   21.6566 N   0  0  0  0  0  0  0  0  0  0  0  0
    7.3276   -0.7146   20.9078 N   0  0  0  0  0  0  0  0  0  0  0  0
    6.6377   -0.0173   19.8809 C   0  0  0  0  0  0  0  0  0  0  0  0
    5.4328    0.6363   20.1507 C   0  0  0  0  0  0  0  0  0  0  0  0
    4.8053    1.3143   19.1015 C   0  0  0  0  0  0  0  0  0  0  0  0
    5.3920    1.2995   17.8301 C   0  0  0  0  0  0  0  0  0  0  0  0
    6.5440    0.6663   17.5627 N   0  0  0  0  0  0  0  0  0  0  0  0
    7.1509    0.0331   18.5730 C   0  0  0  0  0  0  0  0  0  0  0  0
    8.0994   -0.4507   18.3416 H   0  0  0  0  0  0  0  0  0  0  0  0
    4.9283    1.8075   16.9885 H   0  0  0  0  0  0  0  0  0  0  0  0
    3.8753    1.8475   19.2522 H   0  0  0  0  0  0  0  0  0  0  0  0
    5.0248    0.6045   21.1623 H   0  0  0  0  0  0  0  0  0  0  0  0
    9.2796    0.8904   19.9888 H   0  0  0  0  0  0  0  0  0  0  0  0
   10.5483    0.0380   20.8651 H   0  0  0  0  0  0  0  0  0  0  0  0
   10.4585    2.3767   21.5944 H   0  0  0  0  0  0  0  0  0  0  0  0
    7.5635    2.1882   21.5144 H   0  0  0  0  0  0  0  0  0  0  0  0
    8.4615    3.4996   22.2383 H   0  0  0  0  0  0  0  0  0  0  0  0
    7.6003    2.6888   24.3239 H   0  0  0  0  0  0  0  0  0  0  0  0
    7.2247    1.0810   23.6306 H   0  0  0  0  0  0  0  0  0  0  0  0
  1  2  2  0
  2  3  1  0
  3  4  1  0
  4  5  1  0
  5  6  1  0
  6  7  1  0
  7  8  1  0
  8  9  2  0
  9 10  1  0
 10 11  1  0
 11 12  1  0
 12 13  1  0
 13 14  2  0
 14 15  1  0
 15 16  1  0
 16 17  1  0
 16 18  1  0
 15 19  1  0
 15 20  1  0
 14 21  1  0
 13 22  1  0
 12 23  1  0
 12 24  1  0
 11 25  1  0
 10 26  2  0
 26 27  1  0
 27 28  1  0
 28 29  2  0
 29 30  1  0
 30 31  2  0
 31 32  1  0
 32 33  2  0
 33 34  1  0
 31 35  1  0
 30 36  1  0
 29 37  1  0
  7 38  1  0
  7 39  1  0
  6 40  1  0
  5 41  1  0
  5 42  1  0
  4 43  1  0
  4 44  1  0
  6  2  1  0
 27  8  1  0
 33 28  1  0
 16 11  1  0
M  END
>  <cnnaffinity>  (1) 
-5.90802

>  <filename>  (1) 
O=C1OCCC1Cc1nc(C2CC=CCC2)nn1-c1cccnc1

$$$$
