
     RDKit          3D

 46 49  0  0  0  0  0  0  0  0999 V2000
    6.3674    4.6399   27.1390 O   0  0  0  0  0  0  0  0  0  0  0  0
    5.9311    3.7131   26.4737 C   0  0  0  0  0  0  0  0  0  0  0  0
    4.5406    3.2924   26.3714 C   0  0  0  0  0  0  0  0  0  0  0  0
    4.1860    2.2184   25.6040 C   0  0  0  0  0  0  0  0  0  0  0  0
    5.1763    1.4885   24.8834 C   0  0  0  0  0  0  0  0  0  0  0  0
    6.4895    1.8711   24.9528 C   0  0  0  0  0  0  0  0  0  0  0  0
    7.5926    1.2301   24.1915 C   0  0  0  0  0  0  0  0  0  0  0  0
    7.8277    1.8335   22.7749 C   0  0  0  0  0  0  0  0  0  0  0  0
    8.8203    0.9800   22.0751 C   0  0  0  0  0  0  0  0  0  0  0  0
   10.1207    1.0276   22.3167 N   0  0  0  0  0  0  0  0  0  0  0  0
   10.5536   -0.1668   21.8644 C   0  0  0  0  0  0  0  0  0  0  0  0
   11.9456   -0.6096   21.8308 C   0  0  0  0  0  0  0  0  0  0  0  0
   13.0379    0.1742   22.2340 C   0  0  0  0  0  0  0  0  0  0  0  0
   14.3018   -0.1037   21.7199 C   0  0  0  0  0  0  0  0  0  0  0  0
   14.4110   -1.1281   20.7658 C   0  0  0  0  0  0  0  0  0  0  0  0
   15.4299   -1.1634   19.9013 F   0  0  0  0  0  0  0  0  0  0  0  0
   13.4073   -2.0602   20.5671 C   0  0  0  0  0  0  0  0  0  0  0  0
   12.1798   -1.8075   21.1473 C   0  0  0  0  0  0  0  0  0  0  0  0
   11.3187   -2.4419   21.0041 H   0  0  0  0  0  0  0  0  0  0  0  0
   13.5846   -2.9039   19.9131 H   0  0  0  0  0  0  0  0  0  0  0  0
   15.1399    0.5440   21.9546 H   0  0  0  0  0  0  0  0  0  0  0  0
   12.8999    1.0512   22.8571 H   0  0  0  0  0  0  0  0  0  0  0  0
    9.5993   -0.9352   21.3552 N   0  0  0  0  0  0  0  0  0  0  0  0
    8.4956   -0.1860   21.4679 N   0  0  0  0  0  0  0  0  0  0  0  0
    7.2163   -0.7347   21.0230 C   0  0  0  0  0  0  0  0  0  0  0  0
    6.5437    0.0365   19.9102 C   0  0  0  0  0  0  0  0  0  0  0  0
    5.3240    0.6960   20.0886 C   0  0  0  0  0  0  0  0  0  0  0  0
    4.7511    1.3646   19.0034 C   0  0  0  0  0  0  0  0  0  0  0  0
    5.4234    1.3503   17.7780 C   0  0  0  0  0  0  0  0  0  0  0  0
    6.5921    0.7177   17.5855 N   0  0  0  0  0  0  0  0  0  0  0  0
    7.1322    0.0876   18.6354 C   0  0  0  0  0  0  0  0  0  0  0  0
    8.0826   -0.4140   18.4517 H   0  0  0  0  0  0  0  0  0  0  0  0
    5.0109    1.8684   16.9128 H   0  0  0  0  0  0  0  0  0  0  0  0
    3.8183    1.9086   19.0974 H   0  0  0  0  0  0  0  0  0  0  0  0
    4.8348    0.6891   21.0658 H   0  0  0  0  0  0  0  0  0  0  0  0
    7.4375   -1.7572   20.6995 H   0  0  0  0  0  0  0  0  0  0  0  0
    6.5507   -0.8075   21.8908 H   0  0  0  0  0  0  0  0  0  0  0  0
    6.9009    1.8803   22.1936 H   0  0  0  0  0  0  0  0  0  0  0  0
    8.2305    2.8464   22.8482 H   0  0  0  0  0  0  0  0  0  0  0  0
    7.3653    0.1613   24.0815 H   0  0  0  0  0  0  0  0  0  0  0  0
    8.5316    1.2870   24.7584 H   0  0  0  0  0  0  0  0  0  0  0  0
    6.8196    2.9577   25.7222 N   0  0  0  0  0  0  0  0  0  0  0  0
    7.7645    3.2831   25.8519 H   0  0  0  0  0  0  0  0  0  0  0  0
    4.9014    0.6299   24.2811 H   0  0  0  0  0  0  0  0  0  0  0  0
    3.1444    1.8996   25.5470 H   0  0  0  0  0  0  0  0  0  0  0  0
    3.8447    3.8894   26.9403 H   0  0  0  0  0  0  0  0  0  0  0  0
  1  2  2  0
  2  3  1  0
  3  4  2  0
  4  5  1  0
  5  6  2  0
  6  7  1  0
  7  8  1  0
  8  9  1  0
  9 10  2  0
 10 11  1  0
 11 12  1  0
 12 13  2  0
 13 14  1  0
 14 15  2  0
 15 16  1  0
 15 17  1  0
 17 18  2  0
 18 19  1  0
 17 20  1  0
 14 21  1  0
 13 22  1  0
 11 23  2  0
 23 24  1  0
 24 25  1  0
 25 26  1  0
 26 27  2  0
 27 28  1  0
 28 29  2  0
 29 30  1  0
 30 31  2  0
 31 32  1  0
 29 33  1  0
 28 34  1  0
 27 35  1  0
 25 36  1  0
 25 37  1  0
  8 38  1  0
  8 39  1  0
  7 40  1  0
  7 41  1  0
  6 42  1  0
 42 43  1  0
  5 44  1  0
  4 45  1  0
  3 46  1  0
 42  2  1  0
 24  9  1  0
 31 26  1  0
 18 12  1  0
M  END
>  <cnnaffinity>  (1) 
-6.58372

>  <filename>  (1) 
O=c1cccc(CCc2nc(-c3ccc(F)cc3)nn2Cc2cccnc2)[nH]1

$$$$
