
     RDKit          3D

 36 39  0  0  0  0  0  0  0  0999 V2000
    4.9128    1.8265   16.9732 H   0  0  0  0  0  0  0  0  0  0  0  0
    5.3788    1.3072   17.8088 C   0  0  0  0  0  0  0  0  0  0  0  0
    6.5325    0.6752   17.5400 N   0  0  0  0  0  0  0  0  0  0  0  0
    7.1619    0.0596   18.5494 C   0  0  0  0  0  0  0  0  0  0  0  0
    8.1126   -0.4156   18.3152 H   0  0  0  0  0  0  0  0  0  0  0  0
    6.6575    0.0140   19.8639 C   0  0  0  0  0  0  0  0  0  0  0  0
    7.3396   -0.6943   20.9352 N   0  0  0  0  0  0  0  0  0  0  0  0
    6.6919   -1.7466   21.5641 C   0  0  0  0  0  0  0  0  0  0  0  0
    5.6808   -1.9598   21.2088 H   0  0  0  0  0  0  0  0  0  0  0  0
    7.2843   -2.4565   22.5593 C   0  0  0  0  0  0  0  0  0  0  0  0
    6.6197   -3.5591   23.2475 C   0  0  0  0  0  0  0  0  0  0  0  0
    5.8652   -4.3402   22.4982 N   0  0  0  0  0  0  0  0  0  0  0  0
    5.2002   -5.3630   23.1129 C   0  0  0  0  0  0  0  0  0  0  0  0
    4.3799   -6.1814   22.2891 C   0  0  0  0  0  0  0  0  0  0  0  0
    4.4307   -5.9602   21.2321 H   0  0  0  0  0  0  0  0  0  0  0  0
    3.6123   -7.1813   22.8394 C   0  0  0  0  0  0  0  0  0  0  0  0
    2.9348   -7.7665   22.2173 H   0  0  0  0  0  0  0  0  0  0  0  0
    3.7091   -7.4701   24.2326 C   0  0  0  0  0  0  0  0  0  0  0  0
    3.1463   -8.3069   24.6366 H   0  0  0  0  0  0  0  0  0  0  0  0
    4.5054   -6.7058   25.0604 C   0  0  0  0  0  0  0  0  0  0  0  0
    4.5663   -6.9111   26.1306 H   0  0  0  0  0  0  0  0  0  0  0  0
    5.2532   -5.6150   24.5210 C   0  0  0  0  0  0  0  0  0  0  0  0
    6.0562   -4.7317   25.2987 C   0  0  0  0  0  0  0  0  0  0  0  0
    6.1075   -4.8669   26.3789 H   0  0  0  0  0  0  0  0  0  0  0  0
    6.7427   -3.7242   24.6690 C   0  0  0  0  0  0  0  0  0  0  0  0
    7.3872   -3.0366   25.1990 H   0  0  0  0  0  0  0  0  0  0  0  0
    8.6356   -2.1252   22.9926 C   0  0  0  0  0  0  0  0  0  0  0  0
    9.2990   -2.6617   23.8531 O   0  0  0  0  0  0  0  0  0  0  0  0
    9.1917   -1.0705   22.3144 N   0  0  0  0  0  0  0  0  0  0  0  0
   10.1329   -0.8283   22.5573 H   0  0  0  0  0  0  0  0  0  0  0  0
    8.6577   -0.3279   21.3128 C   0  0  0  0  0  0  0  0  0  0  0  0
    9.3007    0.5565   20.7998 O   0  0  0  0  0  0  0  0  0  0  0  0
    5.4413    0.6554   20.1228 C   0  0  0  0  0  0  0  0  0  0  0  0
    5.0351    0.6309   21.1341 H   0  0  0  0  0  0  0  0  0  0  0  0
    4.7917    1.3261   19.0787 C   0  0  0  0  0  0  0  0  0  0  0  0
    3.8589    1.8628   19.2349 H   0  0  0  0  0  0  0  0  0  0  0  0
  1  2  1  0
  2  3  2  0
  3  4  1  0
  4  5  1  0
  4  6  2  0
  6  7  1  0
  7  8  1  0
  8  9  1  0
  8 10  2  0
 10 11  1  0
 11 12  2  0
 12 13  1  0
 13 14  2  0
 14 15  1  0
 14 16  1  0
 16 17  1  0
 16 18  2  0
 18 19  1  0
 18 20  1  0
 20 21  1  0
 20 22  2  0
 22 23  1  0
 23 24  1  0
 23 25  2  0
 25 26  1  0
 10 27  1  0
 27 28  2  0
 27 29  1  0
 29 30  1  0
 29 31  1  0
 31 32  2  0
  6 33  1  0
 33 34  1  0
 33 35  2  0
 35 36  1  0
 35  2  1  0
 31  7  1  0
 25 11  1  0
 22 13  1  0
M  END
>  <cnnaffinity>  (1) 
-5.60024

>  <filename>  (1) 
O=c1[nH]c(=O)n(-c2cccnc2)cc1-c1ccc2ccccc2n1

$$$$
