
     RDKit          3D

 38 41  0  0  0  0  0  0  0  0999 V2000
    5.0125    1.7143   17.0245 H   0  0  0  0  0  0  0  0  0  0  0  0
    5.4729    1.3144   17.9255 C   0  0  0  0  0  0  0  0  0  0  0  0
    6.6870    0.7693   17.7702 N   0  0  0  0  0  0  0  0  0  0  0  0
    7.2610    0.2497   18.8642 C   0  0  0  0  0  0  0  0  0  0  0  0
    8.2459   -0.1903   18.6984 H   0  0  0  0  0  0  0  0  0  0  0  0
    6.6693    0.1947   20.1434 C   0  0  0  0  0  0  0  0  0  0  0  0
    7.3200   -0.5969   21.2849 C   0  0  0  0  0  0  0  0  0  0  0  0
    8.3175    0.1861   22.1868 C   0  0  0  0  0  0  0  0  0  0  0  0
    8.4912   -0.3914   23.1002 H   0  0  0  0  0  0  0  0  0  0  0  0
    9.2778    0.2912   21.6714 H   0  0  0  0  0  0  0  0  0  0  0  0
    7.8942    1.5203   22.5803 N   0  0  0  0  0  0  0  0  0  0  0  0
    7.9950    2.5886   21.6884 C   0  0  0  0  0  0  0  0  0  0  0  0
    8.7433    2.5686   20.7417 O   0  0  0  0  0  0  0  0  0  0  0  0
    7.0467    3.6355   22.1704 C   0  0  0  0  0  0  0  0  0  0  0  0
    6.6441    4.8544   21.6162 C   0  0  0  0  0  0  0  0  0  0  0  0
    7.0632    5.2272   20.6847 H   0  0  0  0  0  0  0  0  0  0  0  0
    5.6762    5.5968   22.2967 C   0  0  0  0  0  0  0  0  0  0  0  0
    5.3343    6.5345   21.8667 H   0  0  0  0  0  0  0  0  0  0  0  0
    5.1442    5.1427   23.5239 C   0  0  0  0  0  0  0  0  0  0  0  0
    4.4120    5.7542   24.0418 H   0  0  0  0  0  0  0  0  0  0  0  0
    5.5547    3.9274   24.0771 C   0  0  0  0  0  0  0  0  0  0  0  0
    5.1711    3.5729   25.0333 H   0  0  0  0  0  0  0  0  0  0  0  0
    6.4934    3.1772   23.3658 C   0  0  0  0  0  0  0  0  0  0  0  0
    7.0371    1.8158   23.6334 C   0  0  0  0  0  0  0  0  0  0  0  0
    6.8007    1.0715   24.5580 O   0  0  0  0  0  0  0  0  0  0  0  0
    7.9481   -1.9363   20.8037 C   0  0  0  0  0  0  0  0  0  0  0  0
    9.0343   -1.9782   20.6385 H   0  0  0  0  0  0  0  0  0  0  0  0
    7.4125   -2.1984   19.8948 H   0  0  0  0  0  0  0  0  0  0  0  0
    7.3111   -2.6914   21.9797 C   0  0  0  0  0  0  0  0  0  0  0  0
    7.9916   -2.8174   22.8275 H   0  0  0  0  0  0  0  0  0  0  0  0
    6.8541   -3.6605   21.7517 H   0  0  0  0  0  0  0  0  0  0  0  0
    6.3624   -1.4843   22.1533 C   0  0  0  0  0  0  0  0  0  0  0  0
    6.1978   -1.1346   23.1769 H   0  0  0  0  0  0  0  0  0  0  0  0
    5.4083   -1.6480   21.6434 H   0  0  0  0  0  0  0  0  0  0  0  0
    5.4247    0.8230   20.2822 C   0  0  0  0  0  0  0  0  0  0  0  0
    4.9308    0.8571   21.2558 H   0  0  0  0  0  0  0  0  0  0  0  0
    4.8127    1.3800   19.1571 C   0  0  0  0  0  0  0  0  0  0  0  0
    3.8347    1.8414   19.2182 H   0  0  0  0  0  0  0  0  0  0  0  0
  1  2  1  0
  2  3  2  0
  3  4  1  0
  4  5  1  0
  4  6  2  0
  6  7  1  0
  7  8  1  0
  8  9  1  0
  8 10  1  0
  8 11  1  0
 11 12  1  0
 12 13  2  0
 12 14  1  0
 14 15  2  0
 15 16  1  0
 15 17  1  0
 17 18  1  0
 17 19  2  0
 19 20  1  0
 19 21  1  0
 21 22  1  0
 21 23  2  0
 23 24  1  0
 24 25  2  0
  7 26  1  0
 26 27  1  0
 26 28  1  0
 26 29  1  0
 29 30  1  0
 29 31  1  0
 29 32  1  0
 32 33  1  0
 32 34  1  0
  6 35  1  0
 35 36  1  0
 35 37  2  0
 37 38  1  0
 37  2  1  0
 32  7  1  0
 24 11  1  0
 23 14  1  0
M  END
>  <cnnaffinity>  (1) 
-4.99339

>  <filename>  (1) 
O=C1c2ccccc2C(=O)N1CC1(c2cccnc2)CCC1

$$$$
