
     RDKit          3D

 42 45  0  0  0  0  0  0  0  0999 V2000
    7.0723    6.7387   25.5297 O   0  0  0  0  0  0  0  0  0  0  0  0
    7.3188    5.5777   25.2604 C   0  0  0  0  0  0  0  0  0  0  0  0
    6.7618    4.3853   25.9130 C   0  0  0  0  0  0  0  0  0  0  0  0
    7.1084    3.1413   25.4843 C   0  0  0  0  0  0  0  0  0  0  0  0
    8.0308    2.9905   24.3607 C   0  0  0  0  0  0  0  0  0  0  0  0
    8.3253    1.6447   23.7561 C   0  0  0  0  0  0  0  0  0  0  0  0
    7.1916    1.1935   22.7901 C   0  0  0  0  0  0  0  0  0  0  0  0
    7.3984   -0.1774   22.2344 C   0  0  0  0  0  0  0  0  0  0  0  0
    7.9120   -1.1459   22.9598 N   0  0  0  0  0  0  0  0  0  0  0  0
    8.1605   -2.1172   22.0536 C   0  0  0  0  0  0  0  0  0  0  0  0
    8.9672   -3.3158   22.4030 C   0  0  0  0  0  0  0  0  0  0  0  0
   10.3161   -2.9982   23.1489 C   0  0  0  0  0  0  0  0  0  0  0  0
    9.9300   -4.0009   24.2617 C   0  0  0  0  0  0  0  0  0  0  0  0
    8.5420   -4.2095   23.6096 C   0  0  0  0  0  0  0  0  0  0  0  0
    8.2915   -5.2471   23.3593 H   0  0  0  0  0  0  0  0  0  0  0  0
    7.7063   -3.7968   24.1849 H   0  0  0  0  0  0  0  0  0  0  0  0
   10.5576   -4.8993   24.3112 H   0  0  0  0  0  0  0  0  0  0  0  0
    9.8951   -3.5822   25.2743 H   0  0  0  0  0  0  0  0  0  0  0  0
   10.3597   -1.9595   23.5127 H   0  0  0  0  0  0  0  0  0  0  0  0
   11.2382   -3.1854   22.5880 H   0  0  0  0  0  0  0  0  0  0  0  0
    9.0101   -3.8632   21.4577 H   0  0  0  0  0  0  0  0  0  0  0  0
    7.7809   -1.8431   20.8216 N   0  0  0  0  0  0  0  0  0  0  0  0
    7.2394   -0.5998   20.9413 N   0  0  0  0  0  0  0  0  0  0  0  0
    6.5771    0.0288   19.8585 C   0  0  0  0  0  0  0  0  0  0  0  0
    5.3670    0.7018   20.0661 C   0  0  0  0  0  0  0  0  0  0  0  0
    4.7859    1.3548   18.9786 C   0  0  0  0  0  0  0  0  0  0  0  0
    5.4254    1.3157   17.7358 C   0  0  0  0  0  0  0  0  0  0  0  0
    6.5628    0.6300   17.5209 N   0  0  0  0  0  0  0  0  0  0  0  0
    7.1133   -0.0132   18.5560 C   0  0  0  0  0  0  0  0  0  0  0  0
    8.0156   -0.5829   18.3507 H   0  0  0  0  0  0  0  0  0  0  0  0
    5.0085    1.8446   16.8817 H   0  0  0  0  0  0  0  0  0  0  0  0
    3.8540    1.8943   19.0869 H   0  0  0  0  0  0  0  0  0  0  0  0
    4.8856    0.6950   21.0451 H   0  0  0  0  0  0  0  0  0  0  0  0
    6.2375    1.1790   23.3333 H   0  0  0  0  0  0  0  0  0  0  0  0
    7.0874    1.9257   21.9829 H   0  0  0  0  0  0  0  0  0  0  0  0
    8.4488    0.8974   24.5494 H   0  0  0  0  0  0  0  0  0  0  0  0
    9.2806    1.7109   23.2195 H   0  0  0  0  0  0  0  0  0  0  0  0
    8.5647    4.0250   23.7767 N   0  0  0  0  0  0  0  0  0  0  0  0
    8.2163    5.2540   24.2449 N   0  0  0  0  0  0  0  0  0  0  0  0
    8.5582    6.0516   23.7311 H   0  0  0  0  0  0  0  0  0  0  0  0
    6.6965    2.2487   25.9507 H   0  0  0  0  0  0  0  0  0  0  0  0
    6.0628    4.5909   26.7151 H   0  0  0  0  0  0  0  0  0  0  0  0
  1  2  2  0
  2  3  1  0
  3  4  2  0
  4  5  1  0
  5  6  1  0
  6  7  1  0
  7  8  1  0
  8  9  2  0
  9 10  1  0
 10 11  1  0
 11 12  1  0
 12 13  1  0
 13 14  1  0
 14 15  1  0
 14 16  1  0
 13 17  1  0
 13 18  1  0
 12 19  1  0
 12 20  1  0
 11 21  1  0
 10 22  2  0
 22 23  1  0
 23 24  1  0
 24 25  2  0
 25 26  1  0
 26 27  2  0
 27 28  1  0
 28 29  2  0
 29 30  1  0
 27 31  1  0
 26 32  1  0
 25 33  1  0
  7 34  1  0
  7 35  1  0
  6 36  1  0
  6 37  1  0
  5 38  2  0
 38 39  1  0
 39 40  1  0
  4 41  1  0
  3 42  1  0
 39  2  1  0
 23  8  1  0
 29 24  1  0
 14 11  1  0
M  END
>  <cnnaffinity>  (1) 
-5.99814

>  <filename>  (1) 
O=c1ccc(CCc2nc(C3CCC3)nn2-c2cccnc2)n[nH]1

$$$$
