
     RDKit          3D

 37 39  0  0  0  0  0  0  0  0999 V2000
    6.9957    0.9648   22.5640 H   0  0  0  0  0  0  0  0  0  0  0  0
    7.4416    0.0169   22.3170 C   0  0  0  0  0  0  0  0  0  0  0  0
    7.3420   -0.4936   21.0837 C   0  0  0  0  0  0  0  0  0  0  0  0
    6.6077    0.1318   19.9629 C   0  0  0  0  0  0  0  0  0  0  0  0
    7.1488    0.1098   18.6645 C   0  0  0  0  0  0  0  0  0  0  0  0
    8.0995   -0.3876   18.4835 H   0  0  0  0  0  0  0  0  0  0  0  0
    6.5805    0.6775   17.5956 N   0  0  0  0  0  0  0  0  0  0  0  0
    5.4028    1.2955   17.7854 C   0  0  0  0  0  0  0  0  0  0  0  0
    4.9545    1.7487   16.9034 H   0  0  0  0  0  0  0  0  0  0  0  0
    4.7546    1.3668   19.0264 C   0  0  0  0  0  0  0  0  0  0  0  0
    3.8003    1.8865   19.1051 H   0  0  0  0  0  0  0  0  0  0  0  0
    5.3736    0.7919   20.1394 C   0  0  0  0  0  0  0  0  0  0  0  0
    4.8987    0.8346   21.1236 H   0  0  0  0  0  0  0  0  0  0  0  0
    7.9748   -1.7019   20.7994 N   0  0  0  0  0  0  0  0  0  0  0  0
    7.6635   -2.3052   20.0585 H   0  0  0  0  0  0  0  0  0  0  0  0
    8.5489   -2.4956   21.7662 C   0  0  0  0  0  0  0  0  0  0  0  0
    8.7405   -3.6729   21.5049 O   0  0  0  0  0  0  0  0  0  0  0  0
    8.8960   -1.8442   22.9148 N   0  0  0  0  0  0  0  0  0  0  0  0
    9.9947   -2.3881   23.6802 C   0  0  0  0  0  0  0  0  0  0  0  0
   10.9195   -2.3469   23.0903 H   0  0  0  0  0  0  0  0  0  0  0  0
   10.1848   -1.7702   24.5701 H   0  0  0  0  0  0  0  0  0  0  0  0
    9.7730   -3.7565   24.0293 N   0  0  0  0  0  0  0  0  0  0  0  0
    9.5998   -4.2368   23.1483 H   0  0  0  0  0  0  0  0  0  0  0  0
    8.7844   -4.1106   24.9527 C   0  0  0  0  0  0  0  0  0  0  0  0
    8.1409   -3.1976   25.8084 C   0  0  0  0  0  0  0  0  0  0  0  0
    8.4169   -2.1494   25.7863 H   0  0  0  0  0  0  0  0  0  0  0  0
    7.1220   -3.6326   26.6648 C   0  0  0  0  0  0  0  0  0  0  0  0
    6.5957   -2.9118   27.2862 H   0  0  0  0  0  0  0  0  0  0  0  0
    6.7712   -4.9834   26.7223 C   0  0  0  0  0  0  0  0  0  0  0  0
    5.9900   -5.3269   27.3945 H   0  0  0  0  0  0  0  0  0  0  0  0
    7.4482   -5.9014   25.9145 C   0  0  0  0  0  0  0  0  0  0  0  0
    7.1933   -6.9537   25.9823 H   0  0  0  0  0  0  0  0  0  0  0  0
    8.4362   -5.4696   25.0302 C   0  0  0  0  0  0  0  0  0  0  0  0
    8.9573   -6.1679   24.3815 H   0  0  0  0  0  0  0  0  0  0  0  0
    8.0330   -0.7795   23.4398 C   0  0  0  0  0  0  0  0  0  0  0  0
    7.2041   -1.1929   24.0520 H   0  0  0  0  0  0  0  0  0  0  0  0
    8.6101   -0.1159   24.1041 H   0  0  0  0  0  0  0  0  0  0  0  0
  1  2  1  0
  2  3  2  0
  3  4  1  0
  4  5  2  0
  5  6  1  0
  5  7  1  0
  7  8  2  0
  8  9  1  0
  8 10  1  0
 10 11  1  0
 10 12  2  0
 12 13  1  0
  3 14  1  0
 14 15  1  0
 14 16  1  0
 16 17  2  0
 16 18  1  0
 18 19  1  0
 19 20  1  0
 19 21  1  0
 19 22  1  0
 22 23  1  0
 22 24  1  0
 24 25  2  0
 25 26  1  0
 25 27  1  0
 27 28  1  0
 27 29  2  0
 29 30  1  0
 29 31  1  0
 31 32  1  0
 31 33  2  0
 33 34  1  0
 18 35  1  0
 35 36  1  0
 35 37  1  0
 35  2  1  0
 12  4  1  0
 33 24  1  0
M  END
>  <cnnaffinity>  (1) 
-5.26644

>  <filename>  (1) 
O=C1NC(c2cccnc2)=CCN1CNc1ccccc1

$$$$
