
     RDKit          3D

 32 34  0  0  0  0  0  0  0  0999 V2000
    9.8610    0.6003   25.8094 H   0  0  0  0  0  0  0  0  0  0  0  0
    9.5221    1.3364   26.3407 O   0  0  0  0  0  0  0  0  0  0  0  0
    8.1839    1.1785   26.3805 C   0  0  0  0  0  0  0  0  0  0  0  0
    7.4495    2.0030   27.2282 C   0  0  0  0  0  0  0  0  0  0  0  0
    7.9826    2.7163   27.8458 H   0  0  0  0  0  0  0  0  0  0  0  0
    6.0599    1.8776   27.2626 C   0  0  0  0  0  0  0  0  0  0  0  0
    5.1528    2.8945   28.3472 Cl  0  0  0  0  0  0  0  0  0  0  0  0
    5.3952    0.9506   26.4539 C   0  0  0  0  0  0  0  0  0  0  0  0
    4.3134    0.8877   26.4998 H   0  0  0  0  0  0  0  0  0  0  0  0
    6.1392    0.1179   25.5919 C   0  0  0  0  0  0  0  0  0  0  0  0
    5.6439   -0.5842   24.9227 H   0  0  0  0  0  0  0  0  0  0  0  0
    7.5262    0.2240   25.5759 C   0  0  0  0  0  0  0  0  0  0  0  0
    8.3893   -0.5983   24.8435 O   0  0  0  0  0  0  0  0  0  0  0  0
    8.1658   -0.9248   23.5436 C   0  0  0  0  0  0  0  0  0  0  0  0
    7.7068    0.4351   22.5194 S   0  0  0  0  0  0  0  0  0  0  0  0
    7.3053   -0.4260   21.0532 C   0  0  0  0  0  0  0  0  0  0  0  0
    6.6485    0.3582   19.9808 C   0  0  0  0  0  0  0  0  0  0  0  0
    7.1950    0.3513   18.6831 C   0  0  0  0  0  0  0  0  0  0  0  0
    8.1878   -0.0669   18.5134 H   0  0  0  0  0  0  0  0  0  0  0  0
    6.5726    0.8328   17.6022 N   0  0  0  0  0  0  0  0  0  0  0  0
    5.3627    1.3822   17.7909 C   0  0  0  0  0  0  0  0  0  0  0  0
    4.8835    1.7778   16.8985 H   0  0  0  0  0  0  0  0  0  0  0  0
    4.7380    1.4732   19.0416 C   0  0  0  0  0  0  0  0  0  0  0  0
    3.7622    1.9380   19.1224 H   0  0  0  0  0  0  0  0  0  0  0  0
    5.4032    0.9762   20.1661 C   0  0  0  0  0  0  0  0  0  0  0  0
    4.9749    1.0360   21.1691 H   0  0  0  0  0  0  0  0  0  0  0  0
    7.5342   -1.7384   20.8606 C   0  0  0  0  0  0  0  0  0  0  0  0
    7.1989   -2.2037   19.9471 H   0  0  0  0  0  0  0  0  0  0  0  0
    8.1844   -2.6608   21.8035 C   0  0  0  0  0  0  0  0  0  0  0  0
    8.4536   -3.8016   21.4641 O   0  0  0  0  0  0  0  0  0  0  0  0
    8.4696   -2.1715   23.1406 C   0  0  0  0  0  0  0  0  0  0  0  0
    8.9037   -2.9077   23.8119 H   0  0  0  0  0  0  0  0  0  0  0  0
  1  2  1  0
  2  3  1  0
  3  4  2  0
  4  5  1  0
  4  6  1  0
  6  7  1  0
  6  8  2  0
  8  9  1  0
  8 10  1  0
 10 11  1  0
 10 12  2  0
 12 13  1  0
 13 14  1  0
 14 15  1  0
 15 16  1  0
 16 17  1  0
 17 18  2  0
 18 19  1  0
 18 20  1  0
 20 21  2  0
 21 22  1  0
 21 23  1  0
 23 24  1  0
 23 25  2  0
 25 26  1  0
 16 27  2  0
 27 28  1  0
 27 29  1  0
 29 30  2  0
 29 31  1  0
 31 32  1  0
 12  3  1  0
 31 14  2  0
 25 17  1  0
M  END
>  <cnnaffinity>  (1) 
-5.48042

>  <filename>  (1) 
O=c1cc(Oc2ccc(Cl)cc2O)sc(-c2cccnc2)c1

$$$$
