
     RDKit          3D

 34 37  0  0  0  0  0  0  0  0999 V2000
    4.9088    1.7781   16.9999 H   0  0  0  0  0  0  0  0  0  0  0  0
    5.3974    1.2939   17.8421 C   0  0  0  0  0  0  0  0  0  0  0  0
    6.5615    0.6766   17.5780 N   0  0  0  0  0  0  0  0  0  0  0  0
    7.1789    0.0581   18.5909 C   0  0  0  0  0  0  0  0  0  0  0  0
    8.1281   -0.4283   18.3795 H   0  0  0  0  0  0  0  0  0  0  0  0
    6.6671    0.0018   19.9062 C   0  0  0  0  0  0  0  0  0  0  0  0
    7.3606   -0.6819   20.9448 N   0  0  0  0  0  0  0  0  0  0  0  0
    6.7702   -1.4351   21.9489 C   0  0  0  0  0  0  0  0  0  0  0  0
    5.7050   -1.5705   22.0258 H   0  0  0  0  0  0  0  0  0  0  0  0
    7.7399   -1.9191   22.7580 C   0  0  0  0  0  0  0  0  0  0  0  0
    7.6335   -2.6883   23.9804 C   0  0  0  0  0  0  0  0  0  0  0  0
    8.2808   -2.2826   25.1311 C   0  0  0  0  0  0  0  0  0  0  0  0
    8.9302   -1.4084   25.1048 H   0  0  0  0  0  0  0  0  0  0  0  0
    8.1452   -2.8804   26.3427 N   0  0  0  0  0  0  0  0  0  0  0  0
    7.3443   -3.9268   26.4139 C   0  0  0  0  0  0  0  0  0  0  0  0
    7.2286   -4.4101   27.3835 H   0  0  0  0  0  0  0  0  0  0  0  0
    6.6276   -4.4716   25.3091 C   0  0  0  0  0  0  0  0  0  0  0  0
    5.7852   -5.6193   25.4311 C   0  0  0  0  0  0  0  0  0  0  0  0
    5.6667   -6.0903   26.4049 H   0  0  0  0  0  0  0  0  0  0  0  0
    5.1467   -6.1265   24.3263 C   0  0  0  0  0  0  0  0  0  0  0  0
    4.5092   -7.0009   24.4141 H   0  0  0  0  0  0  0  0  0  0  0  0
    5.3220   -5.5231   23.0522 C   0  0  0  0  0  0  0  0  0  0  0  0
    4.8253   -5.9441   22.1846 H   0  0  0  0  0  0  0  0  0  0  0  0
    6.1263   -4.4162   22.9075 C   0  0  0  0  0  0  0  0  0  0  0  0
    6.2860   -3.9713   21.9299 H   0  0  0  0  0  0  0  0  0  0  0  0
    6.7857   -3.8444   24.0403 C   0  0  0  0  0  0  0  0  0  0  0  0
    8.9382   -1.4355   22.2619 N   0  0  0  0  0  0  0  0  0  0  0  0
    9.8632   -1.5967   22.6069 H   0  0  0  0  0  0  0  0  0  0  0  0
    8.7547   -0.6683   21.1401 C   0  0  0  0  0  0  0  0  0  0  0  0
    9.6040   -0.1041   20.4819 O   0  0  0  0  0  0  0  0  0  0  0  0
    5.4481    0.6430   20.1633 C   0  0  0  0  0  0  0  0  0  0  0  0
    5.0194    0.6300   21.1666 H   0  0  0  0  0  0  0  0  0  0  0  0
    4.8090    1.3101   19.1118 C   0  0  0  0  0  0  0  0  0  0  0  0
    3.8748    1.8430   19.2663 H   0  0  0  0  0  0  0  0  0  0  0  0
  1  2  1  0
  2  3  2  0
  3  4  1  0
  4  5  1  0
  4  6  2  0
  6  7  1  0
  7  8  1  0
  8  9  1  0
  8 10  2  0
 10 11  1  0
 11 12  2  0
 12 13  1  0
 12 14  1  0
 14 15  2  0
 15 16  1  0
 15 17  1  0
 17 18  2  0
 18 19  1  0
 18 20  1  0
 20 21  1  0
 20 22  2  0
 22 23  1  0
 22 24  1  0
 24 25  1  0
 24 26  2  0
 10 27  1  0
 27 28  1  0
 27 29  1  0
 29 30  2  0
  6 31  1  0
 31 32  1  0
 31 33  2  0
 33 34  1  0
 33  2  1  0
 29  7  1  0
 26 11  1  0
 26 17  1  0
M  END
>  <cnnaffinity>  (1) 
-5.58444

>  <filename>  (1) 
O=c1[nH]c(-c2cncc3ccccc23)cn1-c1cccnc1

$$$$
