
     RDKit          3D

 34 37  0  0  0  0  0  0  0  0999 V2000
    4.9131    1.7958   16.9838 H   0  0  0  0  0  0  0  0  0  0  0  0
    5.3880    1.3010   17.8266 C   0  0  0  0  0  0  0  0  0  0  0  0
    6.5460    0.6806   17.5559 N   0  0  0  0  0  0  0  0  0  0  0  0
    7.1541    0.0657   18.5745 C   0  0  0  0  0  0  0  0  0  0  0  0
    8.1104   -0.4106   18.3673 H   0  0  0  0  0  0  0  0  0  0  0  0
    6.6422    0.0036   19.8855 C   0  0  0  0  0  0  0  0  0  0  0  0
    7.3498   -0.7144   20.9571 C   0  0  0  0  0  0  0  0  0  0  0  0
    6.6878   -1.6429   21.7273 C   0  0  0  0  0  0  0  0  0  0  0  0
    5.6371   -1.8403   21.5165 H   0  0  0  0  0  0  0  0  0  0  0  0
    7.3376   -2.3699   22.7719 C   0  0  0  0  0  0  0  0  0  0  0  0
    6.6389   -3.3789   23.5880 C   0  0  0  0  0  0  0  0  0  0  0  0
    4.8881   -3.5062   23.5427 S   0  0  0  0  0  0  0  0  0  0  0  0
    4.8943   -4.8184   24.6828 C   0  0  0  0  0  0  0  0  0  0  0  0
    3.7985   -5.5230   25.2075 C   0  0  0  0  0  0  0  0  0  0  0  0
    2.7814   -5.2684   24.9187 H   0  0  0  0  0  0  0  0  0  0  0  0
    4.0485   -6.5553   26.1079 C   0  0  0  0  0  0  0  0  0  0  0  0
    3.2175   -7.1151   26.5284 H   0  0  0  0  0  0  0  0  0  0  0  0
    5.3687   -6.8894   26.4921 C   0  0  0  0  0  0  0  0  0  0  0  0
    5.5418   -7.6994   27.1993 H   0  0  0  0  0  0  0  0  0  0  0  0
    6.4458   -6.1896   25.9770 C   0  0  0  0  0  0  0  0  0  0  0  0
    7.4693   -6.4323   26.2583 H   0  0  0  0  0  0  0  0  0  0  0  0
    6.2164   -5.1431   25.0617 C   0  0  0  0  0  0  0  0  0  0  0  0
    7.1797   -4.3029   24.4141 C   0  0  0  0  0  0  0  0  0  0  0  0
    8.2455   -4.4316   24.5740 H   0  0  0  0  0  0  0  0  0  0  0  0
    8.6618   -2.0987   23.0119 C   0  0  0  0  0  0  0  0  0  0  0  0
    9.2365   -2.5853   23.7983 H   0  0  0  0  0  0  0  0  0  0  0  0
    9.3109   -1.1732   22.2628 N   0  0  0  0  0  0  0  0  0  0  0  0
   10.2751   -0.9018   22.3635 H   0  0  0  0  0  0  0  0  0  0  0  0
    8.7705   -0.4160   21.2226 C   0  0  0  0  0  0  0  0  0  0  0  0
    9.5291    0.3758   20.6831 O   0  0  0  0  0  0  0  0  0  0  0  0
    5.4216    0.6449   20.1422 C   0  0  0  0  0  0  0  0  0  0  0  0
    5.0107    0.6307   21.1554 H   0  0  0  0  0  0  0  0  0  0  0  0
    4.7957    1.3196   19.0957 C   0  0  0  0  0  0  0  0  0  0  0  0
    3.8668    1.8525   19.2473 H   0  0  0  0  0  0  0  0  0  0  0  0
  1  2  1  0
  2  3  2  0
  3  4  1  0
  4  5  1  0
  4  6  2  0
  6  7  1  0
  7  8  2  0
  8  9  1  0
  8 10  1  0
 10 11  1  0
 11 12  1  0
 12 13  1  0
 13 14  2  0
 14 15  1  0
 14 16  1  0
 16 17  1  0
 16 18  2  0
 18 19  1  0
 18 20  1  0
 20 21  1  0
 20 22  2  0
 22 23  1  0
 23 24  1  0
 10 25  2  0
 25 26  1  0
 25 27  1  0
 27 28  1  0
 27 29  1  0
 29 30  2  0
  6 31  1  0
 31 32  1  0
 31 33  2  0
 33 34  1  0
 33  2  1  0
 29  7  1  0
 23 11  2  0
 22 13  1  0
M  END
>  <cnnaffinity>  (1) 
-5.58988

>  <filename>  (1) 
O=c1[nH]cc(-c2cc3ccccc3s2)cc1-c1cccnc1

$$$$
