
     RDKit          3D

 30 32  0  0  0  0  0  0  0  0999 V2000
   10.2760    1.5267   23.3223 H   0  0  0  0  0  0  0  0  0  0  0  0
    9.3802    1.3078   23.0420 O   0  0  0  0  0  0  0  0  0  0  0  0
    8.5134    1.8313   23.9437 C   0  0  0  0  0  0  0  0  0  0  0  0
    8.9441    2.8285   24.8299 C   0  0  0  0  0  0  0  0  0  0  0  0
    9.9636    3.1911   24.7513 H   0  0  0  0  0  0  0  0  0  0  0  0
    8.0515    3.3576   25.7623 C   0  0  0  0  0  0  0  0  0  0  0  0
    8.5611    4.6091   26.8535 Cl  0  0  0  0  0  0  0  0  0  0  0  0
    6.7397    2.8925   25.8396 C   0  0  0  0  0  0  0  0  0  0  0  0
    6.0697    3.3291   26.5694 H   0  0  0  0  0  0  0  0  0  0  0  0
    6.3188    1.8985   24.9496 C   0  0  0  0  0  0  0  0  0  0  0  0
    5.3150    1.4902   24.9928 H   0  0  0  0  0  0  0  0  0  0  0  0
    7.1714    1.4003   23.9730 C   0  0  0  0  0  0  0  0  0  0  0  0
    6.5585    0.5350   23.0465 O   0  0  0  0  0  0  0  0  0  0  0  0
    7.3577   -0.3801   22.4266 N   0  0  0  0  0  0  0  0  0  0  0  0
    7.5401   -0.5525   21.0428 C   0  0  0  0  0  0  0  0  0  0  0  0
    6.7692    0.1162   19.9840 C   0  0  0  0  0  0  0  0  0  0  0  0
    7.2528    0.0970   18.6601 C   0  0  0  0  0  0  0  0  0  0  0  0
    8.2015   -0.3845   18.4287 H   0  0  0  0  0  0  0  0  0  0  0  0
    6.6286    0.6553   17.6179 N   0  0  0  0  0  0  0  0  0  0  0  0
    5.4626    1.2757   17.8536 C   0  0  0  0  0  0  0  0  0  0  0  0
    4.9843    1.7431   16.9925 H   0  0  0  0  0  0  0  0  0  0  0  0
    4.8784    1.3364   19.1229 C   0  0  0  0  0  0  0  0  0  0  0  0
    3.9366    1.8563   19.2500 H   0  0  0  0  0  0  0  0  0  0  0  0
    5.5351    0.7541   20.2075 C   0  0  0  0  0  0  0  0  0  0  0  0
    5.1138    0.7933   21.2075 H   0  0  0  0  0  0  0  0  0  0  0  0
    8.4546   -1.5343   20.9668 C   0  0  0  0  0  0  0  0  0  0  0  0
    8.9556   -1.9860   20.1227 H   0  0  0  0  0  0  0  0  0  0  0  0
    8.7729   -2.0081   22.2133 O   0  0  0  0  0  0  0  0  0  0  0  0
    8.0711   -1.3041   23.1600 C   0  0  0  0  0  0  0  0  0  0  0  0
    8.0922   -1.4928   24.3448 O   0  0  0  0  0  0  0  0  0  0  0  0
  1  2  1  0
  2  3  1  0
  3  4  2  0
  4  5  1  0
  4  6  1  0
  6  7  1  0
  6  8  2  0
  8  9  1  0
  8 10  1  0
 10 11  1  0
 10 12  2  0
 12 13  1  0
 13 14  1  0
 14 15  1  0
 15 16  1  0
 16 17  2  0
 17 18  1  0
 17 19  1  0
 19 20  2  0
 20 21  1  0
 20 22  1  0
 22 23  1  0
 22 24  2  0
 24 25  1  0
 15 26  2  0
 26 27  1  0
 26 28  1  0
 28 29  1  0
 29 30  2  0
 12  3  1  0
 29 14  1  0
 24 16  1  0
M  END
>  <cnnaffinity>  (1) 
-5.06804

>  <filename>  (1) 
O=c1occ(-c2cccnc2)n1Oc1ccc(Cl)cc1O

$$$$
