
     RDKit          3D

 38 41  0  0  0  0  0  0  0  0999 V2000
    4.9545    1.7891   16.8819 H   0  0  0  0  0  0  0  0  0  0  0  0
    5.4162    1.3345   17.7551 C   0  0  0  0  0  0  0  0  0  0  0  0
    6.5759    0.6915   17.5412 N   0  0  0  0  0  0  0  0  0  0  0  0
    7.1520    0.0927   18.5901 C   0  0  0  0  0  0  0  0  0  0  0  0
    8.0886   -0.4310   18.4041 H   0  0  0  0  0  0  0  0  0  0  0  0
    6.6156    0.1180   19.8930 C   0  0  0  0  0  0  0  0  0  0  0  0
    7.2350   -0.6109   20.9771 N   0  0  0  0  0  0  0  0  0  0  0  0
    7.3330   -1.9954   20.8941 C   0  0  0  0  0  0  0  0  0  0  0  0
    6.8744   -2.4385   20.0093 H   0  0  0  0  0  0  0  0  0  0  0  0
    7.9594   -2.7217   21.8401 C   0  0  0  0  0  0  0  0  0  0  0  0
    8.0889   -4.2125   21.7871 C   0  0  0  0  0  0  0  0  0  0  0  0
    8.9460   -4.5310   22.3876 H   0  0  0  0  0  0  0  0  0  0  0  0
    8.2257   -4.5739   20.7586 H   0  0  0  0  0  0  0  0  0  0  0  0
    6.9292   -4.8759   22.3538 N   0  0  0  0  0  0  0  0  0  0  0  0
    5.7118   -5.0355   21.7063 C   0  0  0  0  0  0  0  0  0  0  0  0
    5.5172   -4.7970   20.5353 O   0  0  0  0  0  0  0  0  0  0  0  0
    4.7599   -5.5713   22.7282 C   0  0  0  0  0  0  0  0  0  0  0  0
    3.4101   -5.9107   22.6383 C   0  0  0  0  0  0  0  0  0  0  0  0
    2.8519   -5.8388   21.7079 H   0  0  0  0  0  0  0  0  0  0  0  0
    2.7703   -6.3694   23.7928 C   0  0  0  0  0  0  0  0  0  0  0  0
    1.7122   -6.6194   23.7568 H   0  0  0  0  0  0  0  0  0  0  0  0
    3.4797   -6.5119   25.0038 C   0  0  0  0  0  0  0  0  0  0  0  0
    2.9640   -6.8724   25.8888 H   0  0  0  0  0  0  0  0  0  0  0  0
    4.8380   -6.1896   25.0829 C   0  0  0  0  0  0  0  0  0  0  0  0
    5.4011   -6.3025   26.0067 H   0  0  0  0  0  0  0  0  0  0  0  0
    5.4607   -5.7235   23.9237 C   0  0  0  0  0  0  0  0  0  0  0  0
    6.8706   -5.3221   23.6714 C   0  0  0  0  0  0  0  0  0  0  0  0
    7.8265   -5.3900   24.4032 O   0  0  0  0  0  0  0  0  0  0  0  0
    8.5719   -2.0330   22.9847 C   0  0  0  0  0  0  0  0  0  0  0  0
    9.2791   -2.5174   23.8386 O   0  0  0  0  0  0  0  0  0  0  0  0
    8.3151   -0.6918   23.0398 N   0  0  0  0  0  0  0  0  0  0  0  0
    8.6632   -0.1886   23.8312 H   0  0  0  0  0  0  0  0  0  0  0  0
    7.6558    0.0732   22.1378 C   0  0  0  0  0  0  0  0  0  0  0  0
    7.4880    1.2488   22.3529 O   0  0  0  0  0  0  0  0  0  0  0  0
    5.4383    0.8379   20.1142 C   0  0  0  0  0  0  0  0  0  0  0  0
    5.0466    0.9333   21.1270 H   0  0  0  0  0  0  0  0  0  0  0  0
    4.8097    1.4299   19.0135 C   0  0  0  0  0  0  0  0  0  0  0  0
    3.8757    1.9712   19.1270 H   0  0  0  0  0  0  0  0  0  0  0  0
  1  2  1  0
  2  3  2  0
  3  4  1  0
  4  5  1  0
  4  6  2  0
  6  7  1  0
  7  8  1  0
  8  9  1  0
  8 10  2  0
 10 11  1  0
 11 12  1  0
 11 13  1  0
 11 14  1  0
 14 15  1  0
 15 16  2  0
 15 17  1  0
 17 18  2  0
 18 19  1  0
 18 20  1  0
 20 21  1  0
 20 22  2  0
 22 23  1  0
 22 24  1  0
 24 25  1  0
 24 26  2  0
 26 27  1  0
 27 28  2  0
 10 29  1  0
 29 30  2  0
 29 31  1  0
 31 32  1  0
 31 33  1  0
 33 34  2  0
  6 35  1  0
 35 36  1  0
 35 37  2  0
 37 38  1  0
 37  2  1  0
 33  7  1  0
 27 14  1  0
 26 17  1  0
M  END
>  <cnnaffinity>  (1) 
-5.04064

>  <filename>  (1) 
O=C1c2ccccc2C(=O)N1Cc1cn(-c2cccnc2)c(=O)[nH]c1=O

$$$$
