
     RDKit          3D

 34 36  0  0  0  0  0  0  0  0999 V2000
    4.9512    1.8296   17.0406 H   0  0  0  0  0  0  0  0  0  0  0  0
    5.4572    1.3030   17.8482 C   0  0  0  0  0  0  0  0  0  0  0  0
    6.6224    0.7117   17.5388 N   0  0  0  0  0  0  0  0  0  0  0  0
    7.2539    0.0467   18.5150 C   0  0  0  0  0  0  0  0  0  0  0  0
    8.1982   -0.4235   18.2530 H   0  0  0  0  0  0  0  0  0  0  0  0
    6.7585   -0.0908   19.8327 C   0  0  0  0  0  0  0  0  0  0  0  0
    7.4775   -0.7986   20.8371 N   0  0  0  0  0  0  0  0  0  0  0  0
    6.8737   -1.6661   21.7314 C   0  0  0  0  0  0  0  0  0  0  0  0
    5.8137   -2.2275   21.6420 O   0  0  0  0  0  0  0  0  0  0  0  0
    7.7575   -1.8946   22.7675 N   0  0  0  0  0  0  0  0  0  0  0  0
    7.5760   -2.6881   23.3528 H   0  0  0  0  0  0  0  0  0  0  0  0
    9.0347   -1.5875   22.3877 C   0  0  0  0  0  0  0  0  0  0  0  0
   10.0189   -2.0579   22.8910 O   0  0  0  0  0  0  0  0  0  0  0  0
    8.9001   -0.6479   21.1404 C   0  0  2  0  0  0  0  0  0  0  0  0
    9.5459   -1.0966   20.3748 H   0  0  0  0  0  0  0  0  0  0  0  0
    9.3088    0.7397   21.2809 N   0  0  0  0  0  0  0  0  0  0  0  0
    9.1757    1.2059   20.3896 H   0  0  0  0  0  0  0  0  0  0  0  0
    8.6695    1.5139   22.3526 C   0  0  0  0  0  0  0  0  0  0  0  0
    7.6347    1.7786   22.0804 H   0  0  0  0  0  0  0  0  0  0  0  0
    8.6265    0.8737   23.2434 H   0  0  0  0  0  0  0  0  0  0  0  0
    9.4242    2.7847   22.7353 C   0  0  0  0  0  0  0  0  0  0  0  0
    8.9411    4.0679   22.4221 C   0  0  0  0  0  0  0  0  0  0  0  0
    8.0087    4.2096   21.8853 H   0  0  0  0  0  0  0  0  0  0  0  0
    9.6762    5.1987   22.7958 C   0  0  0  0  0  0  0  0  0  0  0  0
    9.3054    6.1943   22.5532 H   0  0  0  0  0  0  0  0  0  0  0  0
   10.8228    5.1439   23.4864 N   0  0  0  0  0  0  0  0  0  0  0  0
   11.2669    3.9253   23.8198 C   0  0  0  0  0  0  0  0  0  0  0  0
   12.1728    3.8973   24.4219 H   0  0  0  0  0  0  0  0  0  0  0  0
   10.6104    2.7344   23.4893 C   0  0  0  0  0  0  0  0  0  0  0  0
   11.0112    1.7975   23.8675 H   0  0  0  0  0  0  0  0  0  0  0  0
    5.5398    0.5339   20.1381 C   0  0  0  0  0  0  0  0  0  0  0  0
    5.1238    0.4587   21.1456 H   0  0  0  0  0  0  0  0  0  0  0  0
    4.8850    1.2483   19.1266 C   0  0  0  0  0  0  0  0  0  0  0  0
    3.9467    1.7624   19.3160 H   0  0  0  0  0  0  0  0  0  0  0  0
  1  2  1  0
  2  3  2  0
  3  4  1  0
  4  5  1  0
  4  6  2  0
  6  7  1  0
  7  8  1  0
  8  9  2  0
  8 10  1  0
 10 11  1  0
 10 12  1  0
 12 13  2  0
 12 14  1  0
 14 15  1  6
 14 16  1  0
 16 17  1  0
 16 18  1  0
 18 19  1  0
 18 20  1  0
 18 21  1  0
 21 22  2  0
 22 23  1  0
 22 24  1  0
 24 25  1  0
 24 26  2  0
 26 27  1  0
 27 28  1  0
 27 29  2  0
 29 30  1  0
  6 31  1  0
 31 32  1  0
 31 33  2  0
 33 34  1  0
 33  2  1  0
 14  7  1  0
 29 21  1  0
M  END
>  <cnnaffinity>  (1) 
-4.82009

>  <filename>  (1) 
O=C1NC(=O)N(c2cccnc2)[C@H]1NCc1ccncc1

$$$$
