
     RDKit          3D

 33 35  0  0  0  0  0  0  0  0999 V2000
    4.9217    1.8360   16.9445 H   0  0  0  0  0  0  0  0  0  0  0  0
    5.4002    1.3382   17.7863 C   0  0  0  0  0  0  0  0  0  0  0  0
    6.5691    0.7330   17.5210 N   0  0  0  0  0  0  0  0  0  0  0  0
    7.1776    0.1042   18.5356 C   0  0  0  0  0  0  0  0  0  0  0  0
    8.1311   -0.3692   18.2939 H   0  0  0  0  0  0  0  0  0  0  0  0
    6.6539    0.0029   19.8450 C   0  0  0  0  0  0  0  0  0  0  0  0
    7.3914   -0.7116   20.9253 C   0  0  0  0  0  0  0  0  0  0  0  0
    8.7127   -0.4068   21.1816 C   0  0  0  0  0  0  0  0  0  0  0  0
    9.2053    0.3327   20.5486 H   0  0  0  0  0  0  0  0  0  0  0  0
    9.4419   -1.0110   22.2456 C   0  0  0  0  0  0  0  0  0  0  0  0
   10.8904   -0.7092   22.4563 C   0  0  0  0  0  0  0  0  0  0  0  0
   11.7143   -1.7247   22.1684 N   0  0  0  0  0  0  0  0  0  0  0  0
   13.0307   -1.5189   22.2468 C   0  0  0  0  0  0  0  0  0  0  0  0
   13.6556   -2.3638   21.9688 H   0  0  0  0  0  0  0  0  0  0  0  0
   13.6004   -0.3230   22.6923 C   0  0  0  0  0  0  0  0  0  0  0  0
   14.6777   -0.2386   22.7750 H   0  0  0  0  0  0  0  0  0  0  0  0
   12.7568    0.7338   23.0210 C   0  0  0  0  0  0  0  0  0  0  0  0
   13.1597    1.6923   23.3541 H   0  0  0  0  0  0  0  0  0  0  0  0
   11.3760    0.5367   22.8996 C   0  0  0  0  0  0  0  0  0  0  0  0
   10.3896    1.6446   23.1435 C   0  0  0  0  0  0  0  0  0  0  0  0
   10.8859    2.6467   23.8897 F   0  0  0  0  0  0  0  0  0  0  0  0
   10.0076    2.1824   21.9604 F   0  0  0  0  0  0  0  0  0  0  0  0
    9.2739    1.2212   23.7623 F   0  0  0  0  0  0  0  0  0  0  0  0
    8.8347   -1.9574   23.0266 C   0  0  0  0  0  0  0  0  0  0  0  0
    9.3602   -2.5272   23.8004 H   0  0  0  0  0  0  0  0  0  0  0  0
    7.5235   -2.2486   22.7916 N   0  0  0  0  0  0  0  0  0  0  0  0
    6.9773   -2.9561   23.2626 H   0  0  0  0  0  0  0  0  0  0  0  0
    6.7386   -1.7666   21.7334 C   0  0  0  0  0  0  0  0  0  0  0  0
    5.6521   -2.3025   21.5859 O   0  0  0  0  0  0  0  0  0  0  0  0
    5.4269    0.6471   20.0887 C   0  0  0  0  0  0  0  0  0  0  0  0
    4.9974    0.6165   21.0883 H   0  0  0  0  0  0  0  0  0  0  0  0
    4.7955    1.3335   19.0448 C   0  0  0  0  0  0  0  0  0  0  0  0
    3.8547    1.8571   19.1872 H   0  0  0  0  0  0  0  0  0  0  0  0
  1  2  1  0
  2  3  2  0
  3  4  1  0
  4  5  1  0
  4  6  2  0
  6  7  1  0
  7  8  2  0
  8  9  1  0
  8 10  1  0
 10 11  1  0
 11 12  2  0
 12 13  1  0
 13 14  1  0
 13 15  2  0
 15 16  1  0
 15 17  1  0
 17 18  1  0
 17 19  2  0
 19 20  1  0
 20 21  1  0
 20 22  1  0
 20 23  1  0
 10 24  2  0
 24 25  1  0
 24 26  1  0
 26 27  1  0
 26 28  1  0
 28 29  2  0
  6 30  1  0
 30 31  1  0
 30 32  2  0
 32 33  1  0
 32  2  1  0
 28  7  1  0
 19 11  1  0
M  END
>  <cnnaffinity>  (1) 
-5.92731

>  <filename>  (1) 
O=c1[nH]cc(-c2ncccc2C(F)(F)F)cc1-c1cccnc1

$$$$
