
     RDKit          3D

 34 37  0  0  0  0  0  0  0  0999 V2000
    4.9211    1.8016   16.9706 H   0  0  0  0  0  0  0  0  0  0  0  0
    5.3911    1.3008   17.8157 C   0  0  0  0  0  0  0  0  0  0  0  0
    6.5558    0.6790   17.5595 N   0  0  0  0  0  0  0  0  0  0  0  0
    7.1586    0.0564   18.5807 C   0  0  0  0  0  0  0  0  0  0  0  0
    8.1188   -0.4008   18.3375 H   0  0  0  0  0  0  0  0  0  0  0  0
    6.6421    0.0040   19.8911 C   0  0  0  0  0  0  0  0  0  0  0  0
    7.3309   -0.6490   21.0027 C   0  0  0  0  0  0  0  0  0  0  0  0
    7.2503   -0.4181   22.3330 C   0  0  0  0  0  0  0  0  0  0  0  0
    6.6724    0.3104   22.8766 H   0  0  0  0  0  0  0  0  0  0  0  0
    8.1187   -1.2869   22.9765 N   0  0  0  0  0  0  0  0  0  0  0  0
    8.3511   -1.3359   24.3731 C   0  0  0  0  0  0  0  0  0  0  0  0
    8.8314   -0.2063   24.9920 C   0  0  0  0  0  0  0  0  0  0  0  0
    8.9899    0.6887   24.3978 H   0  0  0  0  0  0  0  0  0  0  0  0
    9.1297   -0.2154   26.3736 C   0  0  0  0  0  0  0  0  0  0  0  0
    9.5202    0.6853   26.8310 H   0  0  0  0  0  0  0  0  0  0  0  0
    8.9233   -1.3509   27.1199 C   0  0  0  0  0  0  0  0  0  0  0  0
    9.1449   -1.3973   28.1780 H   0  0  0  0  0  0  0  0  0  0  0  0
    8.3893   -2.5237   26.5125 C   0  0  0  0  0  0  0  0  0  0  0  0
    8.1978   -3.6181   27.3172 N   0  0  0  0  0  0  0  0  0  0  0  0
    7.6847   -4.6940   26.7705 C   0  0  0  0  0  0  0  0  0  0  0  0
    7.5420   -5.5500   27.4299 H   0  0  0  0  0  0  0  0  0  0  0  0
    7.3036   -4.7951   25.4017 C   0  0  0  0  0  0  0  0  0  0  0  0
    6.8837   -5.7219   25.0344 H   0  0  0  0  0  0  0  0  0  0  0  0
    7.4843   -3.7136   24.5760 C   0  0  0  0  0  0  0  0  0  0  0  0
    7.2069   -3.7455   23.5232 H   0  0  0  0  0  0  0  0  0  0  0  0
    8.0705   -2.5269   25.1181 C   0  0  0  0  0  0  0  0  0  0  0  0
    8.7685   -2.0882   22.0384 C   0  0  0  0  0  0  0  0  0  0  0  0
    9.5680   -2.9869   22.1787 O   0  0  0  0  0  0  0  0  0  0  0  0
    8.2714   -1.6484   20.8380 N   0  0  0  0  0  0  0  0  0  0  0  0
    8.5581   -2.1389   20.0160 H   0  0  0  0  0  0  0  0  0  0  0  0
    5.4247    0.6590   20.1312 C   0  0  0  0  0  0  0  0  0  0  0  0
    4.9903    0.6390   21.1309 H   0  0  0  0  0  0  0  0  0  0  0  0
    4.7932    1.3191   19.0809 C   0  0  0  0  0  0  0  0  0  0  0  0
    3.8621    1.8532   19.2330 H   0  0  0  0  0  0  0  0  0  0  0  0
  1  2  1  0
  2  3  2  0
  3  4  1  0
  4  5  1  0
  4  6  2  0
  6  7  1  0
  7  8  2  0
  8  9  1  0
  8 10  1  0
 10 11  1  0
 11 12  2  0
 12 13  1  0
 12 14  1  0
 14 15  1  0
 14 16  2  0
 16 17  1  0
 16 18  1  0
 18 19  2  0
 19 20  1  0
 20 21  1  0
 20 22  2  0
 22 23  1  0
 22 24  1  0
 24 25  1  0
 24 26  2  0
 10 27  1  0
 27 28  2  0
 27 29  1  0
 29 30  1  0
  6 31  1  0
 31 32  1  0
 31 33  2  0
 33 34  1  0
 33  2  1  0
 29  7  1  0
 26 11  1  0
 26 18  1  0
M  END
>  <cnnaffinity>  (1) 
-5.67597

>  <filename>  (1) 
O=c1[nH]c(-c2cccnc2)cn1-c1cccc2ncccc12

$$$$
