
     RDKit          3D

 34 37  0  0  0  0  0  0  0  0999 V2000
    4.9088    1.7780   16.9997 H   0  0  0  0  0  0  0  0  0  0  0  0
    5.3976    1.2938   17.8419 C   0  0  0  0  0  0  0  0  0  0  0  0
    6.5616    0.6766   17.5787 N   0  0  0  0  0  0  0  0  0  0  0  0
    7.1793    0.0581   18.5917 C   0  0  0  0  0  0  0  0  0  0  0  0
    8.1283   -0.4284   18.3795 H   0  0  0  0  0  0  0  0  0  0  0  0
    6.6677    0.0032   19.9067 C   0  0  0  0  0  0  0  0  0  0  0  0
    7.3594   -0.6826   20.9469 N   0  0  0  0  0  0  0  0  0  0  0  0
    6.7678   -1.4468   21.9451 C   0  0  0  0  0  0  0  0  0  0  0  0
    5.7012   -1.6000   21.9805 H   0  0  0  0  0  0  0  0  0  0  0  0
    7.7375   -1.9382   22.7457 C   0  0  0  0  0  0  0  0  0  0  0  0
    7.5980   -2.7768   23.9278 C   0  0  0  0  0  0  0  0  0  0  0  0
    8.6767   -3.5535   24.4625 C   0  0  0  0  0  0  0  0  0  0  0  0
    9.6479   -3.5200   23.9669 H   0  0  0  0  0  0  0  0  0  0  0  0
    8.5818   -4.3383   25.5121 N   0  0  0  0  0  0  0  0  0  0  0  0
    7.3572   -4.4128   26.1436 C   0  0  0  0  0  0  0  0  0  0  0  0
    7.2109   -5.2478   27.2910 C   0  0  0  0  0  0  0  0  0  0  0  0
    8.0827   -5.7987   27.6247 H   0  0  0  0  0  0  0  0  0  0  0  0
    5.9979   -5.3438   27.9416 C   0  0  0  0  0  0  0  0  0  0  0  0
    5.8876   -5.9828   28.8169 H   0  0  0  0  0  0  0  0  0  0  0  0
    4.8662   -4.6099   27.4792 C   0  0  0  0  0  0  0  0  0  0  0  0
    3.9191   -4.6977   28.0052 H   0  0  0  0  0  0  0  0  0  0  0  0
    4.9661   -3.7961   26.3790 C   0  0  0  0  0  0  0  0  0  0  0  0
    4.1119   -3.2276   26.0137 H   0  0  0  0  0  0  0  0  0  0  0  0
    6.2123   -3.6813   25.6907 C   0  0  0  0  0  0  0  0  0  0  0  0
    6.3695   -2.8567   24.5566 C   0  0  0  0  0  0  0  0  0  0  0  0
    5.5150   -2.2808   24.2040 H   0  0  0  0  0  0  0  0  0  0  0  0
    8.9423   -1.4829   22.2331 N   0  0  0  0  0  0  0  0  0  0  0  0
    9.8691   -1.6028   22.5910 H   0  0  0  0  0  0  0  0  0  0  0  0
    8.7524   -0.6815   21.1351 C   0  0  0  0  0  0  0  0  0  0  0  0
    9.6014   -0.1117   20.4819 O   0  0  0  0  0  0  0  0  0  0  0  0
    5.4476    0.6445   20.1623 C   0  0  0  0  0  0  0  0  0  0  0  0
    5.0174    0.6303   21.1650 H   0  0  0  0  0  0  0  0  0  0  0  0
    4.8087    1.3107   19.1111 C   0  0  0  0  0  0  0  0  0  0  0  0
    3.8744    1.8432   19.2660 H   0  0  0  0  0  0  0  0  0  0  0  0
  1  2  1  0
  2  3  2  0
  3  4  1  0
  4  5  1  0
  4  6  2  0
  6  7  1  0
  7  8  1  0
  8  9  1  0
  8 10  2  0
 10 11  1  0
 11 12  2  0
 12 13  1  0
 12 14  1  0
 14 15  2  0
 15 16  1  0
 16 17  1  0
 16 18  2  0
 18 19  1  0
 18 20  1  0
 20 21  1  0
 20 22  2  0
 22 23  1  0
 22 24  1  0
 24 25  2  0
 25 26  1  0
 10 27  1  0
 27 28  1  0
 27 29  1  0
 29 30  2  0
  6 31  1  0
 31 32  1  0
 31 33  2  0
 33 34  1  0
 33  2  1  0
 29  7  1  0
 25 11  1  0
 24 15  1  0
M  END
>  <cnnaffinity>  (1) 
-5.65

>  <filename>  (1) 
O=c1[nH]c(-c2cnc3ccccc3c2)cn1-c1cccnc1

$$$$
