
     RDKit          3D

 49 52  0  0  0  0  0  0  0  0999 V2000
    4.5585    4.9250   23.2358 O   0  0  0  0  0  0  0  0  0  0  0  0
    5.5711    4.2524   23.0703 C   0  0  0  0  0  0  0  0  0  0  0  0
    5.5937    2.7279   22.8220 C   0  0  0  0  0  0  0  0  0  0  0  0
    6.7469    2.1260   22.6369 C   0  0  0  0  0  0  0  0  0  0  0  0
    8.0628    2.8298   22.1348 C   0  0  0  0  0  0  0  0  0  0  0  0
    9.4062    2.0678   21.9350 C   0  0  0  0  0  0  0  0  0  0  0  0
    9.7398    0.4466   21.3305 C   0  0  0  0  0  0  0  0  0  0  0  0
    8.6963   -0.5188   21.7603 C   0  0  0  0  0  0  0  0  0  0  0  0
    8.6969   -1.1540   22.9196 N   0  0  0  0  0  0  0  0  0  0  0  0
    7.6664   -2.0414   22.8096 C   0  0  0  0  0  0  0  0  0  0  0  0
    7.2158   -3.0212   23.8656 C   0  0  0  0  0  0  0  0  0  0  0  0
    8.3716   -3.9035   24.4032 C   0  0  0  0  0  0  0  0  0  0  0  0
    9.3231   -3.1245   25.3296 C   0  0  0  0  0  0  0  0  0  0  0  0
    8.5583   -2.4706   26.4688 C   0  0  0  0  0  0  0  0  0  0  0  0
    9.4140   -1.7295   27.2384 F   0  0  0  0  0  0  0  0  0  0  0  0
    8.0593   -3.4556   27.2930 F   0  0  0  0  0  0  0  0  0  0  0  0
    7.4099   -1.5924   26.0033 C   0  0  0  0  0  0  0  0  0  0  0  0
    6.4638   -2.3408   25.0481 C   0  0  0  0  0  0  0  0  0  0  0  0
    5.6952   -1.6584   24.6655 H   0  0  0  0  0  0  0  0  0  0  0  0
    5.9327   -3.1229   25.6096 H   0  0  0  0  0  0  0  0  0  0  0  0
    6.8818   -1.2238   26.8893 H   0  0  0  0  0  0  0  0  0  0  0  0
    7.8621   -0.7333   25.5046 H   0  0  0  0  0  0  0  0  0  0  0  0
    9.8233   -2.3296   24.7675 H   0  0  0  0  0  0  0  0  0  0  0  0
   10.0902   -3.7764   25.7601 H   0  0  0  0  0  0  0  0  0  0  0  0
    8.9302   -4.3433   23.5693 H   0  0  0  0  0  0  0  0  0  0  0  0
    7.9290   -4.7401   24.9635 H   0  0  0  0  0  0  0  0  0  0  0  0
    6.5026   -3.6583   23.3326 H   0  0  0  0  0  0  0  0  0  0  0  0
    7.0053   -1.9532   21.6737 N   0  0  0  0  0  0  0  0  0  0  0  0
    7.6526   -0.9667   20.9908 N   0  0  0  0  0  0  0  0  0  0  0  0
    7.0149   -0.4066   19.8370 C   0  0  0  0  0  0  0  0  0  0  0  0
    5.7597    0.2045   19.9688 C   0  0  0  0  0  0  0  0  0  0  0  0
    5.1672    0.7791   18.8353 C   0  0  0  0  0  0  0  0  0  0  0  0
    5.8580    0.7261   17.6234 C   0  0  0  0  0  0  0  0  0  0  0  0
    7.0238    0.0874   17.4795 N   0  0  0  0  0  0  0  0  0  0  0  0
    7.5811   -0.4861   18.5515 C   0  0  0  0  0  0  0  0  0  0  0  0
    8.5160   -1.0231   18.3877 H   0  0  0  0  0  0  0  0  0  0  0  0
    5.4653    1.2250   16.7408 H   0  0  0  0  0  0  0  0  0  0  0  0
    4.2206    1.3040   18.8993 H   0  0  0  0  0  0  0  0  0  0  0  0
    5.2395    0.1611   20.9272 H   0  0  0  0  0  0  0  0  0  0  0  0
   10.7002    0.1330   21.7418 H   0  0  0  0  0  0  0  0  0  0  0  0
    9.7917    0.4592   20.2382 H   0  0  0  0  0  0  0  0  0  0  0  0
   10.2708    2.5652   21.3449 H   0  0  0  0  0  0  0  0  0  0  0  0
   10.0942    1.9694   22.8679 H   0  0  0  0  0  0  0  0  0  0  0  0
    8.0212    2.8641   22.1965 C   0  0  0  0  0  0  0  0  0  0  0  0
    6.8219    4.7105   23.1018 N   0  0  0  0  0  0  0  0  0  0  0  0
    6.6124    5.6939   23.2618 H   0  0  0  0  0  0  0  0  0  0  0  0
    8.0767    2.5857   20.4464 H   0  0  0  0  0  0  0  0  0  0  0  0
    6.6377    1.0135   22.7162 H   0  0  0  0  0  0  0  0  0  0  0  0
    4.6557    2.1936   23.0020 H   0  0  0  0  0  0  0  0  0  0  0  0
  1  2  2  0
  2  3  1  0
  3  4  2  0
  4  5  1  0
  5  6  1  0
  6  7  1  0
  7  8  1  0
  8  9  2  0
  9 10  1  0
 10 11  1  0
 11 12  1  0
 12 13  1  0
 13 14  1  0
 14 15  1  0
 14 16  1  0
 14 17  1  0
 17 18  1  0
 18 19  1  0
 18 20  1  0
 17 21  1  0
 17 22  1  0
 13 23  1  0
 13 24  1  0
 12 25  1  0
 12 26  1  0
 11 27  1  0
 10 28  2  0
 28 29  1  0
 29 30  1  0
 30 31  2  0
 31 32  1  0
 32 33  2  0
 33 34  1  0
 34 35  2  0
 35 36  1  0
 33 37  1  0
 32 38  1  0
 31 39  1  0
  7 40  1  0
  7 41  1  0
  6 42  1  0
  6 43  1  0
  5 44  2  0
 44 45  1  0
 45 46  1  0
 44 47  1  0
  4 48  1  0
  3 49  1  0
 45  2  1  0
 29  8  1  0
 35 30  1  0
 18 11  1  0
M  END
>  <cnnaffinity>  (1) 
-6.43025

>  <filename>  (1) 
O=c1ccc(CCc2nc(C3CCC(F)(F)CC3)nn2-c2cccnc2)c[nH]1

$$$$
