
     RDKit          3D

 31 33  0  0  0  0  0  0  0  0999 V2000
    4.9709    1.7892   16.9313 H   0  0  0  0  0  0  0  0  0  0  0  0
    5.4202    1.2825   17.7854 C   0  0  0  0  0  0  0  0  0  0  0  0
    6.5646    0.6199   17.5482 N   0  0  0  0  0  0  0  0  0  0  0  0
    7.1431    0.0093   18.5835 C   0  0  0  0  0  0  0  0  0  0  0  0
    8.0653   -0.5294   18.3682 H   0  0  0  0  0  0  0  0  0  0  0  0
    6.6579    0.0570   19.9045 C   0  0  0  0  0  0  0  0  0  0  0  0
    7.4329   -0.5689   20.9816 C   0  0  0  0  0  0  0  0  0  0  0  0
    7.7714    0.0163   22.1899 C   0  0  0  0  0  0  0  0  0  0  0  0
    7.4909    1.4507   22.5148 C   0  0  0  0  0  0  0  0  0  0  0  0
    6.7368    1.7295   23.6682 C   0  0  0  0  0  0  0  0  0  0  0  0
    6.3398    0.9335   24.2892 H   0  0  0  0  0  0  0  0  0  0  0  0
    6.4441    3.0457   23.9965 C   0  0  0  0  0  0  0  0  0  0  0  0
    5.6716    3.3044   25.0638 F   0  0  0  0  0  0  0  0  0  0  0  0
    6.9243    4.1122   23.2510 C   0  0  0  0  0  0  0  0  0  0  0  0
    6.7191    5.1331   23.5365 H   0  0  0  0  0  0  0  0  0  0  0  0
    7.6821    3.8231   22.1236 C   0  0  0  0  0  0  0  0  0  0  0  0
    8.1413    4.8689   21.4196 F   0  0  0  0  0  0  0  0  0  0  0  0
    7.9615    2.5181   21.7192 C   0  0  0  0  0  0  0  0  0  0  0  0
    8.5354    2.3529   20.8129 H   0  0  0  0  0  0  0  0  0  0  0  0
    8.3646   -0.8324   23.1928 C   0  0  0  0  0  0  0  0  0  0  0  0
    8.6103   -0.4018   24.1640 H   0  0  0  0  0  0  0  0  0  0  0  0
    8.6177   -2.1470   22.9630 C   0  0  0  0  0  0  0  0  0  0  0  0
    9.0380   -2.8217   23.6964 H   0  0  0  0  0  0  0  0  0  0  0  0
    8.2708   -2.7615   21.6923 C   0  0  0  0  0  0  0  0  0  0  0  0
    8.3521   -3.9477   21.4231 O   0  0  0  0  0  0  0  0  0  0  0  0
    7.8094   -1.8728   20.7371 N   0  0  0  0  0  0  0  0  0  0  0  0
    7.4892   -2.3551   19.9096 H   0  0  0  0  0  0  0  0  0  0  0  0
    5.4389    0.7177   20.1288 C   0  0  0  0  0  0  0  0  0  0  0  0
    4.9893    0.7302   21.1243 H   0  0  0  0  0  0  0  0  0  0  0  0
    4.8115    1.3298   19.0433 C   0  0  0  0  0  0  0  0  0  0  0  0
    3.8649    1.8444   19.1504 H   0  0  0  0  0  0  0  0  0  0  0  0
  1  2  1  0
  2  3  2  0
  3  4  1  0
  4  5  1  0
  4  6  2  0
  6  7  1  0
  7  8  2  0
  8  9  1  0
  9 10  2  0
 10 11  1  0
 10 12  1  0
 12 13  1  0
 12 14  2  0
 14 15  1  0
 14 16  1  0
 16 17  1  0
 16 18  2  0
 18 19  1  0
  8 20  1  0
 20 21  1  0
 20 22  2  0
 22 23  1  0
 22 24  1  0
 24 25  2  0
 24 26  1  0
 26 27  1  0
  6 28  1  0
 28 29  1  0
 28 30  2  0
 30 31  1  0
 30  2  1  0
 26  7  1  0
 18  9  1  0
M  END
>  <cnnaffinity>  (1) 
-5.12506

>  <filename>  (1) 
O=c1ccc(-c2cc(F)cc(F)c2)c(-c2cccnc2)[nH]1

$$$$
