
     RDKit          3D

 42 45  0  0  0  0  0  0  0  0999 V2000
   14.3786   -1.8798   22.1459 O   0  0  0  0  0  0  0  0  0  0  0  0
   13.3693   -1.1954   22.1099 C   0  0  0  0  0  0  0  0  0  0  0  0
   13.1520    0.0749   22.7820 C   0  0  0  0  0  0  0  0  0  0  0  0
   12.0226    0.7944   22.5331 C   0  0  0  0  0  0  0  0  0  0  0  0
   11.0119    0.3205   21.6197 C   0  0  0  0  0  0  0  0  0  0  0  0
    9.8446    1.2570   21.3207 C   0  0  0  0  0  0  0  0  0  0  0  0
    8.7161    1.2095   22.3056 C   0  0  0  0  0  0  0  0  0  0  0  0
    8.6100    1.9383   23.3943 N   0  0  0  0  0  0  0  0  0  0  0  0
    7.4796    1.4584   23.9832 C   0  0  0  0  0  0  0  0  0  0  0  0
    7.0399    1.9481   25.2948 C   0  0  0  0  0  0  0  0  0  0  0  0
    5.8902    1.4922   25.9712 C   0  0  0  0  0  0  0  0  0  0  0  0
    5.6263    2.0553   27.2118 C   0  0  0  0  0  0  0  0  0  0  0  0
    4.5447    1.6697   27.9021 F   0  0  0  0  0  0  0  0  0  0  0  0
    6.4854    3.0221   27.7536 C   0  0  0  0  0  0  0  0  0  0  0  0
    7.5864    3.4358   27.1137 N   0  0  0  0  0  0  0  0  0  0  0  0
    7.8584    2.9046   25.9166 C   0  0  0  0  0  0  0  0  0  0  0  0
    8.7663    3.2334   25.4195 H   0  0  0  0  0  0  0  0  0  0  0  0
    6.2675    3.4571   28.7268 H   0  0  0  0  0  0  0  0  0  0  0  0
    5.2329    0.7200   25.5691 H   0  0  0  0  0  0  0  0  0  0  0  0
    6.8739    0.5107   23.2931 N   0  0  0  0  0  0  0  0  0  0  0  0
    7.6804    0.3509   22.2159 N   0  0  0  0  0  0  0  0  0  0  0  0
    7.3367   -0.5690   21.1350 C   0  0  0  0  0  0  0  0  0  0  0  0
    6.6684    0.0934   19.9387 C   0  0  0  0  0  0  0  0  0  0  0  0
    5.4537    0.7673   20.1186 C   0  0  0  0  0  0  0  0  0  0  0  0
    4.8457    1.3690   19.0147 C   0  0  0  0  0  0  0  0  0  0  0  0
    5.4718    1.2830   17.7683 C   0  0  0  0  0  0  0  0  0  0  0  0
    6.6297    0.6360   17.5696 N   0  0  0  0  0  0  0  0  0  0  0  0
    7.2026    0.0647   18.6393 C   0  0  0  0  0  0  0  0  0  0  0  0
    8.1437   -0.4464   18.4323 H   0  0  0  0  0  0  0  0  0  0  0  0
    5.0221    1.7515   16.8932 H   0  0  0  0  0  0  0  0  0  0  0  0
    3.9129    1.9157   19.1080 H   0  0  0  0  0  0  0  0  0  0  0  0
    5.0073    0.8295   21.1124 H   0  0  0  0  0  0  0  0  0  0  0  0
    8.2438   -1.0957   20.8216 H   0  0  0  0  0  0  0  0  0  0  0  0
    6.6738   -1.3105   21.5891 H   0  0  0  0  0  0  0  0  0  0  0  0
    9.4280    1.0942   20.3240 H   0  0  0  0  0  0  0  0  0  0  0  0
   10.2089    2.2889   21.3440 H   0  0  0  0  0  0  0  0  0  0  0  0
   11.1520   -0.9321   21.0992 C   0  0  0  0  0  0  0  0  0  0  0  0
   12.2943   -1.6574   21.3594 N   0  0  0  0  0  0  0  0  0  0  0  0
   12.5253   -2.5767   20.9984 H   0  0  0  0  0  0  0  0  0  0  0  0
   10.3775   -1.3939   20.4932 H   0  0  0  0  0  0  0  0  0  0  0  0
   11.8766    1.7592   23.0191 H   0  0  0  0  0  0  0  0  0  0  0  0
   13.9498    0.3794   23.4460 H   0  0  0  0  0  0  0  0  0  0  0  0
  1  2  2  0
  2  3  1  0
  3  4  2  0
  4  5  1  0
  5  6  1  0
  6  7  1  0
  7  8  2  0
  8  9  1  0
  9 10  1  0
 10 11  2  0
 11 12  1  0
 12 13  1  0
 12 14  2  0
 14 15  1  0
 15 16  2  0
 16 17  1  0
 14 18  1  0
 11 19  1  0
  9 20  2  0
 20 21  1  0
 21 22  1  0
 22 23  1  0
 23 24  2  0
 24 25  1  0
 25 26  2  0
 26 27  1  0
 27 28  2  0
 28 29  1  0
 26 30  1  0
 25 31  1  0
 24 32  1  0
 22 33  1  0
 22 34  1  0
  6 35  1  0
  6 36  1  0
  5 37  2  0
 37 38  1  0
 38 39  1  0
 37 40  1  0
  4 41  1  0
  3 42  1  0
 38  2  1  0
 21  7  1  0
 28 23  1  0
 16 10  1  0
M  END
>  <cnnaffinity>  (1) 
-6.63711

>  <filename>  (1) 
O=c1ccc(Cc2nc(-c3cncc(F)c3)nn2Cc2cccnc2)c[nH]1

$$$$
