
     RDKit          3D

 24 25  0  0  0  0  0  0  0  0999 V2000
    4.9745    1.8393   16.9243 H   0  0  0  0  0  0  0  0  0  0  0  0
    5.4409    1.3345   17.7689 C   0  0  0  0  0  0  0  0  0  0  0  0
    6.6302    0.7491   17.5328 N   0  0  0  0  0  0  0  0  0  0  0  0
    7.2231    0.1249   18.5546 C   0  0  0  0  0  0  0  0  0  0  0  0
    8.1927   -0.3289   18.3749 H   0  0  0  0  0  0  0  0  0  0  0  0
    6.6494    0.0126   19.8323 C   0  0  0  0  0  0  0  0  0  0  0  0
    7.3283   -0.7005   20.8710 N   0  0  0  0  0  0  0  0  0  0  0  0
    8.6329   -0.3273   21.0503 N   0  0  0  0  0  0  0  0  0  0  0  0
    9.2168   -0.7105   22.1415 C   0  0  0  0  0  0  0  0  0  0  0  0
   10.2519   -0.4122   22.2784 H   0  0  0  0  0  0  0  0  0  0  0  0
    8.5687   -1.5603   23.1180 C   0  0  0  0  0  0  0  0  0  0  0  0
    9.4497   -1.9700   24.5896 S   0  0  0  0  0  0  0  0  0  0  0  0
   10.3275   -3.4907   24.0439 C   0  0  0  0  0  0  0  0  0  0  0  0
   10.9066   -3.9866   25.1277 F   0  0  0  0  0  0  0  0  0  0  0  0
    9.4832   -4.3849   23.5350 F   0  0  0  0  0  0  0  0  0  0  0  0
   11.2612   -3.2081   23.1367 F   0  0  0  0  0  0  0  0  0  0  0  0
    7.3282   -2.0594   22.8574 C   0  0  0  0  0  0  0  0  0  0  0  0
    6.7876   -2.7474   23.4978 H   0  0  0  0  0  0  0  0  0  0  0  0
    6.6256   -1.7210   21.6327 C   0  0  0  0  0  0  0  0  0  0  0  0
    5.5844   -2.2206   21.2546 O   0  0  0  0  0  0  0  0  0  0  0  0
    5.4245    0.6373   20.0792 C   0  0  0  0  0  0  0  0  0  0  0  0
    4.9827    0.6082   21.0743 H   0  0  0  0  0  0  0  0  0  0  0  0
    4.8147    1.3168   19.0198 C   0  0  0  0  0  0  0  0  0  0  0  0
    3.8816    1.8524   19.1633 H   0  0  0  0  0  0  0  0  0  0  0  0
  1  2  1  0
  2  3  2  0
  3  4  1  0
  4  5  1  0
  4  6  2  0
  6  7  1  0
  7  8  1  0
  8  9  2  0
  9 10  1  0
  9 11  1  0
 11 12  1  0
 12 13  1  0
 13 14  1  0
 13 15  1  0
 13 16  1  0
 11 17  2  0
 17 18  1  0
 17 19  1  0
 19 20  2  0
  6 21  1  0
 21 22  1  0
 21 23  2  0
 23 24  1  0
 23  2  1  0
 19  7  1  0
M  END
>  <cnnaffinity>  (1) 
-5.07666

>  <filename>  (1) 
O=c1cc(SC(F)(F)F)cnn1-c1cccnc1

$$$$
