
     RDKit          3D

 30 32  0  0  0  0  0  0  0  0999 V2000
    4.8777    2.1288   16.9366 H   0  0  0  0  0  0  0  0  0  0  0  0
    5.3413    1.4700   17.6621 C   0  0  0  0  0  0  0  0  0  0  0  0
    6.5246    0.9074   17.3551 N   0  0  0  0  0  0  0  0  0  0  0  0
    7.1060    0.1339   18.2826 C   0  0  0  0  0  0  0  0  0  0  0  0
    8.0763   -0.2977   18.0536 H   0  0  0  0  0  0  0  0  0  0  0  0
    6.5282   -0.1385   19.5345 C   0  0  0  0  0  0  0  0  0  0  0  0
    7.2745   -0.9218   20.5286 C   0  0  0  0  0  0  0  0  0  0  0  0
    8.5791   -0.7228   20.5585 N   0  0  0  0  0  0  0  0  0  0  0  0
    9.3639   -1.3366   21.5067 N   0  0  0  0  0  0  0  0  0  0  0  0
   10.6155   -0.7745   21.7479 C   0  0  0  0  0  0  0  0  0  0  0  0
   11.7399   -1.5850   21.9311 C   0  0  0  0  0  0  0  0  0  0  0  0
   11.6238   -2.6610   21.9069 H   0  0  0  0  0  0  0  0  0  0  0  0
   12.9851   -1.0088   22.1799 C   0  0  0  0  0  0  0  0  0  0  0  0
   13.8582   -1.6361   22.3116 H   0  0  0  0  0  0  0  0  0  0  0  0
   13.0880    0.3745   22.3050 C   0  0  0  0  0  0  0  0  0  0  0  0
   14.7214    1.1575   22.7909 Br  0  0  0  0  0  0  0  0  0  0  0  0
   11.9785    1.1892   22.1205 C   0  0  0  0  0  0  0  0  0  0  0  0
   12.0887    2.2635   22.2135 H   0  0  0  0  0  0  0  0  0  0  0  0
   10.7412    0.6168   21.8501 C   0  0  0  0  0  0  0  0  0  0  0  0
    9.8660    1.2482   21.7557 H   0  0  0  0  0  0  0  0  0  0  0  0
    8.8388   -2.1599   22.5130 C   0  0  0  0  0  0  0  0  0  0  0  0
    9.5172   -2.5741   23.2547 H   0  0  0  0  0  0  0  0  0  0  0  0
    7.4878   -2.3944   22.5795 C   0  0  0  0  0  0  0  0  0  0  0  0
    7.0522   -2.9698   23.3895 H   0  0  0  0  0  0  0  0  0  0  0  0
    6.6443   -1.8326   21.5307 C   0  0  0  0  0  0  0  0  0  0  0  0
    5.4884   -2.2461   21.4484 O   0  0  0  0  0  0  0  0  0  0  0  0
    5.2828    0.4178   19.8391 C   0  0  0  0  0  0  0  0  0  0  0  0
    4.8109    0.2651   20.8098 H   0  0  0  0  0  0  0  0  0  0  0  0
    4.6944    1.2382   18.8808 C   0  0  0  0  0  0  0  0  0  0  0  0
    3.7470    1.7277   19.0748 H   0  0  0  0  0  0  0  0  0  0  0  0
  1  2  1  0
  2  3  2  0
  3  4  1  0
  4  5  1  0
  4  6  2  0
  6  7  1  0
  7  8  2  0
  8  9  1  0
  9 10  1  0
 10 11  2  0
 11 12  1  0
 11 13  1  0
 13 14  1  0
 13 15  2  0
 15 16  1  0
 15 17  1  0
 17 18  1  0
 17 19  2  0
 19 20  1  0
  9 21  1  0
 21 22  1  0
 21 23  2  0
 23 24  1  0
 23 25  1  0
 25 26  2  0
  6 27  1  0
 27 28  1  0
 27 29  2  0
 29 30  1  0
 29  2  1  0
 25  7  1  0
 19 10  1  0
M  END
>  <cnnaffinity>  (1) 
-5.59231

>  <filename>  (1) 
O=c1ccn(-c2ccc(Br)cc2)nc1-c1cccnc1

$$$$
