
     RDKit          3D

 41 44  0  0  0  0  0  0  0  0999 V2000
   13.3255    1.7158   24.4343 O   0  0  0  0  0  0  0  0  0  0  0  0
   12.4850    1.5150   23.5793 C   0  0  0  0  0  0  0  0  0  0  0  0
   11.2498    2.2510   23.3615 C   0  0  0  0  0  0  0  0  0  0  0  0
   10.3756    1.8524   22.3904 C   0  0  0  0  0  0  0  0  0  0  0  0
   10.6495    0.6875   21.5859 C   0  0  0  0  0  0  0  0  0  0  0  0
    9.6047    0.1452   20.6408 C   0  0  0  0  0  0  0  0  0  0  0  0
    8.5515   -0.6915   21.2999 C   0  0  0  0  0  0  0  0  0  0  0  0
    8.7458   -1.5404   22.2829 N   0  0  0  0  0  0  0  0  0  0  0  0
    7.5073   -2.0650   22.4962 C   0  0  0  0  0  0  0  0  0  0  0  0
    7.3303   -2.9901   23.6853 C   0  0  0  0  0  0  0  0  0  0  0  0
    6.8513   -2.2357   24.9650 C   0  0  0  0  0  0  0  0  0  0  0  0
    5.9773   -3.2745   25.6743 C   0  0  0  0  0  0  0  0  0  0  0  0
    5.4215   -4.0758   24.4969 C   0  0  0  0  0  0  0  0  0  0  0  0
    6.4458   -4.0914   23.5049 O   0  0  0  0  0  0  0  0  0  0  0  0
    4.5193   -3.6022   24.0805 H   0  0  0  0  0  0  0  0  0  0  0  0
    5.1832   -5.1116   24.7589 H   0  0  0  0  0  0  0  0  0  0  0  0
    6.5772   -3.9138   26.3357 H   0  0  0  0  0  0  0  0  0  0  0  0
    5.1787   -2.8191   26.2705 H   0  0  0  0  0  0  0  0  0  0  0  0
    7.6986   -1.8873   25.5682 H   0  0  0  0  0  0  0  0  0  0  0  0
    6.2534   -1.3577   24.6820 H   0  0  0  0  0  0  0  0  0  0  0  0
    8.3393   -3.3934   23.8320 H   0  0  0  0  0  0  0  0  0  0  0  0
    6.5644   -1.5972   21.7021 N   0  0  0  0  0  0  0  0  0  0  0  0
    7.2473   -0.7488   20.8917 N   0  0  0  0  0  0  0  0  0  0  0  0
    6.5829   -0.0484   19.8492 C   0  0  0  0  0  0  0  0  0  0  0  0
    5.3862    0.6236   20.1152 C   0  0  0  0  0  0  0  0  0  0  0  0
    4.7895    1.3290   19.0670 C   0  0  0  0  0  0  0  0  0  0  0  0
    5.3906    1.3269   17.8010 C   0  0  0  0  0  0  0  0  0  0  0  0
    6.5278    0.6673   17.5355 N   0  0  0  0  0  0  0  0  0  0  0  0
    7.1030    0.0012   18.5423 C   0  0  0  0  0  0  0  0  0  0  0  0
    8.0381   -0.5043   18.3129 H   0  0  0  0  0  0  0  0  0  0  0  0
    4.9442    1.8643   16.9656 H   0  0  0  0  0  0  0  0  0  0  0  0
    3.8659    1.8756   19.2169 H   0  0  0  0  0  0  0  0  0  0  0  0
    4.9599    0.5926   21.1196 H   0  0  0  0  0  0  0  0  0  0  0  0
    9.1271    0.9797   20.1250 H   0  0  0  0  0  0  0  0  0  0  0  0
   10.0532   -0.5103   19.8837 H   0  0  0  0  0  0  0  0  0  0  0  0
   11.8281    0.0250   21.7621 C   0  0  0  0  0  0  0  0  0  0  0  0
   12.7148    0.4579   22.7081 N   0  0  0  0  0  0  0  0  0  0  0  0
   13.5801    0.0110   22.9747 H   0  0  0  0  0  0  0  0  0  0  0  0
   12.1182   -0.8463   21.1779 H   0  0  0  0  0  0  0  0  0  0  0  0
    9.4494    2.4086   22.2305 H   0  0  0  0  0  0  0  0  0  0  0  0
   11.0829    3.0810   24.0345 H   0  0  0  0  0  0  0  0  0  0  0  0
  1  2  2  0
  2  3  1  0
  3  4  2  0
  4  5  1  0
  5  6  1  0
  6  7  1  0
  7  8  2  0
  8  9  1  0
  9 10  1  0
 10 11  1  0
 11 12  1  0
 12 13  1  0
 13 14  1  0
 13 15  1  0
 13 16  1  0
 12 17  1  0
 12 18  1  0
 11 19  1  0
 11 20  1  0
 10 21  1  0
  9 22  2  0
 22 23  1  0
 23 24  1  0
 24 25  2  0
 25 26  1  0
 26 27  2  0
 27 28  1  0
 28 29  2  0
 29 30  1  0
 27 31  1  0
 26 32  1  0
 25 33  1  0
  6 34  1  0
  6 35  1  0
  5 36  2  0
 36 37  1  0
 37 38  1  0
 36 39  1  0
  4 40  1  0
  3 41  1  0
 37  2  1  0
 23  7  1  0
 29 24  1  0
 14 10  1  0
M  END
>  <cnnaffinity>  (1) 
-6.172

>  <filename>  (1) 
O=c1ccc(Cc2nc(C3CCCO3)nn2-c2cccnc2)c[nH]1

$$$$
