
     RDKit          3D

 46 49  0  0  0  0  0  0  0  0999 V2000
   10.1632    1.3185   23.9457 O   0  0  0  0  0  0  0  0  0  0  0  0
    9.4396    2.1174   23.3618 C   0  0  0  0  0  0  0  0  0  0  0  0
    8.9070    3.3329   23.9619 C   0  0  0  0  0  0  0  0  0  0  0  0
    8.0903    4.1881   23.2832 C   0  0  0  0  0  0  0  0  0  0  0  0
    7.6806    3.8742   21.9488 C   0  0  0  0  0  0  0  0  0  0  0  0
    8.1539    2.7342   21.3752 C   0  0  0  0  0  0  0  0  0  0  0  0
    9.0602    1.9148   22.0017 N   0  0  0  0  0  0  0  0  0  0  0  0
    9.5311    0.7199   21.2712 C   0  0  0  0  0  0  0  0  0  0  0  0
    8.6589   -0.4922   21.4900 C   0  0  0  0  0  0  0  0  0  0  0  0
    8.8922   -1.4069   22.4048 N   0  0  0  0  0  0  0  0  0  0  0  0
    7.6911   -2.0232   22.5608 C   0  0  0  0  0  0  0  0  0  0  0  0
    7.4066   -3.0089   23.6678 C   0  0  0  0  0  0  0  0  0  0  0  0
    6.7488   -2.2982   24.8897 C   0  0  0  0  0  0  0  0  0  0  0  0
    7.7582   -1.4547   25.6826 C   0  0  0  0  0  0  0  0  0  0  0  0
    8.9261   -2.3218   26.1738 C   0  0  0  0  0  0  0  0  0  0  0  0
    9.6403   -2.9792   24.9854 C   0  0  0  0  0  0  0  0  0  0  0  0
    8.6691   -3.7948   24.1083 C   0  0  0  0  0  0  0  0  0  0  0  0
    9.1976   -4.1777   23.2264 H   0  0  0  0  0  0  0  0  0  0  0  0
    8.3346   -4.6733   24.6786 H   0  0  0  0  0  0  0  0  0  0  0  0
   10.4492   -3.6340   25.3356 H   0  0  0  0  0  0  0  0  0  0  0  0
   10.0934   -2.1881   24.3750 H   0  0  0  0  0  0  0  0  0  0  0  0
    8.5478   -3.0975   26.8601 H   0  0  0  0  0  0  0  0  0  0  0  0
    9.6267   -1.7084   26.7538 H   0  0  0  0  0  0  0  0  0  0  0  0
    7.2552   -0.9814   26.5350 H   0  0  0  0  0  0  0  0  0  0  0  0
    8.1474   -0.6421   25.0484 H   0  0  0  0  0  0  0  0  0  0  0  0
    6.3331   -3.0735   25.5510 H   0  0  0  0  0  0  0  0  0  0  0  0
    5.9087   -1.6775   24.5510 H   0  0  0  0  0  0  0  0  0  0  0  0
    6.6732   -3.7075   23.2482 H   0  0  0  0  0  0  0  0  0  0  0  0
    6.7541   -1.6022   21.7330 N   0  0  0  0  0  0  0  0  0  0  0  0
    7.3899   -0.6363   21.0085 N   0  0  0  0  0  0  0  0  0  0  0  0
    6.7006    0.0121   19.9404 C   0  0  0  0  0  0  0  0  0  0  0  0
    5.4636    0.6243   20.1750 C   0  0  0  0  0  0  0  0  0  0  0  0
    4.8385    1.2854   19.1130 C   0  0  0  0  0  0  0  0  0  0  0  0
    5.4405    1.2836   17.8493 C   0  0  0  0  0  0  0  0  0  0  0  0
    6.5942    0.6442   17.6021 N   0  0  0  0  0  0  0  0  0  0  0  0
    7.1994    0.0230   18.6247 C   0  0  0  0  0  0  0  0  0  0  0  0
    8.1093   -0.5170   18.3730 H   0  0  0  0  0  0  0  0  0  0  0  0
    4.9737    1.8018   17.0099 H   0  0  0  0  0  0  0  0  0  0  0  0
    3.8963    1.8019   19.2541 H   0  0  0  0  0  0  0  0  0  0  0  0
    5.0067    0.5635   21.1638 H   0  0  0  0  0  0  0  0  0  0  0  0
    9.5853    0.9555   20.2018 H   0  0  0  0  0  0  0  0  0  0  0  0
   10.5361    0.4864   21.6282 H   0  0  0  0  0  0  0  0  0  0  0  0
    7.8666    2.3703   20.3915 H   0  0  0  0  0  0  0  0  0  0  0  0
    6.9932    4.5128   21.3959 H   0  0  0  0  0  0  0  0  0  0  0  0
    7.7286    5.0977   23.7715 H   0  0  0  0  0  0  0  0  0  0  0  0
    9.1979    3.4824   24.9921 H   0  0  0  0  0  0  0  0  0  0  0  0
  1  2  2  0
  2  3  1  0
  3  4  2  0
  4  5  1  0
  5  6  2  0
  6  7  1  0
  7  8  1  0
  8  9  1  0
  9 10  2  0
 10 11  1  0
 11 12  1  0
 12 13  1  0
 13 14  1  0
 14 15  1  0
 15 16  1  0
 16 17  1  0
 17 18  1  0
 17 19  1  0
 16 20  1  0
 16 21  1  0
 15 22  1  0
 15 23  1  0
 14 24  1  0
 14 25  1  0
 13 26  1  0
 13 27  1  0
 12 28  1  0
 11 29  2  0
 29 30  1  0
 30 31  1  0
 31 32  2  0
 32 33  1  0
 33 34  2  0
 34 35  1  0
 35 36  2  0
 36 37  1  0
 34 38  1  0
 33 39  1  0
 32 40  1  0
  8 41  1  0
  8 42  1  0
  6 43  1  0
  5 44  1  0
  4 45  1  0
  3 46  1  0
  7  2  1  0
 30  9  1  0
 36 31  1  0
 17 12  1  0
M  END
>  <cnnaffinity>  (1) 
-6.06329

>  <filename>  (1) 
O=c1ccccn1Cc1nc(C2CCCCC2)nn1-c1cccnc1

$$$$
