
     RDKit          3D

 34 36  0  0  0  0  0  0  0  0999 V2000
   11.5887    1.9898   25.5128 H   0  0  0  0  0  0  0  0  0  0  0  0
   11.0651    2.3019   24.6116 C   0  0  0  0  0  0  0  0  0  0  0  0
   10.5866    1.3200   23.8379 N   0  0  0  0  0  0  0  0  0  0  0  0
    9.9451    1.6849   22.7154 C   0  0  0  0  0  0  0  0  0  0  0  0
    9.4569    0.5931   21.8046 C   0  0  0  0  0  0  0  0  0  0  0  0
   10.0794   -0.2885   21.9690 H   0  0  0  0  0  0  0  0  0  0  0  0
    9.5950    0.8936   20.7571 H   0  0  0  0  0  0  0  0  0  0  0  0
    7.9764    0.2509   22.0581 C   0  0  2  0  0  0  0  0  0  0  0  0
    7.4033    1.1910   22.0048 H   0  0  0  0  0  0  0  0  0  0  0  0
    7.7044   -0.3899   23.4502 C   0  0  0  0  0  0  0  0  0  0  0  0
    7.3346    0.3489   24.1771 H   0  0  0  0  0  0  0  0  0  0  0  0
    8.6234   -0.8276   23.8754 H   0  0  0  0  0  0  0  0  0  0  0  0
    6.7200   -1.4061   23.1553 N   0  0  0  0  0  0  0  0  0  0  0  0
    6.1964   -1.9673   23.8122 H   0  0  0  0  0  0  0  0  0  0  0  0
    6.5183   -1.6899   21.8451 C   0  0  0  0  0  0  0  0  0  0  0  0
    5.7913   -2.5754   21.4483 O   0  0  0  0  0  0  0  0  0  0  0  0
    7.3906   -0.7278   21.0067 C   0  0  1  0  0  0  0  0  0  0  0  0
    8.1789   -1.3646   20.5798 H   0  0  0  0  0  0  0  0  0  0  0  0
    6.6646   -0.0236   19.8535 C   0  0  0  0  0  0  0  0  0  0  0  0
    7.1799    0.0642   18.5406 C   0  0  0  0  0  0  0  0  0  0  0  0
    8.1352   -0.4003   18.2871 H   0  0  0  0  0  0  0  0  0  0  0  0
    6.5736    0.7086   17.5323 N   0  0  0  0  0  0  0  0  0  0  0  0
    5.4079    1.3185   17.7946 C   0  0  0  0  0  0  0  0  0  0  0  0
    4.9306    1.8339   16.9620 H   0  0  0  0  0  0  0  0  0  0  0  0
    4.8080    1.3119   19.0568 C   0  0  0  0  0  0  0  0  0  0  0  0
    3.8753    1.8415   19.2128 H   0  0  0  0  0  0  0  0  0  0  0  0
    5.4520    0.6360   20.0959 C   0  0  0  0  0  0  0  0  0  0  0  0
    5.0266    0.6349   21.1012 H   0  0  0  0  0  0  0  0  0  0  0  0
    9.6622    3.0204   22.4018 C   0  0  0  0  0  0  0  0  0  0  0  0
    9.0701    3.2303   21.5161 H   0  0  0  0  0  0  0  0  0  0  0  0
   10.1571    4.0365   23.2146 C   0  0  0  0  0  0  0  0  0  0  0  0
    9.9406    5.0800   22.9834 H   0  0  0  0  0  0  0  0  0  0  0  0
   10.9204    3.6623   24.3227 C   0  0  0  0  0  0  0  0  0  0  0  0
   11.4131    4.3943   24.9496 H   0  0  0  0  0  0  0  0  0  0  0  0
  1  2  1  0
  2  3  2  0
  3  4  1  0
  4  5  1  0
  5  6  1  0
  5  7  1  0
  5  8  1  0
  8  9  1  1
  8 10  1  0
 10 11  1  0
 10 12  1  0
 10 13  1  0
 13 14  1  0
 13 15  1  0
 15 16  2  0
 15 17  1  0
 17 18  1  6
 17 19  1  0
 19 20  2  0
 20 21  1  0
 20 22  1  0
 22 23  2  0
 23 24  1  0
 23 25  1  0
 25 26  1  0
 25 27  2  0
 27 28  1  0
  4 29  2  0
 29 30  1  0
 29 31  1  0
 31 32  1  0
 31 33  2  0
 33 34  1  0
 33  2  1  0
 17  8  1  0
 27 19  1  0
M  END
>  <cnnaffinity>  (1) 
-5.10721

>  <filename>  (1) 
O=C1NC[C@@H](Cc2ccccn2)[C@@H]1c1cccnc1

$$$$
