
     RDKit          3D

 34 37  0  0  0  0  0  0  0  0999 V2000
    4.9259    1.7887   17.0192 H   0  0  0  0  0  0  0  0  0  0  0  0
    5.4013    1.2792   17.8554 C   0  0  0  0  0  0  0  0  0  0  0  0
    6.5568    0.6545   17.5808 N   0  0  0  0  0  0  0  0  0  0  0  0
    7.1911    0.0449   18.5871 C   0  0  0  0  0  0  0  0  0  0  0  0
    8.1410   -0.4276   18.3507 H   0  0  0  0  0  0  0  0  0  0  0  0
    6.6984   -0.0017   19.9145 C   0  0  0  0  0  0  0  0  0  0  0  0
    7.4258   -0.6565   20.9825 N   0  0  0  0  0  0  0  0  0  0  0  0
    8.7996   -0.5826   21.1868 C   0  0  0  0  0  0  0  0  0  0  0  0
    9.5842    0.0047   20.4872 O   0  0  0  0  0  0  0  0  0  0  0  0
    9.0638   -1.4112   22.4661 C   0  0  0  0  0  0  0  0  0  0  0  0
   10.1090   -1.6706   23.0016 O   0  0  0  0  0  0  0  0  0  0  0  0
    7.8142   -1.8537   22.8726 N   0  0  0  0  0  0  0  0  0  0  0  0
    7.5511   -2.4288   24.1627 C   0  0  0  0  0  0  0  0  0  0  0  0
    7.9706   -1.7383   25.2778 C   0  0  0  0  0  0  0  0  0  0  0  0
    8.5191   -0.8168   25.1353 H   0  0  0  0  0  0  0  0  0  0  0  0
    7.7102   -2.2044   26.5927 C   0  0  0  0  0  0  0  0  0  0  0  0
    8.0524   -1.6169   27.4432 H   0  0  0  0  0  0  0  0  0  0  0  0
    7.0408   -3.3898   26.7746 C   0  0  0  0  0  0  0  0  0  0  0  0
    6.8053   -3.8132   27.7452 H   0  0  0  0  0  0  0  0  0  0  0  0
    6.6180   -4.1498   25.6471 C   0  0  0  0  0  0  0  0  0  0  0  0
    5.9570   -5.3180   25.9236 N   0  0  0  0  0  0  0  0  0  0  0  0
    5.5681   -6.0616   24.9176 C   0  0  0  0  0  0  0  0  0  0  0  0
    5.0458   -6.9867   25.1719 H   0  0  0  0  0  0  0  0  0  0  0  0
    5.8010   -5.7233   23.5596 C   0  0  0  0  0  0  0  0  0  0  0  0
    5.4451   -6.3918   22.7873 H   0  0  0  0  0  0  0  0  0  0  0  0
    6.4567   -4.5525   23.2579 C   0  0  0  0  0  0  0  0  0  0  0  0
    6.6330   -4.2588   22.2291 H   0  0  0  0  0  0  0  0  0  0  0  0
    6.8822   -3.6906   24.3153 C   0  0  0  0  0  0  0  0  0  0  0  0
    6.8689   -1.5571   21.8963 C   0  0  0  0  0  0  0  0  0  0  0  0
    5.7790   -2.0514   21.7866 O   0  0  0  0  0  0  0  0  0  0  0  0
    5.4726    0.6194   20.1751 C   0  0  0  0  0  0  0  0  0  0  0  0
    5.0499    0.5761   21.1756 H   0  0  0  0  0  0  0  0  0  0  0  0
    4.8250    1.2893   19.1270 C   0  0  0  0  0  0  0  0  0  0  0  0
    3.8957    1.8238   19.2796 H   0  0  0  0  0  0  0  0  0  0  0  0
  1  2  1  0
  2  3  2  0
  3  4  1  0
  4  5  1  0
  4  6  2  0
  6  7  1  0
  7  8  1  0
  8  9  2  0
  8 10  1  0
 10 11  2  0
 10 12  1  0
 12 13  1  0
 13 14  2  0
 14 15  1  0
 14 16  1  0
 16 17  1  0
 16 18  2  0
 18 19  1  0
 18 20  1  0
 20 21  2  0
 21 22  1  0
 22 23  1  0
 22 24  2  0
 24 25  1  0
 24 26  1  0
 26 27  1  0
 26 28  2  0
 12 29  1  0
 29 30  2  0
  6 31  1  0
 31 32  1  0
 31 33  2  0
 33 34  1  0
 33  2  1  0
 29  7  1  0
 28 13  1  0
 28 20  1  0
M  END
>  <cnnaffinity>  (1) 
-5.39717

>  <filename>  (1) 
O=C1C(=O)N(c2cccc3ncccc23)C(=O)N1c1cccnc1

$$$$
