
     RDKit          3D

 48 51  0  0  0  0  0  0  0  0999 V2000
    8.4754    2.0899   26.9520 O   0  0  0  0  0  0  0  0  0  0  0  0
    8.5106    2.0380   25.7323 C   0  0  0  0  0  0  0  0  0  0  0  0
    7.3891    1.8013   24.8319 C   0  0  0  0  0  0  0  0  0  0  0  0
    7.5793    1.8221   23.4832 C   0  0  0  0  0  0  0  0  0  0  0  0
    8.9115    2.0305   22.9311 C   0  0  0  0  0  0  0  0  0  0  0  0
    9.1446    1.9686   21.4314 C   0  0  0  0  0  0  0  0  0  0  0  0
    9.5612    0.5624   20.8865 C   0  0  0  0  0  0  0  0  0  0  0  0
    8.6552   -0.5561   21.3231 C   0  0  0  0  0  0  0  0  0  0  0  0
    8.8617   -1.3891   22.3293 N   0  0  0  0  0  0  0  0  0  0  0  0
    7.6288   -1.9267   22.5520 C   0  0  0  0  0  0  0  0  0  0  0  0
    7.3514   -2.8248   23.7332 C   0  0  0  0  0  0  0  0  0  0  0  0
    6.7682   -2.0069   24.9406 C   0  0  0  0  0  0  0  0  0  0  0  0
    5.9298   -2.8532   25.9301 C   0  0  0  0  0  0  0  0  0  0  0  0
    6.4113   -4.3086   25.9933 C   0  0  0  0  0  0  0  0  0  0  0  0
    6.3084   -5.0054   24.6129 C   0  0  0  0  0  0  0  0  0  0  0  0
    6.4638   -4.0477   23.3995 C   0  0  0  0  0  0  0  0  0  0  0  0
    5.4766   -3.6821   23.0754 H   0  0  0  0  0  0  0  0  0  0  0  0
    6.8876   -4.6042   22.5540 H   0  0  0  0  0  0  0  0  0  0  0  0
    7.0677   -5.7983   24.5682 H   0  0  0  0  0  0  0  0  0  0  0  0
    5.3332   -5.5018   24.5259 H   0  0  0  0  0  0  0  0  0  0  0  0
    7.4563   -4.3250   26.3401 H   0  0  0  0  0  0  0  0  0  0  0  0
    5.8294   -4.8699   26.7368 H   0  0  0  0  0  0  0  0  0  0  0  0
    4.8708   -2.8396   25.6267 H   0  0  0  0  0  0  0  0  0  0  0  0
    5.9729   -2.3942   26.9263 H   0  0  0  0  0  0  0  0  0  0  0  0
    7.6173   -1.5554   25.4740 H   0  0  0  0  0  0  0  0  0  0  0  0
    6.1421   -1.1750   24.5823 H   0  0  0  0  0  0  0  0  0  0  0  0
    8.3428   -3.1929   24.0279 H   0  0  0  0  0  0  0  0  0  0  0  0
    6.6896   -1.5097   21.7233 N   0  0  0  0  0  0  0  0  0  0  0  0
    7.3649   -0.6675   20.8966 N   0  0  0  0  0  0  0  0  0  0  0  0
    6.6737   -0.0166   19.8438 C   0  0  0  0  0  0  0  0  0  0  0  0
    5.4610    0.6196   20.1148 C   0  0  0  0  0  0  0  0  0  0  0  0
    4.8310    1.3114   19.0781 C   0  0  0  0  0  0  0  0  0  0  0  0
    5.4175    1.3216   17.8076 C   0  0  0  0  0  0  0  0  0  0  0  0
    6.5511    0.6616   17.5261 N   0  0  0  0  0  0  0  0  0  0  0  0
    7.1561    0.0051   18.5240 C   0  0  0  0  0  0  0  0  0  0  0  0
    8.0590   -0.5412   18.2607 H   0  0  0  0  0  0  0  0  0  0  0  0
    4.9536    1.8672   16.9861 H   0  0  0  0  0  0  0  0  0  0  0  0
    3.8987    1.8364   19.2472 H   0  0  0  0  0  0  0  0  0  0  0  0
    5.0271    0.5467   21.1124 H   0  0  0  0  0  0  0  0  0  0  0  0
    9.5634    0.5996   19.7926 H   0  0  0  0  0  0  0  0  0  0  0  0
   10.5776    0.3135   21.2102 H   0  0  0  0  0  0  0  0  0  0  0  0
    8.2254    2.2743   20.9166 H   0  0  0  0  0  0  0  0  0  0  0  0
    9.9252    2.6897   21.1726 H   0  0  0  0  0  0  0  0  0  0  0  0
    9.9461    2.2130   23.7029 N   0  0  0  0  0  0  0  0  0  0  0  0
    9.7101    2.2202   25.0501 N   0  0  0  0  0  0  0  0  0  0  0  0
   10.4955    2.2512   25.6832 H   0  0  0  0  0  0  0  0  0  0  0  0
    6.7575    1.6707   22.7881 H   0  0  0  0  0  0  0  0  0  0  0  0
    6.4352    1.6096   25.3135 H   0  0  0  0  0  0  0  0  0  0  0  0
  1  2  2  0
  2  3  1  0
  3  4  2  0
  4  5  1  0
  5  6  1  0
  6  7  1  0
  7  8  1  0
  8  9  2  0
  9 10  1  0
 10 11  1  0
 11 12  1  0
 12 13  1  0
 13 14  1  0
 14 15  1  0
 15 16  1  0
 16 17  1  0
 16 18  1  0
 15 19  1  0
 15 20  1  0
 14 21  1  0
 14 22  1  0
 13 23  1  0
 13 24  1  0
 12 25  1  0
 12 26  1  0
 11 27  1  0
 10 28  2  0
 28 29  1  0
 29 30  1  0
 30 31  2  0
 31 32  1  0
 32 33  2  0
 33 34  1  0
 34 35  2  0
 35 36  1  0
 33 37  1  0
 32 38  1  0
 31 39  1  0
  7 40  1  0
  7 41  1  0
  6 42  1  0
  6 43  1  0
  5 44  2  0
 44 45  1  0
 45 46  1  0
  4 47  1  0
  3 48  1  0
 45  2  1  0
 29  8  1  0
 35 30  1  0
 16 11  1  0
M  END
>  <cnnaffinity>  (1) 
-6.14619

>  <filename>  (1) 
O=c1ccc(CCc2nc(C3CCCCC3)nn2-c2cccnc2)n[nH]1

$$$$
