
     RDKit          3D

 36 38  0  0  0  0  0  0  0  0999 V2000
    4.9197    1.7943   16.9856 H   0  0  0  0  0  0  0  0  0  0  0  0
    5.3979    1.3008   17.8280 C   0  0  0  0  0  0  0  0  0  0  0  0
    6.5628    0.6873   17.5654 N   0  0  0  0  0  0  0  0  0  0  0  0
    7.1845    0.0802   18.5833 C   0  0  0  0  0  0  0  0  0  0  0  0
    8.1240   -0.4221   18.3485 H   0  0  0  0  0  0  0  0  0  0  0  0
    6.6658    0.0261   19.8928 C   0  0  0  0  0  0  0  0  0  0  0  0
    7.3578   -0.6726   20.9463 N   0  0  0  0  0  0  0  0  0  0  0  0
    8.6580   -0.2749   21.2842 C   0  0  0  0  0  0  0  0  0  0  0  0
    9.0531    0.5610   20.7096 H   0  0  0  0  0  0  0  0  0  0  0  0
    9.3913   -0.8756   22.2563 C   0  0  0  0  0  0  0  0  0  0  0  0
   10.7196   -0.5250   22.5256 N   0  0  0  0  0  0  0  0  0  0  0  0
   11.1781   -1.0488   23.2638 H   0  0  0  0  0  0  0  0  0  0  0  0
   11.2965    0.7702   22.2029 C   0  0  0  0  0  0  0  0  0  0  0  0
   11.2871    0.8868   21.1064 H   0  0  0  0  0  0  0  0  0  0  0  0
   10.5768    1.9969   22.8181 C   0  0  0  0  0  0  0  0  0  0  0  0
    9.7554    2.3277   22.1696 H   0  0  0  0  0  0  0  0  0  0  0  0
   10.1261    1.7163   23.7771 H   0  0  0  0  0  0  0  0  0  0  0  0
   11.6576    3.0832   23.0374 C   0  0  0  0  0  0  0  0  0  0  0  0
   11.5280    3.9232   22.3426 H   0  0  0  0  0  0  0  0  0  0  0  0
   11.6022    3.5048   24.0461 H   0  0  0  0  0  0  0  0  0  0  0  0
   13.0185    2.3973   22.7758 C   0  0  0  0  0  0  0  0  0  0  0  0
   13.3655    2.7981   21.8277 H   0  0  0  0  0  0  0  0  0  0  0  0
   13.7896    2.6387   23.5148 H   0  0  0  0  0  0  0  0  0  0  0  0
   12.7388    0.8808   22.7033 C   0  0  0  0  0  0  0  0  0  0  0  0
   12.8110    0.4256   23.7037 H   0  0  0  0  0  0  0  0  0  0  0  0
   13.4329    0.3274   22.0576 H   0  0  0  0  0  0  0  0  0  0  0  0
    8.7360   -2.0161   23.0040 C   0  0  0  0  0  0  0  0  0  0  0  0
    9.1904   -2.6931   23.9078 O   0  0  0  0  0  0  0  0  0  0  0  0
    7.4697   -2.3179   22.5889 N   0  0  0  0  0  0  0  0  0  0  0  0
    7.0252   -3.0789   23.0612 H   0  0  0  0  0  0  0  0  0  0  0  0
    6.7276   -1.7515   21.6079 C   0  0  0  0  0  0  0  0  0  0  0  0
    5.6354   -2.2074   21.3613 O   0  0  0  0  0  0  0  0  0  0  0  0
    5.4460    0.6552   20.1525 C   0  0  0  0  0  0  0  0  0  0  0  0
    5.0170    0.6091   21.1527 H   0  0  0  0  0  0  0  0  0  0  0  0
    4.8115    1.3163   19.0973 C   0  0  0  0  0  0  0  0  0  0  0  0
    3.8771    1.8393   19.2499 H   0  0  0  0  0  0  0  0  0  0  0  0
  1  2  1  0
  2  3  2  0
  3  4  1  0
  4  5  1  0
  4  6  2  0
  6  7  1  0
  7  8  1  0
  8  9  1  0
  8 10  2  0
 10 11  1  0
 11 12  1  0
 11 13  1  0
 13 14  1  0
 13 15  1  0
 15 16  1  0
 15 17  1  0
 15 18  1  0
 18 19  1  0
 18 20  1  0
 18 21  1  0
 21 22  1  0
 21 23  1  0
 21 24  1  0
 24 25  1  0
 24 26  1  0
 10 27  1  0
 27 28  2  0
 27 29  1  0
 29 30  1  0
 29 31  1  0
 31 32  2  0
  6 33  1  0
 33 34  1  0
 33 35  2  0
 35 36  1  0
 35  2  1  0
 31  7  1  0
 24 13  1  0
M  END
>  <cnnaffinity>  (1) 
-4.97163

>  <filename>  (1) 
O=c1[nH]c(=O)n(-c2cccnc2)cc1NC1CCCC1

$$$$
