
     RDKit          3D

 37 40  0  0  0  0  0  0  0  0999 V2000
    4.9266    1.8361   16.9632 H   0  0  0  0  0  0  0  0  0  0  0  0
    5.3953    1.3268   17.8033 C   0  0  0  0  0  0  0  0  0  0  0  0
    6.5583    0.7087   17.5390 N   0  0  0  0  0  0  0  0  0  0  0  0
    7.1724    0.0739   18.5463 C   0  0  0  0  0  0  0  0  0  0  0  0
    8.1200   -0.4061   18.3030 H   0  0  0  0  0  0  0  0  0  0  0  0
    6.6499   -0.0082   19.8542 C   0  0  0  0  0  0  0  0  0  0  0  0
    7.3424   -0.7223   20.9168 N   0  0  0  0  0  0  0  0  0  0  0  0
    8.6248   -0.3253   21.2719 C   0  0  0  0  0  0  0  0  0  0  0  0
    9.0175    0.5291   20.7226 H   0  0  0  0  0  0  0  0  0  0  0  0
    9.3419   -0.9244   22.2592 C   0  0  0  0  0  0  0  0  0  0  0  0
   10.7127   -0.4873   22.5827 C   0  0  0  0  0  0  0  0  0  0  0  0
   11.7718   -1.3415   22.3127 C   0  0  0  0  0  0  0  0  0  0  0  0
   11.5533   -2.3430   21.9587 H   0  0  0  0  0  0  0  0  0  0  0  0
   13.1215   -0.9486   22.5092 C   0  0  0  0  0  0  0  0  0  0  0  0
   13.9299   -1.6420   22.2849 H   0  0  0  0  0  0  0  0  0  0  0  0
   13.4035    0.2908   23.0266 C   0  0  0  0  0  0  0  0  0  0  0  0
   14.4236    0.5840   23.2686 H   0  0  0  0  0  0  0  0  0  0  0  0
   12.3533    1.2120   23.3117 C   0  0  0  0  0  0  0  0  0  0  0  0
   12.6501    2.5180   23.7979 C   0  0  0  0  0  0  0  0  0  0  0  0
   13.6930    2.8121   23.8786 H   0  0  0  0  0  0  0  0  0  0  0  0
   11.6516    3.3933   24.1458 C   0  0  0  0  0  0  0  0  0  0  0  0
   11.8904    4.3719   24.5549 H   0  0  0  0  0  0  0  0  0  0  0  0
   10.2951    3.0202   23.9796 C   0  0  0  0  0  0  0  0  0  0  0  0
    9.5138    3.7299   24.2353 H   0  0  0  0  0  0  0  0  0  0  0  0
    9.9703    1.7780   23.4780 C   0  0  0  0  0  0  0  0  0  0  0  0
    8.9255    1.5108   23.3467 H   0  0  0  0  0  0  0  0  0  0  0  0
   10.9847    0.8289   23.1160 C   0  0  0  0  0  0  0  0  0  0  0  0
    8.7377   -2.0603   22.9848 C   0  0  0  0  0  0  0  0  0  0  0  0
    9.2176   -2.7487   23.8597 O   0  0  0  0  0  0  0  0  0  0  0  0
    7.4441   -2.3335   22.6046 N   0  0  0  0  0  0  0  0  0  0  0  0
    6.9973   -3.0804   23.0976 H   0  0  0  0  0  0  0  0  0  0  0  0
    6.7056   -1.7842   21.6072 C   0  0  0  0  0  0  0  0  0  0  0  0
    5.6091   -2.2240   21.3501 O   0  0  0  0  0  0  0  0  0  0  0  0
    5.4358    0.6423   20.1120 C   0  0  0  0  0  0  0  0  0  0  0  0
    5.0090    0.6035   21.1119 H   0  0  0  0  0  0  0  0  0  0  0  0
    4.7969    1.3272   19.0679 C   0  0  0  0  0  0  0  0  0  0  0  0
    3.8560    1.8567   19.2161 H   0  0  0  0  0  0  0  0  0  0  0  0
  1  2  1  0
  2  3  2  0
  3  4  1  0
  4  5  1  0
  4  6  2  0
  6  7  1  0
  7  8  1  0
  8  9  1  0
  8 10  2  0
 10 11  1  0
 11 12  2  0
 12 13  1  0
 12 14  1  0
 14 15  1  0
 14 16  2  0
 16 17  1  0
 16 18  1  0
 18 19  2  0
 19 20  1  0
 19 21  1  0
 21 22  1  0
 21 23  2  0
 23 24  1  0
 23 25  1  0
 25 26  1  0
 25 27  2  0
 10 28  1  0
 28 29  2  0
 28 30  1  0
 30 31  1  0
 30 32  1  0
 32 33  2  0
  6 34  1  0
 34 35  1  0
 34 36  2  0
 36 37  1  0
 36  2  1  0
 32  7  1  0
 27 11  1  0
 27 18  1  0
M  END
>  <cnnaffinity>  (1) 
-5.36193

>  <filename>  (1) 
O=c1[nH]c(=O)n(-c2cccnc2)cc1-c1cccc2ccccc12

$$$$
