
     RDKit          3D

 42 45  0  0  0  0  0  0  0  0999 V2000
   14.4738   -1.7144   22.2761 O   0  0  0  0  0  0  0  0  0  0  0  0
   13.4483   -1.0655   22.1990 C   0  0  0  0  0  0  0  0  0  0  0  0
   13.2167    0.2622   22.7439 C   0  0  0  0  0  0  0  0  0  0  0  0
   12.0628    0.9264   22.4728 C   0  0  0  0  0  0  0  0  0  0  0  0
   11.0324    0.3486   21.6462 C   0  0  0  0  0  0  0  0  0  0  0  0
    9.8319    1.2236   21.3051 C   0  0  0  0  0  0  0  0  0  0  0  0
    8.7225    1.1936   22.3147 C   0  0  0  0  0  0  0  0  0  0  0  0
    8.6575    1.9199   23.4096 N   0  0  0  0  0  0  0  0  0  0  0  0
    7.5045    1.4972   24.0039 C   0  0  0  0  0  0  0  0  0  0  0  0
    7.0668    2.0162   25.3447 C   0  0  0  0  0  0  0  0  0  0  0  0
    7.8309    2.9946   26.0173 C   0  0  0  0  0  0  0  0  0  0  0  0
    7.4250    3.4485   27.2703 C   0  0  0  0  0  0  0  0  0  0  0  0
    6.3212    3.0121   27.8969 N   0  0  0  0  0  0  0  0  0  0  0  0
    5.6069    2.0918   27.2678 C   0  0  0  0  0  0  0  0  0  0  0  0
    4.1794    1.5258   28.0883 Cl  0  0  0  0  0  0  0  0  0  0  0  0
    5.9162    1.5514   26.0113 C   0  0  0  0  0  0  0  0  0  0  0  0
    5.2807    0.7821   25.5912 H   0  0  0  0  0  0  0  0  0  0  0  0
    8.0135    4.1990   27.7960 H   0  0  0  0  0  0  0  0  0  0  0  0
    8.7346    3.3816   25.5655 H   0  0  0  0  0  0  0  0  0  0  0  0
    6.8540    0.5752   23.3114 N   0  0  0  0  0  0  0  0  0  0  0  0
    7.6460    0.3821   22.2341 N   0  0  0  0  0  0  0  0  0  0  0  0
    7.2927   -0.5522   21.1705 C   0  0  0  0  0  0  0  0  0  0  0  0
    6.6515    0.1046   19.9604 C   0  0  0  0  0  0  0  0  0  0  0  0
    5.4389    0.7875   20.1157 C   0  0  0  0  0  0  0  0  0  0  0  0
    4.8567    1.3756   18.9927 C   0  0  0  0  0  0  0  0  0  0  0  0
    5.5029    1.2697   17.7582 C   0  0  0  0  0  0  0  0  0  0  0  0
    6.6585    0.6114   17.5850 N   0  0  0  0  0  0  0  0  0  0  0  0
    7.2104    0.0542   18.6723 C   0  0  0  0  0  0  0  0  0  0  0  0
    8.1493   -0.4726   18.4928 H   0  0  0  0  0  0  0  0  0  0  0  0
    5.0752    1.7365   16.8721 H   0  0  0  0  0  0  0  0  0  0  0  0
    3.9281    1.9295   19.0648 H   0  0  0  0  0  0  0  0  0  0  0  0
    4.9680    0.8604   21.0986 H   0  0  0  0  0  0  0  0  0  0  0  0
    6.6141   -1.2839   21.6229 H   0  0  0  0  0  0  0  0  0  0  0  0
    8.2059   -1.0808   20.8788 H   0  0  0  0  0  0  0  0  0  0  0  0
    9.4258    0.9965   20.3146 H   0  0  0  0  0  0  0  0  0  0  0  0
   10.1703    2.2624   21.2418 H   0  0  0  0  0  0  0  0  0  0  0  0
   11.1929   -0.9386   21.2259 C   0  0  0  0  0  0  0  0  0  0  0  0
   12.3594   -1.6123   21.5245 N   0  0  0  0  0  0  0  0  0  0  0  0
   12.6113   -2.5390   21.2052 H   0  0  0  0  0  0  0  0  0  0  0  0
   10.4485   -1.4697   20.6384 H   0  0  0  0  0  0  0  0  0  0  0  0
   11.8938    1.9216   22.8866 H   0  0  0  0  0  0  0  0  0  0  0  0
   14.0131    0.6618   23.3550 H   0  0  0  0  0  0  0  0  0  0  0  0
  1  2  2  0
  2  3  1  0
  3  4  2  0
  4  5  1  0
  5  6  1  0
  6  7  1  0
  7  8  2  0
  8  9  1  0
  9 10  1  0
 10 11  2  0
 11 12  1  0
 12 13  2  0
 13 14  1  0
 14 15  1  0
 14 16  2  0
 16 17  1  0
 12 18  1  0
 11 19  1  0
  9 20  2  0
 20 21  1  0
 21 22  1  0
 22 23  1  0
 23 24  2  0
 24 25  1  0
 25 26  2  0
 26 27  1  0
 27 28  2  0
 28 29  1  0
 26 30  1  0
 25 31  1  0
 24 32  1  0
 22 33  1  0
 22 34  1  0
  6 35  1  0
  6 36  1  0
  5 37  2  0
 37 38  1  0
 38 39  1  0
 37 40  1  0
  4 41  1  0
  3 42  1  0
 38  2  1  0
 21  7  1  0
 28 23  1  0
 16 10  1  0
M  END
>  <cnnaffinity>  (1) 
-6.64607

>  <filename>  (1) 
O=c1ccc(Cc2nc(-c3ccnc(Cl)c3)nn2Cc2cccnc2)c[nH]1

$$$$
