
     RDKit          3D

 35 38  0  0  0  0  0  0  0  0999 V2000
    4.9123    1.8064   16.9769 H   0  0  0  0  0  0  0  0  0  0  0  0
    5.3833    1.3054   17.8219 C   0  0  0  0  0  0  0  0  0  0  0  0
    6.5486    0.6902   17.5580 N   0  0  0  0  0  0  0  0  0  0  0  0
    7.1523    0.0650   18.5739 C   0  0  0  0  0  0  0  0  0  0  0  0
    8.1114   -0.3961   18.3339 H   0  0  0  0  0  0  0  0  0  0  0  0
    6.6430    0.0053   19.8865 C   0  0  0  0  0  0  0  0  0  0  0  0
    7.3715   -0.6837   20.9603 C   0  0  0  0  0  0  0  0  0  0  0  0
    7.7097   -0.2636   22.2345 C   0  0  0  0  0  0  0  0  0  0  0  0
    7.5338    1.0968   22.8558 C   0  0  0  0  0  0  0  0  0  0  0  0
    6.8218    1.6982   22.2877 H   0  0  0  0  0  0  0  0  0  0  0  0
    8.4808    1.6442   22.8560 H   0  0  0  0  0  0  0  0  0  0  0  0
    7.0845    1.0185   24.2318 N   0  0  0  0  0  0  0  0  0  0  0  0
    7.9318    0.9427   25.3268 C   0  0  0  0  0  0  0  0  0  0  0  0
    9.1208    1.1567   25.2647 O   0  0  0  0  0  0  0  0  0  0  0  0
    7.0771    0.5501   26.4907 C   0  0  0  0  0  0  0  0  0  0  0  0
    7.3995    0.3528   27.8363 C   0  0  0  0  0  0  0  0  0  0  0  0
    8.4228    0.4741   28.1924 H   0  0  0  0  0  0  0  0  0  0  0  0
    6.3626   -0.0111   28.7042 C   0  0  0  0  0  0  0  0  0  0  0  0
    6.5679   -0.1724   29.7602 H   0  0  0  0  0  0  0  0  0  0  0  0
    5.0435   -0.1788   28.2328 C   0  0  0  0  0  0  0  0  0  0  0  0
    4.2662   -0.4726   28.9351 H   0  0  0  0  0  0  0  0  0  0  0  0
    4.7287    0.0292   26.8848 C   0  0  0  0  0  0  0  0  0  0  0  0
    3.7071   -0.0883   26.5272 H   0  0  0  0  0  0  0  0  0  0  0  0
    5.7659    0.4054   26.0248 C   0  0  0  0  0  0  0  0  0  0  0  0
    5.7636    0.7906   24.5769 C   0  0  0  0  0  0  0  0  0  0  0  0
    4.8387    0.9711   23.8181 O   0  0  0  0  0  0  0  0  0  0  0  0
    8.4101   -1.3579   22.7937 C   0  0  0  0  0  0  0  0  0  0  0  0
    8.8766   -1.4299   23.7695 H   0  0  0  0  0  0  0  0  0  0  0  0
    8.5038   -2.3759   21.9456 N   0  0  0  0  0  0  0  0  0  0  0  0
    7.8758   -1.9387   20.8410 N   0  0  0  0  0  0  0  0  0  0  0  0
    7.7810   -2.5427   20.0353 H   0  0  0  0  0  0  0  0  0  0  0  0
    5.4266    0.6542   20.1419 C   0  0  0  0  0  0  0  0  0  0  0  0
    5.0087    0.6377   21.1506 H   0  0  0  0  0  0  0  0  0  0  0  0
    4.7896    1.3135   19.0892 C   0  0  0  0  0  0  0  0  0  0  0  0
    3.8619    1.8499   19.2413 H   0  0  0  0  0  0  0  0  0  0  0  0
  1  2  1  0
  2  3  2  0
  3  4  1  0
  4  5  1  0
  4  6  2  0
  6  7  1  0
  7  8  2  0
  8  9  1  0
  9 10  1  0
  9 11  1  0
  9 12  1  0
 12 13  1  0
 13 14  2  0
 13 15  1  0
 15 16  2  0
 16 17  1  0
 16 18  1  0
 18 19  1  0
 18 20  2  0
 20 21  1  0
 20 22  1  0
 22 23  1  0
 22 24  2  0
 24 25  1  0
 25 26  2  0
  8 27  1  0
 27 28  1  0
 27 29  2  0
 29 30  1  0
 30 31  1  0
  6 32  1  0
 32 33  1  0
 32 34  2  0
 34 35  1  0
 34  2  1  0
 30  7  1  0
 25 12  1  0
 24 15  1  0
M  END
>  <cnnaffinity>  (1) 
-5.2847

>  <filename>  (1) 
O=C1c2ccccc2C(=O)N1Cc1cn[nH]c1-c1cccnc1

$$$$
