
     RDKit          3D

 35 37  0  0  0  0  0  0  0  0999 V2000
    4.9405    1.7748   17.0068 H   0  0  0  0  0  0  0  0  0  0  0  0
    5.4109    1.2773   17.8519 C   0  0  0  0  0  0  0  0  0  0  0  0
    6.5682    0.6565   17.5939 N   0  0  0  0  0  0  0  0  0  0  0  0
    7.1921    0.0597   18.6119 C   0  0  0  0  0  0  0  0  0  0  0  0
    8.1398   -0.4187   18.3714 H   0  0  0  0  0  0  0  0  0  0  0  0
    6.6859    0.0170   19.9158 C   0  0  0  0  0  0  0  0  0  0  0  0
    7.4729   -0.7003   20.9360 C   0  0  0  0  0  0  0  0  0  0  0  0
    8.7778   -0.6652   20.8504 N   0  0  0  0  0  0  0  0  0  0  0  0
    9.4947   -1.3011   21.8279 C   0  0  0  0  0  0  0  0  0  0  0  0
   10.7024   -1.3576   21.9266 O   0  0  0  0  0  0  0  0  0  0  0  0
    8.7882   -1.9827   22.8326 N   0  0  0  0  0  0  0  0  0  0  0  0
    9.4707   -2.3794   23.4532 H   0  0  0  0  0  0  0  0  0  0  0  0
    7.4342   -2.0335   22.9497 C   0  0  0  0  0  0  0  0  0  0  0  0
    6.7468   -2.7331   24.1363 C   0  0  0  0  0  0  0  0  0  0  0  0
    6.1662   -3.5717   23.7337 H   0  0  0  0  0  0  0  0  0  0  0  0
    7.5233   -3.1715   24.7811 H   0  0  0  0  0  0  0  0  0  0  0  0
    5.8249   -1.9563   24.9723 N   0  0  0  0  0  0  0  0  0  0  0  0
    4.8599   -1.9278   24.6755 H   0  0  0  0  0  0  0  0  0  0  0  0
    6.2086   -0.7781   25.6053 C   0  0  0  0  0  0  0  0  0  0  0  0
    7.5526   -0.4998   25.9080 C   0  0  0  0  0  0  0  0  0  0  0  0
    8.3214   -1.1780   25.5577 H   0  0  0  0  0  0  0  0  0  0  0  0
    7.8871    0.6220   26.6697 C   0  0  0  0  0  0  0  0  0  0  0  0
    8.9301    0.7993   26.9180 H   0  0  0  0  0  0  0  0  0  0  0  0
    6.8938    1.4931   27.1217 C   0  0  0  0  0  0  0  0  0  0  0  0
    7.1624    2.3568   27.7215 H   0  0  0  0  0  0  0  0  0  0  0  0
    5.5575    1.2401   26.7929 C   0  0  0  0  0  0  0  0  0  0  0  0
    4.7777    1.9092   27.1445 H   0  0  0  0  0  0  0  0  0  0  0  0
    5.2134    0.1219   26.0306 C   0  0  0  0  0  0  0  0  0  0  0  0
    4.1768   -0.0858   25.7741 H   0  0  0  0  0  0  0  0  0  0  0  0
    6.7594   -1.4083   21.9397 C   0  0  0  0  0  0  0  0  0  0  0  0
    5.6869   -1.4352   21.9130 H   0  0  0  0  0  0  0  0  0  0  0  0
    5.4528    0.6454   20.1696 C   0  0  0  0  0  0  0  0  0  0  0  0
    5.0051    0.6461   21.1662 H   0  0  0  0  0  0  0  0  0  0  0  0
    4.8199    1.2998   19.1180 C   0  0  0  0  0  0  0  0  0  0  0  0
    3.8894    1.8296   19.2592 H   0  0  0  0  0  0  0  0  0  0  0  0
  1  2  1  0
  2  3  2  0
  3  4  1  0
  4  5  1  0
  4  6  2  0
  6  7  1  0
  7  8  2  0
  8  9  1  0
  9 10  2  0
  9 11  1  0
 11 12  1  0
 11 13  1  0
 13 14  1  0
 14 15  1  0
 14 16  1  0
 14 17  1  0
 17 18  1  0
 17 19  1  0
 19 20  2  0
 20 21  1  0
 20 22  1  0
 22 23  1  0
 22 24  2  0
 24 25  1  0
 24 26  1  0
 26 27  1  0
 26 28  2  0
 28 29  1  0
 13 30  2  0
 30 31  1  0
  6 32  1  0
 32 33  1  0
 32 34  2  0
 34 35  1  0
 34  2  1  0
 30  7  1  0
 28 19  1  0
M  END
>  <cnnaffinity>  (1) 
-5.07616

>  <filename>  (1) 
O=c1nc(-c2cccnc2)cc(CNc2ccccc2)[nH]1

$$$$
