
     RDKit          3D

 49 52  0  0  0  0  0  0  0  0999 V2000
   11.2307    4.0330   22.5923 O   0  0  0  0  0  0  0  0  0  0  0  0
   11.2523    2.9642   23.1414 C   0  0  0  0  0  0  0  0  0  0  0  0
   12.3946    2.3347   23.5426 O   0  0  0  0  0  0  0  0  0  0  0  0
   12.0359    1.3543   24.5135 C   0  0  0  0  0  0  0  0  0  0  0  0
   10.6059    0.9594   24.1723 C   0  0  0  0  0  0  0  0  0  0  0  0
   10.1768    2.1709   23.4987 N   0  0  0  0  0  0  0  0  0  0  0  0
    8.9003    2.2680   22.8087 C   0  0  0  0  0  0  0  0  0  0  0  0
    9.0149    2.0195   21.2946 C   0  0  0  0  0  0  0  0  0  0  0  0
    9.5132    0.6070   20.9189 C   0  0  0  0  0  0  0  0  0  0  0  0
    8.6332   -0.5006   21.4062 C   0  0  0  0  0  0  0  0  0  0  0  0
    8.8578   -1.3607   22.3854 N   0  0  0  0  0  0  0  0  0  0  0  0
    7.6576   -1.9836   22.5373 C   0  0  0  0  0  0  0  0  0  0  0  0
    7.4049   -2.9615   23.6459 C   0  0  0  0  0  0  0  0  0  0  0  0
    6.6337   -2.2920   24.8207 C   0  0  0  0  0  0  0  0  0  0  0  0
    6.1386   -3.2925   25.8364 C   0  0  0  0  0  0  0  0  0  0  0  0
    6.0829   -4.6058   25.6161 C   0  0  0  0  0  0  0  0  0  0  0  0
    6.5238   -5.2515   24.3215 C   0  0  0  0  0  0  0  0  0  0  0  0
    6.6747   -4.2389   23.1704 C   0  0  0  0  0  0  0  0  0  0  0  0
    7.2192   -4.7024   22.3389 H   0  0  0  0  0  0  0  0  0  0  0  0
    5.6865   -3.9509   22.7845 H   0  0  0  0  0  0  0  0  0  0  0  0
    5.8105   -6.0361   24.0404 H   0  0  0  0  0  0  0  0  0  0  0  0
    7.4775   -5.7743   24.4958 H   0  0  0  0  0  0  0  0  0  0  0  0
    5.7278   -5.2702   26.4059 H   0  0  0  0  0  0  0  0  0  0  0  0
    5.7899   -2.8864   26.7870 H   0  0  0  0  0  0  0  0  0  0  0  0
    7.2780   -1.5563   25.3199 H   0  0  0  0  0  0  0  0  0  0  0  0
    5.7786   -1.7181   24.4345 H   0  0  0  0  0  0  0  0  0  0  0  0
    8.3994   -3.2393   24.0128 H   0  0  0  0  0  0  0  0  0  0  0  0
    6.7197   -1.5854   21.6980 N   0  0  0  0  0  0  0  0  0  0  0  0
    7.3613   -0.6549   20.9443 N   0  0  0  0  0  0  0  0  0  0  0  0
    6.6678    0.0022   19.8914 C   0  0  0  0  0  0  0  0  0  0  0  0
    5.4497    0.6331   20.1523 C   0  0  0  0  0  0  0  0  0  0  0  0
    4.8246    1.3078   19.1011 C   0  0  0  0  0  0  0  0  0  0  0  0
    5.4154    1.3047   17.8304 C   0  0  0  0  0  0  0  0  0  0  0  0
    6.5628    0.6626   17.5637 N   0  0  0  0  0  0  0  0  0  0  0  0
    7.1668    0.0288   18.5760 C   0  0  0  0  0  0  0  0  0  0  0  0
    8.0924   -0.4911   18.3371 H   0  0  0  0  0  0  0  0  0  0  0  0
    4.9471    1.8230   16.9956 H   0  0  0  0  0  0  0  0  0  0  0  0
    3.8898    1.8317   19.2545 H   0  0  0  0  0  0  0  0  0  0  0  0
    5.0237    0.5849   21.1564 H   0  0  0  0  0  0  0  0  0  0  0  0
    9.5783    0.5331   19.8299 H   0  0  0  0  0  0  0  0  0  0  0  0
   10.5231    0.4379   21.3043 H   0  0  0  0  0  0  0  0  0  0  0  0
    9.7201    2.7576   20.8999 H   0  0  0  0  0  0  0  0  0  0  0  0
    8.0426    2.2053   20.8201 H   0  0  0  0  0  0  0  0  0  0  0  0
    8.4806    3.2629   23.0001 H   0  0  0  0  0  0  0  0  0  0  0  0
    8.2150    1.5367   23.2644 H   0  0  0  0  0  0  0  0  0  0  0  0
    9.9966    0.7670   25.0629 H   0  0  0  0  0  0  0  0  0  0  0  0
   10.5453    0.0667   23.5293 H   0  0  0  0  0  0  0  0  0  0  0  0
   12.0560    1.8502   25.4825 H   0  0  0  0  0  0  0  0  0  0  0  0
   12.7645    0.5437   24.4927 H   0  0  0  0  0  0  0  0  0  0  0  0
  1  2  2  0
  2  3  1  0
  3  4  1  0
  4  5  1  0
  5  6  1  0
  6  7  1  0
  7  8  1  0
  8  9  1  0
  9 10  1  0
 10 11  2  0
 11 12  1  0
 12 13  1  0
 13 14  1  0
 14 15  1  0
 15 16  2  0
 16 17  1  0
 17 18  1  0
 18 19  1  0
 18 20  1  0
 17 21  1  0
 17 22  1  0
 16 23  1  0
 15 24  1  0
 14 25  1  0
 14 26  1  0
 13 27  1  0
 12 28  2  0
 28 29  1  0
 29 30  1  0
 30 31  2  0
 31 32  1  0
 32 33  2  0
 33 34  1  0
 34 35  2  0
 35 36  1  0
 33 37  1  0
 32 38  1  0
 31 39  1  0
  9 40  1  0
  9 41  1  0
  8 42  1  0
  8 43  1  0
  7 44  1  0
  7 45  1  0
  5 46  1  0
  5 47  1  0
  4 48  1  0
  4 49  1  0
  6  2  1  0
 29 10  1  0
 35 30  1  0
 18 13  1  0
M  END
>  <cnnaffinity>  (1) 
-5.95998

>  <filename>  (1) 
O=C1OCCN1CCCc1nc(C2CC=CCC2)nn1-c1cccnc1

$$$$
