
     RDKit          3D

 28 30  0  0  0  0  0  0  0  0999 V2000
    4.9747    1.7805   16.9645 H   0  0  0  0  0  0  0  0  0  0  0  0
    5.4323    1.3065   17.8378 C   0  0  0  0  0  0  0  0  0  0  0  0
    6.5969    0.6709   17.6390 N   0  0  0  0  0  0  0  0  0  0  0  0
    7.1582    0.0704   18.6956 C   0  0  0  0  0  0  0  0  0  0  0  0
    8.1046   -0.4310   18.4975 H   0  0  0  0  0  0  0  0  0  0  0  0
    6.6296    0.0716   20.0035 C   0  0  0  0  0  0  0  0  0  0  0  0
    7.3615   -0.6298   21.0690 C   0  0  0  0  0  0  0  0  0  0  0  0
    8.0005   -1.8091   21.0446 C   0  0  0  0  0  0  0  0  0  0  0  0
    8.0682   -2.6165   20.3484 H   0  0  0  0  0  0  0  0  0  0  0  0
    8.5316   -2.1028   22.2667 O   0  0  0  0  0  0  0  0  0  0  0  0
    8.2002   -1.1173   23.1469 C   0  0  0  0  0  0  0  0  0  0  0  0
    8.4895   -1.1345   24.3141 O   0  0  0  0  0  0  0  0  0  0  0  0
    7.4882   -0.1815   22.4054 N   0  0  0  0  0  0  0  0  0  0  0  0
    7.0579    1.0414   22.9742 C   0  0  0  0  0  0  0  0  0  0  0  0
    6.1324    1.0048   24.0269 C   0  0  0  0  0  0  0  0  0  0  0  0
    5.8210    0.0307   24.4010 H   0  0  0  0  0  0  0  0  0  0  0  0
    5.6569    2.1827   24.5937 C   0  0  0  0  0  0  0  0  0  0  0  0
    4.9199    2.1526   25.3848 H   0  0  0  0  0  0  0  0  0  0  0  0
    6.1364    3.4061   24.1225 C   0  0  0  0  0  0  0  0  0  0  0  0
    5.5496    4.8779   24.8220 Cl  0  0  0  0  0  0  0  0  0  0  0  0
    7.0641    3.4677   23.0870 C   0  0  0  0  0  0  0  0  0  0  0  0
    7.4032    4.4241   22.7115 H   0  0  0  0  0  0  0  0  0  0  0  0
    7.5260    2.2851   22.5087 C   0  0  0  0  0  0  0  0  0  0  0  0
    8.6868    2.3964   21.2265 Cl  0  0  0  0  0  0  0  0  0  0  0  0
    5.4064    0.7458   20.1906 C   0  0  0  0  0  0  0  0  0  0  0  0
    4.9496    0.7965   21.1823 H   0  0  0  0  0  0  0  0  0  0  0  0
    4.8026    1.3559   19.0881 C   0  0  0  0  0  0  0  0  0  0  0  0
    3.8493    1.8631   19.1690 H   0  0  0  0  0  0  0  0  0  0  0  0
  1  2  1  0
  2  3  2  0
  3  4  1  0
  4  5  1  0
  4  6  2  0
  6  7  1  0
  7  8  2  0
  8  9  1  0
  8 10  1  0
 10 11  1  0
 11 12  2  0
 11 13  1  0
 13 14  1  0
 14 15  2  0
 15 16  1  0
 15 17  1  0
 17 18  1  0
 17 19  2  0
 19 20  1  0
 19 21  1  0
 21 22  1  0
 21 23  2  0
 23 24  1  0
  6 25  1  0
 25 26  1  0
 25 27  2  0
 27 28  1  0
 27  2  1  0
 13  7  1  0
 23 14  1  0
M  END
>  <cnnaffinity>  (1) 
-5.05573

>  <filename>  (1) 
O=c1occ(-c2cccnc2)n1-c1ccc(Cl)cc1Cl

$$$$
