
     RDKit          3D

 33 35  0  0  0  0  0  0  0  0999 V2000
    4.9481    1.7816   16.9741 H   0  0  0  0  0  0  0  0  0  0  0  0
    5.4311    1.3142   17.8302 C   0  0  0  0  0  0  0  0  0  0  0  0
    6.6180    0.7322   17.5996 N   0  0  0  0  0  0  0  0  0  0  0  0
    7.2298    0.1486   18.6411 C   0  0  0  0  0  0  0  0  0  0  0  0
    8.1893   -0.3174   18.4236 H   0  0  0  0  0  0  0  0  0  0  0  0
    6.6882    0.0861   19.9336 C   0  0  0  0  0  0  0  0  0  0  0  0
    7.3744   -0.6442   21.0660 C   0  0  1  0  0  0  0  0  0  0  0  0
    6.7857   -0.4842   21.9825 H   0  0  0  0  0  0  0  0  0  0  0  0
    7.5285   -2.1792   20.8758 C   0  0  0  0  0  0  0  0  0  0  0  0
    6.6833   -3.0128   20.6985 O   0  0  0  0  0  0  0  0  0  0  0  0
    8.8769   -2.4092   20.9893 N   0  0  0  0  0  0  0  0  0  0  0  0
    9.3434   -3.2495   20.7207 H   0  0  0  0  0  0  0  0  0  0  0  0
    9.6211   -1.2944   21.2106 C   0  0  0  0  0  0  0  0  0  0  0  0
   10.8266   -1.2903   21.3219 O   0  0  0  0  0  0  0  0  0  0  0  0
    8.7761   -0.2359   21.2610 N   0  0  0  0  0  0  0  0  0  0  0  0
    9.1882    1.0654   21.4929 C   0  0  0  0  0  0  0  0  0  0  0  0
    8.4306    1.9799   21.2427 O   0  0  0  0  0  0  0  0  0  0  0  0
   10.4262    1.1745   22.0401 N   0  0  0  0  0  0  0  0  0  0  0  0
   11.0245    0.3697   21.8973 H   0  0  0  0  0  0  0  0  0  0  0  0
   10.9369    2.3366   22.5788 C   0  0  0  0  0  0  0  0  0  0  0  0
   12.2977    2.6049   22.4881 C   0  0  0  0  0  0  0  0  0  0  0  0
   12.9591    1.9018   21.9990 H   0  0  0  0  0  0  0  0  0  0  0  0
   12.7579    3.8118   23.0123 C   0  0  0  0  0  0  0  0  0  0  0  0
   13.8119    4.0745   22.9138 H   0  0  0  0  0  0  0  0  0  0  0  0
   11.9771    4.7022   23.6432 N   0  0  0  0  0  0  0  0  0  0  0  0
   10.6722    4.3967   23.7430 C   0  0  0  0  0  0  0  0  0  0  0  0
   10.0286    5.1168   24.2497 H   0  0  0  0  0  0  0  0  0  0  0  0
   10.1039    3.2392   23.2318 C   0  0  0  0  0  0  0  0  0  0  0  0
    9.0467    3.0401   23.2999 H   0  0  0  0  0  0  0  0  0  0  0  0
    5.4481    0.7006   20.1499 C   0  0  0  0  0  0  0  0  0  0  0  0
    4.9944    0.7067   21.1444 H   0  0  0  0  0  0  0  0  0  0  0  0
    4.8074    1.3292   19.0809 C   0  0  0  0  0  0  0  0  0  0  0  0
    3.8508    1.8269   19.2056 H   0  0  0  0  0  0  0  0  0  0  0  0
  1  2  1  0
  2  3  2  0
  3  4  1  0
  4  5  1  0
  4  6  2  0
  6  7  1  0
  7  8  1  1
  7  9  1  0
  9 10  2  0
  9 11  1  0
 11 12  1  0
 11 13  1  0
 13 14  2  0
 13 15  1  0
 15 16  1  0
 16 17  2  0
 16 18  1  0
 18 19  1  0
 18 20  1  0
 20 21  2  0
 21 22  1  0
 21 23  1  0
 23 24  1  0
 23 25  2  0
 25 26  1  0
 26 27  1  0
 26 28  2  0
 28 29  1  0
  6 30  1  0
 30 31  1  0
 30 32  2  0
 32 33  1  0
 32  2  1  0
 15  7  1  0
 28 20  1  0
M  END
>  <cnnaffinity>  (1) 
-5.43017

>  <filename>  (1) 
O=C1NC(=O)N(C(=O)Nc2ccncc2)[C@H]1c1cccnc1

$$$$
