
     RDKit          3D

 22 23  0  0  0  0  0  0  0  0999 V2000
    4.9288    1.8155   16.9705 H   0  0  0  0  0  0  0  0  0  0  0  0
    5.3930    1.2948   17.8071 C   0  0  0  0  0  0  0  0  0  0  0  0
    6.5519    0.6671   17.5449 N   0  0  0  0  0  0  0  0  0  0  0  0
    7.1585    0.0310   18.5527 C   0  0  0  0  0  0  0  0  0  0  0  0
    8.1242   -0.4116   18.3139 H   0  0  0  0  0  0  0  0  0  0  0  0
    6.6427   -0.0171   19.8680 C   0  0  0  0  0  0  0  0  0  0  0  0
    7.3139   -0.6676   20.9400 N   0  0  0  0  0  0  0  0  0  0  0  0
    7.4637   -0.2536   22.2856 C   0  0  0  0  0  0  0  0  0  0  0  0
    6.9980    0.7593   22.7774 O   0  0  0  0  0  0  0  0  0  0  0  0
    8.2879   -1.2948   22.8994 C   0  0  0  0  0  0  0  0  0  0  0  0
    8.7447   -1.2324   24.3097 C   0  0  0  0  0  0  0  0  0  0  0  0
    8.9313   -2.2175   24.7474 H   0  0  0  0  0  0  0  0  0  0  0  0
    8.0197   -0.6975   24.9271 H   0  0  0  0  0  0  0  0  0  0  0  0
   10.2948   -0.3178   24.4729 Cl  0  0  0  0  0  0  0  0  0  0  0  0
    8.5749   -2.2028   21.9348 C   0  0  0  0  0  0  0  0  0  0  0  0
    9.1513   -3.1168   22.0163 H   0  0  0  0  0  0  0  0  0  0  0  0
    8.0666   -1.8036   20.7391 N   0  0  0  0  0  0  0  0  0  0  0  0
    7.9545   -2.3178   19.8841 H   0  0  0  0  0  0  0  0  0  0  0  0
    5.4396    0.6457   20.1322 C   0  0  0  0  0  0  0  0  0  0  0  0
    5.0672    0.6576   21.1538 H   0  0  0  0  0  0  0  0  0  0  0  0
    4.8035    1.3023   19.0760 C   0  0  0  0  0  0  0  0  0  0  0  0
    3.8788    1.8410   19.2351 H   0  0  0  0  0  0  0  0  0  0  0  0
  1  2  1  0
  2  3  2  0
  3  4  1  0
  4  5  1  0
  4  6  2  0
  6  7  1  0
  7  8  1  0
  8  9  2  0
  8 10  1  0
 10 11  1  0
 11 12  1  0
 11 13  1  0
 11 14  1  0
 10 15  2  0
 15 16  1  0
 15 17  1  0
 17 18  1  0
  6 19  1  0
 19 20  1  0
 19 21  2  0
 21 22  1  0
 21  2  1  0
 17  7  1  0
M  END
>  <cnnaffinity>  (1) 
-4.3924

>  <filename>  (1) 
O=c1c(CCl)c[nH]n1-c1cccnc1

$$$$
