
     RDKit          3D

 48 51  0  0  0  0  0  0  0  0999 V2000
    4.9102    1.7987   16.9369 H   0  0  0  0  0  0  0  0  0  0  0  0
    5.4119    1.2844   17.7535 C   0  0  0  0  0  0  0  0  0  0  0  0
    6.5442    0.6336   17.4374 N   0  0  0  0  0  0  0  0  0  0  0  0
    7.2043    0.0179   18.4253 C   0  0  0  0  0  0  0  0  0  0  0  0
    8.1325   -0.4841   18.1616 H   0  0  0  0  0  0  0  0  0  0  0  0
    6.7618   -0.0012   19.7630 C   0  0  0  0  0  0  0  0  0  0  0  0
    7.5109   -0.6624   20.7982 N   0  0  0  0  0  0  0  0  0  0  0  0
    6.8926   -1.6885   21.4970 C   0  0  0  0  0  0  0  0  0  0  0  0
    5.8544   -1.8765   21.2375 H   0  0  0  0  0  0  0  0  0  0  0  0
    7.5282   -2.4226   22.4670 C   0  0  0  0  0  0  0  0  0  0  0  0
    6.8729   -3.4314   23.2045 N   0  0  0  0  0  0  0  0  0  0  0  0
    5.5121   -3.1758   23.6578 C   0  0  0  0  0  0  0  0  0  0  0  0
    4.7717   -3.3259   22.8511 H   0  0  0  0  0  0  0  0  0  0  0  0
    5.5051   -2.1140   23.9171 H   0  0  0  0  0  0  0  0  0  0  0  0
    5.0609   -3.9292   24.9206 C   0  0  0  0  0  0  0  0  0  0  0  0
    5.3044   -3.3256   25.8029 H   0  0  0  0  0  0  0  0  0  0  0  0
    3.9696   -4.0149   24.8860 H   0  0  0  0  0  0  0  0  0  0  0  0
    5.6834   -5.3130   25.1369 C   0  0  0  0  0  0  0  0  0  0  0  0
    5.2407   -6.0397   24.4197 H   0  0  0  0  0  0  0  0  0  0  0  0
    5.3920   -5.7264   26.5074 N   0  0  0  0  0  0  0  0  0  0  0  0
    6.1330   -6.8705   27.0280 C   0  0  0  0  0  0  0  0  0  0  0  0
    7.1954   -6.6436   27.1797 H   0  0  0  0  0  0  0  0  0  0  0  0
    6.0541   -7.7305   26.3386 H   0  0  0  0  0  0  0  0  0  0  0  0
    5.4290   -7.1918   28.3374 C   0  0  0  0  0  0  0  0  0  0  0  0
    5.6419   -8.2127   28.6737 H   0  0  0  0  0  0  0  0  0  0  0  0
    5.7752   -6.5060   29.1198 H   0  0  0  0  0  0  0  0  0  0  0  0
    3.9514   -6.9555   27.9903 C   0  0  0  0  0  0  0  0  0  0  0  0
    3.4688   -7.8963   27.7064 H   0  0  0  0  0  0  0  0  0  0  0  0
    3.3935   -6.5382   28.8301 H   0  0  0  0  0  0  0  0  0  0  0  0
    3.9743   -5.9979   26.7807 C   0  0  0  0  0  0  0  0  0  0  0  0
    3.4134   -5.0733   26.9698 H   0  0  0  0  0  0  0  0  0  0  0  0
    3.4905   -6.4910   25.9202 H   0  0  0  0  0  0  0  0  0  0  0  0
    7.1888   -5.2275   24.8427 C   0  0  0  0  0  0  0  0  0  0  0  0
    7.6491   -4.5301   25.5541 H   0  0  0  0  0  0  0  0  0  0  0  0
    7.6629   -6.1993   25.0018 H   0  0  0  0  0  0  0  0  0  0  0  0
    7.4325   -4.7575   23.4047 C   0  0  0  0  0  0  0  0  0  0  0  0
    6.9893   -5.4996   22.7094 H   0  0  0  0  0  0  0  0  0  0  0  0
    8.5043   -4.7300   23.1734 H   0  0  0  0  0  0  0  0  0  0  0  0
    8.8837   -2.0462   22.7847 C   0  0  0  0  0  0  0  0  0  0  0  0
    9.3900   -2.5997   23.5765 H   0  0  0  0  0  0  0  0  0  0  0  0
    9.4887   -0.9973   22.1626 C   0  0  0  0  0  0  0  0  0  0  0  0
   10.4845   -0.6530   22.4047 H   0  0  0  0  0  0  0  0  0  0  0  0
    8.8495   -0.2210   21.1086 C   0  0  0  0  0  0  0  0  0  0  0  0
    9.3813    0.7092   20.5269 O   0  0  0  0  0  0  0  0  0  0  0  0
    5.5630    0.6536   20.0708 C   0  0  0  0  0  0  0  0  0  0  0  0
    5.2054    0.6483   21.1014 H   0  0  0  0  0  0  0  0  0  0  0  0
    4.8795    1.3164   19.0474 C   0  0  0  0  0  0  0  0  0  0  0  0
    3.9555    1.8536   19.2396 H   0  0  0  0  0  0  0  0  0  0  0  0
  1  2  1  0
  2  3  2  0
  3  4  1  0
  4  5  1  0
  4  6  2  0
  6  7  1  0
  7  8  1  0
  8  9  1  0
  8 10  2  0
 10 11  1  0
 11 12  1  0
 12 13  1  0
 12 14  1  0
 12 15  1  0
 15 16  1  0
 15 17  1  0
 15 18  1  0
 18 19  1  0
 18 20  1  0
 20 21  1  0
 21 22  1  0
 21 23  1  0
 21 24  1  0
 24 25  1  0
 24 26  1  0
 24 27  1  0
 27 28  1  0
 27 29  1  0
 27 30  1  0
 30 31  1  0
 30 32  1  0
 18 33  1  0
 33 34  1  0
 33 35  1  0
 33 36  1  0
 36 37  1  0
 36 38  1  0
 10 39  1  0
 39 40  1  0
 39 41  2  0
 41 42  1  0
 41 43  1  0
 43 44  2  0
  6 45  1  0
 45 46  1  0
 45 47  2  0
 47 48  1  0
 47  2  1  0
 43  7  1  0
 36 11  1  0
 30 20  1  0
M  END
>  <cnnaffinity>  (1) 
-5.68578

>  <filename>  (1) 
O=c1ccc(N2CCC(N3CCCC3)CC2)cn1-c1cccnc1

$$$$
