
     RDKit          3D

 46 49  0  0  0  0  0  0  0  0999 V2000
    8.4850    2.0842   26.9230 O   0  0  0  0  0  0  0  0  0  0  0  0
    8.7293    2.0620   25.7294 C   0  0  0  0  0  0  0  0  0  0  0  0
   10.0170    2.1988   25.0598 C   0  0  0  0  0  0  0  0  0  0  0  0
   10.0731    2.2723   23.6979 C   0  0  0  0  0  0  0  0  0  0  0  0
    8.8976    2.1151   22.8837 C   0  0  0  0  0  0  0  0  0  0  0  0
    9.0283    2.0251   21.3831 C   0  0  0  0  0  0  0  0  0  0  0  0
    9.5230    0.6254   20.9341 C   0  0  0  0  0  0  0  0  0  0  0  0
    8.6345   -0.4755   21.4068 C   0  0  0  0  0  0  0  0  0  0  0  0
    8.8567   -1.2733   22.4289 N   0  0  0  0  0  0  0  0  0  0  0  0
    7.6598   -1.9013   22.6015 C   0  0  0  0  0  0  0  0  0  0  0  0
    7.4098   -2.8633   23.7344 C   0  0  0  0  0  0  0  0  0  0  0  0
    6.4321   -4.0058   23.3780 C   0  0  0  0  0  0  0  0  0  0  0  0
    6.7428   -5.1425   24.3712 C   0  0  0  0  0  0  0  0  0  0  0  0
    8.1653   -4.8722   24.9309 C   0  0  0  0  0  0  0  0  0  0  0  0
    8.6745   -3.5886   24.2453 C   0  0  0  0  0  0  0  0  0  0  0  0
    9.3253   -3.8262   23.3943 H   0  0  0  0  0  0  0  0  0  0  0  0
    9.2634   -2.9536   24.9180 H   0  0  0  0  0  0  0  0  0  0  0  0
    8.1265   -4.7446   26.0201 H   0  0  0  0  0  0  0  0  0  0  0  0
    8.8463   -5.7119   24.7515 H   0  0  0  0  0  0  0  0  0  0  0  0
    6.0107   -5.1616   25.1875 H   0  0  0  0  0  0  0  0  0  0  0  0
    6.6737   -6.1172   23.8774 H   0  0  0  0  0  0  0  0  0  0  0  0
    5.3873   -3.6743   23.4181 H   0  0  0  0  0  0  0  0  0  0  0  0
    6.6209   -4.3268   22.3451 H   0  0  0  0  0  0  0  0  0  0  0  0
    6.9893   -2.2615   24.5577 H   0  0  0  0  0  0  0  0  0  0  0  0
    6.7228   -1.5459   21.7375 N   0  0  0  0  0  0  0  0  0  0  0  0
    7.3642   -0.6511   20.9438 N   0  0  0  0  0  0  0  0  0  0  0  0
    6.6627    0.0075   19.8992 C   0  0  0  0  0  0  0  0  0  0  0  0
    5.4432    0.6409   20.1574 C   0  0  0  0  0  0  0  0  0  0  0  0
    4.8109    1.3098   19.1061 C   0  0  0  0  0  0  0  0  0  0  0  0
    5.3990    1.2960   17.8358 C   0  0  0  0  0  0  0  0  0  0  0  0
    6.5560    0.6694   17.5741 N   0  0  0  0  0  0  0  0  0  0  0  0
    7.1694    0.0492   18.5886 C   0  0  0  0  0  0  0  0  0  0  0  0
    8.1138   -0.4420   18.3566 H   0  0  0  0  0  0  0  0  0  0  0  0
    4.9260    1.7958   16.9938 H   0  0  0  0  0  0  0  0  0  0  0  0
    3.8779    1.8398   19.2591 H   0  0  0  0  0  0  0  0  0  0  0  0
    5.0120    0.5971   21.1584 H   0  0  0  0  0  0  0  0  0  0  0  0
   10.5229    0.4251   21.3306 H   0  0  0  0  0  0  0  0  0  0  0  0
    9.5831    0.5885   19.8462 H   0  0  0  0  0  0  0  0  0  0  0  0
    9.7469    2.7740   21.0397 H   0  0  0  0  0  0  0  0  0  0  0  0
    8.0716    2.2490   20.8895 H   0  0  0  0  0  0  0  0  0  0  0  0
    7.7060    1.8796   23.5111 C   0  0  0  0  0  0  0  0  0  0  0  0
    7.6489    1.8726   24.8761 N   0  0  0  0  0  0  0  0  0  0  0  0
    6.8302    1.7333   25.4500 H   0  0  0  0  0  0  0  0  0  0  0  0
    6.7851    1.6790   22.9692 H   0  0  0  0  0  0  0  0  0  0  0  0
   11.0344    2.4214   23.2031 H   0  0  0  0  0  0  0  0  0  0  0  0
   10.8983    2.1509   25.6792 H   0  0  0  0  0  0  0  0  0  0  0  0
  1  2  2  0
  2  3  1  0
  3  4  2  0
  4  5  1  0
  5  6  1  0
  6  7  1  0
  7  8  1  0
  8  9  2  0
  9 10  1  0
 10 11  1  0
 11 12  1  0
 12 13  1  0
 13 14  1  0
 14 15  1  0
 15 16  1  0
 15 17  1  0
 14 18  1  0
 14 19  1  0
 13 20  1  0
 13 21  1  0
 12 22  1  0
 12 23  1  0
 11 24  1  0
 10 25  2  0
 25 26  1  0
 26 27  1  0
 27 28  2  0
 28 29  1  0
 29 30  2  0
 30 31  1  0
 31 32  2  0
 32 33  1  0
 30 34  1  0
 29 35  1  0
 28 36  1  0
  7 37  1  0
  7 38  1  0
  6 39  1  0
  6 40  1  0
  5 41  2  0
 41 42  1  0
 42 43  1  0
 41 44  1  0
  4 45  1  0
  3 46  1  0
 42  2  1  0
 26  8  1  0
 32 27  1  0
 15 11  1  0
M  END
>  <cnnaffinity>  (1) 
-6.23025

>  <filename>  (1) 
O=c1ccc(CCc2nc(C3CCCC3)nn2-c2cccnc2)c[nH]1

$$$$
