
     RDKit          3D

 31 33  0  0  0  0  0  0  0  0999 V2000
    5.0427    1.7659   16.9425 H   0  0  0  0  0  0  0  0  0  0  0  0
    5.5201    1.3154   17.8148 C   0  0  0  0  0  0  0  0  0  0  0  0
    6.7406    0.7920   17.6241 N   0  0  0  0  0  0  0  0  0  0  0  0
    7.3566    0.2325   18.6795 C   0  0  0  0  0  0  0  0  0  0  0  0
    8.3474   -0.1643   18.4768 H   0  0  0  0  0  0  0  0  0  0  0  0
    6.7812    0.1249   19.9598 C   0  0  0  0  0  0  0  0  0  0  0  0
    7.3863   -0.6440   21.1322 C   0  0  1  0  0  0  0  0  0  0  0  0
    6.7797   -0.4271   22.0294 H   0  0  0  0  0  0  0  0  0  0  0  0
    7.3811   -2.1920   21.0256 C   0  0  0  0  0  0  0  0  0  0  0  0
    6.4561   -2.9436   20.8555 O   0  0  0  0  0  0  0  0  0  0  0  0
    8.6662   -2.5995   21.2374 N   0  0  0  0  0  0  0  0  0  0  0  0
    8.9650   -3.5351   21.0629 H   0  0  0  0  0  0  0  0  0  0  0  0
    9.5705   -1.5645   21.3043 C   0  0  0  0  0  0  0  0  0  0  0  0
   10.7662   -1.6926   21.2943 O   0  0  0  0  0  0  0  0  0  0  0  0
    8.8228   -0.4072   21.4490 N   0  0  0  0  0  0  0  0  0  0  0  0
    9.4220    0.7883   21.1045 O   0  0  0  0  0  0  0  0  0  0  0  0
   10.4962    1.2632   21.8855 C   0  0  0  0  0  0  0  0  0  0  0  0
   11.1070    2.3640   21.2781 C   0  0  0  0  0  0  0  0  0  0  0  0
   10.7034    2.7606   20.3593 H   0  0  0  0  0  0  0  0  0  0  0  0
   12.2059    2.9826   21.8608 C   0  0  0  0  0  0  0  0  0  0  0  0
   12.7093    3.8216   21.3990 H   0  0  0  0  0  0  0  0  0  0  0  0
   12.6784    2.5146   23.0789 C   0  0  0  0  0  0  0  0  0  0  0  0
   13.7269    3.1464   23.6243 F   0  0  0  0  0  0  0  0  0  0  0  0
   12.0851    1.4308   23.7160 C   0  0  0  0  0  0  0  0  0  0  0  0
   12.5172    1.0912   24.6515 H   0  0  0  0  0  0  0  0  0  0  0  0
   10.9719    0.7980   23.1254 C   0  0  0  0  0  0  0  0  0  0  0  0
   10.5068   -0.0504   23.6232 H   0  0  0  0  0  0  0  0  0  0  0  0
    5.5165    0.7095   20.1354 C   0  0  0  0  0  0  0  0  0  0  0  0
    5.0501    0.7133   21.1226 H   0  0  0  0  0  0  0  0  0  0  0  0
    4.8686    1.3092   19.0521 C   0  0  0  0  0  0  0  0  0  0  0  0
    3.8910    1.7759   19.1540 H   0  0  0  0  0  0  0  0  0  0  0  0
  1  2  1  0
  2  3  2  0
  3  4  1  0
  4  5  1  0
  4  6  2  0
  6  7  1  0
  7  8  1  1
  7  9  1  0
  9 10  2  0
  9 11  1  0
 11 12  1  0
 11 13  1  0
 13 14  2  0
 13 15  1  0
 15 16  1  0
 16 17  1  0
 17 18  2  0
 18 19  1  0
 18 20  1  0
 20 21  1  0
 20 22  2  0
 22 23  1  0
 22 24  1  0
 24 25  1  0
 24 26  2  0
 26 27  1  0
  6 28  1  0
 28 29  1  0
 28 30  2  0
 30 31  1  0
 30  2  1  0
 15  7  1  0
 26 17  1  0
M  END
>  <cnnaffinity>  (1) 
-5.41949

>  <filename>  (1) 
O=C1NC(=O)N(Oc2ccc(F)cc2)[C@H]1c1cccnc1

$$$$
