
     RDKit          3D

 32 34  0  0  0  0  0  0  0  0999 V2000
    4.9667    1.8344   16.8780 H   0  0  0  0  0  0  0  0  0  0  0  0
    5.4021    1.3583   17.7544 C   0  0  0  0  0  0  0  0  0  0  0  0
    6.5693    0.7263   17.5646 N   0  0  0  0  0  0  0  0  0  0  0  0
    7.1277    0.1279   18.6216 C   0  0  0  0  0  0  0  0  0  0  0  0
    8.0737   -0.3811   18.4396 H   0  0  0  0  0  0  0  0  0  0  0  0
    6.5697    0.1419   19.9070 C   0  0  0  0  0  0  0  0  0  0  0  0
    7.2648   -0.5918   20.9911 C   0  0  0  0  0  0  0  0  0  0  0  0
    7.8251   -1.7247   20.6595 N   0  0  0  0  0  0  0  0  0  0  0  0
    8.3764   -2.4779   21.6584 C   0  0  0  0  0  0  0  0  0  0  0  0
    8.6714   -3.6475   21.5710 O   0  0  0  0  0  0  0  0  0  0  0  0
    8.6355   -1.8686   22.8913 N   0  0  0  0  0  0  0  0  0  0  0  0
    8.8186   -2.6015   23.5523 H   0  0  0  0  0  0  0  0  0  0  0  0
    7.8716   -0.8239   23.2642 C   0  0  0  0  0  0  0  0  0  0  0  0
    7.8047   -0.6616   24.6079 N   0  0  0  0  0  0  0  0  0  0  0  0
    8.6960   -0.8884   25.0206 H   0  0  0  0  0  0  0  0  0  0  0  0
    7.2218    0.5796   25.1115 C   0  0  0  0  0  0  0  0  0  0  0  0
    6.1789    0.6195   24.7733 H   0  0  0  0  0  0  0  0  0  0  0  0
    7.7221    1.4735   24.7017 H   0  0  0  0  0  0  0  0  0  0  0  0
    7.2567    0.6567   26.6087 C   0  0  0  0  0  0  0  0  0  0  0  0
    6.2844   -0.4077   27.5617 S   0  0  0  0  0  0  0  0  0  0  0  0
    6.7709    0.3697   29.0212 C   0  0  0  0  0  0  0  0  0  0  0  0
    6.3324    0.0462   29.9580 H   0  0  0  0  0  0  0  0  0  0  0  0
    7.6716    1.3646   28.7969 C   0  0  0  0  0  0  0  0  0  0  0  0
    8.1600    1.9247   29.5937 H   0  0  0  0  0  0  0  0  0  0  0  0
    7.9493    1.5318   27.4020 C   0  0  0  0  0  0  0  0  0  0  0  0
    8.6433    2.2689   27.0086 H   0  0  0  0  0  0  0  0  0  0  0  0
    7.2576   -0.0729   22.3038 C   0  0  0  0  0  0  0  0  0  0  0  0
    6.7844    0.8573   22.5593 H   0  0  0  0  0  0  0  0  0  0  0  0
    5.3594    0.8232   20.0981 C   0  0  0  0  0  0  0  0  0  0  0  0
    4.8955    0.8783   21.0858 H   0  0  0  0  0  0  0  0  0  0  0  0
    4.7603    1.4249   18.9950 C   0  0  0  0  0  0  0  0  0  0  0  0
    3.8227    1.9575   19.0845 H   0  0  0  0  0  0  0  0  0  0  0  0
  1  2  1  0
  2  3  2  0
  3  4  1  0
  4  5  1  0
  4  6  2  0
  6  7  1  0
  7  8  2  0
  8  9  1  0
  9 10  2  0
  9 11  1  0
 11 12  1  0
 11 13  1  0
 13 14  1  0
 14 15  1  0
 14 16  1  0
 16 17  1  0
 16 18  1  0
 16 19  1  0
 19 20  1  0
 20 21  1  0
 21 22  1  0
 21 23  2  0
 23 24  1  0
 23 25  1  0
 25 26  1  0
 13 27  2  0
 27 28  1  0
  6 29  1  0
 29 30  1  0
 29 31  2  0
 31 32  1  0
 31  2  1  0
 27  7  1  0
 25 19  2  0
M  END
>  <cnnaffinity>  (1) 
-5.12094

>  <filename>  (1) 
O=c1nc(-c2cccnc2)cc(NCc2cccs2)[nH]1

$$$$
