
     RDKit          3D

 33 35  0  0  0  0  0  0  0  0999 V2000
    4.9344    1.7886   17.0154 H   0  0  0  0  0  0  0  0  0  0  0  0
    5.4141    1.2854   17.8485 C   0  0  0  0  0  0  0  0  0  0  0  0
    6.5777    0.6793   17.5682 N   0  0  0  0  0  0  0  0  0  0  0  0
    7.2063    0.0656   18.5769 C   0  0  0  0  0  0  0  0  0  0  0  0
    8.1474   -0.4258   18.3377 H   0  0  0  0  0  0  0  0  0  0  0  0
    6.7052   -0.0130   19.8971 C   0  0  0  0  0  0  0  0  0  0  0  0
    7.4008   -0.7249   20.9050 N   0  0  0  0  0  0  0  0  0  0  0  0
    6.7935   -1.6153   21.7826 C   0  0  0  0  0  0  0  0  0  0  0  0
    5.6959   -2.1104   21.7506 O   0  0  0  0  0  0  0  0  0  0  0  0
    7.7536   -1.9625   22.6992 N   0  0  0  0  0  0  0  0  0  0  0  0
    7.5540   -2.7123   23.3298 H   0  0  0  0  0  0  0  0  0  0  0  0
    9.0087   -1.7585   22.2203 C   0  0  0  0  0  0  0  0  0  0  0  0
    9.9899   -2.3172   22.6346 O   0  0  0  0  0  0  0  0  0  0  0  0
    8.8642   -0.7838   21.0533 C   0  0  2  0  0  0  0  0  0  0  0  0
    9.3376   -1.2530   20.1795 H   0  0  0  0  0  0  0  0  0  0  0  0
    9.5403    0.5827   21.3045 C   0  0  0  0  0  0  0  0  0  0  0  0
   10.6185    0.4096   21.4100 H   0  0  0  0  0  0  0  0  0  0  0  0
    9.3852    1.1796   20.3990 H   0  0  0  0  0  0  0  0  0  0  0  0
    8.9963    1.3404   22.5055 C   0  0  0  0  0  0  0  0  0  0  0  0
    7.8610    2.1578   22.3460 C   0  0  0  0  0  0  0  0  0  0  0  0
    7.4287    2.2545   21.3524 H   0  0  0  0  0  0  0  0  0  0  0  0
    7.2789    2.8338   23.4217 C   0  0  0  0  0  0  0  0  0  0  0  0
    6.4029    3.4583   23.2586 H   0  0  0  0  0  0  0  0  0  0  0  0
    7.8299    2.7058   24.7017 C   0  0  0  0  0  0  0  0  0  0  0  0
    7.3850    3.2283   25.5466 H   0  0  0  0  0  0  0  0  0  0  0  0
    8.9626    1.9129   24.8929 C   0  0  0  0  0  0  0  0  0  0  0  0
    9.4195    1.7950   25.8717 H   0  0  0  0  0  0  0  0  0  0  0  0
    9.5402    1.2513   23.8017 C   0  0  0  0  0  0  0  0  0  0  0  0
   10.9954    0.3420   24.1116 Cl  0  0  0  0  0  0  0  0  0  0  0  0
    5.4789    0.6192   20.1691 C   0  0  0  0  0  0  0  0  0  0  0  0
    5.0548    0.5824   21.1759 H   0  0  0  0  0  0  0  0  0  0  0  0
    4.8288    1.2873   19.1219 C   0  0  0  0  0  0  0  0  0  0  0  0
    3.8926    1.8180   19.2773 H   0  0  0  0  0  0  0  0  0  0  0  0
  1  2  1  0
  2  3  2  0
  3  4  1  0
  4  5  1  0
  4  6  2  0
  6  7  1  0
  7  8  1  0
  8  9  2  0
  8 10  1  0
 10 11  1  0
 10 12  1  0
 12 13  2  0
 12 14  1  0
 14 15  1  6
 14 16  1  0
 16 17  1  0
 16 18  1  0
 16 19  1  0
 19 20  2  0
 20 21  1  0
 20 22  1  0
 22 23  1  0
 22 24  2  0
 24 25  1  0
 24 26  1  0
 26 27  1  0
 26 28  2  0
 28 29  1  0
  6 30  1  0
 30 31  1  0
 30 32  2  0
 32 33  1  0
 32  2  1  0
 14  7  1  0
 28 19  1  0
M  END
>  <cnnaffinity>  (1) 
-5.40239

>  <filename>  (1) 
O=C1NC(=O)N(c2cccnc2)[C@H]1Cc1ccccc1Cl

$$$$
