
     RDKit          3D

 47 50  0  0  0  0  0  0  0  0999 V2000
   11.9453   -1.2774   21.2019 O   0  0  0  0  0  0  0  0  0  0  0  0
   11.8482   -0.2098   21.7837 C   0  0  0  0  0  0  0  0  0  0  0  0
   12.9585    0.2553   22.7198 C   0  0  0  0  0  0  0  0  0  0  0  0
   12.5319    1.2420   23.8166 C   0  0  0  0  0  0  0  0  0  0  0  0
   11.6615    2.3362   23.1852 C   0  0  0  0  0  0  0  0  0  0  0  0
   10.4294    1.7097   22.5285 C   0  0  0  0  0  0  0  0  0  0  0  0
   10.7952    0.6652   21.5592 N   0  0  0  0  0  0  0  0  0  0  0  0
    9.6912    0.2142   20.7082 C   0  0  0  0  0  0  0  0  0  0  0  0
    8.6353   -0.5969   21.3924 C   0  0  0  0  0  0  0  0  0  0  0  0
    8.8096   -1.4054   22.4120 N   0  0  0  0  0  0  0  0  0  0  0  0
    7.5841   -1.9438   22.6049 C   0  0  0  0  0  0  0  0  0  0  0  0
    7.3509   -2.8892   23.7456 C   0  0  0  0  0  0  0  0  0  0  0  0
    6.2387   -3.9164   23.4658 C   0  0  0  0  0  0  0  0  0  0  0  0
    6.5113   -5.0885   24.4279 C   0  0  0  0  0  0  0  0  0  0  0  0
    7.9992   -4.9756   24.8656 C   0  0  0  0  0  0  0  0  0  0  0  0
    8.5825   -3.7462   24.1379 C   0  0  0  0  0  0  0  0  0  0  0  0
    9.2949   -3.1844   24.7558 H   0  0  0  0  0  0  0  0  0  0  0  0
    9.1350   -4.0406   23.2349 H   0  0  0  0  0  0  0  0  0  0  0  0
    8.0655   -4.8528   25.9539 H   0  0  0  0  0  0  0  0  0  0  0  0
    8.5697   -5.8818   24.6334 H   0  0  0  0  0  0  0  0  0  0  0  0
    6.2963   -6.0461   23.9432 H   0  0  0  0  0  0  0  0  0  0  0  0
    5.8531   -5.0323   25.3024 H   0  0  0  0  0  0  0  0  0  0  0  0
    5.2450   -3.4683   23.5856 H   0  0  0  0  0  0  0  0  0  0  0  0
    6.3158   -4.2367   22.4181 H   0  0  0  0  0  0  0  0  0  0  0  0
    7.0824   -2.2499   24.6036 H   0  0  0  0  0  0  0  0  0  0  0  0
    6.6569   -1.5165   21.7665 N   0  0  0  0  0  0  0  0  0  0  0  0
    7.3444   -0.6744   20.9518 N   0  0  0  0  0  0  0  0  0  0  0  0
    6.6663    0.0027   19.9034 C   0  0  0  0  0  0  0  0  0  0  0  0
    5.4455    0.6402   20.1579 C   0  0  0  0  0  0  0  0  0  0  0  0
    4.8105    1.3090   19.1086 C   0  0  0  0  0  0  0  0  0  0  0  0
    5.4003    1.2959   17.8363 C   0  0  0  0  0  0  0  0  0  0  0  0
    6.5564    0.6674   17.5750 N   0  0  0  0  0  0  0  0  0  0  0  0
    7.1694    0.0432   18.5881 C   0  0  0  0  0  0  0  0  0  0  0  0
    8.1096   -0.4455   18.3429 H   0  0  0  0  0  0  0  0  0  0  0  0
    4.9316    1.8000   16.9940 H   0  0  0  0  0  0  0  0  0  0  0  0
    3.8768    1.8423   19.2561 H   0  0  0  0  0  0  0  0  0  0  0  0
    5.0217    0.6014   21.1615 H   0  0  0  0  0  0  0  0  0  0  0  0
    9.2216    1.0937   20.2584 H   0  0  0  0  0  0  0  0  0  0  0  0
   10.0911   -0.4319   19.9200 H   0  0  0  0  0  0  0  0  0  0  0  0
    9.8530    2.4768   21.9914 H   0  0  0  0  0  0  0  0  0  0  0  0
    9.7602    1.2697   23.2879 H   0  0  0  0  0  0  0  0  0  0  0  0
   12.2306    2.8732   22.4134 H   0  0  0  0  0  0  0  0  0  0  0  0
   11.3420    3.0799   23.9275 H   0  0  0  0  0  0  0  0  0  0  0  0
   13.4149    1.6682   24.3054 H   0  0  0  0  0  0  0  0  0  0  0  0
   11.9644    0.7222   24.6049 H   0  0  0  0  0  0  0  0  0  0  0  0
   13.4169   -0.6591   23.1058 H   0  0  0  0  0  0  0  0  0  0  0  0
   13.6938    0.7199   22.0471 H   0  0  0  0  0  0  0  0  0  0  0  0
  1  2  2  0
  2  3  1  0
  3  4  1  0
  4  5  1  0
  5  6  1  0
  6  7  1  0
  7  8  1  0
  8  9  1  0
  9 10  2  0
 10 11  1  0
 11 12  1  0
 12 13  1  0
 13 14  1  0
 14 15  1  0
 15 16  1  0
 16 17  1  0
 16 18  1  0
 15 19  1  0
 15 20  1  0
 14 21  1  0
 14 22  1  0
 13 23  1  0
 13 24  1  0
 12 25  1  0
 11 26  2  0
 26 27  1  0
 27 28  1  0
 28 29  2  0
 29 30  1  0
 30 31  2  0
 31 32  1  0
 32 33  2  0
 33 34  1  0
 31 35  1  0
 30 36  1  0
 29 37  1  0
  8 38  1  0
  8 39  1  0
  6 40  1  0
  6 41  1  0
  5 42  1  0
  5 43  1  0
  4 44  1  0
  4 45  1  0
  3 46  1  0
  3 47  1  0
  7  2  1  0
 27  9  1  0
 33 28  1  0
 16 12  1  0
M  END
>  <cnnaffinity>  (1) 
-6.47477

>  <filename>  (1) 
O=C1CCCCN1Cc1nc(C2CCCC2)nn1-c1cccnc1

$$$$
