
     RDKit          3D

 33 35  0  0  0  0  0  0  0  0999 V2000
    8.1906    0.4152   24.0698 H   0  0  0  0  0  0  0  0  0  0  0  0
    8.2756    0.9058   23.0888 C   0  0  0  0  0  0  0  0  0  0  0  0
    8.4068    2.2407   22.9750 C   0  0  0  0  0  0  0  0  0  0  0  0
    8.6051    3.4296   24.2652 S   0  0  0  0  0  0  0  0  0  0  0  0
    8.5620    4.7867   23.0744 C   0  0  0  0  0  0  0  0  0  0  0  0
    8.7608    5.9441   23.2964 O   0  0  0  0  0  0  0  0  0  0  0  0
    8.2549    4.2745   21.8436 N   0  0  0  0  0  0  0  0  0  0  0  0
    8.4109    4.8547   21.0391 H   0  0  0  0  0  0  0  0  0  0  0  0
    8.4054    2.9226   21.6657 C   0  0  0  0  0  0  0  0  0  0  0  0
    8.5567    2.4334   20.5708 O   0  0  0  0  0  0  0  0  0  0  0  0
    8.3975    0.1123   21.9504 N   0  0  0  0  0  0  0  0  0  0  0  0
    9.6913   -0.0206   21.2868 C   0  0  0  0  0  0  0  0  0  0  0  0
   10.4199    0.6261   21.7815 H   0  0  0  0  0  0  0  0  0  0  0  0
    9.6261    0.2587   20.2280 H   0  0  0  0  0  0  0  0  0  0  0  0
   10.0662   -1.4917   21.3376 C   0  0  0  0  0  0  0  0  0  0  0  0
   11.0386   -1.6753   20.8753 H   0  0  0  0  0  0  0  0  0  0  0  0
   10.1107   -1.8312   22.3842 H   0  0  0  0  0  0  0  0  0  0  0  0
    9.0925   -2.2142   20.5956 O   0  0  0  0  0  0  0  0  0  0  0  0
    7.7636   -2.0935   21.1085 C   0  0  0  0  0  0  0  0  0  0  0  0
    7.6831   -2.6525   22.0518 H   0  0  0  0  0  0  0  0  0  0  0  0
    7.1025   -2.5604   20.3697 H   0  0  0  0  0  0  0  0  0  0  0  0
    7.2858   -0.6332   21.3739 C   0  0  2  0  0  0  0  0  0  0  0  0
    6.5097   -0.6664   22.1524 H   0  0  0  0  0  0  0  0  0  0  0  0
    6.6503    0.0455   20.1540 C   0  0  0  0  0  0  0  0  0  0  0  0
    7.2450   -0.0170   18.8861 C   0  0  0  0  0  0  0  0  0  0  0  0
    8.1815   -0.5581   18.7402 H   0  0  0  0  0  0  0  0  0  0  0  0
    6.7142    0.5230   17.7763 N   0  0  0  0  0  0  0  0  0  0  0  0
    5.5595    1.1891   17.9085 C   0  0  0  0  0  0  0  0  0  0  0  0
    5.1569    1.6317   17.0009 H   0  0  0  0  0  0  0  0  0  0  0  0
    4.8869    1.3314   19.1247 C   0  0  0  0  0  0  0  0  0  0  0  0
    3.9589    1.8894   19.1681 H   0  0  0  0  0  0  0  0  0  0  0  0
    5.4480    0.7592   20.2675 C   0  0  0  0  0  0  0  0  0  0  0  0
    4.9602    0.8711   21.2384 H   0  0  0  0  0  0  0  0  0  0  0  0
  1  2  1  0
  2  3  2  3
  3  4  1  0
  4  5  1  0
  5  6  2  0
  5  7  1  0
  7  8  1  0
  7  9  1  0
  9 10  2  0
  2 11  1  0
 11 12  1  0
 12 13  1  0
 12 14  1  0
 12 15  1  0
 15 16  1  0
 15 17  1  0
 15 18  1  0
 18 19  1  0
 19 20  1  0
 19 21  1  0
 19 22  1  0
 22 23  1  1
 22 24  1  0
 24 25  2  0
 25 26  1  0
 25 27  1  0
 27 28  2  0
 28 29  1  0
 28 30  1  0
 30 31  1  0
 30 32  2  0
 32 33  1  0
  9  3  1  0
 22 11  1  0
 32 24  1  0
M  END
>  <cnnaffinity>  (1) 
-4.63485

>  <filename>  (1) 
O=C1NC(=O)C(=CN2CCOC[C@@H]2c2cccnc2)S1

$$$$
