
     RDKit          3D

 45 48  0  0  0  0  0  0  0  0999 V2000
   10.3342    1.4361   24.1287 O   0  0  0  0  0  0  0  0  0  0  0  0
    9.5604    2.0949   23.4472 C   0  0  0  0  0  0  0  0  0  0  0  0
    9.0193    3.2544   23.9852 N   0  0  0  0  0  0  0  0  0  0  0  0
    8.1550    4.1285   23.4241 N   0  0  0  0  0  0  0  0  0  0  0  0
    7.7434    3.8459   22.2134 C   0  0  0  0  0  0  0  0  0  0  0  0
    8.1767    2.6668   21.5039 C   0  0  0  0  0  0  0  0  0  0  0  0
    9.1029    1.8291   22.0690 C   0  0  0  0  0  0  0  0  0  0  0  0
    9.6136    0.6023   21.3495 C   0  0  0  0  0  0  0  0  0  0  0  0
    8.6983   -0.5718   21.5396 C   0  0  0  0  0  0  0  0  0  0  0  0
    8.8867   -1.4644   22.4864 N   0  0  0  0  0  0  0  0  0  0  0  0
    7.6818   -2.0813   22.5973 C   0  0  0  0  0  0  0  0  0  0  0  0
    7.3499   -3.0464   23.7031 C   0  0  0  0  0  0  0  0  0  0  0  0
    8.6054   -3.7974   24.2124 C   0  0  0  0  0  0  0  0  0  0  0  0
    9.5421   -2.9097   25.0633 C   0  0  0  0  0  0  0  0  0  0  0  0
    8.7799   -2.1952   26.1700 C   0  0  0  0  0  0  0  0  0  0  0  0
    9.6042   -1.3594   26.8738 F   0  0  0  0  0  0  0  0  0  0  0  0
    8.3209   -3.1265   27.0762 F   0  0  0  0  0  0  0  0  0  0  0  0
    7.6067   -1.3928   25.6319 C   0  0  0  0  0  0  0  0  0  0  0  0
    6.6331   -2.3063   24.8710 C   0  0  0  0  0  0  0  0  0  0  0  0
    5.7851   -1.7302   24.4834 H   0  0  0  0  0  0  0  0  0  0  0  0
    6.2270   -3.0496   25.5691 H   0  0  0  0  0  0  0  0  0  0  0  0
    8.0192   -0.6181   24.9698 H   0  0  0  0  0  0  0  0  0  0  0  0
    7.1233   -0.8918   26.4765 H   0  0  0  0  0  0  0  0  0  0  0  0
    9.9954   -2.1331   24.4396 H   0  0  0  0  0  0  0  0  0  0  0  0
   10.3440   -3.5102   25.5040 H   0  0  0  0  0  0  0  0  0  0  0  0
    9.1630   -4.2125   23.3642 H   0  0  0  0  0  0  0  0  0  0  0  0
    8.2775   -4.6521   24.8185 H   0  0  0  0  0  0  0  0  0  0  0  0
    6.6482   -3.7584   23.2578 H   0  0  0  0  0  0  0  0  0  0  0  0
    6.7805   -1.6739   21.7273 N   0  0  0  0  0  0  0  0  0  0  0  0
    7.4431   -0.7131   21.0162 N   0  0  0  0  0  0  0  0  0  0  0  0
    6.7552   -0.0518   19.9556 C   0  0  0  0  0  0  0  0  0  0  0  0
    5.5297    0.5816   20.2052 C   0  0  0  0  0  0  0  0  0  0  0  0
    4.9096    1.2640   19.1542 C   0  0  0  0  0  0  0  0  0  0  0  0
    5.5097    1.2514   17.8871 C   0  0  0  0  0  0  0  0  0  0  0  0
    6.6525    0.5970   17.6293 N   0  0  0  0  0  0  0  0  0  0  0  0
    7.2520   -0.0463   18.6397 C   0  0  0  0  0  0  0  0  0  0  0  0
    8.1548   -0.6029   18.3896 H   0  0  0  0  0  0  0  0  0  0  0  0
    5.0457    1.7602   17.0432 H   0  0  0  0  0  0  0  0  0  0  0  0
    3.9748    1.7957   19.3013 H   0  0  0  0  0  0  0  0  0  0  0  0
    5.0943    0.5310   21.2053 H   0  0  0  0  0  0  0  0  0  0  0  0
    9.7381    0.7988   20.2790 H   0  0  0  0  0  0  0  0  0  0  0  0
   10.5876    0.3265   21.7672 H   0  0  0  0  0  0  0  0  0  0  0  0
    7.7828    2.4395   20.5201 H   0  0  0  0  0  0  0  0  0  0  0  0
    7.0672    4.5867   21.8023 H   0  0  0  0  0  0  0  0  0  0  0  0
    9.3604    3.4062   24.9278 H   0  0  0  0  0  0  0  0  0  0  0  0
  1  2  2  0
  2  3  1  0
  3  4  1  0
  4  5  2  0
  5  6  1  0
  6  7  2  0
  7  8  1  0
  8  9  1  0
  9 10  2  0
 10 11  1  0
 11 12  1  0
 12 13  1  0
 13 14  1  0
 14 15  1  0
 15 16  1  0
 15 17  1  0
 15 18  1  0
 18 19  1  0
 19 20  1  0
 19 21  1  0
 18 22  1  0
 18 23  1  0
 14 24  1  0
 14 25  1  0
 13 26  1  0
 13 27  1  0
 12 28  1  0
 11 29  2  0
 29 30  1  0
 30 31  1  0
 31 32  2  0
 32 33  1  0
 33 34  2  0
 34 35  1  0
 35 36  2  0
 36 37  1  0
 34 38  1  0
 33 39  1  0
 32 40  1  0
  8 41  1  0
  8 42  1  0
  6 43  1  0
  5 44  1  0
  3 45  1  0
  7  2  1  0
 30  9  1  0
 36 31  1  0
 19 12  1  0
M  END
>  <cnnaffinity>  (1) 
-6.35907

>  <filename>  (1) 
O=c1[nH]nccc1Cc1nc(C2CCC(F)(F)CC2)nn1-c1cccnc1

$$$$
