
     RDKit          3D

 31 33  0  0  0  0  0  0  0  0999 V2000
    3.0642   -3.6092   23.9990 H   0  0  0  0  0  0  0  0  0  0  0  0
    4.1332   -3.6945   24.1912 C   0  0  0  0  0  0  0  0  0  0  0  0
    4.9520   -3.1223   23.3138 N   0  0  0  0  0  0  0  0  0  0  0  0
    6.2450   -2.9855   23.6514 C   0  0  0  0  0  0  0  0  0  0  0  0
    7.1221   -2.1283   22.7813 C   0  0  0  0  0  0  0  0  0  0  0  0
    6.5532   -1.4244   21.8228 N   0  0  0  0  0  0  0  0  0  0  0  0
    7.3303   -0.7109   20.9696 N   0  0  0  0  0  0  0  0  0  0  0  0
    6.6567   -0.0132   19.9119 C   0  0  0  0  0  0  0  0  0  0  0  0
    7.1725    0.0439   18.6038 C   0  0  0  0  0  0  0  0  0  0  0  0
    8.1113   -0.4513   18.3618 H   0  0  0  0  0  0  0  0  0  0  0  0
    6.5636    0.6684   17.5885 N   0  0  0  0  0  0  0  0  0  0  0  0
    5.4040    1.2951   17.8436 C   0  0  0  0  0  0  0  0  0  0  0  0
    4.9374    1.7950   16.9961 H   0  0  0  0  0  0  0  0  0  0  0  0
    4.8126    1.3099   19.1134 C   0  0  0  0  0  0  0  0  0  0  0  0
    3.8784    1.8428   19.2558 H   0  0  0  0  0  0  0  0  0  0  0  0
    5.4426    0.6353   20.1657 C   0  0  0  0  0  0  0  0  0  0  0  0
    5.0440    0.5727   21.1769 H   0  0  0  0  0  0  0  0  0  0  0  0
    8.6943   -0.6243   21.1292 C   0  0  0  0  0  0  0  0  0  0  0  0
    9.1934    0.0167   20.4096 H   0  0  0  0  0  0  0  0  0  0  0  0
    9.3374   -1.2645   22.1176 C   0  0  0  0  0  0  0  0  0  0  0  0
   10.4057   -1.2158   22.2567 H   0  0  0  0  0  0  0  0  0  0  0  0
    8.5873   -2.0973   23.0660 C   0  0  0  0  0  0  0  0  0  0  0  0
    9.1643   -2.6947   23.9606 O   0  0  0  0  0  0  0  0  0  0  0  0
    6.7718   -3.5741   24.7441 N   0  0  0  0  0  0  0  0  0  0  0  0
    5.9836   -4.2848   25.5432 C   0  0  0  0  0  0  0  0  0  0  0  0
    6.5943   -5.0968   26.7297 C   0  0  0  0  0  0  0  0  0  0  0  0
    7.9190   -5.0065   26.8425 F   0  0  0  0  0  0  0  0  0  0  0  0
    6.0569   -4.6884   27.8974 F   0  0  0  0  0  0  0  0  0  0  0  0
    6.2889   -6.4063   26.6044 F   0  0  0  0  0  0  0  0  0  0  0  0
    4.6010   -4.3321   25.3343 C   0  0  0  0  0  0  0  0  0  0  0  0
    3.9413   -4.8683   25.9992 H   0  0  0  0  0  0  0  0  0  0  0  0
  1  2  1  0
  2  3  2  0
  3  4  1  0
  4  5  1  0
  5  6  2  0
  6  7  1  0
  7  8  1  0
  8  9  2  0
  9 10  1  0
  9 11  1  0
 11 12  2  0
 12 13  1  0
 12 14  1  0
 14 15  1  0
 14 16  2  0
 16 17  1  0
  7 18  1  0
 18 19  1  0
 18 20  2  0
 20 21  1  0
 20 22  1  0
 22 23  2  0
  4 24  2  0
 24 25  1  0
 25 26  1  0
 26 27  1  0
 26 28  1  0
 26 29  1  0
 25 30  2  0
 30 31  1  0
 30  2  1  0
 22  5  1  0
 16  8  1  0
M  END
>  <cnnaffinity>  (1) 
-5.49789

>  <filename>  (1) 
O=c1ccn(-c2cccnc2)nc1-c1nccc(C(F)(F)F)n1

$$$$
