
     RDKit          3D

 44 47  0  0  0  0  0  0  0  0999 V2000
    7.8635    5.1672   24.1587 O   0  0  0  0  0  0  0  0  0  0  0  0
    8.1354    4.1869   23.4818 C   0  0  0  0  0  0  0  0  0  0  0  0
    7.7140    3.9061   22.1233 C   0  0  0  0  0  0  0  0  0  0  0  0
    8.1641    2.7871   21.4801 C   0  0  0  0  0  0  0  0  0  0  0  0
    9.0844    1.8939   22.1053 C   0  0  0  0  0  0  0  0  0  0  0  0
    9.5936    0.6727   21.3696 C   0  0  0  0  0  0  0  0  0  0  0  0
    8.6839   -0.4978   21.5810 C   0  0  0  0  0  0  0  0  0  0  0  0
    8.8749   -1.3720   22.5416 N   0  0  0  0  0  0  0  0  0  0  0  0
    7.6943   -2.0415   22.6107 C   0  0  0  0  0  0  0  0  0  0  0  0
    7.3786   -3.0139   23.7253 C   0  0  0  0  0  0  0  0  0  0  0  0
    6.8004   -2.2814   24.9746 C   0  0  0  0  0  0  0  0  0  0  0  0
    7.9002   -1.5354   25.7386 C   0  0  0  0  0  0  0  0  0  0  0  0
    8.9361   -2.4225   26.1309 O   0  0  0  0  0  0  0  0  0  0  0  0
    9.5944   -3.0240   25.0235 C   0  0  0  0  0  0  0  0  0  0  0  0
    8.6168   -3.8389   24.1596 C   0  0  0  0  0  0  0  0  0  0  0  0
    9.1437   -4.2402   23.2858 H   0  0  0  0  0  0  0  0  0  0  0  0
    8.2704   -4.6907   24.7586 H   0  0  0  0  0  0  0  0  0  0  0  0
   10.0995   -2.2603   24.4158 H   0  0  0  0  0  0  0  0  0  0  0  0
   10.3548   -3.6810   25.4571 H   0  0  0  0  0  0  0  0  0  0  0  0
    7.5079   -1.1061   26.6649 H   0  0  0  0  0  0  0  0  0  0  0  0
    8.3090   -0.7146   25.1240 H   0  0  0  0  0  0  0  0  0  0  0  0
    5.9986   -1.5932   24.6790 H   0  0  0  0  0  0  0  0  0  0  0  0
    6.3658   -3.0246   25.6550 H   0  0  0  0  0  0  0  0  0  0  0  0
    6.6085   -3.6726   23.3106 H   0  0  0  0  0  0  0  0  0  0  0  0
    6.8053   -1.6709   21.7145 N   0  0  0  0  0  0  0  0  0  0  0  0
    7.4519   -0.6847   21.0211 N   0  0  0  0  0  0  0  0  0  0  0  0
    6.7680   -0.0182   19.9548 C   0  0  0  0  0  0  0  0  0  0  0  0
    5.5389    0.6121   20.1973 C   0  0  0  0  0  0  0  0  0  0  0  0
    4.9077    1.2750   19.1401 C   0  0  0  0  0  0  0  0  0  0  0  0
    5.5126    1.2627   17.8768 C   0  0  0  0  0  0  0  0  0  0  0  0
    6.6664    0.6236   17.6243 N   0  0  0  0  0  0  0  0  0  0  0  0
    7.2713   -0.0071   18.6414 C   0  0  0  0  0  0  0  0  0  0  0  0
    8.1856   -0.5508   18.3982 H   0  0  0  0  0  0  0  0  0  0  0  0
    5.0445    1.7645   17.0310 H   0  0  0  0  0  0  0  0  0  0  0  0
    3.9642    1.7964   19.2825 H   0  0  0  0  0  0  0  0  0  0  0  0
    5.1073    0.5763   21.1989 H   0  0  0  0  0  0  0  0  0  0  0  0
    9.6938    0.8713   20.3009 H   0  0  0  0  0  0  0  0  0  0  0  0
   10.5777    0.3853   21.7551 H   0  0  0  0  0  0  0  0  0  0  0  0
    9.4182    2.0995   23.4102 C   0  0  0  0  0  0  0  0  0  0  0  0
    8.9307    3.1997   24.0619 N   0  0  0  0  0  0  0  0  0  0  0  0
    9.1159    3.4568   25.0167 H   0  0  0  0  0  0  0  0  0  0  0  0
   10.0712    1.4070   23.9411 H   0  0  0  0  0  0  0  0  0  0  0  0
    7.8370    2.5283   20.4745 H   0  0  0  0  0  0  0  0  0  0  0  0
    7.0900    4.6657   21.6781 H   0  0  0  0  0  0  0  0  0  0  0  0
  1  2  2  0
  2  3  1  0
  3  4  2  0
  4  5  1  0
  5  6  1  0
  6  7  1  0
  7  8  2  0
  8  9  1  0
  9 10  1  0
 10 11  1  0
 11 12  1  0
 12 13  1  0
 13 14  1  0
 14 15  1  0
 15 16  1  0
 15 17  1  0
 14 18  1  0
 14 19  1  0
 12 20  1  0
 12 21  1  0
 11 22  1  0
 11 23  1  0
 10 24  1  0
  9 25  2  0
 25 26  1  0
 26 27  1  0
 27 28  2  0
 28 29  1  0
 29 30  2  0
 30 31  1  0
 31 32  2  0
 32 33  1  0
 30 34  1  0
 29 35  1  0
 28 36  1  0
  6 37  1  0
  6 38  1  0
  5 39  2  0
 39 40  1  0
 40 41  1  0
 39 42  1  0
  4 43  1  0
  3 44  1  0
 40  2  1  0
 26  7  1  0
 32 27  1  0
 15 10  1  0
M  END
>  <cnnaffinity>  (1) 
-5.903

>  <filename>  (1) 
O=c1ccc(Cc2nc(C3CCOCC3)nn2-c2cccnc2)c[nH]1

$$$$
