
     RDKit          3D

 34 36  0  0  0  0  0  0  0  0999 V2000
    4.5158   -5.6554   21.2230 H   0  0  0  0  0  0  0  0  0  0  0  0
    4.9413   -4.8603   21.8327 C   0  0  0  0  0  0  0  0  0  0  0  0
    5.8496   -4.0898   21.2416 N   0  0  0  0  0  0  0  0  0  0  0  0
    6.4242   -3.0899   21.9364 C   0  0  0  0  0  0  0  0  0  0  0  0
    7.3856   -2.2821   21.0865 C   0  0  2  0  0  0  0  0  0  0  0  0
    7.1124   -2.5418   20.0648 H   0  0  0  0  0  0  0  0  0  0  0  0
    8.8444   -2.7592   21.3145 C   0  0  0  0  0  0  0  0  0  0  0  0
    9.1298   -3.5526   20.6199 H   0  0  0  0  0  0  0  0  0  0  0  0
    9.0645   -3.1518   22.3197 H   0  0  0  0  0  0  0  0  0  0  0  0
    9.5863   -1.5567   21.0531 N   0  0  0  0  0  0  0  0  0  0  0  0
   10.5727   -1.4721   21.2198 H   0  0  0  0  0  0  0  0  0  0  0  0
    8.9047   -0.3824   21.0579 C   0  0  0  0  0  0  0  0  0  0  0  0
    9.4229    0.7126   21.0354 O   0  0  0  0  0  0  0  0  0  0  0  0
    7.3993   -0.7135   21.0884 C   0  0  1  0  0  0  0  0  0  0  0  0
    7.0142   -0.2908   22.0253 H   0  0  0  0  0  0  0  0  0  0  0  0
    6.6285   -0.0490   19.9362 C   0  0  0  0  0  0  0  0  0  0  0  0
    7.1293   -0.0215   18.6161 C   0  0  0  0  0  0  0  0  0  0  0  0
    8.0734   -0.5151   18.3893 H   0  0  0  0  0  0  0  0  0  0  0  0
    6.5521    0.6093   17.5841 N   0  0  0  0  0  0  0  0  0  0  0  0
    5.4103    1.2657   17.8380 C   0  0  0  0  0  0  0  0  0  0  0  0
    4.9603    1.7869   16.9953 H   0  0  0  0  0  0  0  0  0  0  0  0
    4.8060    1.2978   19.0978 C   0  0  0  0  0  0  0  0  0  0  0  0
    3.8837    1.8503   19.2373 H   0  0  0  0  0  0  0  0  0  0  0  0
    5.4243    0.6335   20.1629 C   0  0  0  0  0  0  0  0  0  0  0  0
    4.9839    0.6538   21.1622 H   0  0  0  0  0  0  0  0  0  0  0  0
    6.2023   -2.9605   23.3153 C   0  0  0  0  0  0  0  0  0  0  0  0
    6.9778   -2.0166   24.1862 C   0  0  0  0  0  0  0  0  0  0  0  0
    7.1896   -2.5069   25.4205 F   0  0  0  0  0  0  0  0  0  0  0  0
    8.2019   -1.7131   23.7073 F   0  0  0  0  0  0  0  0  0  0  0  0
    6.3288   -0.8451   24.3157 F   0  0  0  0  0  0  0  0  0  0  0  0
    5.1600   -3.7031   23.9047 C   0  0  0  0  0  0  0  0  0  0  0  0
    4.8519   -3.5300   24.9350 H   0  0  0  0  0  0  0  0  0  0  0  0
    4.5181   -4.6747   23.1479 C   0  0  0  0  0  0  0  0  0  0  0  0
    3.7298   -5.2991   23.5489 H   0  0  0  0  0  0  0  0  0  0  0  0
  1  2  1  0
  2  3  2  0
  3  4  1  0
  4  5  1  0
  5  6  1  6
  5  7  1  0
  7  8  1  0
  7  9  1  0
  7 10  1  0
 10 11  1  0
 10 12  1  0
 12 13  2  0
 12 14  1  0
 14 15  1  1
 14 16  1  0
 16 17  2  0
 17 18  1  0
 17 19  1  0
 19 20  2  0
 20 21  1  0
 20 22  1  0
 22 23  1  0
 22 24  2  0
 24 25  1  0
  4 26  2  0
 26 27  1  0
 27 28  1  0
 27 29  1  0
 27 30  1  0
 26 31  1  0
 31 32  1  0
 31 33  2  0
 33 34  1  0
 33  2  1  0
 14  5  1  0
 24 16  1  0
M  END
>  <cnnaffinity>  (1) 
-4.62523

>  <filename>  (1) 
O=C1NC[C@@H](c2ncccc2C(F)(F)F)[C@@H]1c1cccnc1

$$$$
