
     RDKit          3D

 31 33  0  0  0  0  0  0  0  0999 V2000
    4.9354    1.8234   16.9690 H   0  0  0  0  0  0  0  0  0  0  0  0
    5.4111    1.3280   17.8114 C   0  0  0  0  0  0  0  0  0  0  0  0
    6.5755    0.7112   17.5503 N   0  0  0  0  0  0  0  0  0  0  0  0
    7.1798    0.0666   18.5563 C   0  0  0  0  0  0  0  0  0  0  0  0
    8.1303   -0.4177   18.3241 H   0  0  0  0  0  0  0  0  0  0  0  0
    6.6466   -0.0125   19.8584 C   0  0  0  0  0  0  0  0  0  0  0  0
    7.3378   -0.7117   20.9153 N   0  0  0  0  0  0  0  0  0  0  0  0
    8.6279   -0.3250   21.2379 C   0  0  0  0  0  0  0  0  0  0  0  0
    9.0000    0.5291   20.6758 H   0  0  0  0  0  0  0  0  0  0  0  0
    9.3682   -0.9408   22.2001 C   0  0  0  0  0  0  0  0  0  0  0  0
   10.7641   -0.4376   22.5499 C   0  0  0  0  0  0  0  0  0  0  0  0
   11.2990   -0.1154   21.6433 H   0  0  0  0  0  0  0  0  0  0  0  0
   11.3581   -1.2529   22.9709 H   0  0  0  0  0  0  0  0  0  0  0  0
   10.6707    0.6935   23.5504 C   0  0  0  0  0  0  0  0  0  0  0  0
   10.4808    0.3422   25.2372 S   0  0  0  0  0  0  0  0  0  0  0  0
   10.0601    1.9729   25.5858 C   0  0  0  0  0  0  0  0  0  0  0  0
    9.6708    2.2216   26.5653 H   0  0  0  0  0  0  0  0  0  0  0  0
   10.1651    2.7681   24.4871 C   0  0  0  0  0  0  0  0  0  0  0  0
   10.0102    3.8440   24.4948 H   0  0  0  0  0  0  0  0  0  0  0  0
   10.4985    2.0261   23.3129 C   0  0  0  0  0  0  0  0  0  0  0  0
   10.5592    2.4628   22.3189 H   0  0  0  0  0  0  0  0  0  0  0  0
    8.7507   -1.9921   22.9561 C   0  0  0  0  0  0  0  0  0  0  0  0
    9.2954   -2.4728   23.7722 H   0  0  0  0  0  0  0  0  0  0  0  0
    7.4815   -2.3893   22.6723 C   0  0  0  0  0  0  0  0  0  0  0  0
    6.9702   -3.1857   23.1931 H   0  0  0  0  0  0  0  0  0  0  0  0
    6.6919   -1.8008   21.6021 C   0  0  0  0  0  0  0  0  0  0  0  0
    5.5870   -2.2142   21.2875 O   0  0  0  0  0  0  0  0  0  0  0  0
    5.4345    0.6435   20.1159 C   0  0  0  0  0  0  0  0  0  0  0  0
    5.0131    0.6166   21.1186 H   0  0  0  0  0  0  0  0  0  0  0  0
    4.8059    1.3300   19.0719 C   0  0  0  0  0  0  0  0  0  0  0  0
    3.8652    1.8560   19.2160 H   0  0  0  0  0  0  0  0  0  0  0  0
  1  2  1  0
  2  3  2  0
  3  4  1  0
  4  5  1  0
  4  6  2  0
  6  7  1  0
  7  8  1  0
  8  9  1  0
  8 10  2  0
 10 11  1  0
 11 12  1  0
 11 13  1  0
 11 14  1  0
 14 15  1  0
 15 16  1  0
 16 17  1  0
 16 18  2  0
 18 19  1  0
 18 20  1  0
 20 21  1  0
 10 22  1  0
 22 23  1  0
 22 24  2  0
 24 25  1  0
 24 26  1  0
 26 27  2  0
  6 28  1  0
 28 29  1  0
 28 30  2  0
 30 31  1  0
 30  2  1  0
 26  7  1  0
 20 14  2  0
M  END
>  <cnnaffinity>  (1) 
-5.30056

>  <filename>  (1) 
O=c1ccc(Cc2cccs2)cn1-c1cccnc1

$$$$
