
     RDKit          3D

 28 30  0  0  0  0  0  0  0  0999 V2000
    4.9324    1.7916   16.9871 H   0  0  0  0  0  0  0  0  0  0  0  0
    5.3992    1.2860   17.8307 C   0  0  0  0  0  0  0  0  0  0  0  0
    6.5637    0.6619   17.5810 N   0  0  0  0  0  0  0  0  0  0  0  0
    7.1568    0.0322   18.6011 C   0  0  0  0  0  0  0  0  0  0  0  0
    8.1181   -0.4329   18.3701 H   0  0  0  0  0  0  0  0  0  0  0  0
    6.6341   -0.0100   19.9055 C   0  0  0  0  0  0  0  0  0  0  0  0
    7.3570   -0.6707   20.9973 C   0  0  0  0  0  0  0  0  0  0  0  0
    7.7225   -0.0869   22.1969 C   0  0  0  0  0  0  0  0  0  0  0  0
    7.5989    1.3703   22.4282 C   0  0  0  0  0  0  0  0  0  0  0  0
    7.2819    1.8648   23.6223 N   0  0  0  0  0  0  0  0  0  0  0  0
    7.2777    3.1932   23.4651 N   0  0  0  0  0  0  0  0  0  0  0  0
    7.0727    3.7629   24.2749 H   0  0  0  0  0  0  0  0  0  0  0  0
    7.6077    3.5861   22.2110 C   0  0  0  0  0  0  0  0  0  0  0  0
    7.6439    4.6295   21.9276 H   0  0  0  0  0  0  0  0  0  0  0  0
    7.8310    2.4260   21.5115 C   0  0  0  0  0  0  0  0  0  0  0  0
    8.0685    2.2705   20.4743 H   0  0  0  0  0  0  0  0  0  0  0  0
    8.3109   -0.9187   23.2135 C   0  0  0  0  0  0  0  0  0  0  0  0
    8.5712   -0.4437   24.1612 H   0  0  0  0  0  0  0  0  0  0  0  0
    8.5424   -2.2386   22.9931 C   0  0  0  0  0  0  0  0  0  0  0  0
    8.9820   -2.8986   23.7256 H   0  0  0  0  0  0  0  0  0  0  0  0
    8.2033   -2.8568   21.7187 C   0  0  0  0  0  0  0  0  0  0  0  0
    8.3382   -4.0292   21.4054 O   0  0  0  0  0  0  0  0  0  0  0  0
    7.6733   -1.9856   20.7891 N   0  0  0  0  0  0  0  0  0  0  0  0
    7.3964   -2.4803   19.9565 H   0  0  0  0  0  0  0  0  0  0  0  0
    5.4098    0.6371   20.1468 C   0  0  0  0  0  0  0  0  0  0  0  0
    4.9913    0.6377   21.1566 H   0  0  0  0  0  0  0  0  0  0  0  0
    4.7939    1.2998   19.0902 C   0  0  0  0  0  0  0  0  0  0  0  0
    3.8706    1.8437   19.2369 H   0  0  0  0  0  0  0  0  0  0  0  0
  1  2  1  0
  2  3  2  0
  3  4  1  0
  4  5  1  0
  4  6  2  0
  6  7  1  0
  7  8  2  0
  8  9  1  0
  9 10  2  0
 10 11  1  0
 11 12  1  0
 11 13  1  0
 13 14  1  0
 13 15  2  0
 15 16  1  0
  8 17  1  0
 17 18  1  0
 17 19  2  0
 19 20  1  0
 19 21  1  0
 21 22  2  0
 21 23  1  0
 23 24  1  0
  6 25  1  0
 25 26  1  0
 25 27  2  0
 27 28  1  0
 27  2  1  0
 23  7  1  0
 15  9  1  0
M  END
>  <cnnaffinity>  (1) 
-5.14367

>  <filename>  (1) 
O=c1ccc(-c2cc[nH]n2)c(-c2cccnc2)[nH]1

$$$$
