
     RDKit          3D

 33 35  0  0  0  0  0  0  0  0999 V2000
    5.5696   -0.0145   23.7129 H   0  0  0  0  0  0  0  0  0  0  0  0
    5.5681    0.3431   24.6110 O   0  0  0  0  0  0  0  0  0  0  0  0
    6.4075    1.4082   24.6839 C   0  0  0  0  0  0  0  0  0  0  0  0
    6.4340    2.0618   25.9151 C   0  0  0  0  0  0  0  0  0  0  0  0
    5.8173    1.6551   26.7069 H   0  0  0  0  0  0  0  0  0  0  0  0
    7.2397    3.1811   26.0848 C   0  0  0  0  0  0  0  0  0  0  0  0
    7.2551    3.9703   27.6259 Cl  0  0  0  0  0  0  0  0  0  0  0  0
    8.0238    3.6696   25.0405 C   0  0  0  0  0  0  0  0  0  0  0  0
    8.6174    4.5595   25.1989 H   0  0  0  0  0  0  0  0  0  0  0  0
    8.0135    3.0069   23.8110 C   0  0  0  0  0  0  0  0  0  0  0  0
    8.5992    3.3743   22.9747 H   0  0  0  0  0  0  0  0  0  0  0  0
    7.2340    1.8639   23.6290 C   0  0  0  0  0  0  0  0  0  0  0  0
    7.2768    1.2612   22.3872 O   0  0  0  0  0  0  0  0  0  0  0  0
    7.6468   -0.0535   22.2073 C   0  0  0  0  0  0  0  0  0  0  0  0
    8.3546   -0.8085   23.1946 C   0  0  0  0  0  0  0  0  0  0  0  0
    8.5779   -0.3261   24.1477 H   0  0  0  0  0  0  0  0  0  0  0  0
    8.7280   -2.1025   22.9516 C   0  0  0  0  0  0  0  0  0  0  0  0
    9.2518   -2.7267   23.6640 H   0  0  0  0  0  0  0  0  0  0  0  0
    8.3993   -2.7521   21.6894 C   0  0  0  0  0  0  0  0  0  0  0  0
    8.5790   -3.9150   21.3730 O   0  0  0  0  0  0  0  0  0  0  0  0
    7.8053   -1.9172   20.7632 N   0  0  0  0  0  0  0  0  0  0  0  0
    7.5817   -2.4368   19.9272 H   0  0  0  0  0  0  0  0  0  0  0  0
    7.3660   -0.6406   20.9884 C   0  0  0  0  0  0  0  0  0  0  0  0
    6.6430    0.0088   19.8978 C   0  0  0  0  0  0  0  0  0  0  0  0
    7.1608    0.0400   18.5909 C   0  0  0  0  0  0  0  0  0  0  0  0
    8.1229   -0.4259   18.3628 H   0  0  0  0  0  0  0  0  0  0  0  0
    6.5602    0.6676   17.5756 N   0  0  0  0  0  0  0  0  0  0  0  0
    5.3959    1.2891   17.8284 C   0  0  0  0  0  0  0  0  0  0  0  0
    4.9281    1.7913   16.9841 H   0  0  0  0  0  0  0  0  0  0  0  0
    4.7956    1.3079   19.0897 C   0  0  0  0  0  0  0  0  0  0  0  0
    3.8697    1.8450   19.2430 H   0  0  0  0  0  0  0  0  0  0  0  0
    5.4292    0.6605   20.1424 C   0  0  0  0  0  0  0  0  0  0  0  0
    5.0055    0.6608   21.1463 H   0  0  0  0  0  0  0  0  0  0  0  0
  1  2  1  0
  2  3  1  0
  3  4  2  0
  4  5  1  0
  4  6  1  0
  6  7  1  0
  6  8  2  0
  8  9  1  0
  8 10  1  0
 10 11  1  0
 10 12  2  0
 12 13  1  0
 13 14  1  0
 14 15  1  0
 15 16  1  0
 15 17  2  0
 17 18  1  0
 17 19  1  0
 19 20  2  0
 19 21  1  0
 21 22  1  0
 21 23  1  0
 23 24  1  0
 24 25  2  0
 25 26  1  0
 25 27  1  0
 27 28  2  0
 28 29  1  0
 28 30  1  0
 30 31  1  0
 30 32  2  0
 32 33  1  0
 12  3  1  0
 23 14  2  0
 32 24  1  0
M  END
>  <cnnaffinity>  (1) 
-5.43174

>  <filename>  (1) 
O=c1ccc(Oc2ccc(Cl)cc2O)c(-c2cccnc2)[nH]1

$$$$
