
     RDKit          3D

 40 42  0  0  0  0  0  0  0  0999 V2000
    9.7370    3.7327   25.8280 H   0  0  0  0  0  0  0  0  0  0  0  0
   10.0237    4.2527   25.0658 O   0  0  0  0  0  0  0  0  0  0  0  0
    8.8737    4.8306   24.4808 C   0  0  0  0  0  0  0  0  0  0  0  0
    9.2534    5.6404   23.8458 H   0  0  0  0  0  0  0  0  0  0  0  0
    8.2229    5.2755   25.2505 H   0  0  0  0  0  0  0  0  0  0  0  0
    8.0480    3.8573   23.6305 C   0  0  0  0  0  0  0  0  0  0  0  0
    7.2285    4.4623   23.2006 H   0  0  0  0  0  0  0  0  0  0  0  0
    7.4347    2.7064   24.4464 C   0  0  0  0  0  0  0  0  0  0  0  0
    6.7975    3.0932   25.2520 H   0  0  0  0  0  0  0  0  0  0  0  0
    8.2545    2.1324   24.9085 H   0  0  0  0  0  0  0  0  0  0  0  0
    6.6298    1.7647   23.5393 C   0  0  0  0  0  0  0  0  0  0  0  0
    5.7386    2.3059   23.1590 H   0  0  0  0  0  0  0  0  0  0  0  0
    6.2804    0.8851   24.0890 H   0  0  0  0  0  0  0  0  0  0  0  0
    7.4394    1.3046   22.4314 N   0  0  0  0  0  0  0  0  0  0  0  0
    7.6866   -0.0560   22.1865 C   0  0  0  0  0  0  0  0  0  0  0  0
    8.3361   -0.8453   23.1944 C   0  0  0  0  0  0  0  0  0  0  0  0
    8.5623   -0.3189   24.1239 H   0  0  0  0  0  0  0  0  0  0  0  0
    8.6670   -2.1541   22.9848 C   0  0  0  0  0  0  0  0  0  0  0  0
    9.1598   -2.7769   23.7222 H   0  0  0  0  0  0  0  0  0  0  0  0
    8.3325   -2.7987   21.7200 C   0  0  0  0  0  0  0  0  0  0  0  0
    8.4795   -3.9679   21.4061 O   0  0  0  0  0  0  0  0  0  0  0  0
    7.7731   -1.9571   20.7755 N   0  0  0  0  0  0  0  0  0  0  0  0
    7.5261   -2.4851   19.9573 H   0  0  0  0  0  0  0  0  0  0  0  0
    7.3838   -0.6601   20.9799 C   0  0  0  0  0  0  0  0  0  0  0  0
    6.6476   -0.0029   19.8915 C   0  0  0  0  0  0  0  0  0  0  0  0
    7.1573    0.0303   18.5815 C   0  0  0  0  0  0  0  0  0  0  0  0
    8.1170   -0.4357   18.3482 H   0  0  0  0  0  0  0  0  0  0  0  0
    6.5569    0.6620   17.5688 N   0  0  0  0  0  0  0  0  0  0  0  0
    5.3986    1.2919   17.8237 C   0  0  0  0  0  0  0  0  0  0  0  0
    4.9349    1.8005   16.9798 H   0  0  0  0  0  0  0  0  0  0  0  0
    4.8012    1.3107   19.0870 C   0  0  0  0  0  0  0  0  0  0  0  0
    3.8707    1.8431   19.2321 H   0  0  0  0  0  0  0  0  0  0  0  0
    5.4352    0.6574   20.1408 C   0  0  0  0  0  0  0  0  0  0  0  0
    5.0103    0.6506   21.1463 H   0  0  0  0  0  0  0  0  0  0  0  0
    8.0215    2.3386   21.5928 C   0  0  0  0  0  0  0  0  0  0  0  0
    8.6242    1.8558   20.8143 H   0  0  0  0  0  0  0  0  0  0  0  0
    7.2153    2.8972   21.0850 H   0  0  0  0  0  0  0  0  0  0  0  0
    8.8650    3.2856   22.4588 C   0  0  0  0  0  0  0  0  0  0  0  0
    9.2209    4.1348   21.8814 H   0  0  0  0  0  0  0  0  0  0  0  0
    9.7411    2.7431   22.8464 H   0  0  0  0  0  0  0  0  0  0  0  0
  1  2  1  0
  2  3  1  0
  3  4  1  0
  3  5  1  0
  3  6  1  0
  6  7  1  0
  6  8  1  0
  8  9  1  0
  8 10  1  0
  8 11  1  0
 11 12  1  0
 11 13  1  0
 11 14  1  0
 14 15  1  0
 15 16  1  0
 16 17  1  0
 16 18  2  0
 18 19  1  0
 18 20  1  0
 20 21  2  0
 20 22  1  0
 22 23  1  0
 22 24  1  0
 24 25  1  0
 25 26  2  0
 26 27  1  0
 26 28  1  0
 28 29  2  0
 29 30  1  0
 29 31  1  0
 31 32  1  0
 31 33  2  0
 33 34  1  0
 14 35  1  0
 35 36  1  0
 35 37  1  0
 35 38  1  0
 38 39  1  0
 38 40  1  0
 38  6  1  0
 24 15  2  0
 33 25  1  0
M  END
>  <cnnaffinity>  (1) 
-5.39617

>  <filename>  (1) 
O=c1ccc(N2CCC(CO)CC2)c(-c2cccnc2)[nH]1

$$$$
