
     RDKit          3D

 36 38  0  0  0  0  0  0  0  0999 V2000
    5.0027    1.7535   17.0135 H   0  0  0  0  0  0  0  0  0  0  0  0
    5.4635    1.2526   17.8629 C   0  0  0  0  0  0  0  0  0  0  0  0
    6.6244    0.6273   17.6247 N   0  0  0  0  0  0  0  0  0  0  0  0
    7.2146    0.0200   18.6559 C   0  0  0  0  0  0  0  0  0  0  0  0
    8.1685   -0.4586   18.4571 H   0  0  0  0  0  0  0  0  0  0  0  0
    6.6728   -0.0381   19.9429 C   0  0  0  0  0  0  0  0  0  0  0  0
    7.4221   -0.7987   20.9627 C   0  0  0  0  0  0  0  0  0  0  0  0
    8.7259   -0.7591   20.8842 N   0  0  0  0  0  0  0  0  0  0  0  0
    9.4483   -1.3595   21.8799 C   0  0  0  0  0  0  0  0  0  0  0  0
   10.6510   -1.3988   21.9351 O   0  0  0  0  0  0  0  0  0  0  0  0
    8.7503   -1.9782   22.9185 N   0  0  0  0  0  0  0  0  0  0  0  0
    9.3219   -2.2805   23.6895 H   0  0  0  0  0  0  0  0  0  0  0  0
    7.4264   -2.0649   22.9509 C   0  0  0  0  0  0  0  0  0  0  0  0
    6.8598   -2.7191   24.0137 N   0  0  0  0  0  0  0  0  0  0  0  0
    5.9746   -3.1548   23.8291 H   0  0  0  0  0  0  0  0  0  0  0  0
    7.2464   -2.7152   25.3158 C   0  0  0  0  0  0  0  0  0  0  0  0
    8.4841   -1.8702   26.0154 S   0  0  0  0  0  0  0  0  0  0  0  0
    6.5233   -3.5524   26.1073 N   0  0  0  0  0  0  0  0  0  0  0  0
    6.9079   -3.5370   27.0394 H   0  0  0  0  0  0  0  0  0  0  0  0
    5.1688   -3.9583   26.0551 C   0  0  0  0  0  0  0  0  0  0  0  0
    4.8702   -5.1846   26.6613 C   0  0  0  0  0  0  0  0  0  0  0  0
    5.6866   -5.7469   27.1067 H   0  0  0  0  0  0  0  0  0  0  0  0
    3.5561   -5.6541   26.6862 C   0  0  0  0  0  0  0  0  0  0  0  0
    3.3297   -6.5998   27.1792 H   0  0  0  0  0  0  0  0  0  0  0  0
    2.5323   -4.8811   26.1190 C   0  0  0  0  0  0  0  0  0  0  0  0
    1.5052   -5.2323   26.1512 H   0  0  0  0  0  0  0  0  0  0  0  0
    2.8259   -3.6290   25.5670 C   0  0  0  0  0  0  0  0  0  0  0  0
    2.0256   -3.0020   25.1798 H   0  0  0  0  0  0  0  0  0  0  0  0
    4.1444   -3.1582   25.5323 C   0  0  0  0  0  0  0  0  0  0  0  0
    4.3604   -2.1569   25.1710 H   0  0  0  0  0  0  0  0  0  0  0  0
    6.6986   -1.5247   21.9363 C   0  0  0  0  0  0  0  0  0  0  0  0
    5.6309   -1.6291   21.8706 H   0  0  0  0  0  0  0  0  0  0  0  0
    5.4634    0.6293   20.1873 C   0  0  0  0  0  0  0  0  0  0  0  0
    5.0243    0.6573   21.1886 H   0  0  0  0  0  0  0  0  0  0  0  0
    4.8512    1.2861   19.1212 C   0  0  0  0  0  0  0  0  0  0  0  0
    3.9171    1.8207   19.2485 H   0  0  0  0  0  0  0  0  0  0  0  0
  1  2  1  0
  2  3  2  0
  3  4  1  0
  4  5  1  0
  4  6  2  0
  6  7  1  0
  7  8  2  0
  8  9  1  0
  9 10  2  0
  9 11  1  0
 11 12  1  0
 11 13  1  0
 13 14  1  0
 14 15  1  0
 14 16  1  0
 16 17  2  0
 16 18  1  0
 18 19  1  0
 18 20  1  0
 20 21  2  0
 21 22  1  0
 21 23  1  0
 23 24  1  0
 23 25  2  0
 25 26  1  0
 25 27  1  0
 27 28  1  0
 27 29  2  0
 29 30  1  0
 13 31  2  0
 31 32  1  0
  6 33  1  0
 33 34  1  0
 33 35  2  0
 35 36  1  0
 35  2  1  0
 31  7  1  0
 29 20  1  0
M  END
>  <cnnaffinity>  (1) 
-5.30813

>  <filename>  (1) 
O=c1nc(-c2cccnc2)cc(NC(=S)Nc2ccccc2)[nH]1

$$$$
