
     RDKit          3D

 32 34  0  0  0  0  0  0  0  0999 V2000
    4.9532    1.8251   17.0099 H   0  0  0  0  0  0  0  0  0  0  0  0
    5.3915    1.2810   17.8427 C   0  0  0  0  0  0  0  0  0  0  0  0
    6.5429    0.6395   17.5930 N   0  0  0  0  0  0  0  0  0  0  0  0
    7.1286    0.0160   18.6192 C   0  0  0  0  0  0  0  0  0  0  0  0
    8.0887   -0.4618   18.4192 H   0  0  0  0  0  0  0  0  0  0  0  0
    6.5844   -0.0418   19.9181 C   0  0  0  0  0  0  0  0  0  0  0  0
    7.2953   -0.7847   21.0115 C   0  0  0  0  0  0  0  0  0  0  0  0
    6.5552   -1.5622   21.7574 N   0  0  0  0  0  0  0  0  0  0  0  0
    7.1417   -2.2919   22.7893 N   0  0  0  0  0  0  0  0  0  0  0  0
    6.3116   -3.1179   23.5870 C   0  0  0  0  0  0  0  0  0  0  0  0
    6.8663   -3.7272   24.6466 N   0  0  0  0  0  0  0  0  0  0  0  0
    6.0784   -4.4662   25.4170 C   0  0  0  0  0  0  0  0  0  0  0  0
    6.5592   -4.9974   26.2328 H   0  0  0  0  0  0  0  0  0  0  0  0
    4.7088   -4.5889   25.2066 C   0  0  0  0  0  0  0  0  0  0  0  0
    3.9074   -5.4011   26.1672 C   0  0  0  0  0  0  0  0  0  0  0  0
    2.7947   -5.9002   25.5945 F   0  0  0  0  0  0  0  0  0  0  0  0
    4.6245   -6.4424   26.6375 F   0  0  0  0  0  0  0  0  0  0  0  0
    3.5075   -4.6919   27.2398 F   0  0  0  0  0  0  0  0  0  0  0  0
    4.1334   -3.9611   24.0909 C   0  0  0  0  0  0  0  0  0  0  0  0
    3.0594   -3.9911   23.9207 H   0  0  0  0  0  0  0  0  0  0  0  0
    4.9686   -3.2871   23.2260 C   0  0  0  0  0  0  0  0  0  0  0  0
    4.6667   -2.8243   22.2979 H   0  0  0  0  0  0  0  0  0  0  0  0
    8.4929   -2.1834   23.0805 C   0  0  0  0  0  0  0  0  0  0  0  0
    8.8479   -2.7593   23.9343 H   0  0  0  0  0  0  0  0  0  0  0  0
    9.3032   -1.4174   22.3450 C   0  0  0  0  0  0  0  0  0  0  0  0
   10.3619   -1.3420   22.5408 H   0  0  0  0  0  0  0  0  0  0  0  0
    8.7877   -0.6272   21.2346 C   0  0  0  0  0  0  0  0  0  0  0  0
    9.5227    0.0902   20.5628 O   0  0  0  0  0  0  0  0  0  0  0  0
    5.3646    0.6106   20.1502 C   0  0  0  0  0  0  0  0  0  0  0  0
    4.9176    0.5791   21.1446 H   0  0  0  0  0  0  0  0  0  0  0  0
    4.7654    1.2998   19.0937 C   0  0  0  0  0  0  0  0  0  0  0  0
    3.8563    1.8785   19.2313 H   0  0  0  0  0  0  0  0  0  0  0  0
  1  2  1  0
  2  3  2  0
  3  4  1  0
  4  5  1  0
  4  6  2  0
  6  7  1  0
  7  8  2  0
  8  9  1  0
  9 10  1  0
 10 11  2  0
 11 12  1  0
 12 13  1  0
 12 14  2  0
 14 15  1  0
 15 16  1  0
 15 17  1  0
 15 18  1  0
 14 19  1  0
 19 20  1  0
 19 21  2  0
 21 22  1  0
  9 23  1  0
 23 24  1  0
 23 25  2  0
 25 26  1  0
 25 27  1  0
 27 28  2  0
  6 29  1  0
 29 30  1  0
 29 31  2  0
 31 32  1  0
 31  2  1  0
 27  7  1  0
 21 10  1  0
M  END
>  <cnnaffinity>  (1) 
-5.41936

>  <filename>  (1) 
O=c1ccn(-c2ccc(C(F)(F)F)cn2)nc1-c1cccnc1

$$$$
