
     RDKit          3D

 37 39  0  0  0  0  0  0  0  0999 V2000
    4.9740    1.7920   16.9563 H   0  0  0  0  0  0  0  0  0  0  0  0
    5.4385    1.2948   17.8058 C   0  0  0  0  0  0  0  0  0  0  0  0
    6.6081    0.6721   17.5692 N   0  0  0  0  0  0  0  0  0  0  0  0
    7.1933    0.0562   18.6044 C   0  0  0  0  0  0  0  0  0  0  0  0
    8.1493   -0.4280   18.4245 H   0  0  0  0  0  0  0  0  0  0  0  0
    6.6365   -0.0052   19.8962 C   0  0  0  0  0  0  0  0  0  0  0  0
    7.3307   -0.7012   20.9287 N   0  0  0  0  0  0  0  0  0  0  0  0
    8.6915   -0.5803   20.8888 N   0  0  0  0  0  0  0  0  0  0  0  0
    9.3864   -1.1381   21.8439 C   0  0  0  0  0  0  0  0  0  0  0  0
   10.8845   -0.9191   21.8286 C   0  0  0  0  0  0  0  0  0  0  0  0
   11.3636   -1.9042   21.9202 H   0  0  0  0  0  0  0  0  0  0  0  0
   11.1781   -0.5034   20.8513 H   0  0  0  0  0  0  0  0  0  0  0  0
   11.3514   -0.0998   22.9595 N   0  0  0  0  0  0  0  0  0  0  0  0
   12.7874   -0.2189   23.2679 C   0  0  0  0  0  0  0  0  0  0  0  0
   13.1206   -1.2100   22.9434 H   0  0  0  0  0  0  0  0  0  0  0  0
   12.9027   -0.1733   24.3586 H   0  0  0  0  0  0  0  0  0  0  0  0
   13.7695    0.8002   22.6170 C   0  0  0  0  0  0  0  0  0  0  0  0
   13.9843    0.4318   21.6082 H   0  0  0  0  0  0  0  0  0  0  0  0
   14.7159    0.7689   23.1725 H   0  0  0  0  0  0  0  0  0  0  0  0
   13.3071    2.1891   22.5199 N   0  0  0  0  0  0  0  0  0  0  0  0
   13.4689    2.7020   23.3813 H   0  0  0  0  0  0  0  0  0  0  0  0
   11.8956    2.2287   22.1108 C   0  0  0  0  0  0  0  0  0  0  0  0
   11.8338    1.8797   21.0681 H   0  0  0  0  0  0  0  0  0  0  0  0
   11.5379    3.2642   22.1382 H   0  0  0  0  0  0  0  0  0  0  0  0
   10.9536    1.3229   22.9469 C   0  0  0  0  0  0  0  0  0  0  0  0
   10.9451    1.6774   23.9885 H   0  0  0  0  0  0  0  0  0  0  0  0
    9.9242    1.4049   22.5805 H   0  0  0  0  0  0  0  0  0  0  0  0
    8.8240   -1.9858   22.9341 C   0  0  0  0  0  0  0  0  0  0  0  0
    9.4975   -2.5578   23.7844 O   0  0  0  0  0  0  0  0  0  0  0  0
    7.3818   -2.1082   22.8532 C   0  0  0  0  0  0  0  0  0  0  0  0
    6.8966   -2.7193   23.6054 H   0  0  0  0  0  0  0  0  0  0  0  0
    6.7009   -1.4745   21.8738 C   0  0  0  0  0  0  0  0  0  0  0  0
    5.6190   -1.5597   21.7758 H   0  0  0  0  0  0  0  0  0  0  0  0
    5.4278    0.6577   20.1392 C   0  0  0  0  0  0  0  0  0  0  0  0
    5.0157    0.6919   21.1494 H   0  0  0  0  0  0  0  0  0  0  0  0
    4.8241    1.3172   19.0634 C   0  0  0  0  0  0  0  0  0  0  0  0
    3.8877    1.8456   19.1986 H   0  0  0  0  0  0  0  0  0  0  0  0
  1  2  1  0
  2  3  2  0
  3  4  1  0
  4  5  1  0
  4  6  2  0
  6  7  1  0
  7  8  1  0
  8  9  2  0
  9 10  1  0
 10 11  1  0
 10 12  1  0
 10 13  1  0
 13 14  1  0
 14 15  1  0
 14 16  1  0
 14 17  1  0
 17 18  1  0
 17 19  1  0
 17 20  1  0
 20 21  1  0
 20 22  1  0
 22 23  1  0
 22 24  1  0
 22 25  1  0
 25 26  1  0
 25 27  1  0
  9 28  1  0
 28 29  2  0
 28 30  1  0
 30 31  1  0
 30 32  2  0
 32 33  1  0
  6 34  1  0
 34 35  1  0
 34 36  2  0
 36 37  1  0
 36  2  1  0
 32  7  1  0
 25 13  1  0
M  END
>  <cnnaffinity>  (1) 
-4.39504

>  <filename>  (1) 
O=c1ccn(-c2cccnc2)nc1CN1CCNCC1

$$$$
