
     RDKit          3D

 45 48  0  0  0  0  0  0  0  0999 V2000
    2.4219    2.1861   25.1746 O   0  0  0  0  0  0  0  0  0  0  0  0
    3.5288    2.5432   25.5400 C   0  0  0  0  0  0  0  0  0  0  0  0
    3.8334    3.5360   26.5590 C   0  0  0  0  0  0  0  0  0  0  0  0
    5.1277    3.8495   26.8548 C   0  0  0  0  0  0  0  0  0  0  0  0
    6.2097    3.2137   26.1681 C   0  0  0  0  0  0  0  0  0  0  0  0
    5.9466    2.2610   25.2181 C   0  0  0  0  0  0  0  0  0  0  0  0
    6.9538    1.4357   24.4709 C   0  0  0  0  0  0  0  0  0  0  0  0
    6.9007    1.5068   22.9168 C   0  0  0  0  0  0  0  0  0  0  0  0
    7.9387    0.6093   22.3164 C   0  0  0  0  0  0  0  0  0  0  0  0
    9.2133    0.8065   22.5610 N   0  0  0  0  0  0  0  0  0  0  0  0
    9.8181   -0.2951   22.0541 C   0  0  0  0  0  0  0  0  0  0  0  0
   11.2680   -0.4180   22.2272 C   0  0  0  0  0  0  0  0  0  0  0  0
   12.1131   -1.2873   21.5136 C   0  0  0  0  0  0  0  0  0  0  0  0
   13.4720   -1.1760   21.7686 C   0  0  0  0  0  0  0  0  0  0  0  0
   14.3501   -1.9722   21.1459 F   0  0  0  0  0  0  0  0  0  0  0  0
   13.9486   -0.2421   22.6946 C   0  0  0  0  0  0  0  0  0  0  0  0
   13.1402    0.5610   23.3945 N   0  0  0  0  0  0  0  0  0  0  0  0
   11.8301    0.4675   23.1670 C   0  0  0  0  0  0  0  0  0  0  0  0
   11.1804    1.1157   23.7517 H   0  0  0  0  0  0  0  0  0  0  0  0
   15.0142   -0.1529   22.8532 H   0  0  0  0  0  0  0  0  0  0  0  0
   11.7560   -2.0074   20.7803 H   0  0  0  0  0  0  0  0  0  0  0  0
    8.9994   -1.1304   21.4457 N   0  0  0  0  0  0  0  0  0  0  0  0
    7.7830   -0.5413   21.6251 N   0  0  0  0  0  0  0  0  0  0  0  0
    6.5817   -1.0300   20.9539 C   0  0  0  0  0  0  0  0  0  0  0  0
    6.1457   -0.1377   19.8030 C   0  0  0  0  0  0  0  0  0  0  0  0
    4.9585    0.6055   19.8022 C   0  0  0  0  0  0  0  0  0  0  0  0
    4.6872    1.4480   18.7196 C   0  0  0  0  0  0  0  0  0  0  0  0
    5.5933    1.4891   17.6581 C   0  0  0  0  0  0  0  0  0  0  0  0
    6.7284    0.7753   17.6318 N   0  0  0  0  0  0  0  0  0  0  0  0
    6.9921    0.0001   18.6898 C   0  0  0  0  0  0  0  0  0  0  0  0
    7.9326   -0.5485   18.6503 H   0  0  0  0  0  0  0  0  0  0  0  0
    5.4138    2.1398   16.8031 H   0  0  0  0  0  0  0  0  0  0  0  0
    3.8063    2.0805   18.6913 H   0  0  0  0  0  0  0  0  0  0  0  0
    4.2532    0.5366   20.6337 H   0  0  0  0  0  0  0  0  0  0  0  0
    6.8071   -2.0452   20.6135 H   0  0  0  0  0  0  0  0  0  0  0  0
    5.7802   -1.1082   21.6962 H   0  0  0  0  0  0  0  0  0  0  0  0
    5.9046    1.3046   22.5130 H   0  0  0  0  0  0  0  0  0  0  0  0
    7.1775    2.5130   22.5861 H   0  0  0  0  0  0  0  0  0  0  0  0
    6.8294    0.3923   24.7952 H   0  0  0  0  0  0  0  0  0  0  0  0
    7.9624    1.7300   24.7749 H   0  0  0  0  0  0  0  0  0  0  0  0
    4.6381    1.9547   24.9527 N   0  0  0  0  0  0  0  0  0  0  0  0
    4.3552    1.2409   24.2994 H   0  0  0  0  0  0  0  0  0  0  0  0
    7.2336    3.4744   26.4088 H   0  0  0  0  0  0  0  0  0  0  0  0
    5.3533    4.5986   27.6141 H   0  0  0  0  0  0  0  0  0  0  0  0
    2.9765    3.9877   27.0368 H   0  0  0  0  0  0  0  0  0  0  0  0
  1  2  2  0
  2  3  1  0
  3  4  2  0
  4  5  1  0
  5  6  2  0
  6  7  1  0
  7  8  1  0
  8  9  1  0
  9 10  2  0
 10 11  1  0
 11 12  1  0
 12 13  2  0
 13 14  1  0
 14 15  1  0
 14 16  2  0
 16 17  1  0
 17 18  2  0
 18 19  1  0
 16 20  1  0
 13 21  1  0
 11 22  2  0
 22 23  1  0
 23 24  1  0
 24 25  1  0
 25 26  2  0
 26 27  1  0
 27 28  2  0
 28 29  1  0
 29 30  2  0
 30 31  1  0
 28 32  1  0
 27 33  1  0
 26 34  1  0
 24 35  1  0
 24 36  1  0
  8 37  1  0
  8 38  1  0
  7 39  1  0
  7 40  1  0
  6 41  1  0
 41 42  1  0
  5 43  1  0
  4 44  1  0
  3 45  1  0
 41  2  1  0
 23  9  1  0
 30 25  1  0
 18 12  1  0
M  END
>  <cnnaffinity>  (1) 
-6.57544

>  <filename>  (1) 
O=c1cccc(CCc2nc(-c3cncc(F)c3)nn2Cc2cccnc2)[nH]1

$$$$
