
     RDKit          3D

 40 42  0  0  0  0  0  0  0  0999 V2000
    4.1371   -7.6114   24.4153 H   0  0  0  0  0  0  0  0  0  0  0  0
    3.6293   -7.1564   25.0961 O   0  0  0  0  0  0  0  0  0  0  0  0
    3.4248   -5.8184   24.6747 C   0  0  0  0  0  0  0  0  0  0  0  0
    2.6160   -5.4368   25.3068 H   0  0  0  0  0  0  0  0  0  0  0  0
    3.0694   -5.7855   23.6312 H   0  0  0  0  0  0  0  0  0  0  0  0
    4.6618   -4.9199   24.8228 C   0  0  0  0  0  0  0  0  0  0  0  0
    4.9858   -4.9967   25.8738 H   0  0  0  0  0  0  0  0  0  0  0  0
    5.8300   -5.3772   23.9257 C   0  0  0  0  0  0  0  0  0  0  0  0
    5.4921   -5.4038   22.8809 H   0  0  0  0  0  0  0  0  0  0  0  0
    6.1320   -6.3969   24.1783 H   0  0  0  0  0  0  0  0  0  0  0  0
    7.0382   -4.4342   24.0173 C   0  0  0  0  0  0  0  0  0  0  0  0
    7.8158   -4.7247   23.3052 H   0  0  0  0  0  0  0  0  0  0  0  0
    7.4863   -4.4826   25.0249 H   0  0  0  0  0  0  0  0  0  0  0  0
    6.6217   -3.0756   23.7250 N   0  0  0  0  0  0  0  0  0  0  0  0
    7.3756   -2.2225   22.9064 C   0  0  0  0  0  0  0  0  0  0  0  0
    6.7244   -1.5316   21.8977 C   0  0  0  0  0  0  0  0  0  0  0  0
    5.6543   -1.6992   21.7989 H   0  0  0  0  0  0  0  0  0  0  0  0
    7.4128   -0.6873   20.9680 C   0  0  0  0  0  0  0  0  0  0  0  0
    6.6683    0.0186   19.8773 C   0  0  0  0  0  0  0  0  0  0  0  0
    7.1619    0.0732   18.5568 C   0  0  0  0  0  0  0  0  0  0  0  0
    8.0986   -0.4217   18.3017 H   0  0  0  0  0  0  0  0  0  0  0  0
    6.5474    0.6896   17.5371 N   0  0  0  0  0  0  0  0  0  0  0  0
    5.3905    1.3139   17.8070 C   0  0  0  0  0  0  0  0  0  0  0  0
    4.9155    1.8199   16.9688 H   0  0  0  0  0  0  0  0  0  0  0  0
    4.7953    1.3268   19.0738 C   0  0  0  0  0  0  0  0  0  0  0  0
    3.8568    1.8537   19.2246 H   0  0  0  0  0  0  0  0  0  0  0  0
    5.4415    0.6615   20.1198 C   0  0  0  0  0  0  0  0  0  0  0  0
    5.0183    0.6548   21.1253 H   0  0  0  0  0  0  0  0  0  0  0  0
    8.7673   -0.5350   21.1067 C   0  0  0  0  0  0  0  0  0  0  0  0
    9.3576    0.1021   20.4477 H   0  0  0  0  0  0  0  0  0  0  0  0
    9.4210   -1.1918   22.1192 N   0  0  0  0  0  0  0  0  0  0  0  0
   10.4122   -1.1697   22.3141 H   0  0  0  0  0  0  0  0  0  0  0  0
    8.8569   -2.0665   23.0485 C   0  0  0  0  0  0  0  0  0  0  0  0
    9.6359   -2.5867   23.8359 O   0  0  0  0  0  0  0  0  0  0  0  0
    5.6058   -2.5870   24.6443 C   0  0  0  0  0  0  0  0  0  0  0  0
    5.9746   -2.6694   25.6809 H   0  0  0  0  0  0  0  0  0  0  0  0
    5.4345   -1.5215   24.4764 H   0  0  0  0  0  0  0  0  0  0  0  0
    4.3379   -3.4426   24.5128 C   0  0  0  0  0  0  0  0  0  0  0  0
    3.5375   -3.0613   25.1602 H   0  0  0  0  0  0  0  0  0  0  0  0
    3.9731   -3.3596   23.4808 H   0  0  0  0  0  0  0  0  0  0  0  0
  1  2  1  0
  2  3  1  0
  3  4  1  0
  3  5  1  0
  3  6  1  0
  6  7  1  0
  6  8  1  0
  8  9  1  0
  8 10  1  0
  8 11  1  0
 11 12  1  0
 11 13  1  0
 11 14  1  0
 14 15  1  0
 15 16  2  0
 16 17  1  0
 16 18  1  0
 18 19  1  0
 19 20  2  0
 20 21  1  0
 20 22  1  0
 22 23  2  0
 23 24  1  0
 23 25  1  0
 25 26  1  0
 25 27  2  0
 27 28  1  0
 18 29  2  0
 29 30  1  0
 29 31  1  0
 31 32  1  0
 31 33  1  0
 33 34  2  0
 14 35  1  0
 35 36  1  0
 35 37  1  0
 35 38  1  0
 38 39  1  0
 38 40  1  0
 38  6  1  0
 33 15  1  0
 27 19  1  0
M  END
>  <cnnaffinity>  (1) 
-5.04878

>  <filename>  (1) 
O=c1[nH]cc(-c2cccnc2)cc1N1CCC(CO)CC1

$$$$
