
     RDKit          3D

 39 41  0  0  0  0  0  0  0  0999 V2000
    4.9914    1.8324   16.9650 H   0  0  0  0  0  0  0  0  0  0  0  0
    5.4775    1.3192   17.7929 C   0  0  0  0  0  0  0  0  0  0  0  0
    6.6713    0.7662   17.5292 N   0  0  0  0  0  0  0  0  0  0  0  0
    7.2968    0.1424   18.5315 C   0  0  0  0  0  0  0  0  0  0  0  0
    8.2745   -0.2735   18.2965 H   0  0  0  0  0  0  0  0  0  0  0  0
    6.7503   -0.0192   19.8172 C   0  0  0  0  0  0  0  0  0  0  0  0
    7.5090   -0.8003   20.8181 C   0  0  0  0  0  0  0  0  0  0  0  0
    8.8065   -0.5660   20.9342 N   0  0  0  0  0  0  0  0  0  0  0  0
    9.4999   -1.1252   22.0000 C   0  0  0  0  0  0  0  0  0  0  0  0
   10.9711   -0.7862   22.1578 C   0  0  0  0  0  0  0  0  0  0  0  0
   11.3176   -0.3472   21.2187 H   0  0  0  0  0  0  0  0  0  0  0  0
   11.5437   -1.7120   22.3138 H   0  0  0  0  0  0  0  0  0  0  0  0
   11.2476    0.1886   23.3379 C   0  0  0  0  0  0  0  0  0  0  0  0
   10.8319   -0.2758   24.2462 H   0  0  0  0  0  0  0  0  0  0  0  0
   12.7464    0.4356   23.6410 C   0  0  0  0  0  0  0  0  0  0  0  0
   12.8300    0.8399   24.6588 H   0  0  0  0  0  0  0  0  0  0  0  0
   13.2919   -0.5097   23.6357 H   0  0  0  0  0  0  0  0  0  0  0  0
   13.4730    1.3962   22.6914 C   0  0  0  0  0  0  0  0  0  0  0  0
   13.6448    0.8705   21.7513 H   0  0  0  0  0  0  0  0  0  0  0  0
   14.4712    1.6160   23.0931 H   0  0  0  0  0  0  0  0  0  0  0  0
   12.6847    2.6901   22.4520 C   0  0  0  0  0  0  0  0  0  0  0  0
   12.6526    3.2657   23.3877 H   0  0  0  0  0  0  0  0  0  0  0  0
   13.1797    3.3323   21.7135 H   0  0  0  0  0  0  0  0  0  0  0  0
   11.2420    2.3816   22.0295 C   0  0  0  0  0  0  0  0  0  0  0  0
   11.2394    1.8311   21.0772 H   0  0  0  0  0  0  0  0  0  0  0  0
   10.6953    3.3123   21.8476 H   0  0  0  0  0  0  0  0  0  0  0  0
   10.5411    1.5412   23.1109 C   0  0  0  0  0  0  0  0  0  0  0  0
   10.5650    2.1151   24.0478 H   0  0  0  0  0  0  0  0  0  0  0  0
    9.4862    1.3789   22.8618 H   0  0  0  0  0  0  0  0  0  0  0  0
    8.8804   -1.9119   22.9320 C   0  0  0  0  0  0  0  0  0  0  0  0
    9.3884   -2.2799   23.8220 H   0  0  0  0  0  0  0  0  0  0  0  0
    7.5514   -2.2605   22.7518 N   0  0  0  0  0  0  0  0  0  0  0  0
    7.0493   -2.9090   23.3421 H   0  0  0  0  0  0  0  0  0  0  0  0
    6.7927   -1.8563   21.6580 C   0  0  0  0  0  0  0  0  0  0  0  0
    5.6998   -2.3805   21.4915 O   0  0  0  0  0  0  0  0  0  0  0  0
    5.5085    0.5892   20.0842 C   0  0  0  0  0  0  0  0  0  0  0  0
    5.0605    0.5474   21.0786 H   0  0  0  0  0  0  0  0  0  0  0  0
    4.8680    1.2730   19.0499 C   0  0  0  0  0  0  0  0  0  0  0  0
    3.9295    1.7935   19.2074 H   0  0  0  0  0  0  0  0  0  0  0  0
  1  2  1  0
  2  3  2  0
  3  4  1  0
  4  5  1  0
  4  6  2  0
  6  7  1  0
  7  8  2  0
  8  9  1  0
  9 10  1  0
 10 11  1  0
 10 12  1  0
 10 13  1  0
 13 14  1  0
 13 15  1  0
 15 16  1  0
 15 17  1  0
 15 18  1  0
 18 19  1  0
 18 20  1  0
 18 21  1  0
 21 22  1  0
 21 23  1  0
 21 24  1  0
 24 25  1  0
 24 26  1  0
 24 27  1  0
 27 28  1  0
 27 29  1  0
  9 30  2  0
 30 31  1  0
 30 32  1  0
 32 33  1  0
 32 34  1  0
 34 35  2  0
  6 36  1  0
 36 37  1  0
 36 38  2  0
 38 39  1  0
 38  2  1  0
 34  7  1  0
 27 13  1  0
M  END
>  <cnnaffinity>  (1) 
-5.33963

>  <filename>  (1) 
O=c1[nH]cc(CC2CCCCC2)nc1-c1cccnc1

$$$$
