
     RDKit          3D

 39 41  0  0  0  0  0  0  0  0999 V2000
    4.9175    1.8048   16.9783 H   0  0  0  0  0  0  0  0  0  0  0  0
    5.3892    1.2976   17.8186 C   0  0  0  0  0  0  0  0  0  0  0  0
    6.5505    0.6783   17.5564 N   0  0  0  0  0  0  0  0  0  0  0  0
    7.1582    0.0460   18.5671 C   0  0  0  0  0  0  0  0  0  0  0  0
    8.1219   -0.4127   18.3469 H   0  0  0  0  0  0  0  0  0  0  0  0
    6.6433    0.0037   19.8759 C   0  0  0  0  0  0  0  0  0  0  0  0
    7.3448   -0.6690   20.9385 N   0  0  0  0  0  0  0  0  0  0  0  0
    7.5700   -2.0248   20.8164 C   0  0  0  0  0  0  0  0  0  0  0  0
    7.1220   -2.4489   19.9243 H   0  0  0  0  0  0  0  0  0  0  0  0
    8.2433   -2.7365   21.7543 C   0  0  0  0  0  0  0  0  0  0  0  0
    8.4121   -3.8050   21.6317 H   0  0  0  0  0  0  0  0  0  0  0  0
    8.6929   -2.0732   22.9469 C   0  0  0  0  0  0  0  0  0  0  0  0
    9.3687   -2.8842   24.0400 C   0  0  0  0  0  0  0  0  0  0  0  0
   10.1934   -3.4495   23.5865 H   0  0  0  0  0  0  0  0  0  0  0  0
    9.8278   -2.1899   24.7719 H   0  0  0  0  0  0  0  0  0  0  0  0
    8.4604   -3.8356   24.6856 N   0  0  0  0  0  0  0  0  0  0  0  0
    9.1990   -4.8574   25.4278 C   0  0  0  0  0  0  0  0  0  0  0  0
    9.8066   -4.4120   26.2457 H   0  0  0  0  0  0  0  0  0  0  0  0
    9.8978   -5.3366   24.7296 H   0  0  0  0  0  0  0  0  0  0  0  0
    8.2471   -5.9054   26.0036 C   0  0  0  0  0  0  0  0  0  0  0  0
    8.8254   -6.6556   26.5563 H   0  0  0  0  0  0  0  0  0  0  0  0
    7.7673   -6.4138   25.1603 H   0  0  0  0  0  0  0  0  0  0  0  0
    7.1741   -5.2585   26.8947 C   0  0  0  0  0  0  0  0  0  0  0  0
    7.6503   -4.8460   27.7989 H   0  0  0  0  0  0  0  0  0  0  0  0
    6.4497   -6.0069   27.2385 H   0  0  0  0  0  0  0  0  0  0  0  0
    6.4669   -4.1287   26.1280 C   0  0  0  0  0  0  0  0  0  0  0  0
    5.8668   -4.5411   25.3056 H   0  0  0  0  0  0  0  0  0  0  0  0
    5.7762   -3.5814   26.7816 H   0  0  0  0  0  0  0  0  0  0  0  0
    7.4834   -3.1480   25.5415 C   0  0  0  0  0  0  0  0  0  0  0  0
    6.9688   -2.3905   24.9414 H   0  0  0  0  0  0  0  0  0  0  0  0
    7.9901   -2.6059   26.3701 H   0  0  0  0  0  0  0  0  0  0  0  0
    8.4590   -0.7321   23.0900 C   0  0  0  0  0  0  0  0  0  0  0  0
    8.7358   -0.1625   23.9671 H   0  0  0  0  0  0  0  0  0  0  0  0
    7.7552    0.0621   22.1024 C   0  0  0  0  0  0  0  0  0  0  0  0
    7.5339    1.2532   22.2379 O   0  0  0  0  0  0  0  0  0  0  0  0
    5.4359    0.6455   20.1399 C   0  0  0  0  0  0  0  0  0  0  0  0
    5.0492    0.6404   21.1600 H   0  0  0  0  0  0  0  0  0  0  0  0
    4.7992    1.3051   19.0869 C   0  0  0  0  0  0  0  0  0  0  0  0
    3.8753    1.8427   19.2456 H   0  0  0  0  0  0  0  0  0  0  0  0
  1  2  1  0
  2  3  2  0
  3  4  1  0
  4  5  1  0
  4  6  2  0
  6  7  1  0
  7  8  1  0
  8  9  1  0
  8 10  2  0
 10 11  1  0
 10 12  1  0
 12 13  1  0
 13 14  1  0
 13 15  1  0
 13 16  1  0
 16 17  1  0
 17 18  1  0
 17 19  1  0
 17 20  1  0
 20 21  1  0
 20 22  1  0
 20 23  1  0
 23 24  1  0
 23 25  1  0
 23 26  1  0
 26 27  1  0
 26 28  1  0
 26 29  1  0
 29 30  1  0
 29 31  1  0
 12 32  2  0
 32 33  1  0
 32 34  1  0
 34 35  2  0
  6 36  1  0
 36 37  1  0
 36 38  2  0
 38 39  1  0
 38  2  1  0
 34  7  1  0
 29 16  1  0
M  END
>  <cnnaffinity>  (1) 
-4.95832

>  <filename>  (1) 
O=c1cc(CN2CCCCC2)ccn1-c1cccnc1

$$$$
