
     RDKit          3D

 51 54  0  0  0  0  0  0  0  0999 V2000
    7.9366    2.4014   21.7068 O   0  0  0  0  0  0  0  0  0  0  0  0
    8.9968    2.3508   22.3118 C   0  0  0  0  0  0  0  0  0  0  0  0
    9.2488    3.2439   23.5259 C   0  0  0  0  0  0  0  0  0  0  0  0
    9.3809    2.4974   24.8756 C   0  0  0  0  0  0  0  0  0  0  0  0
   10.7592    1.8626   25.0842 C   0  0  0  0  0  0  0  0  0  0  0  0
   11.0996    0.7574   24.0820 C   0  0  0  0  0  0  0  0  0  0  0  0
   11.2412    1.2687   22.6387 C   0  0  0  0  0  0  0  0  0  0  0  0
    9.9811    1.4572   21.9161 N   0  0  0  0  0  0  0  0  0  0  0  0
    9.5943    0.4559   20.9021 C   0  0  0  0  0  0  0  0  0  0  0  0
    8.6128   -0.5747   21.3754 C   0  0  0  0  0  0  0  0  0  0  0  0
    8.8541   -1.4657   22.3179 N   0  0  0  0  0  0  0  0  0  0  0  0
    7.6357   -2.0461   22.5080 C   0  0  0  0  0  0  0  0  0  0  0  0
    7.4085   -3.0405   23.6052 C   0  0  0  0  0  0  0  0  0  0  0  0
    8.3169   -4.2871   23.4353 C   0  0  0  0  0  0  0  0  0  0  0  0
    8.2690   -5.1986   24.6381 C   0  0  0  0  0  0  0  0  0  0  0  0
    7.8406   -4.8057   25.8424 C   0  0  0  0  0  0  0  0  0  0  0  0
    7.2787   -3.4276   26.1143 C   0  0  0  0  0  0  0  0  0  0  0  0
    7.6296   -2.4138   25.0095 C   0  0  0  0  0  0  0  0  0  0  0  0
    7.0206   -1.5086   25.1307 H   0  0  0  0  0  0  0  0  0  0  0  0
    8.6822   -2.0968   25.0971 H   0  0  0  0  0  0  0  0  0  0  0  0
    6.1836   -3.5067   26.2085 H   0  0  0  0  0  0  0  0  0  0  0  0
    7.6263   -3.0664   27.0903 H   0  0  0  0  0  0  0  0  0  0  0  0
    7.8647   -5.5054   26.6790 H   0  0  0  0  0  0  0  0  0  0  0  0
    8.6346   -6.2157   24.4986 H   0  0  0  0  0  0  0  0  0  0  0  0
    9.3566   -3.9628   23.2685 H   0  0  0  0  0  0  0  0  0  0  0  0
    8.0320   -4.8446   22.5340 H   0  0  0  0  0  0  0  0  0  0  0  0
    6.3547   -3.3380   23.5172 H   0  0  0  0  0  0  0  0  0  0  0  0
    6.6901   -1.6141   21.7051 N   0  0  0  0  0  0  0  0  0  0  0  0
    7.3289   -0.6904   20.9394 N   0  0  0  0  0  0  0  0  0  0  0  0
    6.6500   -0.0003   19.8983 C   0  0  0  0  0  0  0  0  0  0  0  0
    5.4350    0.6426   20.1598 C   0  0  0  0  0  0  0  0  0  0  0  0
    4.8076    1.3123   19.1042 C   0  0  0  0  0  0  0  0  0  0  0  0
    5.3950    1.2931   17.8366 C   0  0  0  0  0  0  0  0  0  0  0  0
    6.5493    0.6631   17.5733 N   0  0  0  0  0  0  0  0  0  0  0  0
    7.1604    0.0420   18.5894 C   0  0  0  0  0  0  0  0  0  0  0  0
    8.1087   -0.4426   18.3536 H   0  0  0  0  0  0  0  0  0  0  0  0
    4.9244    1.7934   16.9917 H   0  0  0  0  0  0  0  0  0  0  0  0
    3.8773    1.8446   19.2568 H   0  0  0  0  0  0  0  0  0  0  0  0
    5.0212    0.6100   21.1660 H   0  0  0  0  0  0  0  0  0  0  0  0
    9.1945    0.9813   20.0357 H   0  0  0  0  0  0  0  0  0  0  0  0
   10.4953   -0.0856   20.6074 H   0  0  0  0  0  0  0  0  0  0  0  0
   11.8204    2.2076   22.6189 H   0  0  0  0  0  0  0  0  0  0  0  0
   11.8251    0.5394   22.0643 H   0  0  0  0  0  0  0  0  0  0  0  0
   10.3543   -0.0505   24.1164 H   0  0  0  0  0  0  0  0  0  0  0  0
   12.0609    0.3151   24.3780 H   0  0  0  0  0  0  0  0  0  0  0  0
   10.8301    1.4721   26.1086 H   0  0  0  0  0  0  0  0  0  0  0  0
   11.5330    2.6431   24.9895 H   0  0  0  0  0  0  0  0  0  0  0  0
    8.6026    1.7196   24.9411 H   0  0  0  0  0  0  0  0  0  0  0  0
    9.1762    3.1929   25.7002 H   0  0  0  0  0  0  0  0  0  0  0  0
    8.3939    3.9236   23.5477 H   0  0  0  0  0  0  0  0  0  0  0  0
   10.1468    3.8465   23.3384 H   0  0  0  0  0  0  0  0  0  0  0  0
  1  2  2  0
  2  3  1  0
  3  4  1  0
  4  5  1  0
  5  6  1  0
  6  7  1  0
  7  8  1  0
  8  9  1  0
  9 10  1  0
 10 11  2  0
 11 12  1  0
 12 13  1  0
 13 14  1  0
 14 15  1  0
 15 16  2  0
 16 17  1  0
 17 18  1  0
 18 19  1  0
 18 20  1  0
 17 21  1  0
 17 22  1  0
 16 23  1  0
 15 24  1  0
 14 25  1  0
 14 26  1  0
 13 27  1  0
 12 28  2  0
 28 29  1  0
 29 30  1  0
 30 31  2  0
 31 32  1  0
 32 33  2  0
 33 34  1  0
 34 35  2  0
 35 36  1  0
 33 37  1  0
 32 38  1  0
 31 39  1  0
  9 40  1  0
  9 41  1  0
  7 42  1  0
  7 43  1  0
  6 44  1  0
  6 45  1  0
  5 46  1  0
  5 47  1  0
  4 48  1  0
  4 49  1  0
  3 50  1  0
  3 51  1  0
  8  2  1  0
 29 10  1  0
 35 30  1  0
 18 13  1  0
M  END
>  <cnnaffinity>  (1) 
-6.35636

>  <filename>  (1) 
O=C1CCCCCN1Cc1nc(C2CC=CCC2)nn1-c1cccnc1

$$$$
