
     RDKit          3D

 33 35  0  0  0  0  0  0  0  0999 V2000
    4.9245    1.8102   16.9643 H   0  0  0  0  0  0  0  0  0  0  0  0
    5.3821    1.3005   17.8111 C   0  0  0  0  0  0  0  0  0  0  0  0
    6.5463    0.6799   17.5631 N   0  0  0  0  0  0  0  0  0  0  0  0
    7.1502    0.0705   18.5925 C   0  0  0  0  0  0  0  0  0  0  0  0
    8.0964   -0.4222   18.3594 H   0  0  0  0  0  0  0  0  0  0  0  0
    6.6478    0.0463   19.9076 C   0  0  0  0  0  0  0  0  0  0  0  0
    7.3680   -0.6566   21.0135 C   0  0  0  0  0  0  0  0  0  0  0  0
    7.5956   -2.0621   20.8589 C   0  0  0  0  0  0  0  0  0  0  0  0
    7.1642   -2.4921   19.9547 H   0  0  0  0  0  0  0  0  0  0  0  0
    8.2451   -2.8016   21.8002 C   0  0  0  0  0  0  0  0  0  0  0  0
    8.4749   -3.8532   21.7051 H   0  0  0  0  0  0  0  0  0  0  0  0
    8.6128   -2.1947   23.0753 C   0  0  0  0  0  0  0  0  0  0  0  0
    9.1192   -2.7490   24.0355 O   0  0  0  0  0  0  0  0  0  0  0  0
    8.3060   -0.8428   23.1877 N   0  0  0  0  0  0  0  0  0  0  0  0
    8.5018   -0.5297   24.1311 H   0  0  0  0  0  0  0  0  0  0  0  0
    7.7471   -0.0453   22.1964 C   0  0  0  0  0  0  0  0  0  0  0  0
    7.5501    1.4167   22.4632 C   0  0  0  0  0  0  0  0  0  0  0  0
    6.9596    1.7481   23.6298 N   0  0  0  0  0  0  0  0  0  0  0  0
    6.7206    3.0376   23.8869 C   0  0  0  0  0  0  0  0  0  0  0  0
    6.0327    3.4310   25.2115 C   0  0  0  0  0  0  0  0  0  0  0  0
    5.6955    2.4044   25.9949 F   0  0  0  0  0  0  0  0  0  0  0  0
    6.8483    4.2354   25.9303 F   0  0  0  0  0  0  0  0  0  0  0  0
    4.9069    4.1377   24.9689 F   0  0  0  0  0  0  0  0  0  0  0  0
    7.1256    4.0639   23.0203 C   0  0  0  0  0  0  0  0  0  0  0  0
    6.9212    5.1003   23.2603 H   0  0  0  0  0  0  0  0  0  0  0  0
    7.8043    3.7331   21.8494 C   0  0  0  0  0  0  0  0  0  0  0  0
    8.1821    4.5414   21.2214 H   0  0  0  0  0  0  0  0  0  0  0  0
    7.9825    2.3836   21.5325 C   0  0  0  0  0  0  0  0  0  0  0  0
    8.4207    2.0400   20.6002 H   0  0  0  0  0  0  0  0  0  0  0  0
    5.4172    0.6793   20.1361 C   0  0  0  0  0  0  0  0  0  0  0  0
    4.9958    0.6616   21.1423 H   0  0  0  0  0  0  0  0  0  0  0  0
    4.7778    1.3196   19.0730 C   0  0  0  0  0  0  0  0  0  0  0  0
    3.8444    1.8514   19.2105 H   0  0  0  0  0  0  0  0  0  0  0  0
  1  2  1  0
  2  3  2  0
  3  4  1  0
  4  5  1  0
  4  6  2  0
  6  7  1  0
  7  8  1  0
  8  9  1  0
  8 10  2  0
 10 11  1  0
 10 12  1  0
 12 13  2  0
 12 14  1  0
 14 15  1  0
 14 16  1  0
 16 17  1  0
 17 18  2  0
 18 19  1  0
 19 20  1  0
 20 21  1  0
 20 22  1  0
 20 23  1  0
 19 24  2  0
 24 25  1  0
 24 26  1  0
 26 27  1  0
 26 28  2  0
 28 29  1  0
  6 30  1  0
 30 31  1  0
 30 32  2  0
 32 33  1  0
 32  2  1  0
 16  7  2  0
 28 17  1  0
M  END
>  <cnnaffinity>  (1) 
-5.06367

>  <filename>  (1) 
O=c1ccc(-c2cccnc2)c(-c2cccc(C(F)(F)F)n2)[nH]1

$$$$
