
     RDKit          3D

 46 49  0  0  0  0  0  0  0  0999 V2000
    3.4514    3.8381   27.0096 O   0  0  0  0  0  0  0  0  0  0  0  0
    4.4108    3.3070   26.4745 C   0  0  0  0  0  0  0  0  0  0  0  0
    5.8097    3.6969   26.5832 C   0  0  0  0  0  0  0  0  0  0  0  0
    6.7720    3.0287   25.8888 C   0  0  0  0  0  0  0  0  0  0  0  0
    6.4367    1.9239   25.0274 C   0  0  0  0  0  0  0  0  0  0  0  0
    7.4869    1.2516   24.1998 C   0  0  0  0  0  0  0  0  0  0  0  0
    7.6584    1.8315   22.7673 C   0  0  0  0  0  0  0  0  0  0  0  0
    8.6584    0.9848   22.0663 C   0  0  0  0  0  0  0  0  0  0  0  0
    9.9629    1.0633   22.2649 N   0  0  0  0  0  0  0  0  0  0  0  0
   10.4070   -0.1422   21.8452 C   0  0  0  0  0  0  0  0  0  0  0  0
   11.8183   -0.5550   21.7988 C   0  0  0  0  0  0  0  0  0  0  0  0
   12.0663   -1.7650   21.1445 C   0  0  0  0  0  0  0  0  0  0  0  0
   13.3232   -2.0631   20.6545 C   0  0  0  0  0  0  0  0  0  0  0  0
   14.3780   -1.2225   20.9660 C   0  0  0  0  0  0  0  0  0  0  0  0
   14.1978   -0.1325   21.8346 C   0  0  0  0  0  0  0  0  0  0  0  0
   12.9055    0.2329   22.2276 C   0  0  0  0  0  0  0  0  0  0  0  0
   12.7307    1.1275   22.8216 H   0  0  0  0  0  0  0  0  0  0  0  0
   15.0414    0.4932   22.1203 H   0  0  0  0  0  0  0  0  0  0  0  0
   15.3002   -1.4436   20.4532 H   0  0  0  0  0  0  0  0  0  0  0  0
   13.4921   -2.8962   19.9787 H   0  0  0  0  0  0  0  0  0  0  0  0
   11.2060   -2.4017   20.9958 H   0  0  0  0  0  0  0  0  0  0  0  0
    9.4488   -0.9407   21.3844 N   0  0  0  0  0  0  0  0  0  0  0  0
    8.3368   -0.1965   21.4950 N   0  0  0  0  0  0  0  0  0  0  0  0
    7.0568   -0.7286   21.0275 C   0  0  0  0  0  0  0  0  0  0  0  0
    6.4172    0.0485   19.8925 C   0  0  0  0  0  0  0  0  0  0  0  0
    5.1970    0.7218   20.0213 C   0  0  0  0  0  0  0  0  0  0  0  0
    4.6820    1.4104   18.9193 C   0  0  0  0  0  0  0  0  0  0  0  0
    5.4021    1.3918   17.7225 C   0  0  0  0  0  0  0  0  0  0  0  0
    6.5621    0.7340   17.5701 N   0  0  0  0  0  0  0  0  0  0  0  0
    7.0489    0.0900   18.6372 C   0  0  0  0  0  0  0  0  0  0  0  0
    7.9871   -0.4417   18.4811 H   0  0  0  0  0  0  0  0  0  0  0  0
    5.0357    1.9274   16.8484 H   0  0  0  0  0  0  0  0  0  0  0  0
    3.7548    1.9693   18.9790 H   0  0  0  0  0  0  0  0  0  0  0  0
    4.6546    0.7068   20.9694 H   0  0  0  0  0  0  0  0  0  0  0  0
    6.3715   -0.7986   21.8822 H   0  0  0  0  0  0  0  0  0  0  0  0
    7.2847   -1.7487   20.7067 H   0  0  0  0  0  0  0  0  0  0  0  0
    6.7145    1.8386   22.2127 H   0  0  0  0  0  0  0  0  0  0  0  0
    8.0366    2.8560   22.8011 H   0  0  0  0  0  0  0  0  0  0  0  0
    8.4605    1.3130   24.7043 H   0  0  0  0  0  0  0  0  0  0  0  0
    7.2646    0.1758   24.1096 H   0  0  0  0  0  0  0  0  0  0  0  0
    5.1339    1.5230   24.9576 C   0  0  0  0  0  0  0  0  0  0  0  0
    4.1737    2.2024   25.6623 N   0  0  0  0  0  0  0  0  0  0  0  0
    3.1843    2.0044   25.6567 H   0  0  0  0  0  0  0  0  0  0  0  0
    4.8151    0.6603   24.3721 H   0  0  0  0  0  0  0  0  0  0  0  0
    7.8213    3.3178   25.9879 H   0  0  0  0  0  0  0  0  0  0  0  0
    6.0052    4.5352   27.2362 H   0  0  0  0  0  0  0  0  0  0  0  0
  1  2  2  0
  2  3  1  0
  3  4  2  0
  4  5  1  0
  5  6  1  0
  6  7  1  0
  7  8  1  0
  8  9  2  0
  9 10  1  0
 10 11  1  0
 11 12  2  0
 12 13  1  0
 13 14  2  0
 14 15  1  0
 15 16  2  0
 16 17  1  0
 15 18  1  0
 14 19  1  0
 13 20  1  0
 12 21  1  0
 10 22  2  0
 22 23  1  0
 23 24  1  0
 24 25  1  0
 25 26  2  0
 26 27  1  0
 27 28  2  0
 28 29  1  0
 29 30  2  0
 30 31  1  0
 28 32  1  0
 27 33  1  0
 26 34  1  0
 24 35  1  0
 24 36  1  0
  7 37  1  0
  7 38  1  0
  6 39  1  0
  6 40  1  0
  5 41  2  0
 41 42  1  0
 42 43  1  0
 41 44  1  0
  4 45  1  0
  3 46  1  0
 42  2  1  0
 23  8  1  0
 30 25  1  0
 16 11  1  0
M  END
>  <cnnaffinity>  (1) 
-6.46252

>  <filename>  (1) 
O=c1ccc(CCc2nc(-c3ccccc3)nn2Cc2cccnc2)c[nH]1

$$$$
