
     RDKit          3D

 44 47  0  0  0  0  0  0  0  0999 V2000
    5.9133    7.6438   25.3825 H   0  0  0  0  0  0  0  0  0  0  0  0
    6.0530    7.2578   24.3758 C   0  0  0  0  0  0  0  0  0  0  0  0
    6.1996    5.9320   24.2799 N   0  0  0  0  0  0  0  0  0  0  0  0
    6.4291    5.4467   23.0526 C   0  0  0  0  0  0  0  0  0  0  0  0
    6.7829    4.1030   22.9676 N   0  0  0  0  0  0  0  0  0  0  0  0
    5.9125    3.0548   23.5241 C   0  0  0  0  0  0  0  0  0  0  0  0
    5.1267    2.7833   22.7932 H   0  0  0  0  0  0  0  0  0  0  0  0
    5.4385    3.4113   24.4423 H   0  0  0  0  0  0  0  0  0  0  0  0
    6.7265    1.7653   23.7726 C   0  0  0  0  0  0  0  0  0  0  0  0
    7.5243    2.0005   24.4986 H   0  0  0  0  0  0  0  0  0  0  0  0
    6.0721    0.9846   24.1818 H   0  0  0  0  0  0  0  0  0  0  0  0
    7.2881    1.3048   22.4979 N   0  0  0  0  0  0  0  0  0  0  0  0
    7.6280   -0.0485   22.2450 C   0  0  0  0  0  0  0  0  0  0  0  0
    8.3122   -0.8365   23.2339 C   0  0  0  0  0  0  0  0  0  0  0  0
    8.5609   -0.3445   24.1758 H   0  0  0  0  0  0  0  0  0  0  0  0
    8.6385   -2.1434   22.9977 C   0  0  0  0  0  0  0  0  0  0  0  0
    9.1235   -2.7785   23.7246 H   0  0  0  0  0  0  0  0  0  0  0  0
    8.3003   -2.7849   21.7347 C   0  0  0  0  0  0  0  0  0  0  0  0
    8.4177   -3.9668   21.4524 O   0  0  0  0  0  0  0  0  0  0  0  0
    7.7914   -1.9194   20.7787 N   0  0  0  0  0  0  0  0  0  0  0  0
    7.5221   -2.4149   19.9429 H   0  0  0  0  0  0  0  0  0  0  0  0
    7.3725   -0.6316   21.0101 C   0  0  0  0  0  0  0  0  0  0  0  0
    6.6589    0.0291   19.8984 C   0  0  0  0  0  0  0  0  0  0  0  0
    7.1597   -0.0035   18.5790 C   0  0  0  0  0  0  0  0  0  0  0  0
    8.0833   -0.5357   18.3558 H   0  0  0  0  0  0  0  0  0  0  0  0
    6.5859    0.6184   17.5439 N   0  0  0  0  0  0  0  0  0  0  0  0
    5.4416    1.2800   17.7803 C   0  0  0  0  0  0  0  0  0  0  0  0
    4.9874    1.7772   16.9271 H   0  0  0  0  0  0  0  0  0  0  0  0
    4.8249    1.3317   19.0354 C   0  0  0  0  0  0  0  0  0  0  0  0
    3.8828    1.8566   19.1562 H   0  0  0  0  0  0  0  0  0  0  0  0
    5.4534    0.7163   20.1159 C   0  0  0  0  0  0  0  0  0  0  0  0
    5.0139    0.7388   21.1148 H   0  0  0  0  0  0  0  0  0  0  0  0
    8.1651    2.3110   21.9041 C   0  0  0  0  0  0  0  0  0  0  0  0
    8.4945    1.9530   20.9212 H   0  0  0  0  0  0  0  0  0  0  0  0
    9.0675    2.4973   22.5147 H   0  0  0  0  0  0  0  0  0  0  0  0
    7.4050    3.6250   21.7293 C   0  0  0  0  0  0  0  0  0  0  0  0
    8.1297    4.3622   21.3718 H   0  0  0  0  0  0  0  0  0  0  0  0
    6.6196    3.4613   20.9633 H   0  0  0  0  0  0  0  0  0  0  0  0
    6.3757    6.2484   21.8854 C   0  0  0  0  0  0  0  0  0  0  0  0
    6.4774    5.7664   20.9227 H   0  0  0  0  0  0  0  0  0  0  0  0
    6.2076    7.6207   22.0124 C   0  0  0  0  0  0  0  0  0  0  0  0
    6.2082    8.2512   21.1215 H   0  0  0  0  0  0  0  0  0  0  0  0
    6.0693    8.1476   23.2992 C   0  0  0  0  0  0  0  0  0  0  0  0
    5.9779    9.2161   23.4601 H   0  0  0  0  0  0  0  0  0  0  0  0
  1  2  1  0
  2  3  2  0
  3  4  1  0
  4  5  1  0
  5  6  1  0
  6  7  1  0
  6  8  1  0
  6  9  1  0
  9 10  1  0
  9 11  1  0
  9 12  1  0
 12 13  1  0
 13 14  1  0
 14 15  1  0
 14 16  2  0
 16 17  1  0
 16 18  1  0
 18 19  2  0
 18 20  1  0
 20 21  1  0
 20 22  1  0
 22 23  1  0
 23 24  2  0
 24 25  1  0
 24 26  1  0
 26 27  2  0
 27 28  1  0
 27 29  1  0
 29 30  1  0
 29 31  2  0
 31 32  1  0
 12 33  1  0
 33 34  1  0
 33 35  1  0
 33 36  1  0
 36 37  1  0
 36 38  1  0
  4 39  2  0
 39 40  1  0
 39 41  1  0
 41 42  1  0
 41 43  2  0
 43 44  1  0
 43  2  1  0
 36  5  1  0
 22 13  2  0
 31 23  1  0
M  END
>  <cnnaffinity>  (1) 
-5.70299

>  <filename>  (1) 
O=c1ccc(N2CCN(c3ccccn3)CC2)c(-c2cccnc2)[nH]1

$$$$
