
     RDKit          3D

 33 35  0  0  0  0  0  0  0  0999 V2000
    4.9077    1.7761   17.0007 H   0  0  0  0  0  0  0  0  0  0  0  0
    5.4022    1.2926   17.8418 C   0  0  0  0  0  0  0  0  0  0  0  0
    6.5716    0.6807   17.5798 N   0  0  0  0  0  0  0  0  0  0  0  0
    7.1827    0.0637   18.6023 C   0  0  0  0  0  0  0  0  0  0  0  0
    8.1264   -0.4373   18.3880 H   0  0  0  0  0  0  0  0  0  0  0  0
    6.6698   -0.0031   19.9147 C   0  0  0  0  0  0  0  0  0  0  0  0
    7.3546   -0.6918   20.9670 N   0  0  0  0  0  0  0  0  0  0  0  0
    6.7479   -1.7278   21.6676 C   0  0  0  0  0  0  0  0  0  0  0  0
    5.8299   -2.4147   21.3082 O   0  0  0  0  0  0  0  0  0  0  0  0
    7.3999   -1.8861   22.8486 O   0  0  0  0  0  0  0  0  0  0  0  0
    8.4592   -0.9428   22.9982 C   0  0  0  0  0  0  0  0  0  0  0  0
    8.3242   -0.3869   23.9301 H   0  0  0  0  0  0  0  0  0  0  0  0
    9.4045   -1.4920   23.0710 H   0  0  0  0  0  0  0  0  0  0  0  0
    8.3843   -0.0324   21.7600 C   0  0  1  0  0  0  0  0  0  0  0  0
    8.0284    0.9683   22.0552 H   0  0  0  0  0  0  0  0  0  0  0  0
    9.7044    0.0901   20.9896 C   0  0  0  0  0  0  0  0  0  0  0  0
   10.0123   -0.9019   20.6468 H   0  0  0  0  0  0  0  0  0  0  0  0
    9.5295    0.7016   20.0987 H   0  0  0  0  0  0  0  0  0  0  0  0
   10.7833    0.7408   21.8226 C   0  0  0  0  0  0  0  0  0  0  0  0
   10.6655    2.1125   22.1212 C   0  0  0  0  0  0  0  0  0  0  0  0
    9.8218    2.6761   21.7241 H   0  0  0  0  0  0  0  0  0  0  0  0
   11.6108    2.7742   22.9023 C   0  0  0  0  0  0  0  0  0  0  0  0
   11.5038    3.8370   23.1086 H   0  0  0  0  0  0  0  0  0  0  0  0
   12.6982    2.0633   23.4150 C   0  0  0  0  0  0  0  0  0  0  0  0
   13.4460    2.5688   24.0126 H   0  0  0  0  0  0  0  0  0  0  0  0
   12.8409    0.7021   23.1496 C   0  0  0  0  0  0  0  0  0  0  0  0
   13.6874    0.1472   23.5417 H   0  0  0  0  0  0  0  0  0  0  0  0
   11.8862    0.0514   22.3616 C   0  0  0  0  0  0  0  0  0  0  0  0
   12.1338   -1.6527   22.0516 Cl  0  0  0  0  0  0  0  0  0  0  0  0
    5.4506    0.6446   20.1680 C   0  0  0  0  0  0  0  0  0  0  0  0
    5.0110    0.6212   21.1648 H   0  0  0  0  0  0  0  0  0  0  0  0
    4.8112    1.3097   19.1127 C   0  0  0  0  0  0  0  0  0  0  0  0
    3.8737    1.8438   19.2657 H   0  0  0  0  0  0  0  0  0  0  0  0
  1  2  1  0
  2  3  2  0
  3  4  1  0
  4  5  1  0
  4  6  2  0
  6  7  1  0
  7  8  1  0
  8  9  2  0
  8 10  1  0
 10 11  1  0
 11 12  1  0
 11 13  1  0
 11 14  1  0
 14 15  1  1
 14 16  1  0
 16 17  1  0
 16 18  1  0
 16 19  1  0
 19 20  2  0
 20 21  1  0
 20 22  1  0
 22 23  1  0
 22 24  2  0
 24 25  1  0
 24 26  1  0
 26 27  1  0
 26 28  2  0
 28 29  1  0
  6 30  1  0
 30 31  1  0
 30 32  2  0
 32 33  1  0
 32  2  1  0
 14  7  1  0
 28 19  1  0
M  END
>  <cnnaffinity>  (1) 
-5.52968

>  <filename>  (1) 
O=C1OC[C@@H](Cc2ccccc2Cl)N1c1cccnc1

$$$$
