
     RDKit          3D

 35 37  0  0  0  0  0  0  0  0999 V2000
    5.0077    1.8963   16.9382 H   0  0  0  0  0  0  0  0  0  0  0  0
    5.4486    1.3523   17.7714 C   0  0  0  0  0  0  0  0  0  0  0  0
    6.6021    0.7146   17.5122 N   0  0  0  0  0  0  0  0  0  0  0  0
    7.1853    0.0567   18.5218 C   0  0  0  0  0  0  0  0  0  0  0  0
    8.1279   -0.4454   18.3045 H   0  0  0  0  0  0  0  0  0  0  0  0
    6.6445   -0.0211   19.8213 C   0  0  0  0  0  0  0  0  0  0  0  0
    7.3527   -0.6998   20.8825 N   0  0  0  0  0  0  0  0  0  0  0  0
    8.6107   -0.2352   21.2220 C   0  0  0  0  0  0  0  0  0  0  0  0
    8.9196    0.6705   20.7026 H   0  0  0  0  0  0  0  0  0  0  0  0
    9.3873   -0.8362   22.1755 C   0  0  0  0  0  0  0  0  0  0  0  0
   10.7674   -0.3607   22.4580 C   0  0  0  0  0  0  0  0  0  0  0  0
   11.8777   -1.2027   22.2746 C   0  0  0  0  0  0  0  0  0  0  0  0
   11.7215   -2.2223   21.9187 H   0  0  0  0  0  0  0  0  0  0  0  0
   13.1736   -0.7235   22.4851 C   0  0  0  0  0  0  0  0  0  0  0  0
   14.0104   -1.4046   22.3494 H   0  0  0  0  0  0  0  0  0  0  0  0
   13.3759    0.6034   22.8932 C   0  0  0  0  0  0  0  0  0  0  0  0
   14.3620    1.0260   23.0585 H   0  0  0  0  0  0  0  0  0  0  0  0
   12.2642    1.4226   23.0897 C   0  0  0  0  0  0  0  0  0  0  0  0
   12.5338    2.7121   23.5539 O   0  0  0  0  0  0  0  0  0  0  0  0
   11.9147    3.7780   23.0050 C   0  0  0  0  0  0  0  0  0  0  0  0
   12.6296    4.8558   23.3154 F   0  0  0  0  0  0  0  0  0  0  0  0
   11.8063    3.7040   21.6729 F   0  0  0  0  0  0  0  0  0  0  0  0
   10.6764    3.9413   23.5093 F   0  0  0  0  0  0  0  0  0  0  0  0
   10.9701    0.9727   22.8530 C   0  0  0  0  0  0  0  0  0  0  0  0
   10.1261    1.6431   22.9872 H   0  0  0  0  0  0  0  0  0  0  0  0
    8.8299   -1.9256   22.9146 C   0  0  0  0  0  0  0  0  0  0  0  0
    9.4237   -2.3466   23.7283 H   0  0  0  0  0  0  0  0  0  0  0  0
    7.5722   -2.3656   22.6467 C   0  0  0  0  0  0  0  0  0  0  0  0
    7.0926   -3.1607   23.1946 H   0  0  0  0  0  0  0  0  0  0  0  0
    6.7523   -1.8135   21.5761 C   0  0  0  0  0  0  0  0  0  0  0  0
    5.6643   -2.2721   21.2729 O   0  0  0  0  0  0  0  0  0  0  0  0
    5.4235    0.6168   20.0687 C   0  0  0  0  0  0  0  0  0  0  0  0
    4.9768    0.5531   21.0608 H   0  0  0  0  0  0  0  0  0  0  0  0
    4.8240    1.3307   19.0239 C   0  0  0  0  0  0  0  0  0  0  0  0
    3.8931    1.8702   19.1664 H   0  0  0  0  0  0  0  0  0  0  0  0
  1  2  1  0
  2  3  2  0
  3  4  1  0
  4  5  1  0
  4  6  2  0
  6  7  1  0
  7  8  1  0
  8  9  1  0
  8 10  2  0
 10 11  1  0
 11 12  2  0
 12 13  1  0
 12 14  1  0
 14 15  1  0
 14 16  2  0
 16 17  1  0
 16 18  1  0
 18 19  1  0
 19 20  1  0
 20 21  1  0
 20 22  1  0
 20 23  1  0
 18 24  2  0
 24 25  1  0
 10 26  1  0
 26 27  1  0
 26 28  2  0
 28 29  1  0
 28 30  1  0
 30 31  2  0
  6 32  1  0
 32 33  1  0
 32 34  2  0
 34 35  1  0
 34  2  1  0
 30  7  1  0
 24 11  1  0
M  END
>  <cnnaffinity>  (1) 
-5.68308

>  <filename>  (1) 
O=c1ccc(-c2cccc(OC(F)(F)F)c2)cn1-c1cccnc1

$$$$
