
     RDKit          3D

 37 40  0  0  0  0  0  0  0  0999 V2000
    4.9587    1.8540   16.9273 H   0  0  0  0  0  0  0  0  0  0  0  0
    5.4189    1.3234   17.7602 C   0  0  0  0  0  0  0  0  0  0  0  0
    6.5853    0.7096   17.5068 N   0  0  0  0  0  0  0  0  0  0  0  0
    7.1756    0.0739   18.5289 C   0  0  0  0  0  0  0  0  0  0  0  0
    8.1302   -0.3930   18.2888 H   0  0  0  0  0  0  0  0  0  0  0  0
    6.6471   -0.0043   19.8363 C   0  0  0  0  0  0  0  0  0  0  0  0
    7.3716   -0.6695   21.0070 C   0  0  2  0  0  0  0  0  0  0  0  0
    8.1892   -1.2779   20.5981 H   0  0  0  0  0  0  0  0  0  0  0  0
    6.5138   -1.6376   21.8380 C   0  0  0  0  0  0  0  0  0  0  0  0
    5.7926   -2.5276   21.4408 O   0  0  0  0  0  0  0  0  0  0  0  0
    6.7472   -1.3848   23.1583 N   0  0  0  0  0  0  0  0  0  0  0  0
    6.0493   -1.7563   23.7839 H   0  0  0  0  0  0  0  0  0  0  0  0
    7.5381   -0.2102   23.4563 C   0  0  0  0  0  0  0  0  0  0  0  0
    8.4179   -0.4624   24.0689 H   0  0  0  0  0  0  0  0  0  0  0  0
    6.9710    0.5167   24.0493 H   0  0  0  0  0  0  0  0  0  0  0  0
    7.9181    0.3526   22.0558 C   0  0  1  0  0  0  0  0  0  0  0  0
    7.3685    1.2949   21.9311 H   0  0  0  0  0  0  0  0  0  0  0  0
    9.3904    0.6484   21.8987 C   0  0  0  0  0  0  0  0  0  0  0  0
    9.8427    1.9206   21.6019 C   0  0  0  0  0  0  0  0  0  0  0  0
    9.1387    2.7236   21.3737 H   0  0  0  0  0  0  0  0  0  0  0  0
   11.1496    2.2937   21.5625 N   0  0  0  0  0  0  0  0  0  0  0  0
   12.0564    1.3638   21.7599 C   0  0  0  0  0  0  0  0  0  0  0  0
   13.1021    1.6718   21.7984 H   0  0  0  0  0  0  0  0  0  0  0  0
   11.7514   -0.0141   21.9465 C   0  0  0  0  0  0  0  0  0  0  0  0
   12.7673   -1.0134   21.9873 C   0  0  0  0  0  0  0  0  0  0  0  0
   13.8012   -0.7462   21.7643 H   0  0  0  0  0  0  0  0  0  0  0  0
   12.4302   -2.2992   22.2970 C   0  0  0  0  0  0  0  0  0  0  0  0
   13.2058   -3.0509   22.3104 H   0  0  0  0  0  0  0  0  0  0  0  0
   11.0974   -2.6492   22.6311 C   0  0  0  0  0  0  0  0  0  0  0  0
   10.8746   -3.6432   23.0010 H   0  0  0  0  0  0  0  0  0  0  0  0
   10.0893   -1.7220   22.5052 C   0  0  0  0  0  0  0  0  0  0  0  0
    9.0691   -2.0280   22.7129 H   0  0  0  0  0  0  0  0  0  0  0  0
   10.3793   -0.3745   22.1061 C   0  0  0  0  0  0  0  0  0  0  0  0
    5.4267    0.6384   20.0679 C   0  0  0  0  0  0  0  0  0  0  0  0
    4.9882    0.6300   21.0686 H   0  0  0  0  0  0  0  0  0  0  0  0
    4.8015    1.3093   19.0137 C   0  0  0  0  0  0  0  0  0  0  0  0
    3.8709    1.8431   19.1613 H   0  0  0  0  0  0  0  0  0  0  0  0
  1  2  1  0
  2  3  2  0
  3  4  1  0
  4  5  1  0
  4  6  2  0
  6  7  1  0
  7  8  1  6
  7  9  1  0
  9 10  2  0
  9 11  1  0
 11 12  1  0
 11 13  1  0
 13 14  1  0
 13 15  1  0
 13 16  1  0
 16 17  1  6
 16 18  1  0
 18 19  2  0
 19 20  1  0
 19 21  1  0
 21 22  2  0
 22 23  1  0
 22 24  1  0
 24 25  2  0
 25 26  1  0
 25 27  1  0
 27 28  1  0
 27 29  2  0
 29 30  1  0
 29 31  1  0
 31 32  1  0
 31 33  2  0
  6 34  1  0
 34 35  1  0
 34 36  2  0
 36 37  1  0
 36  2  1  0
 16  7  1  0
 33 18  1  0
 33 24  1  0
M  END
>  <cnnaffinity>  (1) 
-5.9628

>  <filename>  (1) 
O=C1NC[C@@H](c2cncc3ccccc23)[C@@H]1c1cccnc1

$$$$
