
     RDKit          3D

 33 35  0  0  0  0  0  0  0  0999 V2000
    4.9384    1.9762   16.8801 H   0  0  0  0  0  0  0  0  0  0  0  0
    5.3650    1.3932   17.6940 C   0  0  0  0  0  0  0  0  0  0  0  0
    6.5109    0.7449   17.4251 N   0  0  0  0  0  0  0  0  0  0  0  0
    7.0758    0.0563   18.4259 C   0  0  0  0  0  0  0  0  0  0  0  0
    8.0240   -0.4337   18.2090 H   0  0  0  0  0  0  0  0  0  0  0  0
    6.5152   -0.0566   19.7114 C   0  0  0  0  0  0  0  0  0  0  0  0
    7.2258   -0.7181   20.7777 N   0  0  0  0  0  0  0  0  0  0  0  0
    8.4151   -0.1222   21.1793 C   0  0  0  0  0  0  0  0  0  0  0  0
    8.7353    0.7187   20.5736 H   0  0  0  0  0  0  0  0  0  0  0  0
    9.1464   -0.5617   22.2579 C   0  0  0  0  0  0  0  0  0  0  0  0
   10.2961    0.0929   22.7018 N   0  0  0  0  0  0  0  0  0  0  0  0
   11.1980   -0.5815   23.6280 C   0  0  0  0  0  0  0  0  0  0  0  0
   11.5259   -1.5290   23.1572 H   0  0  0  0  0  0  0  0  0  0  0  0
   10.7222   -0.8179   24.5860 H   0  0  0  0  0  0  0  0  0  0  0  0
   12.3647    0.3918   23.7534 C   0  0  0  0  0  0  0  0  0  0  0  0
   12.0852    1.2293   24.4046 H   0  0  0  0  0  0  0  0  0  0  0  0
   13.2652   -0.0790   24.1550 H   0  0  0  0  0  0  0  0  0  0  0  0
   12.5423    0.8499   22.3072 C   0  0  0  0  0  0  0  0  0  0  0  0
   12.9981    1.8353   22.2101 H   0  0  0  0  0  0  0  0  0  0  0  0
   13.2028    0.1456   21.7916 H   0  0  0  0  0  0  0  0  0  0  0  0
   11.1221    0.8108   21.7225 C   0  0  0  0  0  0  0  0  0  0  0  0
   10.7112    1.8072   21.5516 H   0  0  0  0  0  0  0  0  0  0  0  0
   11.1225    0.2721   20.7764 H   0  0  0  0  0  0  0  0  0  0  0  0
    8.6577   -1.7420   22.9233 C   0  0  0  0  0  0  0  0  0  0  0  0
    9.2664   -2.1618   23.7198 H   0  0  0  0  0  0  0  0  0  0  0  0
    7.4815   -2.3263   22.5672 C   0  0  0  0  0  0  0  0  0  0  0  0
    7.0912   -3.1940   23.0763 H   0  0  0  0  0  0  0  0  0  0  0  0
    6.6427   -1.8369   21.4795 C   0  0  0  0  0  0  0  0  0  0  0  0
    5.5814   -2.3446   21.1670 O   0  0  0  0  0  0  0  0  0  0  0  0
    5.3159    0.6138   19.9758 C   0  0  0  0  0  0  0  0  0  0  0  0
    4.8844    0.5650   20.9743 H   0  0  0  0  0  0  0  0  0  0  0  0
    4.7370    1.3607   18.9434 C   0  0  0  0  0  0  0  0  0  0  0  0
    3.8320    1.9353   19.1097 H   0  0  0  0  0  0  0  0  0  0  0  0
  1  2  1  0
  2  3  2  0
  3  4  1  0
  4  5  1  0
  4  6  2  0
  6  7  1  0
  7  8  1  0
  8  9  1  0
  8 10  2  0
 10 11  1  0
 11 12  1  0
 12 13  1  0
 12 14  1  0
 12 15  1  0
 15 16  1  0
 15 17  1  0
 15 18  1  0
 18 19  1  0
 18 20  1  0
 18 21  1  0
 21 22  1  0
 21 23  1  0
 10 24  1  0
 24 25  1  0
 24 26  2  0
 26 27  1  0
 26 28  1  0
 28 29  2  0
  6 30  1  0
 30 31  1  0
 30 32  2  0
 32 33  1  0
 32  2  1  0
 28  7  1  0
 21 11  1  0
M  END
>  <cnnaffinity>  (1) 
-5.08516

>  <filename>  (1) 
O=c1ccc(N2CCCC2)cn1-c1cccnc1

$$$$
