
     RDKit          3D

 46 49  0  0  0  0  0  0  0  0999 V2000
   13.8471    0.1062   25.8299 O   0  0  0  0  0  0  0  0  0  0  0  0
   13.1078    0.3007   24.8824 C   0  0  0  0  0  0  0  0  0  0  0  0
   13.4252    1.0223   23.6602 C   0  0  0  0  0  0  0  0  0  0  0  0
   12.6475    0.8438   22.5637 C   0  0  0  0  0  0  0  0  0  0  0  0
   11.5235   -0.0577   22.5898 C   0  0  0  0  0  0  0  0  0  0  0  0
   10.8197   -0.3344   21.2863 C   0  0  0  0  0  0  0  0  0  0  0  0
    9.9491    0.8843   20.8913 C   0  0  0  0  0  0  0  0  0  0  0  0
    8.8641    1.0964   21.8942 C   0  0  0  0  0  0  0  0  0  0  0  0
    8.8510    1.9508   22.8963 N   0  0  0  0  0  0  0  0  0  0  0  0
    7.7976    1.5278   23.6510 C   0  0  0  0  0  0  0  0  0  0  0  0
    7.4148    2.1825   24.9378 C   0  0  0  0  0  0  0  0  0  0  0  0
    8.2541    3.1674   25.5026 C   0  0  0  0  0  0  0  0  0  0  0  0
    7.8578    3.8028   26.6737 C   0  0  0  0  0  0  0  0  0  0  0  0
    8.6334    4.7775   27.1686 F   0  0  0  0  0  0  0  0  0  0  0  0
    6.6794    3.4836   27.3413 C   0  0  0  0  0  0  0  0  0  0  0  0
    5.8855    2.4862   26.7809 C   0  0  0  0  0  0  0  0  0  0  0  0
    4.7529    2.1453   27.4118 F   0  0  0  0  0  0  0  0  0  0  0  0
    6.2163    1.8322   25.5989 C   0  0  0  0  0  0  0  0  0  0  0  0
    5.5480    1.0645   25.2151 H   0  0  0  0  0  0  0  0  0  0  0  0
    6.3915    3.9880   28.2543 H   0  0  0  0  0  0  0  0  0  0  0  0
    9.1998    3.4528   25.0492 H   0  0  0  0  0  0  0  0  0  0  0  0
    7.1542    0.4884   23.1416 N   0  0  0  0  0  0  0  0  0  0  0  0
    7.8566    0.2060   22.0212 N   0  0  0  0  0  0  0  0  0  0  0  0
    7.3381   -0.7241   21.0194 C   0  0  0  0  0  0  0  0  0  0  0  0
    6.6420   -0.0258   19.8692 C   0  0  0  0  0  0  0  0  0  0  0  0
    5.4482    0.6641   20.1152 C   0  0  0  0  0  0  0  0  0  0  0  0
    4.8283    1.3263   19.0548 C   0  0  0  0  0  0  0  0  0  0  0  0
    5.4326    1.2903   17.7952 C   0  0  0  0  0  0  0  0  0  0  0  0
    6.5737    0.6306   17.5401 N   0  0  0  0  0  0  0  0  0  0  0  0
    7.1513   -0.0111   18.5634 C   0  0  0  0  0  0  0  0  0  0  0  0
    8.0724   -0.5503   18.3258 H   0  0  0  0  0  0  0  0  0  0  0  0
    4.9833    1.8064   16.9503 H   0  0  0  0  0  0  0  0  0  0  0  0
    3.9003    1.8699   19.1931 H   0  0  0  0  0  0  0  0  0  0  0  0
    5.0339    0.6813   21.1252 H   0  0  0  0  0  0  0  0  0  0  0  0
    8.1614   -1.3474   20.6507 H   0  0  0  0  0  0  0  0  0  0  0  0
    6.6431   -1.3693   21.5626 H   0  0  0  0  0  0  0  0  0  0  0  0
   10.5681    1.7854   20.8574 H   0  0  0  0  0  0  0  0  0  0  0  0
    9.5163    0.7469   19.8975 H   0  0  0  0  0  0  0  0  0  0  0  0
   10.2052   -1.2423   21.3491 H   0  0  0  0  0  0  0  0  0  0  0  0
   11.5667   -0.5507   20.5155 H   0  0  0  0  0  0  0  0  0  0  0  0
   11.0832   -0.5193   23.7972 C   0  0  0  0  0  0  0  0  0  0  0  0
   11.8277   -0.2573   24.9340 N   0  0  0  0  0  0  0  0  0  0  0  0
   11.8253   -0.8415   25.7625 H   0  0  0  0  0  0  0  0  0  0  0  0
   10.1524   -1.0759   23.9226 H   0  0  0  0  0  0  0  0  0  0  0  0
   12.8523    1.3991   21.6453 H   0  0  0  0  0  0  0  0  0  0  0  0
   14.3216    1.6153   23.6420 H   0  0  0  0  0  0  0  0  0  0  0  0
  1  2  2  0
  2  3  1  0
  3  4  2  0
  4  5  1  0
  5  6  1  0
  6  7  1  0
  7  8  1  0
  8  9  2  0
  9 10  1  0
 10 11  1  0
 11 12  2  0
 12 13  1  0
 13 14  1  0
 13 15  2  0
 15 16  1  0
 16 17  1  0
 16 18  2  0
 18 19  1  0
 15 20  1  0
 12 21  1  0
 10 22  2  0
 22 23  1  0
 23 24  1  0
 24 25  1  0
 25 26  2  0
 26 27  1  0
 27 28  2  0
 28 29  1  0
 29 30  2  0
 30 31  1  0
 28 32  1  0
 27 33  1  0
 26 34  1  0
 24 35  1  0
 24 36  1  0
  7 37  1  0
  7 38  1  0
  6 39  1  0
  6 40  1  0
  5 41  2  0
 41 42  1  0
 42 43  1  0
 41 44  1  0
  4 45  1  0
  3 46  1  0
 42  2  1  0
 23  8  1  0
 30 25  1  0
 18 11  1  0
M  END
>  <cnnaffinity>  (1) 
-6.29534

>  <filename>  (1) 
O=c1ccc(CCc2nc(-c3cc(F)cc(F)c3)nn2Cc2cccnc2)c[nH]1

$$$$
