
     RDKit          3D

 46 49  0  0  0  0  0  0  0  0999 V2000
   10.7575    4.3389   22.8894 O   0  0  0  0  0  0  0  0  0  0  0  0
   11.1052    3.2330   23.2859 C   0  0  0  0  0  0  0  0  0  0  0  0
   12.4945    2.8906   23.5718 C   0  0  0  0  0  0  0  0  0  0  0  0
   12.8573    1.6989   24.1295 C   0  0  0  0  0  0  0  0  0  0  0  0
   11.8365    0.7528   24.4655 C   0  0  0  0  0  0  0  0  0  0  0  0
   10.5379    1.0116   24.1385 C   0  0  0  0  0  0  0  0  0  0  0  0
   10.1710    2.1779   23.4951 N   0  0  0  0  0  0  0  0  0  0  0  0
    8.8744    2.2705   22.8035 C   0  0  0  0  0  0  0  0  0  0  0  0
    9.0157    2.0071   21.2953 C   0  0  0  0  0  0  0  0  0  0  0  0
    9.5182    0.5947   20.9263 C   0  0  0  0  0  0  0  0  0  0  0  0
    8.6355   -0.5043   21.4164 C   0  0  0  0  0  0  0  0  0  0  0  0
    8.8623   -1.3578   22.3920 N   0  0  0  0  0  0  0  0  0  0  0  0
    7.6683   -2.0050   22.5405 C   0  0  0  0  0  0  0  0  0  0  0  0
    7.4518   -3.0379   23.5871 C   0  0  0  0  0  0  0  0  0  0  0  0
    8.4760   -3.3431   24.5061 C   0  0  0  0  0  0  0  0  0  0  0  0
    8.2473   -4.3033   25.4855 C   0  0  0  0  0  0  0  0  0  0  0  0
    9.2237   -4.5757   26.3654 F   0  0  0  0  0  0  0  0  0  0  0  0
    7.0386   -4.9870   25.5852 C   0  0  0  0  0  0  0  0  0  0  0  0
    6.0223   -4.6831   24.6738 C   0  0  0  0  0  0  0  0  0  0  0  0
    6.2161   -3.7152   23.6858 C   0  0  0  0  0  0  0  0  0  0  0  0
    5.4119   -3.4705   22.9967 H   0  0  0  0  0  0  0  0  0  0  0  0
    5.0693   -5.2023   24.7410 H   0  0  0  0  0  0  0  0  0  0  0  0
    6.9143   -5.7313   26.3639 H   0  0  0  0  0  0  0  0  0  0  0  0
    9.4414   -2.8468   24.4729 H   0  0  0  0  0  0  0  0  0  0  0  0
    6.7303   -1.6055   21.6980 N   0  0  0  0  0  0  0  0  0  0  0  0
    7.3625   -0.6676   20.9530 N   0  0  0  0  0  0  0  0  0  0  0  0
    6.6718   -0.0096   19.8979 C   0  0  0  0  0  0  0  0  0  0  0  0
    5.4539    0.6220   20.1577 C   0  0  0  0  0  0  0  0  0  0  0  0
    4.8293    1.3006   19.1088 C   0  0  0  0  0  0  0  0  0  0  0  0
    5.4214    1.3002   17.8405 C   0  0  0  0  0  0  0  0  0  0  0  0
    6.5667    0.6556   17.5750 N   0  0  0  0  0  0  0  0  0  0  0  0
    7.1707    0.0167   18.5834 C   0  0  0  0  0  0  0  0  0  0  0  0
    8.0937   -0.5066   18.3398 H   0  0  0  0  0  0  0  0  0  0  0  0
    4.9574    1.8248   17.0070 H   0  0  0  0  0  0  0  0  0  0  0  0
    3.8964    1.8292   19.2587 H   0  0  0  0  0  0  0  0  0  0  0  0
    5.0272    0.5719   21.1605 H   0  0  0  0  0  0  0  0  0  0  0  0
    9.5745    0.5158   19.8379 H   0  0  0  0  0  0  0  0  0  0  0  0
   10.5288    0.4286   21.3112 H   0  0  0  0  0  0  0  0  0  0  0  0
    9.7236    2.7422   20.9042 H   0  0  0  0  0  0  0  0  0  0  0  0
    8.0531    2.1938   20.8012 H   0  0  0  0  0  0  0  0  0  0  0  0
    8.4732    3.2734   22.9737 H   0  0  0  0  0  0  0  0  0  0  0  0
    8.1747    1.5595   23.2643 H   0  0  0  0  0  0  0  0  0  0  0  0
    9.7366    0.2899   24.3141 H   0  0  0  0  0  0  0  0  0  0  0  0
   12.0740   -0.1609   24.9974 H   0  0  0  0  0  0  0  0  0  0  0  0
   13.9045    1.4594   24.3125 H   0  0  0  0  0  0  0  0  0  0  0  0
   13.1817    3.6922   23.3415 H   0  0  0  0  0  0  0  0  0  0  0  0
  1  2  2  0
  2  3  1  0
  3  4  2  0
  4  5  1  0
  5  6  2  0
  6  7  1  0
  7  8  1  0
  8  9  1  0
  9 10  1  0
 10 11  1  0
 11 12  2  0
 12 13  1  0
 13 14  1  0
 14 15  2  0
 15 16  1  0
 16 17  1  0
 16 18  2  0
 18 19  1  0
 19 20  2  0
 20 21  1  0
 19 22  1  0
 18 23  1  0
 15 24  1  0
 13 25  2  0
 25 26  1  0
 26 27  1  0
 27 28  2  0
 28 29  1  0
 29 30  2  0
 30 31  1  0
 31 32  2  0
 32 33  1  0
 30 34  1  0
 29 35  1  0
 28 36  1  0
 10 37  1  0
 10 38  1  0
  9 39  1  0
  9 40  1  0
  8 41  1  0
  8 42  1  0
  6 43  1  0
  5 44  1  0
  4 45  1  0
  3 46  1  0
  7  2  1  0
 26 11  1  0
 32 27  1  0
 20 14  1  0
M  END
>  <cnnaffinity>  (1) 
-6.29065

>  <filename>  (1) 
O=c1ccccn1CCCc1nc(-c2cccc(F)c2)nn1-c1cccnc1

$$$$
