
     RDKit          3D

 43 46  0  0  0  0  0  0  0  0999 V2000
   12.2809   -1.0661   21.4000 O   0  0  0  0  0  0  0  0  0  0  0  0
   11.8893   -0.0336   21.9188 C   0  0  0  0  0  0  0  0  0  0  0  0
   12.6644    0.5276   22.9282 N   0  0  0  0  0  0  0  0  0  0  0  0
   12.4431    1.6386   23.6665 N   0  0  0  0  0  0  0  0  0  0  0  0
   11.3485    2.3050   23.4014 C   0  0  0  0  0  0  0  0  0  0  0  0
   10.4166    1.8830   22.3855 C   0  0  0  0  0  0  0  0  0  0  0  0
   10.6640    0.7532   21.6472 C   0  0  0  0  0  0  0  0  0  0  0  0
    9.6425    0.2148   20.6816 C   0  0  0  0  0  0  0  0  0  0  0  0
    8.6003   -0.6246   21.3409 C   0  0  0  0  0  0  0  0  0  0  0  0
    8.8263   -1.4714   22.3188 N   0  0  0  0  0  0  0  0  0  0  0  0
    7.6023   -2.0085   22.5504 C   0  0  0  0  0  0  0  0  0  0  0  0
    7.3813   -2.9769   23.6658 C   0  0  0  0  0  0  0  0  0  0  0  0
    7.5370   -2.2797   25.0504 C   0  0  0  0  0  0  0  0  0  0  0  0
    7.5316   -3.2711   26.1906 C   0  0  0  0  0  0  0  0  0  0  0  0
    7.7668   -4.5780   26.0289 C   0  0  0  0  0  0  0  0  0  0  0  0
    7.9944   -5.2193   24.6777 C   0  0  0  0  0  0  0  0  0  0  0  0
    8.3394   -4.1922   23.5831 C   0  0  0  0  0  0  0  0  0  0  0  0
    9.3759   -3.8350   23.6945 H   0  0  0  0  0  0  0  0  0  0  0  0
    8.2790   -4.6637   22.5949 H   0  0  0  0  0  0  0  0  0  0  0  0
    7.0836   -5.7706   24.3928 H   0  0  0  0  0  0  0  0  0  0  0  0
    8.7806   -5.9808   24.7540 H   0  0  0  0  0  0  0  0  0  0  0  0
    7.7757   -5.2386   26.8964 H   0  0  0  0  0  0  0  0  0  0  0  0
    7.3428   -2.8712   27.1867 H   0  0  0  0  0  0  0  0  0  0  0  0
    6.7383   -1.5403   25.1993 H   0  0  0  0  0  0  0  0  0  0  0  0
    8.4794   -1.7048   25.0691 H   0  0  0  0  0  0  0  0  0  0  0  0
    6.3441   -3.3177   23.5485 H   0  0  0  0  0  0  0  0  0  0  0  0
    6.6472   -1.5710   21.7564 N   0  0  0  0  0  0  0  0  0  0  0  0
    7.3018   -0.6990   20.9450 N   0  0  0  0  0  0  0  0  0  0  0  0
    6.6361   -0.0109   19.8986 C   0  0  0  0  0  0  0  0  0  0  0  0
    5.4290    0.6427   20.1574 C   0  0  0  0  0  0  0  0  0  0  0  0
    4.8052    1.3152   19.1043 C   0  0  0  0  0  0  0  0  0  0  0  0
    5.3967    1.2964   17.8350 C   0  0  0  0  0  0  0  0  0  0  0  0
    6.5527    0.6667   17.5773 N   0  0  0  0  0  0  0  0  0  0  0  0
    7.1577    0.0394   18.5913 C   0  0  0  0  0  0  0  0  0  0  0  0
    8.1094   -0.4361   18.3553 H   0  0  0  0  0  0  0  0  0  0  0  0
    4.9288    1.7974   16.9909 H   0  0  0  0  0  0  0  0  0  0  0  0
    3.8730    1.8480   19.2535 H   0  0  0  0  0  0  0  0  0  0  0  0
    5.0143    0.6045   21.1645 H   0  0  0  0  0  0  0  0  0  0  0  0
   10.1081   -0.4493   19.9463 H   0  0  0  0  0  0  0  0  0  0  0  0
    9.1464    1.0407   20.1647 H   0  0  0  0  0  0  0  0  0  0  0  0
    9.5064    2.4555   22.2360 H   0  0  0  0  0  0  0  0  0  0  0  0
   11.1942    3.1887   24.0142 H   0  0  0  0  0  0  0  0  0  0  0  0
   13.4905   -0.0416   23.0846 H   0  0  0  0  0  0  0  0  0  0  0  0
  1  2  2  0
  2  3  1  0
  3  4  1  0
  4  5  2  0
  5  6  1  0
  6  7  2  0
  7  8  1  0
  8  9  1  0
  9 10  2  0
 10 11  1  0
 11 12  1  0
 12 13  1  0
 13 14  1  0
 14 15  2  0
 15 16  1  0
 16 17  1  0
 17 18  1  0
 17 19  1  0
 16 20  1  0
 16 21  1  0
 15 22  1  0
 14 23  1  0
 13 24  1  0
 13 25  1  0
 12 26  1  0
 11 27  2  0
 27 28  1  0
 28 29  1  0
 29 30  2  0
 30 31  1  0
 31 32  2  0
 32 33  1  0
 33 34  2  0
 34 35  1  0
 32 36  1  0
 31 37  1  0
 30 38  1  0
  8 39  1  0
  8 40  1  0
  6 41  1  0
  5 42  1  0
  3 43  1  0
  7  2  1  0
 28  9  1  0
 34 29  1  0
 17 12  1  0
M  END
>  <cnnaffinity>  (1) 
-6.5606

>  <filename>  (1) 
O=c1[nH]nccc1Cc1nc(C2CC=CCC2)nn1-c1cccnc1

$$$$
