
     RDKit          3D

 48 52  0  0  0  0  0  0  0  0999 V2000
    7.6220    2.6752   25.9607 O   0  0  0  0  0  0  0  0  0  0  0  0
    7.9291    2.3271   24.8331 C   0  0  0  0  0  0  0  0  0  0  0  0
    9.1738    2.7554   24.0920 C   0  0  0  0  0  0  0  0  0  0  0  0
    9.1514    2.0193   22.7445 C   0  0  0  0  0  0  0  0  0  0  0  0
    7.7333    1.3854   22.6411 C   0  0  0  0  0  0  0  0  0  0  0  0
    7.7376   -0.0515   22.1551 C   0  0  0  0  0  0  0  0  0  0  0  0
    8.5440   -0.9840   22.6166 N   0  0  0  0  0  0  0  0  0  0  0  0
    8.0881   -2.1145   22.0254 C   0  0  0  0  0  0  0  0  0  0  0  0
    8.8230   -3.3801   22.2446 C   0  0  0  0  0  0  0  0  0  0  0  0
    8.1857   -4.7168   22.0819 C   0  0  0  0  0  0  0  0  0  0  0  0
    8.7489   -4.3344   23.4701 C   0  0  0  0  0  0  0  0  0  0  0  0
    9.6750   -4.0876   24.6429 C   0  0  0  0  0  0  0  0  0  0  0  0
    8.7920   -5.3035   24.6476 C   0  0  0  0  0  0  0  0  0  0  0  0
    7.9406   -5.3422   25.3254 H   0  0  0  0  0  0  0  0  0  0  0  0
    9.2775   -6.2636   24.4507 H   0  0  0  0  0  0  0  0  0  0  0  0
   10.7496   -4.2251   24.4965 H   0  0  0  0  0  0  0  0  0  0  0  0
    9.4016   -3.2541   25.2923 H   0  0  0  0  0  0  0  0  0  0  0  0
    7.0991   -4.7645   22.0015 H   0  0  0  0  0  0  0  0  0  0  0  0
    8.6813   -5.5360   21.5547 H   0  0  0  0  0  0  0  0  0  0  0  0
    9.8563   -3.2086   21.9483 H   0  0  0  0  0  0  0  0  0  0  0  0
    7.1489   -1.9406   21.1232 N   0  0  0  0  0  0  0  0  0  0  0  0
    6.8906   -0.5894   21.2037 N   0  0  0  0  0  0  0  0  0  0  0  0
    6.3204    0.0565   20.0478 C   0  0  0  0  0  0  0  0  0  0  0  0
    5.1724    0.8554   20.1009 C   0  0  0  0  0  0  0  0  0  0  0  0
    4.7413    1.4842   18.9261 C   0  0  0  0  0  0  0  0  0  0  0  0
    5.4664    1.2945   17.7475 C   0  0  0  0  0  0  0  0  0  0  0  0
    6.5576    0.5106   17.6792 N   0  0  0  0  0  0  0  0  0  0  0  0
    6.9578   -0.0995   18.7964 C   0  0  0  0  0  0  0  0  0  0  0  0
    7.8302   -0.7450   18.7112 H   0  0  0  0  0  0  0  0  0  0  0  0
    5.1632    1.7777   16.8210 H   0  0  0  0  0  0  0  0  0  0  0  0
    3.8659    2.1251   18.9139 H   0  0  0  0  0  0  0  0  0  0  0  0
    4.6109    0.9647   21.0296 H   0  0  0  0  0  0  0  0  0  0  0  0
    7.1938    1.5279   24.0027 N   0  0  0  0  0  0  0  0  0  0  0  0
    5.8792    1.0471   24.3847 C   0  0  0  0  0  0  0  0  0  0  0  0
    5.9119    0.1655   25.6270 C   0  0  0  0  0  0  0  0  0  0  0  0
    6.6837   -1.1210   25.4635 C   0  0  0  0  0  0  0  0  0  0  0  0
    8.0097   -0.9077   25.3927 F   0  0  0  0  0  0  0  0  0  0  0  0
    6.3304   -1.8171   24.3648 F   0  0  0  0  0  0  0  0  0  0  0  0
    6.4742   -1.9323   26.5209 F   0  0  0  0  0  0  0  0  0  0  0  0
    4.8924   -0.1096   25.9013 H   0  0  0  0  0  0  0  0  0  0  0  0
    6.3626    0.7118   26.4572 H   0  0  0  0  0  0  0  0  0  0  0  0
    5.2196    1.9062   24.5618 H   0  0  0  0  0  0  0  0  0  0  0  0
    5.4567    0.4919   23.5405 H   0  0  0  0  0  0  0  0  0  0  0  0
    7.1099    1.9647   21.9485 H   0  0  0  0  0  0  0  0  0  0  0  0
    9.3382    2.6861   21.8956 H   0  0  0  0  0  0  0  0  0  0  0  0
    9.9116    1.2303   22.7259 H   0  0  0  0  0  0  0  0  0  0  0  0
   10.0426    2.5292   24.7132 H   0  0  0  0  0  0  0  0  0  0  0  0
    9.1236    3.8442   24.0042 H   0  0  0  0  0  0  0  0  0  0  0  0
  1  2  2  0
  2  3  1  0
  3  4  1  0
  4  5  1  0
  5  6  1  0
  6  7  2  0
  7  8  1  0
  8  9  1  0
  9 10  1  0
 10 11  1  0
 11 12  1  0
 12 13  1  0
 13 14  1  0
 13 15  1  0
 12 16  1  0
 12 17  1  0
 10 18  1  0
 10 19  1  0
  9 20  1  0
  8 21  2  0
 21 22  1  0
 22 23  1  0
 23 24  2  0
 24 25  1  0
 25 26  2  0
 26 27  1  0
 27 28  2  0
 28 29  1  0
 26 30  1  0
 25 31  1  0
 24 32  1  0
  5 33  1  0
 33 34  1  0
 34 35  1  0
 35 36  1  0
 36 37  1  0
 36 38  1  0
 36 39  1  0
 35 40  1  0
 35 41  1  0
 34 42  1  0
 34 43  1  0
  5 44  1  0
  4 45  1  0
  4 46  1  0
  3 47  1  0
  3 48  1  0
 33  2  1  0
 22  6  1  0
 28 23  1  0
 11  9  1  0
 13 11  1  0
M  END
>  <cnnaffinity>  (1) 
-6.51353

>  <filename>  (1) 
O=C1CCC(c2nc(C3CC34CC4)nn2-c2cccnc2)N1CCC(F)(F)F

$$$$
