
     RDKit          3D

 23 24  0  0  0  0  0  0  0  0999 V2000
    4.9181    1.8256   16.9627 H   0  0  0  0  0  0  0  0  0  0  0  0
    5.3971    1.3264   17.8016 C   0  0  0  0  0  0  0  0  0  0  0  0
    6.5618    0.7133   17.5293 N   0  0  0  0  0  0  0  0  0  0  0  0
    7.1803    0.0906   18.5408 C   0  0  0  0  0  0  0  0  0  0  0  0
    8.1222   -0.4030   18.3057 H   0  0  0  0  0  0  0  0  0  0  0  0
    6.6633    0.0215   19.8523 C   0  0  0  0  0  0  0  0  0  0  0  0
    7.3374   -0.6900   20.9169 N   0  0  0  0  0  0  0  0  0  0  0  0
    8.5962   -0.2739   21.2625 C   0  0  0  0  0  0  0  0  0  0  0  0
    9.0061    0.5659   20.7119 H   0  0  0  0  0  0  0  0  0  0  0  0
    9.2907   -0.8842   22.2593 C   0  0  0  0  0  0  0  0  0  0  0  0
   10.6183   -0.3555   22.6004 N   0  0  0  0  0  4  0  0  0  0  0  0
   11.0939    0.4936   21.8635 O   0  0  0  0  0  0  0  0  0  0  0  0
   11.1675   -0.7781   23.6012 O   0  0  0  0  0  1  0  0  0  0  0  0
    8.7425   -1.9784   22.9819 C   0  0  0  0  0  0  0  0  0  0  0  0
    9.3442   -2.4344   23.7647 H   0  0  0  0  0  0  0  0  0  0  0  0
    7.4893   -2.4000   22.6636 C   0  0  0  0  0  0  0  0  0  0  0  0
    6.9832   -3.2144   23.1554 H   0  0  0  0  0  0  0  0  0  0  0  0
    6.6932   -1.7960   21.6032 C   0  0  0  0  0  0  0  0  0  0  0  0
    5.5947   -2.2088   21.2840 O   0  0  0  0  0  0  0  0  0  0  0  0
    5.4537    0.6681   20.1190 C   0  0  0  0  0  0  0  0  0  0  0  0
    5.0458    0.6064   21.1269 H   0  0  0  0  0  0  0  0  0  0  0  0
    4.8081    1.3382   19.0724 C   0  0  0  0  0  0  0  0  0  0  0  0
    3.8601    1.8483   19.2261 H   0  0  0  0  0  0  0  0  0  0  0  0
  1  2  1  0
  2  3  2  0
  3  4  1  0
  4  5  1  0
  4  6  2  0
  6  7  1  0
  7  8  1  0
  8  9  1  0
  8 10  2  0
 10 11  1  0
 11 12  2  0
 11 13  1  0
 10 14  1  0
 14 15  1  0
 14 16  2  0
 16 17  1  0
 16 18  1  0
 18 19  2  0
  6 20  1  0
 20 21  1  0
 20 22  2  0
 22 23  1  0
 22  2  1  0
 18  7  1  0
M  CHG  2  11   1  13  -1
M  END
>  <cnnaffinity>  (1) 
-4.71513

>  <filename>  (1) 
O=c1ccc([N+](=O)[O-])cn1-c1cccnc1

$$$$
