
     RDKit          3D

 46 49  0  0  0  0  0  0  0  0999 V2000
   10.2696    5.8841   24.2740 O   0  0  0  0  0  0  0  0  0  0  0  0
    9.3243    5.5583   23.5750 C   0  0  0  0  0  0  0  0  0  0  0  0
    8.2493    6.4193   23.1024 C   0  0  0  0  0  0  0  0  0  0  0  0
    7.2965    5.9238   22.2598 C   0  0  0  0  0  0  0  0  0  0  0  0
    7.3277    4.5533   21.8511 C   0  0  0  0  0  0  0  0  0  0  0  0
    8.3211    3.7131   22.2977 C   0  0  0  0  0  0  0  0  0  0  0  0
    8.4921    2.2692   21.9049 C   0  0  0  0  0  0  0  0  0  0  0  0
    7.6248    1.2745   22.7291 C   0  0  0  0  0  0  0  0  0  0  0  0
    7.6845   -0.1477   22.2553 C   0  0  0  0  0  0  0  0  0  0  0  0
    8.1924   -1.1641   22.9286 N   0  0  0  0  0  0  0  0  0  0  0  0
    8.1543   -2.1856   22.0328 C   0  0  0  0  0  0  0  0  0  0  0  0
    8.6182   -3.5676   22.3403 C   0  0  0  0  0  0  0  0  0  0  0  0
    7.6174   -4.3512   23.1954 C   0  0  0  0  0  0  0  0  0  0  0  0
    7.9391   -5.8519   23.3984 C   0  0  0  0  0  0  0  0  0  0  0  0
    6.6274   -6.2322   22.6674 C   0  0  0  0  0  0  0  0  0  0  0  0
    6.3173   -4.7315   22.4412 C   0  0  0  0  0  0  0  0  0  0  0  0
    5.3870   -4.3622   22.8834 H   0  0  0  0  0  0  0  0  0  0  0  0
    6.3219   -4.4184   21.3887 H   0  0  0  0  0  0  0  0  0  0  0  0
    5.9075   -6.7511   23.3073 H   0  0  0  0  0  0  0  0  0  0  0  0
    6.7436   -6.8185   21.7505 H   0  0  0  0  0  0  0  0  0  0  0  0
    8.8731   -6.1851   22.9304 H   0  0  0  0  0  0  0  0  0  0  0  0
    7.9734   -6.1675   24.4468 H   0  0  0  0  0  0  0  0  0  0  0  0
    7.4381   -3.8327   24.1469 H   0  0  0  0  0  0  0  0  0  0  0  0
    9.5931   -3.5125   22.8337 H   0  0  0  0  0  0  0  0  0  0  0  0
    8.7389   -4.0713   21.3777 H   0  0  0  0  0  0  0  0  0  0  0  0
    7.6526   -1.8702   20.8592 N   0  0  0  0  0  0  0  0  0  0  0  0
    7.3110   -0.5655   21.0084 N   0  0  0  0  0  0  0  0  0  0  0  0
    6.6392    0.0932   19.9414 C   0  0  0  0  0  0  0  0  0  0  0  0
    5.4469    0.7987   20.1332 C   0  0  0  0  0  0  0  0  0  0  0  0
    4.8634    1.4083   19.0171 C   0  0  0  0  0  0  0  0  0  0  0  0
    5.4934    1.3021   17.7733 C   0  0  0  0  0  0  0  0  0  0  0  0
    6.6237    0.5980   17.5811 N   0  0  0  0  0  0  0  0  0  0  0  0
    7.1649   -0.0089   18.6409 C   0  0  0  0  0  0  0  0  0  0  0  0
    8.0552   -0.6079   18.4617 H   0  0  0  0  0  0  0  0  0  0  0  0
    5.0738    1.7873   16.8948 H   0  0  0  0  0  0  0  0  0  0  0  0
    3.9318    1.9570   19.1044 H   0  0  0  0  0  0  0  0  0  0  0  0
    4.9748    0.8349   21.1174 H   0  0  0  0  0  0  0  0  0  0  0  0
    6.5817    1.6043   22.7163 H   0  0  0  0  0  0  0  0  0  0  0  0
    7.9326    1.2740   23.7793 H   0  0  0  0  0  0  0  0  0  0  0  0
    9.5518    2.0029   22.0185 H   0  0  0  0  0  0  0  0  0  0  0  0
    8.2420    2.1621   20.8426 H   0  0  0  0  0  0  0  0  0  0  0  0
    9.2381    4.2289   23.1829 N   0  0  0  0  0  0  0  0  0  0  0  0
   10.0087    3.7131   23.5879 H   0  0  0  0  0  0  0  0  0  0  0  0
    6.5580    4.2039   21.1698 H   0  0  0  0  0  0  0  0  0  0  0  0
    6.5134    6.5764   21.8668 H   0  0  0  0  0  0  0  0  0  0  0  0
    8.2739    7.4420   23.4533 H   0  0  0  0  0  0  0  0  0  0  0  0
  1  2  2  0
  2  3  1  0
  3  4  2  0
  4  5  1  0
  5  6  2  0
  6  7  1  0
  7  8  1  0
  8  9  1  0
  9 10  2  0
 10 11  1  0
 11 12  1  0
 12 13  1  0
 13 14  1  0
 14 15  1  0
 15 16  1  0
 16 17  1  0
 16 18  1  0
 15 19  1  0
 15 20  1  0
 14 21  1  0
 14 22  1  0
 13 23  1  0
 12 24  1  0
 12 25  1  0
 11 26  2  0
 26 27  1  0
 27 28  1  0
 28 29  2  0
 29 30  1  0
 30 31  2  0
 31 32  1  0
 32 33  2  0
 33 34  1  0
 31 35  1  0
 30 36  1  0
 29 37  1  0
  8 38  1  0
  8 39  1  0
  7 40  1  0
  7 41  1  0
  6 42  1  0
 42 43  1  0
  5 44  1  0
  4 45  1  0
  3 46  1  0
 42  2  1  0
 27  9  1  0
 33 28  1  0
 16 13  1  0
M  END
>  <cnnaffinity>  (1) 
-6.04472

>  <filename>  (1) 
O=c1cccc(CCc2nc(CC3CCC3)nn2-c2cccnc2)[nH]1

$$$$
