
     RDKit          3D

 32 35  0  0  0  0  0  0  0  0999 V2000
    5.1141    2.2232   16.7581 H   0  0  0  0  0  0  0  0  0  0  0  0
    5.5198    1.5594   17.5215 C   0  0  0  0  0  0  0  0  0  0  0  0
    6.6818    0.9606   17.2158 N   0  0  0  0  0  0  0  0  0  0  0  0
    7.2313    0.1763   18.1508 C   0  0  0  0  0  0  0  0  0  0  0  0
    8.1663   -0.3067   17.8706 H   0  0  0  0  0  0  0  0  0  0  0  0
    6.6702   -0.0757   19.4232 C   0  0  0  0  0  0  0  0  0  0  0  0
    7.4008   -0.8627   20.4511 C   0  0  0  0  0  0  0  0  0  0  0  0
    8.7046   -0.7192   20.7899 C   0  0  0  0  0  0  0  0  0  0  0  0
    9.4303   -0.0394   20.3640 H   0  0  0  0  0  0  0  0  0  0  0  0
    9.0871   -1.5212   21.8620 N   0  0  0  0  0  0  0  0  0  0  0  0
    9.9326   -2.0833   21.7173 H   0  0  0  0  0  0  0  0  0  0  0  0
    7.9477   -2.3106   22.1415 N   0  0  0  0  0  0  0  0  0  0  0  0
    7.7528   -2.8239   23.4475 C   0  0  0  0  0  0  0  0  0  0  0  0
    7.1270   -3.9994   23.6919 C   0  0  0  0  0  0  0  0  0  0  0  0
    6.6230   -4.6070   22.9523 H   0  0  0  0  0  0  0  0  0  0  0  0
    7.1660   -4.4715   25.3532 S   0  0  0  0  0  0  0  0  0  0  0  0
    8.0367   -3.0217   25.7909 C   0  0  0  0  0  0  0  0  0  0  0  0
    8.5250   -2.6682   27.0622 C   0  0  0  0  0  0  0  0  0  0  0  0
    8.4221   -3.3662   27.8877 H   0  0  0  0  0  0  0  0  0  0  0  0
    9.1550   -1.4354   27.2056 C   0  0  0  0  0  0  0  0  0  0  0  0
    9.5564   -1.1375   28.1708 H   0  0  0  0  0  0  0  0  0  0  0  0
    9.2707   -0.5481   26.1146 C   0  0  0  0  0  0  0  0  0  0  0  0
    9.7341    0.4263   26.2560 H   0  0  0  0  0  0  0  0  0  0  0  0
    8.8223   -0.9137   24.8526 C   0  0  0  0  0  0  0  0  0  0  0  0
    8.8869   -0.2364   24.0074 H   0  0  0  0  0  0  0  0  0  0  0  0
    8.2389   -2.1884   24.6684 C   0  0  0  0  0  0  0  0  0  0  0  0
    6.8549   -1.9524   21.3035 C   0  0  0  0  0  0  0  0  0  0  0  0
    5.7741   -2.5061   21.3279 O   0  0  0  0  0  0  0  0  0  0  0  0
    5.4190    0.5079   19.6885 C   0  0  0  0  0  0  0  0  0  0  0  0
    4.9197    0.3031   20.6364 H   0  0  0  0  0  0  0  0  0  0  0  0
    4.8549    1.3658   18.7362 C   0  0  0  0  0  0  0  0  0  0  0  0
    3.9328    1.9075   18.9191 H   0  0  0  0  0  0  0  0  0  0  0  0
  1  2  1  0
  2  3  2  0
  3  4  1  0
  4  5  1  0
  4  6  2  0
  6  7  1  0
  7  8  2  0
  8  9  1  0
  8 10  1  0
 10 11  1  0
 10 12  1  0
 12 13  1  0
 13 14  2  0
 14 15  1  0
 14 16  1  0
 16 17  1  0
 17 18  2  0
 18 19  1  0
 18 20  1  0
 20 21  1  0
 20 22  2  0
 22 23  1  0
 22 24  1  0
 24 25  1  0
 24 26  2  0
 12 27  1  0
 27 28  2  0
  6 29  1  0
 29 30  1  0
 29 31  2  0
 31 32  1  0
 31  2  1  0
 27  7  1  0
 26 13  1  0
 26 17  1  0
M  END
>  <cnnaffinity>  (1) 
-5.36336

>  <filename>  (1) 
O=c1c(-c2cccnc2)c[nH]n1-c1csc2ccccc12

$$$$
