
     RDKit          3D

 31 33  0  0  0  0  0  0  0  0999 V2000
    4.9534    1.7705   17.0128 H   0  0  0  0  0  0  0  0  0  0  0  0
    5.4179    1.2700   17.8577 C   0  0  0  0  0  0  0  0  0  0  0  0
    6.5764    0.6481   17.6034 N   0  0  0  0  0  0  0  0  0  0  0  0
    7.1956    0.0512   18.6256 C   0  0  0  0  0  0  0  0  0  0  0  0
    8.1474   -0.4232   18.3866 H   0  0  0  0  0  0  0  0  0  0  0  0
    6.6776    0.0127   19.9263 C   0  0  0  0  0  0  0  0  0  0  0  0
    7.4310   -0.7103   20.9705 C   0  0  0  0  0  0  0  0  0  0  0  0
    8.7386   -0.7018   20.8930 N   0  0  0  0  0  0  0  0  0  0  0  0
    9.4352   -1.3259   21.8924 C   0  0  0  0  0  0  0  0  0  0  0  0
   10.6401   -1.3834   22.0000 O   0  0  0  0  0  0  0  0  0  0  0  0
    8.7194   -1.9768   22.9016 N   0  0  0  0  0  0  0  0  0  0  0  0
    9.3697   -2.4040   23.5348 H   0  0  0  0  0  0  0  0  0  0  0  0
    7.3823   -2.0644   22.9332 C   0  0  0  0  0  0  0  0  0  0  0  0
    6.9015   -2.7933   23.9624 O   0  0  0  0  0  0  0  0  0  0  0  0
    5.6614   -3.4136   23.8825 C   0  0  0  0  0  0  0  0  0  0  0  0
    5.2107   -4.0294   22.7057 C   0  0  0  0  0  0  0  0  0  0  0  0
    5.8217   -3.9798   21.8126 H   0  0  0  0  0  0  0  0  0  0  0  0
    3.9894   -4.7096   22.7045 C   0  0  0  0  0  0  0  0  0  0  0  0
    3.6430   -5.2042   21.8034 H   0  0  0  0  0  0  0  0  0  0  0  0
    3.2063   -4.7780   23.8562 C   0  0  0  0  0  0  0  0  0  0  0  0
    2.2531   -5.2944   23.8685 H   0  0  0  0  0  0  0  0  0  0  0  0
    3.6744   -4.1673   25.0218 C   0  0  0  0  0  0  0  0  0  0  0  0
    2.7176   -4.2847   26.4682 Cl  0  0  0  0  0  0  0  0  0  0  0  0
    4.8969   -3.4903   25.0562 C   0  0  0  0  0  0  0  0  0  0  0  0
    5.2519   -3.0470   25.9803 H   0  0  0  0  0  0  0  0  0  0  0  0
    6.6902   -1.4007   21.9617 C   0  0  0  0  0  0  0  0  0  0  0  0
    5.6226   -1.4524   21.9066 H   0  0  0  0  0  0  0  0  0  0  0  0
    5.4518    0.6489   20.1759 C   0  0  0  0  0  0  0  0  0  0  0  0
    5.0081    0.6511   21.1758 H   0  0  0  0  0  0  0  0  0  0  0  0
    4.8206    1.2990   19.1207 C   0  0  0  0  0  0  0  0  0  0  0  0
    3.8883    1.8295   19.2597 H   0  0  0  0  0  0  0  0  0  0  0  0
  1  2  1  0
  2  3  2  0
  3  4  1  0
  4  5  1  0
  4  6  2  0
  6  7  1  0
  7  8  2  0
  8  9  1  0
  9 10  2  0
  9 11  1  0
 11 12  1  0
 11 13  1  0
 13 14  1  0
 14 15  1  0
 15 16  2  0
 16 17  1  0
 16 18  1  0
 18 19  1  0
 18 20  2  0
 20 21  1  0
 20 22  1  0
 22 23  1  0
 22 24  2  0
 24 25  1  0
 13 26  2  0
 26 27  1  0
  6 28  1  0
 28 29  1  0
 28 30  2  0
 30 31  1  0
 30  2  1  0
 26  7  1  0
 24 15  1  0
M  END
>  <cnnaffinity>  (1) 
-5.35333

>  <filename>  (1) 
O=c1nc(-c2cccnc2)cc(Oc2cccc(Cl)c2)[nH]1

$$$$
