
     RDKit          3D

 23 24  0  0  0  0  0  0  0  0999 V2000
    4.9378    1.8414   16.9924 H   0  0  0  0  0  0  0  0  0  0  0  0
    5.4441    1.3272   17.8088 C   0  0  0  0  0  0  0  0  0  0  0  0
    6.6042    0.7253   17.5054 N   0  0  0  0  0  0  0  0  0  0  0  0
    7.2210    0.0484   18.4802 C   0  0  0  0  0  0  0  0  0  0  0  0
    8.1638   -0.4285   18.2210 H   0  0  0  0  0  0  0  0  0  0  0  0
    6.7221   -0.0863   19.7923 C   0  0  0  0  0  0  0  0  0  0  0  0
    7.4433   -0.8405   20.7722 N   0  0  0  0  0  0  0  0  0  0  0  0
    8.7925   -0.6667   21.0718 C   0  0  0  0  0  0  0  0  0  0  0  0
    9.4318   -0.0261   20.4919 H   0  0  0  0  0  0  0  0  0  0  0  0
    9.0960   -1.4178   22.1552 C   0  0  0  0  0  0  0  0  0  0  0  0
   10.5927   -1.6499   23.0011 S   0  0  0  0  0  0  0  0  0  0  0  0
   10.5526   -0.2049   24.1410 C   0  0  0  0  0  0  0  0  0  0  0  0
   10.4509    0.9251   23.4496 F   0  0  0  0  0  0  0  0  0  0  0  0
   11.6873   -0.1917   24.8392 F   0  0  0  0  0  0  0  0  0  0  0  0
    9.5182   -0.2947   24.9658 F   0  0  0  0  0  0  0  0  0  0  0  0
    7.9111   -2.0449   22.5391 N   0  0  0  0  0  0  0  0  0  0  0  0
    7.7415   -2.6490   23.3183 H   0  0  0  0  0  0  0  0  0  0  0  0
    6.8870   -1.7789   21.6633 C   0  0  0  0  0  0  0  0  0  0  0  0
    5.7882   -2.2886   21.6576 O   0  0  0  0  0  0  0  0  0  0  0  0
    5.5236    0.5702   20.1069 C   0  0  0  0  0  0  0  0  0  0  0  0
    5.1275    0.5402   21.1237 H   0  0  0  0  0  0  0  0  0  0  0  0
    4.8781    1.2847   19.0882 C   0  0  0  0  0  0  0  0  0  0  0  0
    3.9446    1.8008   19.2693 H   0  0  0  0  0  0  0  0  0  0  0  0
  1  2  1  0
  2  3  2  0
  3  4  1  0
  4  5  1  0
  4  6  2  0
  6  7  1  0
  7  8  1  0
  8  9  1  0
  8 10  2  0
 10 11  1  0
 11 12  1  0
 12 13  1  0
 12 14  1  0
 12 15  1  0
 10 16  1  0
 16 17  1  0
 16 18  1  0
 18 19  2  0
  6 20  1  0
 20 21  1  0
 20 22  2  0
 22 23  1  0
 22  2  1  0
 18  7  1  0
M  END
>  <cnnaffinity>  (1) 
-5.20936

>  <filename>  (1) 
O=c1[nH]c(SC(F)(F)F)cn1-c1cccnc1

$$$$
