
     RDKit          3D

 33 35  0  0  0  0  0  0  0  0999 V2000
    4.9317    1.7929   16.9885 H   0  0  0  0  0  0  0  0  0  0  0  0
    5.4014    1.2883   17.8324 C   0  0  0  0  0  0  0  0  0  0  0  0
    6.5656    0.6674   17.5743 N   0  0  0  0  0  0  0  0  0  0  0  0
    7.1571    0.0291   18.5899 C   0  0  0  0  0  0  0  0  0  0  0  0
    8.1198   -0.4316   18.3591 H   0  0  0  0  0  0  0  0  0  0  0  0
    6.6361   -0.0225   19.8952 C   0  0  0  0  0  0  0  0  0  0  0  0
    7.3762   -0.6722   20.9784 C   0  0  0  0  0  0  0  0  0  0  0  0
    7.7206   -0.0702   22.1750 C   0  0  0  0  0  0  0  0  0  0  0  0
    7.5087    1.3817   22.4131 C   0  0  0  0  0  0  0  0  0  0  0  0
    6.8069    1.8302   23.5477 C   0  0  0  0  0  0  0  0  0  0  0  0
    6.4115    1.1142   24.2718 H   0  0  0  0  0  0  0  0  0  0  0  0
    6.5568    3.1096   23.8192 N   0  0  0  0  0  0  0  0  0  0  0  0
    7.0316    4.0365   22.9709 C   0  0  0  0  0  0  0  0  0  0  0  0
    6.7692    5.5334   23.2395 C   0  0  0  0  0  0  0  0  0  0  0  0
    6.0745    5.7745   24.3514 F   0  0  0  0  0  0  0  0  0  0  0  0
    7.9430    6.1974   23.3369 F   0  0  0  0  0  0  0  0  0  0  0  0
    6.1031    6.0980   22.2100 F   0  0  0  0  0  0  0  0  0  0  0  0
    7.7880    3.6979   21.8379 C   0  0  0  0  0  0  0  0  0  0  0  0
    8.1902    4.5027   21.2376 H   0  0  0  0  0  0  0  0  0  0  0  0
    7.9993    2.3555   21.5260 C   0  0  0  0  0  0  0  0  0  0  0  0
    8.5278    2.0302   20.6221 H   0  0  0  0  0  0  0  0  0  0  0  0
    8.3429   -0.8715   23.1926 C   0  0  0  0  0  0  0  0  0  0  0  0
    8.5993   -0.3733   24.1306 H   0  0  0  0  0  0  0  0  0  0  0  0
    8.6302   -2.1840   22.9791 C   0  0  0  0  0  0  0  0  0  0  0  0
    9.1073   -2.8241   23.7070 H   0  0  0  0  0  0  0  0  0  0  0  0
    8.2938   -2.8243   21.7115 C   0  0  0  0  0  0  0  0  0  0  0  0
    8.4492   -3.9949   21.4057 O   0  0  0  0  0  0  0  0  0  0  0  0
    7.7316   -1.9771   20.7761 N   0  0  0  0  0  0  0  0  0  0  0  0
    7.4694   -2.4848   19.9490 H   0  0  0  0  0  0  0  0  0  0  0  0
    5.4229    0.6411   20.1504 C   0  0  0  0  0  0  0  0  0  0  0  0
    5.0129    0.6447   21.1632 H   0  0  0  0  0  0  0  0  0  0  0  0
    4.7986    1.3012   19.0954 C   0  0  0  0  0  0  0  0  0  0  0  0
    3.8742    1.8438   19.2408 H   0  0  0  0  0  0  0  0  0  0  0  0
  1  2  1  0
  2  3  2  0
  3  4  1  0
  4  5  1  0
  4  6  2  0
  6  7  1  0
  7  8  2  0
  8  9  1  0
  9 10  2  0
 10 11  1  0
 10 12  1  0
 12 13  2  0
 13 14  1  0
 14 15  1  0
 14 16  1  0
 14 17  1  0
 13 18  1  0
 18 19  1  0
 18 20  2  0
 20 21  1  0
  8 22  1  0
 22 23  1  0
 22 24  2  0
 24 25  1  0
 24 26  1  0
 26 27  2  0
 26 28  1  0
 28 29  1  0
  6 30  1  0
 30 31  1  0
 30 32  2  0
 32 33  1  0
 32  2  1  0
 28  7  1  0
 20  9  1  0
M  END
>  <cnnaffinity>  (1) 
-5.52642

>  <filename>  (1) 
O=c1ccc(-c2ccc(C(F)(F)F)nc2)c(-c2cccnc2)[nH]1

$$$$
