
     RDKit          3D

 33 35  0  0  0  0  0  0  0  0999 V2000
    4.9225    1.7962   16.9829 H   0  0  0  0  0  0  0  0  0  0  0  0
    5.3984    1.3025   17.8258 C   0  0  0  0  0  0  0  0  0  0  0  0
    6.5632    0.6889   17.5629 N   0  0  0  0  0  0  0  0  0  0  0  0
    7.1838    0.0797   18.5804 C   0  0  0  0  0  0  0  0  0  0  0  0
    8.1257   -0.4196   18.3479 H   0  0  0  0  0  0  0  0  0  0  0  0
    6.6616    0.0222   19.8880 C   0  0  0  0  0  0  0  0  0  0  0  0
    7.3534   -0.6823   20.9408 N   0  0  0  0  0  0  0  0  0  0  0  0
    8.6503   -0.2876   21.2740 C   0  0  0  0  0  0  0  0  0  0  0  0
    9.0554    0.5505   20.7059 H   0  0  0  0  0  0  0  0  0  0  0  0
    9.3769   -0.8766   22.2521 C   0  0  0  0  0  0  0  0  0  0  0  0
   10.6887   -0.4523   22.5345 N   0  0  0  0  0  0  0  0  0  0  0  0
   11.3333   -1.1132   22.9464 H   0  0  0  0  0  0  0  0  0  0  0  0
   11.1456    0.8751   22.5447 C   0  0  0  0  0  0  0  0  0  0  0  0
   12.5164    1.1047   22.3618 C   0  0  0  0  0  0  0  0  0  0  0  0
   13.1618    0.2522   22.1699 H   0  0  0  0  0  0  0  0  0  0  0  0
   13.0161    2.4103   22.3909 C   0  0  0  0  0  0  0  0  0  0  0  0
   14.0885    2.5973   22.3453 H   0  0  0  0  0  0  0  0  0  0  0  0
   12.1422    3.4968   22.5207 C   0  0  0  0  0  0  0  0  0  0  0  0
   12.5321    4.5086   22.4509 H   0  0  0  0  0  0  0  0  0  0  0  0
   10.7786    3.2702   22.7446 C   0  0  0  0  0  0  0  0  0  0  0  0
   10.0980    4.1096   22.9012 H   0  0  0  0  0  0  0  0  0  0  0  0
   10.2862    1.9592   22.7829 C   0  0  0  0  0  0  0  0  0  0  0  0
    9.2436    1.7537   23.0062 H   0  0  0  0  0  0  0  0  0  0  0  0
    8.7456   -2.0226   22.9923 C   0  0  0  0  0  0  0  0  0  0  0  0
    9.2133   -2.7146   23.8746 O   0  0  0  0  0  0  0  0  0  0  0  0
    7.4698   -2.3176   22.5913 N   0  0  0  0  0  0  0  0  0  0  0  0
    7.0315   -3.0841   23.0583 H   0  0  0  0  0  0  0  0  0  0  0  0
    6.7219   -1.7576   21.6101 C   0  0  0  0  0  0  0  0  0  0  0  0
    5.6293   -2.2115   21.3669 O   0  0  0  0  0  0  0  0  0  0  0  0
    5.4442    0.6571   20.1485 C   0  0  0  0  0  0  0  0  0  0  0  0
    5.0207    0.6085   21.1509 H   0  0  0  0  0  0  0  0  0  0  0  0
    4.8084    1.3200   19.0942 C   0  0  0  0  0  0  0  0  0  0  0  0
    3.8717    1.8439   19.2453 H   0  0  0  0  0  0  0  0  0  0  0  0
  1  2  1  0
  2  3  2  0
  3  4  1  0
  4  5  1  0
  4  6  2  0
  6  7  1  0
  7  8  1  0
  8  9  1  0
  8 10  2  0
 10 11  1  0
 11 12  1  0
 11 13  1  0
 13 14  2  0
 14 15  1  0
 14 16  1  0
 16 17  1  0
 16 18  2  0
 18 19  1  0
 18 20  1  0
 20 21  1  0
 20 22  2  0
 22 23  1  0
 10 24  1  0
 24 25  2  0
 24 26  1  0
 26 27  1  0
 26 28  1  0
 28 29  2  0
  6 30  1  0
 30 31  1  0
 30 32  2  0
 32 33  1  0
 32  2  1  0
 28  7  1  0
 22 13  1  0
M  END
>  <cnnaffinity>  (1) 
-5.15437

>  <filename>  (1) 
O=c1[nH]c(=O)n(-c2cccnc2)cc1Nc1ccccc1

$$$$
