
     RDKit          3D

 44 47  0  0  0  0  0  0  0  0999 V2000
    6.8299    3.7575   21.5945 O   0  0  0  0  0  0  0  0  0  0  0  0
    6.2379    3.0740   22.4099 C   0  0  0  0  0  0  0  0  0  0  0  0
    4.8121    3.4094   22.8109 C   0  0  0  0  0  0  0  0  0  0  0  0
    4.4077    2.9675   24.2193 C   0  0  0  0  0  0  0  0  0  0  0  0
    4.8555    1.5092   24.4222 C   0  0  0  0  0  0  0  0  0  0  0  0
    4.3984    0.9082   25.7381 C   0  0  0  0  0  0  0  0  0  0  0  0
    3.0581    0.9628   25.8698 F   0  0  0  0  0  0  0  0  0  0  0  0
    4.7472   -0.3888   25.8447 F   0  0  0  0  0  0  0  0  0  0  0  0
    4.9333    1.5539   26.7993 F   0  0  0  0  0  0  0  0  0  0  0  0
    6.3710    1.3621   24.2406 C   0  0  0  0  0  0  0  0  0  0  0  0
    6.7720    1.9008   22.9324 N   0  0  0  0  0  0  0  0  0  0  0  0
    8.0495    1.3903   22.3817 C   0  0  0  0  0  0  0  0  0  0  0  0
    8.0028   -0.0757   22.0339 C   0  0  0  0  0  0  0  0  0  0  0  0
    8.4957   -1.0638   22.7482 N   0  0  0  0  0  0  0  0  0  0  0  0
    8.1804   -2.1752   22.0252 C   0  0  0  0  0  0  0  0  0  0  0  0
    8.4390   -3.5566   22.4539 C   0  0  0  0  0  0  0  0  0  0  0  0
    8.1245   -4.7591   21.8794 C   0  0  0  0  0  0  0  0  0  0  0  0
    8.5672   -5.7663   22.7914 C   0  0  0  0  0  0  0  0  0  0  0  0
    9.1166   -5.1052   23.8453 C   0  0  0  0  0  0  0  0  0  0  0  0
    9.0362   -3.7723   23.6631 O   0  0  0  0  0  0  0  0  0  0  0  0
    9.5977   -5.4300   24.7572 H   0  0  0  0  0  0  0  0  0  0  0  0
    8.4901   -6.8385   22.6948 H   0  0  0  0  0  0  0  0  0  0  0  0
    7.6142   -4.8935   20.9335 H   0  0  0  0  0  0  0  0  0  0  0  0
    7.5420   -1.9159   20.8934 N   0  0  0  0  0  0  0  0  0  0  0  0
    7.4066   -0.5764   20.9117 N   0  0  0  0  0  0  0  0  0  0  0  0
    6.6564    0.0594   19.8828 C   0  0  0  0  0  0  0  0  0  0  0  0
    5.4283    0.6765   20.1330 C   0  0  0  0  0  0  0  0  0  0  0  0
    4.8051    1.3342   19.0681 C   0  0  0  0  0  0  0  0  0  0  0  0
    5.4093    1.3087   17.8085 C   0  0  0  0  0  0  0  0  0  0  0  0
    6.5490    0.6394   17.5521 N   0  0  0  0  0  0  0  0  0  0  0  0
    7.1434    0.0132   18.5705 C   0  0  0  0  0  0  0  0  0  0  0  0
    8.0522   -0.5472   18.3577 H   0  0  0  0  0  0  0  0  0  0  0  0
    4.9619    1.8313   16.9665 H   0  0  0  0  0  0  0  0  0  0  0  0
    3.8684    1.8656   19.2032 H   0  0  0  0  0  0  0  0  0  0  0  0
    4.9661    0.6210   21.1182 H   0  0  0  0  0  0  0  0  0  0  0  0
    8.2973    1.9740   21.4882 H   0  0  0  0  0  0  0  0  0  0  0  0
    8.8655    1.5448   23.1037 H   0  0  0  0  0  0  0  0  0  0  0  0
    6.9214    1.8491   25.0656 H   0  0  0  0  0  0  0  0  0  0  0  0
    6.6466    0.2990   24.2734 H   0  0  0  0  0  0  0  0  0  0  0  0
    4.3888    0.8933   23.6475 H   0  0  0  0  0  0  0  0  0  0  0  0
    3.3181    3.0540   24.3220 H   0  0  0  0  0  0  0  0  0  0  0  0
    4.8593    3.6219   24.9824 H   0  0  0  0  0  0  0  0  0  0  0  0
    4.1963    2.8937   22.0578 H   0  0  0  0  0  0  0  0  0  0  0  0
    4.6759    4.4802   22.6395 H   0  0  0  0  0  0  0  0  0  0  0  0
  1  2  2  0
  2  3  1  0
  3  4  1  0
  4  5  1  0
  5  6  1  0
  6  7  1  0
  6  8  1  0
  6  9  1  0
  5 10  1  0
 10 11  1  0
 11 12  1  0
 12 13  1  0
 13 14  2  0
 14 15  1  0
 15 16  1  0
 16 17  2  0
 17 18  1  0
 18 19  2  0
 19 20  1  0
 19 21  1  0
 18 22  1  0
 17 23  1  0
 15 24  2  0
 24 25  1  0
 25 26  1  0
 26 27  2  0
 27 28  1  0
 28 29  2  0
 29 30  1  0
 30 31  2  0
 31 32  1  0
 29 33  1  0
 28 34  1  0
 27 35  1  0
 12 36  1  0
 12 37  1  0
 10 38  1  0
 10 39  1  0
  5 40  1  0
  4 41  1  0
  4 42  1  0
  3 43  1  0
  3 44  1  0
 11  2  1  0
 25 13  1  0
 31 26  1  0
 20 16  1  0
M  END
>  <cnnaffinity>  (1) 
-5.83812

>  <filename>  (1) 
O=C1CCC(C(F)(F)F)CN1Cc1nc(-c2ccco2)nn1-c1cccnc1

$$$$
