
     RDKit          3D

 31 33  0  0  0  0  0  0  0  0999 V2000
    5.1479    1.5633   16.7022 H   0  0  0  0  0  0  0  0  0  0  0  0
    5.5894    1.1477   17.6084 C   0  0  0  0  0  0  0  0  0  0  0  0
    6.7422    0.4887   17.4515 N   0  0  0  0  0  0  0  0  0  0  0  0
    7.3057   -0.0415   18.5439 C   0  0  0  0  0  0  0  0  0  0  0  0
    8.2229   -0.5991   18.3589 H   0  0  0  0  0  0  0  0  0  0  0  0
    6.7907    0.0665   19.8644 C   0  0  0  0  0  0  0  0  0  0  0  0
    7.4890   -0.4796   21.0837 C   0  0  0  0  0  0  0  0  0  0  0  0
    7.0702    0.0412   22.2251 N   0  0  0  0  0  0  0  0  0  0  0  0
    7.3935   -0.6584   23.3731 N   0  0  0  0  0  0  0  0  0  0  0  0
    7.9776    0.1380   24.3733 O   0  0  0  0  0  0  0  0  0  0  0  0
    7.1487    1.1494   24.8786 C   0  0  0  0  0  0  0  0  0  0  0  0
    5.7482    1.1431   24.7956 C   0  0  0  0  0  0  0  0  0  0  0  0
    5.2498    0.3197   24.2910 H   0  0  0  0  0  0  0  0  0  0  0  0
    5.0196    2.2031   25.3560 C   0  0  0  0  0  0  0  0  0  0  0  0
    3.9368    2.2619   25.2929 H   0  0  0  0  0  0  0  0  0  0  0  0
    5.7025    3.2391   25.9881 C   0  0  0  0  0  0  0  0  0  0  0  0
    5.0094    4.2660   26.5085 F   0  0  0  0  0  0  0  0  0  0  0  0
    7.0929    3.2470   26.0872 C   0  0  0  0  0  0  0  0  0  0  0  0
    7.5847    4.0845   26.5715 H   0  0  0  0  0  0  0  0  0  0  0  0
    7.8188    2.1843   25.5445 C   0  0  0  0  0  0  0  0  0  0  0  0
    8.9029    2.1566   25.6168 H   0  0  0  0  0  0  0  0  0  0  0  0
    8.1317   -1.8487   23.2640 C   0  0  0  0  0  0  0  0  0  0  0  0
    8.3778   -2.3297   24.1905 H   0  0  0  0  0  0  0  0  0  0  0  0
    8.5600   -2.3531   22.0602 C   0  0  0  0  0  0  0  0  0  0  0  0
    9.2348   -3.2057   21.9704 H   0  0  0  0  0  0  0  0  0  0  0  0
    8.7946   -1.3546   20.8619 C   0  0  0  0  0  0  0  0  0  0  0  0
    8.7113   -1.3802   20.8934 O   0  0  0  0  0  0  0  0  0  0  0  0
    5.5667    0.7718   19.9847 C   0  0  0  0  0  0  0  0  0  0  0  0
    5.1193    0.9070   20.9684 H   0  0  0  0  0  0  0  0  0  0  0  0
    4.9586    1.2938   18.8460 C   0  0  0  0  0  0  0  0  0  0  0  0
    4.0242    1.8389   18.9001 H   0  0  0  0  0  0  0  0  0  0  0  0
  1  2  1  0
  2  3  2  0
  3  4  1  0
  4  5  1  0
  4  6  2  0
  6  7  1  0
  7  8  2  0
  8  9  1  0
  9 10  1  0
 10 11  1  0
 11 12  2  0
 12 13  1  0
 12 14  1  0
 14 15  1  0
 14 16  2  0
 16 17  1  0
 16 18  1  0
 18 19  1  0
 18 20  2  0
 20 21  1  0
  9 22  1  0
 22 23  1  0
 22 24  2  0
 24 25  1  0
 24 26  1  0
 26 27  2  0
  6 28  1  0
 28 29  1  0
 28 30  2  0
 30 31  1  0
 30  2  1  0
 26  7  1  0
 20 11  1  0
M  END
>  <cnnaffinity>  (1) 
-5.0429

>  <filename>  (1) 
O=c1ccn(Oc2ccc(F)cc2)nc1-c1cccnc1

$$$$
