
     RDKit          3D

 35 38  0  0  0  0  0  0  0  0999 V2000
    4.9266    1.8269   16.9648 H   0  0  0  0  0  0  0  0  0  0  0  0
    5.3970    1.3239   17.8068 C   0  0  0  0  0  0  0  0  0  0  0  0
    6.5606    0.7062   17.5466 N   0  0  0  0  0  0  0  0  0  0  0  0
    7.1722    0.0743   18.5561 C   0  0  0  0  0  0  0  0  0  0  0  0
    8.1201   -0.4068   18.3171 H   0  0  0  0  0  0  0  0  0  0  0  0
    6.6383   -0.0064   19.8592 C   0  0  0  0  0  0  0  0  0  0  0  0
    7.3183   -0.7155   20.9266 N   0  0  0  0  0  0  0  0  0  0  0  0
    8.6026   -0.3207   21.2674 C   0  0  0  0  0  0  0  0  0  0  0  0
    9.0044    0.5160   20.6979 H   0  0  0  0  0  0  0  0  0  0  0  0
    9.3405   -0.9286   22.2331 C   0  0  0  0  0  0  0  0  0  0  0  0
   10.6968   -0.4697   22.5165 C   0  0  0  0  0  0  0  0  0  0  0  0
   11.7888   -1.2741   22.6576 C   0  0  0  0  0  0  0  0  0  0  0  0
   11.7847   -2.3560   22.6511 H   0  0  0  0  0  0  0  0  0  0  0  0
   12.9202   -0.5245   22.8739 N   0  0  0  0  0  0  0  0  0  0  0  0
   13.7906   -0.8961   23.2235 H   0  0  0  0  0  0  0  0  0  0  0  0
   12.5598    0.8056   22.9273 C   0  0  0  0  0  0  0  0  0  0  0  0
   13.3315    1.9437   23.1820 C   0  0  0  0  0  0  0  0  0  0  0  0
   14.3879    1.8353   23.3706 H   0  0  0  0  0  0  0  0  0  0  0  0
   12.7137    3.1884   23.1427 C   0  0  0  0  0  0  0  0  0  0  0  0
   13.3050    4.0884   23.2961 H   0  0  0  0  0  0  0  0  0  0  0  0
   11.3307    3.2969   22.8695 C   0  0  0  0  0  0  0  0  0  0  0  0
   10.8797    4.2824   22.7952 H   0  0  0  0  0  0  0  0  0  0  0  0
   10.5586    2.1625   22.6547 C   0  0  0  0  0  0  0  0  0  0  0  0
    9.4927    2.2642   22.4771 H   0  0  0  0  0  0  0  0  0  0  0  0
   11.1733    0.8915   22.6730 C   0  0  0  0  0  0  0  0  0  0  0  0
    8.7263   -2.0646   22.9724 C   0  0  0  0  0  0  0  0  0  0  0  0
    9.2026   -2.7464   23.8558 O   0  0  0  0  0  0  0  0  0  0  0  0
    7.4302   -2.3486   22.5900 N   0  0  0  0  0  0  0  0  0  0  0  0
    6.9852   -3.1011   23.0808 H   0  0  0  0  0  0  0  0  0  0  0  0
    6.6829   -1.7914   21.6030 C   0  0  0  0  0  0  0  0  0  0  0  0
    5.5885   -2.2307   21.3415 O   0  0  0  0  0  0  0  0  0  0  0  0
    5.4282    0.6472   20.1173 C   0  0  0  0  0  0  0  0  0  0  0  0
    5.0074    0.6083   21.1212 H   0  0  0  0  0  0  0  0  0  0  0  0
    4.7952    1.3297   19.0705 C   0  0  0  0  0  0  0  0  0  0  0  0
    3.8562    1.8585   19.2186 H   0  0  0  0  0  0  0  0  0  0  0  0
  1  2  1  0
  2  3  2  0
  3  4  1  0
  4  5  1  0
  4  6  2  0
  6  7  1  0
  7  8  1  0
  8  9  1  0
  8 10  2  0
 10 11  1  0
 11 12  2  0
 12 13  1  0
 12 14  1  0
 14 15  1  0
 14 16  1  0
 16 17  2  0
 17 18  1  0
 17 19  1  0
 19 20  1  0
 19 21  2  0
 21 22  1  0
 21 23  1  0
 23 24  1  0
 23 25  2  0
 10 26  1  0
 26 27  2  0
 26 28  1  0
 28 29  1  0
 28 30  1  0
 30 31  2  0
  6 32  1  0
 32 33  1  0
 32 34  2  0
 34 35  1  0
 34  2  1  0
 30  7  1  0
 25 11  1  0
 25 16  1  0
M  END
>  <cnnaffinity>  (1) 
-5.26571

>  <filename>  (1) 
O=c1[nH]c(=O)n(-c2cccnc2)cc1-c1c[nH]c2ccccc12

$$$$
