
     RDKit          3D

 44 48  0  0  0  0  0  0  0  0999 V2000
   11.9983   -0.9375   21.3322 O   0  0  0  0  0  0  0  0  0  0  0  0
   11.6364    0.0568   21.9307 C   0  0  0  0  0  0  0  0  0  0  0  0
   12.4520    0.7907   22.8691 C   0  0  0  0  0  0  0  0  0  0  0  0
   13.8422    0.3223   23.1042 C   0  0  0  0  0  0  0  0  0  0  0  0
   14.1747   -0.8641   22.6155 F   0  0  0  0  0  0  0  0  0  0  0  0
   14.7357    1.2130   22.6226 F   0  0  0  0  0  0  0  0  0  0  0  0
   14.0605    0.2787   24.4398 F   0  0  0  0  0  0  0  0  0  0  0  0
   11.9761    1.8991   23.5374 C   0  0  0  0  0  0  0  0  0  0  0  0
   10.6644    2.3474   23.3010 C   0  0  0  0  0  0  0  0  0  0  0  0
    9.8801    1.7070   22.3834 C   0  0  0  0  0  0  0  0  0  0  0  0
   10.3208    0.5891   21.7213 N   0  0  0  0  0  0  0  0  0  0  0  0
    9.3866   -0.0753   20.7870 C   0  0  0  0  0  0  0  0  0  0  0  0
    8.2140   -0.7758   21.4347 C   0  0  0  0  0  0  0  0  0  0  0  0
    8.2943   -1.5500   22.4914 N   0  0  0  0  0  0  0  0  0  0  0  0
    7.0608   -2.1293   22.5615 C   0  0  0  0  0  0  0  0  0  0  0  0
    6.6929   -3.2286   23.4912 C   0  0  0  0  0  0  0  0  0  0  0  0
    6.7792   -4.6567   22.9206 C   0  0  0  0  0  0  0  0  0  0  0  0
    7.7664   -4.1570   23.9338 C   0  0  0  0  0  0  0  0  0  0  0  0
    8.3913   -4.6745   25.1802 C   0  0  0  0  0  0  0  0  0  0  0  0
    9.2222   -3.9451   24.1266 C   0  0  0  0  0  0  0  0  0  0  0  0
    9.9054   -4.5003   23.4852 H   0  0  0  0  0  0  0  0  0  0  0  0
    9.5065   -2.9068   24.3122 H   0  0  0  0  0  0  0  0  0  0  0  0
    8.5211   -5.7555   25.2470 H   0  0  0  0  0  0  0  0  0  0  0  0
    8.1724   -4.1705   26.1206 H   0  0  0  0  0  0  0  0  0  0  0  0
    6.0394   -5.3934   23.2417 H   0  0  0  0  0  0  0  0  0  0  0  0
    7.1315   -4.7736   21.8942 H   0  0  0  0  0  0  0  0  0  0  0  0
    5.8917   -2.9869   24.1924 H   0  0  0  0  0  0  0  0  0  0  0  0
    6.2186   -1.7280   21.6275 N   0  0  0  0  0  0  0  0  0  0  0  0
    6.9624   -0.8633   20.8909 N   0  0  0  0  0  0  0  0  0  0  0  0
    6.4052   -0.2113   19.7551 C   0  0  0  0  0  0  0  0  0  0  0  0
    5.3247    0.6675   19.8784 C   0  0  0  0  0  0  0  0  0  0  0  0
    4.8945    1.3437   18.7307 C   0  0  0  0  0  0  0  0  0  0  0  0
    5.5386    1.0947   17.5122 C   0  0  0  0  0  0  0  0  0  0  0  0
    6.5332    0.2094   17.3776 N   0  0  0  0  0  0  0  0  0  0  0  0
    6.9416   -0.4366   18.4752 C   0  0  0  0  0  0  0  0  0  0  0  0
    7.7459   -1.1563   18.3495 H   0  0  0  0  0  0  0  0  0  0  0  0
    5.2483    1.6255   16.6079 H   0  0  0  0  0  0  0  0  0  0  0  0
    4.0751    2.0537   18.7600 H   0  0  0  0  0  0  0  0  0  0  0  0
    4.8444    0.8209   20.8461 H   0  0  0  0  0  0  0  0  0  0  0  0
    9.9601   -0.8373   20.2520 H   0  0  0  0  0  0  0  0  0  0  0  0
    9.0245    0.6504   20.0505 H   0  0  0  0  0  0  0  0  0  0  0  0
    8.8802    2.0556   22.1364 H   0  0  0  0  0  0  0  0  0  0  0  0
   10.2777    3.2083   23.8326 H   0  0  0  0  0  0  0  0  0  0  0  0
   12.6068    2.4208   24.2562 H   0  0  0  0  0  0  0  0  0  0  0  0
  1  2  2  0
  2  3  1  0
  3  4  1  0
  4  5  1  0
  4  6  1  0
  4  7  1  0
  3  8  2  0
  8  9  1  0
  9 10  2  0
 10 11  1  0
 11 12  1  0
 12 13  1  0
 13 14  2  0
 14 15  1  0
 15 16  1  0
 16 17  1  0
 17 18  1  0
 18 19  1  0
 19 20  1  0
 20 21  1  0
 20 22  1  0
 19 23  1  0
 19 24  1  0
 17 25  1  0
 17 26  1  0
 16 27  1  0
 15 28  2  0
 28 29  1  0
 29 30  1  0
 30 31  2  0
 31 32  1  0
 32 33  2  0
 33 34  1  0
 34 35  2  0
 35 36  1  0
 33 37  1  0
 32 38  1  0
 31 39  1  0
 12 40  1  0
 12 41  1  0
 10 42  1  0
  9 43  1  0
  8 44  1  0
 11  2  1  0
 29 13  1  0
 35 30  1  0
 18 16  1  0
 20 18  1  0
M  END
>  <cnnaffinity>  (1) 
-6.86602

>  <filename>  (1) 
O=c1c(C(F)(F)F)cccn1Cc1nc(C2CC23CC3)nn1-c1cccnc1

$$$$
