
     RDKit          3D

 34 36  0  0  0  0  0  0  0  0999 V2000
    4.9203    1.7842   16.9932 H   0  0  0  0  0  0  0  0  0  0  0  0
    5.4008    1.2957   17.8375 C   0  0  0  0  0  0  0  0  0  0  0  0
    6.5631    0.6752   17.5795 N   0  0  0  0  0  0  0  0  0  0  0  0
    7.1743    0.0605   18.5986 C   0  0  0  0  0  0  0  0  0  0  0  0
    8.1134   -0.4384   18.3706 H   0  0  0  0  0  0  0  0  0  0  0  0
    6.6602    0.0042   19.9078 C   0  0  0  0  0  0  0  0  0  0  0  0
    7.3440   -0.6968   20.9524 N   0  0  0  0  0  0  0  0  0  0  0  0
    6.5590   -1.4331   21.8024 N   0  0  0  0  0  0  0  0  0  0  0  0
    7.1192   -2.0905   22.7860 C   0  0  0  0  0  0  0  0  0  0  0  0
    6.2127   -2.8676   23.7000 C   0  0  0  0  0  0  0  0  0  0  0  0
    6.4402   -2.8865   25.0945 C   0  0  0  0  0  0  0  0  0  0  0  0
    7.2918   -2.3511   25.5112 H   0  0  0  0  0  0  0  0  0  0  0  0
    5.5999   -3.6267   25.9209 C   0  0  0  0  0  0  0  0  0  0  0  0
    5.7767   -3.6361   26.9924 H   0  0  0  0  0  0  0  0  0  0  0  0
    4.5270   -4.3614   25.4000 C   0  0  0  0  0  0  0  0  0  0  0  0
    3.8718   -4.9235   26.0563 H   0  0  0  0  0  0  0  0  0  0  0  0
    4.3149   -4.3461   24.0192 C   0  0  0  0  0  0  0  0  0  0  0  0
    3.2679   -5.0211   23.3856 O   0  0  0  0  0  0  0  0  0  0  0  0
    2.3613   -5.7656   24.0620 C   0  0  0  0  0  0  0  0  0  0  0  0
    1.5209   -6.2607   23.1605 F   0  0  0  0  0  0  0  0  0  0  0  0
    2.9157   -6.7885   24.7369 F   0  0  0  0  0  0  0  0  0  0  0  0
    1.6546   -5.0530   24.9582 F   0  0  0  0  0  0  0  0  0  0  0  0
    5.1466   -3.6117   23.1683 C   0  0  0  0  0  0  0  0  0  0  0  0
    4.9763   -3.6003   22.0961 H   0  0  0  0  0  0  0  0  0  0  0  0
    8.6150   -2.0949   23.0254 C   0  0  0  0  0  0  0  0  0  0  0  0
    9.1848   -2.7232   23.9086 O   0  0  0  0  0  0  0  0  0  0  0  0
    9.3658   -1.2623   22.0879 C   0  0  0  0  0  0  0  0  0  0  0  0
   10.4416   -1.2198   22.2165 H   0  0  0  0  0  0  0  0  0  0  0  0
    8.7129   -0.6130   21.1098 C   0  0  0  0  0  0  0  0  0  0  0  0
    9.2214    0.0328   20.3940 H   0  0  0  0  0  0  0  0  0  0  0  0
    5.4405    0.6449   20.1660 C   0  0  0  0  0  0  0  0  0  0  0  0
    5.0307    0.5975   21.1756 H   0  0  0  0  0  0  0  0  0  0  0  0
    4.8129    1.3120   19.1093 C   0  0  0  0  0  0  0  0  0  0  0  0
    3.8793    1.8409   19.2599 H   0  0  0  0  0  0  0  0  0  0  0  0
  1  2  1  0
  2  3  2  0
  3  4  1  0
  4  5  1  0
  4  6  2  0
  6  7  1  0
  7  8  1  0
  8  9  2  0
  9 10  1  0
 10 11  2  0
 11 12  1  0
 11 13  1  0
 13 14  1  0
 13 15  2  0
 15 16  1  0
 15 17  1  0
 17 18  1  0
 18 19  1  0
 19 20  1  0
 19 21  1  0
 19 22  1  0
 17 23  2  0
 23 24  1  0
  9 25  1  0
 25 26  2  0
 25 27  1  0
 27 28  1  0
 27 29  2  0
 29 30  1  0
  6 31  1  0
 31 32  1  0
 31 33  2  0
 33 34  1  0
 33  2  1  0
 29  7  1  0
 23 10  1  0
M  END
>  <cnnaffinity>  (1) 
-5.54845

>  <filename>  (1) 
O=c1ccn(-c2cccnc2)nc1-c1cccc(OC(F)(F)F)c1

$$$$
