
     RDKit          3D

 34 37  0  0  0  0  0  0  0  0999 V2000
    4.9117    1.8058   16.9715 H   0  0  0  0  0  0  0  0  0  0  0  0
    5.3856    1.3064   17.8138 C   0  0  0  0  0  0  0  0  0  0  0  0
    6.5473    0.6882   17.5482 N   0  0  0  0  0  0  0  0  0  0  0  0
    7.1647    0.0789   18.5680 C   0  0  0  0  0  0  0  0  0  0  0  0
    8.1042   -0.4203   18.3250 H   0  0  0  0  0  0  0  0  0  0  0  0
    6.6627    0.0290   19.8814 C   0  0  0  0  0  0  0  0  0  0  0  0
    7.3861   -0.6887   20.9642 C   0  0  0  0  0  0  0  0  0  0  0  0
    6.6920   -1.5357   21.8693 C   0  0  0  0  0  0  0  0  0  0  0  0
    5.6225   -1.6682   21.7286 H   0  0  0  0  0  0  0  0  0  0  0  0
    7.3410   -2.2185   22.8818 C   0  0  0  0  0  0  0  0  0  0  0  0
    6.6556   -3.1241   23.7840 C   0  0  0  0  0  0  0  0  0  0  0  0
    5.2913   -2.9897   23.9097 O   0  0  0  0  0  0  0  0  0  0  0  0
    4.8857   -3.9392   24.7929 C   0  0  0  0  0  0  0  0  0  0  0  0
    3.5842   -4.1633   25.2533 C   0  0  0  0  0  0  0  0  0  0  0  0
    2.7499   -3.5501   24.9300 H   0  0  0  0  0  0  0  0  0  0  0  0
    3.4199   -5.2187   26.1540 C   0  0  0  0  0  0  0  0  0  0  0  0
    2.4304   -5.4428   26.5412 H   0  0  0  0  0  0  0  0  0  0  0  0
    4.5091   -6.0103   26.5781 C   0  0  0  0  0  0  0  0  0  0  0  0
    4.3444   -6.8230   27.2785 H   0  0  0  0  0  0  0  0  0  0  0  0
    5.7947   -5.7656   26.1160 C   0  0  0  0  0  0  0  0  0  0  0  0
    6.6481   -6.3559   26.4300 H   0  0  0  0  0  0  0  0  0  0  0  0
    5.9872   -4.7087   25.2092 C   0  0  0  0  0  0  0  0  0  0  0  0
    7.1218   -4.1528   24.5362 C   0  0  0  0  0  0  0  0  0  0  0  0
    8.1588   -4.4454   24.5801 H   0  0  0  0  0  0  0  0  0  0  0  0
    8.7846   -2.0548   23.0501 C   0  0  0  0  0  0  0  0  0  0  0  0
    9.5489   -2.5413   23.8685 O   0  0  0  0  0  0  0  0  0  0  0  0
    9.3796   -1.2000   22.1204 N   0  0  0  0  0  0  0  0  0  0  0  0
   10.3652   -1.1691   22.3341 H   0  0  0  0  0  0  0  0  0  0  0  0
    8.7396   -0.5442   21.1144 C   0  0  0  0  0  0  0  0  0  0  0  0
    9.3334    0.0954   20.4697 H   0  0  0  0  0  0  0  0  0  0  0  0
    5.4400    0.6669   20.1303 C   0  0  0  0  0  0  0  0  0  0  0  0
    5.0216    0.6426   21.1378 H   0  0  0  0  0  0  0  0  0  0  0  0
    4.7978    1.3254   19.0828 C   0  0  0  0  0  0  0  0  0  0  0  0
    3.8646    1.8492   19.2378 H   0  0  0  0  0  0  0  0  0  0  0  0
  1  2  1  0
  2  3  2  0
  3  4  1  0
  4  5  1  0
  4  6  2  0
  6  7  1  0
  7  8  1  0
  8  9  1  0
  8 10  2  0
 10 11  1  0
 11 12  1  0
 12 13  1  0
 13 14  2  0
 14 15  1  0
 14 16  1  0
 16 17  1  0
 16 18  2  0
 18 19  1  0
 18 20  1  0
 20 21  1  0
 20 22  2  0
 22 23  1  0
 23 24  1  0
 10 25  1  0
 25 26  2  0
 25 27  1  0
 27 28  1  0
 27 29  1  0
 29 30  1  0
  6 31  1  0
 31 32  1  0
 31 33  2  0
 33 34  1  0
 33  2  1  0
 29  7  2  0
 23 11  2  0
 22 13  1  0
M  END
>  <cnnaffinity>  (1) 
-5.18887

>  <filename>  (1) 
O=c1[nH]cc(-c2cccnc2)cc1-c1cc2ccccc2o1

$$$$
