
     RDKit          3D

 28 30  0  0  0  0  0  0  0  0999 V2000
    4.9386    1.8785   16.9527 H   0  0  0  0  0  0  0  0  0  0  0  0
    5.3955    1.3383   17.7796 C   0  0  0  0  0  0  0  0  0  0  0  0
    6.5574    0.7181   17.5130 N   0  0  0  0  0  0  0  0  0  0  0  0
    7.1412    0.0599   18.5211 C   0  0  0  0  0  0  0  0  0  0  0  0
    8.0890   -0.4271   18.3035 H   0  0  0  0  0  0  0  0  0  0  0  0
    6.5981   -0.0452   19.8169 C   0  0  0  0  0  0  0  0  0  0  0  0
    7.3116   -0.7378   20.8634 N   0  0  0  0  0  0  0  0  0  0  0  0
    8.5507   -0.2493   21.2057 C   0  0  0  0  0  0  0  0  0  0  0  0
    8.8779    0.5966   20.6072 H   0  0  0  0  0  0  0  0  0  0  0  0
    9.3053   -0.7618   22.2249 C   0  0  0  0  0  0  0  0  0  0  0  0
   10.6010   -0.1542   22.5321 C   0  0  0  0  0  0  0  0  0  0  0  0
   11.2290   -0.5074   23.6895 O   0  0  0  0  0  0  0  0  0  0  0  0
   12.4153    0.1503   23.7325 C   0  0  0  0  0  0  0  0  0  0  0  0
   13.0384   -0.0402   24.5946 H   0  0  0  0  0  0  0  0  0  0  0  0
   12.5649    0.9198   22.6287 C   0  0  0  0  0  0  0  0  0  0  0  0
   13.4061    1.5474   22.3662 H   0  0  0  0  0  0  0  0  0  0  0  0
   11.3863    0.7325   21.8516 C   0  0  0  0  0  0  0  0  0  0  0  0
   11.1913    1.1970   20.8968 H   0  0  0  0  0  0  0  0  0  0  0  0
    8.7766   -1.8874   22.9467 C   0  0  0  0  0  0  0  0  0  0  0  0
    9.3679   -2.3462   23.7364 H   0  0  0  0  0  0  0  0  0  0  0  0
    7.5462   -2.3734   22.6478 C   0  0  0  0  0  0  0  0  0  0  0  0
    7.0919   -3.1940   23.1826 H   0  0  0  0  0  0  0  0  0  0  0  0
    6.7101   -1.8278   21.5865 C   0  0  0  0  0  0  0  0  0  0  0  0
    5.6125   -2.2730   21.3064 O   0  0  0  0  0  0  0  0  0  0  0  0
    5.3998    0.6217   20.0886 C   0  0  0  0  0  0  0  0  0  0  0  0
    4.9829    0.5983   21.0959 H   0  0  0  0  0  0  0  0  0  0  0  0
    4.7905    1.3253   19.0422 C   0  0  0  0  0  0  0  0  0  0  0  0
    3.8690    1.8748   19.2000 H   0  0  0  0  0  0  0  0  0  0  0  0
  1  2  1  0
  2  3  2  0
  3  4  1  0
  4  5  1  0
  4  6  2  0
  6  7  1  0
  7  8  1  0
  8  9  1  0
  8 10  2  0
 10 11  1  0
 11 12  1  0
 12 13  1  0
 13 14  1  0
 13 15  2  0
 15 16  1  0
 15 17  1  0
 17 18  1  0
 10 19  1  0
 19 20  1  0
 19 21  2  0
 21 22  1  0
 21 23  1  0
 23 24  2  0
  6 25  1  0
 25 26  1  0
 25 27  2  0
 27 28  1  0
 27  2  1  0
 23  7  1  0
 17 11  2  0
M  END
>  <cnnaffinity>  (1) 
-4.91468

>  <filename>  (1) 
O=c1ccc(-c2ccco2)cn1-c1cccnc1

$$$$
