
     RDKit          3D

 45 48  0  0  0  0  0  0  0  0999 V2000
    5.0858    1.7018   16.8524 H   0  0  0  0  0  0  0  0  0  0  0  0
    5.5128    1.2277   17.7319 C   0  0  0  0  0  0  0  0  0  0  0  0
    6.6319    0.5127   17.5318 N   0  0  0  0  0  0  0  0  0  0  0  0
    7.1760   -0.0806   18.5967 C   0  0  0  0  0  0  0  0  0  0  0  0
    8.0966   -0.6392   18.4154 H   0  0  0  0  0  0  0  0  0  0  0  0
    6.6573    0.0238   19.9061 C   0  0  0  0  0  0  0  0  0  0  0  0
    7.3058   -0.6683   21.0294 C   0  0  0  0  0  0  0  0  0  0  0  0
    7.5290   -0.1195   22.2862 C   0  0  0  0  0  0  0  0  0  0  0  0
    7.1913    1.2343   22.5619 N   0  0  0  0  0  0  0  0  0  0  0  0
    6.6215    1.6351   23.8529 C   0  0  0  0  0  0  0  0  0  0  0  0
    5.9256    0.8651   24.2026 H   0  0  0  0  0  0  0  0  0  0  0  0
    7.3987    1.7669   24.6242 H   0  0  0  0  0  0  0  0  0  0  0  0
    5.8960    2.9861   23.6884 C   0  0  0  0  0  0  0  0  0  0  0  0
    5.0754    2.8492   22.9576 H   0  0  0  0  0  0  0  0  0  0  0  0
    5.4457    3.3017   24.6363 H   0  0  0  0  0  0  0  0  0  0  0  0
    6.8606    3.9985   23.2365 N   0  0  0  0  0  0  0  0  0  0  0  0
    6.5341    5.3843   23.3372 C   0  0  0  0  0  0  0  0  0  0  0  0
    7.5893    6.2795   23.5865 C   0  0  0  0  0  0  0  0  0  0  0  0
    8.5755    5.8557   23.7547 H   0  0  0  0  0  0  0  0  0  0  0  0
    7.3596    7.6598   23.6201 C   0  0  0  0  0  0  0  0  0  0  0  0
    8.1794    8.3485   23.8134 H   0  0  0  0  0  0  0  0  0  0  0  0
    6.0640    8.1536   23.4140 C   0  0  0  0  0  0  0  0  0  0  0  0
    5.8734    9.2238   23.4272 H   0  0  0  0  0  0  0  0  0  0  0  0
    5.0031    7.2662   23.2001 C   0  0  0  0  0  0  0  0  0  0  0  0
    3.9909    7.6441   23.0658 H   0  0  0  0  0  0  0  0  0  0  0  0
    5.2356    5.8860   23.1614 C   0  0  0  0  0  0  0  0  0  0  0  0
    4.4258    5.1812   22.9926 H   0  0  0  0  0  0  0  0  0  0  0  0
    7.4130    3.6020   21.9290 C   0  0  0  0  0  0  0  0  0  0  0  0
    6.6103    3.5168   21.1677 H   0  0  0  0  0  0  0  0  0  0  0  0
    8.1235    4.3664   21.5883 H   0  0  0  0  0  0  0  0  0  0  0  0
    8.1178    2.2484   22.0366 C   0  0  0  0  0  0  0  0  0  0  0  0
    9.0080    2.3453   22.6833 H   0  0  0  0  0  0  0  0  0  0  0  0
    8.4568    1.9384   21.0432 H   0  0  0  0  0  0  0  0  0  0  0  0
    8.1806   -0.9456   23.2684 C   0  0  0  0  0  0  0  0  0  0  0  0
    8.4026   -0.4994   24.2401 H   0  0  0  0  0  0  0  0  0  0  0  0
    8.5378   -2.2398   22.9906 C   0  0  0  0  0  0  0  0  0  0  0  0
    9.0306   -2.8927   23.6948 H   0  0  0  0  0  0  0  0  0  0  0  0
    8.2626   -2.8324   21.6901 C   0  0  0  0  0  0  0  0  0  0  0  0
    8.4597   -3.9843   21.3448 O   0  0  0  0  0  0  0  0  0  0  0  0
    7.7177   -1.9555   20.7741 N   0  0  0  0  0  0  0  0  0  0  0  0
    7.5255   -2.4317   19.9071 H   0  0  0  0  0  0  0  0  0  0  0  0
    5.4948    0.7856   20.0947 C   0  0  0  0  0  0  0  0  0  0  0  0
    5.0624    0.8844   21.0919 H   0  0  0  0  0  0  0  0  0  0  0  0
    4.9094    1.3840   18.9832 C   0  0  0  0  0  0  0  0  0  0  0  0
    4.0100    1.9787   19.0803 H   0  0  0  0  0  0  0  0  0  0  0  0
  1  2  1  0
  2  3  2  0
  3  4  1  0
  4  5  1  0
  4  6  2  0
  6  7  1  0
  7  8  2  0
  8  9  1  0
  9 10  1  0
 10 11  1  0
 10 12  1  0
 10 13  1  0
 13 14  1  0
 13 15  1  0
 13 16  1  0
 16 17  1  0
 17 18  2  0
 18 19  1  0
 18 20  1  0
 20 21  1  0
 20 22  2  0
 22 23  1  0
 22 24  1  0
 24 25  1  0
 24 26  2  0
 26 27  1  0
 16 28  1  0
 28 29  1  0
 28 30  1  0
 28 31  1  0
 31 32  1  0
 31 33  1  0
  8 34  1  0
 34 35  1  0
 34 36  2  0
 36 37  1  0
 36 38  1  0
 38 39  2  0
 38 40  1  0
 40 41  1  0
  6 42  1  0
 42 43  1  0
 42 44  2  0
 44 45  1  0
 44  2  1  0
 40  7  1  0
 31  9  1  0
 26 17  1  0
M  END
>  <cnnaffinity>  (1) 
-5.63437

>  <filename>  (1) 
O=c1ccc(N2CCN(c3ccccc3)CC2)c(-c2cccnc2)[nH]1

$$$$
