
     RDKit          3D

 27 29  0  0  0  0  0  0  0  0999 V2000
    4.9935    1.8346   17.0383 H   0  0  0  0  0  0  0  0  0  0  0  0
    5.4394    1.2913   17.8684 C   0  0  0  0  0  0  0  0  0  0  0  0
    6.5828    0.6391   17.6038 N   0  0  0  0  0  0  0  0  0  0  0  0
    7.1642   -0.0219   18.6108 C   0  0  0  0  0  0  0  0  0  0  0  0
    8.0880   -0.5508   18.3815 H   0  0  0  0  0  0  0  0  0  0  0  0
    6.6390   -0.0808   19.9131 C   0  0  0  0  0  0  0  0  0  0  0  0
    7.3215   -0.7894   20.9489 N   0  0  0  0  0  0  0  0  0  0  0  0
    6.5522   -1.5802   21.7470 N   0  0  0  0  0  0  0  0  0  0  0  0
    7.1307   -2.2254   22.7366 C   0  0  0  0  0  0  0  0  0  0  0  0
    6.2598   -3.0577   23.5737 C   0  0  0  0  0  0  0  0  0  0  0  0
    6.8065   -3.7071   25.0964 S   0  0  0  0  0  0  0  0  0  0  0  0
    5.2380   -4.3007   25.4225 C   0  0  0  0  0  0  0  0  0  0  0  0
    4.9532   -5.1309   26.8995 Cl  0  0  0  0  0  0  0  0  0  0  0  0
    4.3455   -4.0665   24.4163 C   0  0  0  0  0  0  0  0  0  0  0  0
    3.2931   -4.3100   24.4852 H   0  0  0  0  0  0  0  0  0  0  0  0
    4.9481   -3.3696   23.3331 C   0  0  0  0  0  0  0  0  0  0  0  0
    4.4731   -3.0944   22.3943 H   0  0  0  0  0  0  0  0  0  0  0  0
    8.6048   -2.1331   23.0480 C   0  0  0  0  0  0  0  0  0  0  0  0
    9.1594   -2.7033   23.9865 O   0  0  0  0  0  0  0  0  0  0  0  0
    9.3393   -1.2910   22.1221 C   0  0  0  0  0  0  0  0  0  0  0  0
   10.4046   -1.1992   22.2860 H   0  0  0  0  0  0  0  0  0  0  0  0
    8.6837   -0.6544   21.1371 C   0  0  0  0  0  0  0  0  0  0  0  0
    9.1911    0.0110   20.4399 H   0  0  0  0  0  0  0  0  0  0  0  0
    5.4297    0.5755   20.1756 C   0  0  0  0  0  0  0  0  0  0  0  0
    5.0086    0.5195   21.1804 H   0  0  0  0  0  0  0  0  0  0  0  0
    4.8296    1.2842   19.1300 C   0  0  0  0  0  0  0  0  0  0  0  0
    3.9075    1.8351   19.2774 H   0  0  0  0  0  0  0  0  0  0  0  0
  1  2  1  0
  2  3  2  0
  3  4  1  0
  4  5  1  0
  4  6  2  0
  6  7  1  0
  7  8  1  0
  8  9  2  0
  9 10  1  0
 10 11  1  0
 11 12  1  0
 12 13  1  0
 12 14  2  0
 14 15  1  0
 14 16  1  0
 16 17  1  0
  9 18  1  0
 18 19  2  0
 18 20  1  0
 20 21  1  0
 20 22  2  0
 22 23  1  0
  6 24  1  0
 24 25  1  0
 24 26  2  0
 26 27  1  0
 26  2  1  0
 22  7  1  0
 16 10  2  0
M  END
>  <cnnaffinity>  (1) 
-5.13619

>  <filename>  (1) 
O=c1ccn(-c2cccnc2)nc1-c1ccc(Cl)s1

$$$$
