
     RDKit          3D

 41 44  0  0  0  0  0  0  0  0999 V2000
    5.0402    1.8430   17.0861 H   0  0  0  0  0  0  0  0  0  0  0  0
    5.5286    1.2538   17.8596 C   0  0  0  0  0  0  0  0  0  0  0  0
    6.6409    0.5951   17.4931 N   0  0  0  0  0  0  0  0  0  0  0  0
    7.2669   -0.1293   18.4327 C   0  0  0  0  0  0  0  0  0  0  0  0
    8.1913   -0.6255   18.1343 H   0  0  0  0  0  0  0  0  0  0  0  0
    6.8251   -0.2612   19.7696 C   0  0  0  0  0  0  0  0  0  0  0  0
    7.6600   -0.9411   20.7254 N   0  0  0  0  0  0  0  0  0  0  0  0
    8.5603    0.0326   21.3845 C   0  0  0  0  0  0  0  0  0  0  0  0
    9.0299    0.6702   20.6266 H   0  0  0  0  0  0  0  0  0  0  0  0
    8.0107    0.7031   22.0708 H   0  0  0  0  0  0  0  0  0  0  0  0
    9.6280   -0.7137   22.1669 C   0  0  0  0  0  0  0  0  0  0  0  0
   10.2762   -0.0146   22.7014 H   0  0  0  0  0  0  0  0  0  0  0  0
   10.2471   -1.3020   21.4702 H   0  0  0  0  0  0  0  0  0  0  0  0
    9.0356   -1.5462   23.1507 O   0  0  0  0  0  0  0  0  0  0  0  0
    8.1614   -2.5026   22.5672 C   0  0  0  0  0  0  0  0  0  0  0  0
    8.7363   -3.1896   21.9263 H   0  0  0  0  0  0  0  0  0  0  0  0
    7.7310   -3.0766   23.3914 H   0  0  0  0  0  0  0  0  0  0  0  0
    7.0357   -1.8549   21.7288 C   0  0  2  0  0  0  0  0  0  0  0  0
    6.4035   -1.2911   22.4297 H   0  0  0  0  0  0  0  0  0  0  0  0
    6.1703   -2.9487   21.0517 C   0  0  0  0  0  0  0  0  0  0  0  0
    6.7535   -3.4913   20.3040 H   0  0  0  0  0  0  0  0  0  0  0  0
    5.3656   -2.4554   20.4942 H   0  0  0  0  0  0  0  0  0  0  0  0
    5.6093   -3.9658   21.9628 N   0  0  0  0  0  0  0  0  0  0  0  0
    5.7072   -5.3386   21.7290 C   0  0  0  0  0  0  0  0  0  0  0  0
    6.2842   -5.8396   20.7943 O   0  0  0  0  0  0  0  0  0  0  0  0
    4.9012   -6.0173   22.7965 C   0  0  0  0  0  0  0  0  0  0  0  0
    4.7278   -7.3558   23.1407 C   0  0  0  0  0  0  0  0  0  0  0  0
    5.4017   -8.1176   22.7652 H   0  0  0  0  0  0  0  0  0  0  0  0
    3.7017   -7.6668   24.0380 C   0  0  0  0  0  0  0  0  0  0  0  0
    3.4453   -8.7021   24.2376 H   0  0  0  0  0  0  0  0  0  0  0  0
    2.9695   -6.6472   24.6771 C   0  0  0  0  0  0  0  0  0  0  0  0
    2.1807   -6.9294   25.3656 H   0  0  0  0  0  0  0  0  0  0  0  0
    3.2817   -5.3009   24.4715 C   0  0  0  0  0  0  0  0  0  0  0  0
    2.7741   -4.5119   25.0287 H   0  0  0  0  0  0  0  0  0  0  0  0
    4.2771   -5.0216   23.5350 C   0  0  0  0  0  0  0  0  0  0  0  0
    4.9942   -3.7652   23.1975 C   0  0  0  0  0  0  0  0  0  0  0  0
    5.1822   -2.8233   23.9268 O   0  0  0  0  0  0  0  0  0  0  0  0
    5.6510    0.4236   20.1223 C   0  0  0  0  0  0  0  0  0  0  0  0
    5.2850    0.3712   21.1491 H   0  0  0  0  0  0  0  0  0  0  0  0
    4.9966    1.1947   19.1521 C   0  0  0  0  0  0  0  0  0  0  0  0
    4.1034    1.7594   19.3945 H   0  0  0  0  0  0  0  0  0  0  0  0
  1  2  1  0
  2  3  2  0
  3  4  1  0
  4  5  1  0
  4  6  2  0
  6  7  1  0
  7  8  1  0
  8  9  1  0
  8 10  1  0
  8 11  1  0
 11 12  1  0
 11 13  1  0
 11 14  1  0
 14 15  1  0
 15 16  1  0
 15 17  1  0
 15 18  1  0
 18 19  1  1
 18 20  1  0
 20 21  1  0
 20 22  1  0
 20 23  1  0
 23 24  1  0
 24 25  2  0
 24 26  1  0
 26 27  2  0
 27 28  1  0
 27 29  1  0
 29 30  1  0
 29 31  2  0
 31 32  1  0
 31 33  1  0
 33 34  1  0
 33 35  2  0
 35 36  1  0
 36 37  2  0
  6 38  1  0
 38 39  1  0
 38 40  2  0
 40 41  1  0
 40  2  1  0
 18  7  1  0
 36 23  1  0
 35 26  1  0
M  END
>  <cnnaffinity>  (1) 
-4.86273

>  <filename>  (1) 
O=C1c2ccccc2C(=O)N1C[C@H]1COCCN1c1cccnc1

$$$$
