
     RDKit          3D

 29 31  0  0  0  0  0  0  0  0999 V2000
    5.0283    1.8634   16.9431 H   0  0  0  0  0  0  0  0  0  0  0  0
    5.4955    1.3279   17.7658 C   0  0  0  0  0  0  0  0  0  0  0  0
    6.6722    0.7369   17.4933 N   0  0  0  0  0  0  0  0  0  0  0  0
    7.2766    0.0706   18.4828 C   0  0  0  0  0  0  0  0  0  0  0  0
    8.2387   -0.3873   18.2511 H   0  0  0  0  0  0  0  0  0  0  0  0
    6.7216   -0.0761   19.7728 C   0  0  0  0  0  0  0  0  0  0  0  0
    7.3753   -0.8472   20.7697 N   0  0  0  0  0  0  0  0  0  0  0  0
    6.8333   -1.8010   21.6629 C   0  0  0  0  0  0  0  0  0  0  0  0
    5.7028   -2.2460   21.6013 O   0  0  0  0  0  0  0  0  0  0  0  0
    7.9578   -2.1041   22.5837 C   0  0  0  0  0  0  0  0  0  0  0  0
    7.8671   -2.9249   23.8040 C   0  0  0  0  0  0  0  0  0  0  0  0
    6.6878   -2.9268   24.5692 C   0  0  0  0  0  0  0  0  0  0  0  0
    5.8504   -2.3214   24.2363 H   0  0  0  0  0  0  0  0  0  0  0  0
    6.5886   -3.7011   25.7215 C   0  0  0  0  0  0  0  0  0  0  0  0
    5.6866   -3.6996   26.3240 H   0  0  0  0  0  0  0  0  0  0  0  0
    7.6558   -4.5148   26.1200 C   0  0  0  0  0  0  0  0  0  0  0  0
    7.4705   -5.4978   27.5298 Cl  0  0  0  0  0  0  0  0  0  0  0  0
    8.8445   -4.5179   25.3691 C   0  0  0  0  0  0  0  0  0  0  0  0
   10.1942   -5.5117   25.8081 Cl  0  0  0  0  0  0  0  0  0  0  0  0
    8.9507   -3.7109   24.2324 C   0  0  0  0  0  0  0  0  0  0  0  0
    9.8836   -3.7160   23.6752 H   0  0  0  0  0  0  0  0  0  0  0  0
    9.0393   -1.4438   22.1025 C   0  0  0  0  0  0  0  0  0  0  0  0
   10.0354   -1.3954   22.5254 H   0  0  0  0  0  0  0  0  0  0  0  0
    8.7646   -0.7650   20.9169 N   0  0  0  0  0  0  0  0  0  0  0  0
    9.1148    0.1833   20.7983 H   0  0  0  0  0  0  0  0  0  0  0  0
    5.5047    0.5674   20.0516 C   0  0  0  0  0  0  0  0  0  0  0  0
    5.0822    0.5220   21.0537 H   0  0  0  0  0  0  0  0  0  0  0  0
    4.8840    1.2820   19.0225 C   0  0  0  0  0  0  0  0  0  0  0  0
    3.9522    1.8142   19.1861 H   0  0  0  0  0  0  0  0  0  0  0  0
  1  2  1  0
  2  3  2  0
  3  4  1  0
  4  5  1  0
  4  6  2  0
  6  7  1  0
  7  8  1  0
  8  9  2  0
  8 10  1  0
 10 11  1  0
 11 12  2  0
 12 13  1  0
 12 14  1  0
 14 15  1  0
 14 16  2  0
 16 17  1  0
 16 18  1  0
 18 19  1  0
 18 20  2  0
 20 21  1  0
 10 22  2  0
 22 23  1  0
 22 24  1  0
 24 25  1  0
  6 26  1  0
 26 27  1  0
 26 28  2  0
 28 29  1  0
 28  2  1  0
 24  7  1  0
 20 11  1  0
M  END
>  <cnnaffinity>  (1) 
-5.64294

>  <filename>  (1) 
O=c1c(-c2ccc(Cl)c(Cl)c2)c[nH]n1-c1cccnc1

$$$$
