
     RDKit          3D

 35 37  0  0  0  0  0  0  0  0999 V2000
    9.1415    0.3569   23.6385 H   0  0  0  0  0  0  0  0  0  0  0  0
    8.6756   -0.3103   22.9248 C   0  0  0  0  0  0  0  0  0  0  0  0
    9.0717   -1.5794   22.7802 C   0  0  0  0  0  0  0  0  0  0  0  0
   10.1851   -2.2342   23.5598 C   0  0  0  0  0  0  0  0  0  0  0  0
   10.8846   -1.4509   23.8658 H   0  0  0  0  0  0  0  0  0  0  0  0
   10.7388   -2.9156   22.9058 H   0  0  0  0  0  0  0  0  0  0  0  0
    9.6379   -2.9262   24.7931 C   0  0  0  0  0  0  0  0  0  0  0  0
    9.0902   -2.1342   25.8155 C   0  0  0  0  0  0  0  0  0  0  0  0
    9.1263   -1.0490   25.7359 H   0  0  0  0  0  0  0  0  0  0  0  0
    8.4680   -2.7172   26.9128 C   0  0  0  0  0  0  0  0  0  0  0  0
    8.0401   -2.0986   27.6929 H   0  0  0  0  0  0  0  0  0  0  0  0
    8.3842   -4.1118   27.0095 C   0  0  0  0  0  0  0  0  0  0  0  0
    7.4984   -4.8069   28.3234 Cl  0  0  0  0  0  0  0  0  0  0  0  0
    8.9754   -4.9107   26.0198 C   0  0  0  0  0  0  0  0  0  0  0  0
    9.0078   -6.6347   26.1474 Cl  0  0  0  0  0  0  0  0  0  0  0  0
    9.5746   -4.3160   24.9026 C   0  0  0  0  0  0  0  0  0  0  0  0
    9.9714   -4.9644   24.1259 H   0  0  0  0  0  0  0  0  0  0  0  0
    8.3558   -2.4156   21.9274 N   0  0  0  0  0  0  0  0  0  0  0  0
    8.3148   -3.4111   22.0400 H   0  0  0  0  0  0  0  0  0  0  0  0
    7.2728   -2.0254   21.1657 C   0  0  0  0  0  0  0  0  0  0  0  0
    6.5723   -2.8700   20.6475 O   0  0  0  0  0  0  0  0  0  0  0  0
    7.1447   -0.6427   21.0489 N   0  0  0  0  0  0  0  0  0  0  0  0
    6.5323   -0.0251   19.9106 C   0  0  0  0  0  0  0  0  0  0  0  0
    7.1431   -0.0048   18.6340 C   0  0  0  0  0  0  0  0  0  0  0  0
    8.0877   -0.5277   18.4997 H   0  0  0  0  0  0  0  0  0  0  0  0
    6.6374    0.6413   17.5712 N   0  0  0  0  0  0  0  0  0  0  0  0
    5.4737    1.2916   17.7419 C   0  0  0  0  0  0  0  0  0  0  0  0
    5.0922    1.8212   16.8695 H   0  0  0  0  0  0  0  0  0  0  0  0
    4.7790    1.3275   18.9602 C   0  0  0  0  0  0  0  0  0  0  0  0
    3.8722    1.9196   19.0451 H   0  0  0  0  0  0  0  0  0  0  0  0
    5.3225    0.6608   20.0669 C   0  0  0  0  0  0  0  0  0  0  0  0
    4.8356    0.6758   21.0456 H   0  0  0  0  0  0  0  0  0  0  0  0
    7.4597    0.2096   22.2128 C   0  0  0  0  0  0  0  0  0  0  0  0
    6.6011    0.2555   22.9168 H   0  0  0  0  0  0  0  0  0  0  0  0
    7.6330    1.2377   21.8596 H   0  0  0  0  0  0  0  0  0  0  0  0
  1  2  1  0
  2  3  2  0
  3  4  1  0
  4  5  1  0
  4  6  1  0
  4  7  1  0
  7  8  2  0
  8  9  1  0
  8 10  1  0
 10 11  1  0
 10 12  2  0
 12 13  1  0
 12 14  1  0
 14 15  1  0
 14 16  2  0
 16 17  1  0
  3 18  1  0
 18 19  1  0
 18 20  1  0
 20 21  2  0
 20 22  1  0
 22 23  1  0
 23 24  2  0
 24 25  1  0
 24 26  1  0
 26 27  2  0
 27 28  1  0
 27 29  1  0
 29 30  1  0
 29 31  2  0
 31 32  1  0
 22 33  1  0
 33 34  1  0
 33 35  1  0
 33  2  1  0
 16  7  1  0
 31 23  1  0
M  END
>  <cnnaffinity>  (1) 
-5.34057

>  <filename>  (1) 
O=C1NC(Cc2ccc(Cl)c(Cl)c2)=CCN1c1cccnc1

$$$$
