
     RDKit          3D

 31 33  0  0  0  0  0  0  0  0999 V2000
    4.9663    1.9071   16.9283 H   0  0  0  0  0  0  0  0  0  0  0  0
    5.3963    1.3581   17.7642 C   0  0  0  0  0  0  0  0  0  0  0  0
    6.5450    0.7095   17.5131 N   0  0  0  0  0  0  0  0  0  0  0  0
    7.1080    0.0318   18.5204 C   0  0  0  0  0  0  0  0  0  0  0  0
    8.0594   -0.4580   18.3125 H   0  0  0  0  0  0  0  0  0  0  0  0
    6.5395   -0.0675   19.8051 C   0  0  0  0  0  0  0  0  0  0  0  0
    7.2134   -0.7819   20.8617 N   0  0  0  0  0  0  0  0  0  0  0  0
    8.4657   -0.3343   21.2290 C   0  0  0  0  0  0  0  0  0  0  0  0
    8.8255    0.5230   20.6639 H   0  0  0  0  0  0  0  0  0  0  0  0
    9.2004   -0.9071   22.2277 C   0  0  0  0  0  0  0  0  0  0  0  0
   10.5718   -0.4022   22.5165 C   0  0  0  0  0  0  0  0  0  0  0  0
   10.8047    0.9679   22.7211 C   0  0  0  0  0  0  0  0  0  0  0  0
    9.9511    1.6370   22.8056 H   0  0  0  0  0  0  0  0  0  0  0  0
   12.1057    1.4704   22.8191 C   0  0  0  0  0  0  0  0  0  0  0  0
   12.2929    2.5299   22.9500 H   0  0  0  0  0  0  0  0  0  0  0  0
   13.1825    0.5888   22.6865 C   0  0  0  0  0  0  0  0  0  0  0  0
   14.8011    1.1918   22.7054 Cl  0  0  0  0  0  0  0  0  0  0  0  0
   12.9856   -0.7802   22.5113 C   0  0  0  0  0  0  0  0  0  0  0  0
   13.8458   -1.4393   22.4121 H   0  0  0  0  0  0  0  0  0  0  0  0
   11.6784   -1.2672   22.4483 C   0  0  0  0  0  0  0  0  0  0  0  0
   11.5284   -2.3322   22.2929 H   0  0  0  0  0  0  0  0  0  0  0  0
    8.6268   -2.0037   22.9448 C   0  0  0  0  0  0  0  0  0  0  0  0
    9.1959   -2.4480   23.7613 H   0  0  0  0  0  0  0  0  0  0  0  0
    7.3764   -2.4452   22.6344 C   0  0  0  0  0  0  0  0  0  0  0  0
    6.8874   -3.2505   23.1568 H   0  0  0  0  0  0  0  0  0  0  0  0
    6.5837   -1.8800   21.5504 C   0  0  0  0  0  0  0  0  0  0  0  0
    5.4961   -2.3263   21.2379 O   0  0  0  0  0  0  0  0  0  0  0  0
    5.3453    0.6133   20.0573 C   0  0  0  0  0  0  0  0  0  0  0  0
    4.9116    0.5773   21.0562 H   0  0  0  0  0  0  0  0  0  0  0  0
    4.7678    1.3456   19.0138 C   0  0  0  0  0  0  0  0  0  0  0  0
    3.8538    1.9104   19.1573 H   0  0  0  0  0  0  0  0  0  0  0  0
  1  2  1  0
  2  3  2  0
  3  4  1  0
  4  5  1  0
  4  6  2  0
  6  7  1  0
  7  8  1  0
  8  9  1  0
  8 10  2  0
 10 11  1  0
 11 12  2  0
 12 13  1  0
 12 14  1  0
 14 15  1  0
 14 16  2  0
 16 17  1  0
 16 18  1  0
 18 19  1  0
 18 20  2  0
 20 21  1  0
 10 22  1  0
 22 23  1  0
 22 24  2  0
 24 25  1  0
 24 26  1  0
 26 27  2  0
  6 28  1  0
 28 29  1  0
 28 30  2  0
 30 31  1  0
 30  2  1  0
 26  7  1  0
 20 11  1  0
M  END
>  <cnnaffinity>  (1) 
-5.10149

>  <filename>  (1) 
O=c1ccc(-c2ccc(Cl)cc2)cn1-c1cccnc1

$$$$
