
     RDKit          3D

 31 33  0  0  0  0  0  0  0  0999 V2000
    4.9053    1.8365   16.9459 H   0  0  0  0  0  0  0  0  0  0  0  0
    5.3861    1.3361   17.7851 C   0  0  0  0  0  0  0  0  0  0  0  0
    6.5509    0.7279   17.5127 N   0  0  0  0  0  0  0  0  0  0  0  0
    7.1732    0.1116   18.5251 C   0  0  0  0  0  0  0  0  0  0  0  0
    8.1152   -0.3724   18.2702 H   0  0  0  0  0  0  0  0  0  0  0  0
    6.6697    0.0243   19.8467 C   0  0  0  0  0  0  0  0  0  0  0  0
    7.4023   -0.7001   20.9364 C   0  0  0  0  0  0  0  0  0  0  0  0
    8.7087   -0.4350   21.1861 C   0  0  0  0  0  0  0  0  0  0  0  0
    9.2778    0.2999   20.6166 H   0  0  0  0  0  0  0  0  0  0  0  0
    9.4218   -1.0590   22.2103 N   0  0  0  0  0  0  0  0  0  0  0  0
   10.8078   -0.7327   22.4150 C   0  0  0  0  0  0  0  0  0  0  0  0
   11.7731   -1.6803   22.0607 C   0  0  0  0  0  0  0  0  0  0  0  0
   11.4154   -2.6359   21.7061 H   0  0  0  0  0  0  0  0  0  0  0  0
   13.1331   -1.3968   22.1862 C   0  0  0  0  0  0  0  0  0  0  0  0
   13.8738   -2.1403   21.8992 H   0  0  0  0  0  0  0  0  0  0  0  0
   13.5335   -0.1699   22.7176 C   0  0  0  0  0  0  0  0  0  0  0  0
   14.5798    0.0732   22.8746 H   0  0  0  0  0  0  0  0  0  0  0  0
   12.5795    0.7813   23.0885 C   0  0  0  0  0  0  0  0  0  0  0  0
   13.1451    2.2936   23.7075 Cl  0  0  0  0  0  0  0  0  0  0  0  0
   11.2064    0.5116   22.9446 C   0  0  0  0  0  0  0  0  0  0  0  0
   10.0248    1.6737   23.4343 Cl  0  0  0  0  0  0  0  0  0  0  0  0
    8.8169   -2.0104   23.0530 C   0  0  0  0  0  0  0  0  0  0  0  0
    9.3806   -2.6245   23.9267 O   0  0  0  0  0  0  0  0  0  0  0  0
    7.4960   -2.2044   22.8156 N   0  0  0  0  0  0  0  0  0  0  0  0
    7.0728   -2.9327   23.3550 H   0  0  0  0  0  0  0  0  0  0  0  0
    6.7327   -1.7500   21.7587 C   0  0  0  0  0  0  0  0  0  0  0  0
    5.6493   -2.2679   21.5930 O   0  0  0  0  0  0  0  0  0  0  0  0
    5.4389    0.6603   20.0937 C   0  0  0  0  0  0  0  0  0  0  0  0
    5.0112    0.6117   21.0934 H   0  0  0  0  0  0  0  0  0  0  0  0
    4.7930    1.3365   19.0510 C   0  0  0  0  0  0  0  0  0  0  0  0
    3.8506    1.8580   19.1987 H   0  0  0  0  0  0  0  0  0  0  0  0
  1  2  1  0
  2  3  2  0
  3  4  1  0
  4  5  1  0
  4  6  2  0
  6  7  1  0
  7  8  2  0
  8  9  1  0
  8 10  1  0
 10 11  1  0
 11 12  2  0
 12 13  1  0
 12 14  1  0
 14 15  1  0
 14 16  2  0
 16 17  1  0
 16 18  1  0
 18 19  1  0
 18 20  2  0
 20 21  1  0
 10 22  1  0
 22 23  2  0
 22 24  1  0
 24 25  1  0
 24 26  1  0
 26 27  2  0
  6 28  1  0
 28 29  1  0
 28 30  2  0
 30 31  1  0
 30  2  1  0
 26  7  1  0
 20 11  1  0
M  END
>  <cnnaffinity>  (1) 
-5.37332

>  <filename>  (1) 
O=c1[nH]c(=O)n(-c2cccc(Cl)c2Cl)cc1-c1cccnc1

$$$$
