
     RDKit          3D

 33 35  0  0  0  0  0  0  0  0999 V2000
    7.0306    5.9639   22.9680 H   0  0  0  0  0  0  0  0  0  0  0  0
    6.5312    5.4024   23.5892 O   0  0  0  0  0  0  0  0  0  0  0  0
    6.8262    4.1251   23.2322 C   0  0  0  0  0  0  0  0  0  0  0  0
    6.3635    3.0581   24.0073 C   0  0  0  0  0  0  0  0  0  0  0  0
    5.7300    3.2554   24.8679 H   0  0  0  0  0  0  0  0  0  0  0  0
    6.7039    1.7540   23.6466 C   0  0  0  0  0  0  0  0  0  0  0  0
    6.3549    0.9274   24.2589 H   0  0  0  0  0  0  0  0  0  0  0  0
    7.4738    1.4743   22.5093 C   0  0  0  0  0  0  0  0  0  0  0  0
    7.7665    0.0461   22.1812 C   0  0  0  0  0  0  0  0  0  0  0  0
    8.3707   -0.7904   23.1866 C   0  0  0  0  0  0  0  0  0  0  0  0
    8.6147   -0.3367   24.1466 H   0  0  0  0  0  0  0  0  0  0  0  0
    8.6278   -2.1076   22.9693 C   0  0  0  0  0  0  0  0  0  0  0  0
    9.0577   -2.7667   23.7108 H   0  0  0  0  0  0  0  0  0  0  0  0
    8.2816   -2.7348   21.7021 C   0  0  0  0  0  0  0  0  0  0  0  0
    8.3781   -3.9207   21.4365 O   0  0  0  0  0  0  0  0  0  0  0  0
    7.8016   -1.8592   20.7440 N   0  0  0  0  0  0  0  0  0  0  0  0
    7.4827   -2.3593   19.9261 H   0  0  0  0  0  0  0  0  0  0  0  0
    7.4322   -0.5505   20.9753 C   0  0  0  0  0  0  0  0  0  0  0  0
    6.6626    0.0668   19.8895 C   0  0  0  0  0  0  0  0  0  0  0  0
    7.1460    0.0260   18.5669 C   0  0  0  0  0  0  0  0  0  0  0  0
    8.0764   -0.4972   18.3438 H   0  0  0  0  0  0  0  0  0  0  0  0
    6.5543    0.6356   17.5375 N   0  0  0  0  0  0  0  0  0  0  0  0
    5.4046    1.2863   17.7850 C   0  0  0  0  0  0  0  0  0  0  0  0
    4.9465    1.7905   16.9360 H   0  0  0  0  0  0  0  0  0  0  0  0
    4.7999    1.3296   19.0459 C   0  0  0  0  0  0  0  0  0  0  0  0
    3.8554    1.8475   19.1680 H   0  0  0  0  0  0  0  0  0  0  0  0
    5.4392    0.7155   20.1220 C   0  0  0  0  0  0  0  0  0  0  0  0
    5.0075    0.7242   21.1258 H   0  0  0  0  0  0  0  0  0  0  0  0
    7.9107    2.5565   21.7165 C   0  0  0  0  0  0  0  0  0  0  0  0
    8.5210    2.3856   20.8363 H   0  0  0  0  0  0  0  0  0  0  0  0
    7.5996    3.8643   22.0778 C   0  0  0  0  0  0  0  0  0  0  0  0
    8.0190    4.9704   21.3417 O   0  0  0  0  0  0  0  0  0  0  0  0
    7.5939    4.9280   20.4739 H   0  0  0  0  0  0  0  0  0  0  0  0
  1  2  1  0
  2  3  1  0
  3  4  2  0
  4  5  1  0
  4  6  1  0
  6  7  1  0
  6  8  2  0
  8  9  1  0
  9 10  1  0
 10 11  1  0
 10 12  2  0
 12 13  1  0
 12 14  1  0
 14 15  2  0
 14 16  1  0
 16 17  1  0
 16 18  1  0
 18 19  1  0
 19 20  2  0
 20 21  1  0
 20 22  1  0
 22 23  2  0
 23 24  1  0
 23 25  1  0
 25 26  1  0
 25 27  2  0
 27 28  1  0
  8 29  1  0
 29 30  1  0
 29 31  2  0
 31 32  1  0
 32 33  1  0
 31  3  1  0
 18  9  2  0
 27 19  1  0
M  END
>  <cnnaffinity>  (1) 
-5.14213

>  <filename>  (1) 
O=c1ccc(-c2ccc(O)c(O)c2)c(-c2cccnc2)[nH]1

$$$$
