
     RDKit          3D

 36 39  0  0  0  0  0  0  0  0999 V2000
    4.9385    1.8509   16.9408 H   0  0  0  0  0  0  0  0  0  0  0  0
    5.3865    1.3353   17.7927 C   0  0  0  0  0  0  0  0  0  0  0  0
    6.5523    0.7151   17.5660 N   0  0  0  0  0  0  0  0  0  0  0  0
    7.1351    0.0992   18.6024 C   0  0  0  0  0  0  0  0  0  0  0  0
    8.0856   -0.3773   18.3882 H   0  0  0  0  0  0  0  0  0  0  0  0
    6.6111    0.0369   19.9090 C   0  0  0  0  0  0  0  0  0  0  0  0
    7.3602   -0.7196   21.0072 C   0  0  2  0  0  0  0  0  0  0  0  0
    7.0375   -0.3167   21.9831 H   0  0  0  0  0  0  0  0  0  0  0  0
    8.8032   -0.6390   20.8499 N   0  0  0  0  0  0  0  0  0  0  0  0
    9.3263    0.1609   21.1646 H   0  0  0  0  0  0  0  0  0  0  0  0
    9.4223   -1.8088   21.2092 C   0  0  0  0  0  0  0  0  0  0  0  0
   10.5794   -1.9541   21.4849 O   0  0  0  0  0  0  0  0  0  0  0  0
    8.5108   -2.8059   21.2397 O   0  0  0  0  0  0  0  0  0  0  0  0
    7.1988   -2.2844   21.0072 C   0  0  1  0  0  0  0  0  0  0  0  0
    6.9140   -2.5830   19.9938 H   0  0  0  0  0  0  0  0  0  0  0  0
    6.2233   -2.9148   21.9845 C   0  0  0  0  0  0  0  0  0  0  0  0
    5.0900   -3.4948   21.4531 C   0  0  0  0  0  0  0  0  0  0  0  0
    4.9772   -3.4541   20.3728 H   0  0  0  0  0  0  0  0  0  0  0  0
    4.1092   -4.1074   22.2741 C   0  0  0  0  0  0  0  0  0  0  0  0
    3.2082   -4.5591   21.8756 H   0  0  0  0  0  0  0  0  0  0  0  0
    4.2625   -4.1233   23.6327 C   0  0  0  0  0  0  0  0  0  0  0  0
    3.4868   -4.5460   24.2644 H   0  0  0  0  0  0  0  0  0  0  0  0
    5.4298   -3.5803   24.2361 C   0  0  0  0  0  0  0  0  0  0  0  0
    5.5984   -3.6362   25.6536 C   0  0  0  0  0  0  0  0  0  0  0  0
    4.8081   -4.0843   26.2536 H   0  0  0  0  0  0  0  0  0  0  0  0
    6.7279   -3.1272   26.2433 C   0  0  0  0  0  0  0  0  0  0  0  0
    6.8463   -3.1708   27.3256 H   0  0  0  0  0  0  0  0  0  0  0  0
    7.7350   -2.5345   25.4362 C   0  0  0  0  0  0  0  0  0  0  0  0
    8.6186   -2.1271   25.9171 H   0  0  0  0  0  0  0  0  0  0  0  0
    7.6048   -2.4563   24.0660 C   0  0  0  0  0  0  0  0  0  0  0  0
    8.3979   -1.9954   23.4880 H   0  0  0  0  0  0  0  0  0  0  0  0
    6.4385   -2.9733   23.4091 C   0  0  0  0  0  0  0  0  0  0  0  0
    5.3821    0.6934   20.1192 C   0  0  0  0  0  0  0  0  0  0  0  0
    4.9090    0.7302   21.1045 H   0  0  0  0  0  0  0  0  0  0  0  0
    4.7599    1.3437   19.0435 C   0  0  0  0  0  0  0  0  0  0  0  0
    3.8198    1.8792   19.1542 H   0  0  0  0  0  0  0  0  0  0  0  0
  1  2  1  0
  2  3  2  0
  3  4  1  0
  4  5  1  0
  4  6  2  0
  6  7  1  0
  7  8  1  1
  7  9  1  0
  9 10  1  0
  9 11  1  0
 11 12  2  0
 11 13  1  0
 13 14  1  0
 14 15  1  6
 14 16  1  0
 16 17  2  0
 17 18  1  0
 17 19  1  0
 19 20  1  0
 19 21  2  0
 21 22  1  0
 21 23  1  0
 23 24  2  0
 24 25  1  0
 24 26  1  0
 26 27  1  0
 26 28  2  0
 28 29  1  0
 28 30  1  0
 30 31  1  0
 30 32  2  0
  6 33  1  0
 33 34  1  0
 33 35  2  0
 35 36  1  0
 35  2  1  0
 14  7  1  0
 32 16  1  0
 32 23  1  0
M  END
>  <cnnaffinity>  (1) 
-5.19619

>  <filename>  (1) 
O=C1N[C@@H](c2cccnc2)[C@H](c2cccc3ccccc23)O1

$$$$
