
     RDKit          3D

 32 34  0  0  0  0  0  0  0  0999 V2000
    4.8904    1.8554   17.0010 H   0  0  0  0  0  0  0  0  0  0  0  0
    5.4180    1.3230   17.7887 C   0  0  0  0  0  0  0  0  0  0  0  0
    6.5777    0.7442   17.4396 N   0  0  0  0  0  0  0  0  0  0  0  0
    7.2623    0.0937   18.3890 C   0  0  0  0  0  0  0  0  0  0  0  0
    8.2107   -0.3493   18.0949 H   0  0  0  0  0  0  0  0  0  0  0  0
    6.8094   -0.0365   19.7242 C   0  0  0  0  0  0  0  0  0  0  0  0
    7.5178   -0.7760   20.7418 N   0  0  0  0  0  0  0  0  0  0  0  0
    8.8323   -0.5934   21.1587 C   0  0  0  0  0  0  0  0  0  0  0  0
    9.6554    0.1139   20.6466 O   0  0  0  0  0  0  0  0  0  0  0  0
    8.9672   -1.4857   22.4186 C   0  0  0  0  0  0  0  0  0  0  0  0
    9.9408   -1.7868   23.0619 O   0  0  0  0  0  0  0  0  0  0  0  0
    7.6901   -1.9015   22.6918 N   0  0  0  0  0  0  0  0  0  0  0  0
    7.3099   -2.8182   23.7676 C   0  0  0  0  0  0  0  0  0  0  0  0
    8.0594   -2.7150   24.5573 H   0  0  0  0  0  0  0  0  0  0  0  0
    6.3469   -2.4953   24.1698 H   0  0  0  0  0  0  0  0  0  0  0  0
    7.2366   -4.2561   23.2913 C   0  0  0  0  0  0  0  0  0  0  0  0
    8.4287   -4.9477   23.0059 C   0  0  0  0  0  0  0  0  0  0  0  0
    9.3826   -4.4410   23.1645 H   0  0  0  0  0  0  0  0  0  0  0  0
    8.3856   -6.2642   22.5381 C   0  0  0  0  0  0  0  0  0  0  0  0
    9.3010   -6.8042   22.3298 H   0  0  0  0  0  0  0  0  0  0  0  0
    7.1577   -6.9020   22.3339 C   0  0  0  0  0  0  0  0  0  0  0  0
    7.1221   -7.9198   21.9551 H   0  0  0  0  0  0  0  0  0  0  0  0
    5.9666   -6.2376   22.6218 C   0  0  0  0  0  0  0  0  0  0  0  0
    5.0016   -6.7177   22.4936 H   0  0  0  0  0  0  0  0  0  0  0  0
    6.0137   -4.9265   23.1007 C   0  0  0  0  0  0  0  0  0  0  0  0
    4.4856   -4.1688   23.4660 Cl  0  0  0  0  0  0  0  0  0  0  0  0
    6.8791   -1.6725   21.6008 C   0  0  0  0  0  0  0  0  0  0  0  0
    5.8032   -2.1735   21.4277 O   0  0  0  0  0  0  0  0  0  0  0  0
    5.5910    0.5576   20.0652 C   0  0  0  0  0  0  0  0  0  0  0  0
    5.2062    0.4532   21.0787 H   0  0  0  0  0  0  0  0  0  0  0  0
    4.8911    1.2598   19.0808 C   0  0  0  0  0  0  0  0  0  0  0  0
    3.9506    1.7479   19.3020 H   0  0  0  0  0  0  0  0  0  0  0  0
  1  2  1  0
  2  3  2  0
  3  4  1  0
  4  5  1  0
  4  6  2  0
  6  7  1  0
  7  8  1  0
  8  9  2  0
  8 10  1  0
 10 11  2  0
 10 12  1  0
 12 13  1  0
 13 14  1  0
 13 15  1  0
 13 16  1  0
 16 17  2  0
 17 18  1  0
 17 19  1  0
 19 20  1  0
 19 21  2  0
 21 22  1  0
 21 23  1  0
 23 24  1  0
 23 25  2  0
 25 26  1  0
 12 27  1  0
 27 28  2  0
  6 29  1  0
 29 30  1  0
 29 31  2  0
 31 32  1  0
 31  2  1  0
 27  7  1  0
 25 16  1  0
M  END
>  <cnnaffinity>  (1) 
-5.10962

>  <filename>  (1) 
O=C1C(=O)N(c2cccnc2)C(=O)N1Cc1ccccc1Cl

$$$$
