
     RDKit          3D

 36 39  0  0  0  0  0  0  0  0999 V2000
    4.9172    1.7823   16.9935 H   0  0  0  0  0  0  0  0  0  0  0  0
    5.4015    1.2954   17.8373 C   0  0  0  0  0  0  0  0  0  0  0  0
    6.5646    0.6757   17.5766 N   0  0  0  0  0  0  0  0  0  0  0  0
    7.1750    0.0630   18.5977 C   0  0  0  0  0  0  0  0  0  0  0  0
    8.1142   -0.4372   18.3732 H   0  0  0  0  0  0  0  0  0  0  0  0
    6.6608    0.0076   19.9048 C   0  0  0  0  0  0  0  0  0  0  0  0
    7.3476   -0.6909   20.9491 N   0  0  0  0  0  0  0  0  0  0  0  0
    6.5608   -1.4259   21.7958 N   0  0  0  0  0  0  0  0  0  0  0  0
    7.1314   -2.0735   22.7846 C   0  0  0  0  0  0  0  0  0  0  0  0
    6.2356   -2.8514   23.6942 C   0  0  0  0  0  0  0  0  0  0  0  0
    6.4629   -2.8704   25.1167 C   0  0  0  0  0  0  0  0  0  0  0  0
    7.3078   -2.3226   25.5315 H   0  0  0  0  0  0  0  0  0  0  0  0
    5.6415   -3.5919   25.9399 C   0  0  0  0  0  0  0  0  0  0  0  0
    5.8017   -3.6046   27.0182 H   0  0  0  0  0  0  0  0  0  0  0  0
    4.5490   -4.3455   25.4101 C   0  0  0  0  0  0  0  0  0  0  0  0
    3.6643   -5.0954   26.2398 C   0  0  0  0  0  0  0  0  0  0  0  0
    3.8426   -5.0948   27.3158 H   0  0  0  0  0  0  0  0  0  0  0  0
    2.6150   -5.7977   25.6918 C   0  0  0  0  0  0  0  0  0  0  0  0
    1.9440   -6.3679   26.3304 H   0  0  0  0  0  0  0  0  0  0  0  0
    2.3954   -5.7859   24.2802 C   0  0  0  0  0  0  0  0  0  0  0  0
    1.5618   -6.3461   23.8643 H   0  0  0  0  0  0  0  0  0  0  0  0
    3.2303   -5.0763   23.4520 C   0  0  0  0  0  0  0  0  0  0  0  0
    3.0758   -5.0552   22.3722 H   0  0  0  0  0  0  0  0  0  0  0  0
    4.3294   -4.3425   23.9890 C   0  0  0  0  0  0  0  0  0  0  0  0
    5.2012   -3.5872   23.1586 C   0  0  0  0  0  0  0  0  0  0  0  0
    5.0426   -3.5702   22.0819 H   0  0  0  0  0  0  0  0  0  0  0  0
    8.6214   -2.0907   23.0231 C   0  0  0  0  0  0  0  0  0  0  0  0
    9.1848   -2.7250   23.9067 O   0  0  0  0  0  0  0  0  0  0  0  0
    9.3699   -1.2604   22.0855 C   0  0  0  0  0  0  0  0  0  0  0  0
   10.4437   -1.2205   22.2146 H   0  0  0  0  0  0  0  0  0  0  0  0
    8.7160   -0.6103   21.1063 C   0  0  0  0  0  0  0  0  0  0  0  0
    9.2301    0.0339   20.3924 H   0  0  0  0  0  0  0  0  0  0  0  0
    5.4403    0.6459   20.1662 C   0  0  0  0  0  0  0  0  0  0  0  0
    5.0292    0.6002   21.1763 H   0  0  0  0  0  0  0  0  0  0  0  0
    4.8123    1.3122   19.1090 C   0  0  0  0  0  0  0  0  0  0  0  0
    3.8775    1.8419   19.2615 H   0  0  0  0  0  0  0  0  0  0  0  0
  1  2  1  0
  2  3  2  0
  3  4  1  0
  4  5  1  0
  4  6  2  0
  6  7  1  0
  7  8  1  0
  8  9  2  0
  9 10  1  0
 10 11  2  0
 11 12  1  0
 11 13  1  0
 13 14  1  0
 13 15  2  0
 15 16  1  0
 16 17  1  0
 16 18  2  0
 18 19  1  0
 18 20  1  0
 20 21  1  0
 20 22  2  0
 22 23  1  0
 22 24  1  0
 24 25  2  0
 25 26  1  0
  9 27  1  0
 27 28  2  0
 27 29  1  0
 29 30  1  0
 29 31  2  0
 31 32  1  0
  6 33  1  0
 33 34  1  0
 33 35  2  0
 35 36  1  0
 35  2  1  0
 31  7  1  0
 25 10  1  0
 24 15  1  0
M  END
>  <cnnaffinity>  (1) 
-5.40316

>  <filename>  (1) 
O=c1ccn(-c2cccnc2)nc1-c1ccc2ccccc2c1

$$$$
