
     RDKit          3D

 32 35  0  0  0  0  0  0  0  0999 V2000
    4.9333    1.7983   16.9902 H   0  0  0  0  0  0  0  0  0  0  0  0
    5.4014    1.2985   17.8371 C   0  0  0  0  0  0  0  0  0  0  0  0
    6.5603    0.6722   17.5786 N   0  0  0  0  0  0  0  0  0  0  0  0
    7.1738    0.0520   18.5940 C   0  0  0  0  0  0  0  0  0  0  0  0
    8.1097   -0.4489   18.3564 H   0  0  0  0  0  0  0  0  0  0  0  0
    6.6661    0.0006   19.9044 C   0  0  0  0  0  0  0  0  0  0  0  0
    7.3486   -0.6982   20.9603 N   0  0  0  0  0  0  0  0  0  0  0  0
    6.5746   -1.4161   21.8119 N   0  0  0  0  0  0  0  0  0  0  0  0
    7.1494   -2.1032   22.7728 C   0  0  0  0  0  0  0  0  0  0  0  0
    6.2592   -2.9230   23.6152 C   0  0  0  0  0  0  0  0  0  0  0  0
    4.9969   -3.1076   23.4169 N   0  0  0  0  0  0  0  0  0  0  0  0
    4.5678   -3.8356   24.5078 C   0  0  0  0  0  0  0  0  0  0  0  0
    3.2808   -4.2325   24.8978 C   0  0  0  0  0  0  0  0  0  0  0  0
    2.4317   -3.8878   24.3194 H   0  0  0  0  0  0  0  0  0  0  0  0
    3.1631   -5.0428   26.0241 C   0  0  0  0  0  0  0  0  0  0  0  0
    2.1804   -5.3946   26.3260 H   0  0  0  0  0  0  0  0  0  0  0  0
    4.3065   -5.4286   26.7558 C   0  0  0  0  0  0  0  0  0  0  0  0
    4.1806   -6.0870   27.6093 H   0  0  0  0  0  0  0  0  0  0  0  0
    5.5889   -4.9851   26.4102 C   0  0  0  0  0  0  0  0  0  0  0  0
    6.4727   -5.2842   26.9636 H   0  0  0  0  0  0  0  0  0  0  0  0
    5.6783   -4.1544   25.2935 C   0  0  0  0  0  0  0  0  0  0  0  0
    6.7572   -3.5516   24.7344 O   0  0  0  0  0  0  0  0  0  0  0  0
    8.6152   -2.0870   23.0602 C   0  0  0  0  0  0  0  0  0  0  0  0
    9.1506   -2.7005   23.9683 O   0  0  0  0  0  0  0  0  0  0  0  0
    9.3643   -1.2559   22.1098 C   0  0  0  0  0  0  0  0  0  0  0  0
   10.4366   -1.1980   22.2388 H   0  0  0  0  0  0  0  0  0  0  0  0
    8.7159   -0.6144   21.1207 C   0  0  0  0  0  0  0  0  0  0  0  0
    9.2097    0.0289   20.3967 H   0  0  0  0  0  0  0  0  0  0  0  0
    5.4471    0.6411   20.1605 C   0  0  0  0  0  0  0  0  0  0  0  0
    5.0466    0.5758   21.1715 H   0  0  0  0  0  0  0  0  0  0  0  0
    4.8124    1.3125   19.1083 C   0  0  0  0  0  0  0  0  0  0  0  0
    3.8773    1.8433   19.2528 H   0  0  0  0  0  0  0  0  0  0  0  0
  1  2  1  0
  2  3  2  0
  3  4  1  0
  4  5  1  0
  4  6  2  0
  6  7  1  0
  7  8  1  0
  8  9  2  0
  9 10  1  0
 10 11  2  0
 11 12  1  0
 12 13  2  0
 13 14  1  0
 13 15  1  0
 15 16  1  0
 15 17  2  0
 17 18  1  0
 17 19  1  0
 19 20  1  0
 19 21  2  0
 21 22  1  0
  9 23  1  0
 23 24  2  0
 23 25  1  0
 25 26  1  0
 25 27  2  0
 27 28  1  0
  6 29  1  0
 29 30  1  0
 29 31  2  0
 31 32  1  0
 31  2  1  0
 27  7  1  0
 22 10  1  0
 21 12  1  0
M  END
>  <cnnaffinity>  (1) 
-5.19653

>  <filename>  (1) 
O=c1ccn(-c2cccnc2)nc1-c1nc2ccccc2o1

$$$$
