
     RDKit          3D

 43 46  0  0  0  0  0  0  0  0999 V2000
   14.4361   -1.7949   22.2328 O   0  0  0  0  0  0  0  0  0  0  0  0
   13.4151   -1.1315   22.1617 C   0  0  0  0  0  0  0  0  0  0  0  0
   13.1948    0.1757   22.7532 C   0  0  0  0  0  0  0  0  0  0  0  0
   12.0616    0.8715   22.4761 C   0  0  0  0  0  0  0  0  0  0  0  0
   11.0304    0.3292   21.6264 C   0  0  0  0  0  0  0  0  0  0  0  0
    9.8300    1.2062   21.2943 C   0  0  0  0  0  0  0  0  0  0  0  0
    8.7150    1.1701   22.2965 C   0  0  0  0  0  0  0  0  0  0  0  0
    8.6369    1.9098   23.3803 N   0  0  0  0  0  0  0  0  0  0  0  0
    7.4930    1.4738   23.9841 C   0  0  0  0  0  0  0  0  0  0  0  0
    7.0383    2.0245   25.2910 C   0  0  0  0  0  0  0  0  0  0  0  0
    7.7146    3.1358   25.8373 C   0  0  0  0  0  0  0  0  0  0  0  0
    7.2973    3.6621   27.0558 C   0  0  0  0  0  0  0  0  0  0  0  0
    7.9505    4.7181   27.5670 F   0  0  0  0  0  0  0  0  0  0  0  0
    6.2211    3.1273   27.7625 C   0  0  0  0  0  0  0  0  0  0  0  0
    5.5590    2.0178   27.2249 C   0  0  0  0  0  0  0  0  0  0  0  0
    5.9601    1.4588   26.0073 C   0  0  0  0  0  0  0  0  0  0  0  0
    5.4495    0.5793   25.6208 H   0  0  0  0  0  0  0  0  0  0  0  0
    4.7234    1.5811   27.7677 H   0  0  0  0  0  0  0  0  0  0  0  0
    5.9207    3.5723   28.7066 H   0  0  0  0  0  0  0  0  0  0  0  0
    8.5611    3.5719   25.3132 H   0  0  0  0  0  0  0  0  0  0  0  0
    6.8619    0.5276   23.3032 N   0  0  0  0  0  0  0  0  0  0  0  0
    7.6520    0.3412   22.2233 N   0  0  0  0  0  0  0  0  0  0  0  0
    7.2984   -0.5806   21.1481 C   0  0  0  0  0  0  0  0  0  0  0  0
    6.6540    0.0911   19.9476 C   0  0  0  0  0  0  0  0  0  0  0  0
    5.4480    0.7835   20.1144 C   0  0  0  0  0  0  0  0  0  0  0  0
    4.8621    1.3820   18.9993 C   0  0  0  0  0  0  0  0  0  0  0  0
    5.4990    1.2753   17.7605 C   0  0  0  0  0  0  0  0  0  0  0  0
    6.6518    0.6153   17.5780 N   0  0  0  0  0  0  0  0  0  0  0  0
    7.2089    0.0486   18.6579 C   0  0  0  0  0  0  0  0  0  0  0  0
    8.1502   -0.4731   18.4731 H   0  0  0  0  0  0  0  0  0  0  0  0
    5.0619    1.7429   16.8799 H   0  0  0  0  0  0  0  0  0  0  0  0
    3.9385    1.9421   19.0808 H   0  0  0  0  0  0  0  0  0  0  0  0
    4.9869    0.8606   21.1017 H   0  0  0  0  0  0  0  0  0  0  0  0
    8.2113   -1.1057   20.8487 H   0  0  0  0  0  0  0  0  0  0  0  0
    6.6239   -1.3231   21.5864 H   0  0  0  0  0  0  0  0  0  0  0  0
    9.4221    0.9909   20.3006 H   0  0  0  0  0  0  0  0  0  0  0  0
   10.1667    2.2450   21.2522 H   0  0  0  0  0  0  0  0  0  0  0  0
   11.1786   -0.9456   21.1673 C   0  0  0  0  0  0  0  0  0  0  0  0
   12.3320   -1.6443   21.4564 N   0  0  0  0  0  0  0  0  0  0  0  0
   12.5896   -2.5630   21.1144 H   0  0  0  0  0  0  0  0  0  0  0  0
   10.4177   -1.4398   20.5682 H   0  0  0  0  0  0  0  0  0  0  0  0
   11.9122    1.8627   22.9079 H   0  0  0  0  0  0  0  0  0  0  0  0
   13.9858    0.5534   23.3828 H   0  0  0  0  0  0  0  0  0  0  0  0
  1  2  2  0
  2  3  1  0
  3  4  2  0
  4  5  1  0
  5  6  1  0
  6  7  1  0
  7  8  2  0
  8  9  1  0
  9 10  1  0
 10 11  2  0
 11 12  1  0
 12 13  1  0
 12 14  2  0
 14 15  1  0
 15 16  2  0
 16 17  1  0
 15 18  1  0
 14 19  1  0
 11 20  1  0
  9 21  2  0
 21 22  1  0
 22 23  1  0
 23 24  1  0
 24 25  2  0
 25 26  1  0
 26 27  2  0
 27 28  1  0
 28 29  2  0
 29 30  1  0
 27 31  1  0
 26 32  1  0
 25 33  1  0
 23 34  1  0
 23 35  1  0
  6 36  1  0
  6 37  1  0
  5 38  2  0
 38 39  1  0
 39 40  1  0
 38 41  1  0
  4 42  1  0
  3 43  1  0
 39  2  1  0
 22  7  1  0
 29 24  1  0
 16 10  1  0
M  END
>  <cnnaffinity>  (1) 
-6.54981

>  <filename>  (1) 
O=c1ccc(Cc2nc(-c3cccc(F)c3)nn2Cc2cccnc2)c[nH]1

$$$$
