
     RDKit          3D

 31 33  0  0  0  0  0  0  0  0999 V2000
    7.0683   -4.3008   22.0427 H   0  0  0  0  0  0  0  0  0  0  0  0
    6.1638   -4.6062   22.1822 O   0  0  0  0  0  0  0  0  0  0  0  0
    5.7520   -4.1856   23.4072 C   0  0  0  0  0  0  0  0  0  0  0  0
    4.5242   -4.6973   23.8307 C   0  0  0  0  0  0  0  0  0  0  0  0
    4.0000   -5.3785   23.1693 H   0  0  0  0  0  0  0  0  0  0  0  0
    4.0141   -4.3248   25.0696 C   0  0  0  0  0  0  0  0  0  0  0  0
    2.4837   -4.9676   25.5738 Cl  0  0  0  0  0  0  0  0  0  0  0  0
    4.7116   -3.4476   25.9006 C   0  0  0  0  0  0  0  0  0  0  0  0
    4.2966   -3.1977   26.8702 H   0  0  0  0  0  0  0  0  0  0  0  0
    5.9396   -2.9270   25.4695 C   0  0  0  0  0  0  0  0  0  0  0  0
    6.5045   -2.2534   26.1065 H   0  0  0  0  0  0  0  0  0  0  0  0
    6.4612   -3.2714   24.2230 C   0  0  0  0  0  0  0  0  0  0  0  0
    7.6913   -2.7227   23.8345 O   0  0  0  0  0  0  0  0  0  0  0  0
    7.6950   -1.9344   22.7445 C   0  0  0  0  0  0  0  0  0  0  0  0
    6.7289   -1.4478   21.9426 C   0  0  0  0  0  0  0  0  0  0  0  0
    5.6720   -1.6035   21.9741 H   0  0  0  0  0  0  0  0  0  0  0  0
    7.3501   -0.6885   20.9483 N   0  0  0  0  0  0  0  0  0  0  0  0
    6.6651   -0.0030   19.9060 C   0  0  0  0  0  0  0  0  0  0  0  0
    7.1754    0.0507   18.5872 C   0  0  0  0  0  0  0  0  0  0  0  0
    8.1317   -0.4221   18.3693 H   0  0  0  0  0  0  0  0  0  0  0  0
    6.5555    0.6661   17.5747 N   0  0  0  0  0  0  0  0  0  0  0  0
    5.3960    1.2886   17.8414 C   0  0  0  0  0  0  0  0  0  0  0  0
    4.9221    1.7892   17.0015 H   0  0  0  0  0  0  0  0  0  0  0  0
    4.8130    1.3040   19.1112 C   0  0  0  0  0  0  0  0  0  0  0  0
    3.8833    1.8346   19.2669 H   0  0  0  0  0  0  0  0  0  0  0  0
    5.4490    0.6406   20.1639 C   0  0  0  0  0  0  0  0  0  0  0  0
    5.0302    0.6345   21.1696 H   0  0  0  0  0  0  0  0  0  0  0  0
    8.7419   -0.7024   21.1604 C   0  0  0  0  0  0  0  0  0  0  0  0
    9.6288   -0.1608   20.5403 O   0  0  0  0  0  0  0  0  0  0  0  0
    8.9082   -1.4968   22.2692 N   0  0  0  0  0  0  0  0  0  0  0  0
    9.8409   -1.6292   22.6102 H   0  0  0  0  0  0  0  0  0  0  0  0
  1  2  1  0
  2  3  1  0
  3  4  2  0
  4  5  1  0
  4  6  1  0
  6  7  1  0
  6  8  2  0
  8  9  1  0
  8 10  1  0
 10 11  1  0
 10 12  2  0
 12 13  1  0
 13 14  1  0
 14 15  2  0
 15 16  1  0
 15 17  1  0
 17 18  1  0
 18 19  2  0
 19 20  1  0
 19 21  1  0
 21 22  2  0
 22 23  1  0
 22 24  1  0
 24 25  1  0
 24 26  2  0
 26 27  1  0
 17 28  1  0
 28 29  2  0
 28 30  1  0
 30 31  1  0
 12  3  1  0
 30 14  1  0
 26 18  1  0
M  END
>  <cnnaffinity>  (1) 
-5.56065

>  <filename>  (1) 
O=c1[nH]c(Oc2ccc(Cl)cc2O)cn1-c1cccnc1

$$$$
