
     RDKit          3D

 36 39  0  0  0  0  0  0  0  0999 V2000
    4.9596    1.6740   16.8609 H   0  0  0  0  0  0  0  0  0  0  0  0
    5.3794    1.3214   17.7996 C   0  0  0  0  0  0  0  0  0  0  0  0
    6.5779    0.7217   17.7144 N   0  0  0  0  0  0  0  0  0  0  0  0
    7.1122    0.2662   18.8473 C   0  0  0  0  0  0  0  0  0  0  0  0
    8.0913   -0.1988   18.7648 H   0  0  0  0  0  0  0  0  0  0  0  0
    6.4945    0.3588   20.1132 C   0  0  0  0  0  0  0  0  0  0  0  0
    7.0867   -0.3100   21.2181 N   0  0  0  0  0  0  0  0  0  0  0  0
    7.7100   -1.5541   21.1077 C   0  0  0  0  0  0  0  0  0  0  0  0
    7.7080   -2.0714   20.1612 H   0  0  0  0  0  0  0  0  0  0  0  0
    8.2146   -1.9030   22.3060 C   0  0  0  0  0  0  0  0  0  0  0  0
    9.0500   -3.1001   22.6301 C   0  0  0  0  0  0  0  0  0  0  0  0
    9.7350   -2.8935   23.4555 H   0  0  0  0  0  0  0  0  0  0  0  0
    9.6361   -3.3380   21.7472 H   0  0  0  0  0  0  0  0  0  0  0  0
    8.2422   -4.2659   22.9758 N   0  0  0  0  0  0  0  0  0  0  0  0
    7.5666   -4.3113   24.1929 C   0  0  0  0  0  0  0  0  0  0  0  0
    7.8374   -3.5945   25.1294 O   0  0  0  0  0  0  0  0  0  0  0  0
    6.4730   -5.3161   24.0354 C   0  0  0  0  0  0  0  0  0  0  0  0
    5.5333   -5.7948   24.9550 C   0  0  0  0  0  0  0  0  0  0  0  0
    5.5902   -5.5489   26.0151 H   0  0  0  0  0  0  0  0  0  0  0  0
    4.5083   -6.6107   24.4661 C   0  0  0  0  0  0  0  0  0  0  0  0
    3.7391   -6.9766   25.1427 H   0  0  0  0  0  0  0  0  0  0  0  0
    4.4489   -6.9578   23.1018 C   0  0  0  0  0  0  0  0  0  0  0  0
    3.6235   -7.5719   22.7546 H   0  0  0  0  0  0  0  0  0  0  0  0
    5.4259   -6.5244   22.1985 C   0  0  0  0  0  0  0  0  0  0  0  0
    5.3826   -6.8244   21.1527 H   0  0  0  0  0  0  0  0  0  0  0  0
    6.4407   -5.6968   22.6915 C   0  0  0  0  0  0  0  0  0  0  0  0
    7.5748   -5.0096   22.0044 C   0  0  0  0  0  0  0  0  0  0  0  0
    7.9118   -5.0274   20.8406 O   0  0  0  0  0  0  0  0  0  0  0  0
    7.8429   -0.8954   23.1901 N   0  0  0  0  0  0  0  0  0  0  0  0
    7.7151   -0.9589   24.1861 H   0  0  0  0  0  0  0  0  0  0  0  0
    7.1254    0.1026   22.5591 C   0  0  0  0  0  0  0  0  0  0  0  0
    6.6641    1.0861   23.1032 O   0  0  0  0  0  0  0  0  0  0  0  0
    5.2765    1.0472   20.2026 C   0  0  0  0  0  0  0  0  0  0  0  0
    4.8195    1.2221   21.1769 H   0  0  0  0  0  0  0  0  0  0  0  0
    4.6988    1.5041   19.0091 C   0  0  0  0  0  0  0  0  0  0  0  0
    3.7447    2.0227   19.0059 H   0  0  0  0  0  0  0  0  0  0  0  0
  1  2  1  0
  2  3  2  0
  3  4  1  0
  4  5  1  0
  4  6  2  0
  6  7  1  0
  7  8  1  0
  8  9  1  0
  8 10  2  0
 10 11  1  0
 11 12  1  0
 11 13  1  0
 11 14  1  0
 14 15  1  0
 15 16  2  0
 15 17  1  0
 17 18  2  0
 18 19  1  0
 18 20  1  0
 20 21  1  0
 20 22  2  0
 22 23  1  0
 22 24  1  0
 24 25  1  0
 24 26  2  0
 26 27  1  0
 27 28  2  0
 10 29  1  0
 29 30  1  0
 29 31  1  0
 31 32  2  0
  6 33  1  0
 33 34  1  0
 33 35  2  0
 35 36  1  0
 35  2  1  0
 31  7  1  0
 27 14  1  0
 26 17  1  0
M  END
>  <cnnaffinity>  (1) 
-5.49354

>  <filename>  (1) 
O=C1c2ccccc2C(=O)N1Cc1cn(-c2cccnc2)c(=O)[nH]1

$$$$
