
     RDKit          3D

 35 37  0  0  0  0  0  0  0  0999 V2000
    4.9779    1.7327   16.8255 H   0  0  0  0  0  0  0  0  0  0  0  0
    5.3548    1.3286   17.7619 C   0  0  0  0  0  0  0  0  0  0  0  0
    6.5384    0.7023   17.6925 N   0  0  0  0  0  0  0  0  0  0  0  0
    7.0268    0.2018   18.8345 C   0  0  0  0  0  0  0  0  0  0  0  0
    8.0008   -0.2772   18.7529 H   0  0  0  0  0  0  0  0  0  0  0  0
    6.3842    0.2704   20.0884 C   0  0  0  0  0  0  0  0  0  0  0  0
    7.0535   -0.3392   21.3190 C   0  0  2  0  0  0  0  0  0  0  0  0
    6.3789   -0.2172   22.1781 H   0  0  0  0  0  0  0  0  0  0  0  0
    8.4302    0.3377   21.5976 C   0  0  0  0  0  0  0  0  0  0  0  0
    8.6183    0.4541   22.6775 H   0  0  0  0  0  0  0  0  0  0  0  0
    8.4887    1.3347   21.1398 H   0  0  0  0  0  0  0  0  0  0  0  0
    9.3703   -0.5782   20.9700 N   0  0  0  0  0  0  0  0  0  0  0  0
   10.3708   -0.4758   20.9431 H   0  0  0  0  0  0  0  0  0  0  0  0
    8.9204   -1.8509   20.8871 C   0  0  0  0  0  0  0  0  0  0  0  0
    9.6255   -2.8136   20.6680 O   0  0  0  0  0  0  0  0  0  0  0  0
    7.4080   -1.8421   21.0921 C   0  0  1  0  0  0  0  0  0  0  0  0
    6.9970   -2.1956   20.1381 H   0  0  0  0  0  0  0  0  0  0  0  0
    6.9047   -2.8399   22.1682 C   0  0  0  0  0  0  0  0  0  0  0  0
    7.0630   -3.8550   21.7814 H   0  0  0  0  0  0  0  0  0  0  0  0
    5.8205   -2.7199   22.2785 H   0  0  0  0  0  0  0  0  0  0  0  0
    7.6016   -2.7574   23.5107 C   0  0  0  0  0  0  0  0  0  0  0  0
    8.9646   -3.1129   23.5911 C   0  0  0  0  0  0  0  0  0  0  0  0
    9.4498   -3.5384   22.7154 H   0  0  0  0  0  0  0  0  0  0  0  0
    9.6995   -2.8821   24.7505 C   0  0  0  0  0  0  0  0  0  0  0  0
   10.7688   -3.0667   24.7389 H   0  0  0  0  0  0  0  0  0  0  0  0
    9.0627   -2.4249   25.9110 C   0  0  0  0  0  0  0  0  0  0  0  0
    9.6167   -2.2518   26.8286 H   0  0  0  0  0  0  0  0  0  0  0  0
    7.6914   -2.1891   25.9002 C   0  0  0  0  0  0  0  0  0  0  0  0
    7.1708   -1.8941   26.8084 H   0  0  0  0  0  0  0  0  0  0  0  0
    6.9766   -2.3778   24.7135 C   0  0  0  0  0  0  0  0  0  0  0  0
    5.2476   -2.2179   24.8185 Cl  0  0  0  0  0  0  0  0  0  0  0  0
    5.1607    0.9543   20.1338 C   0  0  0  0  0  0  0  0  0  0  0  0
    4.6288    1.0844   21.0784 H   0  0  0  0  0  0  0  0  0  0  0  0
    4.6347    1.4847   18.9497 C   0  0  0  0  0  0  0  0  0  0  0  0
    3.6947    2.0280   18.9375 H   0  0  0  0  0  0  0  0  0  0  0  0
  1  2  1  0
  2  3  2  0
  3  4  1  0
  4  5  1  0
  4  6  2  0
  6  7  1  0
  7  8  1  1
  7  9  1  0
  9 10  1  0
  9 11  1  0
  9 12  1  0
 12 13  1  0
 12 14  1  0
 14 15  2  0
 14 16  1  0
 16 17  1  6
 16 18  1  0
 18 19  1  0
 18 20  1  0
 18 21  1  0
 21 22  2  0
 22 23  1  0
 22 24  1  0
 24 25  1  0
 24 26  2  0
 26 27  1  0
 26 28  1  0
 28 29  1  0
 28 30  2  0
 30 31  1  0
  6 32  1  0
 32 33  1  0
 32 34  2  0
 34 35  1  0
 34  2  1  0
 16  7  1  0
 30 21  1  0
M  END
>  <cnnaffinity>  (1) 
-5.07923

>  <filename>  (1) 
O=C1NC[C@@H](c2cccnc2)[C@@H]1Cc1ccccc1Cl

$$$$
