
     RDKit          3D

 34 36  0  0  0  0  0  0  0  0999 V2000
    4.9423    1.8289   16.9643 H   0  0  0  0  0  0  0  0  0  0  0  0
    5.4165    1.3331   17.8080 C   0  0  0  0  0  0  0  0  0  0  0  0
    6.5809    0.7176   17.5479 N   0  0  0  0  0  0  0  0  0  0  0  0
    7.1859    0.0707   18.5536 C   0  0  0  0  0  0  0  0  0  0  0  0
    8.1347   -0.4093   18.3162 H   0  0  0  0  0  0  0  0  0  0  0  0
    6.6534   -0.0139   19.8579 C   0  0  0  0  0  0  0  0  0  0  0  0
    7.3360   -0.7246   20.9204 N   0  0  0  0  0  0  0  0  0  0  0  0
    8.6191   -0.3316   21.2602 C   0  0  0  0  0  0  0  0  0  0  0  0
    8.9810    0.5394   20.7183 H   0  0  0  0  0  0  0  0  0  0  0  0
    9.3668   -0.9584   22.2160 C   0  0  0  0  0  0  0  0  0  0  0  0
   10.7597   -0.4469   22.5594 C   0  0  0  0  0  0  0  0  0  0  0  0
   11.3946   -0.3596   21.6668 H   0  0  0  0  0  0  0  0  0  0  0  0
   11.2764   -1.1753   23.1912 H   0  0  0  0  0  0  0  0  0  0  0  0
   10.6853    0.9014   23.2575 C   0  0  0  0  0  0  0  0  0  0  0  0
   10.8329    2.1064   22.5456 C   0  0  0  0  0  0  0  0  0  0  0  0
   11.0863    2.0846   21.4846 H   0  0  0  0  0  0  0  0  0  0  0  0
   10.6600    3.3430   23.1750 C   0  0  0  0  0  0  0  0  0  0  0  0
   10.7892    4.2612   22.6104 H   0  0  0  0  0  0  0  0  0  0  0  0
   10.2968    3.3996   24.5233 C   0  0  0  0  0  0  0  0  0  0  0  0
   10.1505    4.3592   25.0163 H   0  0  0  0  0  0  0  0  0  0  0  0
   10.1266    2.2176   25.2498 C   0  0  0  0  0  0  0  0  0  0  0  0
    9.8074    2.2204   26.2893 H   0  0  0  0  0  0  0  0  0  0  0  0
   10.3583    0.9929   24.6231 C   0  0  0  0  0  0  0  0  0  0  0  0
   10.2527   -0.4348   25.6234 Cl  0  0  0  0  0  0  0  0  0  0  0  0
    8.7438   -2.0145   22.9641 C   0  0  0  0  0  0  0  0  0  0  0  0
    9.2854   -2.4990   23.7788 H   0  0  0  0  0  0  0  0  0  0  0  0
    7.4754   -2.4089   22.6740 C   0  0  0  0  0  0  0  0  0  0  0  0
    6.9554   -3.2040   23.1881 H   0  0  0  0  0  0  0  0  0  0  0  0
    6.6892   -1.8165   21.6036 C   0  0  0  0  0  0  0  0  0  0  0  0
    5.5861   -2.2346   21.2848 O   0  0  0  0  0  0  0  0  0  0  0  0
    5.4420    0.6449   20.1120 C   0  0  0  0  0  0  0  0  0  0  0  0
    5.0168    0.6136   21.1136 H   0  0  0  0  0  0  0  0  0  0  0  0
    4.8094    1.3333   19.0686 C   0  0  0  0  0  0  0  0  0  0  0  0
    3.8614    1.8513   19.2097 H   0  0  0  0  0  0  0  0  0  0  0  0
  1  2  1  0
  2  3  2  0
  3  4  1  0
  4  5  1  0
  4  6  2  0
  6  7  1  0
  7  8  1  0
  8  9  1  0
  8 10  2  0
 10 11  1  0
 11 12  1  0
 11 13  1  0
 11 14  1  0
 14 15  2  0
 15 16  1  0
 15 17  1  0
 17 18  1  0
 17 19  2  0
 19 20  1  0
 19 21  1  0
 21 22  1  0
 21 23  2  0
 23 24  1  0
 10 25  1  0
 25 26  1  0
 25 27  2  0
 27 28  1  0
 27 29  1  0
 29 30  2  0
  6 31  1  0
 31 32  1  0
 31 33  2  0
 33 34  1  0
 33  2  1  0
 29  7  1  0
 23 14  1  0
M  END
>  <cnnaffinity>  (1) 
-5.64169

>  <filename>  (1) 
O=c1ccc(Cc2ccccc2Cl)cn1-c1cccnc1

$$$$
