
     RDKit          3D

 30 32  0  0  0  0  0  0  0  0999 V2000
    6.1980    3.2158   24.8267 H   0  0  0  0  0  0  0  0  0  0  0  0
    6.6867    3.0031   23.8764 C   0  0  0  0  0  0  0  0  0  0  0  0
    6.9036    1.7124   23.6138 N   0  0  0  0  0  0  0  0  0  0  0  0
    7.4971    1.3894   22.4525 C   0  0  0  0  0  0  0  0  0  0  0  0
    7.7078   -0.0660   22.2080 C   0  0  0  0  0  0  0  0  0  0  0  0
    8.3072   -0.8869   23.2276 C   0  0  0  0  0  0  0  0  0  0  0  0
    8.5382   -0.4173   24.1842 H   0  0  0  0  0  0  0  0  0  0  0  0
    8.5925   -2.1958   22.9959 C   0  0  0  0  0  0  0  0  0  0  0  0
    9.0508   -2.8540   23.7234 H   0  0  0  0  0  0  0  0  0  0  0  0
    8.2671   -2.8050   21.7140 C   0  0  0  0  0  0  0  0  0  0  0  0
    8.4098   -3.9709   21.3895 O   0  0  0  0  0  0  0  0  0  0  0  0
    7.7310   -1.9417   20.7794 N   0  0  0  0  0  0  0  0  0  0  0  0
    7.4674   -2.4505   19.9550 H   0  0  0  0  0  0  0  0  0  0  0  0
    7.3703   -0.6405   21.0024 C   0  0  0  0  0  0  0  0  0  0  0  0
    6.6381    0.0069   19.9126 C   0  0  0  0  0  0  0  0  0  0  0  0
    7.1563    0.0345   18.6063 C   0  0  0  0  0  0  0  0  0  0  0  0
    8.1149   -0.4362   18.3716 H   0  0  0  0  0  0  0  0  0  0  0  0
    6.5629    0.6593   17.5848 N   0  0  0  0  0  0  0  0  0  0  0  0
    5.3989    1.2849   17.8304 C   0  0  0  0  0  0  0  0  0  0  0  0
    4.9398    1.7942   16.9842 H   0  0  0  0  0  0  0  0  0  0  0  0
    4.7916    1.3018   19.0892 C   0  0  0  0  0  0  0  0  0  0  0  0
    3.8661    1.8439   19.2281 H   0  0  0  0  0  0  0  0  0  0  0  0
    5.4138    0.6510   20.1499 C   0  0  0  0  0  0  0  0  0  0  0  0
    4.9930    0.6515   21.1571 H   0  0  0  0  0  0  0  0  0  0  0  0
    7.9359    2.3696   21.5404 C   0  0  0  0  0  0  0  0  0  0  0  0
    8.3976    2.0283   20.6220 H   0  0  0  0  0  0  0  0  0  0  0  0
    7.7582    3.7232   21.8521 C   0  0  0  0  0  0  0  0  0  0  0  0
    8.1255    4.5388   21.2251 H   0  0  0  0  0  0  0  0  0  0  0  0
    7.0860    4.0408   23.0309 C   0  0  0  0  0  0  0  0  0  0  0  0
    6.8830    5.0700   23.3010 H   0  0  0  0  0  0  0  0  0  0  0  0
  1  2  1  0
  2  3  2  0
  3  4  1  0
  4  5  1  0
  5  6  1  0
  6  7  1  0
  6  8  2  0
  8  9  1  0
  8 10  1  0
 10 11  2  0
 10 12  1  0
 12 13  1  0
 12 14  1  0
 14 15  1  0
 15 16  2  0
 16 17  1  0
 16 18  1  0
 18 19  2  0
 19 20  1  0
 19 21  1  0
 21 22  1  0
 21 23  2  0
 23 24  1  0
  4 25  2  0
 25 26  1  0
 25 27  1  0
 27 28  1  0
 27 29  2  0
 29 30  1  0
 29  2  1  0
 14  5  2  0
 23 15  1  0
M  END
>  <cnnaffinity>  (1) 
-5.18253

>  <filename>  (1) 
O=c1ccc(-c2ccccn2)c(-c2cccnc2)[nH]1

$$$$
