
     RDKit          3D

 29 31  0  0  0  0  0  0  0  0999 V2000
   10.1218   -0.7980   27.3060 H   0  0  0  0  0  0  0  0  0  0  0  0
    9.2250   -0.5024   26.7620 C   0  0  0  0  0  0  0  0  0  0  0  0
    9.1613   -0.8675   25.4771 N   0  0  0  0  0  0  0  0  0  0  0  0
    8.0792   -0.4861   24.7608 C   0  0  0  0  0  0  0  0  0  0  0  0
    8.0448   -0.8169   23.2733 C   0  0  0  0  0  0  0  0  0  0  0  0
    7.3499   -0.1116   22.3222 C   0  0  0  0  0  0  0  0  0  0  0  0
    6.7998    0.7865   22.5468 H   0  0  0  0  0  0  0  0  0  0  0  0
    7.3697   -0.5625   20.9661 C   0  0  0  0  0  0  0  0  0  0  0  0
    6.6141    0.1522   19.9182 C   0  0  0  0  0  0  0  0  0  0  0  0
    7.1264    0.1175   18.6147 C   0  0  0  0  0  0  0  0  0  0  0  0
    8.0526   -0.4250   18.4241 H   0  0  0  0  0  0  0  0  0  0  0  0
    6.5408    0.7127   17.5727 N   0  0  0  0  0  0  0  0  0  0  0  0
    5.3755    1.3388   17.7985 C   0  0  0  0  0  0  0  0  0  0  0  0
    4.9201    1.8261   16.9395 H   0  0  0  0  0  0  0  0  0  0  0  0
    4.7467    1.3724   19.0483 C   0  0  0  0  0  0  0  0  0  0  0  0
    3.7956    1.8795   19.1620 H   0  0  0  0  0  0  0  0  0  0  0  0
    5.3757    0.7648   20.1329 C   0  0  0  0  0  0  0  0  0  0  0  0
    4.9118    0.7281   21.1196 H   0  0  0  0  0  0  0  0  0  0  0  0
    8.0010   -1.6252   20.5616 N   0  0  0  0  0  0  0  0  0  0  0  0
    8.5140   -2.4554   21.5153 C   0  0  0  0  0  0  0  0  0  0  0  0
    8.7832   -3.6183   21.3481 O   0  0  0  0  0  0  0  0  0  0  0  0
    8.7282   -1.9060   22.7878 N   0  0  0  0  0  0  0  0  0  0  0  0
    9.2153   -2.5502   23.3832 H   0  0  0  0  0  0  0  0  0  0  0  0
    6.9948    0.1934   25.3497 C   0  0  0  0  0  0  0  0  0  0  0  0
    6.1069    0.4152   24.7673 H   0  0  0  0  0  0  0  0  0  0  0  0
    7.0683    0.5532   26.6950 C   0  0  0  0  0  0  0  0  0  0  0  0
    6.2571    1.1009   27.1733 H   0  0  0  0  0  0  0  0  0  0  0  0
    8.2144    0.2112   27.4109 C   0  0  0  0  0  0  0  0  0  0  0  0
    8.3431    0.4877   28.4488 H   0  0  0  0  0  0  0  0  0  0  0  0
  1  2  1  0
  2  3  2  0
  3  4  1  0
  4  5  1  0
  5  6  2  0
  6  7  1  0
  6  8  1  0
  8  9  1  0
  9 10  2  0
 10 11  1  0
 10 12  1  0
 12 13  2  0
 13 14  1  0
 13 15  1  0
 15 16  1  0
 15 17  2  0
 17 18  1  0
  8 19  2  0
 19 20  1  0
 20 21  2  0
 20 22  1  0
 22 23  1  0
  4 24  2  0
 24 25  1  0
 24 26  1  0
 26 27  1  0
 26 28  2  0
 28 29  1  0
 28  2  1  0
 22  5  1  0
 17  9  1  0
M  END
>  <cnnaffinity>  (1) 
-5.03466

>  <filename>  (1) 
O=c1nc(-c2cccnc2)cc(-c2ccccn2)[nH]1

$$$$
