
     RDKit          3D

 46 49  0  0  0  0  0  0  0  0999 V2000
    7.1098   -2.9068   27.0999 O   0  0  0  0  0  0  0  0  0  0  0  0
    6.8122   -1.7715   27.4590 C   0  0  0  0  0  0  0  0  0  0  0  0
    5.5698   -1.4570   28.1469 C   0  0  0  0  0  0  0  0  0  0  0  0
    5.2514   -0.1836   28.5188 C   0  0  0  0  0  0  0  0  0  0  0  0
    6.1644    0.8805   28.2453 C   0  0  0  0  0  0  0  0  0  0  0  0
    7.3373    0.6087   27.6135 C   0  0  0  0  0  0  0  0  0  0  0  0
    7.6704   -0.6699   27.2240 N   0  0  0  0  0  0  0  0  0  0  0  0
    8.8274   -0.8566   26.3424 C   0  0  0  0  0  0  0  0  0  0  0  0
    8.5738   -0.3852   24.9016 C   0  0  0  0  0  0  0  0  0  0  0  0
    7.2239   -0.8681   24.3069 C   0  0  0  0  0  0  0  0  0  0  0  0
    7.0822   -0.7422   22.8240 C   0  0  0  0  0  0  0  0  0  0  0  0
    6.1702   -0.0632   22.1559 N   0  0  0  0  0  0  0  0  0  0  0  0
    6.4560   -0.3381   20.8609 C   0  0  0  0  0  0  0  0  0  0  0  0
    5.8593    0.2978   19.6918 C   0  0  0  0  0  0  0  0  0  0  0  0
    4.6939    1.0696   19.7339 C   0  0  0  0  0  0  0  0  0  0  0  0
    4.3227    1.7389   18.5680 C   0  0  0  0  0  0  0  0  0  0  0  0
    5.1305    1.6261   17.4289 C   0  0  0  0  0  0  0  0  0  0  0  0
    6.2293    0.8597   17.3723 N   0  0  0  0  0  0  0  0  0  0  0  0
    6.5705    0.2061   18.4827 C   0  0  0  0  0  0  0  0  0  0  0  0
    7.4586   -0.4191   18.4185 H   0  0  0  0  0  0  0  0  0  0  0  0
    4.8877    2.1629   16.5144 H   0  0  0  0  0  0  0  0  0  0  0  0
    3.4384    2.3654   18.5297 H   0  0  0  0  0  0  0  0  0  0  0  0
    4.1191    1.1609   20.6577 H   0  0  0  0  0  0  0  0  0  0  0  0
    7.4807   -1.1450   20.6867 N   0  0  0  0  0  0  0  0  0  0  0  0
    7.8996   -1.4104   21.9475 N   0  0  0  0  0  0  0  0  0  0  0  0
    9.2324   -1.8929   22.1190 C   0  0  0  0  0  0  0  0  0  0  0  0
   10.2383   -1.2764   21.3558 C   0  0  0  0  0  0  0  0  0  0  0  0
   11.5602   -1.6637   21.5166 C   0  0  0  0  0  0  0  0  0  0  0  0
   11.8755   -2.6262   22.4707 C   0  0  0  0  0  0  0  0  0  0  0  0
   10.8892   -3.2216   23.2596 C   0  0  0  0  0  0  0  0  0  0  0  0
    9.5480   -2.9054   23.0342 C   0  0  0  0  0  0  0  0  0  0  0  0
    8.7651   -3.4494   23.5548 H   0  0  0  0  0  0  0  0  0  0  0  0
   11.1532   -3.9288   24.0421 H   0  0  0  0  0  0  0  0  0  0  0  0
   12.8966   -2.9580   22.5183 H   0  0  0  0  0  0  0  0  0  0  0  0
   12.3337   -1.2852   20.8527 H   0  0  0  0  0  0  0  0  0  0  0  0
    9.9684   -0.5083   20.6407 H   0  0  0  0  0  0  0  0  0  0  0  0
    6.3913   -0.3238   24.7700 H   0  0  0  0  0  0  0  0  0  0  0  0
    7.0621   -1.9294   24.5426 H   0  0  0  0  0  0  0  0  0  0  0  0
    8.6119    0.7115   24.8745 H   0  0  0  0  0  0  0  0  0  0  0  0
    9.4289   -0.7221   24.3048 H   0  0  0  0  0  0  0  0  0  0  0  0
    9.6828   -0.3162   26.7690 H   0  0  0  0  0  0  0  0  0  0  0  0
    9.0686   -1.9210   26.3712 H   0  0  0  0  0  0  0  0  0  0  0  0
    8.0753    1.3759   27.3762 H   0  0  0  0  0  0  0  0  0  0  0  0
    5.9360    1.9016   28.5357 H   0  0  0  0  0  0  0  0  0  0  0  0
    4.3103    0.0284   29.0267 H   0  0  0  0  0  0  0  0  0  0  0  0
    4.9542   -2.3229   28.3384 H   0  0  0  0  0  0  0  0  0  0  0  0
  1  2  2  0
  2  3  1  0
  3  4  2  0
  4  5  1  0
  5  6  2  0
  6  7  1  0
  7  8  1  0
  8  9  1  0
  9 10  1  0
 10 11  1  0
 11 12  2  0
 12 13  1  0
 13 14  1  0
 14 15  2  0
 15 16  1  0
 16 17  2  0
 17 18  1  0
 18 19  2  0
 19 20  1  0
 17 21  1  0
 16 22  1  0
 15 23  1  0
 13 24  2  0
 24 25  1  0
 25 26  1  0
 26 27  2  0
 27 28  1  0
 28 29  2  0
 29 30  1  0
 30 31  2  0
 31 32  1  0
 30 33  1  0
 29 34  1  0
 28 35  1  0
 27 36  1  0
 10 37  1  0
 10 38  1  0
  9 39  1  0
  9 40  1  0
  8 41  1  0
  8 42  1  0
  6 43  1  0
  5 44  1  0
  4 45  1  0
  3 46  1  0
  7  2  1  0
 25 11  1  0
 31 26  1  0
 19 14  1  0
M  END
>  <cnnaffinity>  (1) 
-5.94303

>  <filename>  (1) 
O=c1ccccn1CCCc1nc(-c2cccnc2)nn1-c1ccccc1

$$$$
