
     RDKit          3D

 28 30  0  0  0  0  0  0  0  0999 V2000
    6.8619    1.8923   26.7223 H   0  0  0  0  0  0  0  0  0  0  0  0
    7.4174    1.0022   26.4319 C   0  0  0  0  0  0  0  0  0  0  0  0
    7.3675    0.6627   25.1465 N   0  0  0  0  0  0  0  0  0  0  0  0
    8.0599   -0.4303   24.7792 C   0  0  0  0  0  0  0  0  0  0  0  0
    8.0345   -0.8241   23.2889 C   0  0  0  0  0  0  0  0  0  0  0  0
    7.3501   -0.1307   22.3188 C   0  0  0  0  0  0  0  0  0  0  0  0
    6.7892    0.7546   22.5617 H   0  0  0  0  0  0  0  0  0  0  0  0
    7.3765   -0.5809   20.9645 C   0  0  0  0  0  0  0  0  0  0  0  0
    6.6221    0.1317   19.9145 C   0  0  0  0  0  0  0  0  0  0  0  0
    7.1366    0.1087   18.6139 C   0  0  0  0  0  0  0  0  0  0  0  0
    8.0653   -0.4340   18.4303 H   0  0  0  0  0  0  0  0  0  0  0  0
    6.5468    0.7061   17.5769 N   0  0  0  0  0  0  0  0  0  0  0  0
    5.3793    1.3298   17.8059 C   0  0  0  0  0  0  0  0  0  0  0  0
    4.9266    1.8211   16.9476 H   0  0  0  0  0  0  0  0  0  0  0  0
    4.7517    1.3622   19.0559 C   0  0  0  0  0  0  0  0  0  0  0  0
    3.8015    1.8747   19.1729 H   0  0  0  0  0  0  0  0  0  0  0  0
    5.3827    0.7466   20.1344 C   0  0  0  0  0  0  0  0  0  0  0  0
    4.9178    0.7050   21.1190 H   0  0  0  0  0  0  0  0  0  0  0  0
    8.0192   -1.6382   20.5636 N   0  0  0  0  0  0  0  0  0  0  0  0
    8.5177   -2.4686   21.5245 C   0  0  0  0  0  0  0  0  0  0  0  0
    8.7942   -3.6307   21.3555 O   0  0  0  0  0  0  0  0  0  0  0  0
    8.7102   -1.9300   22.8091 N   0  0  0  0  0  0  0  0  0  0  0  0
    9.1523   -2.6266   23.3887 H   0  0  0  0  0  0  0  0  0  0  0  0
    8.7744   -1.2059   25.6159 N   0  0  0  0  0  0  0  0  0  0  0  0
    8.8042   -0.8341   26.8941 C   0  0  0  0  0  0  0  0  0  0  0  0
    9.3881   -1.4543   27.5684 H   0  0  0  0  0  0  0  0  0  0  0  0
    8.1331    0.2805   27.3706 C   0  0  0  0  0  0  0  0  0  0  0  0
    8.1776    0.5721   28.4073 H   0  0  0  0  0  0  0  0  0  0  0  0
  1  2  1  0
  2  3  2  0
  3  4  1  0
  4  5  1  0
  5  6  2  0
  6  7  1  0
  6  8  1  0
  8  9  1  0
  9 10  2  0
 10 11  1  0
 10 12  1  0
 12 13  2  0
 13 14  1  0
 13 15  1  0
 15 16  1  0
 15 17  2  0
 17 18  1  0
  8 19  2  0
 19 20  1  0
 20 21  2  0
 20 22  1  0
 22 23  1  0
  4 24  2  0
 24 25  1  0
 25 26  1  0
 25 27  2  0
 27 28  1  0
 27  2  1  0
 22  5  1  0
 17  9  1  0
M  END
>  <cnnaffinity>  (1) 
-4.93223

>  <filename>  (1) 
O=c1nc(-c2cccnc2)cc(-c2ncccn2)[nH]1

$$$$
