
     RDKit          3D

 46 49  0  0  0  0  0  0  0  0999 V2000
   10.8227    4.2247   22.8335 O   0  0  0  0  0  0  0  0  0  0  0  0
   11.0716    3.1227   23.3007 C   0  0  0  0  0  0  0  0  0  0  0  0
   12.4118    2.7092   23.6905 C   0  0  0  0  0  0  0  0  0  0  0  0
   12.6396    1.5284   24.3256 C   0  0  0  0  0  0  0  0  0  0  0  0
   11.5493    0.6622   24.6224 C   0  0  0  0  0  0  0  0  0  0  0  0
   10.3016    0.9837   24.1859 C   0  0  0  0  0  0  0  0  0  0  0  0
   10.0548    2.1455   23.4873 N   0  0  0  0  0  0  0  0  0  0  0  0
    8.8167    2.3020   22.7109 C   0  0  0  0  0  0  0  0  0  0  0  0
    9.0245    2.0051   21.2181 C   0  0  0  0  0  0  0  0  0  0  0  0
    9.5132    0.5767   20.8975 C   0  0  0  0  0  0  0  0  0  0  0  0
    8.6197   -0.5117   21.3961 C   0  0  0  0  0  0  0  0  0  0  0  0
    8.8540   -1.3538   22.3758 N   0  0  0  0  0  0  0  0  0  0  0  0
    7.6732   -2.0043   22.5486 C   0  0  0  0  0  0  0  0  0  0  0  0
    7.4310   -3.0282   23.5913 C   0  0  0  0  0  0  0  0  0  0  0  0
    6.1414   -3.6026   23.6994 C   0  0  0  0  0  0  0  0  0  0  0  0
    5.8585   -4.5751   24.6550 C   0  0  0  0  0  0  0  0  0  0  0  0
    6.8582   -5.0041   25.5337 C   0  0  0  0  0  0  0  0  0  0  0  0
    8.1356   -4.4511   25.4560 C   0  0  0  0  0  0  0  0  0  0  0  0
    8.4197   -3.4657   24.5017 C   0  0  0  0  0  0  0  0  0  0  0  0
   10.0466   -2.8308   24.5446 Cl  0  0  0  0  0  0  0  0  0  0  0  0
    8.9219   -4.7693   26.1346 H   0  0  0  0  0  0  0  0  0  0  0  0
    6.6420   -5.7606   26.2842 H   0  0  0  0  0  0  0  0  0  0  0  0
    4.8582   -4.9930   24.7198 H   0  0  0  0  0  0  0  0  0  0  0  0
    5.3597   -3.2626   23.0211 H   0  0  0  0  0  0  0  0  0  0  0  0
    6.7267   -1.6154   21.7063 N   0  0  0  0  0  0  0  0  0  0  0  0
    7.3466   -0.6871   20.9422 N   0  0  0  0  0  0  0  0  0  0  0  0
    6.6494   -0.0294   19.8920 C   0  0  0  0  0  0  0  0  0  0  0  0
    5.4391    0.6147   20.1568 C   0  0  0  0  0  0  0  0  0  0  0  0
    4.8240    1.3019   19.1072 C   0  0  0  0  0  0  0  0  0  0  0  0
    5.4242    1.3002   17.8416 C   0  0  0  0  0  0  0  0  0  0  0  0
    6.5661    0.6494   17.5739 N   0  0  0  0  0  0  0  0  0  0  0  0
    7.1580    0.0007   18.5821 C   0  0  0  0  0  0  0  0  0  0  0  0
    8.0780   -0.5324   18.3455 H   0  0  0  0  0  0  0  0  0  0  0  0
    4.9663    1.8301   17.0099 H   0  0  0  0  0  0  0  0  0  0  0  0
    3.8945    1.8374   19.2606 H   0  0  0  0  0  0  0  0  0  0  0  0
    5.0170    0.5646   21.1621 H   0  0  0  0  0  0  0  0  0  0  0  0
    9.5955    0.4737   19.8122 H   0  0  0  0  0  0  0  0  0  0  0  0
   10.5087    0.4073   21.3180 H   0  0  0  0  0  0  0  0  0  0  0  0
    9.7634    2.7197   20.8432 H   0  0  0  0  0  0  0  0  0  0  0  0
    8.0874    2.1975   20.6797 H   0  0  0  0  0  0  0  0  0  0  0  0
    8.4685    3.3314   22.8366 H   0  0  0  0  0  0  0  0  0  0  0  0
    8.0634    1.6296   23.1420 H   0  0  0  0  0  0  0  0  0  0  0  0
    9.4556    0.3111   24.3203 H   0  0  0  0  0  0  0  0  0  0  0  0
   11.7072   -0.2638   25.1613 H   0  0  0  0  0  0  0  0  0  0  0  0
   13.6496    1.2412   24.6055 H   0  0  0  0  0  0  0  0  0  0  0  0
   13.1898    3.4185   23.4512 H   0  0  0  0  0  0  0  0  0  0  0  0
  1  2  2  0
  2  3  1  0
  3  4  2  0
  4  5  1  0
  5  6  2  0
  6  7  1  0
  7  8  1  0
  8  9  1  0
  9 10  1  0
 10 11  1  0
 11 12  2  0
 12 13  1  0
 13 14  1  0
 14 15  2  0
 15 16  1  0
 16 17  2  0
 17 18  1  0
 18 19  2  0
 19 20  1  0
 18 21  1  0
 17 22  1  0
 16 23  1  0
 15 24  1  0
 13 25  2  0
 25 26  1  0
 26 27  1  0
 27 28  2  0
 28 29  1  0
 29 30  2  0
 30 31  1  0
 31 32  2  0
 32 33  1  0
 30 34  1  0
 29 35  1  0
 28 36  1  0
 10 37  1  0
 10 38  1  0
  9 39  1  0
  9 40  1  0
  8 41  1  0
  8 42  1  0
  6 43  1  0
  5 44  1  0
  4 45  1  0
  3 46  1  0
  7  2  1  0
 26 11  1  0
 32 27  1  0
 19 14  1  0
M  END
>  <cnnaffinity>  (1) 
-6.40773

>  <filename>  (1) 
O=c1ccccn1CCCc1nc(-c2ccccc2Cl)nn1-c1cccnc1

$$$$
