
     RDKit          3D

 34 36  0  0  0  0  0  0  0  0999 V2000
    4.9322    1.7924   16.9880 H   0  0  0  0  0  0  0  0  0  0  0  0
    5.4005    1.2884   17.8319 C   0  0  0  0  0  0  0  0  0  0  0  0
    6.5645    0.6671   17.5758 N   0  0  0  0  0  0  0  0  0  0  0  0
    7.1568    0.0305   18.5910 C   0  0  0  0  0  0  0  0  0  0  0  0
    8.1198   -0.4304   18.3596 H   0  0  0  0  0  0  0  0  0  0  0  0
    6.6373   -0.0175   19.8960 C   0  0  0  0  0  0  0  0  0  0  0  0
    7.3770   -0.6659   20.9820 C   0  0  0  0  0  0  0  0  0  0  0  0
    7.7165   -0.0645   22.1790 C   0  0  0  0  0  0  0  0  0  0  0  0
    7.4839    1.3842   22.4216 C   0  0  0  0  0  0  0  0  0  0  0  0
    6.7623    1.7924   23.5535 C   0  0  0  0  0  0  0  0  0  0  0  0
    6.3838    1.0378   24.2410 H   0  0  0  0  0  0  0  0  0  0  0  0
    6.5261    3.1436   23.8023 C   0  0  0  0  0  0  0  0  0  0  0  0
    5.9658    3.4421   24.6844 H   0  0  0  0  0  0  0  0  0  0  0  0
    7.0465    4.1125   22.9279 C   0  0  0  0  0  0  0  0  0  0  0  0
    6.7581    5.5850   23.1314 C   0  0  0  0  0  0  0  0  0  0  0  0
    7.7327    6.3699   22.6252 F   0  0  0  0  0  0  0  0  0  0  0  0
    5.6089    5.9592   22.5332 F   0  0  0  0  0  0  0  0  0  0  0  0
    6.6405    5.8905   24.4397 F   0  0  0  0  0  0  0  0  0  0  0  0
    7.8102    3.7138   21.8237 C   0  0  0  0  0  0  0  0  0  0  0  0
    8.2542    4.4943   21.2113 H   0  0  0  0  0  0  0  0  0  0  0  0
    7.9947    2.3589   21.5439 C   0  0  0  0  0  0  0  0  0  0  0  0
    8.5285    2.0267   20.6543 H   0  0  0  0  0  0  0  0  0  0  0  0
    8.3445   -0.8663   23.1940 C   0  0  0  0  0  0  0  0  0  0  0  0
    8.5949   -0.3670   24.1337 H   0  0  0  0  0  0  0  0  0  0  0  0
    8.6358   -2.1787   22.9797 C   0  0  0  0  0  0  0  0  0  0  0  0
    9.1120   -2.8190   23.7077 H   0  0  0  0  0  0  0  0  0  0  0  0
    8.2975   -2.8204   21.7130 C   0  0  0  0  0  0  0  0  0  0  0  0
    8.4516   -3.9897   21.4051 O   0  0  0  0  0  0  0  0  0  0  0  0
    7.7346   -1.9717   20.7812 N   0  0  0  0  0  0  0  0  0  0  0  0
    7.4734   -2.4801   19.9536 H   0  0  0  0  0  0  0  0  0  0  0  0
    5.4240    0.6437   20.1499 C   0  0  0  0  0  0  0  0  0  0  0  0
    5.0153    0.6477   21.1644 H   0  0  0  0  0  0  0  0  0  0  0  0
    4.7983    1.3015   19.0942 C   0  0  0  0  0  0  0  0  0  0  0  0
    3.8737    1.8439   19.2400 H   0  0  0  0  0  0  0  0  0  0  0  0
  1  2  1  0
  2  3  2  0
  3  4  1  0
  4  5  1  0
  4  6  2  0
  6  7  1  0
  7  8  2  0
  8  9  1  0
  9 10  2  0
 10 11  1  0
 10 12  1  0
 12 13  1  0
 12 14  2  0
 14 15  1  0
 15 16  1  0
 15 17  1  0
 15 18  1  0
 14 19  1  0
 19 20  1  0
 19 21  2  0
 21 22  1  0
  8 23  1  0
 23 24  1  0
 23 25  2  0
 25 26  1  0
 25 27  1  0
 27 28  2  0
 27 29  1  0
 29 30  1  0
  6 31  1  0
 31 32  1  0
 31 33  2  0
 33 34  1  0
 33  2  1  0
 29  7  1  0
 21  9  1  0
M  END
>  <cnnaffinity>  (1) 
-5.2958

>  <filename>  (1) 
O=c1ccc(-c2ccc(C(F)(F)F)cc2)c(-c2cccnc2)[nH]1

$$$$
