
     RDKit          3D

 34 37  0  0  0  0  0  0  0  0999 V2000
    4.9348    1.7933   16.9966 H   0  0  0  0  0  0  0  0  0  0  0  0
    5.4010    1.2927   17.8435 C   0  0  0  0  0  0  0  0  0  0  0  0
    6.5651    0.6760   17.5912 N   0  0  0  0  0  0  0  0  0  0  0  0
    7.1618    0.0419   18.6046 C   0  0  0  0  0  0  0  0  0  0  0  0
    8.1118   -0.4394   18.3711 H   0  0  0  0  0  0  0  0  0  0  0  0
    6.6413   -0.0066   19.9066 C   0  0  0  0  0  0  0  0  0  0  0  0
    7.3897   -0.7221   20.9490 C   0  0  0  0  0  0  0  0  0  0  0  0
    7.8651   -1.9253   20.7412 N   0  0  0  0  0  0  0  0  0  0  0  0
    8.4729   -2.3050   21.9170 O   0  0  0  0  0  0  0  0  0  0  0  0
    8.3700   -1.3063   22.7991 C   0  0  0  0  0  0  0  0  0  0  0  0
    8.8475   -1.4746   23.7564 H   0  0  0  0  0  0  0  0  0  0  0  0
    7.7004   -0.2565   22.2638 C   0  0  0  0  0  0  0  0  0  0  0  0
    7.4979    1.0953   22.8867 C   0  0  0  0  0  0  0  0  0  0  0  0
    8.4407    1.6541   22.9151 H   0  0  0  0  0  0  0  0  0  0  0  0
    6.7734    1.6948   22.3310 H   0  0  0  0  0  0  0  0  0  0  0  0
    7.0352    0.9678   24.2512 N   0  0  0  0  0  0  0  0  0  0  0  0
    7.8755    0.8474   25.3484 C   0  0  0  0  0  0  0  0  0  0  0  0
    9.0655    1.0504   25.3009 O   0  0  0  0  0  0  0  0  0  0  0  0
    7.0089    0.4297   26.4970 C   0  0  0  0  0  0  0  0  0  0  0  0
    7.3151    0.2080   27.8440 C   0  0  0  0  0  0  0  0  0  0  0  0
    8.3317    0.3313   28.2192 H   0  0  0  0  0  0  0  0  0  0  0  0
    6.2699   -0.1771   28.6941 C   0  0  0  0  0  0  0  0  0  0  0  0
    6.4564   -0.3557   29.7520 H   0  0  0  0  0  0  0  0  0  0  0  0
    4.9598   -0.3462   28.2017 C   0  0  0  0  0  0  0  0  0  0  0  0
    4.1764   -0.6590   28.8894 H   0  0  0  0  0  0  0  0  0  0  0  0
    4.6597   -0.1064   26.8557 C   0  0  0  0  0  0  0  0  0  0  0  0
    3.6425   -0.2218   26.4872 H   0  0  0  0  0  0  0  0  0  0  0  0
    5.7001    0.3089   26.0177 C   0  0  0  0  0  0  0  0  0  0  0  0
    5.7076    0.7534   24.5848 C   0  0  0  0  0  0  0  0  0  0  0  0
    4.7884    0.9899   23.8361 O   0  0  0  0  0  0  0  0  0  0  0  0
    5.4249    0.6437   20.1600 C   0  0  0  0  0  0  0  0  0  0  0  0
    4.9905    0.6430   21.1632 H   0  0  0  0  0  0  0  0  0  0  0  0
    4.7980    1.3040   19.1049 C   0  0  0  0  0  0  0  0  0  0  0  0
    3.8706    1.8428   19.2465 H   0  0  0  0  0  0  0  0  0  0  0  0
  1  2  1  0
  2  3  2  0
  3  4  1  0
  4  5  1  0
  4  6  2  0
  6  7  1  0
  7  8  2  0
  8  9  1  0
  9 10  1  0
 10 11  1  0
 10 12  2  0
 12 13  1  0
 13 14  1  0
 13 15  1  0
 13 16  1  0
 16 17  1  0
 17 18  2  0
 17 19  1  0
 19 20  2  0
 20 21  1  0
 20 22  1  0
 22 23  1  0
 22 24  2  0
 24 25  1  0
 24 26  1  0
 26 27  1  0
 26 28  2  0
 28 29  1  0
 29 30  2  0
  6 31  1  0
 31 32  1  0
 31 33  2  0
 33 34  1  0
 33  2  1  0
 12  7  1  0
 29 16  1  0
 28 19  1  0
M  END
>  <cnnaffinity>  (1) 
-5.24512

>  <filename>  (1) 
O=C1c2ccccc2C(=O)N1Cc1conc1-c1cccnc1

$$$$
