
     RDKit          3D

 35 37  0  0  0  0  0  0  0  0999 V2000
    4.8536    1.6416   16.8803 H   0  0  0  0  0  0  0  0  0  0  0  0
    5.4503    1.4239   17.7623 C   0  0  0  0  0  0  0  0  0  0  0  0
    6.6852    0.9507   17.5272 N   0  0  0  0  0  0  0  0  0  0  0  0
    7.4170    0.6258   18.5985 C   0  0  0  0  0  0  0  0  0  0  0  0
    8.4312    0.2724   18.3989 H   0  0  0  0  0  0  0  0  0  0  0  0
    6.9722    0.7095   19.9232 C   0  0  0  0  0  0  0  0  0  0  0  0
    7.7937    0.0655   21.0144 C   0  0  2  0  0  0  0  0  0  0  0  0
    8.6583   -0.4151   20.5386 H   0  0  0  0  0  0  0  0  0  0  0  0
    7.0403   -0.9561   21.7627 N   0  0  0  0  0  0  0  0  0  0  0  0
    6.3568   -1.9761   21.0989 C   0  0  0  0  0  0  0  0  0  0  0  0
    6.2120   -1.9355   19.8965 O   0  0  0  0  0  0  0  0  0  0  0  0
    5.9552   -3.0099   21.8771 N   0  0  0  0  0  0  0  0  0  0  0  0
    5.9742   -2.8051   22.8680 H   0  0  0  0  0  0  0  0  0  0  0  0
    5.6113   -4.2694   21.4361 C   0  0  0  0  0  0  0  0  0  0  0  0
    5.8668   -4.7124   20.1332 C   0  0  0  0  0  0  0  0  0  0  0  0
    6.2197   -4.0317   19.3765 H   0  0  0  0  0  0  0  0  0  0  0  0
    5.6443   -6.0558   19.8619 C   0  0  0  0  0  0  0  0  0  0  0  0
    5.8809   -6.4641   18.8813 H   0  0  0  0  0  0  0  0  0  0  0  0
    5.0974   -6.9114   20.7319 N   0  0  0  0  0  0  0  0  0  0  0  0
    4.7717   -6.4411   21.9400 C   0  0  0  0  0  0  0  0  0  0  0  0
    4.2574   -7.1313   22.6063 H   0  0  0  0  0  0  0  0  0  0  0  0
    5.0363   -5.1422   22.3590 C   0  0  0  0  0  0  0  0  0  0  0  0
    4.8080   -4.8056   23.3652 H   0  0  0  0  0  0  0  0  0  0  0  0
    6.9398   -0.7067   23.0972 C   0  0  0  0  0  0  0  0  0  0  0  0
    6.4214   -1.4497   23.9129 O   0  0  0  0  0  0  0  0  0  0  0  0
    7.5597    0.6282   23.3977 C   0  0  0  0  0  0  0  0  0  0  0  0
    6.7569    1.3015   23.7170 H   0  0  0  0  0  0  0  0  0  0  0  0
    8.2327    0.5066   24.2453 H   0  0  0  0  0  0  0  0  0  0  0  0
    8.2749    1.0435   22.1062 C   0  0  0  0  0  0  0  0  0  0  0  0
    8.0840    2.0830   21.8258 H   0  0  0  0  0  0  0  0  0  0  0  0
    9.3560    0.9385   22.2213 H   0  0  0  0  0  0  0  0  0  0  0  0
    5.7242    1.2976   20.1530 C   0  0  0  0  0  0  0  0  0  0  0  0
    5.3809    1.5070   21.1696 H   0  0  0  0  0  0  0  0  0  0  0  0
    4.9327    1.6258   19.0473 C   0  0  0  0  0  0  0  0  0  0  0  0
    3.9293    2.0210   19.1654 H   0  0  0  0  0  0  0  0  0  0  0  0
  1  2  1  0
  2  3  2  0
  3  4  1  0
  4  5  1  0
  4  6  2  0
  6  7  1  0
  7  8  1  6
  7  9  1  0
  9 10  1  0
 10 11  2  0
 10 12  1  0
 12 13  1  0
 12 14  1  0
 14 15  2  0
 15 16  1  0
 15 17  1  0
 17 18  1  0
 17 19  2  0
 19 20  1  0
 20 21  1  0
 20 22  2  0
 22 23  1  0
  9 24  1  0
 24 25  2  0
 24 26  1  0
 26 27  1  0
 26 28  1  0
 26 29  1  0
 29 30  1  0
 29 31  1  0
  6 32  1  0
 32 33  1  0
 32 34  2  0
 34 35  1  0
 34  2  1  0
 29  7  1  0
 22 14  1  0
M  END
>  <cnnaffinity>  (1) 
-5.25623

>  <filename>  (1) 
O=C1CC[C@H](c2cccnc2)N1C(=O)Nc1ccncc1

$$$$
