
     RDKit          3D

 33 35  0  0  0  0  0  0  0  0999 V2000
    4.9504    1.8937   16.9366 H   0  0  0  0  0  0  0  0  0  0  0  0
    5.3953    1.3571   17.7727 C   0  0  0  0  0  0  0  0  0  0  0  0
    6.5844    0.7842   17.5357 N   0  0  0  0  0  0  0  0  0  0  0  0
    7.1923    0.1654   18.5537 C   0  0  0  0  0  0  0  0  0  0  0  0
    8.1706   -0.2666   18.3433 H   0  0  0  0  0  0  0  0  0  0  0  0
    6.6350    0.0401   19.8398 C   0  0  0  0  0  0  0  0  0  0  0  0
    7.3920   -0.6447   20.9664 C   0  0  1  0  0  0  0  0  0  0  0  0
    6.8626   -0.4351   21.9111 H   0  0  0  0  0  0  0  0  0  0  0  0
    7.5512   -2.1959   20.9755 C   0  0  0  0  0  0  0  0  0  0  0  0
    6.7231   -3.0700   20.9298 O   0  0  0  0  0  0  0  0  0  0  0  0
    8.8887   -2.4032   21.1418 N   0  0  0  0  0  0  0  0  0  0  0  0
    9.3171   -3.2913   21.2976 H   0  0  0  0  0  0  0  0  0  0  0  0
    9.6393   -1.2579   21.2318 C   0  0  0  0  0  0  0  0  0  0  0  0
   10.8209   -1.2414   21.4629 O   0  0  0  0  0  0  0  0  0  0  0  0
    8.7890   -0.1919   21.0184 N   0  0  0  0  0  0  0  0  0  0  0  0
    9.1281    1.1306   21.5553 C   0  0  0  0  0  0  0  0  0  0  0  0
    8.5256    1.8875   21.0336 H   0  0  0  0  0  0  0  0  0  0  0  0
   10.1811    1.3309   21.3265 H   0  0  0  0  0  0  0  0  0  0  0  0
    8.8914    1.2062   23.0530 C   0  0  0  0  0  0  0  0  0  0  0  0
    7.6907    1.7129   23.5686 C   0  0  0  0  0  0  0  0  0  0  0  0
    6.9706    2.1758   22.8962 H   0  0  0  0  0  0  0  0  0  0  0  0
    7.4033    1.6230   24.9306 C   0  0  0  0  0  0  0  0  0  0  0  0
    6.4591    1.9803   25.3238 H   0  0  0  0  0  0  0  0  0  0  0  0
    8.3356    1.0608   25.8095 C   0  0  0  0  0  0  0  0  0  0  0  0
    7.9256    0.9206   27.4852 Cl  0  0  0  0  0  0  0  0  0  0  0  0
    9.5697    0.6131   25.3128 C   0  0  0  0  0  0  0  0  0  0  0  0
   10.7896   -0.0185   26.3581 Cl  0  0  0  0  0  0  0  0  0  0  0  0
    9.8362    0.6763   23.9438 C   0  0  0  0  0  0  0  0  0  0  0  0
   10.7725    0.2710   23.5680 H   0  0  0  0  0  0  0  0  0  0  0  0
    5.3843    0.6331   20.0632 C   0  0  0  0  0  0  0  0  0  0  0  0
    4.9151    0.5921   21.0478 H   0  0  0  0  0  0  0  0  0  0  0  0
    4.7581    1.3105   19.0140 C   0  0  0  0  0  0  0  0  0  0  0  0
    3.8159    1.8281   19.1506 H   0  0  0  0  0  0  0  0  0  0  0  0
  1  2  1  0
  2  3  2  0
  3  4  1  0
  4  5  1  0
  4  6  2  0
  6  7  1  0
  7  8  1  1
  7  9  1  0
  9 10  2  0
  9 11  1  0
 11 12  1  0
 11 13  1  0
 13 14  2  0
 13 15  1  0
 15 16  1  0
 16 17  1  0
 16 18  1  0
 16 19  1  0
 19 20  2  0
 20 21  1  0
 20 22  1  0
 22 23  1  0
 22 24  2  0
 24 25  1  0
 24 26  1  0
 26 27  1  0
 26 28  2  0
 28 29  1  0
  6 30  1  0
 30 31  1  0
 30 32  2  0
 32 33  1  0
 32  2  1  0
 15  7  1  0
 28 19  1  0
M  END
>  <cnnaffinity>  (1) 
-5.302

>  <filename>  (1) 
O=C1NC(=O)N(Cc2ccc(Cl)c(Cl)c2)[C@H]1c1cccnc1

$$$$
