
     RDKit          3D

 46 49  0  0  0  0  0  0  0  0999 V2000
    3.7043    3.9231   27.0773 O   0  0  0  0  0  0  0  0  0  0  0  0
    4.4954    3.2592   26.4274 C   0  0  0  0  0  0  0  0  0  0  0  0
    4.1892    2.1425   25.5438 C   0  0  0  0  0  0  0  0  0  0  0  0
    5.1818    1.5041   24.8649 C   0  0  0  0  0  0  0  0  0  0  0  0
    6.5569    1.9070   25.0026 C   0  0  0  0  0  0  0  0  0  0  0  0
    7.6263    1.2274   24.2080 C   0  0  0  0  0  0  0  0  0  0  0  0
    7.8069    1.7992   22.7788 C   0  0  0  0  0  0  0  0  0  0  0  0
    8.7986    0.9568   22.0751 C   0  0  0  0  0  0  0  0  0  0  0  0
   10.0964    1.0171   22.3219 N   0  0  0  0  0  0  0  0  0  0  0  0
   10.5515   -0.1581   21.8432 C   0  0  0  0  0  0  0  0  0  0  0  0
   11.9507   -0.5811   21.8092 C   0  0  0  0  0  0  0  0  0  0  0  0
   13.0381    0.2027   22.2314 C   0  0  0  0  0  0  0  0  0  0  0  0
   14.3075   -0.0806   21.7249 C   0  0  0  0  0  0  0  0  0  0  0  0
   14.4227   -1.1114   20.7718 C   0  0  0  0  0  0  0  0  0  0  0  0
   15.4448   -1.1551   19.9115 F   0  0  0  0  0  0  0  0  0  0  0  0
   13.4303   -2.0536   20.5771 C   0  0  0  0  0  0  0  0  0  0  0  0
   12.1958   -1.7837   21.1306 C   0  0  0  0  0  0  0  0  0  0  0  0
   11.3430   -2.4277   20.9897 H   0  0  0  0  0  0  0  0  0  0  0  0
   13.6210   -2.9226   19.9561 H   0  0  0  0  0  0  0  0  0  0  0  0
   15.1439    0.5752   21.9437 H   0  0  0  0  0  0  0  0  0  0  0  0
   12.8795    1.0616   22.8791 H   0  0  0  0  0  0  0  0  0  0  0  0
    9.6042   -0.9347   21.3256 N   0  0  0  0  0  0  0  0  0  0  0  0
    8.4896   -0.2034   21.4509 N   0  0  0  0  0  0  0  0  0  0  0  0
    7.2134   -0.7516   21.0042 C   0  0  0  0  0  0  0  0  0  0  0  0
    6.5374    0.0259   19.8972 C   0  0  0  0  0  0  0  0  0  0  0  0
    5.3168    0.6855   20.0757 C   0  0  0  0  0  0  0  0  0  0  0  0
    4.7473    1.3617   18.9930 C   0  0  0  0  0  0  0  0  0  0  0  0
    5.4230    1.3530   17.7692 C   0  0  0  0  0  0  0  0  0  0  0  0
    6.5900    0.7182   17.5760 N   0  0  0  0  0  0  0  0  0  0  0  0
    7.1269    0.0817   18.6233 C   0  0  0  0  0  0  0  0  0  0  0  0
    8.0765   -0.4206   18.4396 H   0  0  0  0  0  0  0  0  0  0  0  0
    5.0125    1.8741   16.9045 H   0  0  0  0  0  0  0  0  0  0  0  0
    3.8141    1.9057   19.0867 H   0  0  0  0  0  0  0  0  0  0  0  0
    4.8215    0.6714   21.0500 H   0  0  0  0  0  0  0  0  0  0  0  0
    7.4355   -1.7726   20.6755 H   0  0  0  0  0  0  0  0  0  0  0  0
    6.5549   -0.8252   21.8768 H   0  0  0  0  0  0  0  0  0  0  0  0
    6.8646    1.8164   22.2255 H   0  0  0  0  0  0  0  0  0  0  0  0
    8.1955    2.8181   22.8201 H   0  0  0  0  0  0  0  0  0  0  0  0
    7.3928    0.1562   24.1237 H   0  0  0  0  0  0  0  0  0  0  0  0
    8.5988    1.2774   24.7194 H   0  0  0  0  0  0  0  0  0  0  0  0
    6.8547    2.9358   25.8484 C   0  0  0  0  0  0  0  0  0  0  0  0
    5.8475    3.5757   26.5225 N   0  0  0  0  0  0  0  0  0  0  0  0
    5.9652    4.3553   27.1531 H   0  0  0  0  0  0  0  0  0  0  0  0
    7.8755    3.2726   26.0298 H   0  0  0  0  0  0  0  0  0  0  0  0
    4.9475    0.6623   24.2072 H   0  0  0  0  0  0  0  0  0  0  0  0
    3.1437    1.8760   25.4880 H   0  0  0  0  0  0  0  0  0  0  0  0
  1  2  2  0
  2  3  1  0
  3  4  2  0
  4  5  1  0
  5  6  1  0
  6  7  1  0
  7  8  1  0
  8  9  2  0
  9 10  1  0
 10 11  1  0
 11 12  2  0
 12 13  1  0
 13 14  2  0
 14 15  1  0
 14 16  1  0
 16 17  2  0
 17 18  1  0
 16 19  1  0
 13 20  1  0
 12 21  1  0
 10 22  2  0
 22 23  1  0
 23 24  1  0
 24 25  1  0
 25 26  2  0
 26 27  1  0
 27 28  2  0
 28 29  1  0
 29 30  2  0
 30 31  1  0
 28 32  1  0
 27 33  1  0
 26 34  1  0
 24 35  1  0
 24 36  1  0
  7 37  1  0
  7 38  1  0
  6 39  1  0
  6 40  1  0
  5 41  2  0
 41 42  1  0
 42 43  1  0
 41 44  1  0
  4 45  1  0
  3 46  1  0
 42  2  1  0
 23  8  1  0
 30 25  1  0
 17 11  1  0
M  END
>  <cnnaffinity>  (1) 
-6.60279

>  <filename>  (1) 
O=c1ccc(CCc2nc(-c3ccc(F)cc3)nn2Cc2cccnc2)c[nH]1

$$$$
