
     RDKit          3D

 29 31  0  0  0  0  0  0  0  0999 V2000
    4.9314    1.8195   16.8408 H   0  0  0  0  0  0  0  0  0  0  0  0
    5.3982    1.3179   17.6845 C   0  0  0  0  0  0  0  0  0  0  0  0
    6.5451    0.6670   17.4248 N   0  0  0  0  0  0  0  0  0  0  0  0
    7.1417    0.0239   18.4333 C   0  0  0  0  0  0  0  0  0  0  0  0
    8.0740   -0.4915   18.2053 H   0  0  0  0  0  0  0  0  0  0  0  0
    6.6289    0.0075   19.7486 C   0  0  0  0  0  0  0  0  0  0  0  0
    7.2765   -0.6847   20.7983 N   0  0  0  0  0  0  0  0  0  0  0  0
    7.3725   -0.3133   22.1502 C   0  0  0  0  0  0  0  0  0  0  0  0
    6.8030    0.6485   22.6508 O   0  0  0  0  0  0  0  0  0  0  0  0
    8.2643   -1.3251   22.7597 C   0  0  0  0  0  0  0  0  0  0  0  0
    8.6435   -1.2606   24.1783 C   0  0  0  0  0  0  0  0  0  0  0  0
    8.8560   -2.3855   24.9963 C   0  0  0  0  0  0  0  0  0  0  0  0
    8.8013   -3.3783   24.5667 H   0  0  0  0  0  0  0  0  0  0  0  0
    9.1408   -2.2456   26.3595 C   0  0  0  0  0  0  0  0  0  0  0  0
    9.2937   -3.1117   27.0022 H   0  0  0  0  0  0  0  0  0  0  0  0
    9.2523   -0.9560   26.8854 C   0  0  0  0  0  0  0  0  0  0  0  0
    9.6359   -0.7098   28.5468 Cl  0  0  0  0  0  0  0  0  0  0  0  0
    9.0700    0.1764   26.0933 C   0  0  0  0  0  0  0  0  0  0  0  0
    9.1582    1.1585   26.5447 H   0  0  0  0  0  0  0  0  0  0  0  0
    8.7654    0.0166   24.7520 C   0  0  0  0  0  0  0  0  0  0  0  0
    8.5970    0.8819   24.1231 H   0  0  0  0  0  0  0  0  0  0  0  0
    8.6026   -2.1870   21.7719 C   0  0  0  0  0  0  0  0  0  0  0  0
    9.2264   -3.0728   21.8122 H   0  0  0  0  0  0  0  0  0  0  0  0
    8.1037   -1.7802   20.5411 N   0  0  0  0  0  0  0  0  0  0  0  0
    7.6631   -2.4900   19.9573 H   0  0  0  0  0  0  0  0  0  0  0  0
    5.4430    0.7100   20.0145 C   0  0  0  0  0  0  0  0  0  0  0  0
    5.0656    0.7520   21.0329 H   0  0  0  0  0  0  0  0  0  0  0  0
    4.8123    1.3604   18.9538 C   0  0  0  0  0  0  0  0  0  0  0  0
    3.8906    1.9121   19.1059 H   0  0  0  0  0  0  0  0  0  0  0  0
  1  2  1  0
  2  3  2  0
  3  4  1  0
  4  5  1  0
  4  6  2  0
  6  7  1  0
  7  8  1  0
  8  9  2  0
  8 10  1  0
 10 11  1  0
 11 12  2  0
 12 13  1  0
 12 14  1  0
 14 15  1  0
 14 16  2  0
 16 17  1  0
 16 18  1  0
 18 19  1  0
 18 20  2  0
 20 21  1  0
 10 22  2  0
 22 23  1  0
 22 24  1  0
 24 25  1  0
  6 26  1  0
 26 27  1  0
 26 28  2  0
 28 29  1  0
 28  2  1  0
 24  7  1  0
 20 11  1  0
M  END
>  <cnnaffinity>  (1) 
-5.17809

>  <filename>  (1) 
O=c1c(-c2ccc(Cl)cc2)c[nH]n1-c1cccnc1

$$$$
