
     RDKit          3D

 32 34  0  0  0  0  0  0  0  0999 V2000
    4.9163    1.8037   16.9680 H   0  0  0  0  0  0  0  0  0  0  0  0
    5.3781    1.2989   17.8158 C   0  0  0  0  0  0  0  0  0  0  0  0
    6.5396    0.6754   17.5613 N   0  0  0  0  0  0  0  0  0  0  0  0
    7.1538    0.0790   18.5906 C   0  0  0  0  0  0  0  0  0  0  0  0
    8.0993   -0.4144   18.3617 H   0  0  0  0  0  0  0  0  0  0  0  0
    6.6637    0.0792   19.9149 C   0  0  0  0  0  0  0  0  0  0  0  0
    7.3783   -0.6179   21.0180 C   0  0  0  0  0  0  0  0  0  0  0  0
    7.7139   -1.9880   20.8389 C   0  0  0  0  0  0  0  0  0  0  0  0
    7.2967   -2.4361   19.9383 H   0  0  0  0  0  0  0  0  0  0  0  0
    8.4210   -2.6832   21.7794 C   0  0  0  0  0  0  0  0  0  0  0  0
    8.7488   -3.7033   21.6715 H   0  0  0  0  0  0  0  0  0  0  0  0
    8.7394   -2.0602   23.0619 C   0  0  0  0  0  0  0  0  0  0  0  0
    9.3007   -2.5804   24.0041 O   0  0  0  0  0  0  0  0  0  0  0  0
    8.3071   -0.7406   23.2075 N   0  0  0  0  0  0  0  0  0  0  0  0
    8.5099   -0.4190   24.1465 H   0  0  0  0  0  0  0  0  0  0  0  0
    7.6785   -0.0197   22.2329 C   0  0  0  0  0  0  0  0  0  0  0  0
    7.2660    1.2408   22.4764 O   0  0  0  0  0  0  0  0  0  0  0  0
    8.0193    2.1520   23.1984 C   0  0  0  0  0  0  0  0  0  0  0  0
    7.2894    3.2072   23.7581 C   0  0  0  0  0  0  0  0  0  0  0  0
    6.2181    3.2412   23.5758 H   0  0  0  0  0  0  0  0  0  0  0  0
    7.9426    4.1817   24.5172 C   0  0  0  0  0  0  0  0  0  0  0  0
    7.3914    5.0003   24.9717 H   0  0  0  0  0  0  0  0  0  0  0  0
    9.3293    4.1055   24.6861 C   0  0  0  0  0  0  0  0  0  0  0  0
   10.1303    5.3256   25.6298 Cl  0  0  0  0  0  0  0  0  0  0  0  0
   10.0677    3.0786   24.0957 C   0  0  0  0  0  0  0  0  0  0  0  0
   11.1434    3.0402   24.2382 H   0  0  0  0  0  0  0  0  0  0  0  0
    9.4164    2.1020   23.3302 C   0  0  0  0  0  0  0  0  0  0  0  0
    9.9904    1.3208   22.8393 H   0  0  0  0  0  0  0  0  0  0  0  0
    5.4372    0.7088   20.1480 C   0  0  0  0  0  0  0  0  0  0  0  0
    5.0259    0.6937   21.1570 H   0  0  0  0  0  0  0  0  0  0  0  0
    4.7821    1.3264   19.0815 C   0  0  0  0  0  0  0  0  0  0  0  0
    3.8472    1.8528   19.2233 H   0  0  0  0  0  0  0  0  0  0  0  0
  1  2  1  0
  2  3  2  0
  3  4  1  0
  4  5  1  0
  4  6  2  0
  6  7  1  0
  7  8  1  0
  8  9  1  0
  8 10  2  0
 10 11  1  0
 10 12  1  0
 12 13  2  0
 12 14  1  0
 14 15  1  0
 14 16  1  0
 16 17  1  0
 17 18  1  0
 18 19  2  0
 19 20  1  0
 19 21  1  0
 21 22  1  0
 21 23  2  0
 23 24  1  0
 23 25  1  0
 25 26  1  0
 25 27  2  0
 27 28  1  0
  6 29  1  0
 29 30  1  0
 29 31  2  0
 31 32  1  0
 31  2  1  0
 16  7  2  0
 27 18  1  0
M  END
>  <cnnaffinity>  (1) 
-5.18766

>  <filename>  (1) 
O=c1ccc(-c2cccnc2)c(Oc2ccc(Cl)cc2)[nH]1

$$$$
