
     RDKit          3D

 35 37  0  0  0  0  0  0  0  0999 V2000
    5.0183    1.8592   16.9947 H   0  0  0  0  0  0  0  0  0  0  0  0
    5.5067    1.3184   17.8025 C   0  0  0  0  0  0  0  0  0  0  0  0
    6.6681    0.7164   17.4986 N   0  0  0  0  0  0  0  0  0  0  0  0
    7.3033    0.0373   18.4613 C   0  0  0  0  0  0  0  0  0  0  0  0
    8.2466   -0.4346   18.1719 H   0  0  0  0  0  0  0  0  0  0  0  0
    6.7901   -0.0873   19.7732 C   0  0  0  0  0  0  0  0  0  0  0  0
    7.4298   -0.8727   20.7813 N   0  0  0  0  0  0  0  0  0  0  0  0
    8.7665   -0.7706   21.1449 C   0  0  0  0  0  0  0  0  0  0  0  0
    9.3935   -0.0556   20.6242 H   0  0  0  0  0  0  0  0  0  0  0  0
    9.0147   -1.6216   22.1589 C   0  0  0  0  0  0  0  0  0  0  0  0
   10.6757   -1.7842   22.8621 S   0  0  0  0  0  0  0  0  0  0  0  0
   10.7069   -2.9927   23.6556 O   0  0  0  0  0  0  0  0  0  0  0  0
   11.6065   -1.4888   21.7950 O   0  0  0  0  0  0  0  0  0  0  0  0
   10.7585   -0.5070   23.9300 N   0  0  0  0  0  0  0  0  0  0  0  0
   11.0184    0.8459   23.3916 C   0  0  0  0  0  0  0  0  0  0  0  0
   11.8562    0.7994   22.6897 H   0  0  0  0  0  0  0  0  0  0  0  0
   10.1403    1.2582   22.8629 H   0  0  0  0  0  0  0  0  0  0  0  0
   11.4053    1.7865   24.5473 C   0  0  0  0  0  0  0  0  0  0  0  0
   12.4117    1.5171   24.9064 H   0  0  0  0  0  0  0  0  0  0  0  0
   11.4314    2.8213   24.1933 H   0  0  0  0  0  0  0  0  0  0  0  0
   10.4643    1.7669   25.6112 O   0  0  0  0  0  0  0  0  0  0  0  0
   10.2382    0.4613   26.1227 C   0  0  0  0  0  0  0  0  0  0  0  0
   11.1450    0.0717   26.6080 H   0  0  0  0  0  0  0  0  0  0  0  0
    9.4522    0.5601   26.8756 H   0  0  0  0  0  0  0  0  0  0  0  0
    9.7842   -0.5278   25.0399 C   0  0  0  0  0  0  0  0  0  0  0  0
    8.7712   -0.2498   24.7020 H   0  0  0  0  0  0  0  0  0  0  0  0
    9.7474   -1.5294   25.4809 H   0  0  0  0  0  0  0  0  0  0  0  0
    7.7759   -2.2708   22.4213 N   0  0  0  0  0  0  0  0  0  0  0  0
    7.4907   -2.9321   23.1262 H   0  0  0  0  0  0  0  0  0  0  0  0
    6.7776   -1.8344   21.5797 C   0  0  0  0  0  0  0  0  0  0  0  0
    5.6357   -2.2425   21.5692 O   0  0  0  0  0  0  0  0  0  0  0  0
    5.5886    0.5629   20.0830 C   0  0  0  0  0  0  0  0  0  0  0  0
    5.1971    0.4991   21.0988 H   0  0  0  0  0  0  0  0  0  0  0  0
    4.9359    1.2779   19.0785 C   0  0  0  0  0  0  0  0  0  0  0  0
    4.0060    1.8009   19.2728 H   0  0  0  0  0  0  0  0  0  0  0  0
  1  2  1  0
  2  3  2  0
  3  4  1  0
  4  5  1  0
  4  6  2  0
  6  7  1  0
  7  8  1  0
  8  9  1  0
  8 10  2  0
 10 11  1  0
 11 12  2  0
 11 13  2  0
 11 14  1  0
 14 15  1  0
 15 16  1  0
 15 17  1  0
 15 18  1  0
 18 19  1  0
 18 20  1  0
 18 21  1  0
 21 22  1  0
 22 23  1  0
 22 24  1  0
 22 25  1  0
 25 26  1  0
 25 27  1  0
 10 28  1  0
 28 29  1  0
 28 30  1  0
 30 31  2  0
  6 32  1  0
 32 33  1  0
 32 34  2  0
 34 35  1  0
 34  2  1  0
 30  7  1  0
 25 14  1  0
M  END
>  <cnnaffinity>  (1) 
-5.50058

>  <filename>  (1) 
O=c1[nH]c(S(=O)(=O)N2CCOCC2)cn1-c1cccnc1

$$$$
