
     RDKit          3D

 30 32  0  0  0  0  0  0  0  0999 V2000
    4.9125    1.7819   16.8890 H   0  0  0  0  0  0  0  0  0  0  0  0
    5.3584    1.3693   17.7887 C   0  0  0  0  0  0  0  0  0  0  0  0
    6.5714    0.8232   17.6274 N   0  0  0  0  0  0  0  0  0  0  0  0
    7.1547    0.2962   18.7107 C   0  0  0  0  0  0  0  0  0  0  0  0
    8.1401   -0.1348   18.5363 H   0  0  0  0  0  0  0  0  0  0  0  0
    6.5793    0.3014   19.9983 C   0  0  0  0  0  0  0  0  0  0  0  0
    7.2631   -0.4271   21.1021 C   0  0  0  0  0  0  0  0  0  0  0  0
    7.5336    0.4322   22.6028 S   0  0  0  0  0  0  0  0  0  0  0  0
    8.2397   -0.8169   23.6146 C   0  0  0  0  0  0  0  0  0  0  0  0
    8.3779   -0.4351   25.0503 C   0  0  0  0  0  0  0  0  0  0  0  0
    7.2219   -0.2925   25.8449 C   0  0  0  0  0  0  0  0  0  0  0  0
    6.2597   -0.3734   25.3482 H   0  0  0  0  0  0  0  0  0  0  0  0
    7.3062   -0.0732   27.2214 C   0  0  0  0  0  0  0  0  0  0  0  0
    6.4014    0.0386   27.8137 H   0  0  0  0  0  0  0  0  0  0  0  0
    8.5651   -0.0057   27.8243 C   0  0  0  0  0  0  0  0  0  0  0  0
    8.6577    0.1631   28.8913 H   0  0  0  0  0  0  0  0  0  0  0  0
    9.7234   -0.1391   27.0572 C   0  0  0  0  0  0  0  0  0  0  0  0
   10.7080   -0.0837   27.5036 H   0  0  0  0  0  0  0  0  0  0  0  0
    9.6302   -0.3139   25.6788 C   0  0  0  0  0  0  0  0  0  0  0  0
   11.1129   -0.3207   24.7730 Cl  0  0  0  0  0  0  0  0  0  0  0  0
    8.5975   -2.0457   23.1925 C   0  0  0  0  0  0  0  0  0  0  0  0
    9.1063   -2.7368   23.8645 H   0  0  0  0  0  0  0  0  0  0  0  0
    8.2837   -2.5958   21.8745 C   0  0  0  0  0  0  0  0  0  0  0  0
    8.5301   -3.7606   21.5894 O   0  0  0  0  0  0  0  0  0  0  0  0
    7.6396   -1.7046   20.9089 C   0  0  0  0  0  0  0  0  0  0  0  0
    7.4430   -2.1603   19.9520 H   0  0  0  0  0  0  0  0  0  0  0  0
    5.3285    0.9150   20.1512 C   0  0  0  0  0  0  0  0  0  0  0  0
    4.8732    0.9829   21.1406 H   0  0  0  0  0  0  0  0  0  0  0  0
    4.7019    1.4388   19.0198 C   0  0  0  0  0  0  0  0  0  0  0  0
    3.7368    1.9262   19.0802 H   0  0  0  0  0  0  0  0  0  0  0  0
  1  2  1  0
  2  3  2  0
  3  4  1  0
  4  5  1  0
  4  6  2  0
  6  7  1  0
  7  8  1  0
  8  9  1  0
  9 10  1  0
 10 11  2  0
 11 12  1  0
 11 13  1  0
 13 14  1  0
 13 15  2  0
 15 16  1  0
 15 17  1  0
 17 18  1  0
 17 19  2  0
 19 20  1  0
  9 21  2  0
 21 22  1  0
 21 23  1  0
 23 24  2  0
 23 25  1  0
 25 26  1  0
  6 27  1  0
 27 28  1  0
 27 29  2  0
 29 30  1  0
 29  2  1  0
 25  7  2  0
 19 10  1  0
M  END
>  <cnnaffinity>  (1) 
-5.49435

>  <filename>  (1) 
O=c1cc(-c2cccnc2)sc(-c2ccccc2Cl)c1

$$$$
