
     RDKit          3D

 34 37  0  0  0  0  0  0  0  0999 V2000
    4.9090    1.7784   16.9997 H   0  0  0  0  0  0  0  0  0  0  0  0
    5.3973    1.2939   17.8421 C   0  0  0  0  0  0  0  0  0  0  0  0
    6.5612    0.6765   17.5780 N   0  0  0  0  0  0  0  0  0  0  0  0
    7.1786    0.0584   18.5909 C   0  0  0  0  0  0  0  0  0  0  0  0
    8.1279   -0.4279   18.3793 H   0  0  0  0  0  0  0  0  0  0  0  0
    6.6672    0.0032   19.9059 C   0  0  0  0  0  0  0  0  0  0  0  0
    7.3593   -0.6788   20.9452 N   0  0  0  0  0  0  0  0  0  0  0  0
    6.7649   -1.4459   21.9358 C   0  0  0  0  0  0  0  0  0  0  0  0
    5.7010   -1.6205   21.9834 H   0  0  0  0  0  0  0  0  0  0  0  0
    7.7350   -1.9391   22.7409 C   0  0  0  0  0  0  0  0  0  0  0  0
    7.6367   -2.8558   23.8632 C   0  0  0  0  0  0  0  0  0  0  0  0
    8.4326   -3.9868   23.9040 C   0  0  0  0  0  0  0  0  0  0  0  0
    9.1711   -4.1469   23.1200 H   0  0  0  0  0  0  0  0  0  0  0  0
    8.2765   -4.9449   24.9286 C   0  0  0  0  0  0  0  0  0  0  0  0
    8.9166   -5.8241   24.9228 H   0  0  0  0  0  0  0  0  0  0  0  0
    7.3272   -4.7601   25.9132 C   0  0  0  0  0  0  0  0  0  0  0  0
    7.1906   -5.4864   26.7046 H   0  0  0  0  0  0  0  0  0  0  0  0
    6.5000   -3.5977   25.9287 C   0  0  0  0  0  0  0  0  0  0  0  0
    5.5810   -3.4618   26.9452 N   0  0  0  0  0  0  0  0  0  0  0  0
    4.8505   -2.3694   26.9655 C   0  0  0  0  0  0  0  0  0  0  0  0
    4.1271   -2.2650   27.7743 H   0  0  0  0  0  0  0  0  0  0  0  0
    4.9497   -1.3184   26.0108 C   0  0  0  0  0  0  0  0  0  0  0  0
    4.3223   -0.4375   26.0949 H   0  0  0  0  0  0  0  0  0  0  0  0
    5.8586   -1.4343   24.9914 C   0  0  0  0  0  0  0  0  0  0  0  0
    5.9811   -0.6395   24.2553 H   0  0  0  0  0  0  0  0  0  0  0  0
    6.6637   -2.6168   24.8978 C   0  0  0  0  0  0  0  0  0  0  0  0
    8.9384   -1.4923   22.2177 N   0  0  0  0  0  0  0  0  0  0  0  0
    9.8614   -1.6476   22.5729 H   0  0  0  0  0  0  0  0  0  0  0  0
    8.7554   -0.6859   21.1266 C   0  0  0  0  0  0  0  0  0  0  0  0
    9.6095   -0.1264   20.4713 O   0  0  0  0  0  0  0  0  0  0  0  0
    5.4481    0.6433   20.1637 C   0  0  0  0  0  0  0  0  0  0  0  0
    5.0200    0.6277   21.1673 H   0  0  0  0  0  0  0  0  0  0  0  0
    4.8092    1.3102   19.1119 C   0  0  0  0  0  0  0  0  0  0  0  0
    3.8748    1.8429   19.2659 H   0  0  0  0  0  0  0  0  0  0  0  0
  1  2  1  0
  2  3  2  0
  3  4  1  0
  4  5  1  0
  4  6  2  0
  6  7  1  0
  7  8  1  0
  8  9  1  0
  8 10  2  0
 10 11  1  0
 11 12  2  0
 12 13  1  0
 12 14  1  0
 14 15  1  0
 14 16  2  0
 16 17  1  0
 16 18  1  0
 18 19  2  0
 19 20  1  0
 20 21  1  0
 20 22  2  0
 22 23  1  0
 22 24  1  0
 24 25  1  0
 24 26  2  0
 10 27  1  0
 27 28  1  0
 27 29  1  0
 29 30  2  0
  6 31  1  0
 31 32  1  0
 31 33  2  0
 33 34  1  0
 33  2  1  0
 29  7  1  0
 26 11  1  0
 26 18  1  0
M  END
>  <cnnaffinity>  (1) 
-5.69132

>  <filename>  (1) 
O=c1[nH]c(-c2cccc3ncccc23)cn1-c1cccnc1

$$$$
