
     RDKit          3D

 35 37  0  0  0  0  0  0  0  0999 V2000
    5.0024    1.7993   16.7860 H   0  0  0  0  0  0  0  0  0  0  0  0
    5.4711    1.2898   17.6263 C   0  0  0  0  0  0  0  0  0  0  0  0
    6.5966    0.6143   17.3474 N   0  0  0  0  0  0  0  0  0  0  0  0
    7.1909   -0.0335   18.3533 C   0  0  0  0  0  0  0  0  0  0  0  0
    8.1185   -0.5541   18.1230 H   0  0  0  0  0  0  0  0  0  0  0  0
    6.6967   -0.0374   19.6628 C   0  0  0  0  0  0  0  0  0  0  0  0
    7.4237   -0.7537   20.7724 C   0  0  0  0  0  0  0  0  0  0  0  0
    8.5477   -1.3755   20.2873 F   0  0  0  0  0  0  0  0  0  0  0  0
    6.6291   -1.7654   21.2424 F   0  0  0  0  0  0  0  0  0  0  0  0
    7.8553    0.2220   21.9638 C   0  0  0  0  0  0  0  0  0  0  0  0
    8.0176    1.4099   21.7574 O   0  0  0  0  0  0  0  0  0  0  0  0
    8.0099   -0.3440   23.2136 N   0  0  0  0  0  0  0  0  0  0  0  0
    8.6544   -1.1282   23.2073 H   0  0  0  0  0  0  0  0  0  0  0  0
    8.3667    0.5358   24.3004 C   0  0  0  0  0  0  0  0  0  0  0  0
    8.3627   -0.0501   25.2237 H   0  0  0  0  0  0  0  0  0  0  0  0
    7.6489    1.3521   24.3922 H   0  0  0  0  0  0  0  0  0  0  0  0
    9.6809    1.0711   24.0679 N   0  0  0  0  0  0  0  0  0  0  0  0
   10.7372    0.2620   23.7205 C   0  0  0  0  0  0  0  0  0  0  0  0
   10.6708   -0.9509   23.6968 O   0  0  0  0  0  0  0  0  0  0  0  0
   11.8776    1.1545   23.4226 C   0  0  0  0  0  0  0  0  0  0  0  0
   13.1899    0.8410   23.0785 C   0  0  0  0  0  0  0  0  0  0  0  0
   13.5240   -0.1919   23.0233 H   0  0  0  0  0  0  0  0  0  0  0  0
   14.0595    1.9035   22.8407 C   0  0  0  0  0  0  0  0  0  0  0  0
   15.0883    1.6928   22.5641 H   0  0  0  0  0  0  0  0  0  0  0  0
   13.6297    3.2456   22.9527 C   0  0  0  0  0  0  0  0  0  0  0  0
   14.3171    4.0622   22.7388 H   0  0  0  0  0  0  0  0  0  0  0  0
   12.3169    3.5422   23.3294 C   0  0  0  0  0  0  0  0  0  0  0  0
   11.9932    4.5738   23.4389 H   0  0  0  0  0  0  0  0  0  0  0  0
   11.4554    2.4720   23.5956 C   0  0  0  0  0  0  0  0  0  0  0  0
   10.0320    2.4133   24.0656 C   0  0  0  0  0  0  0  0  0  0  0  0
    9.3148    3.3083   24.4426 O   0  0  0  0  0  0  0  0  0  0  0  0
    5.5334    0.6881   19.9540 C   0  0  0  0  0  0  0  0  0  0  0  0
    5.1412    0.7527   20.9725 H   0  0  0  0  0  0  0  0  0  0  0  0
    4.9116    1.3666   18.9071 C   0  0  0  0  0  0  0  0  0  0  0  0
    4.0149    1.9557   19.0663 H   0  0  0  0  0  0  0  0  0  0  0  0
  1  2  1  0
  2  3  2  0
  3  4  1  0
  4  5  1  0
  4  6  2  0
  6  7  1  0
  7  8  1  0
  7  9  1  0
  7 10  1  0
 10 11  2  0
 10 12  1  0
 12 13  1  0
 12 14  1  0
 14 15  1  0
 14 16  1  0
 14 17  1  0
 17 18  1  0
 18 19  2  0
 18 20  1  0
 20 21  2  0
 21 22  1  0
 21 23  1  0
 23 24  1  0
 23 25  2  0
 25 26  1  0
 25 27  1  0
 27 28  1  0
 27 29  2  0
 29 30  1  0
 30 31  2  0
  6 32  1  0
 32 33  1  0
 32 34  2  0
 34 35  1  0
 34  2  1  0
 30 17  1  0
 29 20  1  0
M  END
>  <cnnaffinity>  (1) 
-5.50342

>  <filename>  (1) 
O=C1c2ccccc2C(=O)N1CNC(=O)C(F)(F)c1cccnc1

$$$$
