
     RDKit          3D

 45 48  0  0  0  0  0  0  0  0999 V2000
    3.4756    3.9944   27.4735 O   0  0  0  0  0  0  0  0  0  0  0  0
    4.1956    3.3652   26.7139 C   0  0  0  0  0  0  0  0  0  0  0  0
    3.7991    2.2875   25.8167 C   0  0  0  0  0  0  0  0  0  0  0  0
    4.7233    1.6464   25.0448 C   0  0  0  0  0  0  0  0  0  0  0  0
    6.1143    2.0167   25.0911 C   0  0  0  0  0  0  0  0  0  0  0  0
    7.1367    1.2801   24.2741 C   0  0  0  0  0  0  0  0  0  0  0  0
    7.0950    1.6019   22.7613 C   0  0  0  0  0  0  0  0  0  0  0  0
    8.2257    0.9156   22.0780 C   0  0  0  0  0  0  0  0  0  0  0  0
    9.4899    1.2256   22.3053 N   0  0  0  0  0  0  0  0  0  0  0  0
   10.1643    0.1921   21.7497 C   0  0  0  0  0  0  0  0  0  0  0  0
   11.5902    0.0184   21.9674 C   0  0  0  0  0  0  0  0  0  0  0  0
   12.3207   -1.0471   21.4095 C   0  0  0  0  0  0  0  0  0  0  0  0
   13.6616   -1.1130   21.7302 C   0  0  0  0  0  0  0  0  0  0  0  0
   14.4171   -2.0968   21.2342 F   0  0  0  0  0  0  0  0  0  0  0  0
   14.2262   -0.1524   22.5724 C   0  0  0  0  0  0  0  0  0  0  0  0
   13.5188    0.8238   23.1426 N   0  0  0  0  0  0  0  0  0  0  0  0
   12.2213    0.9126   22.8458 C   0  0  0  0  0  0  0  0  0  0  0  0
   11.6719    1.7126   23.3381 H   0  0  0  0  0  0  0  0  0  0  0  0
   15.2817   -0.1674   22.7739 H   0  0  0  0  0  0  0  0  0  0  0  0
   11.8861   -1.7853   20.7363 H   0  0  0  0  0  0  0  0  0  0  0  0
    9.4006   -0.7128   21.1671 N   0  0  0  0  0  0  0  0  0  0  0  0
    8.1545   -0.2488   21.3961 N   0  0  0  0  0  0  0  0  0  0  0  0
    6.9856   -0.9541   20.8825 C   0  0  0  0  0  0  0  0  0  0  0  0
    6.3460   -0.1888   19.7443 C   0  0  0  0  0  0  0  0  0  0  0  0
    5.1297    0.4907   19.8699 C   0  0  0  0  0  0  0  0  0  0  0  0
    4.7056    1.3032   18.8145 C   0  0  0  0  0  0  0  0  0  0  0  0
    5.5076    1.3929   17.6731 C   0  0  0  0  0  0  0  0  0  0  0  0
    6.6608    0.7231   17.5182 N   0  0  0  0  0  0  0  0  0  0  0  0
    7.0656   -0.0301   18.5473 C   0  0  0  0  0  0  0  0  0  0  0  0
    8.0309   -0.5240   18.4299 H   0  0  0  0  0  0  0  0  0  0  0  0
    5.2187    2.0408   16.8495 H   0  0  0  0  0  0  0  0  0  0  0  0
    3.7921    1.8842   18.8837 H   0  0  0  0  0  0  0  0  0  0  0  0
    4.5408    0.4180   20.7887 H   0  0  0  0  0  0  0  0  0  0  0  0
    6.2709   -1.1103   21.7020 H   0  0  0  0  0  0  0  0  0  0  0  0
    7.3491   -1.9405   20.5728 H   0  0  0  0  0  0  0  0  0  0  0  0
    6.1357    1.3186   22.3170 H   0  0  0  0  0  0  0  0  0  0  0  0
    7.2218    2.6776   22.6077 H   0  0  0  0  0  0  0  0  0  0  0  0
    8.1472    1.5181   24.6384 H   0  0  0  0  0  0  0  0  0  0  0  0
    7.0101    0.1963   24.4183 H   0  0  0  0  0  0  0  0  0  0  0  0
    6.4857    3.0487   25.9028 C   0  0  0  0  0  0  0  0  0  0  0  0
    5.5473    3.6917   26.6710 N   0  0  0  0  0  0  0  0  0  0  0  0
    5.7384    4.4294   27.3324 H   0  0  0  0  0  0  0  0  0  0  0  0
    7.5173    3.3908   25.9799 H   0  0  0  0  0  0  0  0  0  0  0  0
    4.4216    0.8281   24.3856 H   0  0  0  0  0  0  0  0  0  0  0  0
    2.7475    2.0413   25.8371 H   0  0  0  0  0  0  0  0  0  0  0  0
  1  2  2  0
  2  3  1  0
  3  4  2  0
  4  5  1  0
  5  6  1  0
  6  7  1  0
  7  8  1  0
  8  9  2  0
  9 10  1  0
 10 11  1  0
 11 12  2  0
 12 13  1  0
 13 14  1  0
 13 15  2  0
 15 16  1  0
 16 17  2  0
 17 18  1  0
 15 19  1  0
 12 20  1  0
 10 21  2  0
 21 22  1  0
 22 23  1  0
 23 24  1  0
 24 25  2  0
 25 26  1  0
 26 27  2  0
 27 28  1  0
 28 29  2  0
 29 30  1  0
 27 31  1  0
 26 32  1  0
 25 33  1  0
 23 34  1  0
 23 35  1  0
  7 36  1  0
  7 37  1  0
  6 38  1  0
  6 39  1  0
  5 40  2  0
 40 41  1  0
 41 42  1  0
 40 43  1  0
  4 44  1  0
  3 45  1  0
 41  2  1  0
 22  8  1  0
 29 24  1  0
 17 11  1  0
M  END
>  <cnnaffinity>  (1) 
-6.55524

>  <filename>  (1) 
O=c1ccc(CCc2nc(-c3cncc(F)c3)nn2Cc2cccnc2)c[nH]1

$$$$
