
     RDKit          3D

 36 37  0  0  0  0  0  0  0  0999 V2000
    3.3778   -5.3327   22.4225 H   0  0  0  0  0  0  0  0  0  0  0  0
    3.5619   -4.3504   22.2616 O   0  0  0  0  0  0  0  0  0  0  0  0
    4.8770   -4.8616   22.5479 P   0  0  0  0  0  0  0  0  0  0  0  0
    4.0020   -6.0286   22.6859 O   0  0  0  0  0  0  0  0  0  0  0  0
    5.6112   -5.9274   21.9467 O   0  0  0  0  0  0  0  0  0  0  0  0
    4.7580   -6.3997   22.2077 H   0  0  0  0  0  0  0  0  0  0  0  0
    5.9009   -3.6763   23.3310 C   0  0  0  0  0  0  0  0  0  0  0  0
    5.4422   -2.6983   23.2639 H   0  0  0  0  0  0  0  0  0  0  0  0
    7.4288   -3.4930   23.1792 N   0  0  0  0  0  0  0  0  0  0  0  0
    8.0891   -3.8411   23.8996 H   0  0  0  0  0  0  0  0  0  0  0  0
    7.9105   -2.3699   22.4553 C   0  0  0  0  0  0  0  0  0  0  0  0
    7.1106   -1.6994   21.5377 C   0  0  0  0  0  0  0  0  0  0  0  0
    6.0877   -2.0415   21.3847 H   0  0  0  0  0  0  0  0  0  0  0  0
    7.6228   -0.6271   20.7717 N   0  0  0  0  0  0  0  0  0  0  0  0
    6.8347   -0.0558   19.7458 C   0  0  0  0  0  0  0  0  0  0  0  0
    7.3096    0.0849   18.4190 C   0  0  0  0  0  0  0  0  0  0  0  0
    8.2972   -0.3026   18.1898 H   0  0  0  0  0  0  0  0  0  0  0  0
    6.6158    0.6792   17.4273 N   0  0  0  0  0  0  0  0  0  0  0  0
    5.4056    1.1824   17.7313 C   0  0  0  0  0  0  0  0  0  0  0  0
    4.8434    1.6917   16.9558 H   0  0  0  0  0  0  0  0  0  0  0  0
    4.8485    1.0806   19.0137 C   0  0  0  0  0  0  0  0  0  0  0  0
    3.8746    1.5217   19.2048 H   0  0  0  0  0  0  0  0  0  0  0  0
    5.5638    0.4457   20.0349 C   0  0  0  0  0  0  0  0  0  0  0  0
    5.1635    0.3744   21.0443 H   0  0  0  0  0  0  0  0  0  0  0  0
    8.9169   -0.1554   21.0272 C   0  0  0  0  0  0  0  0  0  0  0  0
    9.4410    0.7502   20.4069 O   0  0  0  0  0  0  0  0  0  0  0  0
    9.6889   -0.6844   22.0035 N   0  0  0  0  0  0  0  0  0  0  0  0
   10.6668   -0.4401   22.0204 H   0  0  0  0  0  0  0  0  0  0  0  0
    9.2881   -1.8197   22.6315 C   0  0  0  0  0  0  0  0  0  0  0  0
   10.1507   -2.3039   23.3429 O   0  0  0  0  0  0  0  0  0  0  0  0
    4.9471   -4.5709   24.5055 P   0  0  0  0  0  0  0  0  0  0  0  0
    3.6445   -5.1965   24.7189 O   0  0  0  0  0  0  0  0  0  0  0  0
    4.2824   -3.6336   25.3348 O   0  0  0  0  0  0  0  0  0  0  0  0
    3.6150   -4.3875   25.2566 H   0  0  0  0  0  0  0  0  0  0  0  0
    5.2887   -5.9425   24.8417 O   0  0  0  0  0  0  0  0  0  0  0  0
    4.2742   -5.9253   24.9328 H   0  0  0  0  0  0  0  0  0  0  0  0
  1  2  1  0
  2  3  1  0
  3  4  2  0
  3  5  1  0
  5  6  1  0
  3  7  1  0
  7  8  1  0
  7  9  1  0
  9 10  1  0
  9 11  1  0
 11 12  2  0
 12 13  1  0
 12 14  1  0
 14 15  1  0
 15 16  2  0
 16 17  1  0
 16 18  1  0
 18 19  2  0
 19 20  1  0
 19 21  1  0
 21 22  1  0
 21 23  2  0
 23 24  1  0
 14 25  1  0
 25 26  2  0
 25 27  1  0
 27 28  1  0
 27 29  1  0
 29 30  2  0
  7 31  1  0
 31 32  2  0
 31 33  1  0
 33 34  1  0
 31 35  1  0
 35 36  1  0
 29 11  1  0
 23 15  1  0
M  END
>  <cnnaffinity>  (1) 
-5.22268

>  <filename>  (1) 
O=c1[nH]c(=O)n(-c2cccnc2)cc1NC(P(=O)(O)O)P(=O)(O)O

$$$$
