
     RDKit          3D

 47 51  0  0  0  0  0  0  0  0999 V2000
    1.8543    3.9641   25.3743 O   0  0  0  0  0  0  0  0  0  0  0  0
    2.8663    3.3934   25.0891 C   0  0  0  0  0  0  0  0  0  0  0  0
    3.5841    3.5154   23.9278 N   0  0  0  0  0  0  0  0  0  0  0  0
    4.7048    2.7108   23.9641 C   0  0  0  0  0  0  0  0  0  0  0  0
    5.7430    2.4872   23.0766 C   0  0  0  0  0  0  0  0  0  0  0  0
    6.7366    1.5691   23.4469 C   0  0  0  0  0  0  0  0  0  0  0  0
    7.8736    1.2716   22.4813 C   0  0  0  0  0  0  0  0  0  0  0  0
    7.9126   -0.1600   22.0561 C   0  0  0  0  0  0  0  0  0  0  0  0
    8.4769   -1.1214   22.7487 N   0  0  0  0  0  0  0  0  0  0  0  0
    8.2303   -2.2297   22.0068 C   0  0  0  0  0  0  0  0  0  0  0  0
    8.6009   -3.6145   22.4551 C   0  0  0  0  0  0  0  0  0  0  0  0
    9.8654   -3.6101   23.3375 C   0  0  0  0  0  0  0  0  0  0  0  0
    9.6324   -3.2207   24.7668 C   0  0  0  0  0  0  0  0  0  0  0  0
    8.4376   -3.2962   25.3553 C   0  0  0  0  0  0  0  0  0  0  0  0
    7.1799   -3.6388   24.5808 C   0  0  0  0  0  0  0  0  0  0  0  0
    7.4546   -4.3197   23.2247 C   0  0  0  0  0  0  0  0  0  0  0  0
    6.5518   -4.3283   22.6021 H   0  0  0  0  0  0  0  0  0  0  0  0
    7.7436   -5.3704   23.3751 H   0  0  0  0  0  0  0  0  0  0  0  0
    6.6365   -2.6979   24.4082 H   0  0  0  0  0  0  0  0  0  0  0  0
    6.5214   -4.2707   25.1903 H   0  0  0  0  0  0  0  0  0  0  0  0
    8.3488   -3.0811   26.4213 H   0  0  0  0  0  0  0  0  0  0  0  0
   10.5456   -3.0775   25.3262 H   0  0  0  0  0  0  0  0  0  0  0  0
   10.2079   -4.6322   23.4814 H   0  0  0  0  0  0  0  0  0  0  0  0
   10.6790   -3.0275   22.8853 H   0  0  0  0  0  0  0  0  0  0  0  0
    8.7514   -4.1498   21.5169 H   0  0  0  0  0  0  0  0  0  0  0  0
    7.5968   -2.0077   20.8719 N   0  0  0  0  0  0  0  0  0  0  0  0
    7.3667   -0.6667   20.9191 N   0  0  0  0  0  0  0  0  0  0  0  0
    6.6467   -0.0001   19.8925 C   0  0  0  0  0  0  0  0  0  0  0  0
    5.4381    0.6509   20.1557 C   0  0  0  0  0  0  0  0  0  0  0  0
    4.8046    1.3131   19.0997 C   0  0  0  0  0  0  0  0  0  0  0  0
    5.4015    1.2934   17.8365 C   0  0  0  0  0  0  0  0  0  0  0  0
    6.5628    0.6650   17.5799 N   0  0  0  0  0  0  0  0  0  0  0  0
    7.1657    0.0305   18.5889 C   0  0  0  0  0  0  0  0  0  0  0  0
    8.1165   -0.4521   18.3706 H   0  0  0  0  0  0  0  0  0  0  0  0
    4.9328    1.7913   16.9913 H   0  0  0  0  0  0  0  0  0  0  0  0
    3.8700    1.8424   19.2434 H   0  0  0  0  0  0  0  0  0  0  0  0
    5.0106    0.6192   21.1565 H   0  0  0  0  0  0  0  0  0  0  0  0
    7.7911    1.9002   21.5918 H   0  0  0  0  0  0  0  0  0  0  0  0
    8.8416    1.4903   22.9484 H   0  0  0  0  0  0  0  0  0  0  0  0
    6.6689    0.9123   24.6874 C   0  0  0  0  0  0  0  0  0  0  0  0
    5.6155    1.1482   25.5914 C   0  0  0  0  0  0  0  0  0  0  0  0
    4.6462    2.0548   25.1995 C   0  0  0  0  0  0  0  0  0  0  0  0
    3.5252    2.4714   25.8833 O   0  0  0  0  0  0  0  0  0  0  0  0
    5.5557    0.6469   26.5505 H   0  0  0  0  0  0  0  0  0  0  0  0
    7.4468    0.1862   24.9266 H   0  0  0  0  0  0  0  0  0  0  0  0
    5.7779    2.9758   22.1066 H   0  0  0  0  0  0  0  0  0  0  0  0
    3.2836    4.1635   23.2247 H   0  0  0  0  0  0  0  0  0  0  0  0
  1  2  2  0
  2  3  1  0
  3  4  1  0
  4  5  2  0
  5  6  1  0
  6  7  1  0
  7  8  1  0
  8  9  2  0
  9 10  1  0
 10 11  1  0
 11 12  1  0
 12 13  1  0
 13 14  2  0
 14 15  1  0
 15 16  1  0
 16 17  1  0
 16 18  1  0
 15 19  1  0
 15 20  1  0
 14 21  1  0
 13 22  1  0
 12 23  1  0
 12 24  1  0
 11 25  1  0
 10 26  2  0
 26 27  1  0
 27 28  1  0
 28 29  2  0
 29 30  1  0
 30 31  2  0
 31 32  1  0
 32 33  2  0
 33 34  1  0
 31 35  1  0
 30 36  1  0
 29 37  1  0
  7 38  1  0
  7 39  1  0
  6 40  2  0
 40 41  1  0
 41 42  2  0
 42 43  1  0
 41 44  1  0
 40 45  1  0
  5 46  1  0
  3 47  1  0
 43  2  1  0
 42  4  1  0
 27  8  1  0
 33 28  1  0
 16 11  1  0
M  END
>  <cnnaffinity>  (1) 
-6.34566

>  <filename>  (1) 
O=c1[nH]c2cc(Cc3nc(C4CC=CCC4)nn3-c3cccnc3)ccc2o1

$$$$
