
     RDKit          3D

 42 44  0  0  0  0  0  0  0  0999 V2000
    3.5009   -8.7679   25.8713 H   0  0  0  0  0  0  0  0  0  0  0  0
    3.7607   -7.8577   26.0685 O   0  0  0  0  0  0  0  0  0  0  0  0
    3.4318   -7.0349   24.9561 C   0  0  0  0  0  0  0  0  0  0  0  0
    2.3734   -6.7184   25.0156 H   0  0  0  0  0  0  0  0  0  0  0  0
    3.5691   -7.5628   23.9976 H   0  0  0  0  0  0  0  0  0  0  0  0
    4.2691   -5.7503   24.9637 C   0  0  0  0  0  0  0  0  0  0  0  0
    4.2477   -5.3868   25.9992 H   0  0  0  0  0  0  0  0  0  0  0  0
    3.7288   -5.0052   24.3524 H   0  0  0  0  0  0  0  0  0  0  0  0
    5.6703   -5.8952   24.5405 N   0  0  0  0  0  0  0  0  0  0  0  0
    6.6079   -4.9585   25.1871 C   0  0  0  0  0  0  0  0  0  0  0  0
    6.4426   -4.9512   26.2703 H   0  0  0  0  0  0  0  0  0  0  0  0
    7.6202   -5.3544   25.0350 H   0  0  0  0  0  0  0  0  0  0  0  0
    6.5513   -3.5272   24.6168 C   0  0  0  0  0  0  0  0  0  0  0  0
    7.2860   -2.8904   25.1214 H   0  0  0  0  0  0  0  0  0  0  0  0
    5.5548   -3.0878   24.8180 H   0  0  0  0  0  0  0  0  0  0  0  0
    6.8260   -3.5680   23.1723 N   0  0  0  0  0  0  0  0  0  0  0  0
    7.3732   -2.4314   22.5533 C   0  0  0  0  0  0  0  0  0  0  0  0
    8.6892   -2.0230   22.9673 C   0  0  0  0  0  0  0  0  0  0  0  0
    9.1571   -2.6011   23.7690 H   0  0  0  0  0  0  0  0  0  0  0  0
    9.3280   -0.9938   22.3515 C   0  0  0  0  0  0  0  0  0  0  0  0
   10.3250   -0.6693   22.6141 H   0  0  0  0  0  0  0  0  0  0  0  0
    8.7254   -0.2294   21.2610 C   0  0  0  0  0  0  0  0  0  0  0  0
    9.3004    0.6722   20.6740 O   0  0  0  0  0  0  0  0  0  0  0  0
    7.3843   -0.6500   20.9155 N   0  0  0  0  0  0  0  0  0  0  0  0
    6.6657    0.0173   19.8551 C   0  0  0  0  0  0  0  0  0  0  0  0
    7.1555    0.0481   18.5324 C   0  0  0  0  0  0  0  0  0  0  0  0
    8.1022   -0.4373   18.2969 H   0  0  0  0  0  0  0  0  0  0  0  0
    6.5218    0.6607   17.5238 N   0  0  0  0  0  0  0  0  0  0  0  0
    5.3731    1.2994   17.8021 C   0  0  0  0  0  0  0  0  0  0  0  0
    4.9121    1.8431   16.9802 H   0  0  0  0  0  0  0  0  0  0  0  0
    4.7895    1.3124   19.0730 C   0  0  0  0  0  0  0  0  0  0  0  0
    3.8629    1.8540   19.2346 H   0  0  0  0  0  0  0  0  0  0  0  0
    5.4405    0.6429   20.1152 C   0  0  0  0  0  0  0  0  0  0  0  0
    5.0279    0.6200   21.1235 H   0  0  0  0  0  0  0  0  0  0  0  0
    6.7608   -1.7151   21.5586 C   0  0  0  0  0  0  0  0  0  0  0  0
    5.7483   -1.9478   21.2449 H   0  0  0  0  0  0  0  0  0  0  0  0
    5.8948   -4.4465   22.4600 C   0  0  0  0  0  0  0  0  0  0  0  0
    4.8623   -4.0524   22.4960 H   0  0  0  0  0  0  0  0  0  0  0  0
    6.1948   -4.5057   21.4070 H   0  0  0  0  0  0  0  0  0  0  0  0
    5.9206   -5.8635   23.0876 C   0  0  0  0  0  0  0  0  0  0  0  0
    6.9216   -6.2851   22.9284 H   0  0  0  0  0  0  0  0  0  0  0  0
    5.2237   -6.5232   22.5601 H   0  0  0  0  0  0  0  0  0  0  0  0
  1  2  1  0
  2  3  1  0
  3  4  1  0
  3  5  1  0
  3  6  1  0
  6  7  1  0
  6  8  1  0
  6  9  1  0
  9 10  1  0
 10 11  1  0
 10 12  1  0
 10 13  1  0
 13 14  1  0
 13 15  1  0
 13 16  1  0
 16 17  1  0
 17 18  1  0
 18 19  1  0
 18 20  2  0
 20 21  1  0
 20 22  1  0
 22 23  2  0
 22 24  1  0
 24 25  1  0
 25 26  2  0
 26 27  1  0
 26 28  1  0
 28 29  2  0
 29 30  1  0
 29 31  1  0
 31 32  1  0
 31 33  2  0
 33 34  1  0
 24 35  1  0
 35 36  1  0
 16 37  1  0
 37 38  1  0
 37 39  1  0
 37 40  1  0
 40 41  1  0
 40 42  1  0
 40  9  1  0
 35 17  2  0
 33 25  1  0
M  END
>  <cnnaffinity>  (1) 
-5.39716

>  <filename>  (1) 
O=c1ccc(N2CCN(CCO)CC2)cn1-c1cccnc1

$$$$
