
     RDKit          3D

 38 41  0  0  0  0  0  0  0  0999 V2000
    4.9504    1.8475   16.9382 H   0  0  0  0  0  0  0  0  0  0  0  0
    5.4126    1.3188   17.7700 C   0  0  0  0  0  0  0  0  0  0  0  0
    6.5783    0.7033   17.5160 N   0  0  0  0  0  0  0  0  0  0  0  0
    7.1706    0.0663   18.5342 C   0  0  0  0  0  0  0  0  0  0  0  0
    8.1258   -0.4017   18.2912 H   0  0  0  0  0  0  0  0  0  0  0  0
    6.6438   -0.0109   19.8407 C   0  0  0  0  0  0  0  0  0  0  0  0
    7.3701   -0.6822   21.0039 C   0  0  2  0  0  0  0  0  0  0  0  0
    8.1816   -1.3001   20.5898 H   0  0  0  0  0  0  0  0  0  0  0  0
    6.5037   -1.6389   21.8419 C   0  0  0  0  0  0  0  0  0  0  0  0
    5.7863   -2.5387   21.4530 O   0  0  0  0  0  0  0  0  0  0  0  0
    6.7362   -1.3795   23.1588 N   0  0  0  0  0  0  0  0  0  0  0  0
    6.0549   -1.7721   23.7895 H   0  0  0  0  0  0  0  0  0  0  0  0
    7.5427   -0.2138   23.4546 C   0  0  0  0  0  0  0  0  0  0  0  0
    6.9881    0.5251   24.0481 H   0  0  0  0  0  0  0  0  0  0  0  0
    8.4203   -0.4808   24.0647 H   0  0  0  0  0  0  0  0  0  0  0  0
    7.9299    0.3418   22.0493 C   0  0  1  0  0  0  0  0  0  0  0  0
    7.3839    1.2858   21.9222 H   0  0  0  0  0  0  0  0  0  0  0  0
    9.4072    0.6477   21.8894 C   0  0  0  0  0  0  0  0  0  0  0  0
    9.8338    1.9268   21.5629 C   0  0  0  0  0  0  0  0  0  0  0  0
    9.1057    2.7054   21.3402 H   0  0  0  0  0  0  0  0  0  0  0  0
   11.2117    2.2688   21.5193 C   0  0  0  0  0  0  0  0  0  0  0  0
   11.5154    3.2872   21.2821 H   0  0  0  0  0  0  0  0  0  0  0  0
   12.1606    1.3171   21.7787 C   0  0  0  0  0  0  0  0  0  0  0  0
   13.2126    1.5688   21.8683 H   0  0  0  0  0  0  0  0  0  0  0  0
   11.7799   -0.0394   21.9808 C   0  0  0  0  0  0  0  0  0  0  0  0
   12.7703   -1.0601   22.0393 C   0  0  0  0  0  0  0  0  0  0  0  0
   13.8053   -0.7946   21.8316 H   0  0  0  0  0  0  0  0  0  0  0  0
   12.4133   -2.3457   22.3244 C   0  0  0  0  0  0  0  0  0  0  0  0
   13.1845   -3.1030   22.3370 H   0  0  0  0  0  0  0  0  0  0  0  0
   11.0706   -2.6782   22.6296 C   0  0  0  0  0  0  0  0  0  0  0  0
   10.8254   -3.6714   22.9917 H   0  0  0  0  0  0  0  0  0  0  0  0
   10.0807   -1.7358   22.4902 C   0  0  0  0  0  0  0  0  0  0  0  0
    9.0502   -2.0328   22.6686 H   0  0  0  0  0  0  0  0  0  0  0  0
   10.3944   -0.3807   22.1097 C   0  0  0  0  0  0  0  0  0  0  0  0
    5.4251    0.6352   20.0769 C   0  0  0  0  0  0  0  0  0  0  0  0
    4.9940    0.6259   21.0801 H   0  0  0  0  0  0  0  0  0  0  0  0
    4.8007    1.3073   19.0255 C   0  0  0  0  0  0  0  0  0  0  0  0
    3.8732    1.8433   19.1753 H   0  0  0  0  0  0  0  0  0  0  0  0
  1  2  1  0
  2  3  2  0
  3  4  1  0
  4  5  1  0
  4  6  2  0
  6  7  1  0
  7  8  1  6
  7  9  1  0
  9 10  2  0
  9 11  1  0
 11 12  1  0
 11 13  1  0
 13 14  1  0
 13 15  1  0
 13 16  1  0
 16 17  1  6
 16 18  1  0
 18 19  2  0
 19 20  1  0
 19 21  1  0
 21 22  1  0
 21 23  2  0
 23 24  1  0
 23 25  1  0
 25 26  2  0
 26 27  1  0
 26 28  1  0
 28 29  1  0
 28 30  2  0
 30 31  1  0
 30 32  1  0
 32 33  1  0
 32 34  2  0
  6 35  1  0
 35 36  1  0
 35 37  2  0
 37 38  1  0
 37  2  1  0
 16  7  1  0
 34 18  1  0
 34 25  1  0
M  END
>  <cnnaffinity>  (1) 
-5.82733

>  <filename>  (1) 
O=C1NC[C@@H](c2cccc3ccccc23)[C@@H]1c1cccnc1

$$$$
