
     RDKit          3D

 30 32  0  0  0  0  0  0  0  0999 V2000
    4.9288    1.8210   16.9447 H   0  0  0  0  0  0  0  0  0  0  0  0
    5.3789    1.3290   17.8027 C   0  0  0  0  0  0  0  0  0  0  0  0
    6.5438    0.7031   17.5753 N   0  0  0  0  0  0  0  0  0  0  0  0
    7.1319    0.1052   18.6134 C   0  0  0  0  0  0  0  0  0  0  0  0
    8.0614   -0.4340   18.4261 H   0  0  0  0  0  0  0  0  0  0  0  0
    6.6122    0.1343   19.9131 C   0  0  0  0  0  0  0  0  0  0  0  0
    7.3663   -0.5676   20.9657 C   0  0  0  0  0  0  0  0  0  0  0  0
    8.0131   -1.6286   20.5687 N   0  0  0  0  0  0  0  0  0  0  0  0
    8.5400   -2.4365   21.5264 C   0  0  0  0  0  0  0  0  0  0  0  0
    8.8022   -3.6071   21.3827 O   0  0  0  0  0  0  0  0  0  0  0  0
    8.7919   -1.8724   22.7843 N   0  0  0  0  0  0  0  0  0  0  0  0
    9.0943   -2.6169   23.3878 H   0  0  0  0  0  0  0  0  0  0  0  0
    8.0564   -0.8200   23.2542 C   0  0  0  0  0  0  0  0  0  0  0  0
    8.0805   -0.4915   24.7011 C   0  0  0  0  0  0  0  0  0  0  0  0
    9.2618   -0.6005   25.4630 C   0  0  0  0  0  0  0  0  0  0  0  0
   10.1704   -0.9760   25.0000 H   0  0  0  0  0  0  0  0  0  0  0  0
    9.2665   -0.2023   26.8015 C   0  0  0  0  0  0  0  0  0  0  0  0
   10.1858   -0.2613   27.3745 H   0  0  0  0  0  0  0  0  0  0  0  0
    8.1081    0.2860   27.4120 C   0  0  0  0  0  0  0  0  0  0  0  0
    8.1188    0.6210   28.4447 H   0  0  0  0  0  0  0  0  0  0  0  0
    6.9309    0.3566   26.6642 C   0  0  0  0  0  0  0  0  0  0  0  0
    5.4793    0.9662   27.4002 Cl  0  0  0  0  0  0  0  0  0  0  0  0
    6.9050   -0.0282   25.3234 C   0  0  0  0  0  0  0  0  0  0  0  0
    5.9674    0.0131   24.7726 H   0  0  0  0  0  0  0  0  0  0  0  0
    7.3393   -0.1227   22.3158 C   0  0  0  0  0  0  0  0  0  0  0  0
    6.7754    0.7550   22.5811 H   0  0  0  0  0  0  0  0  0  0  0  0
    5.3766    0.7499   20.1316 C   0  0  0  0  0  0  0  0  0  0  0  0
    4.9155    0.7138   21.1202 H   0  0  0  0  0  0  0  0  0  0  0  0
    4.7489    1.3638   19.0518 C   0  0  0  0  0  0  0  0  0  0  0  0
    3.8031    1.8771   19.1697 H   0  0  0  0  0  0  0  0  0  0  0  0
  1  2  1  0
  2  3  2  0
  3  4  1  0
  4  5  1  0
  4  6  2  0
  6  7  1  0
  7  8  2  0
  8  9  1  0
  9 10  2  0
  9 11  1  0
 11 12  1  0
 11 13  1  0
 13 14  1  0
 14 15  2  0
 15 16  1  0
 15 17  1  0
 17 18  1  0
 17 19  2  0
 19 20  1  0
 19 21  1  0
 21 22  1  0
 21 23  2  0
 23 24  1  0
 13 25  2  0
 25 26  1  0
  6 27  1  0
 27 28  1  0
 27 29  2  0
 29 30  1  0
 29  2  1  0
 25  7  1  0
 23 14  1  0
M  END
>  <cnnaffinity>  (1) 
-5.1511

>  <filename>  (1) 
O=c1nc(-c2cccnc2)cc(-c2cccc(Cl)c2)[nH]1

$$$$
