
     RDKit          3D

 34 36  0  0  0  0  0  0  0  0999 V2000
    4.9746    1.8567   16.9188 H   0  0  0  0  0  0  0  0  0  0  0  0
    5.4303    1.3436   17.7656 C   0  0  0  0  0  0  0  0  0  0  0  0
    6.5949    0.7199   17.5254 N   0  0  0  0  0  0  0  0  0  0  0  0
    7.1757    0.0837   18.5494 C   0  0  0  0  0  0  0  0  0  0  0  0
    8.1253   -0.4024   18.3193 H   0  0  0  0  0  0  0  0  0  0  0  0
    6.6394    0.0108   19.8509 C   0  0  0  0  0  0  0  0  0  0  0  0
    7.3578   -0.7139   20.9806 C   0  0  2  0  0  0  0  0  0  0  0  0
    8.1661   -1.3049   20.5282 H   0  0  0  0  0  0  0  0  0  0  0  0
    6.4899   -1.7342   21.7369 C   0  0  0  0  0  0  0  0  0  0  0  0
    5.7886   -2.6214   21.3006 O   0  0  0  0  0  0  0  0  0  0  0  0
    6.6808   -1.5117   23.0713 N   0  0  0  0  0  0  0  0  0  0  0  0
    5.9474   -1.9569   23.6039 H   0  0  0  0  0  0  0  0  0  0  0  0
    7.1239   -0.1655   23.3704 C   0  0  0  0  0  0  0  0  0  0  0  0
    7.7292   -0.1570   24.2871 H   0  0  0  0  0  0  0  0  0  0  0  0
    6.2771    0.5327   23.5202 H   0  0  0  0  0  0  0  0  0  0  0  0
    7.9068    0.2380   22.0975 C   0  0  1  0  0  0  0  0  0  0  0  0
    7.6993    1.2838   21.8675 H   0  0  0  0  0  0  0  0  0  0  0  0
    9.4144    0.2165   22.2541 C   0  0  0  0  0  0  0  0  0  0  0  0
   10.0264    1.4066   22.1139 N   0  0  0  0  0  0  0  0  0  0  0  0
   11.3463    1.4648   22.2236 C   0  0  0  0  0  0  0  0  0  0  0  0
   11.8008    2.4495   22.1211 H   0  0  0  0  0  0  0  0  0  0  0  0
   12.1339    0.3439   22.4771 C   0  0  0  0  0  0  0  0  0  0  0  0
   13.5998    0.5373   22.6724 C   0  0  0  0  0  0  0  0  0  0  0  0
   14.0070    0.1312   23.8885 F   0  0  0  0  0  0  0  0  0  0  0  0
   13.9722    1.8257   22.5824 F   0  0  0  0  0  0  0  0  0  0  0  0
   14.3062   -0.1626   21.7657 F   0  0  0  0  0  0  0  0  0  0  0  0
   11.5195   -0.9140   22.5776 C   0  0  0  0  0  0  0  0  0  0  0  0
   12.0955   -1.8374   22.6662 H   0  0  0  0  0  0  0  0  0  0  0  0
   10.1325   -0.9552   22.5222 C   0  0  0  0  0  0  0  0  0  0  0  0
    9.6182   -1.8891   22.6992 H   0  0  0  0  0  0  0  0  0  0  0  0
    5.4186    0.6594   20.0712 C   0  0  0  0  0  0  0  0  0  0  0  0
    4.9610    0.6436   21.0622 H   0  0  0  0  0  0  0  0  0  0  0  0
    4.8049    1.3349   19.0146 C   0  0  0  0  0  0  0  0  0  0  0  0
    3.8668    1.8602   19.1472 H   0  0  0  0  0  0  0  0  0  0  0  0
  1  2  1  0
  2  3  2  0
  3  4  1  0
  4  5  1  0
  4  6  2  0
  6  7  1  0
  7  8  1  6
  7  9  1  0
  9 10  2  0
  9 11  1  0
 11 12  1  0
 11 13  1  0
 13 14  1  0
 13 15  1  0
 13 16  1  0
 16 17  1  6
 16 18  1  0
 18 19  2  0
 19 20  1  0
 20 21  1  0
 20 22  2  0
 22 23  1  0
 23 24  1  0
 23 25  1  0
 23 26  1  0
 22 27  1  0
 27 28  1  0
 27 29  2  0
 29 30  1  0
  6 31  1  0
 31 32  1  0
 31 33  2  0
 33 34  1  0
 33  2  1  0
 16  7  1  0
 29 18  1  0
M  END
>  <cnnaffinity>  (1) 
-5.37784

>  <filename>  (1) 
O=C1NC[C@@H](c2ccc(C(F)(F)F)cn2)[C@@H]1c1cccnc1

$$$$
