
     RDKit          3D

 33 35  0  0  0  0  0  0  0  0999 V2000
    4.8592    2.1425   16.8237 H   0  0  0  0  0  0  0  0  0  0  0  0
    5.1325    1.3953   17.5676 C   0  0  0  0  0  0  0  0  0  0  0  0
    6.2063    0.6426   17.2719 N   0  0  0  0  0  0  0  0  0  0  0  0
    6.6374   -0.2076   18.2079 C   0  0  0  0  0  0  0  0  0  0  0  0
    7.5331   -0.7849   17.9702 H   0  0  0  0  0  0  0  0  0  0  0  0
    6.0394   -0.3439   19.4846 C   0  0  0  0  0  0  0  0  0  0  0  0
    6.7707   -1.0127   20.5516 N   0  0  0  0  0  0  0  0  0  0  0  0
    8.0358   -0.5096   20.8213 C   0  0  0  0  0  0  0  0  0  0  0  0
    8.2854    0.4250   20.3144 H   0  0  0  0  0  0  0  0  0  0  0  0
    8.8941   -1.1463   21.6501 C   0  0  0  0  0  0  0  0  0  0  0  0
   10.2309   -0.6678   21.9277 C   0  0  0  0  0  0  0  0  0  0  0  0
   10.3404    0.6654   22.0495 N   0  0  0  0  0  0  0  0  0  0  0  0
   11.5096    1.1685   22.4056 C   0  0  0  0  0  0  0  0  0  0  0  0
   11.5466    2.2431   22.5498 H   0  0  0  0  0  0  0  0  0  0  0  0
   12.6487    0.3903   22.5859 C   0  0  0  0  0  0  0  0  0  0  0  0
   13.8490    1.0156   23.1883 C   0  0  0  0  0  0  0  0  0  0  0  0
   13.7255    2.3492   23.3241 F   0  0  0  0  0  0  0  0  0  0  0  0
   14.0671    0.5182   24.4223 F   0  0  0  0  0  0  0  0  0  0  0  0
   14.9481    0.7714   22.4589 F   0  0  0  0  0  0  0  0  0  0  0  0
   12.5813   -0.9848   22.3219 C   0  0  0  0  0  0  0  0  0  0  0  0
   13.4744   -1.6042   22.3641 H   0  0  0  0  0  0  0  0  0  0  0  0
   11.3380   -1.5262   22.0478 C   0  0  0  0  0  0  0  0  0  0  0  0
   11.1652   -2.5866   21.9490 H   0  0  0  0  0  0  0  0  0  0  0  0
    8.4695   -2.3401   22.3585 C   0  0  0  0  0  0  0  0  0  0  0  0
    9.1397   -3.1439   22.9690 O   0  0  0  0  0  0  0  0  0  0  0  0
    7.1110   -2.5347   22.3036 N   0  0  0  0  0  0  0  0  0  0  0  0
    6.7934   -3.3902   22.7105 H   0  0  0  0  0  0  0  0  0  0  0  0
    6.2810   -2.1119   21.3074 C   0  0  0  0  0  0  0  0  0  0  0  0
    5.2497   -2.7129   21.1314 O   0  0  0  0  0  0  0  0  0  0  0  0
    4.8559    0.3560   19.7375 C   0  0  0  0  0  0  0  0  0  0  0  0
    4.3420    0.2433   20.6933 H   0  0  0  0  0  0  0  0  0  0  0  0
    4.4042    1.2542   18.7542 C   0  0  0  0  0  0  0  0  0  0  0  0
    3.5344    1.8837   18.9085 H   0  0  0  0  0  0  0  0  0  0  0  0
  1  2  1  0
  2  3  2  0
  3  4  1  0
  4  5  1  0
  4  6  2  0
  6  7  1  0
  7  8  1  0
  8  9  1  0
  8 10  2  0
 10 11  1  0
 11 12  2  0
 12 13  1  0
 13 14  1  0
 13 15  2  0
 15 16  1  0
 16 17  1  0
 16 18  1  0
 16 19  1  0
 15 20  1  0
 20 21  1  0
 20 22  2  0
 22 23  1  0
 10 24  1  0
 24 25  2  0
 24 26  1  0
 26 27  1  0
 26 28  1  0
 28 29  2  0
  6 30  1  0
 30 31  1  0
 30 32  2  0
 32 33  1  0
 32  2  1  0
 28  7  1  0
 22 11  1  0
M  END
>  <cnnaffinity>  (1) 
-5.73788

>  <filename>  (1) 
O=c1[nH]c(=O)n(-c2cccnc2)cc1-c1ccc(C(F)(F)F)cn1

$$$$
