
     RDKit          3D

 32 34  0  0  0  0  0  0  0  0999 V2000
    4.9117    1.8226   16.9689 H   0  0  0  0  0  0  0  0  0  0  0  0
    5.3808    1.3233   17.8151 C   0  0  0  0  0  0  0  0  0  0  0  0
    6.5501    0.7147   17.5582 N   0  0  0  0  0  0  0  0  0  0  0  0
    7.1608    0.1065   18.5818 C   0  0  0  0  0  0  0  0  0  0  0  0
    8.1132   -0.3663   18.3511 H   0  0  0  0  0  0  0  0  0  0  0  0
    6.6391    0.0372   19.8881 C   0  0  0  0  0  0  0  0  0  0  0  0
    7.3989   -0.6898   20.9883 C   0  0  1  0  0  0  0  0  0  0  0  0
    6.8969   -0.5169   21.9548 H   0  0  0  0  0  0  0  0  0  0  0  0
    7.5613   -2.2274   20.8409 C   0  0  0  0  0  0  0  0  0  0  0  0
    6.7268   -3.0731   20.6491 O   0  0  0  0  0  0  0  0  0  0  0  0
    8.9003   -2.4654   20.9809 N   0  0  0  0  0  0  0  0  0  0  0  0
    9.3444   -3.2924   20.6367 H   0  0  0  0  0  0  0  0  0  0  0  0
    9.6474   -1.3138   21.0890 C   0  0  0  0  0  0  0  0  0  0  0  0
   10.8495   -1.2851   21.2020 O   0  0  0  0  0  0  0  0  0  0  0  0
    8.7878   -0.2522   21.0358 N   0  0  0  0  0  0  0  0  0  0  0  0
    9.1581    1.0449   21.5853 C   0  0  0  0  0  0  0  0  0  0  0  0
    8.5193    1.8003   21.1077 H   0  0  0  0  0  0  0  0  0  0  0  0
   10.1934    1.2407   21.2849 H   0  0  0  0  0  0  0  0  0  0  0  0
    9.0198    1.0941   23.1069 C   0  0  0  0  0  0  0  0  0  0  0  0
   10.0401    0.6207   23.9527 C   0  0  0  0  0  0  0  0  0  0  0  0
   10.9803    0.2494   23.5508 H   0  0  0  0  0  0  0  0  0  0  0  0
    9.8452    0.6389   25.3424 C   0  0  0  0  0  0  0  0  0  0  0  0
   10.6281    0.2931   26.0194 H   0  0  0  0  0  0  0  0  0  0  0  0
    8.7238    1.0791   25.9304 N   0  0  0  0  0  0  0  0  0  0  0  0
    7.7442    1.5155   25.1286 C   0  0  0  0  0  0  0  0  0  0  0  0
    6.8363    1.8607   25.6252 H   0  0  0  0  0  0  0  0  0  0  0  0
    7.8446    1.5492   23.7314 C   0  0  0  0  0  0  0  0  0  0  0  0
    7.0079    1.9358   23.1543 H   0  0  0  0  0  0  0  0  0  0  0  0
    5.4159    0.6753   20.1309 C   0  0  0  0  0  0  0  0  0  0  0  0
    4.9791    0.6610   21.1327 H   0  0  0  0  0  0  0  0  0  0  0  0
    4.7714    1.3318   19.0755 C   0  0  0  0  0  0  0  0  0  0  0  0
    3.8282    1.8555   19.2149 H   0  0  0  0  0  0  0  0  0  0  0  0
  1  2  1  0
  2  3  2  0
  3  4  1  0
  4  5  1  0
  4  6  2  0
  6  7  1  0
  7  8  1  1
  7  9  1  0
  9 10  2  0
  9 11  1  0
 11 12  1  0
 11 13  1  0
 13 14  2  0
 13 15  1  0
 15 16  1  0
 16 17  1  0
 16 18  1  0
 16 19  1  0
 19 20  2  0
 20 21  1  0
 20 22  1  0
 22 23  1  0
 22 24  2  0
 24 25  1  0
 25 26  1  0
 25 27  2  0
 27 28  1  0
  6 29  1  0
 29 30  1  0
 29 31  2  0
 31 32  1  0
 31  2  1  0
 15  7  1  0
 27 19  1  0
M  END
>  <cnnaffinity>  (1) 
-4.92106

>  <filename>  (1) 
O=C1NC(=O)N(Cc2ccncc2)[C@H]1c1cccnc1

$$$$
