
     RDKit          3D

 19 20  0  0  0  0  0  0  0  0999 V2000
    4.9821    1.8395   16.9622 H   0  0  0  0  0  0  0  0  0  0  0  0
    5.4784    1.3289   17.7877 C   0  0  0  0  0  0  0  0  0  0  0  0
    6.6574    0.7457   17.5097 N   0  0  0  0  0  0  0  0  0  0  0  0
    7.2613    0.0754   18.4964 C   0  0  0  0  0  0  0  0  0  0  0  0
    8.2158   -0.3840   18.2613 H   0  0  0  0  0  0  0  0  0  0  0  0
    6.7274   -0.0814   19.7925 C   0  0  0  0  0  0  0  0  0  0  0  0
    7.4015   -0.8661   20.7683 N   0  0  0  0  0  0  0  0  0  0  0  0
    6.8653   -1.8187   21.6668 C   0  0  0  0  0  0  0  0  0  0  0  0
    5.7436   -2.2816   21.6405 O   0  0  0  0  0  0  0  0  0  0  0  0
    8.0151   -2.0881   22.5459 C   0  0  0  0  0  0  0  0  0  0  0  0
    7.9112   -3.0002   23.9890 Cl  0  0  0  0  0  0  0  0  0  0  0  0
    9.0904   -1.4115   22.0950 C   0  0  0  0  0  0  0  0  0  0  0  0
   10.0913   -1.3969   22.5066 H   0  0  0  0  0  0  0  0  0  0  0  0
    8.7869   -0.7489   20.9188 N   0  0  0  0  0  0  0  0  0  0  0  0
    9.1621    0.1774   20.7344 H   0  0  0  0  0  0  0  0  0  0  0  0
    5.5191    0.5729   20.0838 C   0  0  0  0  0  0  0  0  0  0  0  0
    5.1037    0.5508   21.0906 H   0  0  0  0  0  0  0  0  0  0  0  0
    4.8849    1.2816   19.0540 C   0  0  0  0  0  0  0  0  0  0  0  0
    3.9446    1.7998   19.2207 H   0  0  0  0  0  0  0  0  0  0  0  0
  1  2  1  0
  2  3  2  0
  3  4  1  0
  4  5  1  0
  4  6  2  0
  6  7  1  0
  7  8  1  0
  8  9  2  0
  8 10  1  0
 10 11  1  0
 10 12  2  0
 12 13  1  0
 12 14  1  0
 14 15  1  0
  6 16  1  0
 16 17  1  0
 16 18  2  0
 18 19  1  0
 18  2  1  0
 14  7  1  0
M  END
>  <cnnaffinity>  (1) 
-4.37798

>  <filename>  (1) 
O=c1c(Cl)c[nH]n1-c1cccnc1

$$$$
