
     RDKit          3D

 32 35  0  0  0  0  0  0  0  0999 V2000
    4.9299    1.7868   16.8984 H   0  0  0  0  0  0  0  0  0  0  0  0
    5.3935    1.3332   17.7707 C   0  0  0  0  0  0  0  0  0  0  0  0
    6.5831    0.7500   17.5611 N   0  0  0  0  0  0  0  0  0  0  0  0
    7.1774    0.1687   18.6095 C   0  0  0  0  0  0  0  0  0  0  0  0
    8.1460   -0.2776   18.3885 H   0  0  0  0  0  0  0  0  0  0  0  0
    6.6404    0.1271   19.9094 C   0  0  0  0  0  0  0  0  0  0  0  0
    7.3684   -0.5398   21.0339 C   0  0  0  0  0  0  0  0  0  0  0  0
    7.0363   -0.1362   22.3000 N   0  0  0  0  0  0  0  0  0  0  0  0
    7.6807   -0.6430   23.3379 C   0  0  0  0  0  0  0  0  0  0  0  0
    7.5463   -0.0178   24.6463 C   0  0  0  0  0  0  0  0  0  0  0  0
    6.8187    1.0046   24.9643 N   0  0  0  0  0  0  0  0  0  0  0  0
    7.0623    1.1986   26.3172 C   0  0  0  0  0  0  0  0  0  0  0  0
    6.5411    2.1384   27.2246 C   0  0  0  0  0  0  0  0  0  0  0  0
    5.8536    2.9082   26.8740 H   0  0  0  0  0  0  0  0  0  0  0  0
    6.9410    2.0252   28.5592 C   0  0  0  0  0  0  0  0  0  0  0  0
    6.5269    2.7076   29.2939 H   0  0  0  0  0  0  0  0  0  0  0  0
    7.8531    1.0308   28.9770 C   0  0  0  0  0  0  0  0  0  0  0  0
    8.1431    0.9663   30.0258 H   0  0  0  0  0  0  0  0  0  0  0  0
    8.4013    0.1155   28.0701 C   0  0  0  0  0  0  0  0  0  0  0  0
    9.1236   -0.6359   28.3755 H   0  0  0  0  0  0  0  0  0  0  0  0
    7.9738    0.2267   26.7483 C   0  0  0  0  0  0  0  0  0  0  0  0
    8.2934   -0.5391   25.6769 O   0  0  0  0  0  0  0  0  0  0  0  0
    8.5825   -1.8233   23.2392 C   0  0  0  0  0  0  0  0  0  0  0  0
    9.0756   -2.5174   24.1074 O   0  0  0  0  0  0  0  0  0  0  0  0
    8.8922   -2.1316   21.9113 N   0  0  0  0  0  0  0  0  0  0  0  0
    9.5122   -2.9350   21.8852 H   0  0  0  0  0  0  0  0  0  0  0  0
    8.3428   -1.4921   20.8238 C   0  0  0  0  0  0  0  0  0  0  0  0
    8.7354   -1.7480   19.8496 H   0  0  0  0  0  0  0  0  0  0  0  0
    5.4066    0.7778   20.1096 C   0  0  0  0  0  0  0  0  0  0  0  0
    4.9867    0.8315   21.1132 H   0  0  0  0  0  0  0  0  0  0  0  0
    4.7698    1.3759   19.0209 C   0  0  0  0  0  0  0  0  0  0  0  0
    3.8233    1.8952   19.1286 H   0  0  0  0  0  0  0  0  0  0  0  0
  1  2  1  0
  2  3  2  0
  3  4  1  0
  4  5  1  0
  4  6  2  0
  6  7  1  0
  7  8  1  0
  8  9  2  0
  9 10  1  0
 10 11  2  0
 11 12  1  0
 12 13  2  0
 13 14  1  0
 13 15  1  0
 15 16  1  0
 15 17  2  0
 17 18  1  0
 17 19  1  0
 19 20  1  0
 19 21  2  0
 21 22  1  0
  9 23  1  0
 23 24  2  0
 23 25  1  0
 25 26  1  0
 25 27  1  0
 27 28  1  0
  6 29  1  0
 29 30  1  0
 29 31  2  0
 31 32  1  0
 31  2  1  0
 27  7  2  0
 22 10  1  0
 21 12  1  0
M  END
>  <cnnaffinity>  (1) 
-5.27193

>  <filename>  (1) 
O=c1[nH]cc(-c2cccnc2)nc1-c1nc2ccccc2o1

$$$$
