
     RDKit          3D

 39 41  0  0  0  0  0  0  0  0999 V2000
    5.1447    1.9018   16.9708 H   0  0  0  0  0  0  0  0  0  0  0  0
    5.5816    1.3439   17.7997 C   0  0  0  0  0  0  0  0  0  0  0  0
    6.7548    0.7367   17.5568 N   0  0  0  0  0  0  0  0  0  0  0  0
    7.3361    0.0581   18.5554 C   0  0  0  0  0  0  0  0  0  0  0  0
    8.2850   -0.4324   18.3242 H   0  0  0  0  0  0  0  0  0  0  0  0
    6.7640   -0.0714   19.8383 C   0  0  0  0  0  0  0  0  0  0  0  0
    7.4072   -0.8172   20.8963 N   0  0  0  0  0  0  0  0  0  0  0  0
    8.7184   -0.4838   21.2811 C   0  0  0  0  0  0  0  0  0  0  0  0
    9.1794    0.3276   20.7133 H   0  0  0  0  0  0  0  0  0  0  0  0
    9.3738   -1.1071   22.2959 C   0  0  0  0  0  0  0  0  0  0  0  0
   10.7079   -0.8186   22.6590 N   0  0  0  0  0  0  0  0  0  0  0  0
   10.9978   -1.2822   23.5171 H   0  0  0  0  0  0  0  0  0  0  0  0
   11.2761    0.5127   22.5076 C   0  0  0  0  0  0  0  0  0  0  0  0
   11.2199    0.7596   21.4390 H   0  0  0  0  0  0  0  0  0  0  0  0
   12.7658    0.5187   22.9047 C   0  0  0  0  0  0  0  0  0  0  0  0
   13.3435   -0.0082   22.1378 H   0  0  0  0  0  0  0  0  0  0  0  0
   12.8904   -0.0571   23.8323 H   0  0  0  0  0  0  0  0  0  0  0  0
   13.3218    1.9522   23.1465 C   0  0  0  0  0  0  0  0  0  0  0  0
   14.3830    1.9955   22.8794 H   0  0  0  0  0  0  0  0  0  0  0  0
   13.2549    2.1643   24.2196 H   0  0  0  0  0  0  0  0  0  0  0  0
   12.5179    3.0536   22.4252 C   0  0  0  0  0  0  0  0  0  0  0  0
   12.6290    2.9538   21.3392 H   0  0  0  0  0  0  0  0  0  0  0  0
   12.9169    4.0447   22.6673 H   0  0  0  0  0  0  0  0  0  0  0  0
   11.0055    3.0005   22.7792 C   0  0  0  0  0  0  0  0  0  0  0  0
   10.4245    3.2457   21.8831 H   0  0  0  0  0  0  0  0  0  0  0  0
   10.7460    3.7556   23.5273 H   0  0  0  0  0  0  0  0  0  0  0  0
   10.5480    1.6153   23.2878 C   0  0  0  0  0  0  0  0  0  0  0  0
   10.7644    1.4923   24.3596 H   0  0  0  0  0  0  0  0  0  0  0  0
    9.4652    1.4951   23.1960 H   0  0  0  0  0  0  0  0  0  0  0  0
    8.6359   -2.2084   23.0187 C   0  0  0  0  0  0  0  0  0  0  0  0
    9.0571   -2.9042   23.9235 O   0  0  0  0  0  0  0  0  0  0  0  0
    7.3448   -2.4178   22.5947 N   0  0  0  0  0  0  0  0  0  0  0  0
    6.8513   -3.1546   23.0532 H   0  0  0  0  0  0  0  0  0  0  0  0
    6.6873   -1.8539   21.5434 C   0  0  0  0  0  0  0  0  0  0  0  0
    5.5973   -2.2624   21.2207 O   0  0  0  0  0  0  0  0  0  0  0  0
    5.5189    0.5269   20.0667 C   0  0  0  0  0  0  0  0  0  0  0  0
    5.0278    0.4101   21.0309 H   0  0  0  0  0  0  0  0  0  0  0  0
    4.9315    1.2641   19.0347 C   0  0  0  0  0  0  0  0  0  0  0  0
    3.9900    1.7821   19.1736 H   0  0  0  0  0  0  0  0  0  0  0  0
  1  2  1  0
  2  3  2  0
  3  4  1  0
  4  5  1  0
  4  6  2  0
  6  7  1  0
  7  8  1  0
  8  9  1  0
  8 10  2  0
 10 11  1  0
 11 12  1  0
 11 13  1  0
 13 14  1  0
 13 15  1  0
 15 16  1  0
 15 17  1  0
 15 18  1  0
 18 19  1  0
 18 20  1  0
 18 21  1  0
 21 22  1  0
 21 23  1  0
 21 24  1  0
 24 25  1  0
 24 26  1  0
 24 27  1  0
 27 28  1  0
 27 29  1  0
 10 30  1  0
 30 31  2  0
 30 32  1  0
 32 33  1  0
 32 34  1  0
 34 35  2  0
  6 36  1  0
 36 37  1  0
 36 38  2  0
 38 39  1  0
 38  2  1  0
 34  7  1  0
 27 13  1  0
M  END
>  <cnnaffinity>  (1) 
-5.16179

>  <filename>  (1) 
O=c1[nH]c(=O)n(-c2cccnc2)cc1NC1CCCCC1

$$$$
