
     RDKit          3D

 32 34  0  0  0  0  0  0  0  0999 V2000
   14.4994    1.1629   22.3764 H   0  0  0  0  0  0  0  0  0  0  0  0
   13.4177    1.2496   22.4403 C   0  0  0  0  0  0  0  0  0  0  0  0
   12.7241    0.1082   22.4171 N   0  0  0  0  0  0  0  0  0  0  0  0
   11.3912    0.2240   22.4089 C   0  0  0  0  0  0  0  0  0  0  0  0
   10.8057   -0.9901   22.1348 N   0  0  0  0  0  0  0  0  0  0  0  0
   11.4974   -1.7265   22.2393 H   0  0  0  0  0  0  0  0  0  0  0  0
    9.4319   -1.2323   22.1094 N   0  0  0  0  0  0  0  0  0  0  0  0
    8.7250   -0.6129   21.0897 C   0  0  0  0  0  0  0  0  0  0  0  0
    9.3307    0.0208   20.4433 H   0  0  0  0  0  0  0  0  0  0  0  0
    7.3668   -0.7337   20.9573 C   0  0  0  0  0  0  0  0  0  0  0  0
    6.6499   -0.0032   19.8742 C   0  0  0  0  0  0  0  0  0  0  0  0
    7.1651    0.0636   18.5619 C   0  0  0  0  0  0  0  0  0  0  0  0
    8.1079   -0.4286   18.3212 H   0  0  0  0  0  0  0  0  0  0  0  0
    6.5636    0.6893   17.5402 N   0  0  0  0  0  0  0  0  0  0  0  0
    5.4050    1.3151   17.8002 C   0  0  0  0  0  0  0  0  0  0  0  0
    4.9318    1.8201   16.9600 H   0  0  0  0  0  0  0  0  0  0  0  0
    4.8044    1.3256   19.0629 C   0  0  0  0  0  0  0  0  0  0  0  0
    3.8694    1.8530   19.2095 H   0  0  0  0  0  0  0  0  0  0  0  0
    5.4321    0.6536   20.1125 C   0  0  0  0  0  0  0  0  0  0  0  0
    5.0127    0.6696   21.1186 H   0  0  0  0  0  0  0  0  0  0  0  0
    6.6721   -1.5722   21.8858 C   0  0  0  0  0  0  0  0  0  0  0  0
    5.5959   -1.7184   21.7668 H   0  0  0  0  0  0  0  0  0  0  0  0
    7.3490   -2.2192   22.8764 C   0  0  0  0  0  0  0  0  0  0  0  0
    6.8772   -2.8698   23.5979 H   0  0  0  0  0  0  0  0  0  0  0  0
    8.7855   -2.1025   23.0726 C   0  0  0  0  0  0  0  0  0  0  0  0
    9.4024   -2.6847   23.9480 O   0  0  0  0  0  0  0  0  0  0  0  0
   10.7036    1.4409   22.5813 C   0  0  0  0  0  0  0  0  0  0  0  0
    9.6277    1.4271   22.6864 H   0  0  0  0  0  0  0  0  0  0  0  0
   11.4474    2.6172   22.5666 C   0  0  0  0  0  0  0  0  0  0  0  0
   10.9549    3.5890   22.6030 H   0  0  0  0  0  0  0  0  0  0  0  0
   12.8402    2.5181   22.4793 C   0  0  0  0  0  0  0  0  0  0  0  0
   13.4812    3.3865   22.4054 H   0  0  0  0  0  0  0  0  0  0  0  0
  1  2  1  0
  2  3  2  0
  3  4  1  0
  4  5  1  0
  5  6  1  0
  5  7  1  0
  7  8  1  0
  8  9  1  0
  8 10  2  0
 10 11  1  0
 11 12  2  0
 12 13  1  0
 12 14  1  0
 14 15  2  0
 15 16  1  0
 15 17  1  0
 17 18  1  0
 17 19  2  0
 19 20  1  0
 10 21  1  0
 21 22  1  0
 21 23  2  0
 23 24  1  0
 23 25  1  0
 25 26  2  0
  4 27  2  0
 27 28  1  0
 27 29  1  0
 29 30  1  0
 29 31  2  0
 31 32  1  0
 31  2  1  0
 25  7  1  0
 19 11  1  0
M  END
>  <cnnaffinity>  (1) 
-4.74628

>  <filename>  (1) 
O=c1ccc(-c2cccnc2)cn1Nc1ccccn1

$$$$
