
     RDKit          3D

 37 39  0  0  0  0  0  0  0  0999 V2000
    5.0407    1.9795   16.9327 H   0  0  0  0  0  0  0  0  0  0  0  0
    5.4845    1.3864   17.7296 C   0  0  0  0  0  0  0  0  0  0  0  0
    6.6669    0.8166   17.4481 N   0  0  0  0  0  0  0  0  0  0  0  0
    7.2452    0.1023   18.4142 C   0  0  0  0  0  0  0  0  0  0  0  0
    8.2363   -0.2904   18.1992 H   0  0  0  0  0  0  0  0  0  0  0  0
    6.6508   -0.1532   19.6663 C   0  0  0  0  0  0  0  0  0  0  0  0
    7.4063   -0.9583   20.6352 C   0  0  0  0  0  0  0  0  0  0  0  0
    8.7122   -0.7793   20.6527 N   0  0  0  0  0  0  0  0  0  0  0  0
    9.4334   -1.2120   21.7469 C   0  0  0  0  0  0  0  0  0  0  0  0
   10.9090   -0.8525   21.7569 C   0  0  0  0  0  0  0  0  0  0  0  0
   11.5101   -1.7667   21.8896 H   0  0  0  0  0  0  0  0  0  0  0  0
   11.1552   -0.4531   20.7626 H   0  0  0  0  0  0  0  0  0  0  0  0
   11.2624    0.0697   22.8364 N   0  0  0  0  0  0  0  0  0  0  0  0
   10.5312    1.3556   22.7947 C   0  0  0  0  0  0  0  0  0  0  0  0
    9.4843    1.1425   23.0409 H   0  0  0  0  0  0  0  0  0  0  0  0
   10.5306    1.7857   21.7752 H   0  0  0  0  0  0  0  0  0  0  0  0
   11.1156    2.4228   23.7842 C   0  0  0  0  0  0  0  0  0  0  0  0
   10.2883    2.9742   24.2447 H   0  0  0  0  0  0  0  0  0  0  0  0
   11.7077    3.1613   23.2187 H   0  0  0  0  0  0  0  0  0  0  0  0
   11.9540    1.8745   24.8615 N   0  0  0  0  0  0  0  0  0  0  0  0
   11.3519    1.3316   25.4801 H   0  0  0  0  0  0  0  0  0  0  0  0
   12.9916    0.9450   24.3530 C   0  0  0  0  0  0  0  0  0  0  0  0
   13.0971    0.1502   25.1010 H   0  0  0  0  0  0  0  0  0  0  0  0
   13.9524    1.4663   24.2827 H   0  0  0  0  0  0  0  0  0  0  0  0
   12.6967    0.3063   22.9688 C   0  0  0  0  0  0  0  0  0  0  0  0
   13.2312   -0.6491   22.8984 H   0  0  0  0  0  0  0  0  0  0  0  0
   13.0955    0.9557   22.1578 H   0  0  0  0  0  0  0  0  0  0  0  0
    8.8553   -1.8733   22.7941 C   0  0  0  0  0  0  0  0  0  0  0  0
    9.3510   -2.0384   23.7481 H   0  0  0  0  0  0  0  0  0  0  0  0
    7.5441   -2.2985   22.6461 N   0  0  0  0  0  0  0  0  0  0  0  0
    7.0379   -2.9448   23.2459 H   0  0  0  0  0  0  0  0  0  0  0  0
    6.7288   -1.9426   21.5787 C   0  0  0  0  0  0  0  0  0  0  0  0
    5.6166   -2.4474   21.5256 O   0  0  0  0  0  0  0  0  0  0  0  0
    5.4229    0.4616   19.9526 C   0  0  0  0  0  0  0  0  0  0  0  0
    4.9412    0.3227   20.9261 H   0  0  0  0  0  0  0  0  0  0  0  0
    4.8426    1.2579   18.9657 C   0  0  0  0  0  0  0  0  0  0  0  0
    3.9091    1.7790   19.1371 H   0  0  0  0  0  0  0  0  0  0  0  0
  1  2  1  0
  2  3  2  0
  3  4  1  0
  4  5  1  0
  4  6  2  0
  6  7  1  0
  7  8  2  0
  8  9  1  0
  9 10  1  0
 10 11  1  0
 10 12  1  0
 10 13  1  0
 13 14  1  0
 14 15  1  0
 14 16  1  0
 14 17  1  0
 17 18  1  0
 17 19  1  0
 17 20  1  0
 20 21  1  0
 20 22  1  0
 22 23  1  0
 22 24  1  0
 22 25  1  0
 25 26  1  0
 25 27  1  0
  9 28  2  0
 28 29  1  0
 28 30  1  0
 30 31  1  0
 30 32  1  0
 32 33  2  0
  6 34  1  0
 34 35  1  0
 34 36  2  0
 36 37  1  0
 36  2  1  0
 32  7  1  0
 25 13  1  0
M  END
>  <cnnaffinity>  (1) 
-4.73612

>  <filename>  (1) 
O=c1[nH]cc(CN2CCNCC2)nc1-c1cccnc1

$$$$
