
     RDKit          3D

 35 37  0  0  0  0  0  0  0  0999 V2000
    4.9198    1.8079   16.9700 H   0  0  0  0  0  0  0  0  0  0  0  0
    5.3836    1.3017   17.8153 C   0  0  0  0  0  0  0  0  0  0  0  0
    6.5470    0.6806   17.5590 N   0  0  0  0  0  0  0  0  0  0  0  0
    7.1526    0.0696   18.5854 C   0  0  0  0  0  0  0  0  0  0  0  0
    8.1003   -0.4223   18.3531 H   0  0  0  0  0  0  0  0  0  0  0  0
    6.6531    0.0431   19.9002 C   0  0  0  0  0  0  0  0  0  0  0  0
    7.3720   -0.6610   21.0008 C   0  0  0  0  0  0  0  0  0  0  0  0
    7.6096   -2.0634   20.8523 C   0  0  0  0  0  0  0  0  0  0  0  0
    7.1768   -2.5086   19.9604 H   0  0  0  0  0  0  0  0  0  0  0  0
    8.2629   -2.7816   21.8067 C   0  0  0  0  0  0  0  0  0  0  0  0
    8.5120   -3.8304   21.7225 H   0  0  0  0  0  0  0  0  0  0  0  0
    8.6325   -2.1537   23.0702 C   0  0  0  0  0  0  0  0  0  0  0  0
    9.1810   -2.6913   24.0186 O   0  0  0  0  0  0  0  0  0  0  0  0
    8.2880   -0.8195   23.1840 N   0  0  0  0  0  0  0  0  0  0  0  0
    8.5905   -0.4468   24.0708 H   0  0  0  0  0  0  0  0  0  0  0  0
    7.7384   -0.0455   22.1849 C   0  0  0  0  0  0  0  0  0  0  0  0
    7.5354    1.3862   22.4675 C   0  0  0  0  0  0  0  0  0  0  0  0
    8.0312    2.3588   21.5819 C   0  0  0  0  0  0  0  0  0  0  0  0
    8.5356    2.0401   20.6759 H   0  0  0  0  0  0  0  0  0  0  0  0
    7.8386    3.7178   21.8521 C   0  0  0  0  0  0  0  0  0  0  0  0
    8.2694    4.4927   21.2215 H   0  0  0  0  0  0  0  0  0  0  0  0
    7.0803    4.1111   22.9519 C   0  0  0  0  0  0  0  0  0  0  0  0
    6.8642    5.1550   23.1577 H   0  0  0  0  0  0  0  0  0  0  0  0
    6.5821    3.1365   23.8148 C   0  0  0  0  0  0  0  0  0  0  0  0
    5.8809    3.6595   24.8926 O   0  0  0  0  0  0  0  0  0  0  0  0
    5.3545    2.8695   25.8422 C   0  0  0  0  0  0  0  0  0  0  0  0
    4.4303    2.0242   25.3578 F   0  0  0  0  0  0  0  0  0  0  0  0
    4.7795    3.6698   26.7281 F   0  0  0  0  0  0  0  0  0  0  0  0
    6.2737    2.1204   26.4721 F   0  0  0  0  0  0  0  0  0  0  0  0
    6.8076    1.7808   23.6033 C   0  0  0  0  0  0  0  0  0  0  0  0
    6.4147    1.0408   24.2910 H   0  0  0  0  0  0  0  0  0  0  0  0
    5.4287    0.6824   20.1387 C   0  0  0  0  0  0  0  0  0  0  0  0
    5.0162    0.6652   21.1488 H   0  0  0  0  0  0  0  0  0  0  0  0
    4.7838    1.3213   19.0793 C   0  0  0  0  0  0  0  0  0  0  0  0
    3.8496    1.8524   19.2199 H   0  0  0  0  0  0  0  0  0  0  0  0
  1  2  1  0
  2  3  2  0
  3  4  1  0
  4  5  1  0
  4  6  2  0
  6  7  1  0
  7  8  1  0
  8  9  1  0
  8 10  2  0
 10 11  1  0
 10 12  1  0
 12 13  2  0
 12 14  1  0
 14 15  1  0
 14 16  1  0
 16 17  1  0
 17 18  2  0
 18 19  1  0
 18 20  1  0
 20 21  1  0
 20 22  2  0
 22 23  1  0
 22 24  1  0
 24 25  1  0
 25 26  1  0
 26 27  1  0
 26 28  1  0
 26 29  1  0
 24 30  2  0
 30 31  1  0
  6 32  1  0
 32 33  1  0
 32 34  2  0
 34 35  1  0
 34  2  1  0
 16  7  2  0
 30 17  1  0
M  END
>  <cnnaffinity>  (1) 
-5.01858

>  <filename>  (1) 
O=c1ccc(-c2cccnc2)c(-c2cccc(OC(F)(F)F)c2)[nH]1

$$$$
