
     RDKit          3D

 37 40  0  0  0  0  0  0  0  0999 V2000
    5.0568    2.0611   16.2118 H   0  0  0  0  0  0  0  0  0  0  0  0
    5.3108    1.4471   17.0744 C   0  0  0  0  0  0  0  0  0  0  0  0
    6.2627    0.5200   16.8922 N   0  0  0  0  0  0  0  0  0  0  0  0
    6.5862   -0.2449   17.9431 C   0  0  0  0  0  0  0  0  0  0  0  0
    7.3444   -1.0082   17.7791 H   0  0  0  0  0  0  0  0  0  0  0  0
    6.0204   -0.1088   19.2267 C   0  0  0  0  0  0  0  0  0  0  0  0
    6.4912   -0.8954   20.3946 C   0  0  0  0  0  0  0  0  0  0  0  0
    7.0026   -0.2521   21.5039 C   0  0  0  0  0  0  0  0  0  0  0  0
    7.0677    0.8358   21.4945 H   0  0  0  0  0  0  0  0  0  0  0  0
    7.4930   -0.9571   22.6431 C   0  0  0  0  0  0  0  0  0  0  0  0
    7.8336   -0.2469   23.9175 C   0  0  0  0  0  0  0  0  0  0  0  0
    6.7631    0.2036   24.7094 C   0  0  0  0  0  0  0  0  0  0  0  0
    5.7581    0.1778   24.2991 H   0  0  0  0  0  0  0  0  0  0  0  0
    6.9850    0.6618   26.0361 C   0  0  0  0  0  0  0  0  0  0  0  0
    6.1489    1.0403   26.6218 H   0  0  0  0  0  0  0  0  0  0  0  0
    8.2421    0.6274   26.5774 C   0  0  0  0  0  0  0  0  0  0  0  0
    8.3881    0.9441   27.6066 H   0  0  0  0  0  0  0  0  0  0  0  0
    9.3849    0.1993   25.7717 C   0  0  0  0  0  0  0  0  0  0  0  0
   10.6640    0.0655   26.3460 C   0  0  0  0  0  0  0  0  0  0  0  0
   10.8204   -0.0100   27.4095 H   0  0  0  0  0  0  0  0  0  0  0  0
   11.6748    0.2362   24.0712 C   0  0  0  0  0  0  0  0  0  0  0  0
   11.7112    0.0698   25.3654 H   0  0  0  0  0  0  0  0  0  0  0  0
   11.5033    0.2931   23.7369 C   0  0  0  0  0  0  0  0  0  0  0  0
   11.8551    1.4056   23.7717 H   0  0  0  0  0  0  0  0  0  0  0  0
   10.4049   -0.3901   23.5434 C   0  0  0  0  0  0  0  0  0  0  0  0
   10.3486   -0.1355   22.5153 H   0  0  0  0  0  0  0  0  0  0  0  0
    9.1635   -0.0957   24.3822 C   0  0  0  0  0  0  0  0  0  0  0  0
    7.4202   -2.3269   22.6446 C   0  0  0  0  0  0  0  0  0  0  0  0
    7.7338   -2.9371   23.4908 H   0  0  0  0  0  0  0  0  0  0  0  0
    6.9216   -2.9685   21.5524 N   0  0  0  0  0  0  0  0  0  0  0  0
    6.7511   -3.9597   21.4949 H   0  0  0  0  0  0  0  0  0  0  0  0
    6.3703   -2.3688   20.4154 C   0  0  0  0  0  0  0  0  0  0  0  0
    5.8546   -3.1244   19.6060 O   0  0  0  0  0  0  0  0  0  0  0  0
    5.0187    0.8615   19.3828 C   0  0  0  0  0  0  0  0  0  0  0  0
    4.5373    0.9908   20.3518 H   0  0  0  0  0  0  0  0  0  0  0  0
    4.6483    1.6416   18.2882 C   0  0  0  0  0  0  0  0  0  0  0  0
    3.8772    2.4004   18.3574 H   0  0  0  0  0  0  0  0  0  0  0  0
  1  2  1  0
  2  3  2  0
  3  4  1  0
  4  5  1  0
  4  6  2  0
  6  7  1  0
  7  8  2  0
  8  9  1  0
  8 10  1  0
 10 11  1  0
 11 12  2  0
 12 13  1  0
 12 14  1  0
 14 15  1  0
 14 16  2  0
 16 17  1  0
 16 18  1  0
 18 19  2  0
 19 20  1  0
 19 21  1  0
 21 22  1  0
 21 23  2  0
 23 24  1  0
 23 25  1  0
 25 26  1  0
 25 27  2  0
 10 28  2  0
 28 29  1  0
 28 30  1  0
 30 31  1  0
 30 32  1  0
 32 33  2  0
  6 34  1  0
 34 35  1  0
 34 36  2  0
 36 37  1  0
 36  2  1  0
 32  7  1  0
 27 11  1  0
 27 18  1  0
M  END
>  <cnnaffinity>  (1) 
-5.28071

>  <filename>  (1) 
O=c1[nH]cc(-c2cccc3ccccc23)cc1-c1cccnc1

$$$$
