
     RDKit          3D

 50 53  0  0  0  0  0  0  0  0999 V2000
   10.8108    4.2457   22.8005 O   0  0  0  0  0  0  0  0  0  0  0  0
   11.0560    3.1560   23.3000 C   0  0  0  0  0  0  0  0  0  0  0  0
   12.3896    2.7662   23.7416 C   0  0  0  0  0  0  0  0  0  0  0  0
   12.6290    1.5902   24.3876 C   0  0  0  0  0  0  0  0  0  0  0  0
   11.5483    0.7051   24.6760 C   0  0  0  0  0  0  0  0  0  0  0  0
   10.3050    1.0057   24.2045 C   0  0  0  0  0  0  0  0  0  0  0  0
   10.0537    2.1602   23.4889 N   0  0  0  0  0  0  0  0  0  0  0  0
    8.8087    2.2929   22.7160 C   0  0  0  0  0  0  0  0  0  0  0  0
    9.0213    2.0008   21.2239 C   0  0  0  0  0  0  0  0  0  0  0  0
    9.5222    0.5791   20.9021 C   0  0  0  0  0  0  0  0  0  0  0  0
    8.6297   -0.5108   21.4009 C   0  0  0  0  0  0  0  0  0  0  0  0
    8.8622   -1.3620   22.3801 N   0  0  0  0  0  0  0  0  0  0  0  0
    7.6618   -1.9939   22.5427 C   0  0  0  0  0  0  0  0  0  0  0  0
    7.4547   -3.0299   23.6073 C   0  0  0  0  0  0  0  0  0  0  0  0
    8.3654   -4.2681   23.3785 C   0  0  0  0  0  0  0  0  0  0  0  0
    8.3717   -5.2098   24.5601 C   0  0  0  0  0  0  0  0  0  0  0  0
    7.9387   -4.8730   25.7770 C   0  0  0  0  0  0  0  0  0  0  0  0
    7.3808   -3.5087   26.1118 C   0  0  0  0  0  0  0  0  0  0  0  0
    7.6947   -2.4602   25.0289 C   0  0  0  0  0  0  0  0  0  0  0  0
    7.0845   -1.5629   25.1930 H   0  0  0  0  0  0  0  0  0  0  0  0
    8.7512   -2.1559   25.1131 H   0  0  0  0  0  0  0  0  0  0  0  0
    6.2923   -3.5955   26.2562 H   0  0  0  0  0  0  0  0  0  0  0  0
    7.7780   -3.1765   27.0798 H   0  0  0  0  0  0  0  0  0  0  0  0
    7.9589   -5.6127   26.5792 H   0  0  0  0  0  0  0  0  0  0  0  0
    8.7900   -6.2031   24.3946 H   0  0  0  0  0  0  0  0  0  0  0  0
    8.0440   -4.8122   22.4809 H   0  0  0  0  0  0  0  0  0  0  0  0
    9.3964   -3.9353   23.1801 H   0  0  0  0  0  0  0  0  0  0  0  0
    6.4047   -3.3426   23.5227 H   0  0  0  0  0  0  0  0  0  0  0  0
    6.7186   -1.6016   21.7149 N   0  0  0  0  0  0  0  0  0  0  0  0
    7.3514   -0.6697   20.9499 N   0  0  0  0  0  0  0  0  0  0  0  0
    6.6627   -0.0102   19.8954 C   0  0  0  0  0  0  0  0  0  0  0  0
    5.4463    0.6280   20.1533 C   0  0  0  0  0  0  0  0  0  0  0  0
    4.8242    1.3068   19.1021 C   0  0  0  0  0  0  0  0  0  0  0  0
    5.4200    1.3053   17.8348 C   0  0  0  0  0  0  0  0  0  0  0  0
    6.5668    0.6615   17.5696 N   0  0  0  0  0  0  0  0  0  0  0  0
    7.1661    0.0223   18.5818 C   0  0  0  0  0  0  0  0  0  0  0  0
    8.0908   -0.4997   18.3420 H   0  0  0  0  0  0  0  0  0  0  0  0
    4.9547    1.8278   17.0004 H   0  0  0  0  0  0  0  0  0  0  0  0
    3.8909    1.8370   19.2539 H   0  0  0  0  0  0  0  0  0  0  0  0
    5.0177    0.5818   21.1553 H   0  0  0  0  0  0  0  0  0  0  0  0
    9.6016    0.4729   19.8177 H   0  0  0  0  0  0  0  0  0  0  0  0
   10.5218    0.4167   21.3143 H   0  0  0  0  0  0  0  0  0  0  0  0
    8.0856    2.1917   20.6835 H   0  0  0  0  0  0  0  0  0  0  0  0
    9.7554    2.7201   20.8554 H   0  0  0  0  0  0  0  0  0  0  0  0
    8.0568    1.6144   23.1418 H   0  0  0  0  0  0  0  0  0  0  0  0
    8.4332    3.3112   22.8489 H   0  0  0  0  0  0  0  0  0  0  0  0
    9.4695    0.3161   24.3124 H   0  0  0  0  0  0  0  0  0  0  0  0
   11.6915   -0.1922   25.2700 H   0  0  0  0  0  0  0  0  0  0  0  0
   13.6472    1.3256   24.6720 H   0  0  0  0  0  0  0  0  0  0  0  0
   13.1488    3.5070   23.5395 H   0  0  0  0  0  0  0  0  0  0  0  0
  1  2  2  0
  2  3  1  0
  3  4  2  0
  4  5  1  0
  5  6  2  0
  6  7  1  0
  7  8  1  0
  8  9  1  0
  9 10  1  0
 10 11  1  0
 11 12  2  0
 12 13  1  0
 13 14  1  0
 14 15  1  0
 15 16  1  0
 16 17  2  0
 17 18  1  0
 18 19  1  0
 19 20  1  0
 19 21  1  0
 18 22  1  0
 18 23  1  0
 17 24  1  0
 16 25  1  0
 15 26  1  0
 15 27  1  0
 14 28  1  0
 13 29  2  0
 29 30  1  0
 30 31  1  0
 31 32  2  0
 32 33  1  0
 33 34  2  0
 34 35  1  0
 35 36  2  0
 36 37  1  0
 34 38  1  0
 33 39  1  0
 32 40  1  0
 10 41  1  0
 10 42  1  0
  9 43  1  0
  9 44  1  0
  8 45  1  0
  8 46  1  0
  6 47  1  0
  5 48  1  0
  4 49  1  0
  3 50  1  0
  7  2  1  0
 30 11  1  0
 36 31  1  0
 19 14  1  0
M  END
>  <cnnaffinity>  (1) 
-6.51852

>  <filename>  (1) 
O=c1ccccn1CCCc1nc(C2CC=CCC2)nn1-c1cccnc1

$$$$
