
     RDKit          3D

 29 31  0  0  0  0  0  0  0  0999 V2000
    9.3995   -2.8097   21.3221 O   0  0  0  0  0  0  0  0  0  0  0  0
    8.4667   -2.0578   21.3070 C   0  0  0  0  0  0  0  0  0  0  0  0
    8.1409   -1.3450   20.1608 O   0  0  0  0  0  0  0  0  0  0  0  0
    7.0245   -0.6425   20.4334 C   0  0  0  0  0  0  0  0  0  0  0  0
    6.5617   -0.7636   21.6293 N   0  0  0  0  0  0  0  0  0  0  0  0
    7.4175   -1.6551   22.2696 C   0  0  0  0  0  0  0  0  0  0  0  0
    7.3070   -1.9388   23.5947 C   0  0  0  0  0  0  0  0  0  0  0  0
    8.1144   -2.8274   24.4263 C   0  0  0  0  0  0  0  0  0  0  0  0
    8.4728   -4.1432   24.0567 C   0  0  0  0  0  0  0  0  0  0  0  0
    9.3411   -4.9030   24.8441 C   0  0  0  0  0  0  0  0  0  0  0  0
    9.8297   -4.3879   26.0469 C   0  0  0  0  0  0  0  0  0  0  0  0
    9.4141   -3.1269   26.4729 C   0  0  0  0  0  0  0  0  0  0  0  0
    8.5486   -2.3692   25.6921 C   0  0  0  0  0  0  0  0  0  0  0  0
    8.0637   -0.8087   26.2950 Cl  0  0  0  0  0  0  0  0  0  0  0  0
    9.7728   -2.7058   27.3994 H   0  0  0  0  0  0  0  0  0  0  0  0
   10.5113   -4.9650   26.6695 H   0  0  0  0  0  0  0  0  0  0  0  0
    9.6502   -5.8911   24.5209 H   0  0  0  0  0  0  0  0  0  0  0  0
    8.0474   -4.5799   23.1582 H   0  0  0  0  0  0  0  0  0  0  0  0
    6.5473   -1.3464   24.1088 H   0  0  0  0  0  0  0  0  0  0  0  0
    6.4691    0.1451   19.3471 C   0  0  0  0  0  0  0  0  0  0  0  0
    5.2977    0.8992   19.5128 C   0  0  0  0  0  0  0  0  0  0  0  0
    4.8159    1.6160   18.4228 C   0  0  0  0  0  0  0  0  0  0  0  0
    5.5210    1.5567   17.2165 C   0  0  0  0  0  0  0  0  0  0  0  0
    6.6446    0.8443   17.0546 N   0  0  0  0  0  0  0  0  0  0  0  0
    7.1063    0.1535   18.0996 C   0  0  0  0  0  0  0  0  0  0  0  0
    8.0169   -0.4187   17.9236 H   0  0  0  0  0  0  0  0  0  0  0  0
    5.1526    2.0845   16.3393 H   0  0  0  0  0  0  0  0  0  0  0  0
    3.9204    2.2249   18.4892 H   0  0  0  0  0  0  0  0  0  0  0  0
    4.7977    0.9275   20.4824 H   0  0  0  0  0  0  0  0  0  0  0  0
  1  2  2  0
  2  3  1  0
  3  4  1  0
  4  5  2  0
  5  6  1  0
  6  7  2  3
  7  8  1  0
  8  9  2  0
  9 10  1  0
 10 11  2  0
 11 12  1  0
 12 13  2  0
 13 14  1  0
 12 15  1  0
 11 16  1  0
 10 17  1  0
  9 18  1  0
  7 19  1  0
  4 20  1  0
 20 21  2  0
 21 22  1  0
 22 23  2  0
 23 24  1  0
 24 25  2  0
 25 26  1  0
 23 27  1  0
 22 28  1  0
 21 29  1  0
  6  2  1  0
 13  8  1  0
 25 20  1  0
M  END
>  <cnnaffinity>  (1) 
-4.98285

>  <filename>  (1) 
O=C1OC(c2cccnc2)=NC1=Cc1ccccc1Cl

$$$$
