
     RDKit          3D

 46 49  0  0  0  0  0  0  0  0999 V2000
   10.1290    4.4613   23.4667 O   0  0  0  0  0  0  0  0  0  0  0  0
    9.0316    4.7834   23.0247 C   0  0  0  0  0  0  0  0  0  0  0  0
    8.8333    5.8688   22.0727 C   0  0  0  0  0  0  0  0  0  0  0  0
    7.6164    6.1281   21.5215 C   0  0  0  0  0  0  0  0  0  0  0  0
    6.4877    5.3397   21.8967 C   0  0  0  0  0  0  0  0  0  0  0  0
    6.6296    4.3891   22.8583 C   0  0  0  0  0  0  0  0  0  0  0  0
    7.8458    4.1358   23.4545 N   0  0  0  0  0  0  0  0  0  0  0  0
    7.9853    3.0333   24.4200 C   0  0  0  0  0  0  0  0  0  0  0  0
    8.3410    1.7118   23.7427 C   0  0  0  0  0  0  0  0  0  0  0  0
    7.2322    1.2333   22.7814 C   0  0  0  0  0  0  0  0  0  0  0  0
    7.4502   -0.1369   22.2403 C   0  0  0  0  0  0  0  0  0  0  0  0
    7.9633   -1.1064   22.9650 N   0  0  0  0  0  0  0  0  0  0  0  0
    8.1875   -2.0897   22.0641 C   0  0  0  0  0  0  0  0  0  0  0  0
    8.9902   -3.2902   22.4085 C   0  0  0  0  0  0  0  0  0  0  0  0
   10.3428   -2.9723   23.1331 C   0  0  0  0  0  0  0  0  0  0  0  0
    9.9770   -3.9661   24.2560 C   0  0  0  0  0  0  0  0  0  0  0  0
    8.5783   -4.1756   23.6258 C   0  0  0  0  0  0  0  0  0  0  0  0
    7.7537   -3.7516   24.2080 H   0  0  0  0  0  0  0  0  0  0  0  0
    8.3256   -5.2140   23.3836 H   0  0  0  0  0  0  0  0  0  0  0  0
   10.6037   -4.8629   24.2966 H   0  0  0  0  0  0  0  0  0  0  0  0
    9.9543   -3.5352   25.2631 H   0  0  0  0  0  0  0  0  0  0  0  0
   10.3932   -1.9371   23.4922 H   0  0  0  0  0  0  0  0  0  0  0  0
   11.2511   -3.1609   22.5558 H   0  0  0  0  0  0  0  0  0  0  0  0
    9.0355   -3.8425   21.4713 H   0  0  0  0  0  0  0  0  0  0  0  0
    7.7877   -1.8213   20.8362 N   0  0  0  0  0  0  0  0  0  0  0  0
    7.2648   -0.5718   20.9546 N   0  0  0  0  0  0  0  0  0  0  0  0
    6.5874    0.0456   19.8709 C   0  0  0  0  0  0  0  0  0  0  0  0
    5.3724    0.7093   20.0779 C   0  0  0  0  0  0  0  0  0  0  0  0
    4.7830    1.3513   18.9874 C   0  0  0  0  0  0  0  0  0  0  0  0
    5.4222    1.3096   17.7457 C   0  0  0  0  0  0  0  0  0  0  0  0
    6.5635    0.6311   17.5322 N   0  0  0  0  0  0  0  0  0  0  0  0
    7.1207   -0.0026   18.5692 C   0  0  0  0  0  0  0  0  0  0  0  0
    8.0270   -0.5689   18.3676 H   0  0  0  0  0  0  0  0  0  0  0  0
    5.0012    1.8314   16.8893 H   0  0  0  0  0  0  0  0  0  0  0  0
    3.8475    1.8857   19.0943 H   0  0  0  0  0  0  0  0  0  0  0  0
    4.8975    0.7076   21.0606 H   0  0  0  0  0  0  0  0  0  0  0  0
    7.1310    1.9357   21.9472 H   0  0  0  0  0  0  0  0  0  0  0  0
    6.2721    1.2145   23.3181 H   0  0  0  0  0  0  0  0  0  0  0  0
    9.2932    1.8353   23.2088 H   0  0  0  0  0  0  0  0  0  0  0  0
    8.5085    0.9539   24.5203 H   0  0  0  0  0  0  0  0  0  0  0  0
    8.7604    3.3162   25.1361 H   0  0  0  0  0  0  0  0  0  0  0  0
    7.0446    2.9341   24.9794 H   0  0  0  0  0  0  0  0  0  0  0  0
    5.7941    3.7778   23.2019 H   0  0  0  0  0  0  0  0  0  0  0  0
    5.5242    5.4855   21.4159 H   0  0  0  0  0  0  0  0  0  0  0  0
    7.4911    6.9396   20.8044 H   0  0  0  0  0  0  0  0  0  0  0  0
    9.7433    6.3968   21.8240 H   0  0  0  0  0  0  0  0  0  0  0  0
  1  2  2  0
  2  3  1  0
  3  4  2  0
  4  5  1  0
  5  6  2  0
  6  7  1  0
  7  8  1  0
  8  9  1  0
  9 10  1  0
 10 11  1  0
 11 12  2  0
 12 13  1  0
 13 14  1  0
 14 15  1  0
 15 16  1  0
 16 17  1  0
 17 18  1  0
 17 19  1  0
 16 20  1  0
 16 21  1  0
 15 22  1  0
 15 23  1  0
 14 24  1  0
 13 25  2  0
 25 26  1  0
 26 27  1  0
 27 28  2  0
 28 29  1  0
 29 30  2  0
 30 31  1  0
 31 32  2  0
 32 33  1  0
 30 34  1  0
 29 35  1  0
 28 36  1  0
 10 37  1  0
 10 38  1  0
  9 39  1  0
  9 40  1  0
  8 41  1  0
  8 42  1  0
  6 43  1  0
  5 44  1  0
  4 45  1  0
  3 46  1  0
  7  2  1  0
 26 11  1  0
 32 27  1  0
 17 14  1  0
M  END
>  <cnnaffinity>  (1) 
-6.12164

>  <filename>  (1) 
O=c1ccccn1CCCc1nc(C2CCC2)nn1-c1cccnc1

$$$$
