
     RDKit          3D

 30 32  0  0  0  0  0  0  0  0999 V2000
    4.9171    1.7777   16.9994 H   0  0  0  0  0  0  0  0  0  0  0  0
    5.4026    1.2934   17.8421 C   0  0  0  0  0  0  0  0  0  0  0  0
    6.5650    0.6741   17.5794 N   0  0  0  0  0  0  0  0  0  0  0  0
    7.1588    0.0503   18.5993 C   0  0  0  0  0  0  0  0  0  0  0  0
    8.1191   -0.4186   18.3882 H   0  0  0  0  0  0  0  0  0  0  0  0
    6.6168   -0.0207   19.9001 C   0  0  0  0  0  0  0  0  0  0  0  0
    7.3087   -0.7441   20.9981 C   0  0  0  0  0  0  0  0  0  0  0  0
    6.5608   -1.4963   21.7679 N   0  0  0  0  0  0  0  0  0  0  0  0
    7.1570   -2.1894   22.8018 N   0  0  0  0  0  0  0  0  0  0  0  0
    6.2970   -2.9927   23.6172 C   0  0  0  0  0  0  0  0  0  0  0  0
    6.3295   -2.8299   25.0149 C   0  0  0  0  0  0  0  0  0  0  0  0
    6.9958   -2.0792   25.4271 H   0  0  0  0  0  0  0  0  0  0  0  0
    5.4951   -3.5808   25.8409 C   0  0  0  0  0  0  0  0  0  0  0  0
    5.5225   -3.4347   26.9174 H   0  0  0  0  0  0  0  0  0  0  0  0
    4.6319   -4.5250   25.2884 C   0  0  0  0  0  0  0  0  0  0  0  0
    3.9807   -5.1188   25.9239 H   0  0  0  0  0  0  0  0  0  0  0  0
    4.6033   -4.7156   23.9037 C   0  0  0  0  0  0  0  0  0  0  0  0
    3.5142   -5.9076   23.2732 Cl  0  0  0  0  0  0  0  0  0  0  0  0
    5.4304   -3.9559   23.0496 C   0  0  0  0  0  0  0  0  0  0  0  0
    5.4170   -4.2684   21.3522 Cl  0  0  0  0  0  0  0  0  0  0  0  0
    8.5196   -2.1064   23.0259 C   0  0  0  0  0  0  0  0  0  0  0  0
    8.9057   -2.7083   23.8520 H   0  0  0  0  0  0  0  0  0  0  0  0
    9.3383   -1.3513   22.2734 C   0  0  0  0  0  0  0  0  0  0  0  0
   10.4021   -1.2651   22.4450 H   0  0  0  0  0  0  0  0  0  0  0  0
    8.7980   -0.5565   21.1831 C   0  0  0  0  0  0  0  0  0  0  0  0
    9.4952    0.1765   20.4862 O   0  0  0  0  0  0  0  0  0  0  0  0
    5.4178    0.6478   20.1586 C   0  0  0  0  0  0  0  0  0  0  0  0
    5.0061    0.6170   21.1702 H   0  0  0  0  0  0  0  0  0  0  0  0
    4.8013    1.3208   19.1060 C   0  0  0  0  0  0  0  0  0  0  0  0
    3.8680    1.8513   19.2580 H   0  0  0  0  0  0  0  0  0  0  0  0
  1  2  1  0
  2  3  2  0
  3  4  1  0
  4  5  1  0
  4  6  2  0
  6  7  1  0
  7  8  2  0
  8  9  1  0
  9 10  1  0
 10 11  2  0
 11 12  1  0
 11 13  1  0
 13 14  1  0
 13 15  2  0
 15 16  1  0
 15 17  1  0
 17 18  1  0
 17 19  2  0
 19 20  1  0
  9 21  1  0
 21 22  1  0
 21 23  2  0
 23 24  1  0
 23 25  1  0
 25 26  2  0
  6 27  1  0
 27 28  1  0
 27 29  2  0
 29 30  1  0
 29  2  1  0
 25  7  1  0
 19 10  1  0
M  END
>  <cnnaffinity>  (1) 
-5.72438

>  <filename>  (1) 
O=c1ccn(-c2cccc(Cl)c2Cl)nc1-c1cccnc1

$$$$
