
     RDKit          3D

 33 35  0  0  0  0  0  0  0  0999 V2000
    4.9367    1.8018   16.9877 H   0  0  0  0  0  0  0  0  0  0  0  0
    5.3906    1.2962   17.8378 C   0  0  0  0  0  0  0  0  0  0  0  0
    6.5435    0.6629   17.5819 N   0  0  0  0  0  0  0  0  0  0  0  0
    7.1337    0.0323   18.5993 C   0  0  0  0  0  0  0  0  0  0  0  0
    8.1064   -0.4136   18.3981 H   0  0  0  0  0  0  0  0  0  0  0  0
    6.5981   -0.0328   19.8984 C   0  0  0  0  0  0  0  0  0  0  0  0
    7.3233   -0.7491   20.9872 C   0  0  0  0  0  0  0  0  0  0  0  0
    6.5810   -1.5131   21.7490 N   0  0  0  0  0  0  0  0  0  0  0  0
    7.1629   -2.1846   22.7972 N   0  0  0  0  0  0  0  0  0  0  0  0
    6.2959   -2.9926   23.6158 C   0  0  0  0  0  0  0  0  0  0  0  0
    5.2218   -3.6734   23.0251 C   0  0  0  0  0  0  0  0  0  0  0  0
    5.0775   -3.5391   21.9590 H   0  0  0  0  0  0  0  0  0  0  0  0
    4.3751   -4.4657   23.8048 C   0  0  0  0  0  0  0  0  0  0  0  0
    3.5401   -4.9823   23.3347 H   0  0  0  0  0  0  0  0  0  0  0  0
    4.5833   -4.5798   25.1916 C   0  0  0  0  0  0  0  0  0  0  0  0
    3.6890   -5.4684   26.0336 C   0  0  0  0  0  0  0  0  0  0  0  0
    3.5912   -5.0395   27.3069 F   0  0  0  0  0  0  0  0  0  0  0  0
    2.4336   -5.5383   25.5488 F   0  0  0  0  0  0  0  0  0  0  0  0
    4.1515   -6.7332   26.0868 F   0  0  0  0  0  0  0  0  0  0  0  0
    5.6609   -3.8992   25.7815 C   0  0  0  0  0  0  0  0  0  0  0  0
    5.8481   -3.9787   26.8512 H   0  0  0  0  0  0  0  0  0  0  0  0
    6.5112   -3.1148   24.9998 C   0  0  0  0  0  0  0  0  0  0  0  0
    7.3302   -2.5678   25.4562 H   0  0  0  0  0  0  0  0  0  0  0  0
    8.5202   -2.1222   23.0247 C   0  0  0  0  0  0  0  0  0  0  0  0
    8.8792   -2.7456   23.8426 H   0  0  0  0  0  0  0  0  0  0  0  0
    9.3484   -1.3675   22.2810 C   0  0  0  0  0  0  0  0  0  0  0  0
   10.4113   -1.2993   22.4573 H   0  0  0  0  0  0  0  0  0  0  0  0
    8.8119   -0.5679   21.1865 C   0  0  0  0  0  0  0  0  0  0  0  0
    9.5200    0.1676   20.5073 O   0  0  0  0  0  0  0  0  0  0  0  0
    5.3913    0.6294   20.1519 C   0  0  0  0  0  0  0  0  0  0  0  0
    4.9790    0.6169   21.1621 H   0  0  0  0  0  0  0  0  0  0  0  0
    4.7837    1.3178   19.0995 C   0  0  0  0  0  0  0  0  0  0  0  0
    3.8609    1.8702   19.2337 H   0  0  0  0  0  0  0  0  0  0  0  0
  1  2  1  0
  2  3  2  0
  3  4  1  0
  4  5  1  0
  4  6  2  0
  6  7  1  0
  7  8  2  0
  8  9  1  0
  9 10  1  0
 10 11  2  0
 11 12  1  0
 11 13  1  0
 13 14  1  0
 13 15  2  0
 15 16  1  0
 16 17  1  0
 16 18  1  0
 16 19  1  0
 15 20  1  0
 20 21  1  0
 20 22  2  0
 22 23  1  0
  9 24  1  0
 24 25  1  0
 24 26  2  0
 26 27  1  0
 26 28  1  0
 28 29  2  0
  6 30  1  0
 30 31  1  0
 30 32  2  0
 32 33  1  0
 32  2  1  0
 28  7  1  0
 22 10  1  0
M  END
>  <cnnaffinity>  (1) 
-5.36113

>  <filename>  (1) 
O=c1ccn(-c2ccc(C(F)(F)F)cc2)nc1-c1cccnc1

$$$$
