
     RDKit          3D

 35 38  0  0  0  0  0  0  0  0999 V2000
    4.9299    1.7878   16.9921 H   0  0  0  0  0  0  0  0  0  0  0  0
    5.3966    1.2875   17.8388 C   0  0  0  0  0  0  0  0  0  0  0  0
    6.5641    0.6699   17.5931 N   0  0  0  0  0  0  0  0  0  0  0  0
    7.1740    0.0646   18.6198 C   0  0  0  0  0  0  0  0  0  0  0  0
    8.1283   -0.4042   18.3814 H   0  0  0  0  0  0  0  0  0  0  0  0
    6.6633    0.0423   19.9364 C   0  0  0  0  0  0  0  0  0  0  0  0
    7.3391   -0.6268   21.0110 N   0  0  0  0  0  0  0  0  0  0  0  0
    7.2802   -0.0682   22.2487 N   0  0  0  0  0  0  0  0  0  0  0  0
    7.9953   -0.5898   23.2157 C   0  0  0  0  0  0  0  0  0  0  0  0
    7.9518    0.0885   24.5179 C   0  0  0  0  0  0  0  0  0  0  0  0
    7.6411   -0.6248   25.6673 C   0  0  0  0  0  0  0  0  0  0  0  0
    7.4732   -1.6979   25.5932 H   0  0  0  0  0  0  0  0  0  0  0  0
    7.6053    0.0066   26.9259 C   0  0  0  0  0  0  0  0  0  0  0  0
    7.3669   -0.5853   27.8025 H   0  0  0  0  0  0  0  0  0  0  0  0
    7.8860    1.3491   27.0450 C   0  0  0  0  0  0  0  0  0  0  0  0
    7.8675    1.8407   28.0126 H   0  0  0  0  0  0  0  0  0  0  0  0
    8.2144    2.1203   25.8995 C   0  0  0  0  0  0  0  0  0  0  0  0
    8.5169    3.5102   25.9551 C   0  0  0  0  0  0  0  0  0  0  0  0
    8.4774    4.0114   26.9209 H   0  0  0  0  0  0  0  0  0  0  0  0
    8.8403    4.1712   24.7946 C   0  0  0  0  0  0  0  0  0  0  0  0
    9.0603    5.2307   24.7751 H   0  0  0  0  0  0  0  0  0  0  0  0
    8.8930    3.4389   23.5751 C   0  0  0  0  0  0  0  0  0  0  0  0
    9.1341    3.9485   22.6414 H   0  0  0  0  0  0  0  0  0  0  0  0
    8.6497    2.1529   23.4880 N   0  0  0  0  0  0  0  0  0  0  0  0
    8.2555    1.4852   24.6090 C   0  0  0  0  0  0  0  0  0  0  0  0
    8.7157   -1.9203   23.0815 C   0  0  0  0  0  0  0  0  0  0  0  0
    9.3087   -2.4812   23.9948 O   0  0  0  0  0  0  0  0  0  0  0  0
    8.6065   -2.5048   21.7503 C   0  0  0  0  0  0  0  0  0  0  0  0
    9.0811   -3.4589   21.6062 H   0  0  0  0  0  0  0  0  0  0  0  0
    7.9283   -1.8383   20.8002 C   0  0  0  0  0  0  0  0  0  0  0  0
    7.7183   -2.1644   19.8011 H   0  0  0  0  0  0  0  0  0  0  0  0
    5.4393    0.6700   20.1751 C   0  0  0  0  0  0  0  0  0  0  0  0
    5.0539    0.6412   21.1923 H   0  0  0  0  0  0  0  0  0  0  0  0
    4.7998    1.3049   19.1054 C   0  0  0  0  0  0  0  0  0  0  0  0
    3.8682    1.8383   19.2506 H   0  0  0  0  0  0  0  0  0  0  0  0
  1  2  1  0
  2  3  2  0
  3  4  1  0
  4  5  1  0
  4  6  2  0
  6  7  1  0
  7  8  1  0
  8  9  2  0
  9 10  1  0
 10 11  2  0
 11 12  1  0
 11 13  1  0
 13 14  1  0
 13 15  2  0
 15 16  1  0
 15 17  1  0
 17 18  2  0
 18 19  1  0
 18 20  1  0
 20 21  1  0
 20 22  2  0
 22 23  1  0
 22 24  1  0
 24 25  2  0
  9 26  1  0
 26 27  2  0
 26 28  1  0
 28 29  1  0
 28 30  2  0
 30 31  1  0
  6 32  1  0
 32 33  1  0
 32 34  2  0
 34 35  1  0
 34  2  1  0
 30  7  1  0
 25 10  1  0
 25 17  1  0
M  END
>  <cnnaffinity>  (1) 
-5.43211

>  <filename>  (1) 
O=c1ccn(-c2cccnc2)nc1-c1cccc2cccnc12

$$$$
