
     RDKit          3D

 36 39  0  0  0  0  0  0  0  0999 V2000
    4.9249    1.8079   16.9229 H   0  0  0  0  0  0  0  0  0  0  0  0
    5.3816    1.3318   17.7886 C   0  0  0  0  0  0  0  0  0  0  0  0
    6.5579    0.7202   17.5757 N   0  0  0  0  0  0  0  0  0  0  0  0
    7.1405    0.1289   18.6261 C   0  0  0  0  0  0  0  0  0  0  0  0
    8.0939   -0.3565   18.4182 H   0  0  0  0  0  0  0  0  0  0  0  0
    6.6046    0.1101   19.9336 C   0  0  0  0  0  0  0  0  0  0  0  0
    7.2843   -0.5677   21.0755 C   0  0  0  0  0  0  0  0  0  0  0  0
    7.7663   -1.8857   20.9613 C   0  0  0  0  0  0  0  0  0  0  0  0
    7.5428   -2.4412   20.0691 H   0  0  0  0  0  0  0  0  0  0  0  0
    8.4294   -2.5267   21.9206 N   0  0  0  0  0  0  0  0  0  0  0  0
    8.6212   -1.9148   23.0971 N   0  0  0  0  0  0  0  0  0  0  0  0
    8.1186   -0.6967   23.3221 C   0  0  0  0  0  0  0  0  0  0  0  0
    8.3550   -0.1205   24.7129 C   0  0  0  0  0  0  0  0  0  0  0  0
    8.5682   -0.9600   25.3855 H   0  0  0  0  0  0  0  0  0  0  0  0
    7.4642    0.4141   25.0594 H   0  0  0  0  0  0  0  0  0  0  0  0
    9.5003    0.8031   24.7793 N   0  0  0  0  0  0  0  0  0  0  0  0
   10.8055    0.3077   24.7750 C   0  0  0  0  0  0  0  0  0  0  0  0
   11.1010   -0.7989   25.1440 O   0  0  0  0  0  0  0  0  0  0  0  0
   11.6793    1.3768   24.2403 C   0  0  0  0  0  0  0  0  0  0  0  0
   13.0259    1.3429   23.8896 C   0  0  0  0  0  0  0  0  0  0  0  0
   13.6133    0.4390   24.0307 H   0  0  0  0  0  0  0  0  0  0  0  0
   13.5603    2.4911   23.3044 C   0  0  0  0  0  0  0  0  0  0  0  0
   14.5570    2.4813   22.8732 H   0  0  0  0  0  0  0  0  0  0  0  0
   12.7952    3.6658   23.1788 C   0  0  0  0  0  0  0  0  0  0  0  0
   13.2766    4.5293   22.7264 H   0  0  0  0  0  0  0  0  0  0  0  0
   11.4470    3.6920   23.5439 C   0  0  0  0  0  0  0  0  0  0  0  0
   10.8584    4.6006   23.4361 H   0  0  0  0  0  0  0  0  0  0  0  0
   10.8921    2.5071   24.0352 C   0  0  0  0  0  0  0  0  0  0  0  0
    9.4757    2.1139   24.2894 C   0  0  0  0  0  0  0  0  0  0  0  0
    8.4618    2.7384   24.0829 O   0  0  0  0  0  0  0  0  0  0  0  0
    7.4400    0.0271   22.3179 C   0  0  0  0  0  0  0  0  0  0  0  0
    7.0571    1.0235   22.5154 H   0  0  0  0  0  0  0  0  0  0  0  0
    5.3757    0.7553   20.1226 C   0  0  0  0  0  0  0  0  0  0  0  0
    4.9209    0.7562   21.1142 H   0  0  0  0  0  0  0  0  0  0  0  0
    4.7503    1.3679   19.0356 C   0  0  0  0  0  0  0  0  0  0  0  0
    3.8026    1.8827   19.1453 H   0  0  0  0  0  0  0  0  0  0  0  0
  1  2  1  0
  2  3  2  0
  3  4  1  0
  4  5  1  0
  4  6  2  0
  6  7  1  0
  7  8  2  0
  8  9  1  0
  8 10  1  0
 10 11  2  0
 11 12  1  0
 12 13  1  0
 13 14  1  0
 13 15  1  0
 13 16  1  0
 16 17  1  0
 17 18  2  0
 17 19  1  0
 19 20  2  0
 20 21  1  0
 20 22  1  0
 22 23  1  0
 22 24  2  0
 24 25  1  0
 24 26  1  0
 26 27  1  0
 26 28  2  0
 28 29  1  0
 29 30  2  0
 12 31  2  0
 31 32  1  0
  6 33  1  0
 33 34  1  0
 33 35  2  0
 35 36  1  0
 35  2  1  0
 31  7  1  0
 29 16  1  0
 28 19  1  0
M  END
>  <cnnaffinity>  (1) 
-5.63847

>  <filename>  (1) 
O=C1c2ccccc2C(=O)N1Cc1cc(-c2cccnc2)cnn1

$$$$
