
     RDKit          3D

 27 29  0  0  0  0  0  0  0  0999 V2000
    7.3935   -6.4975   20.5730 H   0  0  0  0  0  0  0  0  0  0  0  0
    7.7550   -5.8202   21.3391 C   0  0  0  0  0  0  0  0  0  0  0  0
    7.6249   -4.4798   21.1591 N   0  0  0  0  0  0  0  0  0  0  0  0
    8.1097   -3.8065   22.1679 C   0  0  0  0  0  0  0  0  0  0  0  0
    8.0134   -2.3741   22.1418 C   0  0  0  0  0  0  0  0  0  0  0  0
    7.4313   -1.7412   21.0887 C   0  0  0  0  0  0  0  0  0  0  0  0
    7.0474   -2.2950   20.2377 H   0  0  0  0  0  0  0  0  0  0  0  0
    7.3204   -0.3708   21.0374 N   0  0  0  0  0  0  0  0  0  0  0  0
    6.6483    0.2336   19.9053 C   0  0  0  0  0  0  0  0  0  0  0  0
    7.1642    0.1696   18.5956 C   0  0  0  0  0  0  0  0  0  0  0  0
    8.1082   -0.3400   18.3989 H   0  0  0  0  0  0  0  0  0  0  0  0
    6.5505    0.7215   17.5418 N   0  0  0  0  0  0  0  0  0  0  0  0
    5.3759    1.3386   17.7457 C   0  0  0  0  0  0  0  0  0  0  0  0
    4.9043    1.7735   16.8669 H   0  0  0  0  0  0  0  0  0  0  0  0
    4.7709    1.4237   19.0027 C   0  0  0  0  0  0  0  0  0  0  0  0
    3.8186    1.9261   19.1111 H   0  0  0  0  0  0  0  0  0  0  0  0
    5.4273    0.8774   20.1074 C   0  0  0  0  0  0  0  0  0  0  0  0
    5.0297    0.9491   21.1177 H   0  0  0  0  0  0  0  0  0  0  0  0
    7.7018    0.4118   22.1536 C   0  0  0  0  0  0  0  0  0  0  0  0
    7.4568    1.5848   22.3066 O   0  0  0  0  0  0  0  0  0  0  0  0
    8.4248   -0.2519   23.0911 N   0  0  0  0  0  0  0  0  0  0  0  0
    8.7091    0.3253   23.8586 H   0  0  0  0  0  0  0  0  0  0  0  0
    8.5652   -1.6039   23.2385 C   0  0  0  0  0  0  0  0  0  0  0  0
    9.1269   -2.0483   24.2150 O   0  0  0  0  0  0  0  0  0  0  0  0
    8.7774   -4.8116   23.4274 S   0  0  0  0  0  0  0  0  0  0  0  0
    8.3603   -6.1932   22.5017 C   0  0  0  0  0  0  0  0  0  0  0  0
    8.5990   -7.1935   22.8296 H   0  0  0  0  0  0  0  0  0  0  0  0
  1  2  1  0
  2  3  1  0
  3  4  2  0
  4  5  1  0
  5  6  2  0
  6  7  1  0
  6  8  1  0
  8  9  1  0
  9 10  2  0
 10 11  1  0
 10 12  1  0
 12 13  2  0
 13 14  1  0
 13 15  1  0
 15 16  1  0
 15 17  2  0
 17 18  1  0
  8 19  1  0
 19 20  2  0
 19 21  1  0
 21 22  1  0
 21 23  1  0
 23 24  2  0
  4 25  1  0
 25 26  1  0
 26 27  1  0
 26  2  2  0
 23  5  1  0
 17  9  1  0
M  END
>  <cnnaffinity>  (1) 
-5.2617

>  <filename>  (1) 
O=c1[nH]c(=O)n(-c2cccnc2)cc1-c1nccs1

$$$$
