
     RDKit          3D

 35 38  0  0  0  0  0  0  0  0999 V2000
    4.9549    1.7977   16.9800 H   0  0  0  0  0  0  0  0  0  0  0  0
    5.4110    1.2929   17.8285 C   0  0  0  0  0  0  0  0  0  0  0  0
    6.5708    0.6622   17.5861 N   0  0  0  0  0  0  0  0  0  0  0  0
    7.1626    0.0519   18.6167 C   0  0  0  0  0  0  0  0  0  0  0  0
    8.1117   -0.4391   18.3965 H   0  0  0  0  0  0  0  0  0  0  0  0
    6.6317    0.0099   19.9142 C   0  0  0  0  0  0  0  0  0  0  0  0
    7.3547   -0.7025   20.9939 C   0  0  0  0  0  0  0  0  0  0  0  0
    6.6593   -1.4510   21.7818 N   0  0  0  0  0  0  0  0  0  0  0  0
    7.3064   -2.0943   22.8383 N   0  0  0  0  0  0  0  0  0  0  0  0
    6.4412   -2.6516   23.8205 C   0  0  0  0  0  0  0  0  0  0  0  0
    5.3912   -3.4505   23.5185 C   0  0  0  0  0  0  0  0  0  0  0  0
    5.0250   -3.6698   22.5227 H   0  0  0  0  0  0  0  0  0  0  0  0
    4.5541   -4.0139   24.9217 S   0  0  0  0  0  0  0  0  0  0  0  0
    5.5505   -3.0359   25.9668 C   0  0  0  0  0  0  0  0  0  0  0  0
    5.3901   -2.8372   27.3534 C   0  0  0  0  0  0  0  0  0  0  0  0
    4.6254   -3.3635   27.9177 H   0  0  0  0  0  0  0  0  0  0  0  0
    6.2160   -1.9104   27.9742 C   0  0  0  0  0  0  0  0  0  0  0  0
    6.0575   -1.6921   29.0298 H   0  0  0  0  0  0  0  0  0  0  0  0
    7.2965   -1.3131   27.2911 C   0  0  0  0  0  0  0  0  0  0  0  0
    7.9797   -0.6577   27.8266 H   0  0  0  0  0  0  0  0  0  0  0  0
    7.4792   -1.5427   25.9355 C   0  0  0  0  0  0  0  0  0  0  0  0
    8.3224   -1.1165   25.3999 H   0  0  0  0  0  0  0  0  0  0  0  0
    6.5616   -2.3685   25.2424 C   0  0  0  0  0  0  0  0  0  0  0  0
    8.6892   -2.3696   22.9030 C   0  0  0  0  0  0  0  0  0  0  0  0
    9.1869   -3.0660   23.7656 O   0  0  0  0  0  0  0  0  0  0  0  0
    9.4900   -1.7689   21.7685 C   0  0  0  0  0  0  0  0  0  0  0  0
    9.5639   -2.5610   21.0132 H   0  0  0  0  0  0  0  0  0  0  0  0
   10.4953   -1.6059   22.1600 H   0  0  0  0  0  0  0  0  0  0  0  0
    8.8447   -0.5023   21.1935 C   0  0  0  0  0  0  0  0  0  0  0  0
    8.9768    0.3416   21.8867 H   0  0  0  0  0  0  0  0  0  0  0  0
    9.3244   -0.2008   20.2574 H   0  0  0  0  0  0  0  0  0  0  0  0
    5.4037    0.6520   20.1462 C   0  0  0  0  0  0  0  0  0  0  0  0
    4.9581    0.6269   21.1419 H   0  0  0  0  0  0  0  0  0  0  0  0
    4.7939    1.3177   19.0846 C   0  0  0  0  0  0  0  0  0  0  0  0
    3.8614    1.8571   19.2155 H   0  0  0  0  0  0  0  0  0  0  0  0
  1  2  1  0
  2  3  2  0
  3  4  1  0
  4  5  1  0
  4  6  2  0
  6  7  1  0
  7  8  2  0
  8  9  1  0
  9 10  1  0
 10 11  2  0
 11 12  1  0
 11 13  1  0
 13 14  1  0
 14 15  2  0
 15 16  1  0
 15 17  1  0
 17 18  1  0
 17 19  2  0
 19 20  1  0
 19 21  1  0
 21 22  1  0
 21 23  2  0
  9 24  1  0
 24 25  2  0
 24 26  1  0
 26 27  1  0
 26 28  1  0
 26 29  1  0
 29 30  1  0
 29 31  1  0
  6 32  1  0
 32 33  1  0
 32 34  2  0
 34 35  1  0
 34  2  1  0
 29  7  1  0
 23 10  1  0
 23 14  1  0
M  END
>  <cnnaffinity>  (1) 
-5.38249

>  <filename>  (1) 
O=C1CCC(c2cccnc2)=NN1c1csc2ccccc12

$$$$
