
     RDKit          3D

 43 46  0  0  0  0  0  0  0  0999 V2000
   10.0109    5.7880   24.5316 O   0  0  0  0  0  0  0  0  0  0  0  0
    9.2552    5.4591   23.6327 C   0  0  0  0  0  0  0  0  0  0  0  0
    8.2950    6.3251   22.9463 C   0  0  0  0  0  0  0  0  0  0  0  0
    7.3936    5.7946   22.0681 C   0  0  0  0  0  0  0  0  0  0  0  0
    7.4518    4.4071   21.7512 C   0  0  0  0  0  0  0  0  0  0  0  0
    8.4564    3.6097   22.2331 C   0  0  0  0  0  0  0  0  0  0  0  0
    8.6474    2.1882   21.8291 C   0  0  0  0  0  0  0  0  0  0  0  0
    7.6874    1.2678   22.6131 C   0  0  0  0  0  0  0  0  0  0  0  0
    7.7539   -0.1492   22.1890 C   0  0  0  0  0  0  0  0  0  0  0  0
    8.3348   -1.1206   22.8620 N   0  0  0  0  0  0  0  0  0  0  0  0
    8.2868   -2.1579   21.9931 C   0  0  0  0  0  0  0  0  0  0  0  0
    8.8237   -3.5002   22.2916 C   0  0  0  0  0  0  0  0  0  0  0  0
    7.8681   -4.4073   23.0393 C   0  0  0  0  0  0  0  0  0  0  0  0
    8.0624   -5.8895   22.9378 C   0  0  0  0  0  0  0  0  0  0  0  0
    6.9231   -5.2282   22.2124 C   0  0  0  0  0  0  0  0  0  0  0  0
    7.0081   -5.1220   21.1317 H   0  0  0  0  0  0  0  0  0  0  0  0
    5.9065   -5.3834   22.5585 H   0  0  0  0  0  0  0  0  0  0  0  0
    8.9000   -6.2713   22.3602 H   0  0  0  0  0  0  0  0  0  0  0  0
    7.8401   -6.4779   23.8193 H   0  0  0  0  0  0  0  0  0  0  0  0
    7.5090   -4.0253   23.9953 H   0  0  0  0  0  0  0  0  0  0  0  0
    8.9839   -3.9189   21.3024 H   0  0  0  0  0  0  0  0  0  0  0  0
    9.7702   -3.3860   22.8265 H   0  0  0  0  0  0  0  0  0  0  0  0
    7.7381   -1.8896   20.8277 N   0  0  0  0  0  0  0  0  0  0  0  0
    7.3627   -0.5959   20.9603 N   0  0  0  0  0  0  0  0  0  0  0  0
    6.6472    0.0504   19.9153 C   0  0  0  0  0  0  0  0  0  0  0  0
    5.4298    0.6973   20.1512 C   0  0  0  0  0  0  0  0  0  0  0  0
    4.8097    1.3336   19.0728 C   0  0  0  0  0  0  0  0  0  0  0  0
    5.4213    1.2983   17.8168 C   0  0  0  0  0  0  0  0  0  0  0  0
    6.5755    0.6486   17.5794 N   0  0  0  0  0  0  0  0  0  0  0  0
    7.1620    0.0259   18.6066 C   0  0  0  0  0  0  0  0  0  0  0  0
    8.0861   -0.5104   18.3978 H   0  0  0  0  0  0  0  0  0  0  0  0
    4.9654    1.7970   16.9654 H   0  0  0  0  0  0  0  0  0  0  0  0
    3.8706    1.8564   19.2058 H   0  0  0  0  0  0  0  0  0  0  0  0
    4.9792    0.6737   21.1450 H   0  0  0  0  0  0  0  0  0  0  0  0
    7.9031    1.2988   23.6826 H   0  0  0  0  0  0  0  0  0  0  0  0
    6.6621    1.6236   22.4884 H   0  0  0  0  0  0  0  0  0  0  0  0
    8.4506    2.0956   20.7555 H   0  0  0  0  0  0  0  0  0  0  0  0
    9.6899    1.8833   21.9811 H   0  0  0  0  0  0  0  0  0  0  0  0
    9.2746    4.1330   23.2036 N   0  0  0  0  0  0  0  0  0  0  0  0
    9.9770    3.6001   23.6952 H   0  0  0  0  0  0  0  0  0  0  0  0
    6.7096    3.9773   21.0988 H   0  0  0  0  0  0  0  0  0  0  0  0
    6.6184    6.4130   21.6095 H   0  0  0  0  0  0  0  0  0  0  0  0
    8.3352    7.3691   23.2218 H   0  0  0  0  0  0  0  0  0  0  0  0
  1  2  2  0
  2  3  1  0
  3  4  2  0
  4  5  1  0
  5  6  2  0
  6  7  1  0
  7  8  1  0
  8  9  1  0
  9 10  2  0
 10 11  1  0
 11 12  1  0
 12 13  1  0
 13 14  1  0
 14 15  1  0
 15 16  1  0
 15 17  1  0
 14 18  1  0
 14 19  1  0
 13 20  1  0
 12 21  1  0
 12 22  1  0
 11 23  2  0
 23 24  1  0
 24 25  1  0
 25 26  2  0
 26 27  1  0
 27 28  2  0
 28 29  1  0
 29 30  2  0
 30 31  1  0
 28 32  1  0
 27 33  1  0
 26 34  1  0
  8 35  1  0
  8 36  1  0
  7 37  1  0
  7 38  1  0
  6 39  1  0
 39 40  1  0
  5 41  1  0
  4 42  1  0
  3 43  1  0
 39  2  1  0
 24  9  1  0
 30 25  1  0
 15 13  1  0
M  END
>  <cnnaffinity>  (1) 
-6.01481

>  <filename>  (1) 
O=c1cccc(CCc2nc(CC3CC3)nn2-c2cccnc2)[nH]1

$$$$
