
     RDKit          3D

 31 33  0  0  0  0  0  0  0  0999 V2000
    4.9386    1.7993   16.9841 H   0  0  0  0  0  0  0  0  0  0  0  0
    5.4015    1.2880   17.8279 C   0  0  0  0  0  0  0  0  0  0  0  0
    6.5605    0.6571   17.5713 N   0  0  0  0  0  0  0  0  0  0  0  0
    7.1493    0.0195   18.5878 C   0  0  0  0  0  0  0  0  0  0  0  0
    8.1152   -0.4371   18.3581 H   0  0  0  0  0  0  0  0  0  0  0  0
    6.6358   -0.0221   19.8940 C   0  0  0  0  0  0  0  0  0  0  0  0
    7.3791   -0.6669   20.9815 C   0  0  0  0  0  0  0  0  0  0  0  0
    7.7091   -0.0748   22.1875 C   0  0  0  0  0  0  0  0  0  0  0  0
    7.4572    1.3676   22.4625 C   0  0  0  0  0  0  0  0  0  0  0  0
    6.6392    1.7667   23.5318 C   0  0  0  0  0  0  0  0  0  0  0  0
    6.2071    0.9856   24.1611 H   0  0  0  0  0  0  0  0  0  0  0  0
    6.3723    3.1176   23.7791 C   0  0  0  0  0  0  0  0  0  0  0  0
    5.7413    3.4468   24.5958 H   0  0  0  0  0  0  0  0  0  0  0  0
    6.9571    4.0737   22.9508 C   0  0  0  0  0  0  0  0  0  0  0  0
    6.7144    5.3747   23.1750 F   0  0  0  0  0  0  0  0  0  0  0  0
    7.7985    3.7304   21.9008 C   0  0  0  0  0  0  0  0  0  0  0  0
    8.2623    4.4913   21.2867 H   0  0  0  0  0  0  0  0  0  0  0  0
    8.0204    2.3789   21.6684 C   0  0  0  0  0  0  0  0  0  0  0  0
    8.8267    2.0299   20.6581 F   0  0  0  0  0  0  0  0  0  0  0  0
    8.3425   -0.8791   23.1959 C   0  0  0  0  0  0  0  0  0  0  0  0
    8.5803   -0.3807   24.1383 H   0  0  0  0  0  0  0  0  0  0  0  0
    8.6460   -2.1879   22.9765 C   0  0  0  0  0  0  0  0  0  0  0  0
    9.1290   -2.8305   23.7030 H   0  0  0  0  0  0  0  0  0  0  0  0
    8.3073   -2.8199   21.7072 C   0  0  0  0  0  0  0  0  0  0  0  0
    8.4500   -3.9898   21.3905 O   0  0  0  0  0  0  0  0  0  0  0  0
    7.7550   -1.9680   20.7692 N   0  0  0  0  0  0  0  0  0  0  0  0
    7.4924   -2.4865   19.9512 H   0  0  0  0  0  0  0  0  0  0  0  0
    5.4258    0.6428   20.1443 C   0  0  0  0  0  0  0  0  0  0  0  0
    5.0112    0.6511   21.1552 H   0  0  0  0  0  0  0  0  0  0  0  0
    4.7995    1.3034   19.0900 C   0  0  0  0  0  0  0  0  0  0  0  0
    3.8742    1.8456   19.2353 H   0  0  0  0  0  0  0  0  0  0  0  0
  1  2  1  0
  2  3  2  0
  3  4  1  0
  4  5  1  0
  4  6  2  0
  6  7  1  0
  7  8  2  0
  8  9  1  0
  9 10  2  0
 10 11  1  0
 10 12  1  0
 12 13  1  0
 12 14  2  0
 14 15  1  0
 14 16  1  0
 16 17  1  0
 16 18  2  0
 18 19  1  0
  8 20  1  0
 20 21  1  0
 20 22  2  0
 22 23  1  0
 22 24  1  0
 24 25  2  0
 24 26  1  0
 26 27  1  0
  6 28  1  0
 28 29  1  0
 28 30  2  0
 30 31  1  0
 30  2  1  0
 26  7  1  0
 18  9  1  0
M  END
>  <cnnaffinity>  (1) 
-5.32986

>  <filename>  (1) 
O=c1ccc(-c2ccc(F)cc2F)c(-c2cccnc2)[nH]1

$$$$
