
     RDKit          3D

 40 43  0  0  0  0  0  0  0  0999 V2000
    8.0922    7.5224   23.1084 O   0  0  0  0  0  0  0  0  0  0  0  0
    8.2263    6.3211   22.9449 C   0  0  0  0  0  0  0  0  0  0  0  0
    9.2012    5.4597   23.5985 C   0  0  0  0  0  0  0  0  0  0  0  0
    9.3619    4.1594   23.2201 C   0  0  0  0  0  0  0  0  0  0  0  0
    8.5058    3.5875   22.2110 C   0  0  0  0  0  0  0  0  0  0  0  0
    8.6699    2.1585   21.7855 C   0  0  0  0  0  0  0  0  0  0  0  0
    7.6999    1.2505   22.5673 C   0  0  0  0  0  0  0  0  0  0  0  0
    7.7779   -0.1658   22.1529 C   0  0  0  0  0  0  0  0  0  0  0  0
    8.3934   -1.1088   22.8237 N   0  0  0  0  0  0  0  0  0  0  0  0
    8.3418   -2.1622   21.9727 C   0  0  0  0  0  0  0  0  0  0  0  0
    8.9733   -3.4370   22.3446 C   0  0  0  0  0  0  0  0  0  0  0  0
    8.1918   -4.7196   22.2428 C   0  0  0  0  0  0  0  0  0  0  0  0
    8.5814   -4.1886   23.5920 C   0  0  0  0  0  0  0  0  0  0  0  0
    9.3941   -4.6920   24.1134 H   0  0  0  0  0  0  0  0  0  0  0  0
    7.8252   -3.7482   24.2391 H   0  0  0  0  0  0  0  0  0  0  0  0
    7.1526   -4.5923   21.9411 H   0  0  0  0  0  0  0  0  0  0  0  0
    8.6698   -5.6169   21.8596 H   0  0  0  0  0  0  0  0  0  0  0  0
   10.0428   -3.3754   22.1741 H   0  0  0  0  0  0  0  0  0  0  0  0
    7.7620   -1.9291   20.8103 N   0  0  0  0  0  0  0  0  0  0  0  0
    7.3650   -0.6365   20.9398 N   0  0  0  0  0  0  0  0  0  0  0  0
    6.6473    0.0202   19.9022 C   0  0  0  0  0  0  0  0  0  0  0  0
    5.4340    0.6746   20.1503 C   0  0  0  0  0  0  0  0  0  0  0  0
    4.8074    1.3236   19.0826 C   0  0  0  0  0  0  0  0  0  0  0  0
    5.4132    1.3002   17.8229 C   0  0  0  0  0  0  0  0  0  0  0  0
    6.5690    0.6571   17.5774 N   0  0  0  0  0  0  0  0  0  0  0  0
    7.1614    0.0231   18.5945 C   0  0  0  0  0  0  0  0  0  0  0  0
    8.0944   -0.4935   18.3801 H   0  0  0  0  0  0  0  0  0  0  0  0
    4.9533    1.8096   16.9786 H   0  0  0  0  0  0  0  0  0  0  0  0
    3.8709    1.8522   19.2244 H   0  0  0  0  0  0  0  0  0  0  0  0
    4.9913    0.6591   21.1478 H   0  0  0  0  0  0  0  0  0  0  0  0
    7.9221    1.2919   23.6358 H   0  0  0  0  0  0  0  0  0  0  0  0
    6.6746    1.6047   22.4398 H   0  0  0  0  0  0  0  0  0  0  0  0
    8.4797    2.0590   20.7074 H   0  0  0  0  0  0  0  0  0  0  0  0
    9.7053    1.8371   21.9595 H   0  0  0  0  0  0  0  0  0  0  0  0
    7.4980    4.3505   21.7014 C   0  0  0  0  0  0  0  0  0  0  0  0
    7.3909    5.6723   22.0469 N   0  0  0  0  0  0  0  0  0  0  0  0
    6.8258    6.3501   21.5590 H   0  0  0  0  0  0  0  0  0  0  0  0
    6.7280    3.9439   21.0415 H   0  0  0  0  0  0  0  0  0  0  0  0
   10.1295    3.5280   23.6848 H   0  0  0  0  0  0  0  0  0  0  0  0
    9.8168    5.9440   24.3365 H   0  0  0  0  0  0  0  0  0  0  0  0
  1  2  2  0
  2  3  1  0
  3  4  2  0
  4  5  1  0
  5  6  1  0
  6  7  1  0
  7  8  1  0
  8  9  2  0
  9 10  1  0
 10 11  1  0
 11 12  1  0
 12 13  1  0
 13 14  1  0
 13 15  1  0
 12 16  1  0
 12 17  1  0
 11 18  1  0
 10 19  2  0
 19 20  1  0
 20 21  1  0
 21 22  2  0
 22 23  1  0
 23 24  2  0
 24 25  1  0
 25 26  2  0
 26 27  1  0
 24 28  1  0
 23 29  1  0
 22 30  1  0
  7 31  1  0
  7 32  1  0
  6 33  1  0
  6 34  1  0
  5 35  2  0
 35 36  1  0
 36 37  1  0
 35 38  1  0
  4 39  1  0
  3 40  1  0
 36  2  1  0
 20  8  1  0
 26 21  1  0
 13 11  1  0
M  END
>  <cnnaffinity>  (1) 
-5.70337

>  <filename>  (1) 
O=c1ccc(CCc2nc(C3CC3)nn2-c2cccnc2)c[nH]1

$$$$
