
     RDKit          3D

 31 33  0  0  0  0  0  0  0  0999 V2000
    4.9497    1.9173   16.9146 H   0  0  0  0  0  0  0  0  0  0  0  0
    5.4156    1.3547   17.7221 C   0  0  0  0  0  0  0  0  0  0  0  0
    6.5641    0.7197   17.4216 N   0  0  0  0  0  0  0  0  0  0  0  0
    7.1830    0.0445   18.3999 C   0  0  0  0  0  0  0  0  0  0  0  0
    8.1147   -0.4549   18.1289 H   0  0  0  0  0  0  0  0  0  0  0  0
    6.6806   -0.0497   19.7138 C   0  0  0  0  0  0  0  0  0  0  0  0
    7.3857   -0.7006   20.7730 N   0  0  0  0  0  0  0  0  0  0  0  0
    8.6452   -0.3315   21.2404 C   0  0  0  0  0  0  0  0  0  0  0  0
    9.2512    0.3728   20.6913 H   0  0  0  0  0  0  0  0  0  0  0  0
    8.9042   -1.0215   22.3764 C   0  0  0  0  0  0  0  0  0  0  0  0
   10.1832   -1.3044   23.1008 C   0  0  1  0  0  0  0  0  0  0  0  0
   10.9254   -0.5695   22.7709 H   0  0  0  0  0  0  0  0  0  0  0  0
   10.0390   -1.3098   24.6407 C   0  0  0  0  0  0  0  0  0  0  0  0
    9.2035   -0.6883   24.9938 H   0  0  0  0  0  0  0  0  0  0  0  0
   10.9571   -0.9036   25.1003 H   0  0  0  0  0  0  0  0  0  0  0  0
    9.8565   -2.6981   24.9997 N   0  0  0  0  0  0  0  0  0  0  0  0
    9.1802   -2.9445   25.7035 H   0  0  0  0  0  0  0  0  0  0  0  0
   10.2039   -3.6374   23.9604 C   0  0  0  0  0  0  0  0  0  0  0  0
   11.0029   -4.3279   24.2866 H   0  0  0  0  0  0  0  0  0  0  0  0
    9.3539   -4.2769   23.6717 H   0  0  0  0  0  0  0  0  0  0  0  0
   10.6643   -2.7494   22.7791 C   0  0  0  0  0  0  0  0  0  0  0  0
   10.2234   -3.0654   21.8288 H   0  0  0  0  0  0  0  0  0  0  0  0
   11.7512   -2.7912   22.6600 H   0  0  0  0  0  0  0  0  0  0  0  0
    7.7588   -1.7694   22.6418 N   0  0  0  0  0  0  0  0  0  0  0  0
    7.5762   -2.4523   23.3538 H   0  0  0  0  0  0  0  0  0  0  0  0
    6.8060   -1.6132   21.6684 C   0  0  0  0  0  0  0  0  0  0  0  0
    5.7397   -2.1895   21.6079 O   0  0  0  0  0  0  0  0  0  0  0  0
    5.4517    0.5636   19.9932 C   0  0  0  0  0  0  0  0  0  0  0  0
    5.0258    0.4449   20.9878 H   0  0  0  0  0  0  0  0  0  0  0  0
    4.8204    1.2980   18.9869 C   0  0  0  0  0  0  0  0  0  0  0  0
    3.8848    1.8199   19.1762 H   0  0  0  0  0  0  0  0  0  0  0  0
  1  2  1  0
  2  3  2  0
  3  4  1  0
  4  5  1  0
  4  6  2  0
  6  7  1  0
  7  8  1  0
  8  9  1  0
  8 10  2  0
 10 11  1  0
 11 12  1  1
 11 13  1  0
 13 14  1  0
 13 15  1  0
 13 16  1  0
 16 17  1  0
 16 18  1  0
 18 19  1  0
 18 20  1  0
 18 21  1  0
 21 22  1  0
 21 23  1  0
 10 24  1  0
 24 25  1  0
 24 26  1  0
 26 27  2  0
  6 28  1  0
 28 29  1  0
 28 30  2  0
 30 31  1  0
 30  2  1  0
 26  7  1  0
 21 11  1  0
M  END
>  <cnnaffinity>  (1) 
-4.9728

>  <filename>  (1) 
O=c1[nH]c([C@@H]2CCNC2)cn1-c1cccnc1

$$$$
