
     RDKit          3D

 46 49  0  0  0  0  0  0  0  0999 V2000
   10.5619    4.4572   23.0817 O   0  0  0  0  0  0  0  0  0  0  0  0
    9.3556    4.6645   23.1578 C   0  0  0  0  0  0  0  0  0  0  0  0
    8.7813    5.9877   23.3876 C   0  0  0  0  0  0  0  0  0  0  0  0
    7.4394    6.1979   23.4685 C   0  0  0  0  0  0  0  0  0  0  0  0
    6.5441    5.0904   23.3187 C   0  0  0  0  0  0  0  0  0  0  0  0
    7.0475    3.8428   23.1095 C   0  0  0  0  0  0  0  0  0  0  0  0
    8.4075    3.6085   23.0669 N   0  0  0  0  0  0  0  0  0  0  0  0
    8.8985    2.2609   22.7638 C   0  0  0  0  0  0  0  0  0  0  0  0
    9.0376    2.0250   21.2588 C   0  0  0  0  0  0  0  0  0  0  0  0
    9.5358    0.6079   20.9260 C   0  0  0  0  0  0  0  0  0  0  0  0
    8.6329   -0.4724   21.4217 C   0  0  0  0  0  0  0  0  0  0  0  0
    8.8596   -1.2799   22.4322 N   0  0  0  0  0  0  0  0  0  0  0  0
    7.6833   -1.9503   22.5740 C   0  0  0  0  0  0  0  0  0  0  0  0
    7.4708   -2.9655   23.6330 C   0  0  0  0  0  0  0  0  0  0  0  0
    8.4919   -3.2770   24.5558 C   0  0  0  0  0  0  0  0  0  0  0  0
    8.2855   -4.2324   25.5506 C   0  0  0  0  0  0  0  0  0  0  0  0
    7.0515   -4.8839   25.6281 C   0  0  0  0  0  0  0  0  0  0  0  0
    6.7872   -6.0765   26.8640 Cl  0  0  0  0  0  0  0  0  0  0  0  0
    6.0243   -4.5927   24.7273 C   0  0  0  0  0  0  0  0  0  0  0  0
    6.2356   -3.6370   23.7362 C   0  0  0  0  0  0  0  0  0  0  0  0
    5.4387   -3.4003   23.0351 H   0  0  0  0  0  0  0  0  0  0  0  0
    5.0726   -5.1080   24.8063 H   0  0  0  0  0  0  0  0  0  0  0  0
    9.0680   -4.4766   26.2633 H   0  0  0  0  0  0  0  0  0  0  0  0
    9.4543   -2.7719   24.5007 H   0  0  0  0  0  0  0  0  0  0  0  0
    6.7529   -1.6010   21.6992 N   0  0  0  0  0  0  0  0  0  0  0  0
    7.3697   -0.6625   20.9429 N   0  0  0  0  0  0  0  0  0  0  0  0
    6.6629    0.0101   19.9039 C   0  0  0  0  0  0  0  0  0  0  0  0
    5.4423    0.6436   20.1677 C   0  0  0  0  0  0  0  0  0  0  0  0
    4.8120    1.3096   19.1105 C   0  0  0  0  0  0  0  0  0  0  0  0
    5.4021    1.2952   17.8390 C   0  0  0  0  0  0  0  0  0  0  0  0
    6.5638    0.6752   17.5779 N   0  0  0  0  0  0  0  0  0  0  0  0
    7.1725    0.0570   18.5960 C   0  0  0  0  0  0  0  0  0  0  0  0
    8.1154   -0.4354   18.3736 H   0  0  0  0  0  0  0  0  0  0  0  0
    4.9149    1.7819   16.9958 H   0  0  0  0  0  0  0  0  0  0  0  0
    3.8775    1.8407   19.2629 H   0  0  0  0  0  0  0  0  0  0  0  0
    5.0134    0.6120   21.1727 H   0  0  0  0  0  0  0  0  0  0  0  0
    9.6467    0.5092   19.8433 H   0  0  0  0  0  0  0  0  0  0  0  0
   10.5197    0.4353   21.3729 H   0  0  0  0  0  0  0  0  0  0  0  0
    9.7444    2.7547   20.8583 H   0  0  0  0  0  0  0  0  0  0  0  0
    8.0709    2.2015   20.7727 H   0  0  0  0  0  0  0  0  0  0  0  0
    8.2192    1.5218   23.2083 H   0  0  0  0  0  0  0  0  0  0  0  0
    9.8630    2.1323   23.2590 H   0  0  0  0  0  0  0  0  0  0  0  0
    6.4055    2.9690   22.9674 H   0  0  0  0  0  0  0  0  0  0  0  0
    5.4699    5.2422   23.3642 H   0  0  0  0  0  0  0  0  0  0  0  0
    7.0349    7.1991   23.6388 H   0  0  0  0  0  0  0  0  0  0  0  0
    9.5205    6.7690   23.4853 H   0  0  0  0  0  0  0  0  0  0  0  0
  1  2  2  0
  2  3  1  0
  3  4  2  0
  4  5  1  0
  5  6  2  0
  6  7  1  0
  7  8  1  0
  8  9  1  0
  9 10  1  0
 10 11  1  0
 11 12  2  0
 12 13  1  0
 13 14  1  0
 14 15  2  0
 15 16  1  0
 16 17  2  0
 17 18  1  0
 17 19  1  0
 19 20  2  0
 20 21  1  0
 19 22  1  0
 16 23  1  0
 15 24  1  0
 13 25  2  0
 25 26  1  0
 26 27  1  0
 27 28  2  0
 28 29  1  0
 29 30  2  0
 30 31  1  0
 31 32  2  0
 32 33  1  0
 30 34  1  0
 29 35  1  0
 28 36  1  0
 10 37  1  0
 10 38  1  0
  9 39  1  0
  9 40  1  0
  8 41  1  0
  8 42  1  0
  6 43  1  0
  5 44  1  0
  4 45  1  0
  3 46  1  0
  7  2  1  0
 26 11  1  0
 32 27  1  0
 20 14  1  0
M  END
>  <cnnaffinity>  (1) 
-6.11153

>  <filename>  (1) 
O=c1ccccn1CCCc1nc(-c2ccc(Cl)cc2)nn1-c1cccnc1

$$$$
