
     RDKit          3D

 32 35  0  0  0  0  0  0  0  0999 V2000
    5.0111    1.8587   17.0156 H   0  0  0  0  0  0  0  0  0  0  0  0
    5.4571    1.3121   17.8445 C   0  0  0  0  0  0  0  0  0  0  0  0
    6.5996    0.6580   17.5811 N   0  0  0  0  0  0  0  0  0  0  0  0
    7.1721   -0.0198   18.5841 C   0  0  0  0  0  0  0  0  0  0  0  0
    8.0859   -0.5629   18.3524 H   0  0  0  0  0  0  0  0  0  0  0  0
    6.6411   -0.0905   19.8822 C   0  0  0  0  0  0  0  0  0  0  0  0
    7.2937   -0.8324   20.9218 N   0  0  0  0  0  0  0  0  0  0  0  0
    6.4839   -1.5867   21.7162 N   0  0  0  0  0  0  0  0  0  0  0  0
    7.0214   -2.2417   22.7184 C   0  0  0  0  0  0  0  0  0  0  0  0
    6.1597   -3.0642   23.6079 C   0  0  0  0  0  0  0  0  0  0  0  0
    4.8912   -3.2359   23.4326 N   0  0  0  0  0  0  0  0  0  0  0  0
    4.3353   -3.9615   24.4693 C   0  0  0  0  0  0  0  0  0  0  0  0
    2.9591   -4.1822   24.6636 C   0  0  0  0  0  0  0  0  0  0  0  0
    2.2620   -3.7170   23.9796 H   0  0  0  0  0  0  0  0  0  0  0  0
    2.5276   -4.9324   25.7524 C   0  0  0  0  0  0  0  0  0  0  0  0
    1.4605   -5.0672   25.9279 H   0  0  0  0  0  0  0  0  0  0  0  0
    3.4644   -5.4812   26.6575 C   0  0  0  0  0  0  0  0  0  0  0  0
    3.1137   -6.0803   27.4954 H   0  0  0  0  0  0  0  0  0  0  0  0
    4.8273   -5.2260   26.5139 C   0  0  0  0  0  0  0  0  0  0  0  0
    5.5479   -5.5846   27.2486 H   0  0  0  0  0  0  0  0  0  0  0  0
    5.2531   -4.4461   25.4262 C   0  0  0  0  0  0  0  0  0  0  0  0
    6.8310   -3.8782   25.0518 S   0  0  0  0  0  0  0  0  0  0  0  0
    8.4741   -2.1887   23.0497 C   0  0  0  0  0  0  0  0  0  0  0  0
    8.9859   -2.8045   23.9802 O   0  0  0  0  0  0  0  0  0  0  0  0
    9.2599   -1.3476   22.1655 C   0  0  0  0  0  0  0  0  0  0  0  0
   10.3203   -1.2782   22.3784 H   0  0  0  0  0  0  0  0  0  0  0  0
    8.6516   -0.7029   21.1549 C   0  0  0  0  0  0  0  0  0  0  0  0
    9.1834   -0.0215   20.4906 H   0  0  0  0  0  0  0  0  0  0  0  0
    5.4408    0.5808   20.1451 C   0  0  0  0  0  0  0  0  0  0  0  0
    5.0142    0.5108   21.1464 H   0  0  0  0  0  0  0  0  0  0  0  0
    4.8455    1.2989   19.1049 C   0  0  0  0  0  0  0  0  0  0  0  0
    3.9218    1.8432   19.2615 H   0  0  0  0  0  0  0  0  0  0  0  0
  1  2  1  0
  2  3  2  0
  3  4  1  0
  4  5  1  0
  4  6  2  0
  6  7  1  0
  7  8  1  0
  8  9  2  0
  9 10  1  0
 10 11  2  0
 11 12  1  0
 12 13  2  0
 13 14  1  0
 13 15  1  0
 15 16  1  0
 15 17  2  0
 17 18  1  0
 17 19  1  0
 19 20  1  0
 19 21  2  0
 21 22  1  0
  9 23  1  0
 23 24  2  0
 23 25  1  0
 25 26  1  0
 25 27  2  0
 27 28  1  0
  6 29  1  0
 29 30  1  0
 29 31  2  0
 31 32  1  0
 31  2  1  0
 27  7  1  0
 22 10  1  0
 21 12  1  0
M  END
>  <cnnaffinity>  (1) 
-5.40054

>  <filename>  (1) 
O=c1ccn(-c2cccnc2)nc1-c1nc2ccccc2s1

$$$$
