
     RDKit          3D

 36 39  0  0  0  0  0  0  0  0999 V2000
    4.9044    1.8397   16.9452 H   0  0  0  0  0  0  0  0  0  0  0  0
    5.3854    1.3399   17.7835 C   0  0  0  0  0  0  0  0  0  0  0  0
    6.5517    0.7327   17.5117 N   0  0  0  0  0  0  0  0  0  0  0  0
    7.1738    0.1125   18.5219 C   0  0  0  0  0  0  0  0  0  0  0  0
    8.1149   -0.3722   18.2620 H   0  0  0  0  0  0  0  0  0  0  0  0
    6.6714    0.0204   19.8437 C   0  0  0  0  0  0  0  0  0  0  0  0
    7.4000   -0.7221   20.9268 C   0  0  0  0  0  0  0  0  0  0  0  0
    8.7102   -0.4903   21.1839 C   0  0  0  0  0  0  0  0  0  0  0  0
    9.3002    0.2524   20.6419 H   0  0  0  0  0  0  0  0  0  0  0  0
    9.4158   -1.1462   22.1941 N   0  0  0  0  0  0  0  0  0  0  0  0
   10.8024   -0.7926   22.4134 C   0  0  0  0  0  0  0  0  0  0  0  0
   11.8192   -1.6021   21.9550 C   0  0  0  0  0  0  0  0  0  0  0  0
   11.5681   -2.5276   21.4574 H   0  0  0  0  0  0  0  0  0  0  0  0
   13.1483   -1.3296   22.0822 N   0  0  0  0  0  0  0  0  0  0  0  0
   13.4899   -0.2125   22.6821 C   0  0  0  0  0  0  0  0  0  0  0  0
   14.5608   -0.0346   22.8004 H   0  0  0  0  0  0  0  0  0  0  0  0
   12.5457    0.7484   23.1763 C   0  0  0  0  0  0  0  0  0  0  0  0
   12.9301    2.0014   23.7402 C   0  0  0  0  0  0  0  0  0  0  0  0
   13.9818    2.2334   23.8537 H   0  0  0  0  0  0  0  0  0  0  0  0
   11.9849    2.9125   24.1449 C   0  0  0  0  0  0  0  0  0  0  0  0
   12.3044    3.8862   24.5094 H   0  0  0  0  0  0  0  0  0  0  0  0
   10.6033    2.5988   24.0763 C   0  0  0  0  0  0  0  0  0  0  0  0
    9.8631    3.2975   24.4605 H   0  0  0  0  0  0  0  0  0  0  0  0
   10.1999    1.3946   23.5408 C   0  0  0  0  0  0  0  0  0  0  0  0
    9.1449    1.1561   23.4590 H   0  0  0  0  0  0  0  0  0  0  0  0
   11.1550    0.4464   23.0522 C   0  0  0  0  0  0  0  0  0  0  0  0
    8.7755   -2.0642   23.0640 C   0  0  0  0  0  0  0  0  0  0  0  0
    9.3249   -2.6803   23.9452 O   0  0  0  0  0  0  0  0  0  0  0  0
    7.4467   -2.2147   22.8274 N   0  0  0  0  0  0  0  0  0  0  0  0
    7.0130   -2.9466   23.3556 H   0  0  0  0  0  0  0  0  0  0  0  0
    6.7125   -1.7650   21.7479 C   0  0  0  0  0  0  0  0  0  0  0  0
    5.6267   -2.2732   21.5657 O   0  0  0  0  0  0  0  0  0  0  0  0
    5.4406    0.6603   20.0885 C   0  0  0  0  0  0  0  0  0  0  0  0
    5.0070    0.6130   21.0861 H   0  0  0  0  0  0  0  0  0  0  0  0
    4.7936    1.3375   19.0489 C   0  0  0  0  0  0  0  0  0  0  0  0
    3.8496    1.8563   19.1964 H   0  0  0  0  0  0  0  0  0  0  0  0
  1  2  1  0
  2  3  2  0
  3  4  1  0
  4  5  1  0
  4  6  2  0
  6  7  1  0
  7  8  2  0
  8  9  1  0
  8 10  1  0
 10 11  1  0
 11 12  2  0
 12 13  1  0
 12 14  1  0
 14 15  2  0
 15 16  1  0
 15 17  1  0
 17 18  2  0
 18 19  1  0
 18 20  1  0
 20 21  1  0
 20 22  2  0
 22 23  1  0
 22 24  1  0
 24 25  1  0
 24 26  2  0
 10 27  1  0
 27 28  2  0
 27 29  1  0
 29 30  1  0
 29 31  1  0
 31 32  2  0
  6 33  1  0
 33 34  1  0
 33 35  2  0
 35 36  1  0
 35  2  1  0
 31  7  1  0
 26 11  1  0
 26 17  1  0
M  END
>  <cnnaffinity>  (1) 
-5.67119

>  <filename>  (1) 
O=c1[nH]c(=O)n(-c2cncc3ccccc23)cc1-c1cccnc1

$$$$
