
     RDKit          3D

 32 34  0  0  0  0  0  0  0  0999 V2000
    4.9069    1.7758   17.0019 H   0  0  0  0  0  0  0  0  0  0  0  0
    5.3977    1.2938   17.8431 C   0  0  0  0  0  0  0  0  0  0  0  0
    6.5632    0.6789   17.5790 N   0  0  0  0  0  0  0  0  0  0  0  0
    7.1804    0.0589   18.5914 C   0  0  0  0  0  0  0  0  0  0  0  0
    8.1292   -0.4307   18.3812 H   0  0  0  0  0  0  0  0  0  0  0  0
    6.6660    0.0013   19.9073 C   0  0  0  0  0  0  0  0  0  0  0  0
    7.3596   -0.6834   20.9475 N   0  0  0  0  0  0  0  0  0  0  0  0
    6.7655   -1.4336   21.9527 C   0  0  0  0  0  0  0  0  0  0  0  0
    5.7007   -1.5700   22.0253 H   0  0  0  0  0  0  0  0  0  0  0  0
    7.7380   -1.9273   22.7473 C   0  0  0  0  0  0  0  0  0  0  0  0
    7.6290   -2.7120   23.9719 C   0  0  0  0  0  0  0  0  0  0  0  0
    8.2565   -2.2307   25.1344 C   0  0  0  0  0  0  0  0  0  0  0  0
    8.8478   -1.3205   25.0825 H   0  0  0  0  0  0  0  0  0  0  0  0
    8.0985   -2.8904   26.3449 C   0  0  0  0  0  0  0  0  0  0  0  0
    8.5844   -2.5074   27.2355 H   0  0  0  0  0  0  0  0  0  0  0  0
    7.3083   -4.0389   26.4102 C   0  0  0  0  0  0  0  0  0  0  0  0
    7.1757   -4.5514   27.3559 H   0  0  0  0  0  0  0  0  0  0  0  0
    6.6951   -4.5377   25.2648 C   0  0  0  0  0  0  0  0  0  0  0  0
    6.0883   -5.4355   25.3372 H   0  0  0  0  0  0  0  0  0  0  0  0
    6.8715   -3.9011   24.0305 C   0  0  0  0  0  0  0  0  0  0  0  0
    6.2264   -4.5067   22.7948 C   0  0  0  0  0  0  0  0  0  0  0  0
    5.9854   -5.8232   22.9345 F   0  0  0  0  0  0  0  0  0  0  0  0
    5.0334   -3.9263   22.5320 F   0  0  0  0  0  0  0  0  0  0  0  0
    6.9724   -4.3791   21.6839 F   0  0  0  0  0  0  0  0  0  0  0  0
    8.9434   -1.4406   22.2555 N   0  0  0  0  0  0  0  0  0  0  0  0
    9.8681   -1.5918   22.6151 H   0  0  0  0  0  0  0  0  0  0  0  0
    8.7565   -0.6671   21.1393 C   0  0  0  0  0  0  0  0  0  0  0  0
    9.5956   -0.0932   20.4773 O   0  0  0  0  0  0  0  0  0  0  0  0
    5.4473    0.6440   20.1633 C   0  0  0  0  0  0  0  0  0  0  0  0
    5.0176    0.6281   21.1651 H   0  0  0  0  0  0  0  0  0  0  0  0
    4.8079    1.3113   19.1119 C   0  0  0  0  0  0  0  0  0  0  0  0
    3.8729    1.8442   19.2674 H   0  0  0  0  0  0  0  0  0  0  0  0
  1  2  1  0
  2  3  2  0
  3  4  1  0
  4  5  1  0
  4  6  2  0
  6  7  1  0
  7  8  1  0
  8  9  1  0
  8 10  2  0
 10 11  1  0
 11 12  2  0
 12 13  1  0
 12 14  1  0
 14 15  1  0
 14 16  2  0
 16 17  1  0
 16 18  1  0
 18 19  1  0
 18 20  2  0
 20 21  1  0
 21 22  1  0
 21 23  1  0
 21 24  1  0
 10 25  1  0
 25 26  1  0
 25 27  1  0
 27 28  2  0
  6 29  1  0
 29 30  1  0
 29 31  2  0
 31 32  1  0
 31  2  1  0
 27  7  1  0
 20 11  1  0
M  END
>  <cnnaffinity>  (1) 
-5.6947

>  <filename>  (1) 
O=c1[nH]c(-c2ccccc2C(F)(F)F)cn1-c1cccnc1

$$$$
