
     RDKit          3D

 48 52  0  0  0  0  0  0  0  0999 V2000
    8.9243    2.5393   22.3964 O   0  0  0  0  0  0  0  0  0  0  0  0
    9.7964    1.7073   22.5285 C   0  0  0  0  0  0  0  0  0  0  0  0
   10.5714    1.5378   23.8317 C   0  0  0  0  0  0  0  0  0  0  0  0
    9.6811    2.0647   24.9395 C   0  0  0  0  0  0  0  0  0  0  0  0
   10.1436    1.6816   26.1483 F   0  0  0  0  0  0  0  0  0  0  0  0
    9.6144    3.3997   24.9379 F   0  0  0  0  0  0  0  0  0  0  0  0
    8.4329    1.5836   24.8485 F   0  0  0  0  0  0  0  0  0  0  0  0
   11.0547    0.0869   24.1031 C   0  0  0  0  0  0  0  0  0  0  0  0
   11.6080   -0.6278   22.8515 C   0  0  0  0  0  0  0  0  0  0  0  0
   11.4546    0.1899   21.5707 C   0  0  0  0  0  0  0  0  0  0  0  0
   10.1532    0.8357   21.5182 N   0  0  0  0  0  0  0  0  0  0  0  0
    9.0995    0.3459   20.6339 C   0  0  0  0  0  0  0  0  0  0  0  0
    8.1156   -0.6292   21.2519 C   0  0  0  0  0  0  0  0  0  0  0  0
    8.2480   -1.4291   22.2895 N   0  0  0  0  0  0  0  0  0  0  0  0
    7.0231   -2.0296   22.3808 C   0  0  0  0  0  0  0  0  0  0  0  0
    6.6379   -2.9912   23.4301 C   0  0  0  0  0  0  0  0  0  0  0  0
    7.0106   -2.7334   24.8943 C   0  0  0  0  0  0  0  0  0  0  0  0
    7.6927   -3.8093   24.1076 C   0  0  0  0  0  0  0  0  0  0  0  0
    8.0181   -5.2518   24.2217 C   0  0  0  0  0  0  0  0  0  0  0  0
    9.0865   -4.2302   23.8084 C   0  0  0  0  0  0  0  0  0  0  0  0
    9.8441   -3.9493   24.5428 H   0  0  0  0  0  0  0  0  0  0  0  0
    9.3755   -4.1876   22.7605 H   0  0  0  0  0  0  0  0  0  0  0  0
    8.0622   -5.6882   25.2189 H   0  0  0  0  0  0  0  0  0  0  0  0
    7.6164   -5.9103   23.4526 H   0  0  0  0  0  0  0  0  0  0  0  0
    6.3108   -3.0479   25.6670 H   0  0  0  0  0  0  0  0  0  0  0  0
    7.5944   -1.8376   25.1218 H   0  0  0  0  0  0  0  0  0  0  0  0
    5.6802   -3.4680   23.2257 H   0  0  0  0  0  0  0  0  0  0  0  0
    6.1682   -1.6672   21.4445 N   0  0  0  0  0  0  0  0  0  0  0  0
    6.8781   -0.7859   20.7023 N   0  0  0  0  0  0  0  0  0  0  0  0
    6.3003   -0.1035   19.5950 C   0  0  0  0  0  0  0  0  0  0  0  0
    5.2443    0.7884   19.7914 C   0  0  0  0  0  0  0  0  0  0  0  0
    4.7569    1.4849   18.6814 C   0  0  0  0  0  0  0  0  0  0  0  0
    5.3412    1.2560   17.4276 C   0  0  0  0  0  0  0  0  0  0  0  0
    6.3540    0.3986   17.2323 N   0  0  0  0  0  0  0  0  0  0  0  0
    6.8182   -0.2638   18.2986 C   0  0  0  0  0  0  0  0  0  0  0  0
    7.6509   -0.9446   18.1316 H   0  0  0  0  0  0  0  0  0  0  0  0
    4.9899    1.7828   16.5441 H   0  0  0  0  0  0  0  0  0  0  0  0
    3.9491    2.2032   18.7810 H   0  0  0  0  0  0  0  0  0  0  0  0
    4.8479    0.9347   20.7975 H   0  0  0  0  0  0  0  0  0  0  0  0
    9.5617   -0.1534   19.7699 H   0  0  0  0  0  0  0  0  0  0  0  0
    8.5415    1.2097   20.2530 H   0  0  0  0  0  0  0  0  0  0  0  0
   12.2340    0.9639   21.5009 H   0  0  0  0  0  0  0  0  0  0  0  0
   11.5663   -0.4580   20.6947 H   0  0  0  0  0  0  0  0  0  0  0  0
   12.6655   -0.8875   22.9710 H   0  0  0  0  0  0  0  0  0  0  0  0
   11.0514   -1.5599   22.7193 H   0  0  0  0  0  0  0  0  0  0  0  0
   10.2082   -0.4987   24.4960 H   0  0  0  0  0  0  0  0  0  0  0  0
   11.8055    0.1283   24.9002 H   0  0  0  0  0  0  0  0  0  0  0  0
   11.4276    2.2181   23.7709 H   0  0  0  0  0  0  0  0  0  0  0  0
  1  2  2  0
  2  3  1  0
  3  4  1  0
  4  5  1  0
  4  6  1  0
  4  7  1  0
  3  8  1  0
  8  9  1  0
  9 10  1  0
 10 11  1  0
 11 12  1  0
 12 13  1  0
 13 14  2  0
 14 15  1  0
 15 16  1  0
 16 17  1  0
 17 18  1  0
 18 19  1  0
 19 20  1  0
 20 21  1  0
 20 22  1  0
 19 23  1  0
 19 24  1  0
 17 25  1  0
 17 26  1  0
 16 27  1  0
 15 28  2  0
 28 29  1  0
 29 30  1  0
 30 31  2  0
 31 32  1  0
 32 33  2  0
 33 34  1  0
 34 35  2  0
 35 36  1  0
 33 37  1  0
 32 38  1  0
 31 39  1  0
 12 40  1  0
 12 41  1  0
 10 42  1  0
 10 43  1  0
  9 44  1  0
  9 45  1  0
  8 46  1  0
  8 47  1  0
  3 48  1  0
 11  2  1  0
 29 13  1  0
 35 30  1  0
 18 16  1  0
 20 18  1  0
M  END
>  <cnnaffinity>  (1) 
-6.35908

>  <filename>  (1) 
O=C1C(C(F)(F)F)CCCN1Cc1nc(C2CC23CC3)nn1-c1cccnc1

$$$$
