
     RDKit          3D

 37 40  0  0  0  0  0  0  0  0999 V2000
    4.9364    1.8023   17.0037 H   0  0  0  0  0  0  0  0  0  0  0  0
    5.4217    1.3180   17.8520 C   0  0  0  0  0  0  0  0  0  0  0  0
    6.5962    0.7130   17.6080 N   0  0  0  0  0  0  0  0  0  0  0  0
    7.2010    0.0714   18.6179 C   0  0  0  0  0  0  0  0  0  0  0  0
    8.1528   -0.4075   18.3872 H   0  0  0  0  0  0  0  0  0  0  0  0
    6.6617    0.0023   19.9225 C   0  0  0  0  0  0  0  0  0  0  0  0
    7.3060   -0.6934   21.0057 N   0  0  0  0  0  0  0  0  0  0  0  0
    7.7247   -0.1760   22.2626 C   0  0  0  0  0  0  0  0  0  0  0  0
    7.5116    1.1075   22.6887 N   0  0  0  0  0  0  0  0  0  0  0  0
    6.8092    1.2759   23.9711 C   0  0  0  0  0  0  0  0  0  0  0  0
    7.2920    0.6323   24.7230 H   0  0  0  0  0  0  0  0  0  0  0  0
    5.7786    0.8897   23.8975 H   0  0  0  0  0  0  0  0  0  0  0  0
    6.7630    2.7078   24.4926 C   0  0  0  0  0  0  0  0  0  0  0  0
    5.9186    3.0489   25.5627 C   0  0  0  0  0  0  0  0  0  0  0  0
    5.2705    2.2963   26.0089 H   0  0  0  0  0  0  0  0  0  0  0  0
    5.8899    4.3542   26.0616 C   0  0  0  0  0  0  0  0  0  0  0  0
    5.2284    4.6068   26.8858 H   0  0  0  0  0  0  0  0  0  0  0  0
    6.7075    5.3358   25.4950 C   0  0  0  0  0  0  0  0  0  0  0  0
    6.6861    6.3532   25.8758 H   0  0  0  0  0  0  0  0  0  0  0  0
    7.5449    5.0036   24.4278 C   0  0  0  0  0  0  0  0  0  0  0  0
    8.1750    5.7636   23.9729 H   0  0  0  0  0  0  0  0  0  0  0  0
    7.5775    3.7000   23.9159 C   0  0  0  0  0  0  0  0  0  0  0  0
    8.4752    3.3249   22.7543 C   0  0  0  0  0  0  0  0  0  0  0  0
    9.4048    2.8879   23.1387 H   0  0  0  0  0  0  0  0  0  0  0  0
    8.7471    4.2071   22.1677 H   0  0  0  0  0  0  0  0  0  0  0  0
    7.8065    2.2752   21.8661 C   0  0  0  0  0  0  0  0  0  0  0  0
    6.8887    2.6912   21.4187 H   0  0  0  0  0  0  0  0  0  0  0  0
    8.4648    1.9729   21.0469 H   0  0  0  0  0  0  0  0  0  0  0  0
    8.2097   -1.2092   22.9705 C   0  0  0  0  0  0  0  0  0  0  0  0
    8.6981   -1.2499   23.9365 H   0  0  0  0  0  0  0  0  0  0  0  0
    7.9687   -2.3860   22.2823 O   0  0  0  0  0  0  0  0  0  0  0  0
    7.2526   -2.0815   21.1544 C   0  0  0  0  0  0  0  0  0  0  0  0
    6.6809   -2.8903   20.4681 O   0  0  0  0  0  0  0  0  0  0  0  0
    5.4457    0.6430   20.1603 C   0  0  0  0  0  0  0  0  0  0  0  0
    5.0275    0.6287   21.1653 H   0  0  0  0  0  0  0  0  0  0  0  0
    4.8127    1.3129   19.1096 C   0  0  0  0  0  0  0  0  0  0  0  0
    3.8616    1.8119   19.2542 H   0  0  0  0  0  0  0  0  0  0  0  0
  1  2  1  0
  2  3  2  0
  3  4  1  0
  4  5  1  0
  4  6  2  0
  6  7  1  0
  7  8  1  0
  8  9  1  0
  9 10  1  0
 10 11  1  0
 10 12  1  0
 10 13  1  0
 13 14  2  0
 14 15  1  0
 14 16  1  0
 16 17  1  0
 16 18  2  0
 18 19  1  0
 18 20  1  0
 20 21  1  0
 20 22  2  0
 22 23  1  0
 23 24  1  0
 23 25  1  0
 23 26  1  0
 26 27  1  0
 26 28  1  0
  8 29  2  0
 29 30  1  0
 29 31  1  0
 31 32  1  0
 32 33  2  0
  6 34  1  0
 34 35  1  0
 34 36  2  0
 36 37  1  0
 36  2  1  0
 32  7  1  0
 26  9  1  0
 22 13  1  0
M  END
>  <cnnaffinity>  (1) 
-5.12707

>  <filename>  (1) 
O=c1occ(N2CCc3ccccc3C2)n1-c1cccnc1

$$$$
