
     RDKit          3D

 33 36  0  0  0  0  0  0  0  0999 V2000
    4.9487    1.8016   16.7818 H   0  0  0  0  0  0  0  0  0  0  0  0
    5.4449    1.3411   17.6330 C   0  0  0  0  0  0  0  0  0  0  0  0
    6.6130    0.7319   17.3826 N   0  0  0  0  0  0  0  0  0  0  0  0
    7.2553    0.1617   18.4090 C   0  0  0  0  0  0  0  0  0  0  0  0
    8.2064   -0.3002   18.1511 H   0  0  0  0  0  0  0  0  0  0  0  0
    6.7506    0.1357   19.7182 C   0  0  0  0  0  0  0  0  0  0  0  0
    7.4790   -0.5741   20.7976 C   0  0  0  0  0  0  0  0  0  0  0  0
    8.7821   -0.5882   20.7412 N   0  0  0  0  0  0  0  0  0  0  0  0
    9.4599   -1.1743   21.7765 C   0  0  0  0  0  0  0  0  0  0  0  0
   10.6636   -1.2900   21.8624 O   0  0  0  0  0  0  0  0  0  0  0  0
    8.7301   -1.6984   22.8401 N   0  0  0  0  0  0  0  0  0  0  0  0
    9.3497   -2.1200   23.5046 H   0  0  0  0  0  0  0  0  0  0  0  0
    7.3786   -1.7970   22.8694 C   0  0  0  0  0  0  0  0  0  0  0  0
    6.7306   -2.4812   23.9962 C   0  0  0  0  0  0  0  0  0  0  0  0
    5.7541   -1.9396   24.7709 C   0  0  0  0  0  0  0  0  0  0  0  0
    5.3658   -0.9277   24.7149 H   0  0  0  0  0  0  0  0  0  0  0  0
    5.2394   -2.9494   26.0735 S   0  0  0  0  0  0  0  0  0  0  0  0
    6.4170   -4.1677   25.6432 C   0  0  0  0  0  0  0  0  0  0  0  0
    6.7660   -5.3371   26.3498 C   0  0  0  0  0  0  0  0  0  0  0  0
    6.2589   -5.6299   27.2647 H   0  0  0  0  0  0  0  0  0  0  0  0
    7.8274   -6.1048   25.8836 C   0  0  0  0  0  0  0  0  0  0  0  0
    8.1412   -6.9624   26.4635 H   0  0  0  0  0  0  0  0  0  0  0  0
    8.5103   -5.7691   24.6956 C   0  0  0  0  0  0  0  0  0  0  0  0
    9.3544   -6.3647   24.3603 H   0  0  0  0  0  0  0  0  0  0  0  0
    8.1329   -4.6492   23.9729 C   0  0  0  0  0  0  0  0  0  0  0  0
    8.6028   -4.4179   23.0201 H   0  0  0  0  0  0  0  0  0  0  0  0
    7.1207   -3.8011   24.4759 C   0  0  0  0  0  0  0  0  0  0  0  0
    6.7181   -1.2096   21.8263 C   0  0  0  0  0  0  0  0  0  0  0  0
    5.6469   -1.2850   21.7529 H   0  0  0  0  0  0  0  0  0  0  0  0
    5.5360    0.7988   19.9637 C   0  0  0  0  0  0  0  0  0  0  0  0
    5.1261    0.8581   20.9740 H   0  0  0  0  0  0  0  0  0  0  0  0
    4.8694    1.4079   18.9054 C   0  0  0  0  0  0  0  0  0  0  0  0
    3.9273    1.9292   19.0522 H   0  0  0  0  0  0  0  0  0  0  0  0
  1  2  1  0
  2  3  2  0
  3  4  1  0
  4  5  1  0
  4  6  2  0
  6  7  1  0
  7  8  2  0
  8  9  1  0
  9 10  2  0
  9 11  1  0
 11 12  1  0
 11 13  1  0
 13 14  1  0
 14 15  2  0
 15 16  1  0
 15 17  1  0
 17 18  1  0
 18 19  2  0
 19 20  1  0
 19 21  1  0
 21 22  1  0
 21 23  2  0
 23 24  1  0
 23 25  1  0
 25 26  1  0
 25 27  2  0
 13 28  2  0
 28 29  1  0
  6 30  1  0
 30 31  1  0
 30 32  2  0
 32 33  1  0
 32  2  1  0
 28  7  1  0
 27 14  1  0
 27 18  1  0
M  END
>  <cnnaffinity>  (1) 
-5.25785

>  <filename>  (1) 
O=c1nc(-c2cccnc2)cc(-c2csc3ccccc23)[nH]1

$$$$
