
     RDKit          3D

 28 30  0  0  0  0  0  0  0  0999 V2000
    4.9235    1.8316   16.9573 H   0  0  0  0  0  0  0  0  0  0  0  0
    5.3981    1.3387   17.7999 C   0  0  0  0  0  0  0  0  0  0  0  0
    6.5635    0.7233   17.5359 N   0  0  0  0  0  0  0  0  0  0  0  0
    7.1609    0.0681   18.5377 C   0  0  0  0  0  0  0  0  0  0  0  0
    8.1157   -0.4107   18.3140 H   0  0  0  0  0  0  0  0  0  0  0  0
    6.6125   -0.0244   19.8312 C   0  0  0  0  0  0  0  0  0  0  0  0
    7.2956   -0.7202   20.8886 N   0  0  0  0  0  0  0  0  0  0  0  0
    8.5505   -0.2606   21.2333 C   0  0  0  0  0  0  0  0  0  0  0  0
    8.9212    0.5856   20.6651 H   0  0  0  0  0  0  0  0  0  0  0  0
    9.2947   -0.8195   22.2284 C   0  0  0  0  0  0  0  0  0  0  0  0
   10.6218   -0.2741   22.5589 C   0  0  0  0  0  0  0  0  0  0  0  0
   11.3030   -0.4404   23.7909 C   0  0  0  0  0  0  0  0  0  0  0  0
   10.9503   -0.9208   24.6941 H   0  0  0  0  0  0  0  0  0  0  0  0
   12.4971    0.1289   23.7946 N   0  0  0  0  0  0  0  0  0  0  0  0
   12.5828    0.7135   22.5946 N   0  0  0  0  0  0  0  0  0  0  0  0
   13.4585    1.1303   22.3070 H   0  0  0  0  0  0  0  0  0  0  0  0
   11.4933    0.5144   21.8208 C   0  0  0  0  0  0  0  0  0  0  0  0
   11.4504    0.9837   20.8482 H   0  0  0  0  0  0  0  0  0  0  0  0
    8.7264   -1.9320   22.9377 C   0  0  0  0  0  0  0  0  0  0  0  0
    9.3128   -2.4276   23.7110 H   0  0  0  0  0  0  0  0  0  0  0  0
    7.4823   -2.3931   22.6410 C   0  0  0  0  0  0  0  0  0  0  0  0
    6.9991   -3.2128   23.1540 H   0  0  0  0  0  0  0  0  0  0  0  0
    6.6638   -1.8138   21.5843 C   0  0  0  0  0  0  0  0  0  0  0  0
    5.5609   -2.2352   21.2840 O   0  0  0  0  0  0  0  0  0  0  0  0
    5.4186    0.6520   20.1008 C   0  0  0  0  0  0  0  0  0  0  0  0
    5.0165    0.6218   21.1116 H   0  0  0  0  0  0  0  0  0  0  0  0
    4.7905    1.3450   19.0609 C   0  0  0  0  0  0  0  0  0  0  0  0
    3.8477    1.8687   19.2087 H   0  0  0  0  0  0  0  0  0  0  0  0
  1  2  1  0
  2  3  2  0
  3  4  1  0
  4  5  1  0
  4  6  2  0
  6  7  1  0
  7  8  1  0
  8  9  1  0
  8 10  2  0
 10 11  1  0
 11 12  1  0
 12 13  1  0
 12 14  2  0
 14 15  1  0
 15 16  1  0
 15 17  1  0
 17 18  1  0
 10 19  1  0
 19 20  1  0
 19 21  2  0
 21 22  1  0
 21 23  1  0
 23 24  2  0
  6 25  1  0
 25 26  1  0
 25 27  2  0
 27 28  1  0
 27  2  1  0
 23  7  1  0
 17 11  2  0
M  END
>  <cnnaffinity>  (1) 
-5.25294

>  <filename>  (1) 
O=c1ccc(-c2cn[nH]c2)cn1-c1cccnc1

$$$$
