
     RDKit          3D

 27 29  0  0  0  0  0  0  0  0999 V2000
    5.0035    1.8358   17.0330 H   0  0  0  0  0  0  0  0  0  0  0  0
    5.4490    1.2915   17.8647 C   0  0  0  0  0  0  0  0  0  0  0  0
    6.5925    0.6384   17.6022 N   0  0  0  0  0  0  0  0  0  0  0  0
    7.1632   -0.0286   18.6133 C   0  0  0  0  0  0  0  0  0  0  0  0
    8.0833   -0.5635   18.3929 H   0  0  0  0  0  0  0  0  0  0  0  0
    6.6358   -0.0950   19.9139 C   0  0  0  0  0  0  0  0  0  0  0  0
    7.3187   -0.8197   20.9440 N   0  0  0  0  0  0  0  0  0  0  0  0
    6.5502   -1.6254   21.7273 N   0  0  0  0  0  0  0  0  0  0  0  0
    7.1288   -2.2895   22.7023 C   0  0  0  0  0  0  0  0  0  0  0  0
    6.3143   -3.1884   23.5562 C   0  0  0  0  0  0  0  0  0  0  0  0
    4.9956   -3.2969   23.4069 N   0  0  0  0  0  0  0  0  0  0  0  0
    4.5919   -4.0709   24.4180 N   0  0  0  0  0  0  0  0  0  0  0  0
    3.5988   -4.1335   24.6040 H   0  0  0  0  0  0  0  0  0  0  0  0
    5.6090   -4.4644   25.2236 C   0  0  0  0  0  0  0  0  0  0  0  0
    5.4680   -5.0467   26.1233 H   0  0  0  0  0  0  0  0  0  0  0  0
    6.7504   -3.9509   24.6870 C   0  0  0  0  0  0  0  0  0  0  0  0
    7.7653   -4.0190   25.0419 H   0  0  0  0  0  0  0  0  0  0  0  0
    8.5885   -2.1639   23.0369 C   0  0  0  0  0  0  0  0  0  0  0  0
    9.1530   -2.7420   23.9666 O   0  0  0  0  0  0  0  0  0  0  0  0
    9.3285   -1.2951   22.1329 C   0  0  0  0  0  0  0  0  0  0  0  0
   10.3893   -1.1832   22.3188 H   0  0  0  0  0  0  0  0  0  0  0  0
    8.6801   -0.6660   21.1430 C   0  0  0  0  0  0  0  0  0  0  0  0
    9.1870    0.0272   20.4703 H   0  0  0  0  0  0  0  0  0  0  0  0
    5.4311    0.5724   20.1741 C   0  0  0  0  0  0  0  0  0  0  0  0
    4.9970    0.5288   21.1737 H   0  0  0  0  0  0  0  0  0  0  0  0
    4.8356    1.2840   19.1255 C   0  0  0  0  0  0  0  0  0  0  0  0
    3.9159    1.8417   19.2727 H   0  0  0  0  0  0  0  0  0  0  0  0
  1  2  1  0
  2  3  2  0
  3  4  1  0
  4  5  1  0
  4  6  2  0
  6  7  1  0
  7  8  1  0
  8  9  2  0
  9 10  1  0
 10 11  2  0
 11 12  1  0
 12 13  1  0
 12 14  1  0
 14 15  1  0
 14 16  2  0
 16 17  1  0
  9 18  1  0
 18 19  2  0
 18 20  1  0
 20 21  1  0
 20 22  2  0
 22 23  1  0
  6 24  1  0
 24 25  1  0
 24 26  2  0
 26 27  1  0
 26  2  1  0
 22  7  1  0
 16 10  1  0
M  END
>  <cnnaffinity>  (1) 
-4.78412

>  <filename>  (1) 
O=c1ccn(-c2cccnc2)nc1-c1cc[nH]n1

$$$$
