
     RDKit          3D

 34 36  0  0  0  0  0  0  0  0999 V2000
    4.9059    1.8066   16.9690 H   0  0  0  0  0  0  0  0  0  0  0  0
    5.3850    1.3101   17.8104 C   0  0  0  0  0  0  0  0  0  0  0  0
    6.5494    0.6976   17.5382 N   0  0  0  0  0  0  0  0  0  0  0  0
    7.1734    0.0990   18.5590 C   0  0  0  0  0  0  0  0  0  0  0  0
    8.1120   -0.4068   18.3206 H   0  0  0  0  0  0  0  0  0  0  0  0
    6.6714    0.0449   19.8794 C   0  0  0  0  0  0  0  0  0  0  0  0
    7.4010   -0.6648   20.9557 C   0  0  0  0  0  0  0  0  0  0  0  0
    8.7125   -0.4223   21.1859 C   0  0  0  0  0  0  0  0  0  0  0  0
    9.2755    0.2985   20.5981 H   0  0  0  0  0  0  0  0  0  0  0  0
    9.4278   -1.0484   22.2058 N   0  0  0  0  0  0  0  0  0  0  0  0
   10.8190   -0.7312   22.4216 C   0  0  0  0  0  0  0  0  0  0  0  0
   11.7719   -1.6321   21.9408 C   0  0  0  0  0  0  0  0  0  0  0  0
   11.3851   -2.5242   21.4699 H   0  0  0  0  0  0  0  0  0  0  0  0
   13.1403   -1.3675   22.0616 C   0  0  0  0  0  0  0  0  0  0  0  0
   13.8657   -2.0910   21.6915 H   0  0  0  0  0  0  0  0  0  0  0  0
   13.5538   -0.1834   22.6819 C   0  0  0  0  0  0  0  0  0  0  0  0
   14.6147    0.0347   22.7970 H   0  0  0  0  0  0  0  0  0  0  0  0
   12.6035    0.7205   23.1704 C   0  0  0  0  0  0  0  0  0  0  0  0
   12.9356    1.6356   23.6546 H   0  0  0  0  0  0  0  0  0  0  0  0
   11.2235    0.4601   23.0512 C   0  0  0  0  0  0  0  0  0  0  0  0
   10.1973    1.4577   23.5630 C   0  0  0  0  0  0  0  0  0  0  0  0
    9.1651    0.8666   24.1861 F   0  0  0  0  0  0  0  0  0  0  0  0
   10.7490    2.3173   24.4413 F   0  0  0  0  0  0  0  0  0  0  0  0
    9.6787    2.2070   22.5668 F   0  0  0  0  0  0  0  0  0  0  0  0
    8.8076   -2.0096   23.0357 C   0  0  0  0  0  0  0  0  0  0  0  0
    9.3433   -2.6280   23.9200 O   0  0  0  0  0  0  0  0  0  0  0  0
    7.5032   -2.2244   22.7621 N   0  0  0  0  0  0  0  0  0  0  0  0
    7.0537   -2.9159   23.3240 H   0  0  0  0  0  0  0  0  0  0  0  0
    6.7213   -1.6970   21.7720 C   0  0  0  0  0  0  0  0  0  0  0  0
    5.6074   -2.1668   21.6573 O   0  0  0  0  0  0  0  0  0  0  0  0
    5.4408    0.6671   20.1290 C   0  0  0  0  0  0  0  0  0  0  0  0
    5.0206    0.6079   21.1333 H   0  0  0  0  0  0  0  0  0  0  0  0
    4.7984    1.3252   19.0804 C   0  0  0  0  0  0  0  0  0  0  0  0
    3.8644    1.8497   19.2346 H   0  0  0  0  0  0  0  0  0  0  0  0
  1  2  1  0
  2  3  2  0
  3  4  1  0
  4  5  1  0
  4  6  2  0
  6  7  1  0
  7  8  2  0
  8  9  1  0
  8 10  1  0
 10 11  1  0
 11 12  2  0
 12 13  1  0
 12 14  1  0
 14 15  1  0
 14 16  2  0
 16 17  1  0
 16 18  1  0
 18 19  1  0
 18 20  2  0
 20 21  1  0
 21 22  1  0
 21 23  1  0
 21 24  1  0
 10 25  1  0
 25 26  2  0
 25 27  1  0
 27 28  1  0
 27 29  1  0
 29 30  2  0
  6 31  1  0
 31 32  1  0
 31 33  2  0
 33 34  1  0
 33  2  1  0
 29  7  1  0
 20 11  1  0
M  END
>  <cnnaffinity>  (1) 
-5.7637

>  <filename>  (1) 
O=c1[nH]c(=O)n(-c2ccccc2C(F)(F)F)cc1-c1cccnc1

$$$$
