
     RDKit          3D

 46 49  0  0  0  0  0  0  0  0999 V2000
    6.5100    6.4774   21.5519 O   0  0  0  0  0  0  0  0  0  0  0  0
    7.4235    5.8878   22.1036 C   0  0  0  0  0  0  0  0  0  0  0  0
    8.3666    6.4477   23.0615 C   0  0  0  0  0  0  0  0  0  0  0  0
    9.3427    5.6678   23.6188 C   0  0  0  0  0  0  0  0  0  0  0  0
    9.4577    4.2864   23.2534 C   0  0  0  0  0  0  0  0  0  0  0  0
    8.5926    3.7388   22.3393 C   0  0  0  0  0  0  0  0  0  0  0  0
    8.5928    2.3117   21.8731 C   0  0  0  0  0  0  0  0  0  0  0  0
    7.5813    1.4083   22.6320 C   0  0  0  0  0  0  0  0  0  0  0  0
    7.6189   -0.0275   22.2097 C   0  0  0  0  0  0  0  0  0  0  0  0
    8.0959   -1.0050   22.9526 N   0  0  0  0  0  0  0  0  0  0  0  0
    8.0392   -2.0885   22.1337 C   0  0  0  0  0  0  0  0  0  0  0  0
    8.5157   -3.4623   22.5456 C   0  0  0  0  0  0  0  0  0  0  0  0
    7.6597   -4.6361   22.0221 C   0  0  0  0  0  0  0  0  0  0  0  0
    8.0463   -5.8349   22.8992 C   0  0  0  0  0  0  0  0  0  0  0  0
    8.4828   -5.2418   24.2605 C   0  0  0  0  0  0  0  0  0  0  0  0
    8.6171   -3.7112   24.0689 C   0  0  0  0  0  0  0  0  0  0  0  0
    7.8276   -3.1751   24.6074 H   0  0  0  0  0  0  0  0  0  0  0  0
    9.5659   -3.3382   24.4718 H   0  0  0  0  0  0  0  0  0  0  0  0
    7.7635   -5.4774   25.0533 H   0  0  0  0  0  0  0  0  0  0  0  0
    9.4298   -5.6753   24.5964 H   0  0  0  0  0  0  0  0  0  0  0  0
    8.8701   -6.3829   22.4275 H   0  0  0  0  0  0  0  0  0  0  0  0
    7.2272   -6.5546   23.0095 H   0  0  0  0  0  0  0  0  0  0  0  0
    6.6023   -4.3768   22.1463 H   0  0  0  0  0  0  0  0  0  0  0  0
    7.8230   -4.8194   20.9553 H   0  0  0  0  0  0  0  0  0  0  0  0
    9.5286   -3.5420   22.1382 H   0  0  0  0  0  0  0  0  0  0  0  0
    7.5759   -1.8339   20.9213 N   0  0  0  0  0  0  0  0  0  0  0  0
    7.2707   -0.5104   20.9789 N   0  0  0  0  0  0  0  0  0  0  0  0
    6.6056    0.1083   19.8808 C   0  0  0  0  0  0  0  0  0  0  0  0
    5.4024    0.8031   20.0619 C   0  0  0  0  0  0  0  0  0  0  0  0
    4.8222    1.4236   18.9502 C   0  0  0  0  0  0  0  0  0  0  0  0
    5.4598    1.3230   17.7092 C   0  0  0  0  0  0  0  0  0  0  0  0
    6.5900    0.6187   17.5219 N   0  0  0  0  0  0  0  0  0  0  0  0
    7.1389    0.0135   18.5807 C   0  0  0  0  0  0  0  0  0  0  0  0
    8.0374   -0.5683   18.3891 H   0  0  0  0  0  0  0  0  0  0  0  0
    5.0477    1.8110   16.8270 H   0  0  0  0  0  0  0  0  0  0  0  0
    3.9025    1.9928   19.0439 H   0  0  0  0  0  0  0  0  0  0  0  0
    4.9229    0.8262   21.0424 H   0  0  0  0  0  0  0  0  0  0  0  0
    7.8124    1.4105   23.7020 H   0  0  0  0  0  0  0  0  0  0  0  0
    6.5594    1.7914   22.5368 H   0  0  0  0  0  0  0  0  0  0  0  0
    9.6027    1.9053   22.0032 H   0  0  0  0  0  0  0  0  0  0  0  0
    8.3735    2.2901   20.7996 H   0  0  0  0  0  0  0  0  0  0  0  0
    7.6033    4.5419   21.8281 N   0  0  0  0  0  0  0  0  0  0  0  0
    6.9103    4.2490   21.1531 H   0  0  0  0  0  0  0  0  0  0  0  0
   10.2249    3.6625   23.7000 H   0  0  0  0  0  0  0  0  0  0  0  0
   10.0357    6.0903   24.3515 H   0  0  0  0  0  0  0  0  0  0  0  0
    8.2034    7.4918   23.2868 H   0  0  0  0  0  0  0  0  0  0  0  0
  1  2  2  0
  2  3  1  0
  3  4  2  0
  4  5  1  0
  5  6  2  0
  6  7  1  0
  7  8  1  0
  8  9  1  0
  9 10  2  0
 10 11  1  0
 11 12  1  0
 12 13  1  0
 13 14  1  0
 14 15  1  0
 15 16  1  0
 16 17  1  0
 16 18  1  0
 15 19  1  0
 15 20  1  0
 14 21  1  0
 14 22  1  0
 13 23  1  0
 13 24  1  0
 12 25  1  0
 11 26  2  0
 26 27  1  0
 27 28  1  0
 28 29  2  0
 29 30  1  0
 30 31  2  0
 31 32  1  0
 32 33  2  0
 33 34  1  0
 31 35  1  0
 30 36  1  0
 29 37  1  0
  8 38  1  0
  8 39  1  0
  7 40  1  0
  7 41  1  0
  6 42  1  0
 42 43  1  0
  5 44  1  0
  4 45  1  0
  3 46  1  0
 42  2  1  0
 27  9  1  0
 33 28  1  0
 16 12  1  0
M  END
>  <cnnaffinity>  (1) 
-6.09318

>  <filename>  (1) 
O=c1cccc(CCc2nc(C3CCCC3)nn2-c2cccnc2)[nH]1

$$$$
