
     RDKit          3D

 33 35  0  0  0  0  0  0  0  0999 V2000
    4.9386    1.8803   16.9313 H   0  0  0  0  0  0  0  0  0  0  0  0
    5.4078    1.3563   17.7624 C   0  0  0  0  0  0  0  0  0  0  0  0
    6.5742    0.7423   17.5014 N   0  0  0  0  0  0  0  0  0  0  0  0
    7.1713    0.0966   18.5125 C   0  0  0  0  0  0  0  0  0  0  0  0
    8.1101   -0.4087   18.2870 H   0  0  0  0  0  0  0  0  0  0  0  0
    6.6374    0.0180   19.8132 C   0  0  0  0  0  0  0  0  0  0  0  0
    7.3102   -0.6843   20.8781 N   0  0  0  0  0  0  0  0  0  0  0  0
    8.5783   -0.2754   21.2563 C   0  0  0  0  0  0  0  0  0  0  0  0
    8.9946    0.5573   20.6905 H   0  0  0  0  0  0  0  0  0  0  0  0
    9.2561   -0.8845   22.2633 C   0  0  0  0  0  0  0  0  0  0  0  0
   10.2778   -0.5843   22.4767 H   0  0  0  0  0  0  0  0  0  0  0  0
    8.6343   -1.9285   23.0190 C   0  0  0  0  0  0  0  0  0  0  0  0
    9.3850   -2.6067   24.1366 C   0  0  0  0  0  0  0  0  0  0  0  0
   10.5239   -3.1922   23.7468 N   0  0  0  0  0  0  0  0  0  0  0  0
   11.0807   -4.0922   24.5519 C   0  0  0  0  0  0  0  0  0  0  0  0
   11.9480   -4.6100   24.1619 H   0  0  0  0  0  0  0  0  0  0  0  0
   10.5759   -4.3957   25.8148 C   0  0  0  0  0  0  0  0  0  0  0  0
   11.0497   -5.1736   26.3952 H   0  0  0  0  0  0  0  0  0  0  0  0
    9.5023   -3.6639   26.3076 C   0  0  0  0  0  0  0  0  0  0  0  0
    9.1686   -3.8495   27.3298 H   0  0  0  0  0  0  0  0  0  0  0  0
    8.9101   -2.7173   25.4589 C   0  0  0  0  0  0  0  0  0  0  0  0
    7.7390   -1.8794   25.8882 C   0  0  0  0  0  0  0  0  0  0  0  0
    6.5731   -2.4870   25.5781 F   0  0  0  0  0  0  0  0  0  0  0  0
    7.7240   -1.6683   27.2144 F   0  0  0  0  0  0  0  0  0  0  0  0
    7.7194   -0.6768   25.2874 F   0  0  0  0  0  0  0  0  0  0  0  0
    7.3847   -2.3469   22.6459 C   0  0  0  0  0  0  0  0  0  0  0  0
    6.8634   -3.1704   23.1112 H   0  0  0  0  0  0  0  0  0  0  0  0
    6.6403   -1.7732   21.5427 C   0  0  0  0  0  0  0  0  0  0  0  0
    5.5599   -2.1965   21.1716 O   0  0  0  0  0  0  0  0  0  0  0  0
    5.4221    0.6566   20.0697 C   0  0  0  0  0  0  0  0  0  0  0  0
    4.9938    0.6176   21.0703 H   0  0  0  0  0  0  0  0  0  0  0  0
    4.8022    1.3412   19.0223 C   0  0  0  0  0  0  0  0  0  0  0  0
    3.8688    1.8676   19.1792 H   0  0  0  0  0  0  0  0  0  0  0  0
  1  2  1  0
  2  3  2  0
  3  4  1  0
  4  5  1  0
  4  6  2  0
  6  7  1  0
  7  8  1  0
  8  9  1  0
  8 10  2  0
 10 11  1  0
 10 12  1  0
 12 13  1  0
 13 14  2  0
 14 15  1  0
 15 16  1  0
 15 17  2  0
 17 18  1  0
 17 19  1  0
 19 20  1  0
 19 21  2  0
 21 22  1  0
 22 23  1  0
 22 24  1  0
 22 25  1  0
 12 26  2  0
 26 27  1  0
 26 28  1  0
 28 29  2  0
  6 30  1  0
 30 31  1  0
 30 32  2  0
 32 33  1  0
 32  2  1  0
 28  7  1  0
 21 13  1  0
M  END
>  <cnnaffinity>  (1) 
-5.88069

>  <filename>  (1) 
O=c1cc(-c2ncccc2C(F)(F)F)ccn1-c1cccnc1

$$$$
