
     RDKit          3D

 36 38  0  0  0  0  0  0  0  0999 V2000
    4.9330    1.8726   16.9511 H   0  0  0  0  0  0  0  0  0  0  0  0
    5.3920    1.3471   17.7859 C   0  0  0  0  0  0  0  0  0  0  0  0
    6.5740    0.7637   17.5372 N   0  0  0  0  0  0  0  0  0  0  0  0
    7.1867    0.1485   18.5557 C   0  0  0  0  0  0  0  0  0  0  0  0
    8.1564   -0.2944   18.3323 H   0  0  0  0  0  0  0  0  0  0  0  0
    6.6480    0.0438   19.8525 C   0  0  0  0  0  0  0  0  0  0  0  0
    7.4151   -0.6498   20.9712 C   0  0  1  0  0  0  0  0  0  0  0  0
    6.8910   -0.4556   21.9203 H   0  0  0  0  0  0  0  0  0  0  0  0
    7.5589   -2.1997   20.9284 C   0  0  0  0  0  0  0  0  0  0  0  0
    6.7230   -3.0603   20.8473 O   0  0  0  0  0  0  0  0  0  0  0  0
    8.8945   -2.4254   21.0690 N   0  0  0  0  0  0  0  0  0  0  0  0
    9.3241   -3.3258   21.1009 H   0  0  0  0  0  0  0  0  0  0  0  0
    9.6560   -1.2925   21.1820 C   0  0  0  0  0  0  0  0  0  0  0  0
   10.8467   -1.2948   21.3765 O   0  0  0  0  0  0  0  0  0  0  0  0
    8.8172   -0.2122   21.0305 N   0  0  0  0  0  0  0  0  0  0  0  0
    9.2031    1.0878   21.5955 C   0  0  0  0  0  0  0  0  0  0  0  0
    8.5957    1.8587   21.0962 H   0  0  0  0  0  0  0  0  0  0  0  0
   10.2540    1.2610   21.3344 H   0  0  0  0  0  0  0  0  0  0  0  0
    8.9903    1.1649   23.1021 C   0  0  0  0  0  0  0  0  0  0  0  0
    7.7741    1.6636   23.5888 C   0  0  0  0  0  0  0  0  0  0  0  0
    7.0533    2.0851   22.8954 H   0  0  0  0  0  0  0  0  0  0  0  0
    7.4338    1.5786   24.9367 C   0  0  0  0  0  0  0  0  0  0  0  0
    6.4569    1.9209   25.2690 H   0  0  0  0  0  0  0  0  0  0  0  0
    8.3376    1.0038   25.8468 C   0  0  0  0  0  0  0  0  0  0  0  0
    7.9065    0.7843   27.2878 C   0  0  0  0  0  0  0  0  0  0  0  0
    8.7188   -0.0640   27.9455 F   0  0  0  0  0  0  0  0  0  0  0  0
    7.8673    1.9300   27.9972 F   0  0  0  0  0  0  0  0  0  0  0  0
    6.6633    0.2551   27.3531 F   0  0  0  0  0  0  0  0  0  0  0  0
    9.5955    0.5755   25.3894 C   0  0  0  0  0  0  0  0  0  0  0  0
   10.3194    0.1567   26.0878 H   0  0  0  0  0  0  0  0  0  0  0  0
    9.9130    0.6525   24.0301 C   0  0  0  0  0  0  0  0  0  0  0  0
   10.8674    0.2683   23.6874 H   0  0  0  0  0  0  0  0  0  0  0  0
    5.4010    0.6451   20.0841 C   0  0  0  0  0  0  0  0  0  0  0  0
    4.9393    0.6172   21.0738 H   0  0  0  0  0  0  0  0  0  0  0  0
    4.7653    1.3133   19.0338 C   0  0  0  0  0  0  0  0  0  0  0  0
    3.8249    1.8354   19.1768 H   0  0  0  0  0  0  0  0  0  0  0  0
  1  2  1  0
  2  3  2  0
  3  4  1  0
  4  5  1  0
  4  6  2  0
  6  7  1  0
  7  8  1  1
  7  9  1  0
  9 10  2  0
  9 11  1  0
 11 12  1  0
 11 13  1  0
 13 14  2  0
 13 15  1  0
 15 16  1  0
 16 17  1  0
 16 18  1  0
 16 19  1  0
 19 20  2  0
 20 21  1  0
 20 22  1  0
 22 23  1  0
 22 24  2  0
 24 25  1  0
 25 26  1  0
 25 27  1  0
 25 28  1  0
 24 29  1  0
 29 30  1  0
 29 31  2  0
 31 32  1  0
  6 33  1  0
 33 34  1  0
 33 35  2  0
 35 36  1  0
 35  2  1  0
 15  7  1  0
 31 19  1  0
M  END
>  <cnnaffinity>  (1) 
-5.11135

>  <filename>  (1) 
O=C1NC(=O)N(Cc2ccc(C(F)(F)F)cc2)[C@H]1c1cccnc1

$$$$
