
     RDKit          3D

 32 34  0  0  0  0  0  0  0  0999 V2000
    4.9469    1.8395   16.9904 H   0  0  0  0  0  0  0  0  0  0  0  0
    5.3804    1.2909   17.8232 C   0  0  0  0  0  0  0  0  0  0  0  0
    6.5281    0.6477   17.5669 N   0  0  0  0  0  0  0  0  0  0  0  0
    7.1225    0.0299   18.5911 C   0  0  0  0  0  0  0  0  0  0  0  0
    8.0860   -0.4385   18.3920 H   0  0  0  0  0  0  0  0  0  0  0  0
    6.5944   -0.0201   19.8927 C   0  0  0  0  0  0  0  0  0  0  0  0
    7.3357   -0.7421   20.9740 C   0  0  0  0  0  0  0  0  0  0  0  0
    6.5932   -1.5249   21.7141 N   0  0  0  0  0  0  0  0  0  0  0  0
    7.1571   -2.1974   22.7653 N   0  0  0  0  0  0  0  0  0  0  0  0
    6.2704   -2.9836   23.5682 C   0  0  0  0  0  0  0  0  0  0  0  0
    5.2044   -3.6610   22.9566 C   0  0  0  0  0  0  0  0  0  0  0  0
    5.0764   -3.5083   21.8902 H   0  0  0  0  0  0  0  0  0  0  0  0
    4.3684   -4.4679   23.7379 C   0  0  0  0  0  0  0  0  0  0  0  0
    3.5474   -5.0108   23.2810 H   0  0  0  0  0  0  0  0  0  0  0  0
    4.5767   -4.5844   25.1163 C   0  0  0  0  0  0  0  0  0  0  0  0
    3.9392   -5.1927   25.7482 H   0  0  0  0  0  0  0  0  0  0  0  0
    5.6403   -3.8946   25.7030 C   0  0  0  0  0  0  0  0  0  0  0  0
    5.9372   -4.0499   27.1493 N   0  0  0  0  0  4  0  0  0  0  0  0
    5.1218   -4.6347   27.8485 O   0  0  0  0  0  0  0  0  0  0  0  0
    6.9877   -3.5903   27.5560 O   0  0  0  0  0  1  0  0  0  0  0  0
    6.4875   -3.0838   24.9474 C   0  0  0  0  0  0  0  0  0  0  0  0
    7.2815   -2.5251   25.4346 H   0  0  0  0  0  0  0  0  0  0  0  0
    8.5085   -2.1416   23.0271 C   0  0  0  0  0  0  0  0  0  0  0  0
    8.8481   -2.7585   23.8600 H   0  0  0  0  0  0  0  0  0  0  0  0
    9.3492   -1.3950   22.2931 C   0  0  0  0  0  0  0  0  0  0  0  0
   10.4121   -1.3433   22.4910 H   0  0  0  0  0  0  0  0  0  0  0  0
    8.8340   -0.5809   21.1940 C   0  0  0  0  0  0  0  0  0  0  0  0
    9.5688    0.1451   20.5332 O   0  0  0  0  0  0  0  0  0  0  0  0
    5.3686    0.6214   20.1337 C   0  0  0  0  0  0  0  0  0  0  0  0
    4.9300    0.5881   21.1321 H   0  0  0  0  0  0  0  0  0  0  0  0
    4.7630    1.3084   19.0793 C   0  0  0  0  0  0  0  0  0  0  0  0
    3.8520    1.8822   19.2165 H   0  0  0  0  0  0  0  0  0  0  0  0
  1  2  1  0
  2  3  2  0
  3  4  1  0
  4  5  1  0
  4  6  2  0
  6  7  1  0
  7  8  2  0
  8  9  1  0
  9 10  1  0
 10 11  2  0
 11 12  1  0
 11 13  1  0
 13 14  1  0
 13 15  2  0
 15 16  1  0
 15 17  1  0
 17 18  1  0
 18 19  2  0
 18 20  1  0
 17 21  2  0
 21 22  1  0
  9 23  1  0
 23 24  1  0
 23 25  2  0
 25 26  1  0
 25 27  1  0
 27 28  2  0
  6 29  1  0
 29 30  1  0
 29 31  2  0
 31 32  1  0
 31  2  1  0
 27  7  1  0
 21 10  1  0
M  CHG  2  18   1  20  -1
M  END
>  <cnnaffinity>  (1) 
-5.23396

>  <filename>  (1) 
O=c1ccn(-c2cccc([N+](=O)[O-])c2)nc1-c1cccnc1

$$$$
