
     RDKit          3D

 43 46  0  0  0  0  0  0  0  0999 V2000
    9.2325    2.3144   22.4968 O   0  0  0  0  0  0  0  0  0  0  0  0
   10.3104    1.7463   22.5497 C   0  0  0  0  0  0  0  0  0  0  0  0
   11.3545    2.1867   23.5838 C   0  0  0  0  0  0  0  0  0  0  0  0
   12.5116    1.2163   23.8632 C   0  0  0  0  0  0  0  0  0  0  0  0
   12.9302    0.5767   22.5384 C   0  0  0  0  0  0  0  0  0  0  0  0
   11.7538   -0.2032   21.9653 C   0  0  0  0  0  0  0  0  0  0  0  0
   10.6562    0.7297   21.6606 N   0  0  0  0  0  0  0  0  0  0  0  0
    9.6167    0.2231   20.7611 C   0  0  0  0  0  0  0  0  0  0  0  0
    8.5802   -0.6635   21.3984 C   0  0  0  0  0  0  0  0  0  0  0  0
    8.7384   -1.5045   22.3921 N   0  0  0  0  0  0  0  0  0  0  0  0
    7.4961   -2.0598   22.5606 C   0  0  0  0  0  0  0  0  0  0  0  0
    7.2490   -3.0595   23.6676 C   0  0  0  0  0  0  0  0  0  0  0  0
    8.3371   -3.4365   24.4907 C   0  0  0  0  0  0  0  0  0  0  0  0
    8.1282   -4.3321   25.5354 C   0  0  0  0  0  0  0  0  0  0  0  0
    6.8406   -4.8246   25.7387 C   0  0  0  0  0  0  0  0  0  0  0  0
    5.8206   -4.4051   24.8797 C   0  0  0  0  0  0  0  0  0  0  0  0
    6.0083   -3.5620   23.8599 N   0  0  0  0  0  0  0  0  0  0  0  0
    4.8009   -4.7533   25.0212 H   0  0  0  0  0  0  0  0  0  0  0  0
    6.6213   -5.5155   26.5432 H   0  0  0  0  0  0  0  0  0  0  0  0
    8.9527   -4.6300   26.1835 H   0  0  0  0  0  0  0  0  0  0  0  0
    9.3186   -3.0115   24.3071 H   0  0  0  0  0  0  0  0  0  0  0  0
    6.6024   -1.6147   21.6918 N   0  0  0  0  0  0  0  0  0  0  0  0
    7.3034   -0.7556   20.9208 N   0  0  0  0  0  0  0  0  0  0  0  0
    6.6393   -0.0525   19.8768 C   0  0  0  0  0  0  0  0  0  0  0  0
    5.4339    0.6083   20.1426 C   0  0  0  0  0  0  0  0  0  0  0  0
    4.8247    1.3066   19.0976 C   0  0  0  0  0  0  0  0  0  0  0  0
    5.4234    1.3056   17.8308 C   0  0  0  0  0  0  0  0  0  0  0  0
    6.5632    0.6511   17.5620 N   0  0  0  0  0  0  0  0  0  0  0  0
    7.1471   -0.0121   18.5672 C   0  0  0  0  0  0  0  0  0  0  0  0
    8.0709   -0.5336   18.3291 H   0  0  0  0  0  0  0  0  0  0  0  0
    4.9659    1.8350   16.9966 H   0  0  0  0  0  0  0  0  0  0  0  0
    3.8971    1.8482   19.2492 H   0  0  0  0  0  0  0  0  0  0  0  0
    5.0006    0.5712   21.1431 H   0  0  0  0  0  0  0  0  0  0  0  0
   10.0883   -0.3890   19.9819 H   0  0  0  0  0  0  0  0  0  0  0  0
    9.1302    1.0634   20.2599 H   0  0  0  0  0  0  0  0  0  0  0  0
   11.3951   -0.9796   22.6671 H   0  0  0  0  0  0  0  0  0  0  0  0
   12.0646   -0.7164   21.0436 H   0  0  0  0  0  0  0  0  0  0  0  0
   13.1902    1.3701   21.8268 H   0  0  0  0  0  0  0  0  0  0  0  0
   13.8010   -0.0779   22.6426 H   0  0  0  0  0  0  0  0  0  0  0  0
   13.3456    1.7535   24.3314 H   0  0  0  0  0  0  0  0  0  0  0  0
   12.2086    0.4290   24.5695 H   0  0  0  0  0  0  0  0  0  0  0  0
   11.7628    3.1115   23.1586 H   0  0  0  0  0  0  0  0  0  0  0  0
   10.8025    2.4657   24.4876 H   0  0  0  0  0  0  0  0  0  0  0  0
  1  2  2  0
  2  3  1  0
  3  4  1  0
  4  5  1  0
  5  6  1  0
  6  7  1  0
  7  8  1  0
  8  9  1  0
  9 10  2  0
 10 11  1  0
 11 12  1  0
 12 13  2  0
 13 14  1  0
 14 15  2  0
 15 16  1  0
 16 17  2  0
 16 18  1  0
 15 19  1  0
 14 20  1  0
 13 21  1  0
 11 22  2  0
 22 23  1  0
 23 24  1  0
 24 25  2  0
 25 26  1  0
 26 27  2  0
 27 28  1  0
 28 29  2  0
 29 30  1  0
 27 31  1  0
 26 32  1  0
 25 33  1  0
  8 34  1  0
  8 35  1  0
  6 36  1  0
  6 37  1  0
  5 38  1  0
  5 39  1  0
  4 40  1  0
  4 41  1  0
  3 42  1  0
  3 43  1  0
  7  2  1  0
 23  9  1  0
 29 24  1  0
 17 12  1  0
M  END
>  <cnnaffinity>  (1) 
-5.95988

>  <filename>  (1) 
O=C1CCCCN1Cc1nc(-c2ccccn2)nn1-c1cccnc1

$$$$
