
     RDKit          3D

 52 55  0  0  0  0  0  0  0  0999 V2000
    8.0391    7.6261   23.3807 O   0  0  0  0  0  0  0  0  0  0  0  0
    8.2201    6.4480   23.1188 C   0  0  0  0  0  0  0  0  0  0  0  0
    9.3013    5.5926   23.5942 C   0  0  0  0  0  0  0  0  0  0  0  0
    9.3887    4.2802   23.2276 C   0  0  0  0  0  0  0  0  0  0  0  0
    8.4083    3.6945   22.3415 C   0  0  0  0  0  0  0  0  0  0  0  0
    8.5024    2.2519   21.9037 C   0  0  0  0  0  0  0  0  0  0  0  0
    7.5927    1.2999   22.7216 C   0  0  0  0  0  0  0  0  0  0  0  0
    7.6541   -0.1194   22.2544 C   0  0  0  0  0  0  0  0  0  0  0  0
    8.2266   -1.1264   22.8948 N   0  0  0  0  0  0  0  0  0  0  0  0
    8.2030   -2.1325   21.9808 C   0  0  0  0  0  0  0  0  0  0  0  0
    8.7659   -3.5024   22.1850 C   0  0  0  0  0  0  0  0  0  0  0  0
    7.8935   -4.4637   23.0218 C   0  0  0  0  0  0  0  0  0  0  0  0
    6.6282   -4.8259   22.2192 C   0  0  0  0  0  0  0  0  0  0  0  0
    5.7283   -5.8192   22.9623 C   0  0  0  0  0  0  0  0  0  0  0  0
    5.3580   -5.2870   24.3548 C   0  0  0  0  0  0  0  0  0  0  0  0
    6.6105   -4.9337   25.1758 C   0  0  0  0  0  0  0  0  0  0  0  0
    7.5165   -3.9410   24.4244 C   0  0  0  0  0  0  0  0  0  0  0  0
    8.4230   -3.7296   25.0071 H   0  0  0  0  0  0  0  0  0  0  0  0
    6.9921   -2.9798   24.3262 H   0  0  0  0  0  0  0  0  0  0  0  0
    6.3224   -4.5194   26.1502 H   0  0  0  0  0  0  0  0  0  0  0  0
    7.1745   -5.8539   25.3911 H   0  0  0  0  0  0  0  0  0  0  0  0
    4.7354   -6.0132   24.8915 H   0  0  0  0  0  0  0  0  0  0  0  0
    4.7431   -4.3819   24.2348 H   0  0  0  0  0  0  0  0  0  0  0  0
    4.8288   -6.0300   22.3706 H   0  0  0  0  0  0  0  0  0  0  0  0
    6.2594   -6.7772   23.0643 H   0  0  0  0  0  0  0  0  0  0  0  0
    6.9219   -5.2355   21.2429 H   0  0  0  0  0  0  0  0  0  0  0  0
    6.0737   -3.8981   22.0114 H   0  0  0  0  0  0  0  0  0  0  0  0
    8.4843   -5.3846   23.1641 H   0  0  0  0  0  0  0  0  0  0  0  0
    9.7762   -3.4039   22.5921 H   0  0  0  0  0  0  0  0  0  0  0  0
    8.8451   -3.9216   21.1782 H   0  0  0  0  0  0  0  0  0  0  0  0
    7.6533   -1.8157   20.8312 N   0  0  0  0  0  0  0  0  0  0  0  0
    7.2642   -0.5295   21.0122 N   0  0  0  0  0  0  0  0  0  0  0  0
    6.5944    0.1256   19.9474 C   0  0  0  0  0  0  0  0  0  0  0  0
    5.3980    0.8290   20.1281 C   0  0  0  0  0  0  0  0  0  0  0  0
    4.8217    1.4301   19.0025 C   0  0  0  0  0  0  0  0  0  0  0  0
    5.4678    1.3220   17.7675 C   0  0  0  0  0  0  0  0  0  0  0  0
    6.5997    0.6163   17.5868 N   0  0  0  0  0  0  0  0  0  0  0  0
    7.1286    0.0087   18.6510 C   0  0  0  0  0  0  0  0  0  0  0  0
    8.0091   -0.6124   18.4840 H   0  0  0  0  0  0  0  0  0  0  0  0
    5.0630    1.8042   16.8809 H   0  0  0  0  0  0  0  0  0  0  0  0
    3.8826    1.9708   19.0713 H   0  0  0  0  0  0  0  0  0  0  0  0
    4.9156    0.8673   21.1060 H   0  0  0  0  0  0  0  0  0  0  0  0
    7.8982    1.3133   23.7722 H   0  0  0  0  0  0  0  0  0  0  0  0
    6.5534    1.6473   22.6634 H   0  0  0  0  0  0  0  0  0  0  0  0
    8.2271    2.1657   20.8428 H   0  0  0  0  0  0  0  0  0  0  0  0
    9.5471    1.9211   21.9805 H   0  0  0  0  0  0  0  0  0  0  0  0
    7.3875    4.4902   21.9021 C   0  0  0  0  0  0  0  0  0  0  0  0
    7.3095    5.8078   22.2875 N   0  0  0  0  0  0  0  0  0  0  0  0
    6.6004    6.4646   21.9886 H   0  0  0  0  0  0  0  0  0  0  0  0
    6.5945    4.1249   21.2472 H   0  0  0  0  0  0  0  0  0  0  0  0
   10.2063    3.6599   23.6093 H   0  0  0  0  0  0  0  0  0  0  0  0
   10.0018    6.0796   24.2522 H   0  0  0  0  0  0  0  0  0  0  0  0
  1  2  2  0
  2  3  1  0
  3  4  2  0
  4  5  1  0
  5  6  1  0
  6  7  1  0
  7  8  1  0
  8  9  2  0
  9 10  1  0
 10 11  1  0
 11 12  1  0
 12 13  1  0
 13 14  1  0
 14 15  1  0
 15 16  1  0
 16 17  1  0
 17 18  1  0
 17 19  1  0
 16 20  1  0
 16 21  1  0
 15 22  1  0
 15 23  1  0
 14 24  1  0
 14 25  1  0
 13 26  1  0
 13 27  1  0
 12 28  1  0
 11 29  1  0
 11 30  1  0
 10 31  2  0
 31 32  1  0
 32 33  1  0
 33 34  2  0
 34 35  1  0
 35 36  2  0
 36 37  1  0
 37 38  2  0
 38 39  1  0
 36 40  1  0
 35 41  1  0
 34 42  1  0
  7 43  1  0
  7 44  1  0
  6 45  1  0
  6 46  1  0
  5 47  2  0
 47 48  1  0
 48 49  1  0
 47 50  1  0
  4 51  1  0
  3 52  1  0
 48  2  1  0
 32  8  1  0
 38 33  1  0
 17 12  1  0
M  END
>  <cnnaffinity>  (1) 
-6.17642

>  <filename>  (1) 
O=c1ccc(CCc2nc(CC3CCCCC3)nn2-c2cccnc2)c[nH]1

$$$$
