
     RDKit          3D

 31 33  0  0  0  0  0  0  0  0999 V2000
    4.9396    1.8746   16.9474 H   0  0  0  0  0  0  0  0  0  0  0  0
    5.3936    1.3430   17.7789 C   0  0  0  0  0  0  0  0  0  0  0  0
    6.5537    0.7186   17.5204 N   0  0  0  0  0  0  0  0  0  0  0  0
    7.1341    0.0549   18.5269 C   0  0  0  0  0  0  0  0  0  0  0  0
    8.0865   -0.4238   18.3038 H   0  0  0  0  0  0  0  0  0  0  0  0
    6.5705   -0.0558   19.8158 C   0  0  0  0  0  0  0  0  0  0  0  0
    7.2454   -0.7728   20.8787 N   0  0  0  0  0  0  0  0  0  0  0  0
    8.5039   -0.3333   21.2488 C   0  0  0  0  0  0  0  0  0  0  0  0
    8.8905    0.5101   20.6770 H   0  0  0  0  0  0  0  0  0  0  0  0
    9.2288   -0.9141   22.2286 C   0  0  0  0  0  0  0  0  0  0  0  0
   10.5878   -0.4318   22.5042 C   0  0  0  0  0  0  0  0  0  0  0  0
   11.6844   -1.2977   22.3956 C   0  0  0  0  0  0  0  0  0  0  0  0
   11.5185   -2.3623   22.2588 H   0  0  0  0  0  0  0  0  0  0  0  0
   12.9799   -0.7922   22.4497 C   0  0  0  0  0  0  0  0  0  0  0  0
   13.8463   -1.4240   22.3001 H   0  0  0  0  0  0  0  0  0  0  0  0
   13.1656    0.5673   22.6949 C   0  0  0  0  0  0  0  0  0  0  0  0
   14.7696    1.2069   22.6812 Cl  0  0  0  0  0  0  0  0  0  0  0  0
   12.0903    1.4303   22.9147 C   0  0  0  0  0  0  0  0  0  0  0  0
   12.2687    2.4731   23.1511 H   0  0  0  0  0  0  0  0  0  0  0  0
   10.7980    0.9286   22.7880 C   0  0  0  0  0  0  0  0  0  0  0  0
    9.9424    1.5937   22.8640 H   0  0  0  0  0  0  0  0  0  0  0  0
    8.6483   -2.0519   22.9676 C   0  0  0  0  0  0  0  0  0  0  0  0
    9.1470   -2.7352   23.8327 O   0  0  0  0  0  0  0  0  0  0  0  0
    7.3525   -2.3451   22.5987 N   0  0  0  0  0  0  0  0  0  0  0  0
    6.9242   -3.1129   23.0807 H   0  0  0  0  0  0  0  0  0  0  0  0
    6.6143   -1.8327   21.5839 C   0  0  0  0  0  0  0  0  0  0  0  0
    5.5265   -2.2943   21.3279 O   0  0  0  0  0  0  0  0  0  0  0  0
    5.3761    0.6215   20.0793 C   0  0  0  0  0  0  0  0  0  0  0  0
    4.9463    0.5943   21.0819 H   0  0  0  0  0  0  0  0  0  0  0  0
    4.7759    1.3328   19.0344 C   0  0  0  0  0  0  0  0  0  0  0  0
    3.8536    1.8834   19.1892 H   0  0  0  0  0  0  0  0  0  0  0  0
  1  2  1  0
  2  3  2  0
  3  4  1  0
  4  5  1  0
  4  6  2  0
  6  7  1  0
  7  8  1  0
  8  9  1  0
  8 10  2  0
 10 11  1  0
 11 12  2  0
 12 13  1  0
 12 14  1  0
 14 15  1  0
 14 16  2  0
 16 17  1  0
 16 18  1  0
 18 19  1  0
 18 20  2  0
 20 21  1  0
 10 22  1  0
 22 23  2  0
 22 24  1  0
 24 25  1  0
 24 26  1  0
 26 27  2  0
  6 28  1  0
 28 29  1  0
 28 30  2  0
 30 31  1  0
 30  2  1  0
 26  7  1  0
 20 11  1  0
M  END
>  <cnnaffinity>  (1) 
-5.26326

>  <filename>  (1) 
O=c1[nH]c(=O)n(-c2cccnc2)cc1-c1ccc(Cl)cc1

$$$$
