
     RDKit          3D

 33 35  0  0  0  0  0  0  0  0999 V2000
    5.0374    1.8913   16.9615 H   0  0  0  0  0  0  0  0  0  0  0  0
    5.4691    1.3427   17.8007 C   0  0  0  0  0  0  0  0  0  0  0  0
    6.6289    0.7076   17.5688 N   0  0  0  0  0  0  0  0  0  0  0  0
    7.1910    0.0263   18.5762 C   0  0  0  0  0  0  0  0  0  0  0  0
    8.1374   -0.4654   18.3545 H   0  0  0  0  0  0  0  0  0  0  0  0
    6.6105   -0.0888   19.8545 C   0  0  0  0  0  0  0  0  0  0  0  0
    7.2188   -0.8644   20.9130 N   0  0  0  0  0  0  0  0  0  0  0  0
    8.4796   -0.4797   21.4131 C   0  0  0  0  0  0  0  0  0  0  0  0
    8.9367    0.3695   20.9062 H   0  0  0  0  0  0  0  0  0  0  0  0
    9.0828   -1.1062   22.4550 C   0  0  0  0  0  0  0  0  0  0  0  0
   10.3080   -0.7036   23.0063 N   0  0  0  0  0  0  0  0  0  0  0  0
   10.7929   -1.4021   23.5605 H   0  0  0  0  0  0  0  0  0  0  0  0
   11.1326    0.3894   22.5224 C   0  0  0  0  0  0  0  0  0  0  0  0
   10.5784    1.3374   22.6293 H   0  0  0  0  0  0  0  0  0  0  0  0
   11.3559    0.2821   21.4460 H   0  0  0  0  0  0  0  0  0  0  0  0
   12.4417    0.4285   23.2858 C   0  0  0  0  0  0  0  0  0  0  0  0
   12.3484    0.1923   24.3440 H   0  0  0  0  0  0  0  0  0  0  0  0
   13.7416    0.0244   22.6398 C   0  0  0  0  0  0  0  0  0  0  0  0
   14.4722   -0.5014   23.2458 H   0  0  0  0  0  0  0  0  0  0  0  0
   13.7604   -0.2928   21.6039 H   0  0  0  0  0  0  0  0  0  0  0  0
   13.4696    1.4709   22.9511 C   0  0  0  0  0  0  0  0  0  0  0  0
   14.0220    1.9368   23.7596 H   0  0  0  0  0  0  0  0  0  0  0  0
   13.2375    2.1618   22.1434 H   0  0  0  0  0  0  0  0  0  0  0  0
    8.3482   -2.2904   23.0650 C   0  0  0  0  0  0  0  0  0  0  0  0
    8.7450   -3.0408   23.9361 O   0  0  0  0  0  0  0  0  0  0  0  0
    7.1022   -2.5233   22.5546 N   0  0  0  0  0  0  0  0  0  0  0  0
    6.5912   -3.2828   22.9540 H   0  0  0  0  0  0  0  0  0  0  0  0
    6.4885   -1.9221   21.5045 C   0  0  0  0  0  0  0  0  0  0  0  0
    5.4147   -2.3411   21.1522 O   0  0  0  0  0  0  0  0  0  0  0  0
    5.4019    0.5786   20.0853 C   0  0  0  0  0  0  0  0  0  0  0  0
    4.9349    0.5230   21.0667 H   0  0  0  0  0  0  0  0  0  0  0  0
    4.8277    1.3128   19.0428 C   0  0  0  0  0  0  0  0  0  0  0  0
    3.9029    1.8621   19.1802 H   0  0  0  0  0  0  0  0  0  0  0  0
  1  2  1  0
  2  3  2  0
  3  4  1  0
  4  5  1  0
  4  6  2  0
  6  7  1  0
  7  8  1  0
  8  9  1  0
  8 10  2  0
 10 11  1  0
 11 12  1  0
 11 13  1  0
 13 14  1  0
 13 15  1  0
 13 16  1  0
 16 17  1  0
 16 18  1  0
 18 19  1  0
 18 20  1  0
 18 21  1  0
 21 22  1  0
 21 23  1  0
 10 24  1  0
 24 25  2  0
 24 26  1  0
 26 27  1  0
 26 28  1  0
 28 29  2  0
  6 30  1  0
 30 31  1  0
 30 32  2  0
 32 33  1  0
 32  2  1  0
 28  7  1  0
 21 16  1  0
M  END
>  <cnnaffinity>  (1) 
-5.02082

>  <filename>  (1) 
O=c1[nH]c(=O)n(-c2cccnc2)cc1NCC1CC1

$$$$
