
     RDKit          3D

 31 33  0  0  0  0  0  0  0  0999 V2000
    4.9316    1.8671   16.9465 H   0  0  0  0  0  0  0  0  0  0  0  0
    5.3922    1.3424   17.7811 C   0  0  0  0  0  0  0  0  0  0  0  0
    6.5537    0.7203   17.5233 N   0  0  0  0  0  0  0  0  0  0  0  0
    7.1390    0.0633   18.5310 C   0  0  0  0  0  0  0  0  0  0  0  0
    8.0914   -0.4133   18.2998 H   0  0  0  0  0  0  0  0  0  0  0  0
    6.5789   -0.0456   19.8224 C   0  0  0  0  0  0  0  0  0  0  0  0
    7.2476   -0.7691   20.8794 N   0  0  0  0  0  0  0  0  0  0  0  0
    8.4996   -0.3328   21.2510 C   0  0  0  0  0  0  0  0  0  0  0  0
    8.9032    0.5035   20.6833 H   0  0  0  0  0  0  0  0  0  0  0  0
    9.2125   -0.9099   22.2403 C   0  0  0  0  0  0  0  0  0  0  0  0
   10.5716   -0.4349   22.5021 C   0  0  0  0  0  0  0  0  0  0  0  0
   11.6665   -1.3062   22.3983 C   0  0  0  0  0  0  0  0  0  0  0  0
   11.4913   -2.3799   22.2777 H   0  0  0  0  0  0  0  0  0  0  0  0
   12.9543   -0.7783   22.4493 C   0  0  0  0  0  0  0  0  0  0  0  0
   13.8154   -1.4156   22.2946 H   0  0  0  0  0  0  0  0  0  0  0  0
   13.1594    0.5868   22.6966 C   0  0  0  0  0  0  0  0  0  0  0  0
   14.7704    1.1832   22.7213 Cl  0  0  0  0  0  0  0  0  0  0  0  0
   12.0634    1.4419   22.8946 C   0  0  0  0  0  0  0  0  0  0  0  0
   12.2582    3.1076   23.3202 Cl  0  0  0  0  0  0  0  0  0  0  0  0
   10.7755    0.9367   22.7386 C   0  0  0  0  0  0  0  0  0  0  0  0
    9.9259    1.6153   22.8050 H   0  0  0  0  0  0  0  0  0  0  0  0
    8.6453   -2.0476   22.9768 C   0  0  0  0  0  0  0  0  0  0  0  0
    9.1577   -2.7246   23.8418 O   0  0  0  0  0  0  0  0  0  0  0  0
    7.3584   -2.3493   22.6026 N   0  0  0  0  0  0  0  0  0  0  0  0
    6.9322   -3.1102   23.0884 H   0  0  0  0  0  0  0  0  0  0  0  0
    6.6227   -1.8255   21.5883 C   0  0  0  0  0  0  0  0  0  0  0  0
    5.5344   -2.2816   21.3375 O   0  0  0  0  0  0  0  0  0  0  0  0
    5.3853    0.6264   20.0869 C   0  0  0  0  0  0  0  0  0  0  0  0
    4.9617    0.6063   21.0907 H   0  0  0  0  0  0  0  0  0  0  0  0
    4.7843    1.3308   19.0401 C   0  0  0  0  0  0  0  0  0  0  0  0
    3.8622    1.8746   19.1932 H   0  0  0  0  0  0  0  0  0  0  0  0
  1  2  1  0
  2  3  2  0
  3  4  1  0
  4  5  1  0
  4  6  2  0
  6  7  1  0
  7  8  1  0
  8  9  1  0
  8 10  2  0
 10 11  1  0
 11 12  2  0
 12 13  1  0
 12 14  1  0
 14 15  1  0
 14 16  2  0
 16 17  1  0
 16 18  1  0
 18 19  1  0
 18 20  2  0
 20 21  1  0
 10 22  1  0
 22 23  2  0
 22 24  1  0
 24 25  1  0
 24 26  1  0
 26 27  2  0
  6 28  1  0
 28 29  1  0
 28 30  2  0
 30 31  1  0
 30  2  1  0
 26  7  1  0
 20 11  1  0
M  END
>  <cnnaffinity>  (1) 
-5.80985

>  <filename>  (1) 
O=c1[nH]c(=O)n(-c2cccnc2)cc1-c1ccc(Cl)c(Cl)c1

$$$$
