
     RDKit          3D

 37 40  0  0  0  0  0  0  0  0999 V2000
    4.9255    1.8199   16.9504 H   0  0  0  0  0  0  0  0  0  0  0  0
    5.3914    1.3232   17.8025 C   0  0  0  0  0  0  0  0  0  0  0  0
    6.5549    0.6990   17.5649 N   0  0  0  0  0  0  0  0  0  0  0  0
    7.1482    0.0865   18.5989 C   0  0  0  0  0  0  0  0  0  0  0  0
    8.0910   -0.4056   18.3699 H   0  0  0  0  0  0  0  0  0  0  0  0
    6.6400    0.0637   19.9155 C   0  0  0  0  0  0  0  0  0  0  0  0
    7.3550   -0.6743   20.9745 C   0  0  0  0  0  0  0  0  0  0  0  0
    7.6329   -1.9855   21.0277 C   0  0  0  0  0  0  0  0  0  0  0  0
    7.3778   -2.8155   20.3844 H   0  0  0  0  0  0  0  0  0  0  0  0
    8.3176   -2.2856   22.1716 O   0  0  0  0  0  0  0  0  0  0  0  0
    8.4887   -1.1334   22.9007 C   0  0  0  0  0  0  0  0  0  0  0  0
    9.0365   -1.0796   23.9718 O   0  0  0  0  0  0  0  0  0  0  0  0
    7.9034   -0.1230   22.1537 N   0  0  0  0  0  0  0  0  0  0  0  0
    7.7377    1.2268   22.7103 C   0  0  0  0  0  0  0  0  0  0  0  0
    8.7156    1.7177   22.7474 H   0  0  0  0  0  0  0  0  0  0  0  0
    7.1292    1.7913   21.9971 H   0  0  0  0  0  0  0  0  0  0  0  0
    7.0711    1.2640   24.0882 C   0  0  0  0  0  0  0  0  0  0  0  0
    5.7865    0.6711   24.2177 C   0  0  0  0  0  0  0  0  0  0  0  0
    5.3300    0.3240   23.2997 H   0  0  0  0  0  0  0  0  0  0  0  0
    5.1302    0.5821   25.4226 C   0  0  0  0  0  0  0  0  0  0  0  0
    4.1866    0.0454   25.4868 H   0  0  0  0  0  0  0  0  0  0  0  0
    5.6998    1.1758   26.5919 C   0  0  0  0  0  0  0  0  0  0  0  0
    5.0582    1.1557   27.8721 C   0  0  0  0  0  0  0  0  0  0  0  0
    4.1094    0.6357   27.9853 H   0  0  0  0  0  0  0  0  0  0  0  0
    5.6323    1.7950   28.9505 C   0  0  0  0  0  0  0  0  0  0  0  0
    5.1401    1.7906   29.9195 H   0  0  0  0  0  0  0  0  0  0  0  0
    6.8764    2.4759   28.8091 C   0  0  0  0  0  0  0  0  0  0  0  0
    7.3059    2.9820   29.6696 H   0  0  0  0  0  0  0  0  0  0  0  0
    7.5255    2.4973   27.5995 C   0  0  0  0  0  0  0  0  0  0  0  0
    8.4726    3.0165   27.4675 H   0  0  0  0  0  0  0  0  0  0  0  0
    6.9639    1.8438   26.4635 C   0  0  0  0  0  0  0  0  0  0  0  0
    7.6399    1.8455   25.2003 C   0  0  0  0  0  0  0  0  0  0  0  0
    8.6144    2.3339   25.1539 H   0  0  0  0  0  0  0  0  0  0  0  0
    5.4100    0.7116   20.1303 C   0  0  0  0  0  0  0  0  0  0  0  0
    4.9524    0.7067   21.1215 H   0  0  0  0  0  0  0  0  0  0  0  0
    4.7771    1.3469   19.0591 C   0  0  0  0  0  0  0  0  0  0  0  0
    3.8298    1.8603   19.1827 H   0  0  0  0  0  0  0  0  0  0  0  0
  1  2  1  0
  2  3  2  0
  3  4  1  0
  4  5  1  0
  4  6  2  0
  6  7  1  0
  7  8  2  0
  8  9  1  0
  8 10  1  0
 10 11  1  0
 11 12  2  0
 11 13  1  0
 13 14  1  0
 14 15  1  0
 14 16  1  0
 14 17  1  0
 17 18  2  0
 18 19  1  0
 18 20  1  0
 20 21  1  0
 20 22  2  0
 22 23  1  0
 23 24  1  0
 23 25  2  0
 25 26  1  0
 25 27  1  0
 27 28  1  0
 27 29  2  0
 29 30  1  0
 29 31  1  0
 31 32  2  0
 32 33  1  0
  6 34  1  0
 34 35  1  0
 34 36  2  0
 36 37  1  0
 36  2  1  0
 13  7  1  0
 32 17  1  0
 31 22  1  0
M  END
>  <cnnaffinity>  (1) 
-4.78781

>  <filename>  (1) 
O=c1occ(-c2cccnc2)n1Cc1ccc2ccccc2c1

$$$$
