
     RDKit          3D

 34 36  0  0  0  0  0  0  0  0999 V2000
    4.9610    1.8669   16.9511 H   0  0  0  0  0  0  0  0  0  0  0  0
    5.4212    1.3414   17.7861 C   0  0  0  0  0  0  0  0  0  0  0  0
    6.5826    0.7196   17.5283 N   0  0  0  0  0  0  0  0  0  0  0  0
    7.1768    0.0682   18.5362 C   0  0  0  0  0  0  0  0  0  0  0  0
    8.1213   -0.4217   18.3030 H   0  0  0  0  0  0  0  0  0  0  0  0
    6.6340   -0.0243   19.8351 C   0  0  0  0  0  0  0  0  0  0  0  0
    7.3200   -0.7253   20.8967 N   0  0  0  0  0  0  0  0  0  0  0  0
    8.5735   -0.2739   21.2477 C   0  0  0  0  0  0  0  0  0  0  0  0
    8.9429    0.5767   20.6887 H   0  0  0  0  0  0  0  0  0  0  0  0
    9.3401   -0.8531   22.2212 C   0  0  0  0  0  0  0  0  0  0  0  0
   10.7273   -0.3466   22.4386 C   0  0  0  0  0  0  0  0  0  0  0  0
   11.8327   -1.2134   22.3539 C   0  0  0  0  0  0  0  0  0  0  0  0
   11.6712   -2.2590   22.0961 H   0  0  0  0  0  0  0  0  0  0  0  0
   13.1316   -0.7437   22.5780 C   0  0  0  0  0  0  0  0  0  0  0  0
   13.9753   -1.4350   22.5655 H   0  0  0  0  0  0  0  0  0  0  0  0
   13.3532    0.6117   22.8280 C   0  0  0  0  0  0  0  0  0  0  0  0
   14.3617    0.9549   23.0486 H   0  0  0  0  0  0  0  0  0  0  0  0
   12.2758    1.5155   22.8041 C   0  0  0  0  0  0  0  0  0  0  0  0
   12.5176    3.0180   22.8380 C   0  0  0  0  0  0  0  0  0  0  0  0
   12.4734    3.5906   21.6175 F   0  0  0  0  0  0  0  0  0  0  0  0
   11.5793    3.6413   23.5760 F   0  0  0  0  0  0  0  0  0  0  0  0
   13.7153    3.3301   23.3626 F   0  0  0  0  0  0  0  0  0  0  0  0
   10.9638    1.0212   22.6721 C   0  0  0  0  0  0  0  0  0  0  0  0
   10.1112    1.6936   22.7455 H   0  0  0  0  0  0  0  0  0  0  0  0
    8.7688   -1.9410   22.9612 C   0  0  0  0  0  0  0  0  0  0  0  0
    9.3444   -2.4097   23.7629 H   0  0  0  0  0  0  0  0  0  0  0  0
    7.5150   -2.3829   22.6728 C   0  0  0  0  0  0  0  0  0  0  0  0
    7.0314   -3.2003   23.1887 H   0  0  0  0  0  0  0  0  0  0  0  0
    6.7024   -1.8238   21.5966 C   0  0  0  0  0  0  0  0  0  0  0  0
    5.6086   -2.2679   21.2884 O   0  0  0  0  0  0  0  0  0  0  0  0
    5.4285    0.6347   20.0918 C   0  0  0  0  0  0  0  0  0  0  0  0
    5.0055    0.6015   21.0948 H   0  0  0  0  0  0  0  0  0  0  0  0
    4.8123    1.3281   19.0449 C   0  0  0  0  0  0  0  0  0  0  0  0
    3.8830    1.8637   19.1941 H   0  0  0  0  0  0  0  0  0  0  0  0
  1  2  1  0
  2  3  2  0
  3  4  1  0
  4  5  1  0
  4  6  2  0
  6  7  1  0
  7  8  1  0
  8  9  1  0
  8 10  2  0
 10 11  1  0
 11 12  2  0
 12 13  1  0
 12 14  1  0
 14 15  1  0
 14 16  2  0
 16 17  1  0
 16 18  1  0
 18 19  1  0
 19 20  1  0
 19 21  1  0
 19 22  1  0
 18 23  2  0
 23 24  1  0
 10 25  1  0
 25 26  1  0
 25 27  2  0
 27 28  1  0
 27 29  1  0
 29 30  2  0
  6 31  1  0
 31 32  1  0
 31 33  2  0
 33 34  1  0
 33  2  1  0
 29  7  1  0
 23 11  1  0
M  END
>  <cnnaffinity>  (1) 
-5.30516

>  <filename>  (1) 
O=c1ccc(-c2cccc(C(F)(F)F)c2)cn1-c1cccnc1

$$$$
