
     RDKit          3D

 29 31  0  0  0  0  0  0  0  0999 V2000
    5.6638   -2.3406   21.4914 O   0  0  0  0  0  0  0  0  0  0  0  0
    6.7852   -1.9013   21.6139 C   0  0  0  0  0  0  0  0  0  0  0  0
    7.8186   -2.2623   22.6508 C   0  0  0  0  0  0  0  0  0  0  0  0
    9.0572   -1.6849   22.0294 C   0  0  0  0  0  0  0  0  0  0  0  0
    8.8019   -0.9580   20.9826 N   0  0  0  0  0  0  0  0  0  0  0  0
    7.4420   -0.9990   20.7774 N   0  0  0  0  0  0  0  0  0  0  0  0
    6.8432   -0.1956   19.7700 C   0  0  0  0  0  0  0  0  0  0  0  0
    5.6005    0.4090   20.0099 C   0  0  0  0  0  0  0  0  0  0  0  0
    5.0388    1.1915   18.9959 C   0  0  0  0  0  0  0  0  0  0  0  0
    5.7146    1.3019   17.7743 C   0  0  0  0  0  0  0  0  0  0  0  0
    6.9048    0.7209   17.5393 N   0  0  0  0  0  0  0  0  0  0  0  0
    7.4680    0.0081   18.5236 C   0  0  0  0  0  0  0  0  0  0  0  0
    8.4434   -0.4332   18.3202 H   0  0  0  0  0  0  0  0  0  0  0  0
    5.2936    1.8822   16.9511 H   0  0  0  0  0  0  0  0  0  0  0  0
    4.1108    1.7341   19.1531 H   0  0  0  0  0  0  0  0  0  0  0  0
    5.1055    0.2635   20.9696 H   0  0  0  0  0  0  0  0  0  0  0  0
   10.4657   -1.9304   22.4738 C   0  0  0  0  0  0  0  0  0  0  0  0
   11.2552   -0.6838   22.8683 C   0  0  0  0  0  0  0  0  0  0  0  0
   12.7177   -0.6202   22.5119 C   0  0  0  0  0  0  0  0  0  0  0  0
   11.7280    0.2666   21.8112 C   0  0  0  0  0  0  0  0  0  0  0  0
   11.4436    0.0020   20.7992 H   0  0  0  0  0  0  0  0  0  0  0  0
   11.7301    1.3350   22.0139 H   0  0  0  0  0  0  0  0  0  0  0  0
   13.1316   -1.4325   21.9144 H   0  0  0  0  0  0  0  0  0  0  0  0
   13.4096   -0.1746   23.2251 H   0  0  0  0  0  0  0  0  0  0  0  0
   10.9731   -0.2358   23.8203 H   0  0  0  0  0  0  0  0  0  0  0  0
   10.4843   -2.6410   23.3111 H   0  0  0  0  0  0  0  0  0  0  0  0
   10.9854   -2.4183   21.6363 H   0  0  0  0  0  0  0  0  0  0  0  0
    7.7794   -3.3412   22.8330 H   0  0  0  0  0  0  0  0  0  0  0  0
    7.6149   -1.7744   23.6124 H   0  0  0  0  0  0  0  0  0  0  0  0
  1  2  2  0
  2  3  1  0
  3  4  1  0
  4  5  2  0
  5  6  1  0
  6  7  1  0
  7  8  2  0
  8  9  1  0
  9 10  2  0
 10 11  1  0
 11 12  2  0
 12 13  1  0
 10 14  1  0
  9 15  1  0
  8 16  1  0
  4 17  1  0
 17 18  1  0
 18 19  1  0
 19 20  1  0
 20 21  1  0
 20 22  1  0
 19 23  1  0
 19 24  1  0
 18 25  1  0
 17 26  1  0
 17 27  1  0
  3 28  1  0
  3 29  1  0
  6  2  1  0
 12  7  1  0
 20 18  1  0
M  END
>  <cnnaffinity>  (1) 
-4.54756

>  <filename>  (1) 
O=C1CC(CC2CC2)=NN1c1cccnc1

$$$$
