
     RDKit          3D

 42 45  0  0  0  0  0  0  0  0999 V2000
    4.9892    1.8081   16.9133 H   0  0  0  0  0  0  0  0  0  0  0  0
    5.4378    1.2946   17.7605 C   0  0  0  0  0  0  0  0  0  0  0  0
    6.5766    0.6262   17.5227 N   0  0  0  0  0  0  0  0  0  0  0  0
    7.1452   -0.0176   18.5471 C   0  0  0  0  0  0  0  0  0  0  0  0
    8.0603   -0.5633   18.3236 H   0  0  0  0  0  0  0  0  0  0  0  0
    6.6324    0.0020   19.8499 C   0  0  0  0  0  0  0  0  0  0  0  0
    7.3865   -0.6694   20.9136 C   0  0  0  0  0  0  0  0  0  0  0  0
    8.1551   -1.7065   20.7505 N   0  0  0  0  0  0  0  0  0  0  0  0
    8.5995   -1.9809   22.0206 N   0  0  0  0  0  0  0  0  0  0  0  0
    9.1314   -2.7962   22.2674 H   0  0  0  0  0  0  0  0  0  0  0  0
    8.1330   -1.1572   22.9867 C   0  0  0  0  0  0  0  0  0  0  0  0
    8.3435   -1.1983   24.1881 O   0  0  0  0  0  0  0  0  0  0  0  0
    7.3508   -0.2577   22.2376 N   0  0  0  0  0  0  0  0  0  0  0  0
    6.7542    0.9129   22.6985 N   0  0  0  0  0  0  0  0  0  0  0  0
    6.1364    0.8324   24.0385 C   0  0  0  0  0  0  0  0  0  0  0  0
    5.0957    1.1689   23.9377 H   0  0  0  0  0  0  0  0  0  0  0  0
    6.1283   -0.2103   24.3621 H   0  0  0  0  0  0  0  0  0  0  0  0
    6.8667    1.6751   25.1034 C   0  0  0  0  0  0  0  0  0  0  0  0
    6.2317    1.6863   25.9997 H   0  0  0  0  0  0  0  0  0  0  0  0
    7.8115    1.1668   25.3633 H   0  0  0  0  0  0  0  0  0  0  0  0
    7.0852    3.0561   24.6499 N   0  0  0  0  0  0  0  0  0  0  0  0
    7.1474    4.1138   25.5445 C   0  0  0  0  0  0  0  0  0  0  0  0
    7.5725    3.9223   26.8771 C   0  0  0  0  0  0  0  0  0  0  0  0
    7.8550    2.9239   27.1955 H   0  0  0  0  0  0  0  0  0  0  0  0
    7.6478    5.0052   27.7573 C   0  0  0  0  0  0  0  0  0  0  0  0
    7.9439    4.8529   28.7917 H   0  0  0  0  0  0  0  0  0  0  0  0
    7.3242    6.2925   27.3234 C   0  0  0  0  0  0  0  0  0  0  0  0
    7.3973    7.1257   28.0140 H   0  0  0  0  0  0  0  0  0  0  0  0
    6.9081    6.4956   26.0051 C   0  0  0  0  0  0  0  0  0  0  0  0
    6.6822    7.4978   25.6441 H   0  0  0  0  0  0  0  0  0  0  0  0
    6.8014    5.4181   25.1273 C   0  0  0  0  0  0  0  0  0  0  0  0
    6.4356    5.5702   24.1155 H   0  0  0  0  0  0  0  0  0  0  0  0
    7.0784    3.3054   23.2030 C   0  0  0  0  0  0  0  0  0  0  0  0
    6.0587    3.5293   22.8403 H   0  0  0  0  0  0  0  0  0  0  0  0
    7.7212    4.1676   22.9779 H   0  0  0  0  0  0  0  0  0  0  0  0
    7.6179    2.0875   22.4613 C   0  0  0  0  0  0  0  0  0  0  0  0
    7.6558    2.2861   21.3844 H   0  0  0  0  0  0  0  0  0  0  0  0
    8.6453    1.8895   22.7970 H   0  0  0  0  0  0  0  0  0  0  0  0
    5.4299    0.6897   20.0820 C   0  0  0  0  0  0  0  0  0  0  0  0
    5.0123    0.7361   21.0875 H   0  0  0  0  0  0  0  0  0  0  0  0
    4.8168    1.3318   19.0136 C   0  0  0  0  0  0  0  0  0  0  0  0
    3.8844    1.8680   19.1481 H   0  0  0  0  0  0  0  0  0  0  0  0
  1  2  1  0
  2  3  2  0
  3  4  1  0
  4  5  1  0
  4  6  2  0
  6  7  1  0
  7  8  2  0
  8  9  1  0
  9 10  1  0
  9 11  1  0
 11 12  2  0
 11 13  1  0
 13 14  1  0
 14 15  1  0
 15 16  1  0
 15 17  1  0
 15 18  1  0
 18 19  1  0
 18 20  1  0
 18 21  1  0
 21 22  1  0
 22 23  2  0
 23 24  1  0
 23 25  1  0
 25 26  1  0
 25 27  2  0
 27 28  1  0
 27 29  1  0
 29 30  1  0
 29 31  2  0
 31 32  1  0
 21 33  1  0
 33 34  1  0
 33 35  1  0
 33 36  1  0
 36 37  1  0
 36 38  1  0
  6 39  1  0
 39 40  1  0
 39 41  2  0
 41 42  1  0
 41  2  1  0
 13  7  1  0
 36 14  1  0
 31 22  1  0
M  END
>  <cnnaffinity>  (1) 
-5.11244

>  <filename>  (1) 
O=c1[nH]nc(-c2cccnc2)n1N1CCN(c2ccccc2)CC1

$$$$
