
     RDKit          3D

 34 36  0  0  0  0  0  0  0  0999 V2000
    4.9162    1.7936   16.9841 H   0  0  0  0  0  0  0  0  0  0  0  0
    5.3941    1.3018   17.8279 C   0  0  0  0  0  0  0  0  0  0  0  0
    6.5591    0.6880   17.5653 N   0  0  0  0  0  0  0  0  0  0  0  0
    7.1787    0.0774   18.5814 C   0  0  0  0  0  0  0  0  0  0  0  0
    8.1220   -0.4220   18.3516 H   0  0  0  0  0  0  0  0  0  0  0  0
    6.6570    0.0227   19.8880 C   0  0  0  0  0  0  0  0  0  0  0  0
    7.3519   -0.6755   20.9402 N   0  0  0  0  0  0  0  0  0  0  0  0
    8.6430   -0.2772   21.2785 C   0  0  0  0  0  0  0  0  0  0  0  0
    9.0182    0.5579   20.6899 H   0  0  0  0  0  0  0  0  0  0  0  0
    9.3619   -0.8761   22.2556 C   0  0  0  0  0  0  0  0  0  0  0  0
   10.7479   -0.4649   22.6874 C   0  0  0  0  0  0  0  0  0  0  0  0
   11.4258   -1.3191   22.5051 H   0  0  0  0  0  0  0  0  0  0  0  0
   11.3254    0.7718   21.9788 C   0  0  0  0  0  0  0  0  0  0  0  0
   10.5671    1.5656   21.9385 H   0  0  0  0  0  0  0  0  0  0  0  0
   11.6229    0.5484   20.9501 H   0  0  0  0  0  0  0  0  0  0  0  0
   12.4982    1.2232   22.8566 C   0  0  0  0  0  0  0  0  0  0  0  0
   13.4138    0.6877   22.5731 H   0  0  0  0  0  0  0  0  0  0  0  0
   12.7147    2.2920   22.7352 H   0  0  0  0  0  0  0  0  0  0  0  0
   12.0825    0.8604   24.3053 C   0  0  0  0  0  0  0  0  0  0  0  0
   11.7919    1.7536   24.8705 H   0  0  0  0  0  0  0  0  0  0  0  0
   12.9178    0.4063   24.8494 H   0  0  0  0  0  0  0  0  0  0  0  0
   10.8789   -0.1068   24.1898 C   0  0  0  0  0  0  0  0  0  0  0  0
    9.9577    0.3860   24.5233 H   0  0  0  0  0  0  0  0  0  0  0  0
   10.9725   -1.0097   24.7986 H   0  0  0  0  0  0  0  0  0  0  0  0
    8.7507   -2.0225   22.9594 C   0  0  0  0  0  0  0  0  0  0  0  0
    9.2372   -2.7158   23.8349 O   0  0  0  0  0  0  0  0  0  0  0  0
    7.4819   -2.3345   22.5598 N   0  0  0  0  0  0  0  0  0  0  0  0
    7.0557   -3.1125   23.0135 H   0  0  0  0  0  0  0  0  0  0  0  0
    6.7328   -1.7588   21.5936 C   0  0  0  0  0  0  0  0  0  0  0  0
    5.6376   -2.2109   21.3444 O   0  0  0  0  0  0  0  0  0  0  0  0
    5.4399    0.6560   20.1502 C   0  0  0  0  0  0  0  0  0  0  0  0
    5.0180    0.6104   21.1532 H   0  0  0  0  0  0  0  0  0  0  0  0
    4.8066    1.3193   19.0963 C   0  0  0  0  0  0  0  0  0  0  0  0
    3.8734    1.8439   19.2490 H   0  0  0  0  0  0  0  0  0  0  0  0
  1  2  1  0
  2  3  2  0
  3  4  1  0
  4  5  1  0
  4  6  2  0
  6  7  1  0
  7  8  1  0
  8  9  1  0
  8 10  2  0
 10 11  1  0
 11 12  1  0
 11 13  1  0
 13 14  1  0
 13 15  1  0
 13 16  1  0
 16 17  1  0
 16 18  1  0
 16 19  1  0
 19 20  1  0
 19 21  1  0
 19 22  1  0
 22 23  1  0
 22 24  1  0
 10 25  1  0
 25 26  2  0
 25 27  1  0
 27 28  1  0
 27 29  1  0
 29 30  2  0
  6 31  1  0
 31 32  1  0
 31 33  2  0
 33 34  1  0
 33  2  1  0
 29  7  1  0
 22 11  1  0
M  END
>  <cnnaffinity>  (1) 
-5.40201

>  <filename>  (1) 
O=c1[nH]c(=O)n(-c2cccnc2)cc1C1CCCC1

$$$$
