
     RDKit          3D

 33 35  0  0  0  0  0  0  0  0999 V2000
    5.6105   -7.5902   26.5251 H   0  0  0  0  0  0  0  0  0  0  0  0
    5.7109   -6.5268   26.7242 C   0  0  0  0  0  0  0  0  0  0  0  0
    6.5706   -5.8659   25.9358 N   0  0  0  0  0  0  0  0  0  0  0  0
    6.7010   -4.5413   26.1189 C   0  0  0  0  0  0  0  0  0  0  0  0
    7.6648   -3.7971   25.2050 C   0  0  0  0  0  0  0  0  0  0  0  0
    8.3424   -4.5335   24.7600 H   0  0  0  0  0  0  0  0  0  0  0  0
    8.2332   -3.0792   25.8088 H   0  0  0  0  0  0  0  0  0  0  0  0
    6.9378   -3.0750   24.1764 O   0  0  0  0  0  0  0  0  0  0  0  0
    7.5958   -2.3521   23.2428 C   0  0  0  0  0  0  0  0  0  0  0  0
    6.4185   -1.7107   22.1245 S   0  0  0  0  0  0  0  0  0  0  0  0
    7.3871   -0.7547   21.0083 C   0  0  0  0  0  0  0  0  0  0  0  0
    6.6495   -0.0221   19.9353 C   0  0  0  0  0  0  0  0  0  0  0  0
    7.1714    0.0489   18.6257 C   0  0  0  0  0  0  0  0  0  0  0  0
    8.1127   -0.4304   18.3605 H   0  0  0  0  0  0  0  0  0  0  0  0
    6.5700    0.6658   17.6008 N   0  0  0  0  0  0  0  0  0  0  0  0
    5.4083    1.2876   17.8442 C   0  0  0  0  0  0  0  0  0  0  0  0
    4.9429    1.7835   16.9925 H   0  0  0  0  0  0  0  0  0  0  0  0
    4.8117    1.3089   19.1077 C   0  0  0  0  0  0  0  0  0  0  0  0
    3.8807    1.8427   19.2468 H   0  0  0  0  0  0  0  0  0  0  0  0
    5.4347    0.6483   20.1670 C   0  0  0  0  0  0  0  0  0  0  0  0
    5.0016    0.6531   21.1670 H   0  0  0  0  0  0  0  0  0  0  0  0
    8.7288   -0.6842   21.1098 C   0  0  0  0  0  0  0  0  0  0  0  0
    9.2946   -0.0784   20.4185 H   0  0  0  0  0  0  0  0  0  0  0  0
    9.5664   -1.3391   22.1283 C   0  0  0  0  0  0  0  0  0  0  0  0
   10.7822   -1.1999   22.1154 O   0  0  0  0  0  0  0  0  0  0  0  0
    8.9227   -2.1527   23.1491 C   0  0  0  0  0  0  0  0  0  0  0  0
    9.6188   -2.6004   23.8471 H   0  0  0  0  0  0  0  0  0  0  0  0
    6.0118   -3.8581   27.1327 C   0  0  0  0  0  0  0  0  0  0  0  0
    6.1878   -2.7975   27.2544 H   0  0  0  0  0  0  0  0  0  0  0  0
    5.1187   -4.5499   27.9554 C   0  0  0  0  0  0  0  0  0  0  0  0
    4.5617   -4.0358   28.7413 H   0  0  0  0  0  0  0  0  0  0  0  0
    4.9589   -5.9210   27.7355 C   0  0  0  0  0  0  0  0  0  0  0  0
    4.2752   -6.5232   28.3251 H   0  0  0  0  0  0  0  0  0  0  0  0
  1  2  1  0
  2  3  2  0
  3  4  1  0
  4  5  1  0
  5  6  1  0
  5  7  1  0
  5  8  1  0
  8  9  1  0
  9 10  1  0
 10 11  1  0
 11 12  1  0
 12 13  2  0
 13 14  1  0
 13 15  1  0
 15 16  2  0
 16 17  1  0
 16 18  1  0
 18 19  1  0
 18 20  2  0
 20 21  1  0
 11 22  2  0
 22 23  1  0
 22 24  1  0
 24 25  2  0
 24 26  1  0
 26 27  1  0
  4 28  2  0
 28 29  1  0
 28 30  1  0
 30 31  1  0
 30 32  2  0
 32 33  1  0
 32  2  1  0
 26  9  2  0
 20 12  1  0
M  END
>  <cnnaffinity>  (1) 
-5.21935

>  <filename>  (1) 
O=c1cc(OCc2ccccn2)sc(-c2cccnc2)c1

$$$$
