
     RDKit          3D

 34 36  0  0  0  0  0  0  0  0999 V2000
    4.9542    1.8686   16.9503 H   0  0  0  0  0  0  0  0  0  0  0  0
    5.4205    1.3392   17.7805 C   0  0  0  0  0  0  0  0  0  0  0  0
    6.5853    0.7255   17.5185 N   0  0  0  0  0  0  0  0  0  0  0  0
    7.1795    0.0745   18.5257 C   0  0  0  0  0  0  0  0  0  0  0  0
    8.1260   -0.4115   18.2998 H   0  0  0  0  0  0  0  0  0  0  0  0
    6.6413   -0.0269   19.8233 C   0  0  0  0  0  0  0  0  0  0  0  0
    7.3410   -0.7403   20.8612 N   0  0  0  0  0  0  0  0  0  0  0  0
    8.6048   -0.2830   21.2111 C   0  0  0  0  0  0  0  0  0  0  0  0
    8.9827    0.5708   20.6598 H   0  0  0  0  0  0  0  0  0  0  0  0
    9.3246   -0.8070   22.2446 C   0  0  0  0  0  0  0  0  0  0  0  0
   10.5337   -0.1834   22.6589 N   0  0  0  0  0  0  0  0  0  0  0  0
   10.7571   -0.1250   24.1065 C   0  0  0  0  0  0  0  0  0  0  0  0
    9.8616    0.3210   24.5546 H   0  0  0  0  0  0  0  0  0  0  0  0
   10.8912   -1.1205   24.5681 H   0  0  0  0  0  0  0  0  0  0  0  0
   11.9705    0.7399   24.4776 C   0  0  0  0  0  0  0  0  0  0  0  0
   12.2307    0.5000   25.5105 H   0  0  0  0  0  0  0  0  0  0  0  0
   11.7343    1.8145   24.4102 H   0  0  0  0  0  0  0  0  0  0  0  0
   13.1206    0.4418   23.7044 O   0  0  0  0  0  0  0  0  0  0  0  0
   12.8488    0.5600   22.3143 C   0  0  0  0  0  0  0  0  0  0  0  0
   12.5433    1.5922   22.0601 H   0  0  0  0  0  0  0  0  0  0  0  0
   13.7905    0.3224   21.8082 H   0  0  0  0  0  0  0  0  0  0  0  0
   11.7586   -0.4202   21.8751 C   0  0  0  0  0  0  0  0  0  0  0  0
   11.5499   -0.2630   20.8119 H   0  0  0  0  0  0  0  0  0  0  0  0
   12.1523   -1.4480   21.9610 H   0  0  0  0  0  0  0  0  0  0  0  0
    8.7570   -1.9298   22.9448 C   0  0  0  0  0  0  0  0  0  0  0  0
    9.3291   -2.3829   23.7509 H   0  0  0  0  0  0  0  0  0  0  0  0
    7.5148   -2.3934   22.6359 C   0  0  0  0  0  0  0  0  0  0  0  0
    7.0435   -3.2015   23.1745 H   0  0  0  0  0  0  0  0  0  0  0  0
    6.7028   -1.8262   21.5688 C   0  0  0  0  0  0  0  0  0  0  0  0
    5.6012   -2.2545   21.2701 O   0  0  0  0  0  0  0  0  0  0  0  0
    5.4301    0.6233   20.0879 C   0  0  0  0  0  0  0  0  0  0  0  0
    5.0023    0.5947   21.0908 H   0  0  0  0  0  0  0  0  0  0  0  0
    4.8159    1.3201   19.0420 C   0  0  0  0  0  0  0  0  0  0  0  0
    3.8892    1.8587   19.1963 H   0  0  0  0  0  0  0  0  0  0  0  0
  1  2  1  0
  2  3  2  0
  3  4  1  0
  4  5  1  0
  4  6  2  0
  6  7  1  0
  7  8  1  0
  8  9  1  0
  8 10  2  0
 10 11  1  0
 11 12  1  0
 12 13  1  0
 12 14  1  0
 12 15  1  0
 15 16  1  0
 15 17  1  0
 15 18  1  0
 18 19  1  0
 19 20  1  0
 19 21  1  0
 19 22  1  0
 22 23  1  0
 22 24  1  0
 10 25  1  0
 25 26  1  0
 25 27  2  0
 27 28  1  0
 27 29  1  0
 29 30  2  0
  6 31  1  0
 31 32  1  0
 31 33  2  0
 33 34  1  0
 33  2  1  0
 29  7  1  0
 22 11  1  0
M  END
>  <cnnaffinity>  (1) 
-4.77232

>  <filename>  (1) 
O=c1ccc(N2CCOCC2)cn1-c1cccnc1

$$$$
