
     RDKit          3D

 32 34  0  0  0  0  0  0  0  0999 V2000
    5.0597    1.9033   16.8823 H   0  0  0  0  0  0  0  0  0  0  0  0
    5.4802    1.3470   17.7195 C   0  0  0  0  0  0  0  0  0  0  0  0
    6.6352    0.7042   17.4869 N   0  0  0  0  0  0  0  0  0  0  0  0
    7.1720    0.0100   18.4995 C   0  0  0  0  0  0  0  0  0  0  0  0
    8.1250   -0.4769   18.2807 H   0  0  0  0  0  0  0  0  0  0  0  0
    6.5922   -0.1008   19.7811 C   0  0  0  0  0  0  0  0  0  0  0  0
    7.2710   -0.8134   20.9421 C   0  0  2  0  0  0  0  0  0  0  0  0
    8.0401   -1.4833   20.5357 H   0  0  0  0  0  0  0  0  0  0  0  0
    6.3911   -1.7417   21.8059 C   0  0  0  0  0  0  0  0  0  0  0  0
    5.5653   -2.5637   21.4645 O   0  0  0  0  0  0  0  0  0  0  0  0
    6.7414   -1.5127   23.0977 N   0  0  0  0  0  0  0  0  0  0  0  0
    6.1406   -1.9333   23.7844 H   0  0  0  0  0  0  0  0  0  0  0  0
    7.7066   -0.4669   23.3456 C   0  0  0  0  0  0  0  0  0  0  0  0
    8.6551   -0.8850   23.7210 H   0  0  0  0  0  0  0  0  0  0  0  0
    7.3437    0.2565   24.0910 H   0  0  0  0  0  0  0  0  0  0  0  0
    7.8755    0.1928   21.9620 C   0  0  1  0  0  0  0  0  0  0  0  0
    7.2553    1.0991   21.9520 H   0  0  0  0  0  0  0  0  0  0  0  0
    9.3168    0.6027   21.6077 C   0  0  0  0  0  0  0  0  0  0  0  0
    9.9119   -0.3101   21.4896 H   0  0  0  0  0  0  0  0  0  0  0  0
    9.3097    1.0932   20.6266 H   0  0  0  0  0  0  0  0  0  0  0  0
    9.9904    1.4765   22.6343 C   0  0  0  0  0  0  0  0  0  0  0  0
    9.6399    3.1705   22.7106 S   0  0  0  0  0  0  0  0  0  0  0  0
   10.7461    3.4088   24.0064 C   0  0  0  0  0  0  0  0  0  0  0  0
   10.9012    4.4079   24.3958 H   0  0  0  0  0  0  0  0  0  0  0  0
   11.3287    2.2408   24.3895 C   0  0  0  0  0  0  0  0  0  0  0  0
   12.0602    2.1485   25.1819 H   0  0  0  0  0  0  0  0  0  0  0  0
   10.8777    1.1266   23.6164 C   0  0  0  0  0  0  0  0  0  0  0  0
   11.2298    0.1124   23.7944 H   0  0  0  0  0  0  0  0  0  0  0  0
    5.3866    0.5802   19.9941 C   0  0  0  0  0  0  0  0  0  0  0  0
    4.9169    0.5506   20.9783 H   0  0  0  0  0  0  0  0  0  0  0  0
    4.8172    1.3110   18.9492 C   0  0  0  0  0  0  0  0  0  0  0  0
    3.8926    1.8621   19.0815 H   0  0  0  0  0  0  0  0  0  0  0  0
  1  2  1  0
  2  3  2  0
  3  4  1  0
  4  5  1  0
  4  6  2  0
  6  7  1  0
  7  8  1  6
  7  9  1  0
  9 10  2  0
  9 11  1  0
 11 12  1  0
 11 13  1  0
 13 14  1  0
 13 15  1  0
 13 16  1  0
 16 17  1  1
 16 18  1  0
 18 19  1  0
 18 20  1  0
 18 21  1  0
 21 22  1  0
 22 23  1  0
 23 24  1  0
 23 25  2  0
 25 26  1  0
 25 27  1  0
 27 28  1  0
  6 29  1  0
 29 30  1  0
 29 31  2  0
 31 32  1  0
 31  2  1  0
 16  7  1  0
 27 21  2  0
M  END
>  <cnnaffinity>  (1) 
-5.21478

>  <filename>  (1) 
O=C1NC[C@@H](Cc2cccs2)[C@@H]1c1cccnc1

$$$$
