
     RDKit          3D

 32 34  0  0  0  0  0  0  0  0999 V2000
    9.5745   -2.9014   23.6767 O   0  0  0  0  0  0  0  0  0  0  0  0
    8.9334   -2.2408   22.8599 C   0  0  0  0  0  0  0  0  0  0  0  0
    7.4271   -2.4809   22.7500 C   0  0  0  0  0  0  0  0  0  0  0  0
    6.7109   -1.2638   22.1211 C   0  0  0  0  0  0  0  0  0  0  0  0
    7.4879   -0.6377   20.9882 C   0  0  0  0  0  0  0  0  0  0  0  0
    8.8073   -0.6531   21.0012 N   0  0  0  0  0  0  0  0  0  0  0  0
    9.5208   -1.2995   22.0091 N   0  0  0  0  0  0  0  0  0  0  0  0
   10.8984   -1.0408   22.0996 C   0  0  0  0  0  0  0  0  0  0  0  0
   11.8245   -2.0945   22.2041 C   0  0  0  0  0  0  0  0  0  0  0  0
   13.2000   -1.8342   22.1159 C   0  0  0  0  0  0  0  0  0  0  0  0
   14.0972   -2.8393   21.9711 F   0  0  0  0  0  0  0  0  0  0  0  0
   13.6538   -0.5146   22.1738 C   0  0  0  0  0  0  0  0  0  0  0  0
   12.7378    0.5444   22.1312 C   0  0  0  0  0  0  0  0  0  0  0  0
   11.3684    0.2842   22.0358 C   0  0  0  0  0  0  0  0  0  0  0  0
   10.1557    1.7564   21.8196 Br  0  0  0  0  0  0  0  0  0  0  0  0
   13.0893    1.5727   22.1102 H   0  0  0  0  0  0  0  0  0  0  0  0
   14.7202   -0.3242   22.2313 H   0  0  0  0  0  0  0  0  0  0  0  0
   11.4599   -3.1136   22.2897 H   0  0  0  0  0  0  0  0  0  0  0  0
    6.7552    0.0366   19.9120 C   0  0  0  0  0  0  0  0  0  0  0  0
    5.5075    0.6238   20.1464 C   0  0  0  0  0  0  0  0  0  0  0  0
    4.8774    1.2544   19.0777 C   0  0  0  0  0  0  0  0  0  0  0  0
    5.4803    1.2738   17.8169 C   0  0  0  0  0  0  0  0  0  0  0  0
    6.6668    0.6859   17.5847 N   0  0  0  0  0  0  0  0  0  0  0  0
    7.2897    0.0894   18.6166 C   0  0  0  0  0  0  0  0  0  0  0  0
    8.2368   -0.3984   18.4156 H   0  0  0  0  0  0  0  0  0  0  0  0
    4.9687    1.7795   17.0027 H   0  0  0  0  0  0  0  0  0  0  0  0
    3.9235    1.7459   19.2151 H   0  0  0  0  0  0  0  0  0  0  0  0
    5.0445    0.6075   21.1344 H   0  0  0  0  0  0  0  0  0  0  0  0
    5.7278   -1.5677   21.7494 H   0  0  0  0  0  0  0  0  0  0  0  0
    6.5645   -0.4906   22.8818 H   0  0  0  0  0  0  0  0  0  0  0  0
    7.2821   -3.3673   22.1282 H   0  0  0  0  0  0  0  0  0  0  0  0
    7.0005   -2.6834   23.7391 H   0  0  0  0  0  0  0  0  0  0  0  0
  1  2  2  0
  2  3  1  0
  3  4  1  0
  4  5  1  0
  5  6  2  0
  6  7  1  0
  7  8  1  0
  8  9  2  0
  9 10  1  0
 10 11  1  0
 10 12  2  0
 12 13  1  0
 13 14  2  0
 14 15  1  0
 13 16  1  0
 12 17  1  0
  9 18  1  0
  5 19  1  0
 19 20  2  0
 20 21  1  0
 21 22  2  0
 22 23  1  0
 23 24  2  0
 24 25  1  0
 22 26  1  0
 21 27  1  0
 20 28  1  0
  4 29  1  0
  4 30  1  0
  3 31  1  0
  3 32  1  0
  7  2  1  0
 14  8  1  0
 24 19  1  0
M  END
>  <cnnaffinity>  (1) 
-6.04589

>  <filename>  (1) 
O=C1CCC(c2cccnc2)=NN1c1cc(F)ccc1Br

$$$$
