
     RDKit          3D

 33 35  0  0  0  0  0  0  0  0999 V2000
    4.9050    1.8201   16.9725 H   0  0  0  0  0  0  0  0  0  0  0  0
    5.3814    1.3239   17.8180 C   0  0  0  0  0  0  0  0  0  0  0  0
    6.5491    0.7146   17.5595 N   0  0  0  0  0  0  0  0  0  0  0  0
    7.1667    0.1074   18.5801 C   0  0  0  0  0  0  0  0  0  0  0  0
    8.1182   -0.3621   18.3449 H   0  0  0  0  0  0  0  0  0  0  0  0
    6.6516    0.0406   19.8874 C   0  0  0  0  0  0  0  0  0  0  0  0
    7.3758   -0.7138   20.9922 C   0  0  1  0  0  0  0  0  0  0  0  0
    6.9368   -0.4386   21.9644 H   0  0  0  0  0  0  0  0  0  0  0  0
    7.3474   -2.2628   20.8895 C   0  0  0  0  0  0  0  0  0  0  0  0
    6.4317   -3.0107   20.6730 O   0  0  0  0  0  0  0  0  0  0  0  0
    8.6470   -2.6636   21.0739 N   0  0  0  0  0  0  0  0  0  0  0  0
    8.9661   -3.5277   20.6872 H   0  0  0  0  0  0  0  0  0  0  0  0
    9.5351   -1.6086   21.1054 C   0  0  0  0  0  0  0  0  0  0  0  0
   10.7325   -1.7309   21.2237 O   0  0  0  0  0  0  0  0  0  0  0  0
    8.8141   -0.4503   20.9801 N   0  0  0  0  0  0  0  0  0  0  0  0
    9.3702    0.8261   21.4162 C   0  0  0  0  0  0  0  0  0  0  0  0
    8.8126    1.6392   20.9388 H   0  0  0  0  0  0  0  0  0  0  0  0
   10.4016    0.8815   21.0524 H   0  0  0  0  0  0  0  0  0  0  0  0
    9.3581    0.9574   22.9297 C   0  0  0  0  0  0  0  0  0  0  0  0
   10.3617    0.3172   23.6861 C   0  0  0  0  0  0  0  0  0  0  0  0
   11.1314   -0.2405   23.1566 H   0  0  0  0  0  0  0  0  0  0  0  0
   10.3586    0.3513   25.0826 C   0  0  0  0  0  0  0  0  0  0  0  0
   11.1458   -0.1472   25.6447 H   0  0  0  0  0  0  0  0  0  0  0  0
    9.3359    1.0272   25.7564 C   0  0  0  0  0  0  0  0  0  0  0  0
    9.3012    1.0330   26.8419 H   0  0  0  0  0  0  0  0  0  0  0  0
    8.3310    1.6744   25.0361 C   0  0  0  0  0  0  0  0  0  0  0  0
    7.5328    2.2163   25.5345 H   0  0  0  0  0  0  0  0  0  0  0  0
    8.3480    1.6318   23.6372 C   0  0  0  0  0  0  0  0  0  0  0  0
    7.0490    2.4495   22.8006 Cl  0  0  0  0  0  0  0  0  0  0  0  0
    5.4295    0.6806   20.1353 C   0  0  0  0  0  0  0  0  0  0  0  0
    4.9996    0.6793   21.1397 H   0  0  0  0  0  0  0  0  0  0  0  0
    4.7800    1.3352   19.0815 C   0  0  0  0  0  0  0  0  0  0  0  0
    3.8366    1.8584   19.2242 H   0  0  0  0  0  0  0  0  0  0  0  0
  1  2  1  0
  2  3  2  0
  3  4  1  0
  4  5  1  0
  4  6  2  0
  6  7  1  0
  7  8  1  1
  7  9  1  0
  9 10  2  0
  9 11  1  0
 11 12  1  0
 11 13  1  0
 13 14  2  0
 13 15  1  0
 15 16  1  0
 16 17  1  0
 16 18  1  0
 16 19  1  0
 19 20  2  0
 20 21  1  0
 20 22  1  0
 22 23  1  0
 22 24  2  0
 24 25  1  0
 24 26  1  0
 26 27  1  0
 26 28  2  0
 28 29  1  0
  6 30  1  0
 30 31  1  0
 30 32  2  0
 32 33  1  0
 32  2  1  0
 15  7  1  0
 28 19  1  0
M  END
>  <cnnaffinity>  (1) 
-5.23931

>  <filename>  (1) 
O=C1NC(=O)N(Cc2ccccc2Cl)[C@H]1c1cccnc1

$$$$
