
     RDKit          3D

 40 43  0  0  0  0  0  0  0  0999 V2000
    5.2750    1.9107   16.7539 H   0  0  0  0  0  0  0  0  0  0  0  0
    5.5695    1.3588   17.6450 C   0  0  0  0  0  0  0  0  0  0  0  0
    6.5388    0.4464   17.4805 N   0  0  0  0  0  0  0  0  0  0  0  0
    6.9154   -0.2502   18.5579 C   0  0  0  0  0  0  0  0  0  0  0  0
    7.6823   -1.0092   18.3836 H   0  0  0  0  0  0  0  0  0  0  0  0
    6.3913   -0.0576   19.8576 C   0  0  0  0  0  0  0  0  0  0  0  0
    6.9729   -0.7906   21.0029 C   0  0  0  0  0  0  0  0  0  0  0  0
    7.0524   -0.1240   22.1457 N   0  0  0  0  0  0  0  0  0  0  0  0
    7.8344   -0.7144   23.1392 N   0  0  0  0  0  0  0  0  0  0  0  0
    7.9367   -0.0459   24.3775 C   0  0  0  0  0  0  0  0  0  0  0  0
    9.0891   -0.1707   25.1809 C   0  0  0  0  0  0  0  0  0  0  0  0
    9.9394   -0.7657   24.8664 H   0  0  0  0  0  0  0  0  0  0  0  0
    9.1663    0.5160   26.3914 C   0  0  0  0  0  0  0  0  0  0  0  0
   10.0575    0.3644   26.9941 H   0  0  0  0  0  0  0  0  0  0  0  0
    8.1178    1.3377   26.8143 C   0  0  0  0  0  0  0  0  0  0  0  0
    8.1803    1.8755   27.7577 H   0  0  0  0  0  0  0  0  0  0  0  0
    6.9612    1.4824   26.0239 C   0  0  0  0  0  0  0  0  0  0  0  0
    5.8417    2.3753   26.4687 C   0  0  0  0  0  0  0  0  0  0  0  0
    5.2016    3.2395   25.5609 C   0  0  0  0  0  0  0  0  0  0  0  0
    5.5705    3.2878   24.5390 H   0  0  0  0  0  0  0  0  0  0  0  0
    4.1243    4.0355   25.9602 C   0  0  0  0  0  0  0  0  0  0  0  0
    3.6434    4.6895   25.2382 H   0  0  0  0  0  0  0  0  0  0  0  0
    3.6660    3.9858   27.2811 C   0  0  0  0  0  0  0  0  0  0  0  0
    2.8109    4.5826   27.5882 H   0  0  0  0  0  0  0  0  0  0  0  0
    4.3112    3.1558   28.2052 C   0  0  0  0  0  0  0  0  0  0  0  0
    3.9834    3.1263   29.2419 H   0  0  0  0  0  0  0  0  0  0  0  0
    5.3947    2.3675   27.8030 C   0  0  0  0  0  0  0  0  0  0  0  0
    5.8982    1.7224   28.5212 H   0  0  0  0  0  0  0  0  0  0  0  0
    6.8805    0.7710   24.8138 C   0  0  0  0  0  0  0  0  0  0  0  0
    5.9865    0.8283   24.2042 H   0  0  0  0  0  0  0  0  0  0  0  0
    8.6113   -1.8166   22.7945 C   0  0  0  0  0  0  0  0  0  0  0  0
    9.3114   -2.2001   23.5241 H   0  0  0  0  0  0  0  0  0  0  0  0
    8.5347   -2.4378   21.5775 C   0  0  0  0  0  0  0  0  0  0  0  0
    9.0789   -3.3489   21.3319 H   0  0  0  0  0  0  0  0  0  0  0  0
    7.2340   -2.2981   20.7017 C   0  0  0  0  0  0  0  0  0  0  0  0
    7.2702   -2.2494   20.7122 O   0  0  0  0  0  0  0  0  0  0  0  0
    5.3666    0.9032   20.0003 C   0  0  0  0  0  0  0  0  0  0  0  0
    4.9147    1.0769   20.9786 H   0  0  0  0  0  0  0  0  0  0  0  0
    4.9508    1.6106   18.8747 C   0  0  0  0  0  0  0  0  0  0  0  0
    4.1687    2.3612   18.9304 H   0  0  0  0  0  0  0  0  0  0  0  0
  1  2  1  0
  2  3  2  0
  3  4  1  0
  4  5  1  0
  4  6  2  0
  6  7  1  0
  7  8  2  0
  8  9  1  0
  9 10  1  0
 10 11  2  0
 11 12  1  0
 11 13  1  0
 13 14  1  0
 13 15  2  0
 15 16  1  0
 15 17  1  0
 17 18  1  0
 18 19  2  0
 19 20  1  0
 19 21  1  0
 21 22  1  0
 21 23  2  0
 23 24  1  0
 23 25  1  0
 25 26  1  0
 25 27  2  0
 27 28  1  0
 17 29  2  0
 29 30  1  0
  9 31  1  0
 31 32  1  0
 31 33  2  0
 33 34  1  0
 33 35  1  0
 35 36  2  0
  6 37  1  0
 37 38  1  0
 37 39  2  0
 39 40  1  0
 39  2  1  0
 35  7  1  0
 29 10  1  0
 27 18  1  0
M  END
>  <cnnaffinity>  (1) 
-5.06288

>  <filename>  (1) 
O=c1ccn(-c2cccc(-c3ccccc3)c2)nc1-c1cccnc1

$$$$
