
     RDKit          3D

 29 31  0  0  0  0  0  0  0  0999 V2000
    4.9186    1.7965   16.9753 H   0  0  0  0  0  0  0  0  0  0  0  0
    5.3931    1.3014   17.8199 C   0  0  0  0  0  0  0  0  0  0  0  0
    6.5573    0.6853   17.5593 N   0  0  0  0  0  0  0  0  0  0  0  0
    7.1713    0.0749   18.5805 C   0  0  0  0  0  0  0  0  0  0  0  0
    8.1086   -0.4223   18.3342 H   0  0  0  0  0  0  0  0  0  0  0  0
    6.6644    0.0240   19.8928 C   0  0  0  0  0  0  0  0  0  0  0  0
    7.3401   -0.7007   20.9737 C   0  0  0  0  0  0  0  0  0  0  0  0
    6.8173   -1.2432   22.0894 C   0  0  0  0  0  0  0  0  0  0  0  0
    5.7967   -1.2928   22.3927 H   0  0  0  0  0  0  0  0  0  0  0  0
    7.8292   -1.8231   22.8392 N   0  0  0  0  0  0  0  0  0  0  0  0
    7.6622   -2.5110   24.0678 C   0  0  0  0  0  0  0  0  0  0  0  0
    8.1945   -3.8022   24.1912 C   0  0  0  0  0  0  0  0  0  0  0  0
    8.7446   -4.2005   23.3463 H   0  0  0  0  0  0  0  0  0  0  0  0
    8.0492   -4.5320   25.3675 C   0  0  0  0  0  0  0  0  0  0  0  0
    8.4741   -5.5222   25.4693 H   0  0  0  0  0  0  0  0  0  0  0  0
    7.3625   -3.9630   26.4397 C   0  0  0  0  0  0  0  0  0  0  0  0
    7.1865   -4.8599   27.9146 Cl  0  0  0  0  0  0  0  0  0  0  0  0
    6.8221   -2.6828   26.3505 C   0  0  0  0  0  0  0  0  0  0  0  0
    6.2868   -2.2518   27.1889 H   0  0  0  0  0  0  0  0  0  0  0  0
    6.9714   -1.9556   25.1671 C   0  0  0  0  0  0  0  0  0  0  0  0
    6.2985   -0.3529   25.1435 Cl  0  0  0  0  0  0  0  0  0  0  0  0
    9.0424   -1.6571   22.1599 C   0  0  0  0  0  0  0  0  0  0  0  0
   10.1635   -2.0077   22.4527 O   0  0  0  0  0  0  0  0  0  0  0  0
    8.6938   -0.9766   21.0201 N   0  0  0  0  0  0  0  0  0  0  0  0
    9.4276   -0.6978   20.3995 H   0  0  0  0  0  0  0  0  0  0  0  0
    5.4362    0.6640   20.1381 C   0  0  0  0  0  0  0  0  0  0  0  0
    5.0102    0.6554   21.1459 H   0  0  0  0  0  0  0  0  0  0  0  0
    4.7982    1.3199   19.0865 C   0  0  0  0  0  0  0  0  0  0  0  0
    3.8654    1.8500   19.2384 H   0  0  0  0  0  0  0  0  0  0  0  0
  1  2  1  0
  2  3  2  0
  3  4  1  0
  4  5  1  0
  4  6  2  0
  6  7  1  0
  7  8  2  0
  8  9  1  0
  8 10  1  0
 10 11  1  0
 11 12  2  0
 12 13  1  0
 12 14  1  0
 14 15  1  0
 14 16  2  0
 16 17  1  0
 16 18  1  0
 18 19  1  0
 18 20  2  0
 20 21  1  0
 10 22  1  0
 22 23  2  0
 22 24  1  0
 24 25  1  0
  6 26  1  0
 26 27  1  0
 26 28  2  0
 28 29  1  0
 28  2  1  0
 24  7  1  0
 20 11  1  0
M  END
>  <cnnaffinity>  (1) 
-5.67486

>  <filename>  (1) 
O=c1[nH]c(-c2cccnc2)cn1-c1ccc(Cl)cc1Cl

$$$$
