
     RDKit          3D

 28 30  0  0  0  0  0  0  0  0999 V2000
    9.6115   -4.2180   26.1472 H   0  0  0  0  0  0  0  0  0  0  0  0
    8.6699   -3.9522   25.6680 C   0  0  0  0  0  0  0  0  0  0  0  0
    8.7806   -3.1738   24.5891 N   0  0  0  0  0  0  0  0  0  0  0  0
    7.6434   -2.8122   23.9573 C   0  0  0  0  0  0  0  0  0  0  0  0
    7.7460   -1.9471   22.7525 C   0  0  0  0  0  0  0  0  0  0  0  0
    6.7762   -1.4537   21.9398 C   0  0  0  0  0  0  0  0  0  0  0  0
    5.7044   -1.5857   21.9535 H   0  0  0  0  0  0  0  0  0  0  0  0
    7.3622   -0.6769   20.9478 N   0  0  0  0  0  0  0  0  0  0  0  0
    6.6650    0.0001   19.9064 C   0  0  0  0  0  0  0  0  0  0  0  0
    7.1730    0.0514   18.5903 C   0  0  0  0  0  0  0  0  0  0  0  0
    8.1267   -0.4203   18.3698 H   0  0  0  0  0  0  0  0  0  0  0  0
    6.5546    0.6669   17.5774 N   0  0  0  0  0  0  0  0  0  0  0  0
    5.3960    1.2915   17.8395 C   0  0  0  0  0  0  0  0  0  0  0  0
    4.9199    1.7874   16.9956 H   0  0  0  0  0  0  0  0  0  0  0  0
    4.8122    1.3066   19.1102 C   0  0  0  0  0  0  0  0  0  0  0  0
    3.8814    1.8382   19.2616 H   0  0  0  0  0  0  0  0  0  0  0  0
    5.4471    0.6418   20.1638 C   0  0  0  0  0  0  0  0  0  0  0  0
    5.0258    0.6346   21.1706 H   0  0  0  0  0  0  0  0  0  0  0  0
    8.7596   -0.6676   21.1296 C   0  0  0  0  0  0  0  0  0  0  0  0
    9.6209   -0.1086   20.4847 O   0  0  0  0  0  0  0  0  0  0  0  0
    8.9462   -1.4565   22.2263 N   0  0  0  0  0  0  0  0  0  0  0  0
    9.8801   -1.6017   22.5644 H   0  0  0  0  0  0  0  0  0  0  0  0
    6.3750   -3.2285   24.3970 C   0  0  0  0  0  0  0  0  0  0  0  0
    5.4974   -2.9026   23.8540 H   0  0  0  0  0  0  0  0  0  0  0  0
    6.2678   -4.0428   25.5231 C   0  0  0  0  0  0  0  0  0  0  0  0
    5.2895   -4.3748   25.8796 H   0  0  0  0  0  0  0  0  0  0  0  0
    7.4468   -4.4127   26.1737 C   0  0  0  0  0  0  0  0  0  0  0  0
    7.4367   -5.0434   27.0534 H   0  0  0  0  0  0  0  0  0  0  0  0
  1  2  1  0
  2  3  2  0
  3  4  1  0
  4  5  1  0
  5  6  2  0
  6  7  1  0
  6  8  1  0
  8  9  1  0
  9 10  2  0
 10 11  1  0
 10 12  1  0
 12 13  2  0
 13 14  1  0
 13 15  1  0
 15 16  1  0
 15 17  2  0
 17 18  1  0
  8 19  1  0
 19 20  2  0
 19 21  1  0
 21 22  1  0
  4 23  2  0
 23 24  1  0
 23 25  1  0
 25 26  1  0
 25 27  2  0
 27 28  1  0
 27  2  1  0
 21  5  1  0
 17  9  1  0
M  END
>  <cnnaffinity>  (1) 
-5.15613

>  <filename>  (1) 
O=c1[nH]c(-c2ccccn2)cn1-c1cccnc1

$$$$
