
     RDKit          3D

 41 45  0  0  0  0  0  0  0  0999 V2000
   13.4725    1.5131   24.0787 O   0  0  0  0  0  0  0  0  0  0  0  0
   12.5258    1.3324   23.3325 C   0  0  0  0  0  0  0  0  0  0  0  0
   11.3540    2.1788   23.1690 C   0  0  0  0  0  0  0  0  0  0  0  0
   10.3708    1.8324   22.2863 C   0  0  0  0  0  0  0  0  0  0  0  0
   10.4747    0.6375   21.4939 C   0  0  0  0  0  0  0  0  0  0  0  0
    9.3357    0.2221   20.5961 C   0  0  0  0  0  0  0  0  0  0  0  0
    8.2533   -0.5621   21.2774 C   0  0  0  0  0  0  0  0  0  0  0  0
    8.4369   -1.3830   22.2847 N   0  0  0  0  0  0  0  0  0  0  0  0
    7.2295   -1.9846   22.4286 C   0  0  0  0  0  0  0  0  0  0  0  0
    7.1248   -3.0355   23.4564 C   0  0  0  0  0  0  0  0  0  0  0  0
    5.8608   -3.7443   23.9091 C   0  0  0  0  0  0  0  0  0  0  0  0
    6.9059   -4.4789   23.1041 C   0  0  0  0  0  0  0  0  0  0  0  0
    7.8537   -5.6226   23.0882 C   0  0  0  0  0  0  0  0  0  0  0  0
    7.0456   -5.2391   21.8419 C   0  0  0  0  0  0  0  0  0  0  0  0
    6.2293   -5.9051   21.5595 H   0  0  0  0  0  0  0  0  0  0  0  0
    7.5440   -4.6954   21.0387 H   0  0  0  0  0  0  0  0  0  0  0  0
    8.9186   -5.3766   23.1104 H   0  0  0  0  0  0  0  0  0  0  0  0
    7.5973   -6.5397   23.6073 H   0  0  0  0  0  0  0  0  0  0  0  0
    5.8017   -3.9998   24.9685 H   0  0  0  0  0  0  0  0  0  0  0  0
    4.9178   -3.5068   23.4166 H   0  0  0  0  0  0  0  0  0  0  0  0
    7.8983   -2.9039   24.2095 H   0  0  0  0  0  0  0  0  0  0  0  0
    6.2996   -1.5718   21.5852 N   0  0  0  0  0  0  0  0  0  0  0  0
    6.9605   -0.6522   20.8289 N   0  0  0  0  0  0  0  0  0  0  0  0
    6.3370    0.0307   19.7380 C   0  0  0  0  0  0  0  0  0  0  0  0
    5.1771    0.7988   19.9003 C   0  0  0  0  0  0  0  0  0  0  0  0
    4.6921    1.4989   18.7886 C   0  0  0  0  0  0  0  0  0  0  0  0
    5.3566    1.3919   17.5628 C   0  0  0  0  0  0  0  0  0  0  0  0
    6.4435    0.6263   17.3912 N   0  0  0  0  0  0  0  0  0  0  0  0
    6.9116   -0.0343   18.4544 C   0  0  0  0  0  0  0  0  0  0  0  0
    7.8000   -0.6434   18.2926 H   0  0  0  0  0  0  0  0  0  0  0  0
    5.0077    1.9293   16.6839 H   0  0  0  0  0  0  0  0  0  0  0  0
    3.8079    2.1199   18.8525 H   0  0  0  0  0  0  0  0  0  0  0  0
    4.6684    0.8263   20.8633 H   0  0  0  0  0  0  0  0  0  0  0  0
    8.8906    1.1075   20.1423 H   0  0  0  0  0  0  0  0  0  0  0  0
    9.7114   -0.4190   19.7861 H   0  0  0  0  0  0  0  0  0  0  0  0
   11.5639   -0.1663   21.6534 C   0  0  0  0  0  0  0  0  0  0  0  0
   12.5391    0.1839   22.5461 N   0  0  0  0  0  0  0  0  0  0  0  0
   13.3947   -0.3199   22.7333 H   0  0  0  0  0  0  0  0  0  0  0  0
   11.6882   -1.1018   21.1076 H   0  0  0  0  0  0  0  0  0  0  0  0
    9.4816    2.4551   22.1826 H   0  0  0  0  0  0  0  0  0  0  0  0
   11.3353    3.0684   23.7827 H   0  0  0  0  0  0  0  0  0  0  0  0
  1  2  2  0
  2  3  1  0
  3  4  2  0
  4  5  1  0
  5  6  1  0
  6  7  1  0
  7  8  2  0
  8  9  1  0
  9 10  1  0
 10 11  1  0
 11 12  1  0
 12 13  1  0
 13 14  1  0
 14 15  1  0
 14 16  1  0
 13 17  1  0
 13 18  1  0
 11 19  1  0
 11 20  1  0
 10 21  1  0
  9 22  2  0
 22 23  1  0
 23 24  1  0
 24 25  2  0
 25 26  1  0
 26 27  2  0
 27 28  1  0
 28 29  2  0
 29 30  1  0
 27 31  1  0
 26 32  1  0
 25 33  1  0
  6 34  1  0
  6 35  1  0
  5 36  2  0
 36 37  1  0
 37 38  1  0
 36 39  1  0
  4 40  1  0
  3 41  1  0
 37  2  1  0
 23  7  1  0
 29 24  1  0
 12 10  1  0
 14 12  1  0
M  END
>  <cnnaffinity>  (1) 
-6.30711

>  <filename>  (1) 
O=c1ccc(Cc2nc(C3CC34CC4)nn2-c2cccnc2)c[nH]1

$$$$
