
     RDKit          3D

 34 37  0  0  0  0  0  0  0  0999 V2000
   10.0447   -1.4698   22.8414 H   0  0  0  0  0  0  0  0  0  0  0  0
    9.0615   -1.3195   22.4124 C   0  0  0  0  0  0  0  0  0  0  0  0
    7.8931   -1.7627   22.9287 C   0  0  0  0  0  0  0  0  0  0  0  0
    7.6699   -2.4135   24.2372 C   0  0  0  0  0  0  0  0  0  0  0  0
    6.6270   -2.0380   25.1027 C   0  0  0  0  0  0  0  0  0  0  0  0
    5.9371   -1.2582   24.7952 H   0  0  0  0  0  0  0  0  0  0  0  0
    6.4543   -2.6458   26.3670 C   0  0  0  0  0  0  0  0  0  0  0  0
    5.6449   -2.3168   27.0163 H   0  0  0  0  0  0  0  0  0  0  0  0
    7.3013   -3.6599   26.7991 C   0  0  0  0  0  0  0  0  0  0  0  0
    7.1633   -4.1342   27.7682 H   0  0  0  0  0  0  0  0  0  0  0  0
    8.3319   -4.0596   25.9371 C   0  0  0  0  0  0  0  0  0  0  0  0
    8.5370   -3.4572   24.6709 C   0  0  0  0  0  0  0  0  0  0  0  0
    9.6399   -4.1558   24.0687 C   0  0  0  0  0  0  0  0  0  0  0  0
   10.0219   -3.9553   23.0774 H   0  0  0  0  0  0  0  0  0  0  0  0
   10.0616   -5.1015   24.9577 C   0  0  0  0  0  0  0  0  0  0  0  0
   10.8626   -5.8232   24.8842 H   0  0  0  0  0  0  0  0  0  0  0  0
    9.2769   -5.0447   26.0885 N   0  0  0  0  0  0  0  0  0  0  0  0
    9.3613   -5.6426   26.8979 H   0  0  0  0  0  0  0  0  0  0  0  0
    6.8260   -1.5010   21.9176 C   0  0  0  0  0  0  0  0  0  0  0  0
    5.7270   -2.0002   21.8075 O   0  0  0  0  0  0  0  0  0  0  0  0
    7.4169   -0.6412   20.9627 N   0  0  0  0  0  0  0  0  0  0  0  0
    6.7096    0.0124   19.9203 C   0  0  0  0  0  0  0  0  0  0  0  0
    7.2067    0.0634   18.5950 C   0  0  0  0  0  0  0  0  0  0  0  0
    8.1483   -0.4257   18.3496 H   0  0  0  0  0  0  0  0  0  0  0  0
    6.5755    0.6654   17.5806 N   0  0  0  0  0  0  0  0  0  0  0  0
    5.4132    1.2800   17.8451 C   0  0  0  0  0  0  0  0  0  0  0  0
    4.9352    1.7830   17.0091 H   0  0  0  0  0  0  0  0  0  0  0  0
    4.8293    1.2915   19.1160 C   0  0  0  0  0  0  0  0  0  0  0  0
    3.8935    1.8203   19.2682 H   0  0  0  0  0  0  0  0  0  0  0  0
    5.4736    0.6355   20.1697 C   0  0  0  0  0  0  0  0  0  0  0  0
    5.0326    0.5950   21.1626 H   0  0  0  0  0  0  0  0  0  0  0  0
    8.8723   -0.6489   21.0945 C   0  0  0  0  0  0  0  0  0  0  0  0
    9.3543   -1.2219   20.2803 H   0  0  0  0  0  0  0  0  0  0  0  0
    9.3246    0.3557   21.0645 H   0  0  0  0  0  0  0  0  0  0  0  0
  1  2  1  0
  2  3  2  0
  3  4  1  0
  4  5  2  0
  5  6  1  0
  5  7  1  0
  7  8  1  0
  7  9  2  0
  9 10  1  0
  9 11  1  0
 11 12  2  0
 12 13  1  0
 13 14  1  0
 13 15  2  0
 15 16  1  0
 15 17  1  0
 17 18  1  0
  3 19  1  0
 19 20  2  0
 19 21  1  0
 21 22  1  0
 22 23  2  0
 23 24  1  0
 23 25  1  0
 25 26  2  0
 26 27  1  0
 26 28  1  0
 28 29  1  0
 28 30  2  0
 30 31  1  0
 21 32  1  0
 32 33  1  0
 32 34  1  0
 32  2  1  0
 12  4  1  0
 30 22  1  0
 17 11  1  0
M  END
>  <cnnaffinity>  (1) 
-5.28747

>  <filename>  (1) 
O=C1C(c2cccc3[nH]ccc23)=CCN1c1cccnc1

$$$$
