
     RDKit          3D

 31 33  0  0  0  0  0  0  0  0999 V2000
    4.9312    1.8233   16.9675 H   0  0  0  0  0  0  0  0  0  0  0  0
    5.4096    1.3295   17.8092 C   0  0  0  0  0  0  0  0  0  0  0  0
    6.5745    0.7156   17.5463 N   0  0  0  0  0  0  0  0  0  0  0  0
    7.1812    0.0682   18.5499 C   0  0  0  0  0  0  0  0  0  0  0  0
    8.1327   -0.4089   18.3172 H   0  0  0  0  0  0  0  0  0  0  0  0
    6.6469   -0.0201   19.8518 C   0  0  0  0  0  0  0  0  0  0  0  0
    7.3322   -0.7289   20.9138 N   0  0  0  0  0  0  0  0  0  0  0  0
    8.5945   -0.3013   21.2765 C   0  0  0  0  0  0  0  0  0  0  0  0
    8.9801    0.5433   20.7111 H   0  0  0  0  0  0  0  0  0  0  0  0
    9.3258   -0.8800   22.2761 C   0  0  0  0  0  0  0  0  0  0  0  0
   10.7074   -0.3973   22.5874 C   0  0  0  0  0  0  0  0  0  0  0  0
   11.7937   -1.2819   22.4190 C   0  0  0  0  0  0  0  0  0  0  0  0
   11.5885   -2.3073   22.1182 H   0  0  0  0  0  0  0  0  0  0  0  0
   13.1120   -0.8693   22.6145 C   0  0  0  0  0  0  0  0  0  0  0  0
   13.9343   -1.5490   22.3931 H   0  0  0  0  0  0  0  0  0  0  0  0
   13.3689    0.4175   23.0889 C   0  0  0  0  0  0  0  0  0  0  0  0
   14.3701    0.7403   23.3599 H   0  0  0  0  0  0  0  0  0  0  0  0
   12.3175    1.3308   23.2285 C   0  0  0  0  0  0  0  0  0  0  0  0
   12.7222    2.9664   23.6382 Cl  0  0  0  0  0  0  0  0  0  0  0  0
   10.9879    0.9324   22.9955 C   0  0  0  0  0  0  0  0  0  0  0  0
    9.7013    2.0735   23.2602 Cl  0  0  0  0  0  0  0  0  0  0  0  0
    8.7386   -1.9899   22.9714 C   0  0  0  0  0  0  0  0  0  0  0  0
    9.3080   -2.4826   23.7622 H   0  0  0  0  0  0  0  0  0  0  0  0
    7.4849   -2.4167   22.6604 C   0  0  0  0  0  0  0  0  0  0  0  0
    6.9735   -3.2305   23.1581 H   0  0  0  0  0  0  0  0  0  0  0  0
    6.6866   -1.8226   21.5967 C   0  0  0  0  0  0  0  0  0  0  0  0
    5.5824   -2.2312   21.2813 O   0  0  0  0  0  0  0  0  0  0  0  0
    5.4405    0.6453   20.1132 C   0  0  0  0  0  0  0  0  0  0  0  0
    5.0260    0.6136   21.1179 H   0  0  0  0  0  0  0  0  0  0  0  0
    4.8063    1.3339   19.0713 C   0  0  0  0  0  0  0  0  0  0  0  0
    3.8618    1.8570   19.2177 H   0  0  0  0  0  0  0  0  0  0  0  0
  1  2  1  0
  2  3  2  0
  3  4  1  0
  4  5  1  0
  4  6  2  0
  6  7  1  0
  7  8  1  0
  8  9  1  0
  8 10  2  0
 10 11  1  0
 11 12  2  0
 12 13  1  0
 12 14  1  0
 14 15  1  0
 14 16  2  0
 16 17  1  0
 16 18  1  0
 18 19  1  0
 18 20  2  0
 20 21  1  0
 10 22  1  0
 22 23  1  0
 22 24  2  0
 24 25  1  0
 24 26  1  0
 26 27  2  0
  6 28  1  0
 28 29  1  0
 28 30  2  0
 30 31  1  0
 30  2  1  0
 26  7  1  0
 20 11  1  0
M  END
>  <cnnaffinity>  (1) 
-5.66385

>  <filename>  (1) 
O=c1ccc(-c2cccc(Cl)c2Cl)cn1-c1cccnc1

$$$$
