
     RDKit          3D

 35 37  0  0  0  0  0  0  0  0999 V2000
    6.6257   -2.8738   23.2983 H   0  0  0  0  0  0  0  0  0  0  0  0
    7.2589   -2.2541   22.6791 C   0  0  0  0  0  0  0  0  0  0  0  0
    8.5816   -2.1250   22.9146 C   0  0  0  0  0  0  0  0  0  0  0  0
    9.2716   -2.9432   23.9584 C   0  0  0  0  0  0  0  0  0  0  0  0
    8.5217   -3.4241   24.9696 N   0  0  0  0  0  0  0  0  0  0  0  0
    9.0993   -4.2039   25.8997 C   0  0  0  0  0  0  0  0  0  0  0  0
    8.1870   -4.7796   27.0055 C   0  0  0  0  0  0  0  0  0  0  0  0
    7.4070   -3.8501   27.5701 F   0  0  0  0  0  0  0  0  0  0  0  0
    7.3781   -5.7285   26.5044 F   0  0  0  0  0  0  0  0  0  0  0  0
    8.8957   -5.3579   28.0003 F   0  0  0  0  0  0  0  0  0  0  0  0
   10.4410   -4.5789   25.8315 C   0  0  0  0  0  0  0  0  0  0  0  0
   10.8658   -5.2360   26.5799 H   0  0  0  0  0  0  0  0  0  0  0  0
   11.1940   -4.1205   24.7554 C   0  0  0  0  0  0  0  0  0  0  0  0
   12.2245   -4.3965   24.6733 H   0  0  0  0  0  0  0  0  0  0  0  0
   10.6301   -3.2723   23.8191 C   0  0  0  0  0  0  0  0  0  0  0  0
   11.2246   -2.9072   22.9871 H   0  0  0  0  0  0  0  0  0  0  0  0
    9.3801   -1.2388   21.9693 C   0  0  0  0  0  0  0  0  0  0  0  0
   10.2585   -0.8072   22.4589 H   0  0  0  0  0  0  0  0  0  0  0  0
    9.7429   -1.8401   21.1233 H   0  0  0  0  0  0  0  0  0  0  0  0
    8.5113   -0.1190   21.3849 C   0  0  0  0  0  0  0  0  0  0  0  0
    9.0619    0.3914   20.5860 H   0  0  0  0  0  0  0  0  0  0  0  0
    8.2706    0.6387   22.1508 H   0  0  0  0  0  0  0  0  0  0  0  0
    7.2804   -0.6837   20.8131 N   0  0  0  0  0  0  0  0  0  0  0  0
    6.6244    0.0308   19.7573 C   0  0  0  0  0  0  0  0  0  0  0  0
    7.1700    0.1217   18.4592 C   0  0  0  0  0  0  0  0  0  0  0  0
    8.1106   -0.3833   18.2401 H   0  0  0  0  0  0  0  0  0  0  0  0
    6.5835    0.7725   17.4436 N   0  0  0  0  0  0  0  0  0  0  0  0
    5.4190    1.3920   17.6990 C   0  0  0  0  0  0  0  0  0  0  0  0
    4.9602    1.9175   16.8644 H   0  0  0  0  0  0  0  0  0  0  0  0
    4.7979    1.3732   18.9522 C   0  0  0  0  0  0  0  0  0  0  0  0
    3.8613    1.9003   19.1001 H   0  0  0  0  0  0  0  0  0  0  0  0
    5.4024    0.6721   19.9995 C   0  0  0  0  0  0  0  0  0  0  0  0
    4.9460    0.6060   20.9856 H   0  0  0  0  0  0  0  0  0  0  0  0
    6.5597   -1.6668   21.5220 C   0  0  0  0  0  0  0  0  0  0  0  0
    5.4578   -2.0571   21.1865 O   0  0  0  0  0  0  0  0  0  0  0  0
  1  2  1  0
  2  3  2  0
  3  4  1  0
  4  5  2  0
  5  6  1  0
  6  7  1  0
  7  8  1  0
  7  9  1  0
  7 10  1  0
  6 11  2  0
 11 12  1  0
 11 13  1  0
 13 14  1  0
 13 15  2  0
 15 16  1  0
  3 17  1  0
 17 18  1  0
 17 19  1  0
 17 20  1  0
 20 21  1  0
 20 22  1  0
 20 23  1  0
 23 24  1  0
 24 25  2  0
 25 26  1  0
 25 27  1  0
 27 28  2  0
 28 29  1  0
 28 30  1  0
 30 31  1  0
 30 32  2  0
 32 33  1  0
 23 34  1  0
 34 35  2  0
 34  2  1  0
 15  4  1  0
 32 24  1  0
M  END
>  <cnnaffinity>  (1) 
-5.45286

>  <filename>  (1) 
O=C1C=C(c2cccc(C(F)(F)F)n2)CCN1c1cccnc1

$$$$
