
     RDKit          3D

 29 31  0  0  0  0  0  0  0  0999 V2000
   12.8340    1.7123   22.0988 H   0  0  0  0  0  0  0  0  0  0  0  0
   12.5555    0.6618   22.0631 C   0  0  0  0  0  0  0  0  0  0  0  0
   11.2427    0.4118   22.0171 N   0  0  0  0  0  0  0  0  0  0  0  0
   10.8507   -0.8738   22.0021 C   0  0  0  0  0  0  0  0  0  0  0  0
    9.3929   -1.1387   21.8956 C   0  0  0  0  0  0  0  0  0  0  0  0
    8.7212   -0.6235   20.8983 N   0  0  0  0  0  0  0  0  0  0  0  0
    7.3610   -0.7347   20.9206 N   0  0  0  0  0  0  0  0  0  0  0  0
    6.6607   -0.0144   19.9009 C   0  0  0  0  0  0  0  0  0  0  0  0
    7.2042    0.0506   18.6053 C   0  0  0  0  0  0  0  0  0  0  0  0
    8.1662   -0.4259   18.4210 H   0  0  0  0  0  0  0  0  0  0  0  0
    6.5966    0.6625   17.5814 N   0  0  0  0  0  0  0  0  0  0  0  0
    5.4289    1.2839   17.8285 C   0  0  0  0  0  0  0  0  0  0  0  0
    4.9591    1.7857   16.9860 H   0  0  0  0  0  0  0  0  0  0  0  0
    4.8253    1.3073   19.0896 C   0  0  0  0  0  0  0  0  0  0  0  0
    3.8889    1.8380   19.2299 H   0  0  0  0  0  0  0  0  0  0  0  0
    5.4494    0.6469   20.1526 C   0  0  0  0  0  0  0  0  0  0  0  0
    5.0381    0.6743   21.1616 H   0  0  0  0  0  0  0  0  0  0  0  0
    6.7088   -1.4959   21.8684 C   0  0  0  0  0  0  0  0  0  0  0  0
    5.6291   -1.5608   21.7529 H   0  0  0  0  0  0  0  0  0  0  0  0
    7.3666   -2.1361   22.8484 C   0  0  0  0  0  0  0  0  0  0  0  0
    6.8713   -2.7335   23.5998 H   0  0  0  0  0  0  0  0  0  0  0  0
    8.8143   -2.0050   22.9521 C   0  0  0  0  0  0  0  0  0  0  0  0
    9.4681   -2.5599   23.8291 O   0  0  0  0  0  0  0  0  0  0  0  0
   11.7569   -1.9472   22.1151 C   0  0  0  0  0  0  0  0  0  0  0  0
   11.3994   -2.9501   22.3321 H   0  0  0  0  0  0  0  0  0  0  0  0
   13.1199   -1.6723   22.0544 C   0  0  0  0  0  0  0  0  0  0  0  0
   13.8414   -2.4863   22.0208 H   0  0  0  0  0  0  0  0  0  0  0  0
   13.5347   -0.3397   22.0412 C   0  0  0  0  0  0  0  0  0  0  0  0
   14.5803   -0.0503   22.0436 H   0  0  0  0  0  0  0  0  0  0  0  0
  1  2  1  0
  2  3  2  0
  3  4  1  0
  4  5  1  0
  5  6  2  0
  6  7  1  0
  7  8  1  0
  8  9  2  0
  9 10  1  0
  9 11  1  0
 11 12  2  0
 12 13  1  0
 12 14  1  0
 14 15  1  0
 14 16  2  0
 16 17  1  0
  7 18  1  0
 18 19  1  0
 18 20  2  0
 20 21  1  0
 20 22  1  0
 22 23  2  0
  4 24  2  0
 24 25  1  0
 24 26  1  0
 26 27  1  0
 26 28  2  0
 28 29  1  0
 28  2  1  0
 22  5  1  0
 16  8  1  0
M  END
>  <cnnaffinity>  (1) 
-5.5042

>  <filename>  (1) 
O=c1ccn(-c2cccnc2)nc1-c1ccccn1

$$$$
