
     RDKit          3D

 36 38  0  0  0  0  0  0  0  0999 V2000
    4.9397    1.7767   17.0077 H   0  0  0  0  0  0  0  0  0  0  0  0
    5.4111    1.2766   17.8518 C   0  0  0  0  0  0  0  0  0  0  0  0
    6.5689    0.6551   17.5920 N   0  0  0  0  0  0  0  0  0  0  0  0
    7.1935    0.0590   18.6095 C   0  0  0  0  0  0  0  0  0  0  0  0
    8.1412   -0.4183   18.3683 H   0  0  0  0  0  0  0  0  0  0  0  0
    6.6896    0.0178   19.9163 C   0  0  0  0  0  0  0  0  0  0  0  0
    7.4707   -0.6837   20.9496 C   0  0  0  0  0  0  0  0  0  0  0  0
    8.7736   -0.6488   20.8505 N   0  0  0  0  0  0  0  0  0  0  0  0
    9.4996   -1.2635   21.8277 C   0  0  0  0  0  0  0  0  0  0  0  0
   10.7038   -1.3291   21.9229 O   0  0  0  0  0  0  0  0  0  0  0  0
    8.8018   -1.9378   22.8649 N   0  0  0  0  0  0  0  0  0  0  0  0
    9.5377   -2.3604   23.4159 H   0  0  0  0  0  0  0  0  0  0  0  0
    7.4350   -2.0573   22.9562 C   0  0  0  0  0  0  0  0  0  0  0  0
    6.5654   -2.9948   24.3745 S   0  0  0  0  0  0  0  0  0  0  0  0
    7.5015   -3.9716   24.8943 O   0  0  0  0  0  0  0  0  0  0  0  0
    5.2427   -3.3804   23.9230 O   0  0  0  0  0  0  0  0  0  0  0  0
    6.3735   -1.8306   25.5821 N   0  0  0  0  0  0  0  0  0  0  0  0
    5.4392   -0.7330   25.2362 C   0  0  0  0  0  0  0  0  0  0  0  0
    5.8179   -0.1369   24.3881 H   0  0  0  0  0  0  0  0  0  0  0  0
    4.4621   -1.1581   25.0020 H   0  0  0  0  0  0  0  0  0  0  0  0
    5.2489    0.2096   26.4266 C   0  0  0  0  0  0  0  0  0  0  0  0
    4.7099   -0.3247   27.2233 H   0  0  0  0  0  0  0  0  0  0  0  0
    4.6516    1.0683   26.1144 H   0  0  0  0  0  0  0  0  0  0  0  0
    6.4772    0.7215   26.9140 O   0  0  0  0  0  0  0  0  0  0  0  0
    7.3360   -0.3405   27.3059 C   0  0  0  0  0  0  0  0  0  0  0  0
    8.2587    0.1292   27.6500 H   0  0  0  0  0  0  0  0  0  0  0  0
    6.8808   -0.8953   28.1389 H   0  0  0  0  0  0  0  0  0  0  0  0
    7.6431   -1.3026   26.1479 C   0  0  0  0  0  0  0  0  0  0  0  0
    8.2569   -2.1325   26.5115 H   0  0  0  0  0  0  0  0  0  0  0  0
    8.2145   -0.7399   25.3934 H   0  0  0  0  0  0  0  0  0  0  0  0
    6.7466   -1.3910   21.9714 C   0  0  0  0  0  0  0  0  0  0  0  0
    5.6735   -1.4291   21.8803 H   0  0  0  0  0  0  0  0  0  0  0  0
    5.4594    0.6440   20.1709 C   0  0  0  0  0  0  0  0  0  0  0  0
    5.0134    0.6423   21.1684 H   0  0  0  0  0  0  0  0  0  0  0  0
    4.8222    1.2984   19.1191 C   0  0  0  0  0  0  0  0  0  0  0  0
    3.8891    1.8284   19.2594 H   0  0  0  0  0  0  0  0  0  0  0  0
  1  2  1  0
  2  3  2  0
  3  4  1  0
  4  5  1  0
  4  6  2  0
  6  7  1  0
  7  8  2  0
  8  9  1  0
  9 10  2  0
  9 11  1  0
 11 12  1  0
 11 13  1  0
 13 14  1  0
 14 15  2  0
 14 16  2  0
 14 17  1  0
 17 18  1  0
 18 19  1  0
 18 20  1  0
 18 21  1  0
 21 22  1  0
 21 23  1  0
 21 24  1  0
 24 25  1  0
 25 26  1  0
 25 27  1  0
 25 28  1  0
 28 29  1  0
 28 30  1  0
 13 31  2  0
 31 32  1  0
  6 33  1  0
 33 34  1  0
 33 35  2  0
 35 36  1  0
 35  2  1  0
 31  7  1  0
 28 17  1  0
M  END
>  <cnnaffinity>  (1) 
-4.86691

>  <filename>  (1) 
O=c1nc(-c2cccnc2)cc(S(=O)(=O)N2CCOCC2)[nH]1

$$$$
