
     RDKit          3D

 35 37  0  0  0  0  0  0  0  0999 V2000
    5.1206    2.0843   16.9652 H   0  0  0  0  0  0  0  0  0  0  0  0
    5.3574    1.3567   17.7396 C   0  0  0  0  0  0  0  0  0  0  0  0
    6.4117    0.5594   17.4973 N   0  0  0  0  0  0  0  0  0  0  0  0
    6.7615   -0.3065   18.4556 C   0  0  0  0  0  0  0  0  0  0  0  0
    7.6251   -0.9403   18.2527 H   0  0  0  0  0  0  0  0  0  0  0  0
    6.0913   -0.4269   19.6909 C   0  0  0  0  0  0  0  0  0  0  0  0
    6.7092   -1.1417   20.7841 N   0  0  0  0  0  0  0  0  0  0  0  0
    7.8734   -0.5688   21.2616 C   0  0  0  0  0  0  0  0  0  0  0  0
    8.2037    0.3336   20.7606 H   0  0  0  0  0  0  0  0  0  0  0  0
    8.5885   -1.0822   22.3124 C   0  0  0  0  0  0  0  0  0  0  0  0
    9.7881   -0.5240   22.6901 N   0  0  0  0  0  0  0  0  0  0  0  0
   10.3324   -1.0126   23.3819 H   0  0  0  0  0  0  0  0  0  0  0  0
   10.5089    0.3601   21.7839 C   0  0  0  0  0  0  0  0  0  0  0  0
   10.0136    1.3368   21.7683 H   0  0  0  0  0  0  0  0  0  0  0  0
   10.4725   -0.0337   20.7597 H   0  0  0  0  0  0  0  0  0  0  0  0
   11.9457    0.5372   22.2007 C   0  0  0  0  0  0  0  0  0  0  0  0
   12.8445   -0.5366   22.1742 C   0  0  0  0  0  0  0  0  0  0  0  0
   12.5778   -1.4870   21.7186 H   0  0  0  0  0  0  0  0  0  0  0  0
   14.1128   -0.3665   22.7308 C   0  0  0  0  0  0  0  0  0  0  0  0
   14.8142   -1.1998   22.7393 H   0  0  0  0  0  0  0  0  0  0  0  0
   14.5146    0.7817   23.2910 N   0  0  0  0  0  0  0  0  0  0  0  0
   13.6774    1.8224   23.2545 C   0  0  0  0  0  0  0  0  0  0  0  0
   14.0265    2.7541   23.6962 H   0  0  0  0  0  0  0  0  0  0  0  0
   12.4079    1.7667   22.6848 C   0  0  0  0  0  0  0  0  0  0  0  0
   11.8063    2.6691   22.6798 H   0  0  0  0  0  0  0  0  0  0  0  0
    8.0313   -2.2060   23.0136 C   0  0  0  0  0  0  0  0  0  0  0  0
    8.5492   -2.5819   23.8991 H   0  0  0  0  0  0  0  0  0  0  0  0
    6.8925   -2.7920   22.5583 C   0  0  0  0  0  0  0  0  0  0  0  0
    6.4691   -3.6739   23.0160 H   0  0  0  0  0  0  0  0  0  0  0  0
    6.1930   -2.3624   21.3414 C   0  0  0  0  0  0  0  0  0  0  0  0
    5.2912   -2.9927   20.8254 O   0  0  0  0  0  0  0  0  0  0  0  0
    4.9402    0.3432   19.8934 C   0  0  0  0  0  0  0  0  0  0  0  0
    4.3679    0.2427   20.8152 H   0  0  0  0  0  0  0  0  0  0  0  0
    4.5882    1.2734   18.9053 C   0  0  0  0  0  0  0  0  0  0  0  0
    3.7603    1.9606   19.0451 H   0  0  0  0  0  0  0  0  0  0  0  0
  1  2  1  0
  2  3  2  0
  3  4  1  0
  4  5  1  0
  4  6  2  0
  6  7  1  0
  7  8  1  0
  8  9  1  0
  8 10  2  0
 10 11  1  0
 11 12  1  0
 11 13  1  0
 13 14  1  0
 13 15  1  0
 13 16  1  0
 16 17  2  0
 17 18  1  0
 17 19  1  0
 19 20  1  0
 19 21  2  0
 21 22  1  0
 22 23  1  0
 22 24  2  0
 24 25  1  0
 10 26  1  0
 26 27  1  0
 26 28  2  0
 28 29  1  0
 28 30  1  0
 30 31  2  0
  6 32  1  0
 32 33  1  0
 32 34  2  0
 34 35  1  0
 34  2  1  0
 30  7  1  0
 24 16  1  0
M  END
>  <cnnaffinity>  (1) 
-5.66495

>  <filename>  (1) 
O=c1ccc(NCc2ccncc2)cn1-c1cccnc1

$$$$
