
     RDKit          3D

 45 48  0  0  0  0  0  0  0  0999 V2000
    8.4978    7.5973   23.4585 O   0  0  0  0  0  0  0  0  0  0  0  0
    8.3829    6.4442   23.0866 C   0  0  0  0  0  0  0  0  0  0  0  0
    7.3058    5.8538   22.2886 C   0  0  0  0  0  0  0  0  0  0  0  0
    7.3569    4.5385   21.9409 C   0  0  0  0  0  0  0  0  0  0  0  0
    8.4835    3.7103   22.3576 C   0  0  0  0  0  0  0  0  0  0  0  0
    8.5958    2.2593   21.9280 C   0  0  0  0  0  0  0  0  0  0  0  0
    7.6412    1.2848   22.6880 C   0  0  0  0  0  0  0  0  0  0  0  0
    7.7057   -0.1432   22.2185 C   0  0  0  0  0  0  0  0  0  0  0  0
    8.2156   -1.1522   22.9001 N   0  0  0  0  0  0  0  0  0  0  0  0
    8.1720   -2.1828   22.0158 C   0  0  0  0  0  0  0  0  0  0  0  0
    8.6311   -3.5632   22.3362 C   0  0  0  0  0  0  0  0  0  0  0  0
    7.6282   -4.3388   23.1928 C   0  0  0  0  0  0  0  0  0  0  0  0
    7.9616   -5.8329   23.4043 C   0  0  0  0  0  0  0  0  0  0  0  0
    6.6578   -6.2277   22.6729 C   0  0  0  0  0  0  0  0  0  0  0  0
    6.3341   -4.7317   22.4370 C   0  0  0  0  0  0  0  0  0  0  0  0
    6.3543   -4.4380   21.3807 H   0  0  0  0  0  0  0  0  0  0  0  0
    5.3969   -4.3533   22.8573 H   0  0  0  0  0  0  0  0  0  0  0  0
    6.7923   -6.8095   21.7564 H   0  0  0  0  0  0  0  0  0  0  0  0
    5.9470   -6.7559   23.3135 H   0  0  0  0  0  0  0  0  0  0  0  0
    7.9893   -6.1411   24.4529 H   0  0  0  0  0  0  0  0  0  0  0  0
    8.8996   -6.1605   22.9412 H   0  0  0  0  0  0  0  0  0  0  0  0
    7.4378   -3.8149   24.1373 H   0  0  0  0  0  0  0  0  0  0  0  0
    9.6084   -3.5101   22.8258 H   0  0  0  0  0  0  0  0  0  0  0  0
    8.7384   -4.0795   21.3789 H   0  0  0  0  0  0  0  0  0  0  0  0
    7.6686   -1.8787   20.8407 N   0  0  0  0  0  0  0  0  0  0  0  0
    7.3230   -0.5739   20.9793 N   0  0  0  0  0  0  0  0  0  0  0  0
    6.6362    0.0707   19.9180 C   0  0  0  0  0  0  0  0  0  0  0  0
    5.4338    0.7577   20.1241 C   0  0  0  0  0  0  0  0  0  0  0  0
    4.8412    1.3800   19.0203 C   0  0  0  0  0  0  0  0  0  0  0  0
    5.4723    1.3042   17.7739 C   0  0  0  0  0  0  0  0  0  0  0  0
    6.6080    0.6122   17.5679 N   0  0  0  0  0  0  0  0  0  0  0  0
    7.1572   -0.0139   18.6128 C   0  0  0  0  0  0  0  0  0  0  0  0
    8.0489   -0.6090   18.4207 H   0  0  0  0  0  0  0  0  0  0  0  0
    5.0428    1.7962   16.9031 H   0  0  0  0  0  0  0  0  0  0  0  0
    3.9041    1.9170   19.1202 H   0  0  0  0  0  0  0  0  0  0  0  0
    4.9625    0.7679   21.1092 H   0  0  0  0  0  0  0  0  0  0  0  0
    6.6027    1.6322   22.6031 H   0  0  0  0  0  0  0  0  0  0  0  0
    7.8900    1.2542   23.7553 H   0  0  0  0  0  0  0  0  0  0  0  0
    8.3820    2.2013   20.8498 H   0  0  0  0  0  0  0  0  0  0  0  0
    9.6339    1.9367   22.0880 H   0  0  0  0  0  0  0  0  0  0  0  0
    9.4284    4.1945   23.1205 N   0  0  0  0  0  0  0  0  0  0  0  0
    9.3426    5.5096   23.4628 N   0  0  0  0  0  0  0  0  0  0  0  0
   10.0922    5.9244   23.9982 H   0  0  0  0  0  0  0  0  0  0  0  0
    6.5827    4.0953   21.3186 H   0  0  0  0  0  0  0  0  0  0  0  0
    6.5156    6.5375   21.9948 H   0  0  0  0  0  0  0  0  0  0  0  0
  1  2  2  0
  2  3  1  0
  3  4  2  0
  4  5  1  0
  5  6  1  0
  6  7  1  0
  7  8  1  0
  8  9  2  0
  9 10  1  0
 10 11  1  0
 11 12  1  0
 12 13  1  0
 13 14  1  0
 14 15  1  0
 15 16  1  0
 15 17  1  0
 14 18  1  0
 14 19  1  0
 13 20  1  0
 13 21  1  0
 12 22  1  0
 11 23  1  0
 11 24  1  0
 10 25  2  0
 25 26  1  0
 26 27  1  0
 27 28  2  0
 28 29  1  0
 29 30  2  0
 30 31  1  0
 31 32  2  0
 32 33  1  0
 30 34  1  0
 29 35  1  0
 28 36  1  0
  7 37  1  0
  7 38  1  0
  6 39  1  0
  6 40  1  0
  5 41  2  0
 41 42  1  0
 42 43  1  0
  4 44  1  0
  3 45  1  0
 42  2  1  0
 26  8  1  0
 32 27  1  0
 15 12  1  0
M  END
>  <cnnaffinity>  (1) 
-5.94319

>  <filename>  (1) 
O=c1ccc(CCc2nc(CC3CCC3)nn2-c2cccnc2)n[nH]1

$$$$
