
     RDKit          3D

 33 35  0  0  0  0  0  0  0  0999 V2000
    8.4203   -0.0582   24.1443 H   0  0  0  0  0  0  0  0  0  0  0  0
    8.2004   -0.5989   23.2308 C   0  0  0  0  0  0  0  0  0  0  0  0
    8.5596   -1.8799   23.0178 C   0  0  0  0  0  0  0  0  0  0  0  0
    9.1305   -2.7750   24.0586 C   0  0  0  0  0  0  0  0  0  0  0  0
   10.3714   -3.3864   23.8016 C   0  0  0  0  0  0  0  0  0  0  0  0
   10.8707   -3.1655   22.8636 H   0  0  0  0  0  0  0  0  0  0  0  0
   10.9430   -4.2834   24.6993 C   0  0  0  0  0  0  0  0  0  0  0  0
   11.9092   -4.7124   24.4913 H   0  0  0  0  0  0  0  0  0  0  0  0
   10.2647   -4.6444   25.8585 C   0  0  0  0  0  0  0  0  0  0  0  0
   10.6725   -5.3898   26.5368 H   0  0  0  0  0  0  0  0  0  0  0  0
    9.0221   -4.0735   26.1341 C   0  0  0  0  0  0  0  0  0  0  0  0
    8.1943   -4.5979   27.5634 Cl  0  0  0  0  0  0  0  0  0  0  0  0
    8.4552   -3.1334   25.2495 C   0  0  0  0  0  0  0  0  0  0  0  0
    6.8751   -2.4996   25.5854 Cl  0  0  0  0  0  0  0  0  0  0  0  0
    8.4197   -2.4405   21.6167 C   0  0  0  0  0  0  0  0  0  0  0  0
    9.2485   -2.0497   21.0064 H   0  0  0  0  0  0  0  0  0  0  0  0
    8.4849   -3.5327   21.6125 H   0  0  0  0  0  0  0  0  0  0  0  0
    7.1109   -1.9264   21.0280 C   0  0  0  0  0  0  0  0  0  0  0  0
    6.9383   -2.3011   20.0173 H   0  0  0  0  0  0  0  0  0  0  0  0
    6.2450   -2.2524   21.6285 H   0  0  0  0  0  0  0  0  0  0  0  0
    7.1945   -0.4652   21.0043 N   0  0  0  0  0  0  0  0  0  0  0  0
    6.6031    0.2183   19.8955 C   0  0  0  0  0  0  0  0  0  0  0  0
    7.1393    0.1404   18.5901 C   0  0  0  0  0  0  0  0  0  0  0  0
    8.0791   -0.3882   18.4060 H   0  0  0  0  0  0  0  0  0  0  0  0
    6.5516    0.6969   17.5222 N   0  0  0  0  0  0  0  0  0  0  0  0
    5.3828    1.3344   17.7037 C   0  0  0  0  0  0  0  0  0  0  0  0
    4.9301    1.7714   16.8162 H   0  0  0  0  0  0  0  0  0  0  0  0
    4.7572    1.4466   18.9503 C   0  0  0  0  0  0  0  0  0  0  0  0
    3.8118    1.9702   19.0403 H   0  0  0  0  0  0  0  0  0  0  0  0
    5.3922    0.8957   20.0676 C   0  0  0  0  0  0  0  0  0  0  0  0
    4.9838    0.9763   21.0713 H   0  0  0  0  0  0  0  0  0  0  0  0
    7.5047    0.2106   22.2006 C   0  0  0  0  0  0  0  0  0  0  0  0
    7.2483    1.3856   22.3914 O   0  0  0  0  0  0  0  0  0  0  0  0
  1  2  1  0
  2  3  2  0
  3  4  1  0
  4  5  2  0
  5  6  1  0
  5  7  1  0
  7  8  1  0
  7  9  2  0
  9 10  1  0
  9 11  1  0
 11 12  1  0
 11 13  2  0
 13 14  1  0
  3 15  1  0
 15 16  1  0
 15 17  1  0
 15 18  1  0
 18 19  1  0
 18 20  1  0
 18 21  1  0
 21 22  1  0
 22 23  2  0
 23 24  1  0
 23 25  1  0
 25 26  2  0
 26 27  1  0
 26 28  1  0
 28 29  1  0
 28 30  2  0
 30 31  1  0
 21 32  1  0
 32 33  2  0
 32  2  1  0
 13  4  1  0
 30 22  1  0
M  END
>  <cnnaffinity>  (1) 
-5.45319

>  <filename>  (1) 
O=C1C=C(c2cccc(Cl)c2Cl)CCN1c1cccnc1

$$$$
