
     RDKit          3D

 43 46  0  0  0  0  0  0  0  0999 V2000
    6.4601    1.4038   25.3276 O   0  0  0  0  0  0  0  0  0  0  0  0
    7.5749    1.6922   24.9221 C   0  0  0  0  0  0  0  0  0  0  0  0
    8.7647    1.9130   25.7342 C   0  0  0  0  0  0  0  0  0  0  0  0
    9.9746    2.1238   25.1318 C   0  0  0  0  0  0  0  0  0  0  0  0
   10.0744    2.2590   23.7198 C   0  0  0  0  0  0  0  0  0  0  0  0
    8.9636    2.0883   22.9322 C   0  0  0  0  0  0  0  0  0  0  0  0
    9.0320    2.0137   21.4383 C   0  0  0  0  0  0  0  0  0  0  0  0
    9.5254    0.6183   20.9467 C   0  0  0  0  0  0  0  0  0  0  0  0
    8.6464   -0.4987   21.4003 C   0  0  0  0  0  0  0  0  0  0  0  0
    8.8767   -1.3301   22.3983 N   0  0  0  0  0  0  0  0  0  0  0  0
    7.6733   -1.9358   22.5765 C   0  0  0  0  0  0  0  0  0  0  0  0
    7.4123   -2.8400   23.7352 C   0  0  0  0  0  0  0  0  0  0  0  0
    6.3661   -2.2971   24.7777 C   0  0  0  0  0  0  0  0  0  0  0  0
    5.4298   -3.4865   24.4407 C   0  0  0  0  0  0  0  0  0  0  0  0
    6.4763   -4.0550   23.4463 C   0  0  0  0  0  0  0  0  0  0  0  0
    6.9056   -5.0265   23.7156 H   0  0  0  0  0  0  0  0  0  0  0  0
    6.1439   -4.1121   22.4014 H   0  0  0  0  0  0  0  0  0  0  0  0
    4.4839   -3.1908   23.9707 H   0  0  0  0  0  0  0  0  0  0  0  0
    5.1856   -4.1421   25.2852 H   0  0  0  0  0  0  0  0  0  0  0  0
    6.7332   -2.2651   25.8109 H   0  0  0  0  0  0  0  0  0  0  0  0
    5.9669   -1.2999   24.5427 H   0  0  0  0  0  0  0  0  0  0  0  0
    8.3939   -3.0848   24.1619 H   0  0  0  0  0  0  0  0  0  0  0  0
    6.7353   -1.5686   21.7202 N   0  0  0  0  0  0  0  0  0  0  0  0
    7.3686   -0.6509   20.9497 N   0  0  0  0  0  0  0  0  0  0  0  0
    6.6645    0.0087   19.9052 C   0  0  0  0  0  0  0  0  0  0  0  0
    5.4436    0.6394   20.1632 C   0  0  0  0  0  0  0  0  0  0  0  0
    4.8119    1.3081   19.1111 C   0  0  0  0  0  0  0  0  0  0  0  0
    5.3997    1.2941   17.8419 C   0  0  0  0  0  0  0  0  0  0  0  0
    6.5562    0.6664   17.5821 N   0  0  0  0  0  0  0  0  0  0  0  0
    7.1701    0.0454   18.5947 C   0  0  0  0  0  0  0  0  0  0  0  0
    8.1138   -0.4454   18.3585 H   0  0  0  0  0  0  0  0  0  0  0  0
    4.9279    1.7943   16.9993 H   0  0  0  0  0  0  0  0  0  0  0  0
    3.8797    1.8392   19.2612 H   0  0  0  0  0  0  0  0  0  0  0  0
    5.0097    0.5958   21.1626 H   0  0  0  0  0  0  0  0  0  0  0  0
    9.5682    0.6072   19.8582 H   0  0  0  0  0  0  0  0  0  0  0  0
   10.5309    0.4048   21.3215 H   0  0  0  0  0  0  0  0  0  0  0  0
    9.7412    2.7695   21.0910 H   0  0  0  0  0  0  0  0  0  0  0  0
    8.0596    2.2538   20.9911 H   0  0  0  0  0  0  0  0  0  0  0  0
    7.7651    1.8161   23.5513 N   0  0  0  0  0  0  0  0  0  0  0  0
    6.9260    1.5331   23.0611 H   0  0  0  0  0  0  0  0  0  0  0  0
   11.0310    2.4542   23.2484 H   0  0  0  0  0  0  0  0  0  0  0  0
   10.8949    2.1417   25.7108 H   0  0  0  0  0  0  0  0  0  0  0  0
    8.6171    1.8609   26.8041 H   0  0  0  0  0  0  0  0  0  0  0  0
  1  2  2  0
  2  3  1  0
  3  4  2  0
  4  5  1  0
  5  6  2  0
  6  7  1  0
  7  8  1  0
  8  9  1  0
  9 10  2  0
 10 11  1  0
 11 12  1  0
 12 13  1  0
 13 14  1  0
 14 15  1  0
 15 16  1  0
 15 17  1  0
 14 18  1  0
 14 19  1  0
 13 20  1  0
 13 21  1  0
 12 22  1  0
 11 23  2  0
 23 24  1  0
 24 25  1  0
 25 26  2  0
 26 27  1  0
 27 28  2  0
 28 29  1  0
 29 30  2  0
 30 31  1  0
 28 32  1  0
 27 33  1  0
 26 34  1  0
  8 35  1  0
  8 36  1  0
  7 37  1  0
  7 38  1  0
  6 39  1  0
 39 40  1  0
  5 41  1  0
  4 42  1  0
  3 43  1  0
 39  2  1  0
 24  9  1  0
 30 25  1  0
 15 12  1  0
M  END
>  <cnnaffinity>  (1) 
-5.94482

>  <filename>  (1) 
O=c1cccc(CCc2nc(C3CCC3)nn2-c2cccnc2)[nH]1

$$$$
