
     RDKit          3D

 21 22  0  0  0  0  0  0  0  0999 V2000
    4.9105    1.7974   16.9837 H   0  0  0  0  0  0  0  0  0  0  0  0
    5.3892    1.3027   17.8262 C   0  0  0  0  0  0  0  0  0  0  0  0
    6.5490    0.6833   17.5548 N   0  0  0  0  0  0  0  0  0  0  0  0
    7.1642    0.0648   18.5671 C   0  0  0  0  0  0  0  0  0  0  0  0
    8.1196   -0.4106   18.3577 H   0  0  0  0  0  0  0  0  0  0  0  0
    6.6395    0.0014   19.8742 C   0  0  0  0  0  0  0  0  0  0  0  0
    7.3424   -0.6851   20.9386 N   0  0  0  0  0  0  0  0  0  0  0  0
    8.6020   -0.1899   21.3712 C   0  0  0  0  0  0  0  0  0  0  0  0
    9.0945    0.7898   20.8567 O   0  0  0  0  0  0  0  0  0  0  0  0
    9.2742   -0.9197   22.4334 C   0  0  0  0  0  0  0  0  0  0  0  0
   10.2283   -0.5290   22.7386 H   0  0  0  0  0  0  0  0  0  0  0  0
    8.7129   -2.0056   22.9619 C   0  0  0  0  0  0  0  0  0  0  0  0
    9.4226   -2.9410   24.2149 Cl  0  0  0  0  0  0  0  0  0  0  0  0
    7.5033   -2.4216   22.4998 N   0  0  0  0  0  0  0  0  0  0  0  0
    6.9949   -3.2172   22.8352 H   0  0  0  0  0  0  0  0  0  0  0  0
    6.7685   -1.8155   21.5043 C   0  0  0  0  0  0  0  0  0  0  0  0
    5.7176   -2.3240   21.1922 O   0  0  0  0  0  0  0  0  0  0  0  0
    5.4360    0.6457   20.1487 C   0  0  0  0  0  0  0  0  0  0  0  0
    5.0249    0.6120   21.1573 H   0  0  0  0  0  0  0  0  0  0  0  0
    4.8036    1.3193   19.0971 C   0  0  0  0  0  0  0  0  0  0  0  0
    3.8727    1.8481   19.2525 H   0  0  0  0  0  0  0  0  0  0  0  0
  1  2  1  0
  2  3  2  0
  3  4  1  0
  4  5  1  0
  4  6  2  0
  6  7  1  0
  7  8  1  0
  8  9  2  0
  8 10  1  0
 10 11  1  0
 10 12  2  0
 12 13  1  0
 12 14  1  0
 14 15  1  0
 14 16  1  0
 16 17  2  0
  6 18  1  0
 18 19  1  0
 18 20  2  0
 20 21  1  0
 20  2  1  0
 16  7  1  0
M  END
>  <cnnaffinity>  (1) 
-4.93752

>  <filename>  (1) 
O=c1cc(Cl)[nH]c(=O)n1-c1cccnc1

$$$$
