
     RDKit          3D

 34 36  0  0  0  0  0  0  0  0999 V2000
    4.9797    1.8388   16.9566 H   0  0  0  0  0  0  0  0  0  0  0  0
    5.4131    1.3267   17.8140 C   0  0  0  0  0  0  0  0  0  0  0  0
    6.5939    0.7252   17.6008 N   0  0  0  0  0  0  0  0  0  0  0  0
    7.1718    0.1062   18.6403 C   0  0  0  0  0  0  0  0  0  0  0  0
    8.1224   -0.3834   18.4442 H   0  0  0  0  0  0  0  0  0  0  0  0
    6.6068    0.0504   19.9325 C   0  0  0  0  0  0  0  0  0  0  0  0
    7.2243   -0.6770   21.0201 N   0  0  0  0  0  0  0  0  0  0  0  0
    7.7330    0.0367   22.0880 C   0  0  0  0  0  0  0  0  0  0  0  0
    7.5644    1.1079   22.0371 H   0  0  0  0  0  0  0  0  0  0  0  0
    8.4436   -0.5584   23.0919 C   0  0  0  0  0  0  0  0  0  0  0  0
    8.9580    0.2223   24.2897 C   0  0  0  0  0  0  0  0  0  0  0  0
    8.1856    0.9226   24.6409 H   0  0  0  0  0  0  0  0  0  0  0  0
    9.1466   -0.4640   25.1210 H   0  0  0  0  0  0  0  0  0  0  0  0
   10.2208    1.0102   24.0009 C   0  0  0  0  0  0  0  0  0  0  0  0
   10.1250    2.2561   23.3654 C   0  0  0  0  0  0  0  0  0  0  0  0
    9.1538    2.7291   23.2149 H   0  0  0  0  0  0  0  0  0  0  0  0
   11.2663    2.9368   22.9531 C   0  0  0  0  0  0  0  0  0  0  0  0
   11.1907    3.8631   22.3905 H   0  0  0  0  0  0  0  0  0  0  0  0
   12.5387    2.4213   23.2219 C   0  0  0  0  0  0  0  0  0  0  0  0
   13.9201    3.3586   22.7533 Cl  0  0  0  0  0  0  0  0  0  0  0  0
   12.6500    1.1811   23.8694 C   0  0  0  0  0  0  0  0  0  0  0  0
   14.1772    0.4122   24.0999 Cl  0  0  0  0  0  0  0  0  0  0  0  0
   11.4972    0.5101   24.2901 C   0  0  0  0  0  0  0  0  0  0  0  0
   11.6284   -0.3956   24.8735 H   0  0  0  0  0  0  0  0  0  0  0  0
    8.7324   -1.9540   22.9580 C   0  0  0  0  0  0  0  0  0  0  0  0
    9.4414   -2.4101   23.6512 H   0  0  0  0  0  0  0  0  0  0  0  0
    8.1290   -2.7018   21.9980 C   0  0  0  0  0  0  0  0  0  0  0  0
    8.2431   -3.7714   21.9157 H   0  0  0  0  0  0  0  0  0  0  0  0
    7.1771   -2.1184   21.0597 C   0  0  0  0  0  0  0  0  0  0  0  0
    6.4265   -2.7661   20.3539 O   0  0  0  0  0  0  0  0  0  0  0  0
    5.3945    0.7119   20.1443 C   0  0  0  0  0  0  0  0  0  0  0  0
    4.9618    0.7284   21.1458 H   0  0  0  0  0  0  0  0  0  0  0  0
    4.7753    1.3454   19.0595 C   0  0  0  0  0  0  0  0  0  0  0  0
    3.8444    1.8868   19.1816 H   0  0  0  0  0  0  0  0  0  0  0  0
  1  2  1  0
  2  3  2  0
  3  4  1  0
  4  5  1  0
  4  6  2  0
  6  7  1  0
  7  8  1  0
  8  9  1  0
  8 10  2  0
 10 11  1  0
 11 12  1  0
 11 13  1  0
 11 14  1  0
 14 15  2  0
 15 16  1  0
 15 17  1  0
 17 18  1  0
 17 19  2  0
 19 20  1  0
 19 21  1  0
 21 22  1  0
 21 23  2  0
 23 24  1  0
 10 25  1  0
 25 26  1  0
 25 27  2  0
 27 28  1  0
 27 29  1  0
 29 30  2  0
  6 31  1  0
 31 32  1  0
 31 33  2  0
 33 34  1  0
 33  2  1  0
 29  7  1  0
 23 14  1  0
M  END
>  <cnnaffinity>  (1) 
-5.97171

>  <filename>  (1) 
O=c1ccc(Cc2ccc(Cl)c(Cl)c2)cn1-c1cccnc1

$$$$
