
     RDKit          3D

 35 38  0  0  0  0  0  0  0  0999 V2000
    4.9237    1.8289   16.9533 H   0  0  0  0  0  0  0  0  0  0  0  0
    5.4125    1.3181   17.7786 C   0  0  0  0  0  0  0  0  0  0  0  0
    6.5516    0.6708   17.4861 N   0  0  0  0  0  0  0  0  0  0  0  0
    7.1786    0.0252   18.4757 C   0  0  0  0  0  0  0  0  0  0  0  0
    8.0852   -0.5106   18.1948 H   0  0  0  0  0  0  0  0  0  0  0  0
    6.7111   -0.0061   19.8050 C   0  0  0  0  0  0  0  0  0  0  0  0
    7.3898   -0.7293   20.8284 N   0  0  0  0  0  0  0  0  0  0  0  0
    8.7433   -0.8920   21.0330 C   0  0  0  0  0  0  0  0  0  0  0  0
    9.4800   -0.4471   20.3777 H   0  0  0  0  0  0  0  0  0  0  0  0
    9.0057   -1.6010   22.0944 N   0  0  0  0  0  0  0  0  0  0  0  0
    7.7844   -1.9136   22.6441 C   0  0  0  0  0  0  0  0  0  0  0  0
    7.6836   -2.5982   23.9868 C   0  0  0  0  0  0  0  0  0  0  0  0
    6.8430   -3.3015   24.0137 H   0  0  0  0  0  0  0  0  0  0  0  0
    8.6180   -3.1512   24.1339 H   0  0  0  0  0  0  0  0  0  0  0  0
    7.5272   -1.6618   25.1282 N   0  0  0  0  0  0  0  0  0  0  0  0
    6.3025   -1.1009   25.5251 C   0  0  0  0  0  0  0  0  0  0  0  0
    5.2218   -1.6115   25.3393 O   0  0  0  0  0  0  0  0  0  0  0  0
    6.6143    0.1987   26.1917 C   0  0  0  0  0  0  0  0  0  0  0  0
    5.7840    1.1391   26.8078 C   0  0  0  0  0  0  0  0  0  0  0  0
    4.7182    0.9537   26.9518 H   0  0  0  0  0  0  0  0  0  0  0  0
    6.3789    2.3223   27.2576 C   0  0  0  0  0  0  0  0  0  0  0  0
    5.7799    3.0750   27.7560 H   0  0  0  0  0  0  0  0  0  0  0  0
    7.7592    2.5601   27.0934 C   0  0  0  0  0  0  0  0  0  0  0  0
    8.1694    3.5091   27.4248 H   0  0  0  0  0  0  0  0  0  0  0  0
    8.5811    1.5915   26.5144 C   0  0  0  0  0  0  0  0  0  0  0  0
    9.6485    1.7478   26.3962 H   0  0  0  0  0  0  0  0  0  0  0  0
    7.9875    0.4021   26.0933 C   0  0  0  0  0  0  0  0  0  0  0  0
    8.5894   -0.8349   25.5245 C   0  0  0  0  0  0  0  0  0  0  0  0
    9.7555   -1.1285   25.4276 O   0  0  0  0  0  0  0  0  0  0  0  0
    6.7829   -1.3984   21.8779 C   0  0  0  0  0  0  0  0  0  0  0  0
    5.7117   -1.4581   21.9836 H   0  0  0  0  0  0  0  0  0  0  0  0
    5.5236    0.6825   20.0968 C   0  0  0  0  0  0  0  0  0  0  0  0
    5.1428    0.7028   21.1184 H   0  0  0  0  0  0  0  0  0  0  0  0
    4.8585    1.3444   19.0622 C   0  0  0  0  0  0  0  0  0  0  0  0
    3.9271    1.8723   19.2424 H   0  0  0  0  0  0  0  0  0  0  0  0
  1  2  1  0
  2  3  2  0
  3  4  1  0
  4  5  1  0
  4  6  2  0
  6  7  1  0
  7  8  1  0
  8  9  1  0
  8 10  2  0
 10 11  1  0
 11 12  1  0
 12 13  1  0
 12 14  1  0
 12 15  1  0
 15 16  1  0
 16 17  2  0
 16 18  1  0
 18 19  2  0
 19 20  1  0
 19 21  1  0
 21 22  1  0
 21 23  2  0
 23 24  1  0
 23 25  1  0
 25 26  1  0
 25 27  2  0
 27 28  1  0
 28 29  2  0
 11 30  2  0
 30 31  1  0
  6 32  1  0
 32 33  1  0
 32 34  2  0
 34 35  1  0
 34  2  1  0
 30  7  1  0
 28 15  1  0
 27 18  1  0
M  END
>  <cnnaffinity>  (1) 
-5.12636

>  <filename>  (1) 
O=C1c2ccccc2C(=O)N1Cc1cn(-c2cccnc2)cn1

$$$$
