
     RDKit          3D

 31 34  0  0  0  0  0  0  0  0999 V2000
    4.9083    1.7768   17.0009 H   0  0  0  0  0  0  0  0  0  0  0  0
    5.3979    1.2935   17.8428 C   0  0  0  0  0  0  0  0  0  0  0  0
    6.5627    0.6772   17.5809 N   0  0  0  0  0  0  0  0  0  0  0  0
    7.1801    0.0575   18.5940 C   0  0  0  0  0  0  0  0  0  0  0  0
    8.1291   -0.4296   18.3811 H   0  0  0  0  0  0  0  0  0  0  0  0
    6.6661    0.0010   19.9088 C   0  0  0  0  0  0  0  0  0  0  0  0
    7.3567   -0.6867   20.9527 N   0  0  0  0  0  0  0  0  0  0  0  0
    6.7696   -1.4450   21.9492 C   0  0  0  0  0  0  0  0  0  0  0  0
    5.7008   -1.5996   22.0088 H   0  0  0  0  0  0  0  0  0  0  0  0
    7.7401   -1.9360   22.7526 C   0  0  0  0  0  0  0  0  0  0  0  0
    7.5500   -2.7771   23.9181 C   0  0  0  0  0  0  0  0  0  0  0  0
    6.3816   -3.1627   24.3183 N   0  0  0  0  0  0  0  0  0  0  0  0
    6.5034   -3.9485   25.4453 C   0  0  0  0  0  0  0  0  0  0  0  0
    5.4330   -4.5321   26.1439 C   0  0  0  0  0  0  0  0  0  0  0  0
    4.4228   -4.3595   25.7847 H   0  0  0  0  0  0  0  0  0  0  0  0
    5.7034   -5.3071   27.2678 C   0  0  0  0  0  0  0  0  0  0  0  0
    4.8818   -5.7625   27.8134 H   0  0  0  0  0  0  0  0  0  0  0  0
    7.0306   -5.5076   27.7051 C   0  0  0  0  0  0  0  0  0  0  0  0
    7.2231   -6.1181   28.5836 H   0  0  0  0  0  0  0  0  0  0  0  0
    8.1021   -4.9351   27.0231 C   0  0  0  0  0  0  0  0  0  0  0  0
    9.1288   -5.0827   27.3473 H   0  0  0  0  0  0  0  0  0  0  0  0
    7.8300   -4.1563   25.8935 C   0  0  0  0  0  0  0  0  0  0  0  0
    8.9344   -3.3232   24.8475 S   0  0  0  0  0  0  0  0  0  0  0  0
    8.9509   -1.4716   22.2402 N   0  0  0  0  0  0  0  0  0  0  0  0
    9.8863   -1.6148   22.5767 H   0  0  0  0  0  0  0  0  0  0  0  0
    8.7578   -0.6829   21.1368 C   0  0  0  0  0  0  0  0  0  0  0  0
    9.5978   -0.1143   20.4739 O   0  0  0  0  0  0  0  0  0  0  0  0
    5.4471    0.6442   20.1625 C   0  0  0  0  0  0  0  0  0  0  0  0
    5.0175    0.6306   21.1646 H   0  0  0  0  0  0  0  0  0  0  0  0
    4.8082    1.3110   19.1114 C   0  0  0  0  0  0  0  0  0  0  0  0
    3.8739    1.8437   19.2665 H   0  0  0  0  0  0  0  0  0  0  0  0
  1  2  1  0
  2  3  2  0
  3  4  1  0
  4  5  1  0
  4  6  2  0
  6  7  1  0
  7  8  1  0
  8  9  1  0
  8 10  2  0
 10 11  1  0
 11 12  2  0
 12 13  1  0
 13 14  2  0
 14 15  1  0
 14 16  1  0
 16 17  1  0
 16 18  2  0
 18 19  1  0
 18 20  1  0
 20 21  1  0
 20 22  2  0
 22 23  1  0
 10 24  1  0
 24 25  1  0
 24 26  1  0
 26 27  2  0
  6 28  1  0
 28 29  1  0
 28 30  2  0
 30 31  1  0
 30  2  1  0
 26  7  1  0
 23 11  1  0
 22 13  1  0
M  END
>  <cnnaffinity>  (1) 
-5.62449

>  <filename>  (1) 
O=c1[nH]c(-c2nc3ccccc3s2)cn1-c1cccnc1

$$$$
