
     RDKit          3D

 30 32  0  0  0  0  0  0  0  0999 V2000
    4.8545    1.7411   16.7828 H   0  0  0  0  0  0  0  0  0  0  0  0
    5.3330    1.3675   17.6834 C   0  0  0  0  0  0  0  0  0  0  0  0
    6.5072    0.7290   17.5618 N   0  0  0  0  0  0  0  0  0  0  0  0
    7.0757    0.2353   18.6762 C   0  0  0  0  0  0  0  0  0  0  0  0
    8.0125   -0.3071   18.5706 H   0  0  0  0  0  0  0  0  0  0  0  0
    6.5042    0.3509   19.9552 C   0  0  0  0  0  0  0  0  0  0  0  0
    7.0849   -0.3655   21.0924 C   0  0  0  0  0  0  0  0  0  0  0  0
    6.8594    0.2053   22.7495 S   0  0  0  0  0  0  0  0  0  0  0  0
    7.9994   -0.7958   23.6828 C   0  0  0  0  0  0  0  0  0  0  0  0
    8.2313   -0.4310   25.0835 C   0  0  0  0  0  0  0  0  0  0  0  0
    9.4303   -0.7569   25.7362 C   0  0  0  0  0  0  0  0  0  0  0  0
   10.2441   -1.2175   25.1794 H   0  0  0  0  0  0  0  0  0  0  0  0
    9.5696   -0.4850   27.0995 C   0  0  0  0  0  0  0  0  0  0  0  0
   10.4729   -0.7559   27.6258 H   0  0  0  0  0  0  0  0  0  0  0  0
    8.5299    0.1291   27.8037 C   0  0  0  0  0  0  0  0  0  0  0  0
    8.6327    0.3210   28.8641 H   0  0  0  0  0  0  0  0  0  0  0  0
    7.3493    0.4939   27.1598 C   0  0  0  0  0  0  0  0  0  0  0  0
    5.9154    1.3029   28.1300 Br  0  0  0  0  0  0  0  0  0  0  0  0
    7.2121    0.2203   25.7989 C   0  0  0  0  0  0  0  0  0  0  0  0
    6.2940    0.4866   25.2832 H   0  0  0  0  0  0  0  0  0  0  0  0
    8.5567   -1.9619   23.1710 C   0  0  0  0  0  0  0  0  0  0  0  0
    9.1666   -2.6154   23.7913 H   0  0  0  0  0  0  0  0  0  0  0  0
    8.3160   -2.4233   21.8170 C   0  0  0  0  0  0  0  0  0  0  0  0
    8.6024   -3.5726   21.4962 O   0  0  0  0  0  0  0  0  0  0  0  0
    7.7412   -1.5442   20.8233 C   0  0  0  0  0  0  0  0  0  0  0  0
    7.8142   -1.8619   19.7981 H   0  0  0  0  0  0  0  0  0  0  0  0
    5.3265    1.0893   20.0882 C   0  0  0  0  0  0  0  0  0  0  0  0
    4.8638    1.2484   21.0604 H   0  0  0  0  0  0  0  0  0  0  0  0
    4.7275    1.5692   18.9257 C   0  0  0  0  0  0  0  0  0  0  0  0
    3.7943    2.1122   18.9677 H   0  0  0  0  0  0  0  0  0  0  0  0
  1  2  1  0
  2  3  2  0
  3  4  1  0
  4  5  1  0
  4  6  2  0
  6  7  1  0
  7  8  1  0
  8  9  1  0
  9 10  1  0
 10 11  2  0
 11 12  1  0
 11 13  1  0
 13 14  1  0
 13 15  2  0
 15 16  1  0
 15 17  1  0
 17 18  1  0
 17 19  2  0
 19 20  1  0
  9 21  2  0
 21 22  1  0
 21 23  1  0
 23 24  2  0
 23 25  1  0
 25 26  1  0
  6 27  1  0
 27 28  1  0
 27 29  2  0
 29 30  1  0
 29  2  1  0
 25  7  2  0
 19 10  1  0
M  END
>  <cnnaffinity>  (1) 
-5.25158

>  <filename>  (1) 
O=c1cc(-c2cccnc2)sc(-c2cccc(Br)c2)c1

$$$$
