
     RDKit          3D

 36 39  0  0  0  0  0  0  0  0999 V2000
    4.9166    1.7773   16.9998 H   0  0  0  0  0  0  0  0  0  0  0  0
    5.4031    1.2932   17.8420 C   0  0  0  0  0  0  0  0  0  0  0  0
    6.5653    0.6738   17.5796 N   0  0  0  0  0  0  0  0  0  0  0  0
    7.1594    0.0508   18.5997 C   0  0  0  0  0  0  0  0  0  0  0  0
    8.1192   -0.4192   18.3891 H   0  0  0  0  0  0  0  0  0  0  0  0
    6.6163   -0.0203   19.9003 C   0  0  0  0  0  0  0  0  0  0  0  0
    7.3064   -0.7444   20.9964 C   0  0  0  0  0  0  0  0  0  0  0  0
    6.5604   -1.5044   21.7631 N   0  0  0  0  0  0  0  0  0  0  0  0
    7.1550   -2.1888   22.7954 N   0  0  0  0  0  0  0  0  0  0  0  0
    6.2941   -2.9899   23.6283 C   0  0  0  0  0  0  0  0  0  0  0  0
    5.2079   -3.6949   23.0176 C   0  0  0  0  0  0  0  0  0  0  0  0
    5.0610   -3.5866   21.9488 H   0  0  0  0  0  0  0  0  0  0  0  0
    4.3730   -4.4768   23.7796 C   0  0  0  0  0  0  0  0  0  0  0  0
    3.5374   -5.0103   23.3283 H   0  0  0  0  0  0  0  0  0  0  0  0
    4.5670   -4.6010   25.1903 C   0  0  0  0  0  0  0  0  0  0  0  0
    3.7116   -5.4022   26.0068 C   0  0  0  0  0  0  0  0  0  0  0  0
    2.8873   -5.9327   25.5322 H   0  0  0  0  0  0  0  0  0  0  0  0
    3.9281   -5.4976   27.3631 C   0  0  0  0  0  0  0  0  0  0  0  0
    3.2750   -6.1099   27.9815 H   0  0  0  0  0  0  0  0  0  0  0  0
    5.0112   -4.7956   27.9711 C   0  0  0  0  0  0  0  0  0  0  0  0
    5.1660   -4.8826   29.0446 H   0  0  0  0  0  0  0  0  0  0  0  0
    5.8514   -4.0166   27.2094 C   0  0  0  0  0  0  0  0  0  0  0  0
    6.6812   -3.4771   27.6616 H   0  0  0  0  0  0  0  0  0  0  0  0
    5.6534   -3.8954   25.8006 C   0  0  0  0  0  0  0  0  0  0  0  0
    6.5097   -3.0951   24.9872 C   0  0  0  0  0  0  0  0  0  0  0  0
    7.3147   -2.5443   25.4627 H   0  0  0  0  0  0  0  0  0  0  0  0
    8.5187   -2.1123   23.0194 C   0  0  0  0  0  0  0  0  0  0  0  0
    8.9115   -2.7249   23.8324 H   0  0  0  0  0  0  0  0  0  0  0  0
    9.3370   -1.3544   22.2684 C   0  0  0  0  0  0  0  0  0  0  0  0
   10.4029   -1.2703   22.4345 H   0  0  0  0  0  0  0  0  0  0  0  0
    8.7941   -0.5566   21.1802 C   0  0  0  0  0  0  0  0  0  0  0  0
    9.4920    0.1789   20.4862 O   0  0  0  0  0  0  0  0  0  0  0  0
    5.4178    0.6481   20.1586 C   0  0  0  0  0  0  0  0  0  0  0  0
    5.0053    0.6206   21.1696 H   0  0  0  0  0  0  0  0  0  0  0  0
    4.8013    1.3206   19.1059 C   0  0  0  0  0  0  0  0  0  0  0  0
    3.8679    1.8511   19.2589 H   0  0  0  0  0  0  0  0  0  0  0  0
  1  2  1  0
  2  3  2  0
  3  4  1  0
  4  5  1  0
  4  6  2  0
  6  7  1  0
  7  8  2  0
  8  9  1  0
  9 10  1  0
 10 11  2  0
 11 12  1  0
 11 13  1  0
 13 14  1  0
 13 15  2  0
 15 16  1  0
 16 17  1  0
 16 18  2  0
 18 19  1  0
 18 20  1  0
 20 21  1  0
 20 22  2  0
 22 23  1  0
 22 24  1  0
 24 25  2  0
 25 26  1  0
  9 27  1  0
 27 28  1  0
 27 29  2  0
 29 30  1  0
 29 31  1  0
 31 32  2  0
  6 33  1  0
 33 34  1  0
 33 35  2  0
 35 36  1  0
 35  2  1  0
 31  7  1  0
 25 10  1  0
 24 15  1  0
M  END
>  <cnnaffinity>  (1) 
-5.56028

>  <filename>  (1) 
O=c1ccn(-c2ccc3ccccc3c2)nc1-c1cccnc1

$$$$
