
     RDKit          3D

 31 33  0  0  0  0  0  0  0  0999 V2000
    4.9398    1.7985   16.9852 H   0  0  0  0  0  0  0  0  0  0  0  0
    5.4001    1.2855   17.8291 C   0  0  0  0  0  0  0  0  0  0  0  0
    6.5616    0.6586   17.5762 N   0  0  0  0  0  0  0  0  0  0  0  0
    7.1547    0.0259   18.5935 C   0  0  0  0  0  0  0  0  0  0  0  0
    8.1153   -0.4384   18.3602 H   0  0  0  0  0  0  0  0  0  0  0  0
    6.6366   -0.0135   19.8997 C   0  0  0  0  0  0  0  0  0  0  0  0
    7.3782   -0.6604   20.9838 C   0  0  0  0  0  0  0  0  0  0  0  0
    7.7200   -0.0635   22.1834 C   0  0  0  0  0  0  0  0  0  0  0  0
    7.4934    1.3899   22.4327 C   0  0  0  0  0  0  0  0  0  0  0  0
    8.0037    2.3669   21.5551 C   0  0  0  0  0  0  0  0  0  0  0  0
    8.5274    2.0343   20.6619 H   0  0  0  0  0  0  0  0  0  0  0  0
    7.8181    3.7265   21.8354 C   0  0  0  0  0  0  0  0  0  0  0  0
    8.2558    4.5066   21.2130 H   0  0  0  0  0  0  0  0  0  0  0  0
    7.0597    4.1214   22.9398 C   0  0  0  0  0  0  0  0  0  0  0  0
    6.8535    5.1656   23.1432 H   0  0  0  0  0  0  0  0  0  0  0  0
    6.5572    3.1452   23.7940 C   0  0  0  0  0  0  0  0  0  0  0  0
    5.8668    3.5262   24.8832 F   0  0  0  0  0  0  0  0  0  0  0  0
    6.7758    1.7913   23.5694 C   0  0  0  0  0  0  0  0  0  0  0  0
    6.3846    1.0669   24.2768 H   0  0  0  0  0  0  0  0  0  0  0  0
    8.3438   -0.8718   23.1957 C   0  0  0  0  0  0  0  0  0  0  0  0
    8.5938   -0.3800   24.1361 H   0  0  0  0  0  0  0  0  0  0  0  0
    8.6347   -2.1867   22.9821 C   0  0  0  0  0  0  0  0  0  0  0  0
    9.1105   -2.8321   23.7099 H   0  0  0  0  0  0  0  0  0  0  0  0
    8.2907   -2.8144   21.7102 C   0  0  0  0  0  0  0  0  0  0  0  0
    8.4309   -3.9858   21.4014 O   0  0  0  0  0  0  0  0  0  0  0  0
    7.7435   -1.9630   20.7719 N   0  0  0  0  0  0  0  0  0  0  0  0
    7.4736   -2.4837   19.9516 H   0  0  0  0  0  0  0  0  0  0  0  0
    5.4229    0.6461   20.1473 C   0  0  0  0  0  0  0  0  0  0  0  0
    5.0121    0.6555   21.1577 H   0  0  0  0  0  0  0  0  0  0  0  0
    4.7950    1.3006   19.0903 C   0  0  0  0  0  0  0  0  0  0  0  0
    3.8696    1.8451   19.2305 H   0  0  0  0  0  0  0  0  0  0  0  0
  1  2  1  0
  2  3  2  0
  3  4  1  0
  4  5  1  0
  4  6  2  0
  6  7  1  0
  7  8  2  0
  8  9  1  0
  9 10  2  0
 10 11  1  0
 10 12  1  0
 12 13  1  0
 12 14  2  0
 14 15  1  0
 14 16  1  0
 16 17  1  0
 16 18  2  0
 18 19  1  0
  8 20  1  0
 20 21  1  0
 20 22  2  0
 22 23  1  0
 22 24  1  0
 24 25  2  0
 24 26  1  0
 26 27  1  0
  6 28  1  0
 28 29  1  0
 28 30  2  0
 30 31  1  0
 30  2  1  0
 26  7  1  0
 18  9  1  0
M  END
>  <cnnaffinity>  (1) 
-5.15671

>  <filename>  (1) 
O=c1ccc(-c2cccc(F)c2)c(-c2cccnc2)[nH]1

$$$$
