
     RDKit          3D

 31 33  0  0  0  0  0  0  0  0999 V2000
    4.9401    1.7989   16.9850 H   0  0  0  0  0  0  0  0  0  0  0  0
    5.4000    1.2855   17.8287 C   0  0  0  0  0  0  0  0  0  0  0  0
    6.5614    0.6584   17.5764 N   0  0  0  0  0  0  0  0  0  0  0  0
    7.1547    0.0253   18.5932 C   0  0  0  0  0  0  0  0  0  0  0  0
    8.1155   -0.4388   18.3599 H   0  0  0  0  0  0  0  0  0  0  0  0
    6.6363   -0.0141   19.8991 C   0  0  0  0  0  0  0  0  0  0  0  0
    7.3778   -0.6605   20.9837 C   0  0  0  0  0  0  0  0  0  0  0  0
    7.7182   -0.0628   22.1836 C   0  0  0  0  0  0  0  0  0  0  0  0
    7.4930    1.3906   22.4320 C   0  0  0  0  0  0  0  0  0  0  0  0
    8.0047    2.3674   21.5566 C   0  0  0  0  0  0  0  0  0  0  0  0
    8.5309    2.0360   20.6644 H   0  0  0  0  0  0  0  0  0  0  0  0
    7.8176    3.7255   21.8366 C   0  0  0  0  0  0  0  0  0  0  0  0
    8.2556    4.5060   21.2167 H   0  0  0  0  0  0  0  0  0  0  0  0
    7.0542    4.1202   22.9372 C   0  0  0  0  0  0  0  0  0  0  0  0
    6.8550    5.1696   23.1246 H   0  0  0  0  0  0  0  0  0  0  0  0
    6.5428    3.1490   23.7989 C   0  0  0  0  0  0  0  0  0  0  0  0
    5.6482    3.6479   25.2079 Cl  0  0  0  0  0  0  0  0  0  0  0  0
    6.7717    1.7936   23.5667 C   0  0  0  0  0  0  0  0  0  0  0  0
    6.3853    1.0551   24.2629 H   0  0  0  0  0  0  0  0  0  0  0  0
    8.3425   -0.8705   23.1961 C   0  0  0  0  0  0  0  0  0  0  0  0
    8.5939   -0.3789   24.1358 H   0  0  0  0  0  0  0  0  0  0  0  0
    8.6344   -2.1855   22.9828 C   0  0  0  0  0  0  0  0  0  0  0  0
    9.1108   -2.8302   23.7109 H   0  0  0  0  0  0  0  0  0  0  0  0
    8.2912   -2.8133   21.7113 C   0  0  0  0  0  0  0  0  0  0  0  0
    8.4318   -3.9852   21.4034 O   0  0  0  0  0  0  0  0  0  0  0  0
    7.7446   -1.9631   20.7718 N   0  0  0  0  0  0  0  0  0  0  0  0
    7.4748   -2.4843   19.9519 H   0  0  0  0  0  0  0  0  0  0  0  0
    5.4225    0.6454   20.1463 C   0  0  0  0  0  0  0  0  0  0  0  0
    5.0112    0.6548   21.1563 H   0  0  0  0  0  0  0  0  0  0  0  0
    4.7950    1.3004   19.0897 C   0  0  0  0  0  0  0  0  0  0  0  0
    3.8698    1.8451   19.2302 H   0  0  0  0  0  0  0  0  0  0  0  0
  1  2  1  0
  2  3  2  0
  3  4  1  0
  4  5  1  0
  4  6  2  0
  6  7  1  0
  7  8  2  0
  8  9  1  0
  9 10  2  0
 10 11  1  0
 10 12  1  0
 12 13  1  0
 12 14  2  0
 14 15  1  0
 14 16  1  0
 16 17  1  0
 16 18  2  0
 18 19  1  0
  8 20  1  0
 20 21  1  0
 20 22  2  0
 22 23  1  0
 22 24  1  0
 24 25  2  0
 24 26  1  0
 26 27  1  0
  6 28  1  0
 28 29  1  0
 28 30  2  0
 30 31  1  0
 30  2  1  0
 26  7  1  0
 18  9  1  0
M  END
>  <cnnaffinity>  (1) 
-5.23986

>  <filename>  (1) 
O=c1ccc(-c2cccc(Cl)c2)c(-c2cccnc2)[nH]1

$$$$
