
     RDKit          3D

 24 25  0  0  0  0  0  0  0  0999 V2000
    4.9078    1.7784   16.9978 H   0  0  0  0  0  0  0  0  0  0  0  0
    5.3978    1.2953   17.8384 C   0  0  0  0  0  0  0  0  0  0  0  0
    6.5635    0.6824   17.5706 N   0  0  0  0  0  0  0  0  0  0  0  0
    7.1828    0.0728   18.5865 C   0  0  0  0  0  0  0  0  0  0  0  0
    8.1248   -0.4328   18.3740 H   0  0  0  0  0  0  0  0  0  0  0  0
    6.6660    0.0238   19.8936 C   0  0  0  0  0  0  0  0  0  0  0  0
    7.3702   -0.6652   20.9434 N   0  0  0  0  0  0  0  0  0  0  0  0
    8.6484   -0.2602   21.2676 C   0  0  0  0  0  0  0  0  0  0  0  0
    9.0498    0.5791   20.6967 H   0  0  0  0  0  0  0  0  0  0  0  0
    9.3312   -0.8809   22.2500 C   0  0  0  0  0  0  0  0  0  0  0  0
   10.6977   -0.4915   22.6564 C   0  0  0  0  0  0  0  0  0  0  0  0
   11.5657   -1.4993   22.5360 F   0  0  0  0  0  0  0  0  0  0  0  0
   10.7388   -0.0546   23.9198 F   0  0  0  0  0  0  0  0  0  0  0  0
   11.1741    0.5160   21.8874 F   0  0  0  0  0  0  0  0  0  0  0  0
    8.7508   -1.9778   22.9915 C   0  0  0  0  0  0  0  0  0  0  0  0
    9.2744   -2.5916   23.8891 O   0  0  0  0  0  0  0  0  0  0  0  0
    7.4831   -2.3110   22.5852 N   0  0  0  0  0  0  0  0  0  0  0  0
    7.0325   -3.0643   23.0629 H   0  0  0  0  0  0  0  0  0  0  0  0
    6.7353   -1.7380   21.6079 C   0  0  0  0  0  0  0  0  0  0  0  0
    5.6330   -2.1558   21.3353 O   0  0  0  0  0  0  0  0  0  0  0  0
    5.4457    0.6513   20.1598 C   0  0  0  0  0  0  0  0  0  0  0  0
    5.0155    0.6172   21.1618 H   0  0  0  0  0  0  0  0  0  0  0  0
    4.8076    1.3140   19.1079 C   0  0  0  0  0  0  0  0  0  0  0  0
    3.8730    1.8444   19.2638 H   0  0  0  0  0  0  0  0  0  0  0  0
  1  2  1  0
  2  3  2  0
  3  4  1  0
  4  5  1  0
  4  6  2  0
  6  7  1  0
  7  8  1  0
  8  9  1  0
  8 10  2  0
 10 11  1  0
 11 12  1  0
 11 13  1  0
 11 14  1  0
 10 15  1  0
 15 16  2  0
 15 17  1  0
 17 18  1  0
 17 19  1  0
 19 20  2  0
  6 21  1  0
 21 22  1  0
 21 23  2  0
 23 24  1  0
 23  2  1  0
 19  7  1  0
M  END
>  <cnnaffinity>  (1) 
-5.13632

>  <filename>  (1) 
O=c1[nH]c(=O)n(-c2cccnc2)cc1C(F)(F)F

$$$$
