
     RDKit          3D

 33 35  0  0  0  0  0  0  0  0999 V2000
    5.0450    1.7908   16.8793 H   0  0  0  0  0  0  0  0  0  0  0  0
    5.4466    1.2885   17.7582 C   0  0  0  0  0  0  0  0  0  0  0  0
    6.6289    0.6738   17.5997 N   0  0  0  0  0  0  0  0  0  0  0  0
    7.1503    0.0649   18.6711 C   0  0  0  0  0  0  0  0  0  0  0  0
    8.1157   -0.4140   18.5197 H   0  0  0  0  0  0  0  0  0  0  0  0
    6.5423    0.0363   19.9412 C   0  0  0  0  0  0  0  0  0  0  0  0
    7.2091   -0.6421   21.0598 C   0  0  0  0  0  0  0  0  0  0  0  0
    7.7763   -1.8480   21.0661 C   0  0  0  0  0  0  0  0  0  0  0  0
    7.7383   -2.6452   20.3480 H   0  0  0  0  0  0  0  0  0  0  0  0
    8.4033   -2.1088   22.2442 O   0  0  0  0  0  0  0  0  0  0  0  0
    8.2484   -1.0272   23.0661 C   0  0  0  0  0  0  0  0  0  0  0  0
    8.7279   -0.9313   24.1620 O   0  0  0  0  0  0  0  0  0  0  0  0
    7.4503   -0.0911   22.3306 N   0  0  0  0  0  0  0  0  0  0  0  0
    6.5183    0.9400   22.9045 N   0  0  0  0  0  0  0  0  0  0  0  0
    6.4895    1.7836   22.3351 H   0  0  0  0  0  0  0  0  0  0  0  0
    6.1967    1.6739   24.4140 S   0  0  0  0  0  0  0  0  0  0  0  0
    5.3643    0.8212   25.2194 O   0  0  0  0  0  0  0  0  0  0  0  0
    5.7947    2.9923   23.9713 O   0  0  0  0  0  0  0  0  0  0  0  0
    7.8898    1.7775   25.1660 C   0  0  0  0  0  0  0  0  0  0  0  0
    9.0041    2.2012   24.4350 C   0  0  0  0  0  0  0  0  0  0  0  0
    8.9423    2.8910   23.5846 H   0  0  0  0  0  0  0  0  0  0  0  0
   10.3099    1.6738   24.8339 C   0  0  0  0  0  0  0  0  0  0  0  0
   11.2146    1.9315   24.2934 H   0  0  0  0  0  0  0  0  0  0  0  0
   10.2281    0.8004   25.9320 C   0  0  0  0  0  0  0  0  0  0  0  0
   11.0367    0.6818   26.6699 H   0  0  0  0  0  0  0  0  0  0  0  0
    8.5314    0.6328   26.5757 C   0  0  0  0  0  0  0  0  0  0  0  0
    8.2451    1.0738   27.7013 H   0  0  0  0  0  0  0  0  0  0  0  0
    8.6849    0.9264   26.5101 C   0  0  0  0  0  0  0  0  0  0  0  0
    8.0769   -0.4463   26.4128 H   0  0  0  0  0  0  0  0  0  0  0  0
    5.2890    0.6563   20.0742 C   0  0  0  0  0  0  0  0  0  0  0  0
    4.7791    0.6264   21.0376 H   0  0  0  0  0  0  0  0  0  0  0  0
    4.7389    1.2972   18.9645 C   0  0  0  0  0  0  0  0  0  0  0  0
    3.7911    1.8181   19.0316 H   0  0  0  0  0  0  0  0  0  0  0  0
  1  2  1  0
  2  3  2  0
  3  4  1  0
  4  5  1  0
  4  6  2  0
  6  7  1  0
  7  8  2  0
  8  9  1  0
  8 10  1  0
 10 11  1  0
 11 12  2  0
 11 13  1  0
 13 14  1  0
 14 15  1  0
 14 16  1  0
 16 17  2  0
 16 18  2  0
 16 19  1  0
 19 20  2  0
 20 21  1  0
 20 22  1  0
 22 23  1  0
 22 24  2  0
 24 25  1  0
 24 26  1  0
 26 27  1  0
 26 28  2  0
 28 29  1  0
  6 30  1  0
 30 31  1  0
 30 32  2  0
 32 33  1  0
 32  2  1  0
 13  7  1  0
 28 19  1  0
M  END
>  <cnnaffinity>  (1) 
-4.94377

>  <filename>  (1) 
O=c1occ(-c2cccnc2)n1NS(=O)(=O)c1ccccc1

$$$$
