
     RDKit          3D

 35 38  0  0  0  0  0  0  0  0999 V2000
    5.0283    1.7782   16.9495 H   0  0  0  0  0  0  0  0  0  0  0  0
    5.4754    1.2838   17.8097 C   0  0  0  0  0  0  0  0  0  0  0  0
    6.6487    0.6595   17.6002 N   0  0  0  0  0  0  0  0  0  0  0  0
    7.2255    0.0419   18.6405 C   0  0  0  0  0  0  0  0  0  0  0  0
    8.1879   -0.4380   18.4750 H   0  0  0  0  0  0  0  0  0  0  0  0
    6.6484   -0.0191   19.9200 C   0  0  0  0  0  0  0  0  0  0  0  0
    7.3166   -0.7264   20.9656 N   0  0  0  0  0  0  0  0  0  0  0  0
    8.6808   -0.5790   21.0062 N   0  0  0  0  0  0  0  0  0  0  0  0
    9.3461   -1.1451   21.9888 C   0  0  0  0  0  0  0  0  0  0  0  0
   10.8194   -0.8957   22.0546 C   0  0  0  0  0  0  0  0  0  0  0  0
   11.6691   -1.9891   22.0411 C   0  0  0  0  0  0  0  0  0  0  0  0
   11.2393   -2.9838   22.0985 H   0  0  0  0  0  0  0  0  0  0  0  0
   13.0787   -1.8422   22.0512 C   0  0  0  0  0  0  0  0  0  0  0  0
   13.7078   -2.7231   21.9553 H   0  0  0  0  0  0  0  0  0  0  0  0
   13.6460   -0.6066   22.2449 C   0  0  0  0  0  0  0  0  0  0  0  0
   14.7190   -0.4568   22.3218 H   0  0  0  0  0  0  0  0  0  0  0  0
   12.8170    0.5451   22.3489 C   0  0  0  0  0  0  0  0  0  0  0  0
   13.4446    1.7330   22.6124 N   0  0  0  0  0  0  0  0  0  0  0  0
   12.7269    2.8276   22.5787 C   0  0  0  0  0  0  0  0  0  0  0  0
   13.2530    3.7627   22.7861 H   0  0  0  0  0  0  0  0  0  0  0  0
   11.3317    2.8429   22.3086 C   0  0  0  0  0  0  0  0  0  0  0  0
   10.8250    3.7967   22.2530 H   0  0  0  0  0  0  0  0  0  0  0  0
   10.6645    1.6526   22.1138 C   0  0  0  0  0  0  0  0  0  0  0  0
    9.5899    1.6320   21.9463 H   0  0  0  0  0  0  0  0  0  0  0  0
   11.3943    0.4247   22.1453 C   0  0  0  0  0  0  0  0  0  0  0  0
    8.7114   -2.1034   22.9645 C   0  0  0  0  0  0  0  0  0  0  0  0
    9.3253   -2.7669   23.7952 O   0  0  0  0  0  0  0  0  0  0  0  0
    7.2594   -2.1871   22.8409 C   0  0  0  0  0  0  0  0  0  0  0  0
    6.7333   -2.7917   23.5672 H   0  0  0  0  0  0  0  0  0  0  0  0
    6.6298   -1.5033   21.8704 C   0  0  0  0  0  0  0  0  0  0  0  0
    5.5485   -1.5492   21.7185 H   0  0  0  0  0  0  0  0  0  0  0  0
    5.4317    0.6486   20.1323 C   0  0  0  0  0  0  0  0  0  0  0  0
    4.9974    0.6788   21.1304 H   0  0  0  0  0  0  0  0  0  0  0  0
    4.8376    1.3103   19.0543 C   0  0  0  0  0  0  0  0  0  0  0  0
    3.9016    1.8485   19.1703 H   0  0  0  0  0  0  0  0  0  0  0  0
  1  2  1  0
  2  3  2  0
  3  4  1  0
  4  5  1  0
  4  6  2  0
  6  7  1  0
  7  8  1  0
  8  9  2  0
  9 10  1  0
 10 11  2  0
 11 12  1  0
 11 13  1  0
 13 14  1  0
 13 15  2  0
 15 16  1  0
 15 17  1  0
 17 18  2  0
 18 19  1  0
 19 20  1  0
 19 21  2  0
 21 22  1  0
 21 23  1  0
 23 24  1  0
 23 25  2  0
  9 26  1  0
 26 27  2  0
 26 28  1  0
 28 29  1  0
 28 30  2  0
 30 31  1  0
  6 32  1  0
 32 33  1  0
 32 34  2  0
 34 35  1  0
 34  2  1  0
 30  7  1  0
 25 10  1  0
 25 17  1  0
M  END
>  <cnnaffinity>  (1) 
-6.35071

>  <filename>  (1) 
O=c1ccn(-c2cccnc2)nc1-c1cccc2ncccc12

$$$$
