
     RDKit          3D

 45 48  0  0  0  0  0  0  0  0999 V2000
    9.3806    2.5451   22.4478 O   0  0  0  0  0  0  0  0  0  0  0  0
   10.3541    1.8455   22.5879 C   0  0  0  0  0  0  0  0  0  0  0  0
   11.3091    2.1908   23.4830 O   0  0  0  0  0  0  0  0  0  0  0  0
   12.4189    1.3472   23.8399 C   0  0  0  0  0  0  0  0  0  0  0  0
   12.8298    0.4483   22.6802 C   0  0  0  0  0  0  0  0  0  0  0  0
   11.5919   -0.2921   22.1864 C   0  0  0  0  0  0  0  0  0  0  0  0
   10.5689    0.6959   21.8264 N   0  0  0  0  0  0  0  0  0  0  0  0
    9.5039    0.2670   20.9256 C   0  0  0  0  0  0  0  0  0  0  0  0
    8.4724   -0.6675   21.5162 C   0  0  0  0  0  0  0  0  0  0  0  0
    8.6149   -1.4802   22.5475 N   0  0  0  0  0  0  0  0  0  0  0  0
    7.4559   -2.1801   22.5698 C   0  0  0  0  0  0  0  0  0  0  0  0
    7.1839   -3.1690   23.6623 C   0  0  0  0  0  0  0  0  0  0  0  0
    6.4576   -4.4600   23.2436 C   0  0  0  0  0  0  0  0  0  0  0  0
    5.9433   -5.0540   24.5691 C   0  0  0  0  0  0  0  0  0  0  0  0
    5.7559   -3.8601   25.5412 C   0  0  0  0  0  0  0  0  0  0  0  0
    6.2960   -2.6159   24.8057 C   0  0  0  0  0  0  0  0  0  0  0  0
    5.4650   -2.0454   24.3767 H   0  0  0  0  0  0  0  0  0  0  0  0
    6.8472   -1.9355   25.4650 H   0  0  0  0  0  0  0  0  0  0  0  0
    4.7055   -3.7207   25.8204 H   0  0  0  0  0  0  0  0  0  0  0  0
    6.3009   -4.0401   26.4756 H   0  0  0  0  0  0  0  0  0  0  0  0
    5.0173   -5.6215   24.4306 H   0  0  0  0  0  0  0  0  0  0  0  0
    6.6787   -5.7562   24.9809 H   0  0  0  0  0  0  0  0  0  0  0  0
    7.1162   -5.1484   22.7011 H   0  0  0  0  0  0  0  0  0  0  0  0
    5.6251   -4.1991   22.5767 H   0  0  0  0  0  0  0  0  0  0  0  0
    8.1710   -3.4162   24.0741 H   0  0  0  0  0  0  0  0  0  0  0  0
    6.6040   -1.8567   21.6141 N   0  0  0  0  0  0  0  0  0  0  0  0
    7.2626   -0.8931   20.9197 N   0  0  0  0  0  0  0  0  0  0  0  0
    6.5957   -0.1933   19.8655 C   0  0  0  0  0  0  0  0  0  0  0  0
    5.4226    0.5263   20.1292 C   0  0  0  0  0  0  0  0  0  0  0  0
    4.8670    1.2847   19.0961 C   0  0  0  0  0  0  0  0  0  0  0  0
    5.4777    1.2750   17.8356 C   0  0  0  0  0  0  0  0  0  0  0  0
    6.5633    0.5363   17.5569 N   0  0  0  0  0  0  0  0  0  0  0  0
    7.0950   -0.1860   18.5502 C   0  0  0  0  0  0  0  0  0  0  0  0
    7.9590   -0.7988   18.2956 H   0  0  0  0  0  0  0  0  0  0  0  0
    5.0801    1.8776   17.0212 H   0  0  0  0  0  0  0  0  0  0  0  0
    3.9843    1.8943   19.2572 H   0  0  0  0  0  0  0  0  0  0  0  0
    4.9744    0.4908   21.1228 H   0  0  0  0  0  0  0  0  0  0  0  0
    9.0033    1.1531   20.5222 H   0  0  0  0  0  0  0  0  0  0  0  0
    9.9506   -0.2669   20.0762 H   0  0  0  0  0  0  0  0  0  0  0  0
   11.1874   -0.9903   22.9365 H   0  0  0  0  0  0  0  0  0  0  0  0
   11.8102   -0.9062   21.3036 H   0  0  0  0  0  0  0  0  0  0  0  0
   13.2432    1.0653   21.8745 H   0  0  0  0  0  0  0  0  0  0  0  0
   13.6003   -0.2617   22.9924 H   0  0  0  0  0  0  0  0  0  0  0  0
   12.1356    0.7810   24.7416 H   0  0  0  0  0  0  0  0  0  0  0  0
   13.2133    2.0498   24.1087 H   0  0  0  0  0  0  0  0  0  0  0  0
  1  2  2  0
  2  3  1  0
  3  4  1  0
  4  5  1  0
  5  6  1  0
  6  7  1  0
  7  8  1  0
  8  9  1  0
  9 10  2  0
 10 11  1  0
 11 12  1  0
 12 13  1  0
 13 14  1  0
 14 15  1  0
 15 16  1  0
 16 17  1  0
 16 18  1  0
 15 19  1  0
 15 20  1  0
 14 21  1  0
 14 22  1  0
 13 23  1  0
 13 24  1  0
 12 25  1  0
 11 26  2  0
 26 27  1  0
 27 28  1  0
 28 29  2  0
 29 30  1  0
 30 31  2  0
 31 32  1  0
 32 33  2  0
 33 34  1  0
 31 35  1  0
 30 36  1  0
 29 37  1  0
  8 38  1  0
  8 39  1  0
  6 40  1  0
  6 41  1  0
  5 42  1  0
  5 43  1  0
  4 44  1  0
  4 45  1  0
  7  2  1  0
 27  9  1  0
 33 28  1  0
 16 12  1  0
M  END
>  <cnnaffinity>  (1) 
-5.87628

>  <filename>  (1) 
O=C1OCCCN1Cc1nc(C2CCCC2)nn1-c1cccnc1

$$$$
