
     RDKit          3D

 29 31  0  0  0  0  0  0  0  0999 V2000
    4.9246    1.8202   16.9617 H   0  0  0  0  0  0  0  0  0  0  0  0
    5.3909    1.3105   17.8023 C   0  0  0  0  0  0  0  0  0  0  0  0
    6.5512    0.6830   17.5447 N   0  0  0  0  0  0  0  0  0  0  0  0
    7.1535    0.0710   18.5752 C   0  0  0  0  0  0  0  0  0  0  0  0
    8.0981   -0.4210   18.3434 H   0  0  0  0  0  0  0  0  0  0  0  0
    6.6383    0.0101   19.8882 C   0  0  0  0  0  0  0  0  0  0  0  0
    7.3638   -0.7139   20.9772 C   0  0  0  0  0  0  0  0  0  0  0  0
    8.7770   -0.5669   21.1222 C   0  0  0  0  0  0  0  0  0  0  0  0
    9.3343    0.0693   20.4388 H   0  0  0  0  0  0  0  0  0  0  0  0
    9.4769   -1.2163   22.1171 C   0  0  0  0  0  0  0  0  0  0  0  0
   10.8688   -1.0273   22.2304 N   0  0  0  0  0  0  0  0  0  0  0  0
   11.5303    0.1696   22.0656 C   0  0  0  0  0  0  0  0  0  0  0  0
   10.9472    1.0685   21.9420 H   0  0  0  0  0  0  0  0  0  0  0  0
   12.8779   -0.0553   22.1526 C   0  0  0  0  0  0  0  0  0  0  0  0
   13.6440    0.7120   22.1355 H   0  0  0  0  0  0  0  0  0  0  0  0
   13.0508   -1.4654   22.3042 C   0  0  0  0  0  0  0  0  0  0  0  0
   13.9793   -2.0233   22.3554 H   0  0  0  0  0  0  0  0  0  0  0  0
   11.8058   -2.0207   22.3967 C   0  0  0  0  0  0  0  0  0  0  0  0
   11.4744   -3.0141   22.6543 H   0  0  0  0  0  0  0  0  0  0  0  0
    8.7836   -2.1089   23.0606 C   0  0  0  0  0  0  0  0  0  0  0  0
    9.2150   -2.7753   23.9889 O   0  0  0  0  0  0  0  0  0  0  0  0
    7.4070   -2.1873   22.8304 N   0  0  0  0  0  0  0  0  0  0  0  0
    7.0066   -2.7723   23.5510 H   0  0  0  0  0  0  0  0  0  0  0  0
    6.7010   -1.5350   21.8528 C   0  0  0  0  0  0  0  0  0  0  0  0
    5.6279   -1.7111   21.7827 H   0  0  0  0  0  0  0  0  0  0  0  0
    5.4175    0.6693   20.1178 C   0  0  0  0  0  0  0  0  0  0  0  0
    4.9848    0.6836   21.1186 H   0  0  0  0  0  0  0  0  0  0  0  0
    4.7838    1.3317   19.0636 C   0  0  0  0  0  0  0  0  0  0  0  0
    3.8493    1.8684   19.2096 H   0  0  0  0  0  0  0  0  0  0  0  0
  1  2  1  0
  2  3  2  0
  3  4  1  0
  4  5  1  0
  4  6  2  0
  6  7  1  0
  7  8  1  0
  8  9  1  0
  8 10  2  0
 10 11  1  0
 11 12  1  0
 12 13  1  0
 12 14  2  0
 14 15  1  0
 14 16  1  0
 16 17  1  0
 16 18  2  0
 18 19  1  0
 10 20  1  0
 20 21  2  0
 20 22  1  0
 22 23  1  0
 22 24  1  0
 24 25  1  0
  6 26  1  0
 26 27  1  0
 26 28  2  0
 28 29  1  0
 28  2  1  0
 24  7  2  0
 18 11  1  0
M  END
>  <cnnaffinity>  (1) 
-5.20585

>  <filename>  (1) 
O=c1[nH]cc(-c2cccnc2)cc1-n1cccc1

$$$$
