
     RDKit          3D

 42 45  0  0  0  0  0  0  0  0999 V2000
    8.6542    2.3893   26.8930 O   0  0  0  0  0  0  0  0  0  0  0  0
    8.6558    2.2280   25.6867 C   0  0  0  0  0  0  0  0  0  0  0  0
    7.5145    1.8844   24.8435 C   0  0  0  0  0  0  0  0  0  0  0  0
    7.6536    1.8643   23.4891 C   0  0  0  0  0  0  0  0  0  0  0  0
    8.9516    2.0991   22.8822 C   0  0  0  0  0  0  0  0  0  0  0  0
    9.1209    1.9818   21.3809 C   0  0  0  0  0  0  0  0  0  0  0  0
    9.5338    0.5612   20.8898 C   0  0  0  0  0  0  0  0  0  0  0  0
    8.6459   -0.5465   21.3579 C   0  0  0  0  0  0  0  0  0  0  0  0
    8.8834   -1.3962   22.3327 N   0  0  0  0  0  0  0  0  0  0  0  0
    7.6702   -1.9887   22.5385 C   0  0  0  0  0  0  0  0  0  0  0  0
    7.4289   -2.9653   23.6305 C   0  0  0  0  0  0  0  0  0  0  0  0
    8.4395   -3.2323   24.5777 C   0  0  0  0  0  0  0  0  0  0  0  0
    8.2171   -4.1514   25.6055 C   0  0  0  0  0  0  0  0  0  0  0  0
    6.9896   -4.8137   25.7072 C   0  0  0  0  0  0  0  0  0  0  0  0
    5.9755   -4.5406   24.7833 C   0  0  0  0  0  0  0  0  0  0  0  0
    6.1822   -3.6179   23.7556 C   0  0  0  0  0  0  0  0  0  0  0  0
    5.3767   -3.3823   23.0604 H   0  0  0  0  0  0  0  0  0  0  0  0
    5.0185   -5.0473   24.8674 H   0  0  0  0  0  0  0  0  0  0  0  0
    6.8237   -5.5384   26.5015 H   0  0  0  0  0  0  0  0  0  0  0  0
    9.0014   -4.3518   26.3304 H   0  0  0  0  0  0  0  0  0  0  0  0
    9.3912   -2.7054   24.5130 H   0  0  0  0  0  0  0  0  0  0  0  0
    6.7212   -1.5771   21.7117 N   0  0  0  0  0  0  0  0  0  0  0  0
    7.3577   -0.6736   20.9303 N   0  0  0  0  0  0  0  0  0  0  0  0
    6.6612   -0.0227   19.8751 C   0  0  0  0  0  0  0  0  0  0  0  0
    5.4429    0.6105   20.1390 C   0  0  0  0  0  0  0  0  0  0  0  0
    4.8216    1.3007   19.0969 C   0  0  0  0  0  0  0  0  0  0  0  0
    5.4184    1.3035   17.8316 C   0  0  0  0  0  0  0  0  0  0  0  0
    6.5566    0.6471   17.5550 N   0  0  0  0  0  0  0  0  0  0  0  0
    7.1576   -0.0050   18.5577 C   0  0  0  0  0  0  0  0  0  0  0  0
    8.0794   -0.5356   18.3107 H   0  0  0  0  0  0  0  0  0  0  0  0
    4.9602    1.8464   17.0094 H   0  0  0  0  0  0  0  0  0  0  0  0
    3.8924    1.8350   19.2583 H   0  0  0  0  0  0  0  0  0  0  0  0
    5.0067    0.5498   21.1371 H   0  0  0  0  0  0  0  0  0  0  0  0
    9.5521    0.5564   19.7980 H   0  0  0  0  0  0  0  0  0  0  0  0
   10.5483    0.3343   21.2197 H   0  0  0  0  0  0  0  0  0  0  0  0
    8.1885    2.2749   20.8829 H   0  0  0  0  0  0  0  0  0  0  0  0
    9.8869    2.6956   21.0738 H   0  0  0  0  0  0  0  0  0  0  0  0
   10.0092    2.3404   23.6103 N   0  0  0  0  0  0  0  0  0  0  0  0
    9.8360    2.3689   24.9621 N   0  0  0  0  0  0  0  0  0  0  0  0
   10.6476    2.4616   25.5596 H   0  0  0  0  0  0  0  0  0  0  0  0
    6.8176    1.6679   22.8291 H   0  0  0  0  0  0  0  0  0  0  0  0
    6.5998    1.6494   25.3699 H   0  0  0  0  0  0  0  0  0  0  0  0
  1  2  2  0
  2  3  1  0
  3  4  2  0
  4  5  1  0
  5  6  1  0
  6  7  1  0
  7  8  1  0
  8  9  2  0
  9 10  1  0
 10 11  1  0
 11 12  2  0
 12 13  1  0
 13 14  2  0
 14 15  1  0
 15 16  2  0
 16 17  1  0
 15 18  1  0
 14 19  1  0
 13 20  1  0
 12 21  1  0
 10 22  2  0
 22 23  1  0
 23 24  1  0
 24 25  2  0
 25 26  1  0
 26 27  2  0
 27 28  1  0
 28 29  2  0
 29 30  1  0
 27 31  1  0
 26 32  1  0
 25 33  1  0
  7 34  1  0
  7 35  1  0
  6 36  1  0
  6 37  1  0
  5 38  2  0
 38 39  1  0
 39 40  1  0
  4 41  1  0
  3 42  1  0
 39  2  1  0
 23  8  1  0
 29 24  1  0
 16 11  1  0
M  END
>  <cnnaffinity>  (1) 
-5.80121

>  <filename>  (1) 
O=c1ccc(CCc2nc(-c3ccccc3)nn2-c2cccnc2)n[nH]1

$$$$
