
     RDKit          3D

 31 33  0  0  0  0  0  0  0  0999 V2000
    6.1837    3.0417   27.0487 H   0  0  0  0  0  0  0  0  0  0  0  0
    6.6875    2.8830   26.0947 C   0  0  0  0  0  0  0  0  0  0  0  0
    7.0407    1.6199   25.8329 N   0  0  0  0  0  0  0  0  0  0  0  0
    7.6016    1.4108   24.6465 C   0  0  0  0  0  0  0  0  0  0  0  0
    7.9335    0.0934   24.4691 N   0  0  0  0  0  0  0  0  0  0  0  0
    7.9891   -0.3497   25.3712 H   0  0  0  0  0  0  0  0  0  0  0  0
    7.9594   -0.5772   23.2592 C   0  0  0  0  0  0  0  0  0  0  0  0
    7.3526    0.0200   22.2564 N   0  0  0  0  0  0  0  0  0  0  0  0
    7.3609   -0.5867   21.0301 N   0  0  0  0  0  0  0  0  0  0  0  0
    6.6768    0.0666   19.9573 C   0  0  0  0  0  0  0  0  0  0  0  0
    7.1806    0.0750   18.6382 C   0  0  0  0  0  0  0  0  0  0  0  0
    8.1302   -0.4010   18.3973 H   0  0  0  0  0  0  0  0  0  0  0  0
    6.5671    0.6632   17.6052 N   0  0  0  0  0  0  0  0  0  0  0  0
    5.3995    1.2816   17.8488 C   0  0  0  0  0  0  0  0  0  0  0  0
    4.9420    1.7823   16.9980 H   0  0  0  0  0  0  0  0  0  0  0  0
    4.7974    1.3041   19.1135 C   0  0  0  0  0  0  0  0  0  0  0  0
    3.8594    1.8349   19.2487 H   0  0  0  0  0  0  0  0  0  0  0  0
    5.4432    0.6856   20.1912 C   0  0  0  0  0  0  0  0  0  0  0  0
    5.0436    0.6547   21.2036 H   0  0  0  0  0  0  0  0  0  0  0  0
    7.9280   -1.8048   20.8374 C   0  0  0  0  0  0  0  0  0  0  0  0
    7.7358   -2.1521   19.8408 H   0  0  0  0  0  0  0  0  0  0  0  0
    8.5892   -2.4805   21.8017 C   0  0  0  0  0  0  0  0  0  0  0  0
    9.0649   -3.4296   21.6309 H   0  0  0  0  0  0  0  0  0  0  0  0
    8.6765   -1.9298   23.1414 C   0  0  0  0  0  0  0  0  0  0  0  0
    9.2515   -2.4923   24.0670 O   0  0  0  0  0  0  0  0  0  0  0  0
    7.9396    2.4056   23.7241 C   0  0  0  0  0  0  0  0  0  0  0  0
    8.4457    2.0793   22.8261 H   0  0  0  0  0  0  0  0  0  0  0  0
    7.5878    3.7161   24.0195 C   0  0  0  0  0  0  0  0  0  0  0  0
    7.8056    4.5168   23.3069 H   0  0  0  0  0  0  0  0  0  0  0  0
    6.9267    3.9597   25.2328 C   0  0  0  0  0  0  0  0  0  0  0  0
    6.5947    4.9516   25.5144 H   0  0  0  0  0  0  0  0  0  0  0  0
  1  2  1  0
  2  3  2  0
  3  4  1  0
  4  5  1  0
  5  6  1  0
  5  7  1  0
  7  8  2  0
  8  9  1  0
  9 10  1  0
 10 11  2  0
 11 12  1  0
 11 13  1  0
 13 14  2  0
 14 15  1  0
 14 16  1  0
 16 17  1  0
 16 18  2  0
 18 19  1  0
  9 20  1  0
 20 21  1  0
 20 22  2  0
 22 23  1  0
 22 24  1  0
 24 25  2  0
  4 26  2  0
 26 27  1  0
 26 28  1  0
 28 29  1  0
 28 30  2  0
 30 31  1  0
 30  2  1  0
 24  7  1  0
 18 10  1  0
M  END
>  <cnnaffinity>  (1) 
-4.98924

>  <filename>  (1) 
O=c1ccn(-c2cccnc2)nc1Nc1ccccn1

$$$$
