
     RDKit          3D

 44 47  0  0  0  0  0  0  0  0999 V2000
    3.1507   -9.5944   24.6714 H   0  0  0  0  0  0  0  0  0  0  0  0
    3.2417   -8.6104   25.1207 C   0  0  0  0  0  0  0  0  0  0  0  0
    4.0880   -7.7450   24.5461 N   0  0  0  0  0  0  0  0  0  0  0  0
    4.1928   -6.5250   25.1078 C   0  0  0  0  0  0  0  0  0  0  0  0
    5.0710   -5.6243   24.5279 N   0  0  0  0  0  0  0  0  0  0  0  0
    5.6351   -4.4763   25.2730 C   0  0  0  0  0  0  0  0  0  0  0  0
    4.8963   -3.6700   25.3864 H   0  0  0  0  0  0  0  0  0  0  0  0
    5.9259   -4.7845   26.2841 H   0  0  0  0  0  0  0  0  0  0  0  0
    6.8984   -3.8626   24.6126 C   0  0  0  0  0  0  0  0  0  0  0  0
    7.1640   -2.9442   25.1518 H   0  0  0  0  0  0  0  0  0  0  0  0
    7.7465   -4.5540   24.7373 H   0  0  0  0  0  0  0  0  0  0  0  0
    6.6813   -3.5439   23.2047 N   0  0  0  0  0  0  0  0  0  0  0  0
    7.3154   -2.4748   22.5771 C   0  0  0  0  0  0  0  0  0  0  0  0
    8.6489   -2.0778   22.9583 C   0  0  0  0  0  0  0  0  0  0  0  0
    9.1536   -2.6443   23.7414 H   0  0  0  0  0  0  0  0  0  0  0  0
    9.2808   -1.0406   22.3453 C   0  0  0  0  0  0  0  0  0  0  0  0
   10.2777   -0.7151   22.5989 H   0  0  0  0  0  0  0  0  0  0  0  0
    8.6706   -0.2520   21.2883 C   0  0  0  0  0  0  0  0  0  0  0  0
    9.2145    0.6825   20.7222 O   0  0  0  0  0  0  0  0  0  0  0  0
    7.3434   -0.6944   20.9393 N   0  0  0  0  0  0  0  0  0  0  0  0
    6.6424   -0.0079   19.8917 C   0  0  0  0  0  0  0  0  0  0  0  0
    7.1689    0.0572   18.5874 C   0  0  0  0  0  0  0  0  0  0  0  0
    8.1222   -0.4253   18.3805 H   0  0  0  0  0  0  0  0  0  0  0  0
    6.5600    0.6778   17.5712 N   0  0  0  0  0  0  0  0  0  0  0  0
    5.3965    1.2970   17.8373 C   0  0  0  0  0  0  0  0  0  0  0  0
    4.9097    1.7817   16.9954 H   0  0  0  0  0  0  0  0  0  0  0  0
    4.8029    1.3175   19.1054 C   0  0  0  0  0  0  0  0  0  0  0  0
    3.8692    1.8479   19.2628 H   0  0  0  0  0  0  0  0  0  0  0  0
    5.4337    0.6428   20.1564 C   0  0  0  0  0  0  0  0  0  0  0  0
    5.0198    0.6238   21.1670 H   0  0  0  0  0  0  0  0  0  0  0  0
    6.7132   -1.7582   21.5731 C   0  0  0  0  0  0  0  0  0  0  0  0
    5.7053   -1.9879   21.2344 H   0  0  0  0  0  0  0  0  0  0  0  0
    5.8377   -4.4615   22.4383 C   0  0  0  0  0  0  0  0  0  0  0  0
    6.3220   -4.6707   21.4734 H   0  0  0  0  0  0  0  0  0  0  0  0
    4.8675   -4.0002   22.2045 H   0  0  0  0  0  0  0  0  0  0  0  0
    5.5934   -5.8049   23.1637 C   0  0  0  0  0  0  0  0  0  0  0  0
    4.8846   -6.3836   22.5721 H   0  0  0  0  0  0  0  0  0  0  0  0
    6.5334   -6.3743   23.1818 H   0  0  0  0  0  0  0  0  0  0  0  0
    3.4199   -6.1504   26.2384 C   0  0  0  0  0  0  0  0  0  0  0  0
    3.5066   -5.1522   26.6468 H   0  0  0  0  0  0  0  0  0  0  0  0
    2.5422   -7.0708   26.7961 C   0  0  0  0  0  0  0  0  0  0  0  0
    1.9407   -6.8114   27.6656 H   0  0  0  0  0  0  0  0  0  0  0  0
    2.4478   -8.3397   26.2269 C   0  0  0  0  0  0  0  0  0  0  0  0
    1.7882   -9.0972   26.6342 H   0  0  0  0  0  0  0  0  0  0  0  0
  1  2  1  0
  2  3  2  0
  3  4  1  0
  4  5  1  0
  5  6  1  0
  6  7  1  0
  6  8  1  0
  6  9  1  0
  9 10  1  0
  9 11  1  0
  9 12  1  0
 12 13  1  0
 13 14  1  0
 14 15  1  0
 14 16  2  0
 16 17  1  0
 16 18  1  0
 18 19  2  0
 18 20  1  0
 20 21  1  0
 21 22  2  0
 22 23  1  0
 22 24  1  0
 24 25  2  0
 25 26  1  0
 25 27  1  0
 27 28  1  0
 27 29  2  0
 29 30  1  0
 20 31  1  0
 31 32  1  0
 12 33  1  0
 33 34  1  0
 33 35  1  0
 33 36  1  0
 36 37  1  0
 36 38  1  0
  4 39  2  0
 39 40  1  0
 39 41  1  0
 41 42  1  0
 41 43  2  0
 43 44  1  0
 43  2  1  0
 36  5  1  0
 31 13  2  0
 29 21  1  0
M  END
>  <cnnaffinity>  (1) 
-5.79126

>  <filename>  (1) 
O=c1ccc(N2CCN(c3ccccn3)CC2)cn1-c1cccnc1

$$$$
