
     RDKit          3D

 42 45  0  0  0  0  0  0  0  0999 V2000
   12.2769   -1.0652   21.4046 O   0  0  0  0  0  0  0  0  0  0  0  0
   11.8863   -0.0334   21.9215 C   0  0  0  0  0  0  0  0  0  0  0  0
   12.6636    0.5259   22.9293 N   0  0  0  0  0  0  0  0  0  0  0  0
   12.4394    1.6395   23.6629 N   0  0  0  0  0  0  0  0  0  0  0  0
   11.3471    2.3073   23.3977 C   0  0  0  0  0  0  0  0  0  0  0  0
   10.4156    1.8855   22.3840 C   0  0  0  0  0  0  0  0  0  0  0  0
   10.6609    0.7511   21.6486 C   0  0  0  0  0  0  0  0  0  0  0  0
    9.6409    0.2128   20.6825 C   0  0  0  0  0  0  0  0  0  0  0  0
    8.5962   -0.6257   21.3388 C   0  0  0  0  0  0  0  0  0  0  0  0
    8.8188   -1.4760   22.3145 N   0  0  0  0  0  0  0  0  0  0  0  0
    7.5925   -2.0090   22.5447 C   0  0  0  0  0  0  0  0  0  0  0  0
    7.3737   -2.9920   23.6492 C   0  0  0  0  0  0  0  0  0  0  0  0
    8.2506   -4.2605   23.5247 C   0  0  0  0  0  0  0  0  0  0  0  0
    8.3466   -4.8328   24.9537 C   0  0  0  0  0  0  0  0  0  0  0  0
    8.0241   -3.6650   25.9249 C   0  0  0  0  0  0  0  0  0  0  0  0
    7.7266   -2.4294   25.0498 C   0  0  0  0  0  0  0  0  0  0  0  0
    6.9126   -1.8101   25.4497 H   0  0  0  0  0  0  0  0  0  0  0  0
    8.6126   -1.7803   24.9754 H   0  0  0  0  0  0  0  0  0  0  0  0
    8.8508   -3.4676   26.6177 H   0  0  0  0  0  0  0  0  0  0  0  0
    7.1611   -3.9200   26.5531 H   0  0  0  0  0  0  0  0  0  0  0  0
    7.6328   -5.6541   25.0968 H   0  0  0  0  0  0  0  0  0  0  0  0
    9.3385   -5.2606   25.1418 H   0  0  0  0  0  0  0  0  0  0  0  0
    9.2468   -3.9853   23.1471 H   0  0  0  0  0  0  0  0  0  0  0  0
    7.8230   -4.9733   22.8076 H   0  0  0  0  0  0  0  0  0  0  0  0
    6.3084   -3.2544   23.6051 H   0  0  0  0  0  0  0  0  0  0  0  0
    6.6412   -1.5697   21.7485 N   0  0  0  0  0  0  0  0  0  0  0  0
    7.2985   -0.6973   20.9411 N   0  0  0  0  0  0  0  0  0  0  0  0
    6.6354   -0.0066   19.8956 C   0  0  0  0  0  0  0  0  0  0  0  0
    5.4283    0.6461   20.1561 C   0  0  0  0  0  0  0  0  0  0  0  0
    4.8054    1.3167   19.1030 C   0  0  0  0  0  0  0  0  0  0  0  0
    5.3960    1.2969   17.8340 C   0  0  0  0  0  0  0  0  0  0  0  0
    6.5517    0.6678   17.5762 N   0  0  0  0  0  0  0  0  0  0  0  0
    7.1580    0.0410   18.5891 C   0  0  0  0  0  0  0  0  0  0  0  0
    8.1091   -0.4365   18.3555 H   0  0  0  0  0  0  0  0  0  0  0  0
    4.9275    1.7973   16.9904 H   0  0  0  0  0  0  0  0  0  0  0  0
    3.8733    1.8478   19.2534 H   0  0  0  0  0  0  0  0  0  0  0  0
    5.0137    0.6065   21.1625 H   0  0  0  0  0  0  0  0  0  0  0  0
    9.1472    1.0404   20.1662 H   0  0  0  0  0  0  0  0  0  0  0  0
   10.1092   -0.4487   19.9453 H   0  0  0  0  0  0  0  0  0  0  0  0
    9.5084    2.4577   22.2322 H   0  0  0  0  0  0  0  0  0  0  0  0
   11.1927    3.1948   24.0098 H   0  0  0  0  0  0  0  0  0  0  0  0
   13.4900   -0.0418   23.0883 H   0  0  0  0  0  0  0  0  0  0  0  0
  1  2  2  0
  2  3  1  0
  3  4  1  0
  4  5  2  0
  5  6  1  0
  6  7  2  0
  7  8  1  0
  8  9  1  0
  9 10  2  0
 10 11  1  0
 11 12  1  0
 12 13  1  0
 13 14  1  0
 14 15  1  0
 15 16  1  0
 16 17  1  0
 16 18  1  0
 15 19  1  0
 15 20  1  0
 14 21  1  0
 14 22  1  0
 13 23  1  0
 13 24  1  0
 12 25  1  0
 11 26  2  0
 26 27  1  0
 27 28  1  0
 28 29  2  0
 29 30  1  0
 30 31  2  0
 31 32  1  0
 32 33  2  0
 33 34  1  0
 31 35  1  0
 30 36  1  0
 29 37  1  0
  8 38  1  0
  8 39  1  0
  6 40  1  0
  5 41  1  0
  3 42  1  0
  7  2  1  0
 27  9  1  0
 33 28  1  0
 16 12  1  0
M  END
>  <cnnaffinity>  (1) 
-6.42338

>  <filename>  (1) 
O=c1[nH]nccc1Cc1nc(C2CCCC2)nn1-c1cccnc1

$$$$
