
     RDKit          3D

 39 41  0  0  0  0  0  0  0  0999 V2000
    5.1144    1.8915   16.9559 H   0  0  0  0  0  0  0  0  0  0  0  0
    5.5166    1.3243   17.7958 C   0  0  0  0  0  0  0  0  0  0  0  0
    6.6683    0.6703   17.5785 N   0  0  0  0  0  0  0  0  0  0  0  0
    7.1910   -0.0193   18.6057 C   0  0  0  0  0  0  0  0  0  0  0  0
    8.1212   -0.5548   18.4184 H   0  0  0  0  0  0  0  0  0  0  0  0
    6.5997   -0.0968   19.8842 C   0  0  0  0  0  0  0  0  0  0  0  0
    7.2214   -0.7886   20.9743 N   0  0  0  0  0  0  0  0  0  0  0  0
    6.5616   -1.8498   21.6015 C   0  0  0  0  0  0  0  0  0  0  0  0
    5.7040   -2.5529   21.1463 O   0  0  0  0  0  0  0  0  0  0  0  0
    7.0806   -1.9989   22.8466 O   0  0  0  0  0  0  0  0  0  0  0  0
    8.1369   -1.0685   23.0738 C   0  0  0  0  0  0  0  0  0  0  0  0
    8.0117   -0.6126   24.0606 H   0  0  0  0  0  0  0  0  0  0  0  0
    9.0859   -1.6215   23.0568 H   0  0  0  0  0  0  0  0  0  0  0  0
    8.0639   -0.0534   21.9253 C   0  0  1  0  0  0  0  0  0  0  0  0
    7.5413    0.8614   22.2537 H   0  0  0  0  0  0  0  0  0  0  0  0
    9.4259    0.3131   21.3314 C   0  0  0  0  0  0  0  0  0  0  0  0
    9.2606    0.9778   20.4739 H   0  0  0  0  0  0  0  0  0  0  0  0
    9.8503   -0.6161   20.9224 H   0  0  0  0  0  0  0  0  0  0  0  0
   10.4186    0.9823   22.3156 C   0  0  0  0  0  0  0  0  0  0  0  0
   10.3037    0.5392   23.3164 H   0  0  0  0  0  0  0  0  0  0  0  0
   10.1990    2.5075   22.4101 C   0  0  0  0  0  0  0  0  0  0  0  0
   10.2173    2.8814   21.3758 H   0  0  0  0  0  0  0  0  0  0  0  0
    9.2004    2.7092   22.8247 H   0  0  0  0  0  0  0  0  0  0  0  0
   11.2856    3.2799   23.1927 C   0  0  0  0  0  0  0  0  0  0  0  0
   11.1366    4.3621   23.0600 H   0  0  0  0  0  0  0  0  0  0  0  0
   11.1842    3.0987   24.2701 H   0  0  0  0  0  0  0  0  0  0  0  0
   12.7114    2.8949   22.7462 C   0  0  0  0  0  0  0  0  0  0  0  0
   12.8679    3.2568   21.7176 H   0  0  0  0  0  0  0  0  0  0  0  0
   13.4767    3.3806   23.3680 H   0  0  0  0  0  0  0  0  0  0  0  0
   12.9132    1.3721   22.7599 C   0  0  0  0  0  0  0  0  0  0  0  0
   12.8285    0.9923   23.7879 H   0  0  0  0  0  0  0  0  0  0  0  0
   13.9260    1.0980   22.4265 H   0  0  0  0  0  0  0  0  0  0  0  0
   11.8616    0.6989   21.8740 C   0  0  0  0  0  0  0  0  0  0  0  0
   11.9539    1.0899   20.8524 H   0  0  0  0  0  0  0  0  0  0  0  0
   12.0313   -0.3826   21.8320 H   0  0  0  0  0  0  0  0  0  0  0  0
    5.3760    0.5571   20.0785 C   0  0  0  0  0  0  0  0  0  0  0  0
    4.8677    0.4803   21.0405 H   0  0  0  0  0  0  0  0  0  0  0  0
    4.8337    1.2945   19.0176 C   0  0  0  0  0  0  0  0  0  0  0  0
    3.9067    1.8474   19.1323 H   0  0  0  0  0  0  0  0  0  0  0  0
  1  2  1  0
  2  3  2  0
  3  4  1  0
  4  5  1  0
  4  6  2  0
  6  7  1  0
  7  8  1  0
  8  9  2  0
  8 10  1  0
 10 11  1  0
 11 12  1  0
 11 13  1  0
 11 14  1  0
 14 15  1  1
 14 16  1  0
 16 17  1  0
 16 18  1  0
 16 19  1  0
 19 20  1  0
 19 21  1  0
 21 22  1  0
 21 23  1  0
 21 24  1  0
 24 25  1  0
 24 26  1  0
 24 27  1  0
 27 28  1  0
 27 29  1  0
 27 30  1  0
 30 31  1  0
 30 32  1  0
 30 33  1  0
 33 34  1  0
 33 35  1  0
  6 36  1  0
 36 37  1  0
 36 38  2  0
 38 39  1  0
 38  2  1  0
 14  7  1  0
 33 19  1  0
M  END
>  <cnnaffinity>  (1) 
-5.15339

>  <filename>  (1) 
O=C1OC[C@@H](CC2CCCCC2)N1c1cccnc1

$$$$
