
     RDKit          3D

 39 42  0  0  0  0  0  0  0  0999 V2000
    4.9129    1.8278   16.9629 H   0  0  0  0  0  0  0  0  0  0  0  0
    5.3812    1.3263   17.8094 C   0  0  0  0  0  0  0  0  0  0  0  0
    6.5512    0.7186   17.5563 N   0  0  0  0  0  0  0  0  0  0  0  0
    7.1619    0.1093   18.5795 C   0  0  0  0  0  0  0  0  0  0  0  0
    8.1147   -0.3610   18.3487 H   0  0  0  0  0  0  0  0  0  0  0  0
    6.6373    0.0347   19.8829 C   0  0  0  0  0  0  0  0  0  0  0  0
    7.3955   -0.6868   20.9916 C   0  0  1  0  0  0  0  0  0  0  0  0
    6.8817   -0.5176   21.9519 H   0  0  0  0  0  0  0  0  0  0  0  0
    7.5731   -2.2242   20.8545 C   0  0  0  0  0  0  0  0  0  0  0  0
    6.7466   -3.0809   20.6684 O   0  0  0  0  0  0  0  0  0  0  0  0
    8.9173   -2.4472   20.9870 N   0  0  0  0  0  0  0  0  0  0  0  0
    9.3740   -3.2738   20.6561 H   0  0  0  0  0  0  0  0  0  0  0  0
    9.6555   -1.2911   21.1038 C   0  0  0  0  0  0  0  0  0  0  0  0
   10.8569   -1.2501   21.2144 O   0  0  0  0  0  0  0  0  0  0  0  0
    8.7814   -0.2388   21.0583 N   0  0  0  0  0  0  0  0  0  0  0  0
    9.1434    1.0647   21.5954 C   0  0  0  0  0  0  0  0  0  0  0  0
   10.1921    1.2417   21.3342 H   0  0  0  0  0  0  0  0  0  0  0  0
    8.5368    1.8180   21.0723 H   0  0  0  0  0  0  0  0  0  0  0  0
    8.9349    1.1494   23.1070 C   0  0  0  0  0  0  0  0  0  0  0  0
    9.9393    0.6625   24.0015 C   0  0  0  0  0  0  0  0  0  0  0  0
   10.8773    0.2946   23.5914 H   0  0  0  0  0  0  0  0  0  0  0  0
    9.7288    0.6337   25.3631 C   0  0  0  0  0  0  0  0  0  0  0  0
   10.5133    0.2962   26.0393 H   0  0  0  0  0  0  0  0  0  0  0  0
    8.4896    1.0692   25.9261 C   0  0  0  0  0  0  0  0  0  0  0  0
    8.2010    0.9825   27.3251 C   0  0  0  0  0  0  0  0  0  0  0  0
    8.8986    0.4519   27.9713 H   0  0  0  0  0  0  0  0  0  0  0  0
    7.0478    1.5298   27.8390 C   0  0  0  0  0  0  0  0  0  0  0  0
    6.8780    1.5593   28.9124 H   0  0  0  0  0  0  0  0  0  0  0  0
    6.0711    2.0965   26.9686 C   0  0  0  0  0  0  0  0  0  0  0  0
    5.1443    2.4825   27.3865 H   0  0  0  0  0  0  0  0  0  0  0  0
    6.2766    2.1150   25.6093 C   0  0  0  0  0  0  0  0  0  0  0  0
    5.4990    2.4761   24.9372 H   0  0  0  0  0  0  0  0  0  0  0  0
    7.4948    1.6158   25.0508 C   0  0  0  0  0  0  0  0  0  0  0  0
    7.7563    1.6241   23.6452 C   0  0  0  0  0  0  0  0  0  0  0  0
    6.9809    2.0052   22.9887 H   0  0  0  0  0  0  0  0  0  0  0  0
    5.4097    0.6684   20.1215 C   0  0  0  0  0  0  0  0  0  0  0  0
    4.9646    0.6504   21.1185 H   0  0  0  0  0  0  0  0  0  0  0  0
    4.7682    1.3297   19.0677 C   0  0  0  0  0  0  0  0  0  0  0  0
    3.8241    1.8539   19.2072 H   0  0  0  0  0  0  0  0  0  0  0  0
  1  2  1  0
  2  3  2  0
  3  4  1  0
  4  5  1  0
  4  6  2  0
  6  7  1  0
  7  8  1  1
  7  9  1  0
  9 10  2  0
  9 11  1  0
 11 12  1  0
 11 13  1  0
 13 14  2  0
 13 15  1  0
 15 16  1  0
 16 17  1  0
 16 18  1  0
 16 19  1  0
 19 20  2  0
 20 21  1  0
 20 22  1  0
 22 23  1  0
 22 24  2  0
 24 25  1  0
 25 26  1  0
 25 27  2  0
 27 28  1  0
 27 29  1  0
 29 30  1  0
 29 31  2  0
 31 32  1  0
 31 33  1  0
 33 34  2  0
 34 35  1  0
  6 36  1  0
 36 37  1  0
 36 38  2  0
 38 39  1  0
 38  2  1  0
 15  7  1  0
 34 19  1  0
 33 24  1  0
M  END
>  <cnnaffinity>  (1) 
-5.18529

>  <filename>  (1) 
O=C1NC(=O)N(Cc2ccc3ccccc3c2)[C@H]1c1cccnc1

$$$$
