
     RDKit          3D

 32 34  0  0  0  0  0  0  0  0999 V2000
    4.9098    1.7802   16.9962 H   0  0  0  0  0  0  0  0  0  0  0  0
    5.3979    1.2965   17.8380 C   0  0  0  0  0  0  0  0  0  0  0  0
    6.5610    0.6772   17.5749 N   0  0  0  0  0  0  0  0  0  0  0  0
    7.1715    0.0569   18.5906 C   0  0  0  0  0  0  0  0  0  0  0  0
    8.1230   -0.4259   18.3796 H   0  0  0  0  0  0  0  0  0  0  0  0
    6.6432   -0.0117   19.8961 C   0  0  0  0  0  0  0  0  0  0  0  0
    7.3415   -0.7016   20.9497 N   0  0  0  0  0  0  0  0  0  0  0  0
    6.7010   -1.7569   21.6024 C   0  0  0  0  0  0  0  0  0  0  0  0
    5.6978   -2.0013   21.2583 H   0  0  0  0  0  0  0  0  0  0  0  0
    7.3195   -2.4457   22.6105 C   0  0  0  0  0  0  0  0  0  0  0  0
    6.6432   -3.5049   23.1899 O   0  0  0  0  0  0  0  0  0  0  0  0
    6.8286   -3.8990   24.5044 C   0  0  0  0  0  0  0  0  0  0  0  0
    7.1358   -3.0116   25.5436 C   0  0  0  0  0  0  0  0  0  0  0  0
    7.2672   -1.9573   25.3314 H   0  0  0  0  0  0  0  0  0  0  0  0
    7.2724   -3.4783   26.8550 C   0  0  0  0  0  0  0  0  0  0  0  0
    7.5344   -2.7849   27.6446 H   0  0  0  0  0  0  0  0  0  0  0  0
    7.0812   -4.8305   27.1384 C   0  0  0  0  0  0  0  0  0  0  0  0
    7.2503   -5.4056   28.7733 Cl  0  0  0  0  0  0  0  0  0  0  0  0
    6.7431   -5.7213   26.1148 C   0  0  0  0  0  0  0  0  0  0  0  0
    6.5867   -6.7698   26.3564 H   0  0  0  0  0  0  0  0  0  0  0  0
    6.6112   -5.2527   24.8027 C   0  0  0  0  0  0  0  0  0  0  0  0
    6.3367   -5.9424   24.0127 H   0  0  0  0  0  0  0  0  0  0  0  0
    8.6581   -2.0926   22.9560 C   0  0  0  0  0  0  0  0  0  0  0  0
    9.1720   -2.6579   23.7306 H   0  0  0  0  0  0  0  0  0  0  0  0
    9.2898   -1.0533   22.3291 C   0  0  0  0  0  0  0  0  0  0  0  0
   10.2882   -0.7347   22.5733 H   0  0  0  0  0  0  0  0  0  0  0  0
    8.6741   -0.2621   21.2837 C   0  0  0  0  0  0  0  0  0  0  0  0
    9.2171    0.6707   20.7138 O   0  0  0  0  0  0  0  0  0  0  0  0
    5.4354    0.6435   20.1564 C   0  0  0  0  0  0  0  0  0  0  0  0
    5.0211    0.6233   21.1680 H   0  0  0  0  0  0  0  0  0  0  0  0
    4.8031    1.3178   19.1057 C   0  0  0  0  0  0  0  0  0  0  0  0
    3.8683    1.8487   19.2630 H   0  0  0  0  0  0  0  0  0  0  0  0
  1  2  1  0
  2  3  2  0
  3  4  1  0
  4  5  1  0
  4  6  2  0
  6  7  1  0
  7  8  1  0
  8  9  1  0
  8 10  2  0
 10 11  1  0
 11 12  1  0
 12 13  2  0
 13 14  1  0
 13 15  1  0
 15 16  1  0
 15 17  2  0
 17 18  1  0
 17 19  1  0
 19 20  1  0
 19 21  2  0
 21 22  1  0
 10 23  1  0
 23 24  1  0
 23 25  2  0
 25 26  1  0
 25 27  1  0
 27 28  2  0
  6 29  1  0
 29 30  1  0
 29 31  2  0
 31 32  1  0
 31  2  1  0
 27  7  1  0
 21 12  1  0
M  END
>  <cnnaffinity>  (1) 
-5.53328

>  <filename>  (1) 
O=c1ccc(Oc2ccc(Cl)cc2)cn1-c1cccnc1

$$$$
