
     RDKit          3D

 31 33  0  0  0  0  0  0  0  0999 V2000
    4.9580    1.8696   16.9618 H   0  0  0  0  0  0  0  0  0  0  0  0
    5.4344    1.3302   17.7777 C   0  0  0  0  0  0  0  0  0  0  0  0
    6.5955    0.7251   17.4794 N   0  0  0  0  0  0  0  0  0  0  0  0
    7.2305    0.0709   18.4585 C   0  0  0  0  0  0  0  0  0  0  0  0
    8.1679   -0.4206   18.1894 H   0  0  0  0  0  0  0  0  0  0  0  0
    6.7319   -0.0318   19.7749 C   0  0  0  0  0  0  0  0  0  0  0  0
    7.4430   -0.7568   20.7691 N   0  0  0  0  0  0  0  0  0  0  0  0
    8.8283   -0.6712   21.0125 C   0  0  0  0  0  0  0  0  0  0  0  0
    9.4552    0.0375   20.4966 H   0  0  0  0  0  0  0  0  0  0  0  0
    9.1064   -1.5449   22.0059 C   0  0  0  0  0  0  0  0  0  0  0  0
   10.2861   -1.9881   22.5520 N   0  0  0  0  0  0  0  0  0  0  0  0
   10.9632   -1.2387   22.6130 H   0  0  0  0  0  0  0  0  0  0  0  0
   10.2244   -2.7752   23.7758 C   0  0  0  0  0  0  0  0  0  0  0  0
   11.2256   -3.1753   23.9742 H   0  0  0  0  0  0  0  0  0  0  0  0
    9.5948   -3.6586   23.6153 H   0  0  0  0  0  0  0  0  0  0  0  0
    9.6957   -1.9997   24.9698 C   0  0  0  0  0  0  0  0  0  0  0  0
   10.0338   -0.3047   25.1039 S   0  0  0  0  0  0  0  0  0  0  0  0
    9.1472   -0.1917   26.5672 C   0  0  0  0  0  0  0  0  0  0  0  0
    9.1111    0.7445   27.1068 H   0  0  0  0  0  0  0  0  0  0  0  0
    8.6021   -1.3799   26.9308 C   0  0  0  0  0  0  0  0  0  0  0  0
    7.9560   -1.4703   27.7976 H   0  0  0  0  0  0  0  0  0  0  0  0
    8.9304   -2.4307   26.0164 C   0  0  0  0  0  0  0  0  0  0  0  0
    8.6043   -3.4583   26.1458 H   0  0  0  0  0  0  0  0  0  0  0  0
    7.9284   -2.1312   22.3966 N   0  0  0  0  0  0  0  0  0  0  0  0
    7.7373   -2.5947   23.2625 H   0  0  0  0  0  0  0  0  0  0  0  0
    6.8763   -1.7108   21.6292 C   0  0  0  0  0  0  0  0  0  0  0  0
    5.7450   -2.1382   21.7053 O   0  0  0  0  0  0  0  0  0  0  0  0
    5.5065    0.5890   20.0705 C   0  0  0  0  0  0  0  0  0  0  0  0
    5.0863    0.5149   21.0736 H   0  0  0  0  0  0  0  0  0  0  0  0
    4.8562    1.2923   19.0515 C   0  0  0  0  0  0  0  0  0  0  0  0
    3.9217    1.8162   19.2274 H   0  0  0  0  0  0  0  0  0  0  0  0
  1  2  1  0
  2  3  2  0
  3  4  1  0
  4  5  1  0
  4  6  2  0
  6  7  1  0
  7  8  1  0
  8  9  1  0
  8 10  2  0
 10 11  1  0
 11 12  1  0
 11 13  1  0
 13 14  1  0
 13 15  1  0
 13 16  1  0
 16 17  1  0
 17 18  1  0
 18 19  1  0
 18 20  2  0
 20 21  1  0
 20 22  1  0
 22 23  1  0
 10 24  1  0
 24 25  1  0
 24 26  1  0
 26 27  2  0
  6 28  1  0
 28 29  1  0
 28 30  2  0
 30 31  1  0
 30  2  1  0
 26  7  1  0
 22 16  2  0
M  END
>  <cnnaffinity>  (1) 
-5.14981

>  <filename>  (1) 
O=c1[nH]c(NCc2cccs2)cn1-c1cccnc1

$$$$
