
     RDKit          3D

 46 49  0  0  0  0  0  0  0  0999 V2000
    5.4543   -7.7688   17.4898 O   0  0  0  0  0  0  0  0  0  0  0  0
    5.6831   -6.9928   18.3307 C   0  0  0  0  0  0  0  0  0  0  0  0
    5.3049   -4.2041   18.8675 N   0  0  0  0  0  0  0  0  0  0  0  0
    5.6770   -4.5285   19.9820 C   0  0  0  0  0  0  0  0  0  0  0  0
    6.0145   -3.5073   21.1126 C   0  0  0  0  0  0  0  0  0  0  0  0
    7.1799   -2.6142   20.6473 C   0  0  0  0  0  0  0  0  0  0  0  0
    7.5525   -1.4834   21.5060 C   0  0  0  0  0  0  0  0  0  0  0  0
    8.0385   -1.7014   22.6978 N   0  0  0  0  0  0  0  0  0  0  0  0
    8.2446   -0.4545   23.1733 C   0  0  0  0  0  0  0  0  0  0  0  0
    8.6086   -0.3745   24.6000 C   0  0  0  0  0  0  0  0  0  0  0  0
    9.6089    0.7037   25.0016 C   0  0  0  0  0  0  0  0  0  0  0  0
   10.0471    0.3654   26.4294 C   0  0  0  0  0  0  0  0  0  0  0  0
    8.8499    0.2849   27.3916 C   0  0  0  0  0  0  0  0  0  0  0  0
    9.2537   -0.1433   28.6299 F   0  0  0  0  0  0  0  0  0  0  0  0
    8.3062    1.5436   27.5483 F   0  0  0  0  0  0  0  0  0  0  0  0
    7.7322   -0.6373   26.9361 C   0  0  0  0  0  0  0  0  0  0  0  0
    7.3386   -0.3541   25.4872 C   0  0  0  0  0  0  0  0  0  0  0  0
    6.8559    0.6290   25.4108 H   0  0  0  0  0  0  0  0  0  0  0  0
    6.6159   -1.1021   25.1344 H   0  0  0  0  0  0  0  0  0  0  0  0
    6.8943   -0.4994   27.6276 H   0  0  0  0  0  0  0  0  0  0  0  0
    8.0930   -1.6676   27.0460 H   0  0  0  0  0  0  0  0  0  0  0  0
   10.8135    1.0690   26.7413 H   0  0  0  0  0  0  0  0  0  0  0  0
   10.5181   -0.6220   26.4549 H   0  0  0  0  0  0  0  0  0  0  0  0
   10.4783    0.7127   24.3329 H   0  0  0  0  0  0  0  0  0  0  0  0
    9.1558    1.7032   24.9518 H   0  0  0  0  0  0  0  0  0  0  0  0
    9.1011   -1.3407   24.7776 H   0  0  0  0  0  0  0  0  0  0  0  0
    7.9331    0.5278   22.3507 N   0  0  0  0  0  0  0  0  0  0  0  0
    7.5336   -0.1491   21.2358 N   0  0  0  0  0  0  0  0  0  0  0  0
    6.9172    0.5057   20.1268 C   0  0  0  0  0  0  0  0  0  0  0  0
    5.6565    1.0857   20.2865 C   0  0  0  0  0  0  0  0  0  0  0  0
    4.9980    1.5522   19.1471 C   0  0  0  0  0  0  0  0  0  0  0  0
    5.6299    1.4357   17.9023 C   0  0  0  0  0  0  0  0  0  0  0  0
    6.8615    0.9246   17.7495 N   0  0  0  0  0  0  0  0  0  0  0  0
    7.4960    0.4881   18.8449 C   0  0  0  0  0  0  0  0  0  0  0  0
    8.4989    0.0847   18.7041 H   0  0  0  0  0  0  0  0  0  0  0  0
    5.1246    1.7488   16.9917 H   0  0  0  0  0  0  0  0  0  0  0  0
    4.0098    1.9938   19.2141 H   0  0  0  0  0  0  0  0  0  0  0  0
    5.2139    1.1409   21.2823 H   0  0  0  0  0  0  0  0  0  0  0  0
    6.9752   -2.2420   19.6408 H   0  0  0  0  0  0  0  0  0  0  0  0
    8.0866   -3.2298   20.6713 H   0  0  0  0  0  0  0  0  0  0  0  0
    6.2428   -4.0439   22.0390 H   0  0  0  0  0  0  0  0  0  0  0  0
    5.1049   -2.9141   21.2801 H   0  0  0  0  0  0  0  0  0  0  0  0
    5.7158   -5.9070   20.4693 N   0  0  0  0  0  0  0  0  0  0  0  0
    5.2036   -6.8939   19.5939 N   0  0  0  0  0  0  0  0  0  0  0  0
    4.2727   -6.7086   19.2625 H   0  0  0  0  0  0  0  0  0  0  0  0
    6.6591   -6.1309   20.7662 H   0  0  0  0  0  0  0  0  0  0  0  0
  1  2  2  0
  2  3  1  0
  3  4  2  0
  4  5  1  0
  5  6  1  0
  6  7  1  0
  7  8  2  0
  8  9  1  0
  9 10  1  0
 10 11  1  0
 11 12  1  0
 12 13  1  0
 13 14  1  0
 13 15  1  0
 13 16  1  0
 16 17  1  0
 17 18  1  0
 17 19  1  0
 16 20  1  0
 16 21  1  0
 12 22  1  0
 12 23  1  0
 11 24  1  0
 11 25  1  0
 10 26  1  0
  9 27  2  0
 27 28  1  0
 28 29  1  0
 29 30  2  0
 30 31  1  0
 31 32  2  0
 32 33  1  0
 33 34  2  0
 34 35  1  0
 32 36  1  0
 31 37  1  0
 30 38  1  0
  6 39  1  0
  6 40  1  0
  5 41  1  0
  5 42  1  0
  4 43  1  0
 43 44  1  0
 44 45  1  0
 43 46  1  0
 44  2  1  0
 28  7  1  0
 34 29  1  0
 17 10  1  0
M  END
>  <cnnaffinity>  (1) 
-5.77317

>  <filename>  (1) 
O=c1nc(CCc2nc(C3CCC(F)(F)CC3)nn2-c2cccnc2)[nH][nH]1

$$$$
