
     RDKit          3D

 31 33  0  0  0  0  0  0  0  0999 V2000
    4.9231    1.8494   16.9391 H   0  0  0  0  0  0  0  0  0  0  0  0
    5.3965    1.3452   17.7792 C   0  0  0  0  0  0  0  0  0  0  0  0
    6.5647    0.7368   17.5155 N   0  0  0  0  0  0  0  0  0  0  0  0
    7.1657    0.1001   18.5289 C   0  0  0  0  0  0  0  0  0  0  0  0
    8.1201   -0.3702   18.2861 H   0  0  0  0  0  0  0  0  0  0  0  0
    6.6359   -0.0105   19.8374 C   0  0  0  0  0  0  0  0  0  0  0  0
    7.3665   -0.7311   20.9220 C   0  0  0  0  0  0  0  0  0  0  0  0
    8.6844   -0.4360   21.1964 C   0  0  0  0  0  0  0  0  0  0  0  0
    9.1859    0.3264   20.6001 H   0  0  0  0  0  0  0  0  0  0  0  0
    9.4237   -1.0575   22.2536 C   0  0  0  0  0  0  0  0  0  0  0  0
   10.8771   -0.7320   22.4335 C   0  0  0  0  0  0  0  0  0  0  0  0
   11.8460   -1.7226   22.1939 C   0  0  0  0  0  0  0  0  0  0  0  0
   11.5189   -2.7258   21.9509 H   0  0  0  0  0  0  0  0  0  0  0  0
   13.2118   -1.4448   22.2584 C   0  0  0  0  0  0  0  0  0  0  0  0
   13.9229   -2.2297   22.0244 H   0  0  0  0  0  0  0  0  0  0  0  0
   13.6496   -0.1857   22.6646 C   0  0  0  0  0  0  0  0  0  0  0  0
   14.7040    0.0424   22.7879 H   0  0  0  0  0  0  0  0  0  0  0  0
   12.7130    0.8173   22.9238 C   0  0  0  0  0  0  0  0  0  0  0  0
   13.3064    2.3623   23.4387 Cl  0  0  0  0  0  0  0  0  0  0  0  0
   11.3370    0.5657   22.7600 C   0  0  0  0  0  0  0  0  0  0  0  0
   10.2019    1.8495   23.0232 Cl  0  0  0  0  0  0  0  0  0  0  0  0
    8.7846   -1.9784   23.0450 C   0  0  0  0  0  0  0  0  0  0  0  0
    9.2929   -2.5079   23.8565 H   0  0  0  0  0  0  0  0  0  0  0  0
    7.4692   -2.2612   22.7953 N   0  0  0  0  0  0  0  0  0  0  0  0
    6.9233   -2.9690   23.2668 H   0  0  0  0  0  0  0  0  0  0  0  0
    6.7002   -1.7890   21.7205 C   0  0  0  0  0  0  0  0  0  0  0  0
    5.6183   -2.3297   21.5525 O   0  0  0  0  0  0  0  0  0  0  0  0
    5.4096    0.6358   20.0780 C   0  0  0  0  0  0  0  0  0  0  0  0
    4.9777    0.6132   21.0781 H   0  0  0  0  0  0  0  0  0  0  0  0
    4.7893    1.3310   19.0363 C   0  0  0  0  0  0  0  0  0  0  0  0
    3.8562    1.8621   19.1785 H   0  0  0  0  0  0  0  0  0  0  0  0
  1  2  1  0
  2  3  2  0
  3  4  1  0
  4  5  1  0
  4  6  2  0
  6  7  1  0
  7  8  2  0
  8  9  1  0
  8 10  1  0
 10 11  1  0
 11 12  2  0
 12 13  1  0
 12 14  1  0
 14 15  1  0
 14 16  2  0
 16 17  1  0
 16 18  1  0
 18 19  1  0
 18 20  2  0
 20 21  1  0
 10 22  2  0
 22 23  1  0
 22 24  1  0
 24 25  1  0
 24 26  1  0
 26 27  2  0
  6 28  1  0
 28 29  1  0
 28 30  2  0
 30 31  1  0
 30  2  1  0
 26  7  1  0
 20 11  1  0
M  END
>  <cnnaffinity>  (1) 
-5.5002

>  <filename>  (1) 
O=c1[nH]cc(-c2cccc(Cl)c2Cl)cc1-c1cccnc1

$$$$
