
     RDKit          3D

 26 28  0  0  0  0  0  0  0  0999 V2000
    4.9075    1.7766   17.0010 H   0  0  0  0  0  0  0  0  0  0  0  0
    5.3974    1.2943   17.8424 C   0  0  0  0  0  0  0  0  0  0  0  0
    6.5634    0.6779   17.5777 N   0  0  0  0  0  0  0  0  0  0  0  0
    7.1801    0.0586   18.5931 C   0  0  0  0  0  0  0  0  0  0  0  0
    8.1291   -0.4300   18.3835 H   0  0  0  0  0  0  0  0  0  0  0  0
    6.6673    0.0015   19.9094 C   0  0  0  0  0  0  0  0  0  0  0  0
    7.3570   -0.6860   20.9496 N   0  0  0  0  0  0  0  0  0  0  0  0
    6.7727   -1.4502   21.9501 C   0  0  0  0  0  0  0  0  0  0  0  0
    5.7046   -1.5903   21.9970 H   0  0  0  0  0  0  0  0  0  0  0  0
    7.7435   -1.9415   22.7587 C   0  0  0  0  0  0  0  0  0  0  0  0
    7.5963   -2.7798   23.9209 C   0  0  0  0  0  0  0  0  0  0  0  0
    8.9425   -3.3412   24.8686 S   0  0  0  0  0  0  0  0  0  0  0  0
    7.8676   -4.1837   25.9298 C   0  0  0  0  0  0  0  0  0  0  0  0
    8.4596   -5.0849   27.2687 Cl  0  0  0  0  0  0  0  0  0  0  0  0
    6.5596   -4.0436   25.5801 C   0  0  0  0  0  0  0  0  0  0  0  0
    5.7313   -4.4898   26.1137 H   0  0  0  0  0  0  0  0  0  0  0  0
    6.4075   -3.2353   24.4246 C   0  0  0  0  0  0  0  0  0  0  0  0
    5.4435   -2.9958   23.9827 H   0  0  0  0  0  0  0  0  0  0  0  0
    8.9480   -1.4724   22.2418 N   0  0  0  0  0  0  0  0  0  0  0  0
    9.8752   -1.6231   22.5895 H   0  0  0  0  0  0  0  0  0  0  0  0
    8.7556   -0.6842   21.1419 C   0  0  0  0  0  0  0  0  0  0  0  0
    9.5943   -0.1134   20.4752 O   0  0  0  0  0  0  0  0  0  0  0  0
    5.4471    0.6451   20.1621 C   0  0  0  0  0  0  0  0  0  0  0  0
    5.0142    0.6304   21.1628 H   0  0  0  0  0  0  0  0  0  0  0  0
    4.8075    1.3115   19.1111 C   0  0  0  0  0  0  0  0  0  0  0  0
    3.8733    1.8437   19.2675 H   0  0  0  0  0  0  0  0  0  0  0  0
  1  2  1  0
  2  3  2  0
  3  4  1  0
  4  5  1  0
  4  6  2  0
  6  7  1  0
  7  8  1  0
  8  9  1  0
  8 10  2  0
 10 11  1  0
 11 12  1  0
 12 13  1  0
 13 14  1  0
 13 15  2  0
 15 16  1  0
 15 17  1  0
 17 18  1  0
 10 19  1  0
 19 20  1  0
 19 21  1  0
 21 22  2  0
  6 23  1  0
 23 24  1  0
 23 25  2  0
 25 26  1  0
 25  2  1  0
 21  7  1  0
 17 11  2  0
M  END
>  <cnnaffinity>  (1) 
-5.49407

>  <filename>  (1) 
O=c1[nH]c(-c2ccc(Cl)s2)cn1-c1cccnc1

$$$$
