
     RDKit          3D

 27 29  0  0  0  0  0  0  0  0999 V2000
    4.9528    1.8345   16.9951 H   0  0  0  0  0  0  0  0  0  0  0  0
    5.3828    1.2874   17.8313 C   0  0  0  0  0  0  0  0  0  0  0  0
    6.5309    0.6418   17.5820 N   0  0  0  0  0  0  0  0  0  0  0  0
    7.1183    0.0192   18.6070 C   0  0  0  0  0  0  0  0  0  0  0  0
    8.0842   -0.4441   18.4082 H   0  0  0  0  0  0  0  0  0  0  0  0
    6.5807   -0.0392   19.9082 C   0  0  0  0  0  0  0  0  0  0  0  0
    7.3170   -0.7604   20.9990 C   0  0  0  0  0  0  0  0  0  0  0  0
    6.5875   -1.5370   21.7654 N   0  0  0  0  0  0  0  0  0  0  0  0
    7.1881   -2.2408   22.7811 N   0  0  0  0  0  0  0  0  0  0  0  0
    6.3679   -3.0691   23.5682 C   0  0  0  0  0  0  0  0  0  0  0  0
    4.9985   -3.3412   23.3628 C   0  0  0  0  0  0  0  0  0  0  0  0
    4.3802   -2.9831   22.5562 H   0  0  0  0  0  0  0  0  0  0  0  0
    4.5083   -4.1154   24.3189 N   0  0  0  0  0  0  0  0  0  0  0  0
    5.5495   -4.3486   25.1280 N   0  0  0  0  0  0  0  0  0  0  0  0
    5.4167   -4.9367   25.9379 H   0  0  0  0  0  0  0  0  0  0  0  0
    6.6939   -3.7651   24.7177 C   0  0  0  0  0  0  0  0  0  0  0  0
    7.6326   -3.9371   25.2196 H   0  0  0  0  0  0  0  0  0  0  0  0
    8.5351   -2.1290   23.0417 C   0  0  0  0  0  0  0  0  0  0  0  0
    8.8914   -2.7151   23.8904 H   0  0  0  0  0  0  0  0  0  0  0  0
    9.3551   -1.3654   22.3028 C   0  0  0  0  0  0  0  0  0  0  0  0
   10.4164   -1.2971   22.5003 H   0  0  0  0  0  0  0  0  0  0  0  0
    8.8247   -0.5731   21.1895 C   0  0  0  0  0  0  0  0  0  0  0  0
    9.5401    0.1490   20.5085 O   0  0  0  0  0  0  0  0  0  0  0  0
    5.3595    0.6137   20.1405 C   0  0  0  0  0  0  0  0  0  0  0  0
    4.9178    0.5898   21.1373 H   0  0  0  0  0  0  0  0  0  0  0  0
    4.7597    1.3049   19.0836 C   0  0  0  0  0  0  0  0  0  0  0  0
    3.8518    1.8853   19.2184 H   0  0  0  0  0  0  0  0  0  0  0  0
  1  2  1  0
  2  3  2  0
  3  4  1  0
  4  5  1  0
  4  6  2  0
  6  7  1  0
  7  8  2  0
  8  9  1  0
  9 10  1  0
 10 11  1  0
 11 12  1  0
 11 13  2  0
 13 14  1  0
 14 15  1  0
 14 16  1  0
 16 17  1  0
  9 18  1  0
 18 19  1  0
 18 20  2  0
 20 21  1  0
 20 22  1  0
 22 23  2  0
  6 24  1  0
 24 25  1  0
 24 26  2  0
 26 27  1  0
 26  2  1  0
 22  7  1  0
 16 10  2  0
M  END
>  <cnnaffinity>  (1) 
-4.85947

>  <filename>  (1) 
O=c1ccn(-c2cn[nH]c2)nc1-c1cccnc1

$$$$
