
     RDKit          3D

 47 50  0  0  0  0  0  0  0  0999 V2000
    7.2792    1.4916   25.8784 O   0  0  0  0  0  0  0  0  0  0  0  0
    8.0616    1.7433   24.9795 C   0  0  0  0  0  0  0  0  0  0  0  0
    9.3935    2.0557   25.0658 N   0  0  0  0  0  0  0  0  0  0  0  0
    9.9573    2.2585   23.8078 C   0  0  0  0  0  0  0  0  0  0  0  0
    8.9677    2.0933   22.9009 C   0  0  0  0  0  0  0  0  0  0  0  0
    9.0476    2.0131   21.4130 C   0  0  0  0  0  0  0  0  0  0  0  0
    9.5268    0.6161   20.9335 C   0  0  0  0  0  0  0  0  0  0  0  0
    8.6406   -0.4884   21.4063 C   0  0  0  0  0  0  0  0  0  0  0  0
    8.8686   -1.3108   22.4133 N   0  0  0  0  0  0  0  0  0  0  0  0
    7.6655   -1.9189   22.5903 C   0  0  0  0  0  0  0  0  0  0  0  0
    7.3899   -2.8121   23.7638 C   0  0  0  0  0  0  0  0  0  0  0  0
    6.7717   -1.9921   24.9522 C   0  0  0  0  0  0  0  0  0  0  0  0
    5.9072   -2.8578   25.9022 C   0  0  0  0  0  0  0  0  0  0  0  0
    6.3603   -4.3079   25.9343 C   0  0  0  0  0  0  0  0  0  0  0  0
    7.6435   -4.3584   26.4309 F   0  0  0  0  0  0  0  0  0  0  0  0
    5.5816   -5.0073   26.8184 F   0  0  0  0  0  0  0  0  0  0  0  0
    6.3228   -4.9944   24.5634 C   0  0  0  0  0  0  0  0  0  0  0  0
    6.5072   -4.0193   23.3772 C   0  0  0  0  0  0  0  0  0  0  0  0
    6.9418   -4.5457   22.5200 H   0  0  0  0  0  0  0  0  0  0  0  0
    5.5342   -3.6339   23.0385 H   0  0  0  0  0  0  0  0  0  0  0  0
    5.3629   -5.5144   24.4740 H   0  0  0  0  0  0  0  0  0  0  0  0
    7.1074   -5.7580   24.5821 H   0  0  0  0  0  0  0  0  0  0  0  0
    5.9172   -2.4734   26.9262 H   0  0  0  0  0  0  0  0  0  0  0  0
    4.8623   -2.8675   25.5684 H   0  0  0  0  0  0  0  0  0  0  0  0
    7.5979   -1.5298   25.5056 H   0  0  0  0  0  0  0  0  0  0  0  0
    6.1522   -1.1624   24.5780 H   0  0  0  0  0  0  0  0  0  0  0  0
    8.3745   -3.1689   24.0844 H   0  0  0  0  0  0  0  0  0  0  0  0
    6.7296   -1.5584   21.7303 N   0  0  0  0  0  0  0  0  0  0  0  0
    7.3662   -0.6492   20.9508 N   0  0  0  0  0  0  0  0  0  0  0  0
    6.6615    0.0086   19.9045 C   0  0  0  0  0  0  0  0  0  0  0  0
    5.4408    0.6403   20.1630 C   0  0  0  0  0  0  0  0  0  0  0  0
    4.8117    1.3087   19.1084 C   0  0  0  0  0  0  0  0  0  0  0  0
    5.3997    1.2952   17.8381 C   0  0  0  0  0  0  0  0  0  0  0  0
    6.5558    0.6670   17.5777 N   0  0  0  0  0  0  0  0  0  0  0  0
    7.1672    0.0470   18.5927 C   0  0  0  0  0  0  0  0  0  0  0  0
    8.1114   -0.4415   18.3597 H   0  0  0  0  0  0  0  0  0  0  0  0
    4.9277    1.7943   16.9942 H   0  0  0  0  0  0  0  0  0  0  0  0
    3.8795    1.8393   19.2580 H   0  0  0  0  0  0  0  0  0  0  0  0
    5.0111    0.6007   21.1656 H   0  0  0  0  0  0  0  0  0  0  0  0
   10.5282    0.3998   21.3121 H   0  0  0  0  0  0  0  0  0  0  0  0
    9.5743    0.5944   19.8442 H   0  0  0  0  0  0  0  0  0  0  0  0
    8.0765    2.2520   20.9629 H   0  0  0  0  0  0  0  0  0  0  0  0
    9.7507    2.7730   21.0640 H   0  0  0  0  0  0  0  0  0  0  0  0
    7.8146    1.7863   23.6306 N   0  0  0  0  0  0  0  0  0  0  0  0
    6.9084    1.4894   23.3263 H   0  0  0  0  0  0  0  0  0  0  0  0
   11.0056    2.4725   23.6472 H   0  0  0  0  0  0  0  0  0  0  0  0
    9.7981    2.0847   25.9821 H   0  0  0  0  0  0  0  0  0  0  0  0
  1  2  2  0
  2  3  1  0
  3  4  1  0
  4  5  2  0
  5  6  1  0
  6  7  1  0
  7  8  1  0
  8  9  2  0
  9 10  1  0
 10 11  1  0
 11 12  1  0
 12 13  1  0
 13 14  1  0
 14 15  1  0
 14 16  1  0
 14 17  1  0
 17 18  1  0
 18 19  1  0
 18 20  1  0
 17 21  1  0
 17 22  1  0
 13 23  1  0
 13 24  1  0
 12 25  1  0
 12 26  1  0
 11 27  1  0
 10 28  2  0
 28 29  1  0
 29 30  1  0
 30 31  2  0
 31 32  1  0
 32 33  2  0
 33 34  1  0
 34 35  2  0
 35 36  1  0
 33 37  1  0
 32 38  1  0
 31 39  1  0
  7 40  1  0
  7 41  1  0
  6 42  1  0
  6 43  1  0
  5 44  1  0
 44 45  1  0
  4 46  1  0
  3 47  1  0
 44  2  1  0
 29  8  1  0
 35 30  1  0
 18 11  1  0
M  END
>  <cnnaffinity>  (1) 
-5.97356

>  <filename>  (1) 
O=c1[nH]cc(CCc2nc(C3CCC(F)(F)CC3)nn2-c2cccnc2)[nH]1

$$$$
