
     RDKit          3D

 33 35  0  0  0  0  0  0  0  0999 V2000
    4.9266    1.8238   16.9442 H   0  0  0  0  0  0  0  0  0  0  0  0
    5.3742    1.3298   17.8020 C   0  0  0  0  0  0  0  0  0  0  0  0
    6.5400    0.7054   17.5719 N   0  0  0  0  0  0  0  0  0  0  0  0
    7.1329    0.1086   18.6071 C   0  0  0  0  0  0  0  0  0  0  0  0
    8.0633   -0.4322   18.4237 H   0  0  0  0  0  0  0  0  0  0  0  0
    6.6141    0.1348   19.9063 C   0  0  0  0  0  0  0  0  0  0  0  0
    7.3696   -0.5672   20.9592 C   0  0  0  0  0  0  0  0  0  0  0  0
    8.0114   -1.6278   20.5645 N   0  0  0  0  0  0  0  0  0  0  0  0
    8.5418   -2.4335   21.5205 C   0  0  0  0  0  0  0  0  0  0  0  0
    8.8085   -3.6034   21.3723 O   0  0  0  0  0  0  0  0  0  0  0  0
    8.7935   -1.8707   22.7797 N   0  0  0  0  0  0  0  0  0  0  0  0
    9.1008   -2.6145   23.3778 H   0  0  0  0  0  0  0  0  0  0  0  0
    8.0595   -0.8143   23.2473 C   0  0  0  0  0  0  0  0  0  0  0  0
    8.0793   -0.4809   24.6909 C   0  0  0  0  0  0  0  0  0  0  0  0
    6.9006   -0.0198   25.3073 C   0  0  0  0  0  0  0  0  0  0  0  0
    5.9747    0.0097   24.7371 H   0  0  0  0  0  0  0  0  0  0  0  0
    6.9001    0.3651   26.6414 C   0  0  0  0  0  0  0  0  0  0  0  0
    5.9814    0.7248   27.0900 H   0  0  0  0  0  0  0  0  0  0  0  0
    8.0744    0.2930   27.4095 C   0  0  0  0  0  0  0  0  0  0  0  0
    8.0140    0.7829   28.8438 C   0  0  0  0  0  0  0  0  0  0  0  0
    8.0212    2.1303   28.9052 F   0  0  0  0  0  0  0  0  0  0  0  0
    9.0184    0.3434   29.6194 F   0  0  0  0  0  0  0  0  0  0  0  0
    6.8640    0.3927   29.4364 F   0  0  0  0  0  0  0  0  0  0  0  0
    9.2482   -0.1897   26.8086 C   0  0  0  0  0  0  0  0  0  0  0  0
   10.1658   -0.2690   27.3832 H   0  0  0  0  0  0  0  0  0  0  0  0
    9.2473   -0.5820   25.4714 C   0  0  0  0  0  0  0  0  0  0  0  0
   10.1625   -0.9567   25.0210 H   0  0  0  0  0  0  0  0  0  0  0  0
    7.3417   -0.1196   22.3088 C   0  0  0  0  0  0  0  0  0  0  0  0
    6.7737    0.7564   22.5739 H   0  0  0  0  0  0  0  0  0  0  0  0
    5.3781    0.7493   20.1285 C   0  0  0  0  0  0  0  0  0  0  0  0
    4.9186    0.7101   21.1178 H   0  0  0  0  0  0  0  0  0  0  0  0
    4.7466    1.3641   19.0517 C   0  0  0  0  0  0  0  0  0  0  0  0
    3.8007    1.8798   19.1711 H   0  0  0  0  0  0  0  0  0  0  0  0
  1  2  1  0
  2  3  2  0
  3  4  1  0
  4  5  1  0
  4  6  2  0
  6  7  1  0
  7  8  2  0
  8  9  1  0
  9 10  2  0
  9 11  1  0
 11 12  1  0
 11 13  1  0
 13 14  1  0
 14 15  2  0
 15 16  1  0
 15 17  1  0
 17 18  1  0
 17 19  2  0
 19 20  1  0
 20 21  1  0
 20 22  1  0
 20 23  1  0
 19 24  1  0
 24 25  1  0
 24 26  2  0
 26 27  1  0
 13 28  2  0
 28 29  1  0
  6 30  1  0
 30 31  1  0
 30 32  2  0
 32 33  1  0
 32  2  1  0
 28  7  1  0
 26 14  1  0
M  END
>  <cnnaffinity>  (1) 
-5.09459

>  <filename>  (1) 
O=c1nc(-c2cccnc2)cc(-c2ccc(C(F)(F)F)cc2)[nH]1

$$$$
