
     RDKit          3D

 33 36  0  0  0  0  0  0  0  0999 V2000
    4.9400    1.8057   16.9829 H   0  0  0  0  0  0  0  0  0  0  0  0
    5.3880    1.2983   17.8357 C   0  0  0  0  0  0  0  0  0  0  0  0
    6.5393    0.6624   17.5817 N   0  0  0  0  0  0  0  0  0  0  0  0
    7.1285    0.0291   18.5988 C   0  0  0  0  0  0  0  0  0  0  0  0
    8.1041   -0.4129   18.4012 H   0  0  0  0  0  0  0  0  0  0  0  0
    6.5962   -0.0336   19.8990 C   0  0  0  0  0  0  0  0  0  0  0  0
    7.3264   -0.7502   20.9907 C   0  0  0  0  0  0  0  0  0  0  0  0
    6.5871   -1.4955   21.7600 N   0  0  0  0  0  0  0  0  0  0  0  0
    7.1687   -2.2062   22.7953 N   0  0  0  0  0  0  0  0  0  0  0  0
    6.3021   -3.0058   23.5406 C   0  0  0  0  0  0  0  0  0  0  0  0
    6.7857   -3.6676   24.6458 O   0  0  0  0  0  0  0  0  0  0  0  0
    5.7130   -4.3255   25.1960 C   0  0  0  0  0  0  0  0  0  0  0  0
    5.7093   -5.1963   26.2916 C   0  0  0  0  0  0  0  0  0  0  0  0
    6.6155   -5.4628   26.8268 H   0  0  0  0  0  0  0  0  0  0  0  0
    4.4676   -5.7263   26.6594 C   0  0  0  0  0  0  0  0  0  0  0  0
    4.4083   -6.4083   27.5020 H   0  0  0  0  0  0  0  0  0  0  0  0
    3.2791   -5.4029   25.9750 C   0  0  0  0  0  0  0  0  0  0  0  0
    2.3346   -5.8313   26.2988 H   0  0  0  0  0  0  0  0  0  0  0  0
    3.3074   -4.5553   24.8745 C   0  0  0  0  0  0  0  0  0  0  0  0
    2.4002   -4.2873   24.3444 H   0  0  0  0  0  0  0  0  0  0  0  0
    4.5519   -4.0452   24.4532 C   0  0  0  0  0  0  0  0  0  0  0  0
    4.9837   -3.2535   23.3451 C   0  0  0  0  0  0  0  0  0  0  0  0
    4.4150   -2.9456   22.4833 H   0  0  0  0  0  0  0  0  0  0  0  0
    8.5327   -2.1240   23.0549 C   0  0  0  0  0  0  0  0  0  0  0  0
    8.8731   -2.7204   23.8971 H   0  0  0  0  0  0  0  0  0  0  0  0
    9.3497   -1.3648   22.3102 C   0  0  0  0  0  0  0  0  0  0  0  0
   10.4165   -1.2846   22.4769 H   0  0  0  0  0  0  0  0  0  0  0  0
    8.8224   -0.5755   21.1968 C   0  0  0  0  0  0  0  0  0  0  0  0
    9.5347    0.1501   20.5169 O   0  0  0  0  0  0  0  0  0  0  0  0
    5.3864    0.6279   20.1491 C   0  0  0  0  0  0  0  0  0  0  0  0
    4.9716    0.6179   21.1588 H   0  0  0  0  0  0  0  0  0  0  0  0
    4.7812    1.3199   19.0971 C   0  0  0  0  0  0  0  0  0  0  0  0
    3.8599    1.8739   19.2279 H   0  0  0  0  0  0  0  0  0  0  0  0
  1  2  1  0
  2  3  2  0
  3  4  1  0
  4  5  1  0
  4  6  2  0
  6  7  1  0
  7  8  2  0
  8  9  1  0
  9 10  1  0
 10 11  1  0
 11 12  1  0
 12 13  2  0
 13 14  1  0
 13 15  1  0
 15 16  1  0
 15 17  2  0
 17 18  1  0
 17 19  1  0
 19 20  1  0
 19 21  2  0
 21 22  1  0
 22 23  1  0
  9 24  1  0
 24 25  1  0
 24 26  2  0
 26 27  1  0
 26 28  1  0
 28 29  2  0
  6 30  1  0
 30 31  1  0
 30 32  2  0
 32 33  1  0
 32  2  1  0
 28  7  1  0
 22 10  2  0
 21 12  1  0
M  END
>  <cnnaffinity>  (1) 
-5.20829

>  <filename>  (1) 
O=c1ccn(-c2cc3ccccc3o2)nc1-c1cccnc1

$$$$
