
     RDKit          3D

 36 39  0  0  0  0  0  0  0  0999 V2000
    5.2380    2.2146   16.4289 H   0  0  0  0  0  0  0  0  0  0  0  0
    5.3870    1.5094   17.2440 C   0  0  0  0  0  0  0  0  0  0  0  0
    6.3534    0.5976   17.0579 N   0  0  0  0  0  0  0  0  0  0  0  0
    6.5869   -0.2544   18.0643 C   0  0  0  0  0  0  0  0  0  0  0  0
    7.3601   -1.0030   17.9049 H   0  0  0  0  0  0  0  0  0  0  0  0
    5.9231   -0.2217   19.3083 C   0  0  0  0  0  0  0  0  0  0  0  0
    6.4069   -1.0262   20.4629 C   0  0  0  0  0  0  0  0  0  0  0  0
    6.9492   -0.3975   21.5666 C   0  0  0  0  0  0  0  0  0  0  0  0
    6.9917    0.6918   21.5974 H   0  0  0  0  0  0  0  0  0  0  0  0
    7.5296   -1.1171   22.6592 C   0  0  0  0  0  0  0  0  0  0  0  0
    7.8292   -0.4305   23.9568 C   0  0  0  0  0  0  0  0  0  0  0  0
    6.7317   -0.0290   24.7187 C   0  0  0  0  0  0  0  0  0  0  0  0
    5.7406   -0.1106   24.2897 H   0  0  0  0  0  0  0  0  0  0  0  0
    6.7766    0.4584   25.9946 N   0  0  0  0  0  0  0  0  0  0  0  0
    7.9652    0.5932   26.5576 C   0  0  0  0  0  0  0  0  0  0  0  0
    7.9666    0.9533   27.5886 H   0  0  0  0  0  0  0  0  0  0  0  0
    9.1841    0.3036   25.8856 C   0  0  0  0  0  0  0  0  0  0  0  0
   10.5148    0.5135   26.4162 C   0  0  0  0  0  0  0  0  0  0  0  0
   10.7037   -0.1762   27.3216 H   0  0  0  0  0  0  0  0  0  0  0  0
   11.7565    0.2352   24.9715 C   0  0  0  0  0  0  0  0  0  0  0  0
   12.4916   -0.6238   25.3164 H   0  0  0  0  0  0  0  0  0  0  0  0
   11.4601    0.4111   24.9056 C   0  0  0  0  0  0  0  0  0  0  0  0
   12.3758    1.2866   24.7737 H   0  0  0  0  0  0  0  0  0  0  0  0
   10.4173   -0.2776   23.8791 C   0  0  0  0  0  0  0  0  0  0  0  0
   10.4542    0.0995   22.8630 H   0  0  0  0  0  0  0  0  0  0  0  0
    9.1370   -0.1773   24.5217 C   0  0  0  0  0  0  0  0  0  0  0  0
    7.5711   -2.4842   22.5784 C   0  0  0  0  0  0  0  0  0  0  0  0
    8.0136   -3.1018   23.3608 H   0  0  0  0  0  0  0  0  0  0  0  0
    7.0211   -3.1126   21.4980 N   0  0  0  0  0  0  0  0  0  0  0  0
    6.9246   -4.1122   21.4012 H   0  0  0  0  0  0  0  0  0  0  0  0
    6.3513   -2.5032   20.4293 C   0  0  0  0  0  0  0  0  0  0  0  0
    5.8234   -3.2487   19.6175 O   0  0  0  0  0  0  0  0  0  0  0  0
    4.8695    0.6965   19.4491 C   0  0  0  0  0  0  0  0  0  0  0  0
    4.2848    0.7197   20.3716 H   0  0  0  0  0  0  0  0  0  0  0  0
    4.5974    1.5758   18.3972 C   0  0  0  0  0  0  0  0  0  0  0  0
    3.8177    2.3269   18.4642 H   0  0  0  0  0  0  0  0  0  0  0  0
  1  2  1  0
  2  3  2  0
  3  4  1  0
  4  5  1  0
  4  6  2  0
  6  7  1  0
  7  8  2  0
  8  9  1  0
  8 10  1  0
 10 11  1  0
 11 12  2  0
 12 13  1  0
 12 14  1  0
 14 15  2  0
 15 16  1  0
 15 17  1  0
 17 18  2  0
 18 19  1  0
 18 20  1  0
 20 21  1  0
 20 22  2  0
 22 23  1  0
 22 24  1  0
 24 25  1  0
 24 26  2  0
 10 27  2  0
 27 28  1  0
 27 29  1  0
 29 30  1  0
 29 31  1  0
 31 32  2  0
  6 33  1  0
 33 34  1  0
 33 35  2  0
 35 36  1  0
 35  2  1  0
 31  7  1  0
 26 11  1  0
 26 17  1  0
M  END
>  <cnnaffinity>  (1) 
-5.39636

>  <filename>  (1) 
O=c1[nH]cc(-c2cncc3ccccc23)cc1-c1cccnc1

$$$$
