
     RDKit          3D

 46 49  0  0  0  0  0  0  0  0999 V2000
   13.8884    0.0839   25.9052 O   0  0  0  0  0  0  0  0  0  0  0  0
   13.0556    0.2060   25.0287 C   0  0  0  0  0  0  0  0  0  0  0  0
   11.6875   -0.2782   25.0341 C   0  0  0  0  0  0  0  0  0  0  0  0
   11.0335   -0.4553   23.8511 C   0  0  0  0  0  0  0  0  0  0  0  0
   11.6199   -0.0074   22.6118 C   0  0  0  0  0  0  0  0  0  0  0  0
   10.9316   -0.2623   21.2894 C   0  0  0  0  0  0  0  0  0  0  0  0
    9.9967    0.9095   20.8929 C   0  0  0  0  0  0  0  0  0  0  0  0
    8.9030    1.1226   21.8907 C   0  0  0  0  0  0  0  0  0  0  0  0
    8.8750    1.9911   22.8818 N   0  0  0  0  0  0  0  0  0  0  0  0
    7.8246    1.5669   23.6416 C   0  0  0  0  0  0  0  0  0  0  0  0
    7.4573    2.1937   24.9347 C   0  0  0  0  0  0  0  0  0  0  0  0
    8.3364    3.1021   25.5587 C   0  0  0  0  0  0  0  0  0  0  0  0
    7.9902    3.7169   26.7612 C   0  0  0  0  0  0  0  0  0  0  0  0
    6.7660    3.4116   27.3606 C   0  0  0  0  0  0  0  0  0  0  0  0
    6.3403    4.1653   28.8686 Cl  0  0  0  0  0  0  0  0  0  0  0  0
    5.8839    2.5020   26.7713 C   0  0  0  0  0  0  0  0  0  0  0  0
    6.2308    1.8937   25.5652 C   0  0  0  0  0  0  0  0  0  0  0  0
    5.5507    1.1756   25.1105 H   0  0  0  0  0  0  0  0  0  0  0  0
    4.9404    2.2752   27.2573 H   0  0  0  0  0  0  0  0  0  0  0  0
    8.6540    4.4332   27.2324 H   0  0  0  0  0  0  0  0  0  0  0  0
    9.2957    3.3302   25.0973 H   0  0  0  0  0  0  0  0  0  0  0  0
    7.1841    0.5262   23.1319 N   0  0  0  0  0  0  0  0  0  0  0  0
    7.8848    0.2415   22.0134 N   0  0  0  0  0  0  0  0  0  0  0  0
    7.3585   -0.6991   21.0253 C   0  0  0  0  0  0  0  0  0  0  0  0
    6.6494   -0.0140   19.8755 C   0  0  0  0  0  0  0  0  0  0  0  0
    5.4512    0.6661   20.1228 C   0  0  0  0  0  0  0  0  0  0  0  0
    4.8250    1.3213   19.0626 C   0  0  0  0  0  0  0  0  0  0  0  0
    5.4273    1.2914   17.8018 C   0  0  0  0  0  0  0  0  0  0  0  0
    6.5710    0.6398   17.5445 N   0  0  0  0  0  0  0  0  0  0  0  0
    7.1548    0.0034   18.5678 C   0  0  0  0  0  0  0  0  0  0  0  0
    8.0780   -0.5280   18.3275 H   0  0  0  0  0  0  0  0  0  0  0  0
    4.9696    1.8076   16.9601 H   0  0  0  0  0  0  0  0  0  0  0  0
    3.8916    1.8542   19.2021 H   0  0  0  0  0  0  0  0  0  0  0  0
    5.0339    0.6852   21.1327 H   0  0  0  0  0  0  0  0  0  0  0  0
    8.1820   -1.3261   20.6661 H   0  0  0  0  0  0  0  0  0  0  0  0
    6.6662   -1.3408   21.5772 H   0  0  0  0  0  0  0  0  0  0  0  0
   10.5802    1.8288   20.8028 H   0  0  0  0  0  0  0  0  0  0  0  0
    9.5494    0.7145   19.9149 H   0  0  0  0  0  0  0  0  0  0  0  0
   10.3510   -1.1922   21.3532 H   0  0  0  0  0  0  0  0  0  0  0  0
   11.6737   -0.4516   20.5031 H   0  0  0  0  0  0  0  0  0  0  0  0
   12.7623    0.7349   22.6751 C   0  0  0  0  0  0  0  0  0  0  0  0
   13.4447    0.8452   23.8582 N   0  0  0  0  0  0  0  0  0  0  0  0
   14.3953    1.1691   23.9567 H   0  0  0  0  0  0  0  0  0  0  0  0
   13.1441    1.3052   21.8344 H   0  0  0  0  0  0  0  0  0  0  0  0
   10.0514   -0.9289   23.8397 H   0  0  0  0  0  0  0  0  0  0  0  0
   11.3088   -0.6168   25.9831 H   0  0  0  0  0  0  0  0  0  0  0  0
  1  2  2  0
  2  3  1  0
  3  4  2  0
  4  5  1  0
  5  6  1  0
  6  7  1  0
  7  8  1  0
  8  9  2  0
  9 10  1  0
 10 11  1  0
 11 12  2  0
 12 13  1  0
 13 14  2  0
 14 15  1  0
 14 16  1  0
 16 17  2  0
 17 18  1  0
 16 19  1  0
 13 20  1  0
 12 21  1  0
 10 22  2  0
 22 23  1  0
 23 24  1  0
 24 25  1  0
 25 26  2  0
 26 27  1  0
 27 28  2  0
 28 29  1  0
 29 30  2  0
 30 31  1  0
 28 32  1  0
 27 33  1  0
 26 34  1  0
 24 35  1  0
 24 36  1  0
  7 37  1  0
  7 38  1  0
  6 39  1  0
  6 40  1  0
  5 41  2  0
 41 42  1  0
 42 43  1  0
 41 44  1  0
  4 45  1  0
  3 46  1  0
 42  2  1  0
 23  8  1  0
 30 25  1  0
 17 11  1  0
M  END
>  <cnnaffinity>  (1) 
-6.09518

>  <filename>  (1) 
O=c1ccc(CCc2nc(-c3ccc(Cl)cc3)nn2Cc2cccnc2)c[nH]1

$$$$
