
     RDKit          3D

 27 29  0  0  0  0  0  0  0  0999 V2000
    5.0196    1.8307   17.0367 H   0  0  0  0  0  0  0  0  0  0  0  0
    5.4636    1.2866   17.8710 C   0  0  0  0  0  0  0  0  0  0  0  0
    6.6077    0.6313   17.6180 N   0  0  0  0  0  0  0  0  0  0  0  0
    7.1791   -0.0340   18.6294 C   0  0  0  0  0  0  0  0  0  0  0  0
    8.0941   -0.5768   18.4079 H   0  0  0  0  0  0  0  0  0  0  0  0
    6.6499   -0.0945   19.9273 C   0  0  0  0  0  0  0  0  0  0  0  0
    7.3190   -0.8338   20.9648 N   0  0  0  0  0  0  0  0  0  0  0  0
    6.5303   -1.6158   21.7397 N   0  0  0  0  0  0  0  0  0  0  0  0
    7.0980   -2.3204   22.6992 C   0  0  0  0  0  0  0  0  0  0  0  0
    6.2876   -3.1766   23.5907 C   0  0  0  0  0  0  0  0  0  0  0  0
    4.9730   -3.2548   23.6698 N   0  0  0  0  0  0  0  0  0  0  0  0
    4.7105   -4.1313   24.6760 C   0  0  0  0  0  0  0  0  0  0  0  0
    3.6968   -4.3349   25.0018 H   0  0  0  0  0  0  0  0  0  0  0  0
    5.8792   -4.6225   25.1998 C   0  0  0  0  0  0  0  0  0  0  0  0
    6.0703   -5.3543   25.9719 H   0  0  0  0  0  0  0  0  0  0  0  0
    6.8715   -4.0072   24.5028 N   0  0  0  0  0  0  0  0  0  0  0  0
    7.8924   -3.9162   24.6051 H   0  0  0  0  0  0  0  0  0  0  0  0
    8.5415   -2.2912   22.9972 C   0  0  0  0  0  0  0  0  0  0  0  0
    9.1057   -2.9764   23.8743 O   0  0  0  0  0  0  0  0  0  0  0  0
    9.2921   -1.3711   22.1841 C   0  0  0  0  0  0  0  0  0  0  0  0
   10.3452   -1.2791   22.4241 H   0  0  0  0  0  0  0  0  0  0  0  0
    8.6754   -0.6855   21.1963 C   0  0  0  0  0  0  0  0  0  0  0  0
    9.2038    0.0233   20.5562 H   0  0  0  0  0  0  0  0  0  0  0  0
    5.4440    0.5723   20.1802 C   0  0  0  0  0  0  0  0  0  0  0  0
    4.9978    0.5202   21.1723 H   0  0  0  0  0  0  0  0  0  0  0  0
    4.8501    1.2805   19.1303 C   0  0  0  0  0  0  0  0  0  0  0  0
    3.9278    1.8321   19.2794 H   0  0  0  0  0  0  0  0  0  0  0  0
  1  2  1  0
  2  3  2  0
  3  4  1  0
  4  5  1  0
  4  6  2  0
  6  7  1  0
  7  8  1  0
  8  9  2  0
  9 10  1  0
 10 11  2  0
 11 12  1  0
 12 13  1  0
 12 14  2  0
 14 15  1  0
 14 16  1  0
 16 17  1  0
  9 18  1  0
 18 19  2  0
 18 20  1  0
 20 21  1  0
 20 22  2  0
 22 23  1  0
  6 24  1  0
 24 25  1  0
 24 26  2  0
 26 27  1  0
 26  2  1  0
 22  7  1  0
 16 10  1  0
M  END
>  <cnnaffinity>  (1) 
-4.96398

>  <filename>  (1) 
O=c1ccn(-c2cccnc2)nc1-c1ncc[nH]1

$$$$
