
     RDKit          3D

 33 35  0  0  0  0  0  0  0  0999 V2000
    4.9778    1.8178   16.9904 H   0  0  0  0  0  0  0  0  0  0  0  0
    5.4440    1.2940   17.8257 C   0  0  0  0  0  0  0  0  0  0  0  0
    6.5956    0.6549   17.5695 N   0  0  0  0  0  0  0  0  0  0  0  0
    7.1865    0.0284   18.5951 C   0  0  0  0  0  0  0  0  0  0  0  0
    8.1110   -0.4951   18.3627 H   0  0  0  0  0  0  0  0  0  0  0  0
    6.6770   -0.0185   19.9033 C   0  0  0  0  0  0  0  0  0  0  0  0
    7.4454   -0.7263   20.9603 C   0  0  0  0  0  0  0  0  0  0  0  0
    6.4690   -1.6957   22.0307 S   0  0  0  0  0  0  0  0  0  0  0  0
    7.6174   -2.2282   23.2254 C   0  0  0  0  0  0  0  0  0  0  0  0
    6.9592   -3.0476   24.3281 C   0  0  0  0  0  0  0  0  0  0  0  0
    6.1037   -2.4926   24.7313 H   0  0  0  0  0  0  0  0  0  0  0  0
    7.6539   -3.2038   25.1627 H   0  0  0  0  0  0  0  0  0  0  0  0
    6.5329   -4.3956   23.7666 C   0  0  0  0  0  0  0  0  0  0  0  0
    5.2107   -4.6300   23.3518 C   0  0  0  0  0  0  0  0  0  0  0  0
    4.4512   -3.8614   23.4936 H   0  0  0  0  0  0  0  0  0  0  0  0
    4.8579   -5.8273   22.7252 C   0  0  0  0  0  0  0  0  0  0  0  0
    3.8212   -6.0138   22.4615 H   0  0  0  0  0  0  0  0  0  0  0  0
    5.8399   -6.7777   22.4448 C   0  0  0  0  0  0  0  0  0  0  0  0
    5.5691   -7.6993   21.9561 H   0  0  0  0  0  0  0  0  0  0  0  0
    7.1664   -6.5614   22.8105 C   0  0  0  0  0  0  0  0  0  0  0  0
    7.9538   -7.2725   22.5749 H   0  0  0  0  0  0  0  0  0  0  0  0
    7.4850   -5.4052   23.5247 C   0  0  0  0  0  0  0  0  0  0  0  0
    9.1027   -5.2957   24.1718 Cl  0  0  0  0  0  0  0  0  0  0  0  0
    8.9484   -2.0588   23.1087 C   0  0  0  0  0  0  0  0  0  0  0  0
    9.6343   -2.5123   23.8101 H   0  0  0  0  0  0  0  0  0  0  0  0
    9.6224   -1.2836   22.0677 C   0  0  0  0  0  0  0  0  0  0  0  0
   10.8405   -1.1697   22.0533 O   0  0  0  0  0  0  0  0  0  0  0  0
    8.7887   -0.6432   21.0507 C   0  0  0  0  0  0  0  0  0  0  0  0
    9.3620   -0.0418   20.3615 H   0  0  0  0  0  0  0  0  0  0  0  0
    5.4599    0.6394   20.1466 C   0  0  0  0  0  0  0  0  0  0  0  0
    5.0270    0.6401   21.1493 H   0  0  0  0  0  0  0  0  0  0  0  0
    4.8393    1.3049   19.0881 C   0  0  0  0  0  0  0  0  0  0  0  0
    3.9048    1.8342   19.2338 H   0  0  0  0  0  0  0  0  0  0  0  0
  1  2  1  0
  2  3  2  0
  3  4  1  0
  4  5  1  0
  4  6  2  0
  6  7  1  0
  7  8  1  0
  8  9  1  0
  9 10  1  0
 10 11  1  0
 10 12  1  0
 10 13  1  0
 13 14  2  0
 14 15  1  0
 14 16  1  0
 16 17  1  0
 16 18  2  0
 18 19  1  0
 18 20  1  0
 20 21  1  0
 20 22  2  0
 22 23  1  0
  9 24  2  0
 24 25  1  0
 24 26  1  0
 26 27  2  0
 26 28  1  0
 28 29  1  0
  6 30  1  0
 30 31  1  0
 30 32  2  0
 32 33  1  0
 32  2  1  0
 28  7  2  0
 22 13  1  0
M  END
>  <cnnaffinity>  (1) 
-5.7262

>  <filename>  (1) 
O=c1cc(Cc2ccccc2Cl)sc(-c2cccnc2)c1

$$$$
