
     RDKit          3D

 37 40  0  0  0  0  0  0  0  0999 V2000
    5.0535    1.7374   16.9326 H   0  0  0  0  0  0  0  0  0  0  0  0
    5.5099    1.2613   17.7988 C   0  0  0  0  0  0  0  0  0  0  0  0
    6.6855    0.6487   17.5903 N   0  0  0  0  0  0  0  0  0  0  0  0
    7.2842    0.0667   18.6384 C   0  0  0  0  0  0  0  0  0  0  0  0
    8.2395   -0.4152   18.4378 H   0  0  0  0  0  0  0  0  0  0  0  0
    6.7322    0.0417   19.9297 C   0  0  0  0  0  0  0  0  0  0  0  0
    7.4367   -0.6571   21.0327 C   0  0  0  0  0  0  0  0  0  0  0  0
    8.7320   -0.6828   21.0429 N   0  0  0  0  0  0  0  0  0  0  0  0
    9.3690   -1.2952   22.1300 N   0  0  0  0  0  0  0  0  0  0  0  0
   10.7925   -1.1085   22.1613 C   0  0  0  0  0  0  0  0  0  0  0  0
   11.6285   -2.2082   22.1788 C   0  0  0  0  0  0  0  0  0  0  0  0
   11.2328   -3.2087   22.2984 H   0  0  0  0  0  0  0  0  0  0  0  0
   12.9819   -2.1459   22.0819 N   0  0  0  0  0  0  0  0  0  0  0  0
   13.5618   -0.9741   22.1438 C   0  0  0  0  0  0  0  0  0  0  0  0
   14.6521   -0.9571   22.0918 H   0  0  0  0  0  0  0  0  0  0  0  0
   12.8382    0.2430   22.3034 C   0  0  0  0  0  0  0  0  0  0  0  0
   13.5041    1.4766   22.5599 C   0  0  0  0  0  0  0  0  0  0  0  0
   14.5829    1.4677   22.6949 H   0  0  0  0  0  0  0  0  0  0  0  0
   12.7937    2.6482   22.6030 C   0  0  0  0  0  0  0  0  0  0  0  0
   13.2921    3.5903   22.8286 H   0  0  0  0  0  0  0  0  0  0  0  0
   11.3964    2.6352   22.3537 C   0  0  0  0  0  0  0  0  0  0  0  0
   10.8542    3.5733   22.3075 H   0  0  0  0  0  0  0  0  0  0  0  0
   10.7157    1.4452   22.1669 C   0  0  0  0  0  0  0  0  0  0  0  0
    9.6499    1.4114   21.9751 H   0  0  0  0  0  0  0  0  0  0  0  0
   11.4092    0.1992   22.1888 C   0  0  0  0  0  0  0  0  0  0  0  0
    8.7607   -2.2676   22.9821 C   0  0  0  0  0  0  0  0  0  0  0  0
    9.3854   -2.8880   23.8169 O   0  0  0  0  0  0  0  0  0  0  0  0
    7.2854   -2.4999   22.7375 C   0  0  0  0  0  0  0  0  0  0  0  0
    6.8319   -2.7877   23.6899 H   0  0  0  0  0  0  0  0  0  0  0  0
    7.2044   -3.3762   22.0818 H   0  0  0  0  0  0  0  0  0  0  0  0
    6.6115   -1.2706   22.1398 C   0  0  0  0  0  0  0  0  0  0  0  0
    5.6191   -1.5287   21.7555 H   0  0  0  0  0  0  0  0  0  0  0  0
    6.4891   -0.5047   22.9211 H   0  0  0  0  0  0  0  0  0  0  0  0
    5.4913    0.6815   20.1235 C   0  0  0  0  0  0  0  0  0  0  0  0
    5.0143    0.6960   21.1057 H   0  0  0  0  0  0  0  0  0  0  0  0
    4.8753    1.3064   19.0431 C   0  0  0  0  0  0  0  0  0  0  0  0
    3.9266    1.8248   19.1494 H   0  0  0  0  0  0  0  0  0  0  0  0
  1  2  1  0
  2  3  2  0
  3  4  1  0
  4  5  1  0
  4  6  2  0
  6  7  1  0
  7  8  2  0
  8  9  1  0
  9 10  1  0
 10 11  2  0
 11 12  1  0
 11 13  1  0
 13 14  2  0
 14 15  1  0
 14 16  1  0
 16 17  2  0
 17 18  1  0
 17 19  1  0
 19 20  1  0
 19 21  2  0
 21 22  1  0
 21 23  1  0
 23 24  1  0
 23 25  2  0
  9 26  1  0
 26 27  2  0
 26 28  1  0
 28 29  1  0
 28 30  1  0
 28 31  1  0
 31 32  1  0
 31 33  1  0
  6 34  1  0
 34 35  1  0
 34 36  2  0
 36 37  1  0
 36  2  1  0
 31  7  1  0
 25 10  1  0
 25 16  1  0
M  END
>  <cnnaffinity>  (1) 
-6.19578

>  <filename>  (1) 
O=C1CCC(c2cccnc2)=NN1c1cncc2ccccc12

$$$$
