
     RDKit          3D

 34 36  0  0  0  0  0  0  0  0999 V2000
    4.9367    1.8050   16.9852 H   0  0  0  0  0  0  0  0  0  0  0  0
    5.3925    1.2910   17.8309 C   0  0  0  0  0  0  0  0  0  0  0  0
    6.5475    0.6577   17.5734 N   0  0  0  0  0  0  0  0  0  0  0  0
    7.1427    0.0284   18.5943 C   0  0  0  0  0  0  0  0  0  0  0  0
    8.1062   -0.4305   18.3718 H   0  0  0  0  0  0  0  0  0  0  0  0
    6.6198   -0.0308   19.8965 C   0  0  0  0  0  0  0  0  0  0  0  0
    7.3508   -0.7146   20.9678 C   0  0  0  0  0  0  0  0  0  0  0  0
    8.5971   -0.3614   21.4203 C   0  0  0  0  0  0  0  0  0  0  0  0
    9.3432    0.8484   20.9111 C   0  0  0  0  0  0  0  0  0  0  0  0
    8.7082    1.4499   20.2554 H   0  0  0  0  0  0  0  0  0  0  0  0
   10.1645    0.4348   20.3463 H   0  0  0  0  0  0  0  0  0  0  0  0
    9.9217    1.7285   21.9892 C   0  0  0  0  0  0  0  0  0  0  0  0
   11.2943    1.6985   22.2905 C   0  0  0  0  0  0  0  0  0  0  0  0
   11.9468    1.0569   21.6975 H   0  0  0  0  0  0  0  0  0  0  0  0
   11.8302    2.4787   23.3181 C   0  0  0  0  0  0  0  0  0  0  0  0
   12.8938    2.4293   23.5405 H   0  0  0  0  0  0  0  0  0  0  0  0
   10.9907    3.3232   24.0529 C   0  0  0  0  0  0  0  0  0  0  0  0
   11.4175    3.9901   24.7944 H   0  0  0  0  0  0  0  0  0  0  0  0
    9.6163    3.3541   23.7911 C   0  0  0  0  0  0  0  0  0  0  0  0
    8.9304    3.9786   24.3575 H   0  0  0  0  0  0  0  0  0  0  0  0
    9.0997    2.5647   22.7605 C   0  0  0  0  0  0  0  0  0  0  0  0
    7.3848    2.6545   22.4369 Cl  0  0  0  0  0  0  0  0  0  0  0  0
    9.2392   -1.2064   22.3839 C   0  0  0  0  0  0  0  0  0  0  0  0
   10.2602   -0.9491   22.6716 H   0  0  0  0  0  0  0  0  0  0  0  0
    8.6136   -2.2981   22.9128 C   0  0  0  0  0  0  0  0  0  0  0  0
    9.0515   -2.9440   23.6653 H   0  0  0  0  0  0  0  0  0  0  0  0
    7.2522   -2.6280   22.4972 C   0  0  0  0  0  0  0  0  0  0  0  0
    6.5636   -3.5564   22.8823 O   0  0  0  0  0  0  0  0  0  0  0  0
    6.7138   -1.7789   21.5474 N   0  0  0  0  0  0  0  0  0  0  0  0
    5.7873   -2.0670   21.2938 H   0  0  0  0  0  0  0  0  0  0  0  0
    5.4072    0.6295   20.1479 C   0  0  0  0  0  0  0  0  0  0  0  0
    4.9984    0.6342   21.1596 H   0  0  0  0  0  0  0  0  0  0  0  0
    4.7929    1.3091   19.0971 C   0  0  0  0  0  0  0  0  0  0  0  0
    3.8683    1.8580   19.2375 H   0  0  0  0  0  0  0  0  0  0  0  0
  1  2  1  0
  2  3  2  0
  3  4  1  0
  4  5  1  0
  4  6  2  0
  6  7  1  0
  7  8  2  0
  8  9  1  0
  9 10  1  0
  9 11  1  0
  9 12  1  0
 12 13  2  0
 13 14  1  0
 13 15  1  0
 15 16  1  0
 15 17  2  0
 17 18  1  0
 17 19  1  0
 19 20  1  0
 19 21  2  0
 21 22  1  0
  8 23  1  0
 23 24  1  0
 23 25  2  0
 25 26  1  0
 25 27  1  0
 27 28  2  0
 27 29  1  0
 29 30  1  0
  6 31  1  0
 31 32  1  0
 31 33  2  0
 33 34  1  0
 33  2  1  0
 29  7  1  0
 21 12  1  0
M  END
>  <cnnaffinity>  (1) 
-5.6498

>  <filename>  (1) 
O=c1ccc(Cc2ccccc2Cl)c(-c2cccnc2)[nH]1

$$$$
