
     RDKit          3D

 48 51  0  0  0  0  0  0  0  0999 V2000
   10.9349   -3.0928   22.7416 O   0  0  0  0  0  0  0  0  0  0  0  0
   11.5923   -2.0870   22.5524 C   0  0  0  0  0  0  0  0  0  0  0  0
   11.1802   -0.7413   22.8168 C   0  0  0  0  0  0  0  0  0  0  0  0
   12.0211    0.2902   22.5147 C   0  0  0  0  0  0  0  0  0  0  0  0
   11.5083    1.6042   22.4572 N   0  0  0  0  0  0  0  0  0  0  0  0
   12.2365    2.6840   22.8359 N   0  0  0  0  0  0  0  0  0  0  0  0
   11.3816    3.6792   22.6719 C   0  0  0  0  0  0  0  0  0  0  0  0
   11.7232    5.0944   23.0234 C   0  0  0  0  0  0  0  0  0  0  0  0
   13.0582    5.5455   22.3764 C   0  0  0  0  0  0  0  0  0  0  0  0
   13.5377    6.8633   22.9304 C   0  0  0  0  0  0  0  0  0  0  0  0
   13.1070    7.3933   24.0767 C   0  0  0  0  0  0  0  0  0  0  0  0
   12.0416    6.7635   24.9379 C   0  0  0  0  0  0  0  0  0  0  0  0
   11.7749    5.2989   24.5610 C   0  0  0  0  0  0  0  0  0  0  0  0
   12.5704    4.6672   24.9725 H   0  0  0  0  0  0  0  0  0  0  0  0
   10.8351    4.9659   25.0132 H   0  0  0  0  0  0  0  0  0  0  0  0
   11.1185    7.3580   24.8706 H   0  0  0  0  0  0  0  0  0  0  0  0
   12.3419    6.8185   25.9903 H   0  0  0  0  0  0  0  0  0  0  0  0
   13.5392    8.3284   24.4333 H   0  0  0  0  0  0  0  0  0  0  0  0
   14.3090    7.3728   22.3560 H   0  0  0  0  0  0  0  0  0  0  0  0
   12.9467    5.6143   21.2849 H   0  0  0  0  0  0  0  0  0  0  0  0
   13.8297    4.7807   22.5607 H   0  0  0  0  0  0  0  0  0  0  0  0
   10.8975    5.6910   22.6164 H   0  0  0  0  0  0  0  0  0  0  0  0
   10.1696    3.3030   22.2017 N   0  0  0  0  0  0  0  0  0  0  0  0
   10.2818    2.0031   22.0274 C   0  0  0  0  0  0  0  0  0  0  0  0
    9.2957    1.1698   21.2685 C   0  0  0  0  0  0  0  0  0  0  0  0
    8.0073    0.3620   22.2877 S   0  0  0  0  0  0  0  0  0  0  0  0
    7.3235   -0.7715   21.0257 C   0  0  0  0  0  0  0  0  0  0  0  0
    6.6287   -0.0677   19.8828 C   0  0  0  0  0  0  0  0  0  0  0  0
    5.4375    0.6433   20.0905 C   0  0  0  0  0  0  0  0  0  0  0  0
    4.8806    1.3484   19.0234 C   0  0  0  0  0  0  0  0  0  0  0  0
    5.5195    1.3119   17.7786 C   0  0  0  0  0  0  0  0  0  0  0  0
    6.6467    0.6251   17.5520 N   0  0  0  0  0  0  0  0  0  0  0  0
    7.1748   -0.0405   18.5896 C   0  0  0  0  0  0  0  0  0  0  0  0
    8.0869   -0.5982   18.3728 H   0  0  0  0  0  0  0  0  0  0  0  0
    5.1053    1.8526   16.9280 H   0  0  0  0  0  0  0  0  0  0  0  0
    3.9788    1.9373   19.1486 H   0  0  0  0  0  0  0  0  0  0  0  0
    4.9735    0.6559   21.0802 H   0  0  0  0  0  0  0  0  0  0  0  0
    6.6311   -1.4214   21.5771 H   0  0  0  0  0  0  0  0  0  0  0  0
    8.1371   -1.4122   20.6671 H   0  0  0  0  0  0  0  0  0  0  0  0
    8.7926    1.8341   20.5602 H   0  0  0  0  0  0  0  0  0  0  0  0
    9.8250    0.3965   20.7011 H   0  0  0  0  0  0  0  0  0  0  0  0
   13.3971    0.0664   22.1923 C   0  0  0  0  0  0  0  0  0  0  0  0
   13.8139   -1.2072   21.9795 C   0  0  0  0  0  0  0  0  0  0  0  0
   12.8993   -2.2213   22.0858 N   0  0  0  0  0  0  0  0  0  0  0  0
   13.1173   -3.2068   22.0572 H   0  0  0  0  0  0  0  0  0  0  0  0
   14.8338   -1.4800   21.7189 H   0  0  0  0  0  0  0  0  0  0  0  0
   14.0640    0.9119   22.0981 H   0  0  0  0  0  0  0  0  0  0  0  0
   10.2073   -0.6317   23.2590 H   0  0  0  0  0  0  0  0  0  0  0  0
  1  2  2  0
  2  3  1  0
  3  4  2  0
  4  5  1  0
  5  6  1  0
  6  7  2  0
  7  8  1  0
  8  9  1  0
  9 10  1  0
 10 11  2  0
 11 12  1  0
 12 13  1  0
 13 14  1  0
 13 15  1  0
 12 16  1  0
 12 17  1  0
 11 18  1  0
 10 19  1  0
  9 20  1  0
  9 21  1  0
  8 22  1  0
  7 23  1  0
 23 24  2  0
 24 25  1  0
 25 26  1  0
 26 27  1  0
 27 28  1  0
 28 29  2  0
 29 30  1  0
 30 31  2  0
 31 32  1  0
 32 33  2  0
 33 34  1  0
 31 35  1  0
 30 36  1  0
 29 37  1  0
 27 38  1  0
 27 39  1  0
 25 40  1  0
 25 41  1  0
  4 42  1  0
 42 43  2  0
 43 44  1  0
 44 45  1  0
 43 46  1  0
 42 47  1  0
  3 48  1  0
 44  2  1  0
 24  5  1  0
 33 28  1  0
 13  8  1  0
M  END
>  <cnnaffinity>  (1) 
-6.45831

>  <filename>  (1) 
O=c1cc(-n2nc(C3CC=CCC3)nc2CSCc2cccnc2)cc[nH]1

$$$$
