
     RDKit          3D

 33 36  0  0  0  0  0  0  0  0999 V2000
    4.9100    1.7941   16.9365 H   0  0  0  0  0  0  0  0  0  0  0  0
    5.3574    1.3355   17.8166 C   0  0  0  0  0  0  0  0  0  0  0  0
    6.5323    0.7202   17.6201 N   0  0  0  0  0  0  0  0  0  0  0  0
    7.1144    0.1699   18.6863 C   0  0  0  0  0  0  0  0  0  0  0  0
    8.0659   -0.3179   18.4890 H   0  0  0  0  0  0  0  0  0  0  0  0
    6.5907    0.2072   19.9907 C   0  0  0  0  0  0  0  0  0  0  0  0
    7.3535   -0.4652   21.0605 C   0  0  0  0  0  0  0  0  0  0  0  0
    7.0253   -0.0862   22.3379 O   0  0  0  0  0  0  0  0  0  0  0  0
    7.6581   -0.6859   23.4043 C   0  0  0  0  0  0  0  0  0  0  0  0
    7.3994   -0.1089   24.7235 C   0  0  0  0  0  0  0  0  0  0  0  0
    7.4324   -0.8216   25.8874 C   0  0  0  0  0  0  0  0  0  0  0  0
    7.6022   -1.8849   26.0296 H   0  0  0  0  0  0  0  0  0  0  0  0
    7.1189    0.1312   27.2886 S   0  0  0  0  0  0  0  0  0  0  0  0
    6.9689    1.5785   26.3329 C   0  0  0  0  0  0  0  0  0  0  0  0
    6.6862    2.8820   26.7834 C   0  0  0  0  0  0  0  0  0  0  0  0
    6.4963    3.0781   27.8355 H   0  0  0  0  0  0  0  0  0  0  0  0
    6.6554    3.9046   25.8418 C   0  0  0  0  0  0  0  0  0  0  0  0
    6.4318    4.9162   26.1594 H   0  0  0  0  0  0  0  0  0  0  0  0
    6.9160    3.6505   24.4803 C   0  0  0  0  0  0  0  0  0  0  0  0
    6.9040    4.4590   23.7574 H   0  0  0  0  0  0  0  0  0  0  0  0
    7.1843    2.3662   24.0417 C   0  0  0  0  0  0  0  0  0  0  0  0
    7.4044    2.1578   23.0021 H   0  0  0  0  0  0  0  0  0  0  0  0
    7.1732    1.3059   24.9666 C   0  0  0  0  0  0  0  0  0  0  0  0
    8.4756   -1.7458   23.2358 C   0  0  0  0  0  0  0  0  0  0  0  0
    8.9934   -2.2158   24.0581 H   0  0  0  0  0  0  0  0  0  0  0  0
    8.6942   -2.2906   21.9129 C   0  0  0  0  0  0  0  0  0  0  0  0
    9.1732   -3.3921   21.7284 O   0  0  0  0  0  0  0  0  0  0  0  0
    8.2464   -1.4407   20.8261 C   0  0  0  0  0  0  0  0  0  0  0  0
    8.5707   -1.7213   19.8414 H   0  0  0  0  0  0  0  0  0  0  0  0
    5.3406    0.8251   20.1761 C   0  0  0  0  0  0  0  0  0  0  0  0
    4.8754    0.8460   21.1625 H   0  0  0  0  0  0  0  0  0  0  0  0
    4.7225    1.3957   19.0623 C   0  0  0  0  0  0  0  0  0  0  0  0
    3.7619    1.8901   19.1387 H   0  0  0  0  0  0  0  0  0  0  0  0
  1  2  1  0
  2  3  2  0
  3  4  1  0
  4  5  1  0
  4  6  2  0
  6  7  1  0
  7  8  1  0
  8  9  1  0
  9 10  1  0
 10 11  2  0
 11 12  1  0
 11 13  1  0
 13 14  1  0
 14 15  2  0
 15 16  1  0
 15 17  1  0
 17 18  1  0
 17 19  2  0
 19 20  1  0
 19 21  1  0
 21 22  1  0
 21 23  2  0
  9 24  2  0
 24 25  1  0
 24 26  1  0
 26 27  2  0
 26 28  1  0
 28 29  1  0
  6 30  1  0
 30 31  1  0
 30 32  2  0
 32 33  1  0
 32  2  1  0
 28  7  2  0
 23 10  1  0
 23 14  1  0
M  END
>  <cnnaffinity>  (1) 
-5.50622

>  <filename>  (1) 
O=c1cc(-c2cccnc2)oc(-c2csc3ccccc23)c1

$$$$
