
     RDKit          3D

 39 42  0  0  0  0  0  0  0  0999 V2000
    4.9438    1.8054   16.9830 H   0  0  0  0  0  0  0  0  0  0  0  0
    5.3898    1.2961   17.8356 C   0  0  0  0  0  0  0  0  0  0  0  0
    6.5420    0.6596   17.5896 N   0  0  0  0  0  0  0  0  0  0  0  0
    7.1292    0.0263   18.6092 C   0  0  0  0  0  0  0  0  0  0  0  0
    8.1034   -0.4119   18.4031 H   0  0  0  0  0  0  0  0  0  0  0  0
    6.5852   -0.0456   19.9103 C   0  0  0  0  0  0  0  0  0  0  0  0
    7.2941   -0.7767   21.0153 C   0  0  0  0  0  0  0  0  0  0  0  0
    6.5730   -1.5757   21.7696 N   0  0  0  0  0  0  0  0  0  0  0  0
    7.1746   -2.1740   22.8358 N   0  0  0  0  0  0  0  0  0  0  0  0
    6.4707   -3.0750   23.5834 N   0  0  0  0  0  0  0  0  0  0  0  0
    6.2870   -2.7402   25.0192 C   0  0  0  0  0  0  0  0  0  0  0  0
    7.2747   -2.5257   25.4554 H   0  0  0  0  0  0  0  0  0  0  0  0
    5.7199   -1.7968   25.1050 H   0  0  0  0  0  0  0  0  0  0  0  0
    5.6295   -3.8754   25.8146 C   0  0  0  0  0  0  0  0  0  0  0  0
    5.5859   -3.8087   27.2181 C   0  0  0  0  0  0  0  0  0  0  0  0
    6.0192   -2.9488   27.7248 H   0  0  0  0  0  0  0  0  0  0  0  0
    4.9975   -4.8291   27.9731 C   0  0  0  0  0  0  0  0  0  0  0  0
    4.9788   -4.7567   29.0591 H   0  0  0  0  0  0  0  0  0  0  0  0
    4.4431   -5.9387   27.3276 C   0  0  0  0  0  0  0  0  0  0  0  0
    3.9862   -6.7382   27.9091 H   0  0  0  0  0  0  0  0  0  0  0  0
    4.4791   -6.0117   25.9311 C   0  0  0  0  0  0  0  0  0  0  0  0
    4.0502   -6.8756   25.4279 H   0  0  0  0  0  0  0  0  0  0  0  0
    5.0628   -4.9907   25.1619 C   0  0  0  0  0  0  0  0  0  0  0  0
    5.1391   -5.1060   23.6413 C   0  0  0  0  0  0  0  0  0  0  0  0
    6.0098   -5.7258   23.3784 H   0  0  0  0  0  0  0  0  0  0  0  0
    4.2497   -5.6188   23.2556 H   0  0  0  0  0  0  0  0  0  0  0  0
    5.3127   -3.7344   22.9575 C   0  0  0  0  0  0  0  0  0  0  0  0
    5.5177   -3.8195   21.8843 H   0  0  0  0  0  0  0  0  0  0  0  0
    4.4116   -3.1134   23.0732 H   0  0  0  0  0  0  0  0  0  0  0  0
    8.5281   -2.1160   23.0511 C   0  0  0  0  0  0  0  0  0  0  0  0
    8.8038   -2.7804   23.8654 H   0  0  0  0  0  0  0  0  0  0  0  0
    9.3367   -1.3672   22.3007 C   0  0  0  0  0  0  0  0  0  0  0  0
   10.4035   -1.2869   22.4367 H   0  0  0  0  0  0  0  0  0  0  0  0
    8.7694   -0.5934   21.2175 C   0  0  0  0  0  0  0  0  0  0  0  0
    9.4718    0.1439   20.5253 O   0  0  0  0  0  0  0  0  0  0  0  0
    5.3803    0.6302   20.1485 C   0  0  0  0  0  0  0  0  0  0  0  0
    4.9557    0.6379   21.1527 H   0  0  0  0  0  0  0  0  0  0  0  0
    4.7781    1.3205   19.0932 C   0  0  0  0  0  0  0  0  0  0  0  0
    3.8572    1.8788   19.2239 H   0  0  0  0  0  0  0  0  0  0  0  0
  1  2  1  0
  2  3  2  0
  3  4  1  0
  4  5  1  0
  4  6  2  0
  6  7  1  0
  7  8  2  0
  8  9  1  0
  9 10  1  0
 10 11  1  0
 11 12  1  0
 11 13  1  0
 11 14  1  0
 14 15  2  0
 15 16  1  0
 15 17  1  0
 17 18  1  0
 17 19  2  0
 19 20  1  0
 19 21  1  0
 21 22  1  0
 21 23  2  0
 23 24  1  0
 24 25  1  0
 24 26  1  0
 24 27  1  0
 27 28  1  0
 27 29  1  0
  9 30  1  0
 30 31  1  0
 30 32  2  0
 32 33  1  0
 32 34  1  0
 34 35  2  0
  6 36  1  0
 36 37  1  0
 36 38  2  0
 38 39  1  0
 38  2  1  0
 34  7  1  0
 27 10  1  0
 23 14  1  0
M  END
>  <cnnaffinity>  (1) 
-5.51063

>  <filename>  (1) 
O=c1ccn(N2CCc3ccccc3C2)nc1-c1cccnc1

$$$$
