
     RDKit          3D

 36 39  0  0  0  0  0  0  0  0999 V2000
    4.9137    1.8229   16.9562 H   0  0  0  0  0  0  0  0  0  0  0  0
    5.3925    1.3278   17.7980 C   0  0  0  0  0  0  0  0  0  0  0  0
    6.5594    0.7186   17.5314 N   0  0  0  0  0  0  0  0  0  0  0  0
    7.1682    0.0950   18.5487 C   0  0  0  0  0  0  0  0  0  0  0  0
    8.1164   -0.3871   18.3145 H   0  0  0  0  0  0  0  0  0  0  0  0
    6.6450    0.0025   19.8575 C   0  0  0  0  0  0  0  0  0  0  0  0
    7.3723   -0.7191   20.9345 C   0  0  0  0  0  0  0  0  0  0  0  0
    8.6950   -0.4410   21.1920 C   0  0  0  0  0  0  0  0  0  0  0  0
    9.2116    0.3124   20.5923 H   0  0  0  0  0  0  0  0  0  0  0  0
    9.4279   -1.0807   22.2412 C   0  0  0  0  0  0  0  0  0  0  0  0
   10.8718   -0.7780   22.4480 C   0  0  0  0  0  0  0  0  0  0  0  0
   11.8216   -1.7608   22.2305 C   0  0  0  0  0  0  0  0  0  0  0  0
   11.4889   -2.7700   22.0089 H   0  0  0  0  0  0  0  0  0  0  0  0
   13.2145   -1.4889   22.2954 C   0  0  0  0  0  0  0  0  0  0  0  0
   13.9231   -2.2828   22.0551 H   0  0  0  0  0  0  0  0  0  0  0  0
   13.6438   -0.2525   22.7166 C   0  0  0  0  0  0  0  0  0  0  0  0
   14.6841    0.0037   22.8765 H   0  0  0  0  0  0  0  0  0  0  0  0
   12.7081    0.7839   22.9784 C   0  0  0  0  0  0  0  0  0  0  0  0
   13.2318    1.9973   23.3427 N   0  0  0  0  0  0  0  0  0  0  0  0
   12.3964    2.9911   23.5173 C   0  0  0  0  0  0  0  0  0  0  0  0
   12.8325    3.9572   23.7669 H   0  0  0  0  0  0  0  0  0  0  0  0
   10.9835    2.8800   23.3997 C   0  0  0  0  0  0  0  0  0  0  0  0
   10.3629    3.7570   23.5513 H   0  0  0  0  0  0  0  0  0  0  0  0
   10.4424    1.6582   23.0760 C   0  0  0  0  0  0  0  0  0  0  0  0
    9.3667    1.5227   22.9811 H   0  0  0  0  0  0  0  0  0  0  0  0
   11.3059    0.5435   22.8311 C   0  0  0  0  0  0  0  0  0  0  0  0
    8.7843   -2.0014   23.0256 C   0  0  0  0  0  0  0  0  0  0  0  0
    9.2906   -2.5398   23.8284 H   0  0  0  0  0  0  0  0  0  0  0  0
    7.4641   -2.2632   22.7927 N   0  0  0  0  0  0  0  0  0  0  0  0
    6.8936   -2.9540   23.2579 H   0  0  0  0  0  0  0  0  0  0  0  0
    6.6921   -1.7546   21.7434 C   0  0  0  0  0  0  0  0  0  0  0  0
    5.5904   -2.2554   21.6005 O   0  0  0  0  0  0  0  0  0  0  0  0
    5.4242    0.6530   20.1031 C   0  0  0  0  0  0  0  0  0  0  0  0
    4.9931    0.6182   21.1045 H   0  0  0  0  0  0  0  0  0  0  0  0
    4.7880    1.3348   19.0590 C   0  0  0  0  0  0  0  0  0  0  0  0
    3.8468    1.8627   19.2057 H   0  0  0  0  0  0  0  0  0  0  0  0
  1  2  1  0
  2  3  2  0
  3  4  1  0
  4  5  1  0
  4  6  2  0
  6  7  1  0
  7  8  2  0
  8  9  1  0
  8 10  1  0
 10 11  1  0
 11 12  2  0
 12 13  1  0
 12 14  1  0
 14 15  1  0
 14 16  2  0
 16 17  1  0
 16 18  1  0
 18 19  2  0
 19 20  1  0
 20 21  1  0
 20 22  2  0
 22 23  1  0
 22 24  1  0
 24 25  1  0
 24 26  2  0
 10 27  2  0
 27 28  1  0
 27 29  1  0
 29 30  1  0
 29 31  1  0
 31 32  2  0
  6 33  1  0
 33 34  1  0
 33 35  2  0
 35 36  1  0
 35  2  1  0
 31  7  1  0
 26 11  1  0
 26 18  1  0
M  END
>  <cnnaffinity>  (1) 
-6.03851

>  <filename>  (1) 
O=c1[nH]cc(-c2cccc3ncccc23)cc1-c1cccnc1

$$$$
