
     RDKit          3D

 26 28  0  0  0  0  0  0  0  0999 V2000
    9.1435   -1.0534   27.7187 H   0  0  0  0  0  0  0  0  0  0  0  0
    8.6348   -0.5998   26.8759 C   0  0  0  0  0  0  0  0  0  0  0  0
    8.7565   -1.1708   25.6391 N   0  0  0  0  0  0  0  0  0  0  0  0
    8.0902   -0.4863   24.7419 C   0  0  0  0  0  0  0  0  0  0  0  0
    8.0301   -0.8145   23.2840 C   0  0  0  0  0  0  0  0  0  0  0  0
    7.3379   -0.1075   22.3328 C   0  0  0  0  0  0  0  0  0  0  0  0
    6.7739    0.7789   22.5637 H   0  0  0  0  0  0  0  0  0  0  0  0
    7.3734   -0.5688   20.9772 C   0  0  0  0  0  0  0  0  0  0  0  0
    6.6201    0.1436   19.9276 C   0  0  0  0  0  0  0  0  0  0  0  0
    7.1373    0.1134   18.6272 C   0  0  0  0  0  0  0  0  0  0  0  0
    8.0638   -0.4300   18.4442 H   0  0  0  0  0  0  0  0  0  0  0  0
    6.5493    0.7060   17.5867 N   0  0  0  0  0  0  0  0  0  0  0  0
    5.3824    1.3304   17.8100 C   0  0  0  0  0  0  0  0  0  0  0  0
    4.9312    1.8177   16.9488 H   0  0  0  0  0  0  0  0  0  0  0  0
    4.7514    1.3655   19.0579 C   0  0  0  0  0  0  0  0  0  0  0  0
    3.7997    1.8756   19.1701 H   0  0  0  0  0  0  0  0  0  0  0  0
    5.3790    0.7556   20.1412 C   0  0  0  0  0  0  0  0  0  0  0  0
    4.9081    0.7155   21.1253 H   0  0  0  0  0  0  0  0  0  0  0  0
    8.0144   -1.6302   20.5812 N   0  0  0  0  0  0  0  0  0  0  0  0
    8.5108   -2.4623   21.5415 C   0  0  0  0  0  0  0  0  0  0  0  0
    8.7772   -3.6268   21.3766 O   0  0  0  0  0  0  0  0  0  0  0  0
    8.7065   -1.9118   22.8166 N   0  0  0  0  0  0  0  0  0  0  0  0
    9.1355   -2.5900   23.4267 H   0  0  0  0  0  0  0  0  0  0  0  0
    7.2498    0.8945   25.3835 S   0  0  0  0  0  0  0  0  0  0  0  0
    7.8644    0.5185   26.9382 C   0  0  0  0  0  0  0  0  0  0  0  0
    7.6497    1.1226   27.8062 H   0  0  0  0  0  0  0  0  0  0  0  0
  1  2  1  0
  2  3  1  0
  3  4  2  0
  4  5  1  0
  5  6  2  0
  6  7  1  0
  6  8  1  0
  8  9  1  0
  9 10  2  0
 10 11  1  0
 10 12  1  0
 12 13  2  0
 13 14  1  0
 13 15  1  0
 15 16  1  0
 15 17  2  0
 17 18  1  0
  8 19  2  0
 19 20  1  0
 20 21  2  0
 20 22  1  0
 22 23  1  0
  4 24  1  0
 24 25  1  0
 25 26  1  0
 25  2  2  0
 22  5  1  0
 17  9  1  0
M  END
>  <cnnaffinity>  (1) 
-5.03648

>  <filename>  (1) 
O=c1nc(-c2cccnc2)cc(-c2nccs2)[nH]1

$$$$
