
     RDKit          3D

 24 26  0  0  0  0  0  0  0  0999 V2000
    4.9555    1.8087   16.9679 H   0  0  0  0  0  0  0  0  0  0  0  0
    5.4022    1.2787   17.8045 C   0  0  0  0  0  0  0  0  0  0  0  0
    6.5571    0.6378   17.5471 N   0  0  0  0  0  0  0  0  0  0  0  0
    7.1692    0.0294   18.5668 C   0  0  0  0  0  0  0  0  0  0  0  0
    8.1160   -0.4594   18.3312 H   0  0  0  0  0  0  0  0  0  0  0  0
    6.6648    0.0303   19.8866 C   0  0  0  0  0  0  0  0  0  0  0  0
    7.3438   -0.6145   20.9593 N   0  0  0  0  0  0  0  0  0  0  0  0
    7.4840   -0.2602   22.3276 C   0  0  0  0  0  0  0  0  0  0  0  0
    7.0153    0.7023   22.9248 O   0  0  0  0  0  0  0  0  0  0  0  0
    8.3104   -1.3134   22.8806 C   0  0  0  0  0  0  0  0  0  0  0  0
    8.6425   -1.3262   24.2764 C   0  0  0  0  0  0  0  0  0  0  0  0
    9.2573   -2.2699   24.9623 N   0  0  0  0  0  0  0  0  0  0  0  0
    9.2993   -1.8337   26.2429 N   0  0  0  0  0  0  0  0  0  0  0  0
    8.7505   -0.6731   26.3613 N   0  0  0  0  0  0  0  0  0  0  0  0
    8.3373   -0.3409   25.1358 N   0  0  0  0  0  0  0  0  0  0  0  0
    7.8276    0.4887   24.8638 H   0  0  0  0  0  0  0  0  0  0  0  0
    8.6007   -2.2033   21.8942 C   0  0  0  0  0  0  0  0  0  0  0  0
    9.1539   -3.1354   21.9719 H   0  0  0  0  0  0  0  0  0  0  0  0
    8.0984   -1.7601   20.7090 N   0  0  0  0  0  0  0  0  0  0  0  0
    7.8506   -2.3302   19.9059 H   0  0  0  0  0  0  0  0  0  0  0  0
    5.4494    0.6854   20.1372 C   0  0  0  0  0  0  0  0  0  0  0  0
    5.0459    0.7039   21.1465 H   0  0  0  0  0  0  0  0  0  0  0  0
    4.8037    1.3101   19.0673 C   0  0  0  0  0  0  0  0  0  0  0  0
    3.8693    1.8481   19.2063 H   0  0  0  0  0  0  0  0  0  0  0  0
  1  2  1  0
  2  3  2  0
  3  4  1  0
  4  5  1  0
  4  6  2  0
  6  7  1  0
  7  8  1  0
  8  9  2  0
  8 10  1  0
 10 11  1  0
 11 12  2  0
 12 13  1  0
 13 14  2  0
 14 15  1  0
 15 16  1  0
 10 17  2  0
 17 18  1  0
 17 19  1  0
 19 20  1  0
  6 21  1  0
 21 22  1  0
 21 23  2  0
 23 24  1  0
 23  2  1  0
 19  7  1  0
 15 11  1  0
M  END
>  <cnnaffinity>  (1) 
-4.60214

>  <filename>  (1) 
O=c1c(-c2nnn[nH]2)c[nH]n1-c1cccnc1

$$$$
