
     RDKit          3D

 47 50  0  0  0  0  0  0  0  0999 V2000
    5.6321   -3.4034   26.4818 O   0  0  0  0  0  0  0  0  0  0  0  0
    6.4702   -2.5332   26.3187 C   0  0  0  0  0  0  0  0  0  0  0  0
    6.4900   -1.5267   25.2876 C   0  0  0  0  0  0  0  0  0  0  0  0
    7.4744   -0.5804   25.2843 C   0  0  0  0  0  0  0  0  0  0  0  0
    7.5015    0.4658   24.3259 N   0  0  0  0  0  0  0  0  0  0  0  0
    7.6971    1.7426   24.7513 N   0  0  0  0  0  0  0  0  0  0  0  0
    7.6651    2.4342   23.6447 C   0  0  0  0  0  0  0  0  0  0  0  0
    7.7708    3.9198   23.6255 C   0  0  0  0  0  0  0  0  0  0  0  0
    6.5009    4.4928   22.9391 C   0  0  0  0  0  0  0  0  0  0  0  0
    6.6115    5.9817   22.6230 C   0  0  0  0  0  0  0  0  0  0  0  0
    7.9126    6.2950   21.9059 C   0  0  0  0  0  0  0  0  0  0  0  0
    7.9477    7.6320   21.6671 F   0  0  0  0  0  0  0  0  0  0  0  0
    7.9227    5.7198   20.6613 F   0  0  0  0  0  0  0  0  0  0  0  0
    9.1518    5.8399   22.6682 C   0  0  0  0  0  0  0  0  0  0  0  0
    9.1024    4.3280   22.9407 C   0  0  0  0  0  0  0  0  0  0  0  0
    9.1904    3.7725   21.9965 H   0  0  0  0  0  0  0  0  0  0  0  0
    9.9565    4.0274   23.5668 H   0  0  0  0  0  0  0  0  0  0  0  0
   10.0331    6.1233   22.0832 H   0  0  0  0  0  0  0  0  0  0  0  0
    9.1813    6.3991   23.6119 H   0  0  0  0  0  0  0  0  0  0  0  0
    6.5855    6.5903   23.5367 H   0  0  0  0  0  0  0  0  0  0  0  0
    5.7907    6.3109   21.9761 H   0  0  0  0  0  0  0  0  0  0  0  0
    6.3308    3.9505   21.9998 H   0  0  0  0  0  0  0  0  0  0  0  0
    5.6241    4.3088   23.5750 H   0  0  0  0  0  0  0  0  0  0  0  0
    7.7901    4.2516   24.6725 H   0  0  0  0  0  0  0  0  0  0  0  0
    7.5092    1.6927   22.5171 N   0  0  0  0  0  0  0  0  0  0  0  0
    7.4023    0.4589   22.9647 C   0  0  0  0  0  0  0  0  0  0  0  0
    7.1069   -0.7889   22.1655 C   0  0  0  0  0  0  0  0  0  0  0  0
    7.4631   -0.7607   20.7881 O   0  0  0  0  0  0  0  0  0  0  0  0
    6.7040   -0.0971   19.8623 C   0  0  0  0  0  0  0  0  0  0  0  0
    5.5000    0.5690   20.1162 C   0  0  0  0  0  0  0  0  0  0  0  0
    4.8820    1.2429   19.0530 C   0  0  0  0  0  0  0  0  0  0  0  0
    5.4681    1.2285   17.7896 C   0  0  0  0  0  0  0  0  0  0  0  0
    6.6085    0.5666   17.5253 N   0  0  0  0  0  0  0  0  0  0  0  0
    7.1967   -0.0816   18.5361 C   0  0  0  0  0  0  0  0  0  0  0  0
    8.1013   -0.6416   18.3065 H   0  0  0  0  0  0  0  0  0  0  0  0
    5.0150    1.7515   16.9514 H   0  0  0  0  0  0  0  0  0  0  0  0
    3.9498    1.7742   19.1963 H   0  0  0  0  0  0  0  0  0  0  0  0
    5.0700    0.5934   21.1149 H   0  0  0  0  0  0  0  0  0  0  0  0
    6.0469   -1.0486   22.2696 H   0  0  0  0  0  0  0  0  0  0  0  0
    7.6735   -1.6212   22.5843 H   0  0  0  0  0  0  0  0  0  0  0  0
    8.4970   -0.5510   26.2960 C   0  0  0  0  0  0  0  0  0  0  0  0
    8.5050   -1.5136   27.2481 C   0  0  0  0  0  0  0  0  0  0  0  0
    7.5371   -2.4812   27.2209 N   0  0  0  0  0  0  0  0  0  0  0  0
    7.4176   -3.2137   27.9032 H   0  0  0  0  0  0  0  0  0  0  0  0
    9.2396   -1.5336   28.0501 H   0  0  0  0  0  0  0  0  0  0  0  0
    9.2201    0.2611   26.3064 H   0  0  0  0  0  0  0  0  0  0  0  0
    5.6593   -1.5477   24.5982 H   0  0  0  0  0  0  0  0  0  0  0  0
  1  2  2  0
  2  3  1  0
  3  4  2  0
  4  5  1  0
  5  6  1  0
  6  7  2  0
  7  8  1  0
  8  9  1  0
  9 10  1  0
 10 11  1  0
 11 12  1  0
 11 13  1  0
 11 14  1  0
 14 15  1  0
 15 16  1  0
 15 17  1  0
 14 18  1  0
 14 19  1  0
 10 20  1  0
 10 21  1  0
  9 22  1  0
  9 23  1  0
  8 24  1  0
  7 25  1  0
 25 26  2  0
 26 27  1  0
 27 28  1  0
 28 29  1  0
 29 30  2  0
 30 31  1  0
 31 32  2  0
 32 33  1  0
 33 34  2  0
 34 35  1  0
 32 36  1  0
 31 37  1  0
 30 38  1  0
 27 39  1  0
 27 40  1  0
  4 41  1  0
 41 42  2  0
 42 43  1  0
 43 44  1  0
 42 45  1  0
 41 46  1  0
  3 47  1  0
 43  2  1  0
 26  5  1  0
 34 29  1  0
 15  8  1  0
M  END
>  <cnnaffinity>  (1) 
-6.00443

>  <filename>  (1) 
O=c1cc(-n2nc(C3CCC(F)(F)CC3)nc2COc2cccnc2)cc[nH]1

$$$$
