
     RDKit          3D

 33 35  0  0  0  0  0  0  0  0999 V2000
    4.9419    1.8712   16.9517 H   0  0  0  0  0  0  0  0  0  0  0  0
    5.4042    1.3391   17.7823 C   0  0  0  0  0  0  0  0  0  0  0  0
    6.5643    0.7167   17.5146 N   0  0  0  0  0  0  0  0  0  0  0  0
    7.1645    0.0689   18.5201 C   0  0  0  0  0  0  0  0  0  0  0  0
    8.1131   -0.4117   18.2823 H   0  0  0  0  0  0  0  0  0  0  0  0
    6.6289   -0.0255   19.8237 C   0  0  0  0  0  0  0  0  0  0  0  0
    7.3420   -0.6967   20.8962 N   0  0  0  0  0  0  0  0  0  0  0  0
    8.5857   -0.2051   21.2415 C   0  0  0  0  0  0  0  0  0  0  0  0
    8.9064    0.7076   20.7323 H   0  0  0  0  0  0  0  0  0  0  0  0
    9.3606   -0.8297   22.1523 C   0  0  0  0  0  0  0  0  0  0  0  0
   10.7168   -0.3852   22.3805 C   0  0  0  0  0  0  0  0  0  0  0  0
   10.8371    0.9463   22.4244 N   0  0  0  0  0  0  0  0  0  0  0  0
   12.0467    1.4903   22.6014 C   0  0  0  0  0  0  0  0  0  0  0  0
   12.1018    3.0386   22.6741 C   0  0  0  0  0  0  0  0  0  0  0  0
   13.0470    3.5436   21.8551 F   0  0  0  0  0  0  0  0  0  0  0  0
   10.9449    3.6177   22.3455 F   0  0  0  0  0  0  0  0  0  0  0  0
   12.4120    3.4615   23.9145 F   0  0  0  0  0  0  0  0  0  0  0  0
   13.2124    0.7060   22.6921 C   0  0  0  0  0  0  0  0  0  0  0  0
   14.1909    1.1611   22.8137 H   0  0  0  0  0  0  0  0  0  0  0  0
   13.0900   -0.6823   22.5621 C   0  0  0  0  0  0  0  0  0  0  0  0
   13.9728   -1.3202   22.5637 H   0  0  0  0  0  0  0  0  0  0  0  0
   11.8225   -1.2460   22.4169 C   0  0  0  0  0  0  0  0  0  0  0  0
   11.6583   -2.3110   22.3110 H   0  0  0  0  0  0  0  0  0  0  0  0
    8.8625   -1.9426   22.9303 C   0  0  0  0  0  0  0  0  0  0  0  0
    9.4324   -2.6047   23.7688 O   0  0  0  0  0  0  0  0  0  0  0  0
    7.5542   -2.2445   22.6379 N   0  0  0  0  0  0  0  0  0  0  0  0
    7.1660   -3.0134   23.1407 H   0  0  0  0  0  0  0  0  0  0  0  0
    6.7707   -1.7736   21.6304 C   0  0  0  0  0  0  0  0  0  0  0  0
    5.6972   -2.2805   21.4072 O   0  0  0  0  0  0  0  0  0  0  0  0
    5.4183    0.6212   20.0861 C   0  0  0  0  0  0  0  0  0  0  0  0
    4.9877    0.5825   21.0866 H   0  0  0  0  0  0  0  0  0  0  0  0
    4.7978    1.3193   19.0426 C   0  0  0  0  0  0  0  0  0  0  0  0
    3.8679    1.8580   19.1991 H   0  0  0  0  0  0  0  0  0  0  0  0
  1  2  1  0
  2  3  2  0
  3  4  1  0
  4  5  1  0
  4  6  2  0
  6  7  1  0
  7  8  1  0
  8  9  1  0
  8 10  2  0
 10 11  1  0
 11 12  2  0
 12 13  1  0
 13 14  1  0
 14 15  1  0
 14 16  1  0
 14 17  1  0
 13 18  2  0
 18 19  1  0
 18 20  1  0
 20 21  1  0
 20 22  2  0
 22 23  1  0
 10 24  1  0
 24 25  2  0
 24 26  1  0
 26 27  1  0
 26 28  1  0
 28 29  2  0
  6 30  1  0
 30 31  1  0
 30 32  2  0
 32 33  1  0
 32  2  1  0
 28  7  1  0
 22 11  1  0
M  END
>  <cnnaffinity>  (1) 
-5.58881

>  <filename>  (1) 
O=c1[nH]c(=O)n(-c2cccnc2)cc1-c1cccc(C(F)(F)F)n1

$$$$
