
     RDKit          3D

 33 35  0  0  0  0  0  0  0  0999 V2000
    8.8439   -1.2568   23.8942 O   0  0  0  0  0  0  0  0  0  0  0  0
    8.3588   -1.2628   22.7981 C   0  0  0  0  0  0  0  0  0  0  0  0
    8.3796   -2.3087   21.9214 O   0  0  0  0  0  0  0  0  0  0  0  0
    7.7593   -1.9476   20.7237 N   0  0  0  0  0  0  0  0  0  0  0  0
    7.3650   -0.7328   20.9051 C   0  0  0  0  0  0  0  0  0  0  0  0
    6.6492    0.0193   19.8931 C   0  0  0  0  0  0  0  0  0  0  0  0
    5.4342    0.6585   20.1580 C   0  0  0  0  0  0  0  0  0  0  0  0
    4.7994    1.3121   19.1066 C   0  0  0  0  0  0  0  0  0  0  0  0
    5.4036    1.2920   17.8445 C   0  0  0  0  0  0  0  0  0  0  0  0
    6.5722    0.6824   17.5842 N   0  0  0  0  0  0  0  0  0  0  0  0
    7.1754    0.0576   18.5982 C   0  0  0  0  0  0  0  0  0  0  0  0
    8.1211   -0.4391   18.3788 H   0  0  0  0  0  0  0  0  0  0  0  0
    4.9138    1.7742   17.0035 H   0  0  0  0  0  0  0  0  0  0  0  0
    3.8707    1.8458   19.2638 H   0  0  0  0  0  0  0  0  0  0  0  0
    5.0040    0.6273   21.1623 H   0  0  0  0  0  0  0  0  0  0  0  0
    7.6640   -0.2462   22.1526 N   0  0  0  0  0  0  0  0  0  0  0  0
    7.5854    1.1224   22.6898 C   0  0  0  0  0  0  0  0  0  0  0  0
    8.9441    1.8212   22.7082 C   0  0  0  0  0  0  0  0  0  0  0  0
    9.6340    1.9154   21.4904 C   0  0  0  0  0  0  0  0  0  0  0  0
   10.8954    2.5068   21.4144 C   0  0  0  0  0  0  0  0  0  0  0  0
   11.4826    3.0309   22.5640 C   0  0  0  0  0  0  0  0  0  0  0  0
   10.8101    2.9654   23.7819 C   0  0  0  0  0  0  0  0  0  0  0  0
    9.5388    2.3748   23.8618 C   0  0  0  0  0  0  0  0  0  0  0  0
    8.8119    2.3455   25.2003 C   0  0  0  0  0  0  0  0  0  0  0  0
    7.6120    2.9631   25.1265 F   0  0  0  0  0  0  0  0  0  0  0  0
    8.5774    1.0928   25.6266 F   0  0  0  0  0  0  0  0  0  0  0  0
    9.4750    2.9631   26.1835 F   0  0  0  0  0  0  0  0  0  0  0  0
   11.2797    3.3855   24.6647 H   0  0  0  0  0  0  0  0  0  0  0  0
   12.4603    3.4973   22.5149 H   0  0  0  0  0  0  0  0  0  0  0  0
   11.4119    2.5759   20.4613 H   0  0  0  0  0  0  0  0  0  0  0  0
    9.1748    1.5125   20.5902 H   0  0  0  0  0  0  0  0  0  0  0  0
    6.9198    1.7242   22.0592 H   0  0  0  0  0  0  0  0  0  0  0  0
    7.1273    1.0803   23.6796 H   0  0  0  0  0  0  0  0  0  0  0  0
  1  2  2  0
  2  3  1  0
  3  4  1  0
  4  5  2  0
  5  6  1  0
  6  7  2  0
  7  8  1  0
  8  9  2  0
  9 10  1  0
 10 11  2  0
 11 12  1  0
  9 13  1  0
  8 14  1  0
  7 15  1  0
  5 16  1  0
 16 17  1  0
 17 18  1  0
 18 19  2  0
 19 20  1  0
 20 21  2  0
 21 22  1  0
 22 23  2  0
 23 24  1  0
 24 25  1  0
 24 26  1  0
 24 27  1  0
 22 28  1  0
 21 29  1  0
 20 30  1  0
 19 31  1  0
 17 32  1  0
 17 33  1  0
 16  2  1  0
 23 18  1  0
 11  6  1  0
M  END
>  <cnnaffinity>  (1) 
-5.29905

>  <filename>  (1) 
O=c1onc(-c2cccnc2)n1Cc1ccccc1C(F)(F)F

$$$$
