
     RDKit          3D

 47 50  0  0  0  0  0  0  0  0999 V2000
    6.6323    1.1254   25.5898 O   0  0  0  0  0  0  0  0  0  0  0  0
    7.7425    1.1395   25.1018 C   0  0  0  0  0  0  0  0  0  0  0  0
    8.9244    0.4738   25.7906 C   0  0  0  0  0  0  0  0  0  0  0  0
   10.2680    1.1408   25.5078 C   0  0  0  0  0  0  0  0  0  0  0  0
   10.4137    1.3391   23.9859 C   0  0  0  0  0  0  0  0  0  0  0  0
   11.7576    1.9196   23.5887 C   0  0  0  0  0  0  0  0  0  0  0  0
   11.9188    1.9476   22.2508 F   0  0  0  0  0  0  0  0  0  0  0  0
   12.7824    1.2047   24.0947 F   0  0  0  0  0  0  0  0  0  0  0  0
   11.9017    3.1885   24.0314 F   0  0  0  0  0  0  0  0  0  0  0  0
    9.2559    2.1765   23.4154 C   0  0  0  0  0  0  0  0  0  0  0  0
    7.9764    1.6029   23.8024 N   0  0  0  0  0  0  0  0  0  0  0  0
    7.0603    1.1562   22.7497 C   0  0  0  0  0  0  0  0  0  0  0  0
    7.4043   -0.2024   22.1881 C   0  0  0  0  0  0  0  0  0  0  0  0
    8.0107   -1.1981   22.8157 N   0  0  0  0  0  0  0  0  0  0  0  0
    8.0394   -2.1886   21.8888 C   0  0  0  0  0  0  0  0  0  0  0  0
    8.6130   -3.5400   22.1580 C   0  0  0  0  0  0  0  0  0  0  0  0
    7.7939   -4.3963   23.1195 C   0  0  0  0  0  0  0  0  0  0  0  0
    7.7219   -4.0269   24.5741 C   0  0  0  0  0  0  0  0  0  0  0  0
    8.5133   -5.2261   24.1409 C   0  0  0  0  0  0  0  0  0  0  0  0
    8.1321   -6.2137   24.3833 H   0  0  0  0  0  0  0  0  0  0  0  0
    9.5980   -5.1533   24.1782 H   0  0  0  0  0  0  0  0  0  0  0  0
    8.2641   -3.1351   24.8862 H   0  0  0  0  0  0  0  0  0  0  0  0
    6.7932   -4.1927   25.1163 H   0  0  0  0  0  0  0  0  0  0  0  0
    6.8782   -4.8083   22.6893 H   0  0  0  0  0  0  0  0  0  0  0  0
    8.6896   -4.0334   21.1886 H   0  0  0  0  0  0  0  0  0  0  0  0
    9.6303   -3.3948   22.5473 H   0  0  0  0  0  0  0  0  0  0  0  0
    7.5481   -1.8503   20.7163 N   0  0  0  0  0  0  0  0  0  0  0  0
    7.1021   -0.5833   20.9147 N   0  0  0  0  0  0  0  0  0  0  0  0
    6.4882    0.1253   19.8510 C   0  0  0  0  0  0  0  0  0  0  0  0
    5.3108    0.8662   20.0084 C   0  0  0  0  0  0  0  0  0  0  0  0
    4.7741    1.4917   18.8771 C   0  0  0  0  0  0  0  0  0  0  0  0
    5.4348    1.3721   17.6515 C   0  0  0  0  0  0  0  0  0  0  0  0
    6.5633    0.6560   17.4960 N   0  0  0  0  0  0  0  0  0  0  0  0
    7.0692    0.0494   18.5721 C   0  0  0  0  0  0  0  0  0  0  0  0
    7.9955   -0.5034   18.4354 H   0  0  0  0  0  0  0  0  0  0  0  0
    5.0395    1.8552   16.7592 H   0  0  0  0  0  0  0  0  0  0  0  0
    3.8627    2.0740   18.9463 H   0  0  0  0  0  0  0  0  0  0  0  0
    4.8270    0.9530   20.9808 H   0  0  0  0  0  0  0  0  0  0  0  0
    7.0573    1.9010   21.9427 H   0  0  0  0  0  0  0  0  0  0  0  0
    6.0540    1.1207   23.1870 H   0  0  0  0  0  0  0  0  0  0  0  0
    9.3327    3.2258   23.7414 H   0  0  0  0  0  0  0  0  0  0  0  0
    9.3118    2.1848   22.3187 H   0  0  0  0  0  0  0  0  0  0  0  0
   10.3645    0.3590   23.4992 H   0  0  0  0  0  0  0  0  0  0  0  0
   10.3415    2.1005   26.0304 H   0  0  0  0  0  0  0  0  0  0  0  0
   11.0853    0.5144   25.8878 H   0  0  0  0  0  0  0  0  0  0  0  0
    8.6737    0.3812   26.8517 H   0  0  0  0  0  0  0  0  0  0  0  0
    8.9247   -0.5376   25.3548 H   0  0  0  0  0  0  0  0  0  0  0  0
  1  2  2  0
  2  3  1  0
  3  4  1  0
  4  5  1  0
  5  6  1  0
  6  7  1  0
  6  8  1  0
  6  9  1  0
  5 10  1  0
 10 11  1  0
 11 12  1  0
 12 13  1  0
 13 14  2  0
 14 15  1  0
 15 16  1  0
 16 17  1  0
 17 18  1  0
 18 19  1  0
 19 20  1  0
 19 21  1  0
 18 22  1  0
 18 23  1  0
 17 24  1  0
 16 25  1  0
 16 26  1  0
 15 27  2  0
 27 28  1  0
 28 29  1  0
 29 30  2  0
 30 31  1  0
 31 32  2  0
 32 33  1  0
 33 34  2  0
 34 35  1  0
 32 36  1  0
 31 37  1  0
 30 38  1  0
 12 39  1  0
 12 40  1  0
 10 41  1  0
 10 42  1  0
  5 43  1  0
  4 44  1  0
  4 45  1  0
  3 46  1  0
  3 47  1  0
 11  2  1  0
 28 13  1  0
 34 29  1  0
 19 17  1  0
M  END
>  <cnnaffinity>  (1) 
-6.46139

>  <filename>  (1) 
O=C1CCC(C(F)(F)F)CN1Cc1nc(CC2CC2)nn1-c1cccnc1

$$$$
