
     RDKit          3D

 33 35  0  0  0  0  0  0  0  0999 V2000
    4.9487    1.7758   16.9676 H   0  0  0  0  0  0  0  0  0  0  0  0
    5.4434    1.3115   17.8166 C   0  0  0  0  0  0  0  0  0  0  0  0
    6.6217    0.7248   17.5558 N   0  0  0  0  0  0  0  0  0  0  0  0
    7.2485    0.1306   18.5765 C   0  0  0  0  0  0  0  0  0  0  0  0
    8.2110   -0.3304   18.3623 H   0  0  0  0  0  0  0  0  0  0  0  0
    6.7117    0.0427   19.8726 C   0  0  0  0  0  0  0  0  0  0  0  0
    7.4566   -0.7559   20.9003 C   0  0  0  0  0  0  0  0  0  0  0  0
    8.7441   -0.5148   20.9651 N   0  0  0  0  0  0  0  0  0  0  0  0
    9.4832   -1.1008   21.9560 N   0  0  0  0  0  0  0  0  0  0  0  0
   10.8796   -0.8085   21.9989 C   0  0  0  0  0  0  0  0  0  0  0  0
   11.7626   -1.9040   21.9848 C   0  0  0  0  0  0  0  0  0  0  0  0
   11.3241   -2.8948   21.9935 H   0  0  0  0  0  0  0  0  0  0  0  0
   13.1386   -1.7163   21.9290 C   0  0  0  0  0  0  0  0  0  0  0  0
   13.8007   -2.5693   21.8136 H   0  0  0  0  0  0  0  0  0  0  0  0
   13.6500   -0.4252   22.0357 C   0  0  0  0  0  0  0  0  0  0  0  0
   14.7172   -0.2589   22.0455 H   0  0  0  0  0  0  0  0  0  0  0  0
   12.7956    0.6678   22.1437 C   0  0  0  0  0  0  0  0  0  0  0  0
   13.2281    1.6577   22.2653 H   0  0  0  0  0  0  0  0  0  0  0  0
   11.3954    0.5055   22.0982 C   0  0  0  0  0  0  0  0  0  0  0  0
   10.5036    1.7318   22.2725 C   0  0  0  0  0  0  0  0  0  0  0  0
   11.1898    2.7681   22.8048 F   0  0  0  0  0  0  0  0  0  0  0  0
    9.4687    1.5015   23.0992 F   0  0  0  0  0  0  0  0  0  0  0  0
   10.0046    2.1775   21.1057 F   0  0  0  0  0  0  0  0  0  0  0  0
    8.8927   -1.8979   22.8965 C   0  0  0  0  0  0  0  0  0  0  0  0
    9.5631   -2.3008   23.6646 H   0  0  0  0  0  0  0  0  0  0  0  0
    7.5842   -2.1996   22.8822 C   0  0  0  0  0  0  0  0  0  0  0  0
    7.1404   -2.8157   23.6452 H   0  0  0  0  0  0  0  0  0  0  0  0
    6.7516   -1.7886   21.7688 C   0  0  0  0  0  0  0  0  0  0  0  0
    5.6365   -2.2539   21.5691 O   0  0  0  0  0  0  0  0  0  0  0  0
    5.4817    0.6750   20.1311 C   0  0  0  0  0  0  0  0  0  0  0  0
    5.0276    0.6216   21.1234 H   0  0  0  0  0  0  0  0  0  0  0  0
    4.8414    1.3280   19.0788 C   0  0  0  0  0  0  0  0  0  0  0  0
    3.8861    1.8265   19.2137 H   0  0  0  0  0  0  0  0  0  0  0  0
  1  2  1  0
  2  3  2  0
  3  4  1  0
  4  5  1  0
  4  6  2  0
  6  7  1  0
  7  8  2  0
  8  9  1  0
  9 10  1  0
 10 11  2  0
 11 12  1  0
 11 13  1  0
 13 14  1  0
 13 15  2  0
 15 16  1  0
 15 17  1  0
 17 18  1  0
 17 19  2  0
 19 20  1  0
 20 21  1  0
 20 22  1  0
 20 23  1  0
  9 24  1  0
 24 25  1  0
 24 26  2  0
 26 27  1  0
 26 28  1  0
 28 29  2  0
  6 30  1  0
 30 31  1  0
 30 32  2  0
 32 33  1  0
 32  2  1  0
 28  7  1  0
 19 10  1  0
M  END
>  <cnnaffinity>  (1) 
-5.81706

>  <filename>  (1) 
O=c1ccn(-c2ccccc2C(F)(F)F)nc1-c1cccnc1

$$$$
