
     RDKit          3D

 45 48  0  0  0  0  0  0  0  0999 V2000
    3.3031    3.8466   27.9673 O   0  0  0  0  0  0  0  0  0  0  0  0
    4.0892    3.3962   27.1495 C   0  0  0  0  0  0  0  0  0  0  0  0
    5.4771    3.8134   26.9172 C   0  0  0  0  0  0  0  0  0  0  0  0
    6.2447    3.1566   26.0074 C   0  0  0  0  0  0  0  0  0  0  0  0
    5.6990    2.0039   25.2895 C   0  0  0  0  0  0  0  0  0  0  0  0
    6.5736    1.1194   24.4330 C   0  0  0  0  0  0  0  0  0  0  0  0
    6.6256    1.3871   22.8957 C   0  0  0  0  0  0  0  0  0  0  0  0
    7.7605    0.6478   22.2500 C   0  0  0  0  0  0  0  0  0  0  0  0
    9.0161    0.9442   22.5031 N   0  0  0  0  0  0  0  0  0  0  0  0
    9.7150   -0.0920   21.9638 C   0  0  0  0  0  0  0  0  0  0  0  0
   11.1883   -0.1549   22.1465 C   0  0  0  0  0  0  0  0  0  0  0  0
   11.9967   -1.1754   21.6051 C   0  0  0  0  0  0  0  0  0  0  0  0
   13.3728   -1.1133   21.8169 C   0  0  0  0  0  0  0  0  0  0  0  0
   14.1620   -2.0449   21.2649 F   0  0  0  0  0  0  0  0  0  0  0  0
   13.9745   -0.1007   22.5613 C   0  0  0  0  0  0  0  0  0  0  0  0
   13.1501    0.8770   23.0991 C   0  0  0  0  0  0  0  0  0  0  0  0
   13.6879    1.8612   23.8286 F   0  0  0  0  0  0  0  0  0  0  0  0
   11.7793    0.8692   22.9100 C   0  0  0  0  0  0  0  0  0  0  0  0
   11.1563    1.6487   23.3330 H   0  0  0  0  0  0  0  0  0  0  0  0
   15.0390   -0.0446   22.7150 H   0  0  0  0  0  0  0  0  0  0  0  0
   11.5837   -2.0028   21.0388 H   0  0  0  0  0  0  0  0  0  0  0  0
    8.9582   -0.9830   21.3460 N   0  0  0  0  0  0  0  0  0  0  0  0
    7.7040   -0.5009   21.5354 N   0  0  0  0  0  0  0  0  0  0  0  0
    6.5656   -1.0849   20.8354 C   0  0  0  0  0  0  0  0  0  0  0  0
    6.0809   -0.2181   19.6876 C   0  0  0  0  0  0  0  0  0  0  0  0
    4.8790    0.5000   19.7012 C   0  0  0  0  0  0  0  0  0  0  0  0
    4.6067    1.3719   18.6423 C   0  0  0  0  0  0  0  0  0  0  0  0
    5.5201    1.4552   17.5888 C   0  0  0  0  0  0  0  0  0  0  0  0
    6.6592    0.7493   17.5389 N   0  0  0  0  0  0  0  0  0  0  0  0
    6.9245   -0.0521   18.5764 C   0  0  0  0  0  0  0  0  0  0  0  0
    7.8602   -0.6093   18.5260 H   0  0  0  0  0  0  0  0  0  0  0  0
    5.3232    2.0981   16.7335 H   0  0  0  0  0  0  0  0  0  0  0  0
    3.7129    1.9847   18.6251 H   0  0  0  0  0  0  0  0  0  0  0  0
    4.1542    0.3752   20.5091 H   0  0  0  0  0  0  0  0  0  0  0  0
    6.9211   -2.0576   20.4815 H   0  0  0  0  0  0  0  0  0  0  0  0
    5.7678   -1.2612   21.5647 H   0  0  0  0  0  0  0  0  0  0  0  0
    5.6872    1.1157   22.4032 H   0  0  0  0  0  0  0  0  0  0  0  0
    6.8066    2.4496   22.7025 H   0  0  0  0  0  0  0  0  0  0  0  0
    7.5988    1.1814   24.8195 H   0  0  0  0  0  0  0  0  0  0  0  0
    6.2469    0.0862   24.5897 H   0  0  0  0  0  0  0  0  0  0  0  0
    4.4577    1.6382   25.4426 N   0  0  0  0  0  0  0  0  0  0  0  0
    3.6927    2.3734   26.2949 N   0  0  0  0  0  0  0  0  0  0  0  0
    2.7499    2.0587   26.4791 H   0  0  0  0  0  0  0  0  0  0  0  0
    7.2750    3.4465   25.8123 H   0  0  0  0  0  0  0  0  0  0  0  0
    5.8190    4.6350   27.5359 H   0  0  0  0  0  0  0  0  0  0  0  0
  1  2  2  0
  2  3  1  0
  3  4  2  0
  4  5  1  0
  5  6  1  0
  6  7  1  0
  7  8  1  0
  8  9  2  0
  9 10  1  0
 10 11  1  0
 11 12  2  0
 12 13  1  0
 13 14  1  0
 13 15  2  0
 15 16  1  0
 16 17  1  0
 16 18  2  0
 18 19  1  0
 15 20  1  0
 12 21  1  0
 10 22  2  0
 22 23  1  0
 23 24  1  0
 24 25  1  0
 25 26  2  0
 26 27  1  0
 27 28  2  0
 28 29  1  0
 29 30  2  0
 30 31  1  0
 28 32  1  0
 27 33  1  0
 26 34  1  0
 24 35  1  0
 24 36  1  0
  7 37  1  0
  7 38  1  0
  6 39  1  0
  6 40  1  0
  5 41  2  0
 41 42  1  0
 42 43  1  0
  4 44  1  0
  3 45  1  0
 42  2  1  0
 23  8  1  0
 30 25  1  0
 18 11  1  0
M  END
>  <cnnaffinity>  (1) 
-6.42565

>  <filename>  (1) 
O=c1ccc(CCc2nc(-c3cc(F)cc(F)c3)nn2Cc2cccnc2)n[nH]1

$$$$
