
     RDKit          3D

 33 35  0  0  0  0  0  0  0  0999 V2000
    4.9103    1.7555   16.9159 H   0  0  0  0  0  0  0  0  0  0  0  0
    5.3714    1.3605   17.8200 C   0  0  0  0  0  0  0  0  0  0  0  0
    6.5804    0.8083   17.6574 N   0  0  0  0  0  0  0  0  0  0  0  0
    7.1642    0.2788   18.7397 C   0  0  0  0  0  0  0  0  0  0  0  0
    8.1374   -0.1783   18.5600 H   0  0  0  0  0  0  0  0  0  0  0  0
    6.6013    0.2867   20.0330 C   0  0  0  0  0  0  0  0  0  0  0  0
    7.2920   -0.4466   21.1328 C   0  0  0  0  0  0  0  0  0  0  0  0
    7.5249    0.3801   22.6622 S   0  0  0  0  0  0  0  0  0  0  0  0
    8.2954   -0.8598   23.6496 C   0  0  0  0  0  0  0  0  0  0  0  0
    8.4265   -0.5467   25.1339 C   0  0  0  0  0  0  0  0  0  0  0  0
    9.3869   -0.9500   25.4828 H   0  0  0  0  0  0  0  0  0  0  0  0
    8.4517    0.5350   25.2842 H   0  0  0  0  0  0  0  0  0  0  0  0
    7.2943   -1.1856   25.9266 C   0  0  0  0  0  0  0  0  0  0  0  0
    7.4232   -2.4716   26.4727 C   0  0  0  0  0  0  0  0  0  0  0  0
    8.3701   -3.0006   26.3898 H   0  0  0  0  0  0  0  0  0  0  0  0
    6.3543   -3.0901   27.1267 C   0  0  0  0  0  0  0  0  0  0  0  0
    6.4523   -4.0877   27.5439 H   0  0  0  0  0  0  0  0  0  0  0  0
    5.1442   -2.4044   27.2441 C   0  0  0  0  0  0  0  0  0  0  0  0
    3.8117   -3.1542   28.0752 Cl  0  0  0  0  0  0  0  0  0  0  0  0
    4.9820   -1.1298   26.6955 C   0  0  0  0  0  0  0  0  0  0  0  0
    4.0263   -0.6235   26.7830 H   0  0  0  0  0  0  0  0  0  0  0  0
    6.0598   -0.5319   26.0383 C   0  0  0  0  0  0  0  0  0  0  0  0
    5.9408    0.4509   25.5879 H   0  0  0  0  0  0  0  0  0  0  0  0
    8.6825   -2.0631   23.1783 C   0  0  0  0  0  0  0  0  0  0  0  0
    9.2344   -2.7664   23.8001 H   0  0  0  0  0  0  0  0  0  0  0  0
    8.3425   -2.6091   21.8665 C   0  0  0  0  0  0  0  0  0  0  0  0
    8.5712   -3.7717   21.5659 O   0  0  0  0  0  0  0  0  0  0  0  0
    7.7179   -1.7037   20.9087 C   0  0  0  0  0  0  0  0  0  0  0  0
    7.5656   -2.1208   19.9307 H   0  0  0  0  0  0  0  0  0  0  0  0
    5.3520    0.9053   20.1840 C   0  0  0  0  0  0  0  0  0  0  0  0
    4.8821    0.9696   21.1634 H   0  0  0  0  0  0  0  0  0  0  0  0
    4.7213    1.4305   19.0522 C   0  0  0  0  0  0  0  0  0  0  0  0
    3.7485    1.9002   19.1072 H   0  0  0  0  0  0  0  0  0  0  0  0
  1  2  1  0
  2  3  2  0
  3  4  1  0
  4  5  1  0
  4  6  2  0
  6  7  1  0
  7  8  1  0
  8  9  1  0
  9 10  1  0
 10 11  1  0
 10 12  1  0
 10 13  1  0
 13 14  2  0
 14 15  1  0
 14 16  1  0
 16 17  1  0
 16 18  2  0
 18 19  1  0
 18 20  1  0
 20 21  1  0
 20 22  2  0
 22 23  1  0
  9 24  2  0
 24 25  1  0
 24 26  1  0
 26 27  2  0
 26 28  1  0
 28 29  1  0
  6 30  1  0
 30 31  1  0
 30 32  2  0
 32 33  1  0
 32  2  1  0
 28  7  2  0
 22 13  1  0
M  END
>  <cnnaffinity>  (1) 
-5.54689

>  <filename>  (1) 
O=c1cc(Cc2ccc(Cl)cc2)sc(-c2cccnc2)c1

$$$$
