
     RDKit          3D

 32 35  0  0  0  0  0  0  0  0999 V2000
    4.9236    1.8010   16.9907 H   0  0  0  0  0  0  0  0  0  0  0  0
    5.3899    1.2926   17.8274 C   0  0  0  0  0  0  0  0  0  0  0  0
    6.5455    0.6669   17.5541 N   0  0  0  0  0  0  0  0  0  0  0  0
    7.1692    0.0558   18.5658 C   0  0  0  0  0  0  0  0  0  0  0  0
    8.1274   -0.4147   18.3543 H   0  0  0  0  0  0  0  0  0  0  0  0
    6.6600    0.0138   19.8832 C   0  0  0  0  0  0  0  0  0  0  0  0
    7.3504   -0.6574   20.9288 N   0  0  0  0  0  0  0  0  0  0  0  0
    6.7560   -1.4298   21.9165 C   0  0  0  0  0  0  0  0  0  0  0  0
    5.6918   -1.5979   21.9484 H   0  0  0  0  0  0  0  0  0  0  0  0
    7.7289   -1.9224   22.7257 C   0  0  0  0  0  0  0  0  0  0  0  0
    7.6777   -2.7583   23.8962 C   0  0  0  0  0  0  0  0  0  0  0  0
    6.4336   -3.1635   24.3204 O   0  0  0  0  0  0  0  0  0  0  0  0
    6.6339   -3.9272   25.4291 C   0  0  0  0  0  0  0  0  0  0  0  0
    5.6519   -4.5567   26.2057 C   0  0  0  0  0  0  0  0  0  0  0  0
    4.5961   -4.4694   25.9632 H   0  0  0  0  0  0  0  0  0  0  0  0
    6.1056   -5.2962   27.3008 C   0  0  0  0  0  0  0  0  0  0  0  0
    5.3869   -5.8093   27.9370 H   0  0  0  0  0  0  0  0  0  0  0  0
    7.4812   -5.4022   27.6090 C   0  0  0  0  0  0  0  0  0  0  0  0
    7.7982   -5.9922   28.4641 H   0  0  0  0  0  0  0  0  0  0  0  0
    8.4390   -4.7667   26.8258 C   0  0  0  0  0  0  0  0  0  0  0  0
    9.5029   -4.8369   27.0412 H   0  0  0  0  0  0  0  0  0  0  0  0
    8.0073   -4.0164   25.7173 C   0  0  0  0  0  0  0  0  0  0  0  0
    8.6606   -3.2430   24.6993 C   0  0  0  0  0  0  0  0  0  0  0  0
    9.7258   -3.0842   24.6002 H   0  0  0  0  0  0  0  0  0  0  0  0
    8.9296   -1.4475   22.2130 N   0  0  0  0  0  0  0  0  0  0  0  0
    9.8806   -1.5575   22.5068 H   0  0  0  0  0  0  0  0  0  0  0  0
    8.7462   -0.6643   21.1205 C   0  0  0  0  0  0  0  0  0  0  0  0
    9.6346   -0.1231   20.4943 O   0  0  0  0  0  0  0  0  0  0  0  0
    5.4435    0.6519   20.1501 C   0  0  0  0  0  0  0  0  0  0  0  0
    5.0408    0.6427   21.1640 H   0  0  0  0  0  0  0  0  0  0  0  0
    4.8043    1.3108   19.0980 C   0  0  0  0  0  0  0  0  0  0  0  0
    3.8746    1.8419   19.2564 H   0  0  0  0  0  0  0  0  0  0  0  0
  1  2  1  0
  2  3  2  0
  3  4  1  0
  4  5  1  0
  4  6  2  0
  6  7  1  0
  7  8  1  0
  8  9  1  0
  8 10  2  0
 10 11  1  0
 11 12  1  0
 12 13  1  0
 13 14  2  0
 14 15  1  0
 14 16  1  0
 16 17  1  0
 16 18  2  0
 18 19  1  0
 18 20  1  0
 20 21  1  0
 20 22  2  0
 22 23  1  0
 23 24  1  0
 10 25  1  0
 25 26  1  0
 25 27  1  0
 27 28  2  0
  6 29  1  0
 29 30  1  0
 29 31  2  0
 31 32  1  0
 31  2  1  0
 27  7  1  0
 23 11  2  0
 22 13  1  0
M  END
>  <cnnaffinity>  (1) 
-5.4627

>  <filename>  (1) 
O=c1[nH]c(-c2cc3ccccc3o2)cn1-c1cccnc1

$$$$
