
     RDKit          3D

 32 35  0  0  0  0  0  0  0  0999 V2000
    4.8872    1.8470   17.0205 H   0  0  0  0  0  0  0  0  0  0  0  0
    5.4020    1.3177   17.8205 C   0  0  0  0  0  0  0  0  0  0  0  0
    6.5608    0.7275   17.4811 N   0  0  0  0  0  0  0  0  0  0  0  0
    7.2297    0.0781   18.4426 C   0  0  0  0  0  0  0  0  0  0  0  0
    8.1716   -0.3877   18.1648 H   0  0  0  0  0  0  0  0  0  0  0  0
    6.7691   -0.0380   19.7761 C   0  0  0  0  0  0  0  0  0  0  0  0
    7.4784   -0.7752   20.7996 N   0  0  0  0  0  0  0  0  0  0  0  0
    8.8101   -0.6104   21.1527 C   0  0  0  0  0  0  0  0  0  0  0  0
    9.5817    0.1546   20.6395 O   0  0  0  0  0  0  0  0  0  0  0  0
    9.0387   -1.6052   22.3084 C   0  0  0  0  0  0  0  0  0  0  0  0
   10.0722   -1.9295   22.8344 O   0  0  0  0  0  0  0  0  0  0  0  0
    7.7788   -2.1195   22.5977 N   0  0  0  0  0  0  0  0  0  0  0  0
    7.4944   -3.1509   23.5431 C   0  0  0  0  0  0  0  0  0  0  0  0
    6.6868   -4.1950   23.2378 C   0  0  0  0  0  0  0  0  0  0  0  0
    6.1084   -4.2969   22.3316 H   0  0  0  0  0  0  0  0  0  0  0  0
    6.6742   -5.4390   24.4336 S   0  0  0  0  0  0  0  0  0  0  0  0
    7.7867   -4.5497   25.4297 C   0  0  0  0  0  0  0  0  0  0  0  0
    8.3849   -4.9941   26.6229 C   0  0  0  0  0  0  0  0  0  0  0  0
    8.2384   -6.0099   26.9759 H   0  0  0  0  0  0  0  0  0  0  0  0
    9.1733   -4.0986   27.3307 C   0  0  0  0  0  0  0  0  0  0  0  0
    9.6411   -4.4251   28.2559 H   0  0  0  0  0  0  0  0  0  0  0  0
    9.3460   -2.7771   26.8731 C   0  0  0  0  0  0  0  0  0  0  0  0
    9.9356   -2.0809   27.4647 H   0  0  0  0  0  0  0  0  0  0  0  0
    8.7983   -2.3540   25.6689 C   0  0  0  0  0  0  0  0  0  0  0  0
    8.9469   -1.3268   25.3414 H   0  0  0  0  0  0  0  0  0  0  0  0
    8.0664   -3.2743   24.8803 C   0  0  0  0  0  0  0  0  0  0  0  0
    6.8880   -1.7533   21.5924 C   0  0  0  0  0  0  0  0  0  0  0  0
    5.7969   -2.2218   21.4044 O   0  0  0  0  0  0  0  0  0  0  0  0
    5.5505    0.5626   20.1052 C   0  0  0  0  0  0  0  0  0  0  0  0
    5.1561    0.4599   21.1156 H   0  0  0  0  0  0  0  0  0  0  0  0
    4.8598    1.2685   19.1105 C   0  0  0  0  0  0  0  0  0  0  0  0
    3.9211    1.7775   19.3193 H   0  0  0  0  0  0  0  0  0  0  0  0
  1  2  1  0
  2  3  2  0
  3  4  1  0
  4  5  1  0
  4  6  2  0
  6  7  1  0
  7  8  1  0
  8  9  2  0
  8 10  1  0
 10 11  2  0
 10 12  1  0
 12 13  1  0
 13 14  2  0
 14 15  1  0
 14 16  1  0
 16 17  1  0
 17 18  2  0
 18 19  1  0
 18 20  1  0
 20 21  1  0
 20 22  2  0
 22 23  1  0
 22 24  1  0
 24 25  1  0
 24 26  2  0
 12 27  1  0
 27 28  2  0
  6 29  1  0
 29 30  1  0
 29 31  2  0
 31 32  1  0
 31  2  1  0
 27  7  1  0
 26 13  1  0
 26 17  1  0
M  END
>  <cnnaffinity>  (1) 
-5.29722

>  <filename>  (1) 
O=C1C(=O)N(c2csc3ccccc23)C(=O)N1c1cccnc1

$$$$
