
     RDKit          3D

 27 29  0  0  0  0  0  0  0  0999 V2000
   12.8966    1.6923   21.9773 H   0  0  0  0  0  0  0  0  0  0  0  0
   12.1659    0.9671   22.3249 C   0  0  0  0  0  0  0  0  0  0  0  0
   12.3454    0.2456   23.4683 N   0  0  0  0  0  0  0  0  0  0  0  0
   11.2511   -0.4749   23.5176 C   0  0  0  0  0  0  0  0  0  0  0  0
   10.9932   -1.1911   24.2902 H   0  0  0  0  0  0  0  0  0  0  0  0
   10.4479   -0.2079   22.4538 N   0  0  0  0  0  0  0  0  0  0  0  0
    9.1773   -0.7498   22.1195 C   0  0  0  0  0  0  0  0  0  0  0  0
    8.6625   -1.8532   22.8616 C   0  0  0  0  0  0  0  0  0  0  0  0
    9.2527   -2.3033   23.6606 H   0  0  0  0  0  0  0  0  0  0  0  0
    7.4317   -2.3435   22.5668 C   0  0  0  0  0  0  0  0  0  0  0  0
    7.0011   -3.1636   23.1169 H   0  0  0  0  0  0  0  0  0  0  0  0
    6.5974   -1.8343   21.4875 C   0  0  0  0  0  0  0  0  0  0  0  0
    5.5125   -2.3068   21.2011 O   0  0  0  0  0  0  0  0  0  0  0  0
    7.2055   -0.7424   20.7564 N   0  0  0  0  0  0  0  0  0  0  0  0
    6.5068   -0.0426   19.7098 C   0  0  0  0  0  0  0  0  0  0  0  0
    7.0819    0.0963   18.4302 C   0  0  0  0  0  0  0  0  0  0  0  0
    8.0458   -0.3658   18.2282 H   0  0  0  0  0  0  0  0  0  0  0  0
    6.5189    0.7777   17.4276 N   0  0  0  0  0  0  0  0  0  0  0  0
    5.3607    1.4046   17.6911 C   0  0  0  0  0  0  0  0  0  0  0  0
    4.9189    1.9647   16.8694 H   0  0  0  0  0  0  0  0  0  0  0  0
    4.7401    1.3704   18.9446 C   0  0  0  0  0  0  0  0  0  0  0  0
    3.8345    1.9370   19.1060 H   0  0  0  0  0  0  0  0  0  0  0  0
    5.3229    0.6427   19.9865 C   0  0  0  0  0  0  0  0  0  0  0  0
    4.9207    0.6427   21.0011 H   0  0  0  0  0  0  0  0  0  0  0  0
    8.4357   -0.2199   21.1054 C   0  0  0  0  0  0  0  0  0  0  0  0
    8.7520    0.6513   20.5381 H   0  0  0  0  0  0  0  0  0  0  0  0
   11.0472    0.7308   21.6739 N   0  0  0  0  0  0  0  0  0  0  0  0
  1  2  1  0
  2  3  1  0
  3  4  2  0
  4  5  1  0
  4  6  1  0
  6  7  1  0
  7  8  1  0
  8  9  1  0
  8 10  2  0
 10 11  1  0
 10 12  1  0
 12 13  2  0
 12 14  1  0
 14 15  1  0
 15 16  2  0
 16 17  1  0
 16 18  1  0
 18 19  2  0
 19 20  1  0
 19 21  1  0
 21 22  1  0
 21 23  2  0
 23 24  1  0
 14 25  1  0
 25 26  1  0
  6 27  1  0
 27  2  2  0
 25  7  2  0
 23 15  1  0
M  END
>  <cnnaffinity>  (1) 
-4.94196

>  <filename>  (1) 
O=c1ccc(-n2cncn2)cn1-c1cccnc1

$$$$
