
     RDKit          3D

 33 35  0  0  0  0  0  0  0  0999 V2000
    4.9215    1.8128   16.9654 H   0  0  0  0  0  0  0  0  0  0  0  0
    5.3809    1.3031   17.8117 C   0  0  0  0  0  0  0  0  0  0  0  0
    6.5436    0.6805   17.5584 N   0  0  0  0  0  0  0  0  0  0  0  0
    7.1506    0.0695   18.5841 C   0  0  0  0  0  0  0  0  0  0  0  0
    8.0975   -0.4219   18.3496 H   0  0  0  0  0  0  0  0  0  0  0  0
    6.6520    0.0428   19.8989 C   0  0  0  0  0  0  0  0  0  0  0  0
    7.3694   -0.6644   21.0014 C   0  0  0  0  0  0  0  0  0  0  0  0
    7.6006   -2.0709   20.8554 C   0  0  0  0  0  0  0  0  0  0  0  0
    7.1627   -2.5175   19.9627 H   0  0  0  0  0  0  0  0  0  0  0  0
    8.2624   -2.7863   21.8084 C   0  0  0  0  0  0  0  0  0  0  0  0
    8.5136   -3.8350   21.7263 H   0  0  0  0  0  0  0  0  0  0  0  0
    8.6367   -2.1549   23.0714 C   0  0  0  0  0  0  0  0  0  0  0  0
    9.1867   -2.6883   24.0210 O   0  0  0  0  0  0  0  0  0  0  0  0
    8.2916   -0.8200   23.1847 N   0  0  0  0  0  0  0  0  0  0  0  0
    8.5947   -0.4537   24.0743 H   0  0  0  0  0  0  0  0  0  0  0  0
    7.7445   -0.0467   22.1829 C   0  0  0  0  0  0  0  0  0  0  0  0
    7.5510    1.3898   22.4618 C   0  0  0  0  0  0  0  0  0  0  0  0
    8.0485    2.3624   21.5709 C   0  0  0  0  0  0  0  0  0  0  0  0
    8.5394    2.0317   20.6614 H   0  0  0  0  0  0  0  0  0  0  0  0
    7.8631    3.7229   21.8376 C   0  0  0  0  0  0  0  0  0  0  0  0
    8.2945    4.4970   21.2068 H   0  0  0  0  0  0  0  0  0  0  0  0
    7.1011    4.1287   22.9283 C   0  0  0  0  0  0  0  0  0  0  0  0
    6.8911    5.1764   23.1146 H   0  0  0  0  0  0  0  0  0  0  0  0
    6.5929    3.1556   23.7995 C   0  0  0  0  0  0  0  0  0  0  0  0
    5.8373    3.5926   24.9989 N   0  0  0  0  0  4  0  0  0  0  0  0
    5.6748    4.7906   25.1634 O   0  0  0  0  0  0  0  0  0  0  0  0
    5.4238    2.7380   25.7656 O   0  0  0  0  0  1  0  0  0  0  0  0
    6.8236    1.7985   23.5901 C   0  0  0  0  0  0  0  0  0  0  0  0
    6.4237    1.0671   24.2850 H   0  0  0  0  0  0  0  0  0  0  0  0
    5.4277    0.6850   20.1354 C   0  0  0  0  0  0  0  0  0  0  0  0
    5.0138    0.6690   21.1441 H   0  0  0  0  0  0  0  0  0  0  0  0
    4.7818    1.3232   19.0754 C   0  0  0  0  0  0  0  0  0  0  0  0
    3.8471    1.8531   19.2139 H   0  0  0  0  0  0  0  0  0  0  0  0
  1  2  1  0
  2  3  2  0
  3  4  1  0
  4  5  1  0
  4  6  2  0
  6  7  1  0
  7  8  1  0
  8  9  1  0
  8 10  2  0
 10 11  1  0
 10 12  1  0
 12 13  2  0
 12 14  1  0
 14 15  1  0
 14 16  1  0
 16 17  1  0
 17 18  2  0
 18 19  1  0
 18 20  1  0
 20 21  1  0
 20 22  2  0
 22 23  1  0
 22 24  1  0
 24 25  1  0
 25 26  2  0
 25 27  1  0
 24 28  2  0
 28 29  1  0
  6 30  1  0
 30 31  1  0
 30 32  2  0
 32 33  1  0
 32  2  1  0
 16  7  2  0
 28 17  1  0
M  CHG  2  25   1  27  -1
M  END
>  <cnnaffinity>  (1) 
-4.8262

>  <filename>  (1) 
O=c1ccc(-c2cccnc2)c(-c2cccc([N+](=O)[O-])c2)[nH]1

$$$$
