
     RDKit          3D

 32 34  0  0  0  0  0  0  0  0999 V2000
    5.0338    1.9001   17.0464 H   0  0  0  0  0  0  0  0  0  0  0  0
    5.4960    1.3269   17.8466 C   0  0  0  0  0  0  0  0  0  0  0  0
    6.6685    0.7425   17.5525 N   0  0  0  0  0  0  0  0  0  0  0  0
    7.2780    0.0459   18.5191 C   0  0  0  0  0  0  0  0  0  0  0  0
    8.2412   -0.3948   18.2720 H   0  0  0  0  0  0  0  0  0  0  0  0
    6.7298   -0.1372   19.8154 C   0  0  0  0  0  0  0  0  0  0  0  0
    7.3561   -0.9148   20.8572 N   0  0  0  0  0  0  0  0  0  0  0  0
    8.7241   -0.9397   21.1593 C   0  0  0  0  0  0  0  0  0  0  0  0
    9.5721   -0.2333   20.6910 O   0  0  0  0  0  0  0  0  0  0  0  0
    8.8412   -2.0865   22.2371 C   0  0  0  0  0  0  0  0  0  0  0  0
    9.7737   -2.7161   22.6458 O   0  0  0  0  0  0  0  0  0  0  0  0
    7.5372   -2.3225   22.5827 N   0  0  0  0  0  0  0  0  0  0  0  0
    6.9999   -3.2462   23.8448 S   0  0  0  0  0  0  0  0  0  0  0  0
    5.6427   -2.8766   24.1347 O   0  0  0  0  0  0  0  0  0  0  0  0
    8.0793   -3.1841   24.7948 O   0  0  0  0  0  0  0  0  0  0  0  0
    6.9964   -4.8511   23.1234 C   0  0  0  0  0  0  0  0  0  0  0  0
    8.1110   -5.3460   22.5884 C   0  0  0  0  0  0  0  0  0  0  0  0
    9.1220   -4.7062   22.6094 H   0  0  0  0  0  0  0  0  0  0  0  0
    8.2923   -5.5480   22.8133 C   0  0  0  0  0  0  0  0  0  0  0  0
    8.8333   -6.6715   23.4939 H   0  0  0  0  0  0  0  0  0  0  0  0
    5.8483   -6.6177   21.7747 C   0  0  0  0  0  0  0  0  0  0  0  0
    6.2368   -7.6013   22.3057 H   0  0  0  0  0  0  0  0  0  0  0  0
    5.7699   -6.2201   21.6870 C   0  0  0  0  0  0  0  0  0  0  0  0
    6.1958   -6.4770   20.6045 H   0  0  0  0  0  0  0  0  0  0  0  0
    5.6407   -5.4106   22.6609 C   0  0  0  0  0  0  0  0  0  0  0  0
    5.3314   -4.7358   21.9260 H   0  0  0  0  0  0  0  0  0  0  0  0
    6.6725   -1.8365   21.6483 C   0  0  0  0  0  0  0  0  0  0  0  0
    5.5644   -2.2539   21.4883 O   0  0  0  0  0  0  0  0  0  0  0  0
    5.4963    0.4562   20.0938 C   0  0  0  0  0  0  0  0  0  0  0  0
    5.0442    0.3086   21.0740 H   0  0  0  0  0  0  0  0  0  0  0  0
    4.8789    1.2192   19.0958 C   0  0  0  0  0  0  0  0  0  0  0  0
    3.9386    1.7288   19.2773 H   0  0  0  0  0  0  0  0  0  0  0  0
  1  2  1  0
  2  3  2  0
  3  4  1  0
  4  5  1  0
  4  6  2  0
  6  7  1  0
  7  8  1  0
  8  9  2  0
  8 10  1  0
 10 11  2  0
 10 12  1  0
 12 13  1  0
 13 14  2  0
 13 15  2  0
 13 16  1  0
 16 17  2  0
 17 18  1  0
 17 19  1  0
 19 20  1  0
 19 21  2  0
 21 22  1  0
 21 23  1  0
 23 24  1  0
 23 25  2  0
 25 26  1  0
 12 27  1  0
 27 28  2  0
  6 29  1  0
 29 30  1  0
 29 31  2  0
 31 32  1  0
 31  2  1  0
 27  7  1  0
 25 16  1  0
M  END
>  <cnnaffinity>  (1) 
-4.94486

>  <filename>  (1) 
O=C1C(=O)N(S(=O)(=O)c2ccccc2)C(=O)N1c1cccnc1

$$$$
