
     RDKit          3D

 31 33  0  0  0  0  0  0  0  0999 V2000
    4.9375    1.8672   16.9430 H   0  0  0  0  0  0  0  0  0  0  0  0
    5.4120    1.3467   17.7748 C   0  0  0  0  0  0  0  0  0  0  0  0
    6.5777    0.7341   17.5118 N   0  0  0  0  0  0  0  0  0  0  0  0
    7.1777    0.0906   18.5220 C   0  0  0  0  0  0  0  0  0  0  0  0
    8.1170   -0.4109   18.2919 H   0  0  0  0  0  0  0  0  0  0  0  0
    6.6514    0.0042   19.8265 C   0  0  0  0  0  0  0  0  0  0  0  0
    7.3485   -0.7141   20.8742 N   0  0  0  0  0  0  0  0  0  0  0  0
    8.6217   -0.3027   21.2372 C   0  0  0  0  0  0  0  0  0  0  0  0
    8.9974    0.5858   20.7394 H   0  0  0  0  0  0  0  0  0  0  0  0
    9.3418   -0.9567   22.1884 C   0  0  0  0  0  0  0  0  0  0  0  0
   10.3377   -0.5993   22.4353 H   0  0  0  0  0  0  0  0  0  0  0  0
    8.7774   -2.0837   22.8653 C   0  0  0  0  0  0  0  0  0  0  0  0
    9.5386   -2.7807   23.9875 C   0  0  0  0  0  0  0  0  0  0  0  0
   10.6179   -2.7265   23.8116 H   0  0  0  0  0  0  0  0  0  0  0  0
    9.2981   -3.8492   24.0027 H   0  0  0  0  0  0  0  0  0  0  0  0
    9.2016   -2.1200   25.3058 C   0  0  0  0  0  0  0  0  0  0  0  0
    7.7929   -2.5727   26.2082 S   0  0  0  0  0  0  0  0  0  0  0  0
    7.8932   -1.1722   27.1996 C   0  0  0  0  0  0  0  0  0  0  0  0
    7.1165   -0.9823   27.9301 H   0  0  0  0  0  0  0  0  0  0  0  0
    8.9797   -0.4174   26.8848 C   0  0  0  0  0  0  0  0  0  0  0  0
    9.2296    0.5075   27.3831 H   0  0  0  0  0  0  0  0  0  0  0  0
    9.7373   -0.9695   25.8104 C   0  0  0  0  0  0  0  0  0  0  0  0
   10.6650   -0.5429   25.4403 H   0  0  0  0  0  0  0  0  0  0  0  0
    7.5015   -2.4623   22.5642 C   0  0  0  0  0  0  0  0  0  0  0  0
    6.9808   -3.2542   23.0849 H   0  0  0  0  0  0  0  0  0  0  0  0
    6.7014   -1.8213   21.5412 C   0  0  0  0  0  0  0  0  0  0  0  0
    5.5771   -2.1893   21.2490 O   0  0  0  0  0  0  0  0  0  0  0  0
    5.4341    0.6429   20.0867 C   0  0  0  0  0  0  0  0  0  0  0  0
    5.0021    0.6126   21.0882 H   0  0  0  0  0  0  0  0  0  0  0  0
    4.8126    1.3296   19.0384 C   0  0  0  0  0  0  0  0  0  0  0  0
    3.8820    1.8607   19.1936 H   0  0  0  0  0  0  0  0  0  0  0  0
  1  2  1  0
  2  3  2  0
  3  4  1  0
  4  5  1  0
  4  6  2  0
  6  7  1  0
  7  8  1  0
  8  9  1  0
  8 10  2  0
 10 11  1  0
 10 12  1  0
 12 13  1  0
 13 14  1  0
 13 15  1  0
 13 16  1  0
 16 17  1  0
 17 18  1  0
 18 19  1  0
 18 20  2  0
 20 21  1  0
 20 22  1  0
 22 23  1  0
 12 24  2  0
 24 25  1  0
 24 26  1  0
 26 27  2  0
  6 28  1  0
 28 29  1  0
 28 30  2  0
 30 31  1  0
 30  2  1  0
 26  7  1  0
 22 16  2  0
M  END
>  <cnnaffinity>  (1) 
-5.25731

>  <filename>  (1) 
O=c1cc(Cc2cccs2)ccn1-c1cccnc1

$$$$
