
     RDKit          3D

 25 27  0  0  0  0  0  0  0  0999 V2000
    4.9839    1.8855   17.0323 H   0  0  0  0  0  0  0  0  0  0  0  0
    5.4494    1.3035   17.8257 C   0  0  0  0  0  0  0  0  0  0  0  0
    6.6047    0.6934   17.5161 N   0  0  0  0  0  0  0  0  0  0  0  0
    7.2449    0.0204   18.4783 C   0  0  0  0  0  0  0  0  0  0  0  0
    8.1821   -0.4654   18.1898 H   0  0  0  0  0  0  0  0  0  0  0  0
    6.7449   -0.1009   19.7966 C   0  0  0  0  0  0  0  0  0  0  0  0
    7.4412   -0.8054   20.8111 N   0  0  0  0  0  0  0  0  0  0  0  0
    6.8673   -1.7157   21.7073 C   0  0  0  0  0  0  0  0  0  0  0  0
    5.8013   -2.2729   21.6804 O   0  0  0  0  0  0  0  0  0  0  0  0
    7.8178   -1.9360   22.6729 N   0  0  0  0  0  0  0  0  0  0  0  0
    7.6797   -2.6353   23.3738 H   0  0  0  0  0  0  0  0  0  0  0  0
    9.0203   -1.3589   22.4282 C   0  0  0  0  0  0  0  0  0  0  0  0
   10.0207   -1.5063   23.0744 O   0  0  0  0  0  0  0  0  0  0  0  0
    8.8435   -0.5500   21.1551 C   0  0  2  0  0  0  0  0  0  0  0  0
    9.5527   -0.9408   20.4143 H   0  0  0  0  0  0  0  0  0  0  0  0
    9.2502    0.8683   21.4258 C   0  0  0  0  0  0  0  0  0  0  0  0
    8.5773    1.7637   22.1870 N   0  0  0  0  0  0  0  0  0  0  0  0
    9.3034    2.8457   22.2158 N   0  0  0  0  0  0  0  0  0  0  0  0
   10.3759    2.5774   21.4972 N   0  0  0  0  0  0  0  0  0  0  0  0
   11.1298    3.2500   21.3755 H   0  0  0  0  0  0  0  0  0  0  0  0
   10.3976    1.3576   20.9868 N   0  0  0  0  0  0  0  0  0  0  0  0
    5.5194    0.5085   20.0973 C   0  0  0  0  0  0  0  0  0  0  0  0
    5.1116    0.4011   21.1025 H   0  0  0  0  0  0  0  0  0  0  0  0
    4.8727    1.2383   19.0976 C   0  0  0  0  0  0  0  0  0  0  0  0
    3.9503    1.7686   19.2990 H   0  0  0  0  0  0  0  0  0  0  0  0
  1  2  1  0
  2  3  2  0
  3  4  1  0
  4  5  1  0
  4  6  2  0
  6  7  1  0
  7  8  1  0
  8  9  2  0
  8 10  1  0
 10 11  1  0
 10 12  1  0
 12 13  2  0
 12 14  1  0
 14 15  1  6
 14 16  1  0
 16 17  1  0
 17 18  2  0
 18 19  1  0
 19 20  1  0
 19 21  1  0
  6 22  1  0
 22 23  1  0
 22 24  2  0
 24 25  1  0
 24  2  1  0
 14  7  1  0
 21 16  2  0
M  END
>  <cnnaffinity>  (1) 
-4.67746

>  <filename>  (1) 
O=C1NC(=O)N(c2cccnc2)[C@H]1c1nn[nH]n1

$$$$
