
     RDKit          3D

 32 34  0  0  0  0  0  0  0  0999 V2000
    4.9237    1.7834   16.9941 H   0  0  0  0  0  0  0  0  0  0  0  0
    5.3998    1.2949   17.8403 C   0  0  0  0  0  0  0  0  0  0  0  0
    6.5590    0.6709   17.5826 N   0  0  0  0  0  0  0  0  0  0  0  0
    7.1488    0.0433   18.6003 C   0  0  0  0  0  0  0  0  0  0  0  0
    8.1142   -0.4138   18.3920 H   0  0  0  0  0  0  0  0  0  0  0  0
    6.6060   -0.0281   19.8987 C   0  0  0  0  0  0  0  0  0  0  0  0
    7.3093   -0.7470   20.9938 C   0  0  0  0  0  0  0  0  0  0  0  0
    6.5674   -1.5076   21.7613 N   0  0  0  0  0  0  0  0  0  0  0  0
    7.1492   -2.1925   22.8050 N   0  0  0  0  0  0  0  0  0  0  0  0
    6.2808   -3.0007   23.6275 C   0  0  0  0  0  0  0  0  0  0  0  0
    5.2003   -3.6837   23.0443 C   0  0  0  0  0  0  0  0  0  0  0  0
    5.0381   -3.5649   21.9827 H   0  0  0  0  0  0  0  0  0  0  0  0
    4.3575   -4.4732   23.8225 C   0  0  0  0  0  0  0  0  0  0  0  0
    3.5140   -4.9951   23.3805 H   0  0  0  0  0  0  0  0  0  0  0  0
    4.5947   -4.5783   25.2004 C   0  0  0  0  0  0  0  0  0  0  0  0
    3.6962   -5.4153   26.0426 N   0  0  0  0  0  4  0  0  0  0  0  0
    2.7652   -5.9895   25.5053 O   0  0  0  0  0  0  0  0  0  0  0  0
    3.9436   -5.4805   27.2354 O   0  0  0  0  0  1  0  0  0  0  0  0
    5.6654   -3.9026   25.8029 C   0  0  0  0  0  0  0  0  0  0  0  0
    5.8347   -3.9967   26.8734 H   0  0  0  0  0  0  0  0  0  0  0  0
    6.5048   -3.1220   25.0125 C   0  0  0  0  0  0  0  0  0  0  0  0
    7.3211   -2.5771   25.4712 H   0  0  0  0  0  0  0  0  0  0  0  0
    8.5138   -2.1172   23.0201 C   0  0  0  0  0  0  0  0  0  0  0  0
    8.8946   -2.7309   23.8342 H   0  0  0  0  0  0  0  0  0  0  0  0
    9.3393   -1.3603   22.2744 C   0  0  0  0  0  0  0  0  0  0  0  0
   10.4091   -1.2791   22.4426 H   0  0  0  0  0  0  0  0  0  0  0  0
    8.7976   -0.5599   21.1828 C   0  0  0  0  0  0  0  0  0  0  0  0
    9.5024    0.1749   20.4939 O   0  0  0  0  0  0  0  0  0  0  0  0
    5.4076    0.6424   20.1581 C   0  0  0  0  0  0  0  0  0  0  0  0
    4.9987    0.6205   21.1724 H   0  0  0  0  0  0  0  0  0  0  0  0
    4.7984    1.3221   19.1041 C   0  0  0  0  0  0  0  0  0  0  0  0
    3.8676    1.8553   19.2501 H   0  0  0  0  0  0  0  0  0  0  0  0
  1  2  1  0
  2  3  2  0
  3  4  1  0
  4  5  1  0
  4  6  2  0
  6  7  1  0
  7  8  2  0
  8  9  1  0
  9 10  1  0
 10 11  2  0
 11 12  1  0
 11 13  1  0
 13 14  1  0
 13 15  2  0
 15 16  1  0
 16 17  2  0
 16 18  1  0
 15 19  1  0
 19 20  1  0
 19 21  2  0
 21 22  1  0
  9 23  1  0
 23 24  1  0
 23 25  2  0
 25 26  1  0
 25 27  1  0
 27 28  2  0
  6 29  1  0
 29 30  1  0
 29 31  2  0
 31 32  1  0
 31  2  1  0
 27  7  1  0
 21 10  1  0
M  CHG  2  16   1  18  -1
M  END
>  <cnnaffinity>  (1) 
-5.26135

>  <filename>  (1) 
O=c1ccn(-c2ccc([N+](=O)[O-])cc2)nc1-c1cccnc1

$$$$
