
     RDKit          3D

 27 29  0  0  0  0  0  0  0  0999 V2000
    4.9378    1.8105   16.9545 H   0  0  0  0  0  0  0  0  0  0  0  0
    5.3855    1.3211   17.8158 C   0  0  0  0  0  0  0  0  0  0  0  0
    6.5511    0.6970   17.5941 N   0  0  0  0  0  0  0  0  0  0  0  0
    7.1419    0.1033   18.6349 C   0  0  0  0  0  0  0  0  0  0  0  0
    8.0698   -0.4422   18.4554 H   0  0  0  0  0  0  0  0  0  0  0  0
    6.6198    0.1364   19.9328 C   0  0  0  0  0  0  0  0  0  0  0  0
    7.3746   -0.5685   20.9872 C   0  0  0  0  0  0  0  0  0  0  0  0
    8.0209   -1.6285   20.5949 N   0  0  0  0  0  0  0  0  0  0  0  0
    8.5315   -2.4405   21.5571 C   0  0  0  0  0  0  0  0  0  0  0  0
    8.8093   -3.6051   21.4022 O   0  0  0  0  0  0  0  0  0  0  0  0
    8.7493   -1.8891   22.8233 N   0  0  0  0  0  0  0  0  0  0  0  0
    9.0859   -2.6121   23.4284 H   0  0  0  0  0  0  0  0  0  0  0  0
    8.0417   -0.8200   23.2836 C   0  0  0  0  0  0  0  0  0  0  0  0
    8.1012   -0.5081   24.7093 C   0  0  0  0  0  0  0  0  0  0  0  0
    6.9816    0.6469   25.3621 S   0  0  0  0  0  0  0  0  0  0  0  0
    7.6976    0.5262   26.9179 C   0  0  0  0  0  0  0  0  0  0  0  0
    7.1131    1.4868   28.2133 Cl  0  0  0  0  0  0  0  0  0  0  0  0
    8.7323   -0.3601   26.9534 C   0  0  0  0  0  0  0  0  0  0  0  0
    9.3170   -0.5578   27.8440 H   0  0  0  0  0  0  0  0  0  0  0  0
    8.9605   -0.9625   25.6845 C   0  0  0  0  0  0  0  0  0  0  0  0
    9.7449   -1.6920   25.4943 H   0  0  0  0  0  0  0  0  0  0  0  0
    7.3419   -0.1157   22.3347 C   0  0  0  0  0  0  0  0  0  0  0  0
    6.7789    0.7678   22.5781 H   0  0  0  0  0  0  0  0  0  0  0  0
    5.3815    0.7499   20.1447 C   0  0  0  0  0  0  0  0  0  0  0  0
    4.9121    0.7121   21.1297 H   0  0  0  0  0  0  0  0  0  0  0  0
    4.7520    1.3604   19.0634 C   0  0  0  0  0  0  0  0  0  0  0  0
    3.8047    1.8721   19.1762 H   0  0  0  0  0  0  0  0  0  0  0  0
  1  2  1  0
  2  3  2  0
  3  4  1  0
  4  5  1  0
  4  6  2  0
  6  7  1  0
  7  8  2  0
  8  9  1  0
  9 10  2  0
  9 11  1  0
 11 12  1  0
 11 13  1  0
 13 14  1  0
 14 15  1  0
 15 16  1  0
 16 17  1  0
 16 18  2  0
 18 19  1  0
 18 20  1  0
 20 21  1  0
 13 22  2  0
 22 23  1  0
  6 24  1  0
 24 25  1  0
 24 26  2  0
 26 27  1  0
 26  2  1  0
 22  7  1  0
 20 14  2  0
M  END
>  <cnnaffinity>  (1) 
-5.2318

>  <filename>  (1) 
O=c1nc(-c2cccnc2)cc(-c2ccc(Cl)s2)[nH]1

$$$$
