
     RDKit          3D

 31 33  0  0  0  0  0  0  0  0999 V2000
    4.9570    1.8285   16.9902 H   0  0  0  0  0  0  0  0  0  0  0  0
    5.4330    1.3070   17.8184 C   0  0  0  0  0  0  0  0  0  0  0  0
    6.5876    0.6799   17.5517 N   0  0  0  0  0  0  0  0  0  0  0  0
    7.2060    0.0490   18.5622 C   0  0  0  0  0  0  0  0  0  0  0  0
    8.1295   -0.4658   18.3041 H   0  0  0  0  0  0  0  0  0  0  0  0
    6.7070   -0.0000   19.8861 C   0  0  0  0  0  0  0  0  0  0  0  0
    7.3932   -0.6991   20.9439 N   0  0  0  0  0  0  0  0  0  0  0  0
    8.6748   -0.4475   21.5160 C   0  0  0  0  0  0  0  0  0  0  0  0
    9.5491    0.7164   21.1740 C   0  0  0  0  0  0  0  0  0  0  0  0
    9.3258    0.9731   20.1373 H   0  0  0  0  0  0  0  0  0  0  0  0
    9.3510    1.9254   22.1219 C   0  0  0  0  0  0  0  0  0  0  0  0
    9.6605    2.8309   21.5878 H   0  0  0  0  0  0  0  0  0  0  0  0
    8.3017    2.0488   22.4018 H   0  0  0  0  0  0  0  0  0  0  0  0
   10.2811    1.6700   23.3247 C   0  0  0  0  0  0  0  0  0  0  0  0
    9.7472    1.1144   24.1011 H   0  0  0  0  0  0  0  0  0  0  0  0
   10.6134    2.6141   23.7744 H   0  0  0  0  0  0  0  0  0  0  0  0
   11.4570    0.8329   22.7797 C   0  0  0  0  0  0  0  0  0  0  0  0
   12.3914    1.4048   22.8039 H   0  0  0  0  0  0  0  0  0  0  0  0
   11.6325   -0.0545   23.4011 H   0  0  0  0  0  0  0  0  0  0  0  0
   11.0750    0.5023   21.3216 C   0  0  0  0  0  0  0  0  0  0  0  0
   11.5416    1.2599   20.6782 H   0  0  0  0  0  0  0  0  0  0  0  0
   11.4312   -0.4724   20.9762 H   0  0  0  0  0  0  0  0  0  0  0  0
    8.8274   -1.3545   22.4875 C   0  0  0  0  0  0  0  0  0  0  0  0
    9.6443   -1.5551   23.1656 H   0  0  0  0  0  0  0  0  0  0  0  0
    7.7140   -2.1571   22.5754 O   0  0  0  0  0  0  0  0  0  0  0  0
    6.8051   -1.7664   21.6325 C   0  0  0  0  0  0  0  0  0  0  0  0
    5.7408   -2.3036   21.4593 O   0  0  0  0  0  0  0  0  0  0  0  0
    5.4762    0.6252   20.1339 C   0  0  0  0  0  0  0  0  0  0  0  0
    5.0340    0.5762   21.1314 H   0  0  0  0  0  0  0  0  0  0  0  0
    4.8420    1.3026   19.0872 C   0  0  0  0  0  0  0  0  0  0  0  0
    3.9080    1.8306   19.2397 H   0  0  0  0  0  0  0  0  0  0  0  0
  1  2  1  0
  2  3  2  0
  3  4  1  0
  4  5  1  0
  4  6  2  0
  6  7  1  0
  7  8  1  0
  8  9  1  0
  9 10  1  0
  9 11  1  0
 11 12  1  0
 11 13  1  0
 11 14  1  0
 14 15  1  0
 14 16  1  0
 14 17  1  0
 17 18  1  0
 17 19  1  0
 17 20  1  0
 20 21  1  0
 20 22  1  0
  8 23  2  0
 23 24  1  0
 23 25  1  0
 25 26  1  0
 26 27  2  0
  6 28  1  0
 28 29  1  0
 28 30  2  0
 30 31  1  0
 30  2  1  0
 26  7  1  0
 20  9  1  0
M  END
>  <cnnaffinity>  (1) 
-5.10222

>  <filename>  (1) 
O=c1occ(C2CCCC2)n1-c1cccnc1

$$$$
