
     RDKit          3D

 28 30  0  0  0  0  0  0  0  0999 V2000
    4.9267    1.7898   16.9902 H   0  0  0  0  0  0  0  0  0  0  0  0
    5.3985    1.2891   17.8312 C   0  0  0  0  0  0  0  0  0  0  0  0
    6.5621    0.6689   17.5779 N   0  0  0  0  0  0  0  0  0  0  0  0
    7.1586    0.0313   18.5891 C   0  0  0  0  0  0  0  0  0  0  0  0
    8.1216   -0.4297   18.3630 H   0  0  0  0  0  0  0  0  0  0  0  0
    6.6350   -0.0225   19.8920 C   0  0  0  0  0  0  0  0  0  0  0  0
    7.3618   -0.6891   20.9792 C   0  0  0  0  0  0  0  0  0  0  0  0
    7.7299   -0.0924   22.1773 C   0  0  0  0  0  0  0  0  0  0  0  0
    7.5964    1.3487   22.4270 C   0  0  0  0  0  0  0  0  0  0  0  0
    7.2274    1.9424   23.5954 C   0  0  0  0  0  0  0  0  0  0  0  0
    6.9405    1.5476   24.5601 H   0  0  0  0  0  0  0  0  0  0  0  0
    7.2011    3.2867   23.4578 O   0  0  0  0  0  0  0  0  0  0  0  0
    7.5805    3.5670   22.1850 C   0  0  0  0  0  0  0  0  0  0  0  0
    7.6142    4.6138   21.9306 H   0  0  0  0  0  0  0  0  0  0  0  0
    7.8369    2.4299   21.5036 C   0  0  0  0  0  0  0  0  0  0  0  0
    8.1230    2.3124   20.4672 H   0  0  0  0  0  0  0  0  0  0  0  0
    8.3212   -0.9146   23.1946 C   0  0  0  0  0  0  0  0  0  0  0  0
    8.5995   -0.4254   24.1307 H   0  0  0  0  0  0  0  0  0  0  0  0
    8.5597   -2.2380   22.9848 C   0  0  0  0  0  0  0  0  0  0  0  0
    9.0136   -2.8830   23.7184 H   0  0  0  0  0  0  0  0  0  0  0  0
    8.2192   -2.8681   21.7154 C   0  0  0  0  0  0  0  0  0  0  0  0
    8.3681   -4.0436   21.4146 O   0  0  0  0  0  0  0  0  0  0  0  0
    7.6726   -2.0095   20.7797 N   0  0  0  0  0  0  0  0  0  0  0  0
    7.4016   -2.4996   19.9452 H   0  0  0  0  0  0  0  0  0  0  0  0
    5.4167    0.6346   20.1458 C   0  0  0  0  0  0  0  0  0  0  0  0
    5.0050    0.6389   21.1599 H   0  0  0  0  0  0  0  0  0  0  0  0
    4.7980    1.3025   19.0928 C   0  0  0  0  0  0  0  0  0  0  0  0
    3.8747    1.8433   19.2439 H   0  0  0  0  0  0  0  0  0  0  0  0
  1  2  1  0
  2  3  2  0
  3  4  1  0
  4  5  1  0
  4  6  2  0
  6  7  1  0
  7  8  2  0
  8  9  1  0
  9 10  2  0
 10 11  1  0
 10 12  1  0
 12 13  1  0
 13 14  1  0
 13 15  2  0
 15 16  1  0
  8 17  1  0
 17 18  1  0
 17 19  2  0
 19 20  1  0
 19 21  1  0
 21 22  2  0
 21 23  1  0
 23 24  1  0
  6 25  1  0
 25 26  1  0
 25 27  2  0
 27 28  1  0
 27  2  1  0
 23  7  1  0
 15  9  1  0
M  END
>  <cnnaffinity>  (1) 
-5.08267

>  <filename>  (1) 
O=c1ccc(-c2ccoc2)c(-c2cccnc2)[nH]1

$$$$
