
     RDKit          3D

 37 40  0  0  0  0  0  0  0  0999 V2000
    4.9076    1.7774   16.9992 H   0  0  0  0  0  0  0  0  0  0  0  0
    5.3985    1.2963   17.8389 C   0  0  0  0  0  0  0  0  0  0  0  0
    6.5634    0.6800   17.5677 N   0  0  0  0  0  0  0  0  0  0  0  0
    7.1737    0.0616   18.5863 C   0  0  0  0  0  0  0  0  0  0  0  0
    8.1250   -0.4293   18.3832 H   0  0  0  0  0  0  0  0  0  0  0  0
    6.6430   -0.0023   19.8920 C   0  0  0  0  0  0  0  0  0  0  0  0
    7.3407   -0.6917   20.9392 N   0  0  0  0  0  0  0  0  0  0  0  0
    6.7166   -1.7452   21.5775 C   0  0  0  0  0  0  0  0  0  0  0  0
    5.7025   -1.9712   21.2435 H   0  0  0  0  0  0  0  0  0  0  0  0
    7.3312   -2.4468   22.5731 C   0  0  0  0  0  0  0  0  0  0  0  0
    6.6507   -3.5681   23.2547 C   0  0  0  0  0  0  0  0  0  0  0  0
    5.8827   -4.5001   22.4906 C   0  0  0  0  0  0  0  0  0  0  0  0
    5.8247   -4.3829   21.4129 H   0  0  0  0  0  0  0  0  0  0  0  0
    5.2489   -5.5523   23.0966 C   0  0  0  0  0  0  0  0  0  0  0  0
    4.6628   -6.2601   22.5157 H   0  0  0  0  0  0  0  0  0  0  0  0
    5.3354   -5.7348   24.5094 C   0  0  0  0  0  0  0  0  0  0  0  0
    4.6811   -6.8150   25.1700 C   0  0  0  0  0  0  0  0  0  0  0  0
    4.0995   -7.5114   24.5698 H   0  0  0  0  0  0  0  0  0  0  0  0
    4.7858   -6.9633   26.5331 C   0  0  0  0  0  0  0  0  0  0  0  0
    4.2856   -7.7880   27.0330 H   0  0  0  0  0  0  0  0  0  0  0  0
    5.5500   -6.0396   27.3028 C   0  0  0  0  0  0  0  0  0  0  0  0
    5.6208   -6.1746   28.3784 H   0  0  0  0  0  0  0  0  0  0  0  0
    6.1935   -4.9877   26.6973 C   0  0  0  0  0  0  0  0  0  0  0  0
    6.7799   -4.2766   27.2777 H   0  0  0  0  0  0  0  0  0  0  0  0
    6.1022   -4.8050   25.2841 C   0  0  0  0  0  0  0  0  0  0  0  0
    6.7520   -3.7307   24.6209 C   0  0  0  0  0  0  0  0  0  0  0  0
    7.3202   -3.0236   25.2228 H   0  0  0  0  0  0  0  0  0  0  0  0
    8.6523   -2.0637   22.9578 C   0  0  0  0  0  0  0  0  0  0  0  0
    9.1664   -2.6222   23.7402 H   0  0  0  0  0  0  0  0  0  0  0  0
    9.2869   -1.0321   22.3431 C   0  0  0  0  0  0  0  0  0  0  0  0
   10.2795   -0.7042   22.5981 H   0  0  0  0  0  0  0  0  0  0  0  0
    8.6682   -0.2538   21.2898 C   0  0  0  0  0  0  0  0  0  0  0  0
    9.2091    0.6813   20.7187 O   0  0  0  0  0  0  0  0  0  0  0  0
    5.4347    0.6464   20.1576 C   0  0  0  0  0  0  0  0  0  0  0  0
    5.0190    0.6244   21.1659 H   0  0  0  0  0  0  0  0  0  0  0  0
    4.8019    1.3182   19.1068 C   0  0  0  0  0  0  0  0  0  0  0  0
    3.8672    1.8484   19.2658 H   0  0  0  0  0  0  0  0  0  0  0  0
  1  2  1  0
  2  3  2  0
  3  4  1  0
  4  5  1  0
  4  6  2  0
  6  7  1  0
  7  8  1  0
  8  9  1  0
  8 10  2  0
 10 11  1  0
 11 12  2  0
 12 13  1  0
 12 14  1  0
 14 15  1  0
 14 16  2  0
 16 17  1  0
 17 18  1  0
 17 19  2  0
 19 20  1  0
 19 21  1  0
 21 22  1  0
 21 23  2  0
 23 24  1  0
 23 25  1  0
 25 26  2  0
 26 27  1  0
 10 28  1  0
 28 29  1  0
 28 30  2  0
 30 31  1  0
 30 32  1  0
 32 33  2  0
  6 34  1  0
 34 35  1  0
 34 36  2  0
 36 37  1  0
 36  2  1  0
 32  7  1  0
 26 11  1  0
 25 16  1  0
M  END
>  <cnnaffinity>  (1) 
-5.566

>  <filename>  (1) 
O=c1ccc(-c2ccc3ccccc3c2)cn1-c1cccnc1

$$$$
