
     RDKit          3D

 30 32  0  0  0  0  0  0  0  0999 V2000
    9.6069    3.2398   24.9330 H   0  0  0  0  0  0  0  0  0  0  0  0
    9.2011    3.1277   23.9286 C   0  0  0  0  0  0  0  0  0  0  0  0
    9.5703    2.0200   23.2779 N   0  0  0  0  0  0  0  0  0  0  0  0
    9.0804    1.8218   22.0468 C   0  0  0  0  0  0  0  0  0  0  0  0
    9.5526    0.5713   21.3151 C   0  0  0  0  0  0  0  0  0  0  0  0
    9.6675    0.7902   20.2492 H   0  0  0  0  0  0  0  0  0  0  0  0
   10.5296    0.3061   21.7257 H   0  0  0  0  0  0  0  0  0  0  0  0
    8.6944   -0.6166   21.4390 N   0  0  0  0  0  0  0  0  0  0  0  0
    7.3394   -0.6883   21.0656 C   0  0  0  0  0  0  0  0  0  0  0  0
    6.7163    0.0365   19.9548 C   0  0  0  0  0  0  0  0  0  0  0  0
    7.2636    0.0576   18.6584 C   0  0  0  0  0  0  0  0  0  0  0  0
    8.1961   -0.4689   18.4593 H   0  0  0  0  0  0  0  0  0  0  0  0
    6.6893    0.6611   17.6095 N   0  0  0  0  0  0  0  0  0  0  0  0
    5.5163    1.2817   17.8228 C   0  0  0  0  0  0  0  0  0  0  0  0
    5.0721    1.7799   16.9622 H   0  0  0  0  0  0  0  0  0  0  0  0
    4.8714    1.3041   19.0658 C   0  0  0  0  0  0  0  0  0  0  0  0
    3.9284    1.8288   19.1786 H   0  0  0  0  0  0  0  0  0  0  0  0
    5.4748    0.6620   20.1448 C   0  0  0  0  0  0  0  0  0  0  0  0
    5.0221    0.6576   21.1361 H   0  0  0  0  0  0  0  0  0  0  0  0
    6.7786   -1.6117   21.8522 C   0  0  0  0  0  0  0  0  0  0  0  0
    5.7736   -2.0107   21.8860 H   0  0  0  0  0  0  0  0  0  0  0  0
    7.7144   -2.1466   22.6995 O   0  0  0  0  0  0  0  0  0  0  0  0
    8.9090   -1.5205   22.4774 C   0  0  0  0  0  0  0  0  0  0  0  0
    9.9283   -1.7324   23.0862 O   0  0  0  0  0  0  0  0  0  0  0  0
    8.1967    2.7160   21.4297 C   0  0  0  0  0  0  0  0  0  0  0  0
    7.8218    2.4203   20.4547 H   0  0  0  0  0  0  0  0  0  0  0  0
    7.8478    3.8972   22.0950 C   0  0  0  0  0  0  0  0  0  0  0  0
    7.1994    4.6460   21.6314 H   0  0  0  0  0  0  0  0  0  0  0  0
    8.3690    4.1054   23.3767 C   0  0  0  0  0  0  0  0  0  0  0  0
    8.1488    5.0025   23.9452 H   0  0  0  0  0  0  0  0  0  0  0  0
  1  2  1  0
  2  3  2  0
  3  4  1  0
  4  5  1  0
  5  6  1  0
  5  7  1  0
  5  8  1  0
  8  9  1  0
  9 10  1  0
 10 11  2  0
 11 12  1  0
 11 13  1  0
 13 14  2  0
 14 15  1  0
 14 16  1  0
 16 17  1  0
 16 18  2  0
 18 19  1  0
  9 20  2  0
 20 21  1  0
 20 22  1  0
 22 23  1  0
 23 24  2  0
  4 25  2  0
 25 26  1  0
 25 27  1  0
 27 28  1  0
 27 29  2  0
 29 30  1  0
 29  2  1  0
 23  8  1  0
 18 10  1  0
M  END
>  <cnnaffinity>  (1) 
-4.7369

>  <filename>  (1) 
O=c1occ(-c2cccnc2)n1Cc1ccccn1

$$$$
