
     RDKit          3D

 44 47  0  0  0  0  0  0  0  0999 V2000
    4.9454    1.8086   16.9857 H   0  0  0  0  0  0  0  0  0  0  0  0
    5.3905    1.2946   17.8362 C   0  0  0  0  0  0  0  0  0  0  0  0
    6.5435    0.6557   17.5872 N   0  0  0  0  0  0  0  0  0  0  0  0
    7.1279    0.0274   18.6112 C   0  0  0  0  0  0  0  0  0  0  0  0
    8.1013   -0.4166   18.4064 H   0  0  0  0  0  0  0  0  0  0  0  0
    6.5848   -0.0461   19.9130 C   0  0  0  0  0  0  0  0  0  0  0  0
    7.2895   -0.7791   21.0152 C   0  0  0  0  0  0  0  0  0  0  0  0
    6.5645   -1.5791   21.7701 N   0  0  0  0  0  0  0  0  0  0  0  0
    7.1758   -2.1832   22.8214 N   0  0  0  0  0  0  0  0  0  0  0  0
    6.4835   -3.0790   23.5735 N   0  0  0  0  0  0  0  0  0  0  0  0
    5.2871   -3.7057   22.9834 C   0  0  0  0  0  0  0  0  0  0  0  0
    4.4161   -3.0452   23.0838 H   0  0  0  0  0  0  0  0  0  0  0  0
    5.4907   -3.8610   21.9193 H   0  0  0  0  0  0  0  0  0  0  0  0
    5.0205   -5.0433   23.7240 C   0  0  0  0  0  0  0  0  0  0  0  0
    4.0753   -5.4793   23.3715 H   0  0  0  0  0  0  0  0  0  0  0  0
    5.8431   -5.7393   23.4690 H   0  0  0  0  0  0  0  0  0  0  0  0
    4.9263   -4.8214   25.1690 N   0  0  0  0  0  0  0  0  0  0  0  0
    4.1101   -5.6321   25.9859 C   0  0  0  0  0  0  0  0  0  0  0  0
    3.4526   -5.0371   27.0768 C   0  0  0  0  0  0  0  0  0  0  0  0
    3.6302   -3.9800   27.2445 H   0  0  0  0  0  0  0  0  0  0  0  0
    2.5834   -5.7756   27.8836 C   0  0  0  0  0  0  0  0  0  0  0  0
    2.0740   -5.2895   28.7131 H   0  0  0  0  0  0  0  0  0  0  0  0
    2.3730   -7.1348   27.6225 C   0  0  0  0  0  0  0  0  0  0  0  0
    1.7032   -7.7155   28.2523 H   0  0  0  0  0  0  0  0  0  0  0  0
    3.0312   -7.7416   26.5467 C   0  0  0  0  0  0  0  0  0  0  0  0
    2.8574   -8.7921   26.3289 H   0  0  0  0  0  0  0  0  0  0  0  0
    3.8970   -6.9993   25.7346 C   0  0  0  0  0  0  0  0  0  0  0  0
    4.4248   -7.4563   24.9043 H   0  0  0  0  0  0  0  0  0  0  0  0
    6.0979   -4.1494   25.7450 C   0  0  0  0  0  0  0  0  0  0  0  0
    7.0050   -4.7748   25.6338 H   0  0  0  0  0  0  0  0  0  0  0  0
    5.9474   -3.9878   26.8206 H   0  0  0  0  0  0  0  0  0  0  0  0
    6.3316   -2.8071   25.0244 C   0  0  0  0  0  0  0  0  0  0  0  0
    7.2279   -2.2961   25.4025 H   0  0  0  0  0  0  0  0  0  0  0  0
    5.4846   -2.1222   25.1794 H   0  0  0  0  0  0  0  0  0  0  0  0
    8.5280   -2.1245   23.0427 C   0  0  0  0  0  0  0  0  0  0  0  0
    8.7990   -2.7895   23.8582 H   0  0  0  0  0  0  0  0  0  0  0  0
    9.3366   -1.3730   22.2943 C   0  0  0  0  0  0  0  0  0  0  0  0
   10.4027   -1.2935   22.4375 H   0  0  0  0  0  0  0  0  0  0  0  0
    8.7703   -0.5959   21.2175 C   0  0  0  0  0  0  0  0  0  0  0  0
    9.4715    0.1443   20.5244 O   0  0  0  0  0  0  0  0  0  0  0  0
    5.3781    0.6294   20.1476 C   0  0  0  0  0  0  0  0  0  0  0  0
    4.9478    0.6359   21.1496 H   0  0  0  0  0  0  0  0  0  0  0  0
    4.7747    1.3175   19.0921 C   0  0  0  0  0  0  0  0  0  0  0  0
    3.8547    1.8812   19.2250 H   0  0  0  0  0  0  0  0  0  0  0  0
  1  2  1  0
  2  3  2  0
  3  4  1  0
  4  5  1  0
  4  6  2  0
  6  7  1  0
  7  8  2  0
  8  9  1  0
  9 10  1  0
 10 11  1  0
 11 12  1  0
 11 13  1  0
 11 14  1  0
 14 15  1  0
 14 16  1  0
 14 17  1  0
 17 18  1  0
 18 19  2  0
 19 20  1  0
 19 21  1  0
 21 22  1  0
 21 23  2  0
 23 24  1  0
 23 25  1  0
 25 26  1  0
 25 27  2  0
 27 28  1  0
 17 29  1  0
 29 30  1  0
 29 31  1  0
 29 32  1  0
 32 33  1  0
 32 34  1  0
  9 35  1  0
 35 36  1  0
 35 37  2  0
 37 38  1  0
 37 39  1  0
 39 40  2  0
  6 41  1  0
 41 42  1  0
 41 43  2  0
 43 44  1  0
 43  2  1  0
 39  7  1  0
 32 10  1  0
 27 18  1  0
M  END
>  <cnnaffinity>  (1) 
-5.54254

>  <filename>  (1) 
O=c1ccn(N2CCN(c3ccccc3)CC2)nc1-c1cccnc1

$$$$
