
     RDKit          3D

 33 35  0  0  0  0  0  0  0  0999 V2000
    4.9476    1.9322   16.7532 H   0  0  0  0  0  0  0  0  0  0  0  0
    5.3594    1.4395   17.6329 C   0  0  0  0  0  0  0  0  0  0  0  0
    6.5271    0.8001   17.4672 N   0  0  0  0  0  0  0  0  0  0  0  0
    7.0565    0.1908   18.5336 C   0  0  0  0  0  0  0  0  0  0  0  0
    8.0085   -0.3083   18.3606 H   0  0  0  0  0  0  0  0  0  0  0  0
    6.4581    0.1864   19.8048 C   0  0  0  0  0  0  0  0  0  0  0  0
    7.0896   -0.5712   20.9088 C   0  0  0  0  0  0  0  0  0  0  0  0
    7.5962   -1.7322   20.5973 N   0  0  0  0  0  0  0  0  0  0  0  0
    8.1911   -2.4709   21.5808 C   0  0  0  0  0  0  0  0  0  0  0  0
    8.6370   -3.5913   21.4515 O   0  0  0  0  0  0  0  0  0  0  0  0
    8.3274   -1.8885   22.8320 N   0  0  0  0  0  0  0  0  0  0  0  0
    8.8332   -2.5110   23.4370 H   0  0  0  0  0  0  0  0  0  0  0  0
    7.7437   -0.7255   23.2151 C   0  0  0  0  0  0  0  0  0  0  0  0
    7.8175   -0.3828   24.6730 C   0  0  0  0  0  0  0  0  0  0  0  0
    6.6396   -0.3993   25.4415 C   0  0  0  0  0  0  0  0  0  0  0  0
    5.6911   -0.6052   24.9534 H   0  0  0  0  0  0  0  0  0  0  0  0
    6.6841   -0.2065   26.8234 C   0  0  0  0  0  0  0  0  0  0  0  0
    5.7672   -0.2309   27.4033 H   0  0  0  0  0  0  0  0  0  0  0  0
    7.9066    0.0043   27.4592 C   0  0  0  0  0  0  0  0  0  0  0  0
    7.9455    0.1824   28.5276 H   0  0  0  0  0  0  0  0  0  0  0  0
    9.0889    0.0258   26.7219 C   0  0  0  0  0  0  0  0  0  0  0  0
   10.0406    0.1766   27.2285 H   0  0  0  0  0  0  0  0  0  0  0  0
    9.0533   -0.1353   25.3294 C   0  0  0  0  0  0  0  0  0  0  0  0
   10.3364   -0.0011   24.5261 C   0  0  0  0  0  0  0  0  0  0  0  0
   10.1839    0.7741   23.4376 F   0  0  0  0  0  0  0  0  0  0  0  0
   11.3510    0.5157   25.2442 F   0  0  0  0  0  0  0  0  0  0  0  0
   10.7564   -1.2057   24.0808 F   0  0  0  0  0  0  0  0  0  0  0  0
    7.1066   -0.0166   22.2317 C   0  0  0  0  0  0  0  0  0  0  0  0
    6.6811    0.9539   22.4464 H   0  0  0  0  0  0  0  0  0  0  0  0
    5.2541    0.8809   19.9685 C   0  0  0  0  0  0  0  0  0  0  0  0
    4.7786    0.9300   20.9513 H   0  0  0  0  0  0  0  0  0  0  0  0
    4.6833    1.4961   18.8571 C   0  0  0  0  0  0  0  0  0  0  0  0
    3.7479    2.0358   18.9404 H   0  0  0  0  0  0  0  0  0  0  0  0
  1  2  1  0
  2  3  2  0
  3  4  1  0
  4  5  1  0
  4  6  2  0
  6  7  1  0
  7  8  2  0
  8  9  1  0
  9 10  2  0
  9 11  1  0
 11 12  1  0
 11 13  1  0
 13 14  1  0
 14 15  2  0
 15 16  1  0
 15 17  1  0
 17 18  1  0
 17 19  2  0
 19 20  1  0
 19 21  1  0
 21 22  1  0
 21 23  2  0
 23 24  1  0
 24 25  1  0
 24 26  1  0
 24 27  1  0
 13 28  2  0
 28 29  1  0
  6 30  1  0
 30 31  1  0
 30 32  2  0
 32 33  1  0
 32  2  1  0
 28  7  1  0
 23 14  1  0
M  END
>  <cnnaffinity>  (1) 
-5.56327

>  <filename>  (1) 
O=c1nc(-c2cccnc2)cc(-c2ccccc2C(F)(F)F)[nH]1

$$$$
