
     RDKit          3D

 30 32  0  0  0  0  0  0  0  0999 V2000
    4.9740    1.8027   16.9660 H   0  0  0  0  0  0  0  0  0  0  0  0
    5.4578    1.3136   17.8112 C   0  0  0  0  0  0  0  0  0  0  0  0
    6.6435    0.7358   17.5610 N   0  0  0  0  0  0  0  0  0  0  0  0
    7.2568    0.1218   18.5783 C   0  0  0  0  0  0  0  0  0  0  0  0
    8.2281   -0.3207   18.3667 H   0  0  0  0  0  0  0  0  0  0  0  0
    6.7018    0.0017   19.8634 C   0  0  0  0  0  0  0  0  0  0  0  0
    7.4334   -0.7926   20.8924 C   0  0  0  0  0  0  0  0  0  0  0  0
    8.7154   -0.5423   20.9603 N   0  0  0  0  0  0  0  0  0  0  0  0
    9.4694   -1.1709   21.9165 N   0  0  0  0  0  0  0  0  0  0  0  0
   10.8631   -0.8329   21.9309 C   0  0  0  0  0  0  0  0  0  0  0  0
   11.8443   -1.8299   21.9897 C   0  0  0  0  0  0  0  0  0  0  0  0
   11.5795   -2.8736   22.0399 H   0  0  0  0  0  0  0  0  0  0  0  0
   13.1789   -1.4379   22.0020 C   0  0  0  0  0  0  0  0  0  0  0  0
   14.1278   -2.3805   21.9540 F   0  0  0  0  0  0  0  0  0  0  0  0
   13.5616   -0.1066   22.0935 C   0  0  0  0  0  0  0  0  0  0  0  0
   14.6048    0.1732   22.0923 H   0  0  0  0  0  0  0  0  0  0  0  0
   12.5487    0.8533   22.0888 C   0  0  0  0  0  0  0  0  0  0  0  0
   12.8737    2.1451   22.2232 F   0  0  0  0  0  0  0  0  0  0  0  0
   11.2096    0.5216   21.9342 C   0  0  0  0  0  0  0  0  0  0  0  0
   10.4465    1.2827   21.8155 H   0  0  0  0  0  0  0  0  0  0  0  0
    8.8949   -1.9599   22.8891 C   0  0  0  0  0  0  0  0  0  0  0  0
    9.5729   -2.3042   23.6712 H   0  0  0  0  0  0  0  0  0  0  0  0
    7.5817   -2.2631   22.8787 C   0  0  0  0  0  0  0  0  0  0  0  0
    7.1150   -2.8770   23.6340 H   0  0  0  0  0  0  0  0  0  0  0  0
    6.7382   -1.8150   21.7783 C   0  0  0  0  0  0  0  0  0  0  0  0
    5.6056   -2.2486   21.5986 O   0  0  0  0  0  0  0  0  0  0  0  0
    5.4784    0.6388   20.1176 C   0  0  0  0  0  0  0  0  0  0  0  0
    5.0342    0.6002   21.1129 H   0  0  0  0  0  0  0  0  0  0  0  0
    4.8479    1.3074   19.0688 C   0  0  0  0  0  0  0  0  0  0  0  0
    3.9068    1.8270   19.2106 H   0  0  0  0  0  0  0  0  0  0  0  0
  1  2  1  0
  2  3  2  0
  3  4  1  0
  4  5  1  0
  4  6  2  0
  6  7  1  0
  7  8  2  0
  8  9  1  0
  9 10  1  0
 10 11  2  0
 11 12  1  0
 11 13  1  0
 13 14  1  0
 13 15  2  0
 15 16  1  0
 15 17  1  0
 17 18  1  0
 17 19  2  0
 19 20  1  0
  9 21  1  0
 21 22  1  0
 21 23  2  0
 23 24  1  0
 23 25  1  0
 25 26  2  0
  6 27  1  0
 27 28  1  0
 27 29  2  0
 29 30  1  0
 29  2  1  0
 25  7  1  0
 19 10  1  0
M  END
>  <cnnaffinity>  (1) 
-5.53195

>  <filename>  (1) 
O=c1ccn(-c2cc(F)cc(F)c2)nc1-c1cccnc1

$$$$
