
     RDKit          3D

 52 55  0  0  0  0  0  0  0  0999 V2000
   10.7014    4.3532   22.8994 O   0  0  0  0  0  0  0  0  0  0  0  0
   11.0403    3.2511   23.3044 C   0  0  0  0  0  0  0  0  0  0  0  0
   12.4195    2.9148   23.6200 C   0  0  0  0  0  0  0  0  0  0  0  0
   12.7553    1.7284   24.1937 C   0  0  0  0  0  0  0  0  0  0  0  0
   11.7359    0.7824   24.5137 C   0  0  0  0  0  0  0  0  0  0  0  0
   10.4503    1.0391   24.1497 C   0  0  0  0  0  0  0  0  0  0  0  0
   10.1007    2.1990   23.4914 N   0  0  0  0  0  0  0  0  0  0  0  0
    8.8304    2.2841   22.7563 C   0  0  0  0  0  0  0  0  0  0  0  0
    9.0119    2.0123   21.2558 C   0  0  0  0  0  0  0  0  0  0  0  0
    9.5256    0.5971   20.9145 C   0  0  0  0  0  0  0  0  0  0  0  0
    8.6367   -0.4994   21.4073 C   0  0  0  0  0  0  0  0  0  0  0  0
    8.8525   -1.3440   22.4022 N   0  0  0  0  0  0  0  0  0  0  0  0
    7.6545   -1.9779   22.5410 C   0  0  0  0  0  0  0  0  0  0  0  0
    7.4022   -2.9724   23.6378 C   0  0  0  0  0  0  0  0  0  0  0  0
    6.6664   -4.2418   23.1502 C   0  0  0  0  0  0  0  0  0  0  0  0
    6.5450   -5.3037   24.2726 C   0  0  0  0  0  0  0  0  0  0  0  0
    6.4983   -4.7074   25.7022 C   0  0  0  0  0  0  0  0  0  0  0  0
    5.8705   -3.3065   25.7172 C   0  0  0  0  0  0  0  0  0  0  0  0
    6.6595   -2.3041   24.8425 C   0  0  0  0  0  0  0  0  0  0  0  0
    5.9658   -1.5314   24.4806 H   0  0  0  0  0  0  0  0  0  0  0  0
    7.4127   -1.7864   25.4532 H   0  0  0  0  0  0  0  0  0  0  0  0
    5.8065   -2.9262   26.7439 H   0  0  0  0  0  0  0  0  0  0  0  0
    4.8356   -3.3755   25.3489 H   0  0  0  0  0  0  0  0  0  0  0  0
    5.9431   -5.3796   26.3687 H   0  0  0  0  0  0  0  0  0  0  0  0
    7.5193   -4.6460   26.1085 H   0  0  0  0  0  0  0  0  0  0  0  0
    7.3899   -6.0028   24.2145 H   0  0  0  0  0  0  0  0  0  0  0  0
    5.6390   -5.8944   24.0870 H   0  0  0  0  0  0  0  0  0  0  0  0
    5.6692   -3.9463   22.7889 H   0  0  0  0  0  0  0  0  0  0  0  0
    7.1930   -4.6743   22.2901 H   0  0  0  0  0  0  0  0  0  0  0  0
    8.4026   -3.2672   23.9787 H   0  0  0  0  0  0  0  0  0  0  0  0
    6.7223   -1.5877   21.6927 N   0  0  0  0  0  0  0  0  0  0  0  0
    7.3676   -0.6624   20.9377 N   0  0  0  0  0  0  0  0  0  0  0  0
    6.6752   -0.0029   19.8856 C   0  0  0  0  0  0  0  0  0  0  0  0
    5.4579    0.6307   20.1519 C   0  0  0  0  0  0  0  0  0  0  0  0
    4.8289    1.3083   19.1008 C   0  0  0  0  0  0  0  0  0  0  0  0
    5.4207    1.3075   17.8334 C   0  0  0  0  0  0  0  0  0  0  0  0
    6.5686    0.6680   17.5637 N   0  0  0  0  0  0  0  0  0  0  0  0
    7.1722    0.0291   18.5741 C   0  0  0  0  0  0  0  0  0  0  0  0
    8.0949   -0.4947   18.3308 H   0  0  0  0  0  0  0  0  0  0  0  0
    4.9500    1.8260   16.9977 H   0  0  0  0  0  0  0  0  0  0  0  0
    3.8925    1.8318   19.2579 H   0  0  0  0  0  0  0  0  0  0  0  0
    5.0336    0.5828   21.1538 H   0  0  0  0  0  0  0  0  0  0  0  0
    9.6005    0.5031   19.8274 H   0  0  0  0  0  0  0  0  0  0  0  0
   10.5260    0.4356   21.3264 H   0  0  0  0  0  0  0  0  0  0  0  0
    9.7242    2.7466   20.8715 H   0  0  0  0  0  0  0  0  0  0  0  0
    8.0601    2.1861   20.7357 H   0  0  0  0  0  0  0  0  0  0  0  0
    8.1328    1.5611   23.1988 H   0  0  0  0  0  0  0  0  0  0  0  0
    8.4196    3.2854   22.9085 H   0  0  0  0  0  0  0  0  0  0  0  0
    9.6546    0.3146   24.3133 H   0  0  0  0  0  0  0  0  0  0  0  0
   11.9856   -0.1360   25.0309 H   0  0  0  0  0  0  0  0  0  0  0  0
   13.7935    1.4976   24.4166 H   0  0  0  0  0  0  0  0  0  0  0  0
   13.1357    3.6897   23.3841 H   0  0  0  0  0  0  0  0  0  0  0  0
  1  2  2  0
  2  3  1  0
  3  4  2  0
  4  5  1  0
  5  6  2  0
  6  7  1  0
  7  8  1  0
  8  9  1  0
  9 10  1  0
 10 11  1  0
 11 12  2  0
 12 13  1  0
 13 14  1  0
 14 15  1  0
 15 16  1  0
 16 17  1  0
 17 18  1  0
 18 19  1  0
 19 20  1  0
 19 21  1  0
 18 22  1  0
 18 23  1  0
 17 24  1  0
 17 25  1  0
 16 26  1  0
 16 27  1  0
 15 28  1  0
 15 29  1  0
 14 30  1  0
 13 31  2  0
 31 32  1  0
 32 33  1  0
 33 34  2  0
 34 35  1  0
 35 36  2  0
 36 37  1  0
 37 38  2  0
 38 39  1  0
 36 40  1  0
 35 41  1  0
 34 42  1  0
 10 43  1  0
 10 44  1  0
  9 45  1  0
  9 46  1  0
  8 47  1  0
  8 48  1  0
  6 49  1  0
  5 50  1  0
  4 51  1  0
  3 52  1  0
  7  2  1  0
 32 11  1  0
 38 33  1  0
 19 14  1  0
M  END
>  <cnnaffinity>  (1) 
-6.39858

>  <filename>  (1) 
O=c1ccccn1CCCc1nc(C2CCCCC2)nn1-c1cccnc1

$$$$
