
     RDKit          3D

 28 30  0  0  0  0  0  0  0  0999 V2000
    4.9258    1.8308   16.9704 H   0  0  0  0  0  0  0  0  0  0  0  0
    5.3992    1.3227   17.8090 C   0  0  0  0  0  0  0  0  0  0  0  0
    6.5624    0.7078   17.5449 N   0  0  0  0  0  0  0  0  0  0  0  0
    7.1808    0.0779   18.5498 C   0  0  0  0  0  0  0  0  0  0  0  0
    8.1285   -0.4042   18.3101 H   0  0  0  0  0  0  0  0  0  0  0  0
    6.6584   -0.0007   19.8568 C   0  0  0  0  0  0  0  0  0  0  0  0
    7.3622   -0.7047   20.9210 N   0  0  0  0  0  0  0  0  0  0  0  0
    8.6402   -0.2868   21.2825 C   0  0  0  0  0  0  0  0  0  0  0  0
    9.0234    0.5580   20.7132 H   0  0  0  0  0  0  0  0  0  0  0  0
    9.3510   -0.8504   22.3015 C   0  0  0  0  0  0  0  0  0  0  0  0
   10.6625   -0.3401   22.7283 C   0  0  0  0  0  0  0  0  0  0  0  0
   11.7732    0.4444   21.6522 S   0  0  0  0  0  0  0  0  0  0  0  0
   12.9739    0.5394   22.8931 C   0  0  0  0  0  0  0  0  0  0  0  0
   14.5922    0.9862   22.5504 Cl  0  0  0  0  0  0  0  0  0  0  0  0
   12.5143    0.1059   24.1008 C   0  0  0  0  0  0  0  0  0  0  0  0
   13.1359    0.1140   24.9924 H   0  0  0  0  0  0  0  0  0  0  0  0
   11.1908   -0.4131   23.9905 C   0  0  0  0  0  0  0  0  0  0  0  0
   10.6099   -0.9223   24.7499 H   0  0  0  0  0  0  0  0  0  0  0  0
    8.7304   -1.9891   23.0244 C   0  0  0  0  0  0  0  0  0  0  0  0
    9.1871   -2.6547   23.9288 O   0  0  0  0  0  0  0  0  0  0  0  0
    7.4654   -2.3279   22.5953 N   0  0  0  0  0  0  0  0  0  0  0  0
    7.0423   -3.0929   23.0845 H   0  0  0  0  0  0  0  0  0  0  0  0
    6.7214   -1.7765   21.6053 C   0  0  0  0  0  0  0  0  0  0  0  0
    5.6279   -2.2240   21.3481 O   0  0  0  0  0  0  0  0  0  0  0  0
    5.4402    0.6384   20.1196 C   0  0  0  0  0  0  0  0  0  0  0  0
    5.0151    0.5994   21.1213 H   0  0  0  0  0  0  0  0  0  0  0  0
    4.8051    1.3205   19.0743 C   0  0  0  0  0  0  0  0  0  0  0  0
    3.8679    1.8463   19.2254 H   0  0  0  0  0  0  0  0  0  0  0  0
  1  2  1  0
  2  3  2  0
  3  4  1  0
  4  5  1  0
  4  6  2  0
  6  7  1  0
  7  8  1  0
  8  9  1  0
  8 10  2  0
 10 11  1  0
 11 12  1  0
 12 13  1  0
 13 14  1  0
 13 15  2  0
 15 16  1  0
 15 17  1  0
 17 18  1  0
 10 19  1  0
 19 20  2  0
 19 21  1  0
 21 22  1  0
 21 23  1  0
 23 24  2  0
  6 25  1  0
 25 26  1  0
 25 27  2  0
 27 28  1  0
 27  2  1  0
 23  7  1  0
 17 11  2  0
M  END
>  <cnnaffinity>  (1) 
-5.1319

>  <filename>  (1) 
O=c1[nH]c(=O)n(-c2cccnc2)cc1-c1ccc(Cl)s1

$$$$
