
     RDKit          3D

 28 30  0  0  0  0  0  0  0  0999 V2000
    4.9682    1.7852   16.9600 H   0  0  0  0  0  0  0  0  0  0  0  0
    5.4233    1.3059   17.8316 C   0  0  0  0  0  0  0  0  0  0  0  0
    6.5872    0.6709   17.6295 N   0  0  0  0  0  0  0  0  0  0  0  0
    7.1552    0.0737   18.6852 C   0  0  0  0  0  0  0  0  0  0  0  0
    8.1025   -0.4234   18.4784 H   0  0  0  0  0  0  0  0  0  0  0  0
    6.6318    0.0754   19.9944 C   0  0  0  0  0  0  0  0  0  0  0  0
    7.3698   -0.6244   21.0606 C   0  0  0  0  0  0  0  0  0  0  0  0
    8.0110   -1.8012   21.0344 C   0  0  0  0  0  0  0  0  0  0  0  0
    8.0716   -2.6033   20.3331 H   0  0  0  0  0  0  0  0  0  0  0  0
    8.5443   -2.0988   22.2564 O   0  0  0  0  0  0  0  0  0  0  0  0
    8.2131   -1.1136   23.1389 C   0  0  0  0  0  0  0  0  0  0  0  0
    8.5031   -1.1258   24.3062 O   0  0  0  0  0  0  0  0  0  0  0  0
    7.4990   -0.1798   22.3979 N   0  0  0  0  0  0  0  0  0  0  0  0
    7.0660    1.0390   22.9683 C   0  0  0  0  0  0  0  0  0  0  0  0
    6.1310    0.9850   24.0094 C   0  0  0  0  0  0  0  0  0  0  0  0
    5.8209    0.0064   24.3696 H   0  0  0  0  0  0  0  0  0  0  0  0
    5.6482    2.1647   24.5644 C   0  0  0  0  0  0  0  0  0  0  0  0
    4.9050    2.1181   25.3505 H   0  0  0  0  0  0  0  0  0  0  0  0
    6.1121    3.3985   24.1077 C   0  0  0  0  0  0  0  0  0  0  0  0
    5.7315    4.3231   24.5262 H   0  0  0  0  0  0  0  0  0  0  0  0
    7.0623    3.4520   23.0857 C   0  0  0  0  0  0  0  0  0  0  0  0
    7.5940    5.0020   22.5427 Cl  0  0  0  0  0  0  0  0  0  0  0  0
    7.5495    2.2763   22.4993 C   0  0  0  0  0  0  0  0  0  0  0  0
    8.7203    2.3410   21.2304 Cl  0  0  0  0  0  0  0  0  0  0  0  0
    5.4042    0.7433   20.1821 C   0  0  0  0  0  0  0  0  0  0  0  0
    4.9448    0.7860   21.1715 H   0  0  0  0  0  0  0  0  0  0  0  0
    4.7951    1.3544   19.0815 C   0  0  0  0  0  0  0  0  0  0  0  0
    3.8427    1.8634   19.1656 H   0  0  0  0  0  0  0  0  0  0  0  0
  1  2  1  0
  2  3  2  0
  3  4  1  0
  4  5  1  0
  4  6  2  0
  6  7  1  0
  7  8  2  0
  8  9  1  0
  8 10  1  0
 10 11  1  0
 11 12  2  0
 11 13  1  0
 13 14  1  0
 14 15  2  0
 15 16  1  0
 15 17  1  0
 17 18  1  0
 17 19  2  0
 19 20  1  0
 19 21  1  0
 21 22  1  0
 21 23  2  0
 23 24  1  0
  6 25  1  0
 25 26  1  0
 25 27  2  0
 27 28  1  0
 27  2  1  0
 13  7  1  0
 23 14  1  0
M  END
>  <cnnaffinity>  (1) 
-5.01723

>  <filename>  (1) 
O=c1occ(-c2cccnc2)n1-c1cccc(Cl)c1Cl

$$$$
