
     RDKit          3D

 47 49  0  0  0  0  0  0  0  0999 V2000
    5.2690    1.1527   23.8165 O   0  0  0  0  0  0  0  0  0  0  0  0
    6.2455    1.3196   24.5349 C   0  0  0  0  0  0  0  0  0  0  0  0
    6.0526    1.4184   26.0525 C   0  0  0  0  0  0  0  0  0  0  0  0
    7.3226    1.4120   26.9157 C   0  0  0  0  0  0  0  0  0  0  0  0
    8.4602    2.1370   26.1796 C   0  0  0  0  0  0  0  0  0  0  0  0
    8.2156    3.6381   25.9846 C   0  0  0  0  0  0  0  0  0  0  0  0
    7.1773    3.9335   25.1844 F   0  0  0  0  0  0  0  0  0  0  0  0
    9.3005    4.2356   25.4471 F   0  0  0  0  0  0  0  0  0  0  0  0
    7.9759    4.2508   27.1627 F   0  0  0  0  0  0  0  0  0  0  0  0
    8.7190    1.4480   24.8452 C   0  0  0  0  0  0  0  0  0  0  0  0
    7.5170    1.4855   24.0173 N   0  0  0  0  0  0  0  0  0  0  0  0
    7.7210    1.2996   22.5802 C   0  0  0  0  0  0  0  0  0  0  0  0
    7.8283   -0.1482   22.1520 C   0  0  0  0  0  0  0  0  0  0  0  0
    8.3914   -1.1575   22.8020 N   0  0  0  0  0  0  0  0  0  0  0  0
    8.2622   -2.1991   21.9353 C   0  0  0  0  0  0  0  0  0  0  0  0
    8.6511   -3.6108   22.2213 C   0  0  0  0  0  0  0  0  0  0  0  0
    7.6789   -4.4014   23.1260 C   0  0  0  0  0  0  0  0  0  0  0  0
    8.2384   -5.7648   23.5279 C   0  0  0  0  0  0  0  0  0  0  0  0
    8.5353   -6.5962   22.4227 O   0  0  0  0  0  0  0  0  0  0  0  0
    7.7167   -6.7295   21.9260 H   0  0  0  0  0  0  0  0  0  0  0  0
    7.5365   -6.2558   24.2169 H   0  0  0  0  0  0  0  0  0  0  0  0
    9.1891   -5.6297   24.0626 H   0  0  0  0  0  0  0  0  0  0  0  0
    7.4683   -3.8393   24.0497 H   0  0  0  0  0  0  0  0  0  0  0  0
    6.7211   -4.5453   22.6004 H   0  0  0  0  0  0  0  0  0  0  0  0
    9.6465   -3.5975   22.6829 H   0  0  0  0  0  0  0  0  0  0  0  0
    8.7092   -4.1104   21.2481 H   0  0  0  0  0  0  0  0  0  0  0  0
    7.7058   -1.8852   20.7872 N   0  0  0  0  0  0  0  0  0  0  0  0
    7.4064   -0.5775   20.9310 N   0  0  0  0  0  0  0  0  0  0  0  0
    6.6571    0.0748   19.9230 C   0  0  0  0  0  0  0  0  0  0  0  0
    5.4363    0.7134   20.1772 C   0  0  0  0  0  0  0  0  0  0  0  0
    4.8023    1.3312   19.0909 C   0  0  0  0  0  0  0  0  0  0  0  0
    5.4056    1.2920   17.8318 C   0  0  0  0  0  0  0  0  0  0  0  0
    6.5528    0.6332   17.5835 N   0  0  0  0  0  0  0  0  0  0  0  0
    7.1410    0.0179   18.6100 C   0  0  0  0  0  0  0  0  0  0  0  0
    8.0469   -0.5511   18.4109 H   0  0  0  0  0  0  0  0  0  0  0  0
    4.9578    1.8002   16.9804 H   0  0  0  0  0  0  0  0  0  0  0  0
    3.8560    1.8430   19.2140 H   0  0  0  0  0  0  0  0  0  0  0  0
    4.9973    0.7142   21.1788 H   0  0  0  0  0  0  0  0  0  0  0  0
    8.6346    1.8349   22.2871 H   0  0  0  0  0  0  0  0  0  0  0  0
    6.9104    1.7974   22.0413 H   0  0  0  0  0  0  0  0  0  0  0  0
    9.0446    0.4038   24.9859 H   0  0  0  0  0  0  0  0  0  0  0  0
    9.5339    1.9576   24.3178 H   0  0  0  0  0  0  0  0  0  0  0  0
    9.3819    2.0868   26.7523 H   0  0  0  0  0  0  0  0  0  0  0  0
    7.1169    1.8969   27.8786 H   0  0  0  0  0  0  0  0  0  0  0  0
    7.6515    0.3854   27.1436 H   0  0  0  0  0  0  0  0  0  0  0  0
    5.5200    2.3640   26.1866 H   0  0  0  0  0  0  0  0  0  0  0  0
    5.3528    0.6263   26.3348 H   0  0  0  0  0  0  0  0  0  0  0  0
  1  2  2  0
  2  3  1  0
  3  4  1  0
  4  5  1  0
  5  6  1  0
  6  7  1  0
  6  8  1  0
  6  9  1  0
  5 10  1  0
 10 11  1  0
 11 12  1  0
 12 13  1  0
 13 14  2  0
 14 15  1  0
 15 16  1  0
 16 17  1  0
 17 18  1  0
 18 19  1  0
 19 20  1  0
 18 21  1  0
 18 22  1  0
 17 23  1  0
 17 24  1  0
 16 25  1  0
 16 26  1  0
 15 27  2  0
 27 28  1  0
 28 29  1  0
 29 30  2  0
 30 31  1  0
 31 32  2  0
 32 33  1  0
 33 34  2  0
 34 35  1  0
 32 36  1  0
 31 37  1  0
 30 38  1  0
 12 39  1  0
 12 40  1  0
 10 41  1  0
 10 42  1  0
  5 43  1  0
  4 44  1  0
  4 45  1  0
  3 46  1  0
  3 47  1  0
 11  2  1  0
 28 13  1  0
 34 29  1  0
M  END
>  <cnnaffinity>  (1) 
-5.94856

>  <filename>  (1) 
O=C1CCC(C(F)(F)F)CN1Cc1nc(CCCO)nn1-c1cccnc1

$$$$
