
     RDKit          3D

 33 36  0  0  0  0  0  0  0  0999 V2000
    4.9215    1.8020   16.9699 H   0  0  0  0  0  0  0  0  0  0  0  0
    5.3915    1.3005   17.8150 C   0  0  0  0  0  0  0  0  0  0  0  0
    6.5556    0.6780   17.5624 N   0  0  0  0  0  0  0  0  0  0  0  0
    7.1596    0.0556   18.5831 C   0  0  0  0  0  0  0  0  0  0  0  0
    8.1181   -0.4016   18.3387 H   0  0  0  0  0  0  0  0  0  0  0  0
    6.6420    0.0045   19.8931 C   0  0  0  0  0  0  0  0  0  0  0  0
    7.3285   -0.6451   21.0058 C   0  0  0  0  0  0  0  0  0  0  0  0
    7.2485   -0.4121   22.3340 C   0  0  0  0  0  0  0  0  0  0  0  0
    6.6580    0.3106   22.8736 H   0  0  0  0  0  0  0  0  0  0  0  0
    8.1225   -1.2716   22.9893 N   0  0  0  0  0  0  0  0  0  0  0  0
    8.3175   -1.3468   24.3920 C   0  0  0  0  0  0  0  0  0  0  0  0
    8.5572   -0.1738   25.1073 C   0  0  0  0  0  0  0  0  0  0  0  0
    8.5780    0.7768   24.5797 H   0  0  0  0  0  0  0  0  0  0  0  0
    8.7846   -0.2158   26.4960 C   0  0  0  0  0  0  0  0  0  0  0  0
    8.9755    0.7107   27.0328 H   0  0  0  0  0  0  0  0  0  0  0  0
    8.7621   -1.4185   27.1907 C   0  0  0  0  0  0  0  0  0  0  0  0
    8.9584   -1.4238   28.2536 H   0  0  0  0  0  0  0  0  0  0  0  0
    8.4820   -2.5954   26.4670 C   0  0  0  0  0  0  0  0  0  0  0  0
    8.2445   -2.5894   25.0716 C   0  0  0  0  0  0  0  0  0  0  0  0
    7.9526   -3.9534   24.6954 C   0  0  0  0  0  0  0  0  0  0  0  0
    7.7259   -4.2971   23.6945 H   0  0  0  0  0  0  0  0  0  0  0  0
    8.0360   -4.7083   25.8252 C   0  0  0  0  0  0  0  0  0  0  0  0
    7.8901   -5.7729   25.9674 H   0  0  0  0  0  0  0  0  0  0  0  0
    8.3624   -3.8941   26.8905 N   0  0  0  0  0  0  0  0  0  0  0  0
    8.4765   -4.1814   27.8460 H   0  0  0  0  0  0  0  0  0  0  0  0
    8.7619   -2.0798   22.0452 C   0  0  0  0  0  0  0  0  0  0  0  0
    9.5622   -2.9805   22.1807 O   0  0  0  0  0  0  0  0  0  0  0  0
    8.2671   -1.6478   20.8431 N   0  0  0  0  0  0  0  0  0  0  0  0
    8.5578   -2.1419   20.0229 H   0  0  0  0  0  0  0  0  0  0  0  0
    5.4234    0.6599   20.1296 C   0  0  0  0  0  0  0  0  0  0  0  0
    4.9881    0.6415   21.1281 H   0  0  0  0  0  0  0  0  0  0  0  0
    4.7918    1.3194   19.0794 C   0  0  0  0  0  0  0  0  0  0  0  0
    3.8614    1.8538   19.2309 H   0  0  0  0  0  0  0  0  0  0  0  0
  1  2  1  0
  2  3  2  0
  3  4  1  0
  4  5  1  0
  4  6  2  0
  6  7  1  0
  7  8  2  0
  8  9  1  0
  8 10  1  0
 10 11  1  0
 11 12  2  0
 12 13  1  0
 12 14  1  0
 14 15  1  0
 14 16  2  0
 16 17  1  0
 16 18  1  0
 18 19  2  0
 19 20  1  0
 20 21  1  0
 20 22  2  0
 22 23  1  0
 22 24  1  0
 24 25  1  0
 10 26  1  0
 26 27  2  0
 26 28  1  0
 28 29  1  0
  6 30  1  0
 30 31  1  0
 30 32  2  0
 32 33  1  0
 32  2  1  0
 28  7  1  0
 19 11  1  0
 24 18  1  0
M  END
>  <cnnaffinity>  (1) 
-5.53563

>  <filename>  (1) 
O=c1[nH]c(-c2cccnc2)cn1-c1cccc2[nH]ccc12

$$$$
