
     RDKit          3D

 32 35  0  0  0  0  0  0  0  0999 V2000
    4.9105    1.8477   16.9071 H   0  0  0  0  0  0  0  0  0  0  0  0
    5.3678    1.3615   17.7663 C   0  0  0  0  0  0  0  0  0  0  0  0
    6.5331    0.7362   17.5416 N   0  0  0  0  0  0  0  0  0  0  0  0
    7.1091    0.1370   18.5846 C   0  0  0  0  0  0  0  0  0  0  0  0
    8.0340   -0.3989   18.3888 H   0  0  0  0  0  0  0  0  0  0  0  0
    6.5891    0.1561   19.8839 C   0  0  0  0  0  0  0  0  0  0  0  0
    7.3409   -0.5716   20.9217 C   0  0  0  0  0  0  0  0  0  0  0  0
    7.9764   -1.6296   20.5132 N   0  0  0  0  0  0  0  0  0  0  0  0
    8.4668   -2.4655   21.4741 C   0  0  0  0  0  0  0  0  0  0  0  0
    8.7157   -3.6354   21.3208 O   0  0  0  0  0  0  0  0  0  0  0  0
    8.6930   -1.9243   22.7529 N   0  0  0  0  0  0  0  0  0  0  0  0
    9.1108   -2.6286   23.3383 H   0  0  0  0  0  0  0  0  0  0  0  0
    8.0194   -0.8247   23.2301 C   0  0  0  0  0  0  0  0  0  0  0  0
    8.0999   -0.4898   24.7012 C   0  0  0  0  0  0  0  0  0  0  0  0
    8.7794   -1.0913   25.6249 N   0  0  0  0  0  0  0  0  0  0  0  0
    8.5262   -0.3435   26.7734 C   0  0  0  0  0  0  0  0  0  0  0  0
    9.0033   -0.4484   28.0898 C   0  0  0  0  0  0  0  0  0  0  0  0
    9.7246   -1.2130   28.3538 H   0  0  0  0  0  0  0  0  0  0  0  0
    8.5243    0.4636   29.0314 C   0  0  0  0  0  0  0  0  0  0  0  0
    8.8842    0.3883   30.0512 H   0  0  0  0  0  0  0  0  0  0  0  0
    7.6291    1.4877   28.6755 C   0  0  0  0  0  0  0  0  0  0  0  0
    7.2871    2.1805   29.4332 H   0  0  0  0  0  0  0  0  0  0  0  0
    7.1751    1.6260   27.3606 C   0  0  0  0  0  0  0  0  0  0  0  0
    6.5092    2.4210   27.0528 H   0  0  0  0  0  0  0  0  0  0  0  0
    7.6413    0.6907   26.4455 C   0  0  0  0  0  0  0  0  0  0  0  0
    7.3707    0.5978   25.1142 O   0  0  0  0  0  0  0  0  0  0  0  0
    7.3216   -0.1201   22.2820 C   0  0  0  0  0  0  0  0  0  0  0  0
    6.7654    0.7678   22.5318 H   0  0  0  0  0  0  0  0  0  0  0  0
    5.3530    0.7745   20.1007 C   0  0  0  0  0  0  0  0  0  0  0  0
    4.8779    0.7402   21.0846 H   0  0  0  0  0  0  0  0  0  0  0  0
    4.7340    1.3886   19.0147 C   0  0  0  0  0  0  0  0  0  0  0  0
    3.7806    1.8921   19.1239 H   0  0  0  0  0  0  0  0  0  0  0  0
  1  2  1  0
  2  3  2  0
  3  4  1  0
  4  5  1  0
  4  6  2  0
  6  7  1  0
  7  8  2  0
  8  9  1  0
  9 10  2  0
  9 11  1  0
 11 12  1  0
 11 13  1  0
 13 14  1  0
 14 15  2  0
 15 16  1  0
 16 17  2  0
 17 18  1  0
 17 19  1  0
 19 20  1  0
 19 21  2  0
 21 22  1  0
 21 23  1  0
 23 24  1  0
 23 25  2  0
 25 26  1  0
 13 27  2  0
 27 28  1  0
  6 29  1  0
 29 30  1  0
 29 31  2  0
 31 32  1  0
 31  2  1  0
 27  7  1  0
 26 14  1  0
 25 16  1  0
M  END
>  <cnnaffinity>  (1) 
-5.04437

>  <filename>  (1) 
O=c1nc(-c2cccnc2)cc(-c2nc3ccccc3o2)[nH]1

$$$$
