
     RDKit          3D

 34 37  0  0  0  0  0  0  0  0999 V2000
    4.9388    1.7987   16.9812 H   0  0  0  0  0  0  0  0  0  0  0  0
    5.3959    1.2831   17.8246 C   0  0  0  0  0  0  0  0  0  0  0  0
    6.5589    0.6551   17.5784 N   0  0  0  0  0  0  0  0  0  0  0  0
    7.1495    0.0172   18.5933 C   0  0  0  0  0  0  0  0  0  0  0  0
    8.1166   -0.4367   18.3603 H   0  0  0  0  0  0  0  0  0  0  0  0
    6.6256   -0.0321   19.8965 C   0  0  0  0  0  0  0  0  0  0  0  0
    7.3575   -0.6799   20.9934 C   0  0  0  0  0  0  0  0  0  0  0  0
    7.7165   -0.0926   22.1929 C   0  0  0  0  0  0  0  0  0  0  0  0
    7.6031    1.3570   22.3711 C   0  0  0  0  0  0  0  0  0  0  0  0
    7.2796    1.8418   23.6159 O   0  0  0  0  0  0  0  0  0  0  0  0
    7.2349    3.2003   23.5030 C   0  0  0  0  0  0  0  0  0  0  0  0
    6.9244    4.1105   24.5151 C   0  0  0  0  0  0  0  0  0  0  0  0
    6.6793    3.7833   25.5211 H   0  0  0  0  0  0  0  0  0  0  0  0
    6.9524    5.4615   24.1628 C   0  0  0  0  0  0  0  0  0  0  0  0
    6.7277    6.2191   24.9071 H   0  0  0  0  0  0  0  0  0  0  0  0
    7.2730    5.8812   22.8514 C   0  0  0  0  0  0  0  0  0  0  0  0
    7.2847    6.9393   22.6015 H   0  0  0  0  0  0  0  0  0  0  0  0
    7.5795    4.9594   21.8631 C   0  0  0  0  0  0  0  0  0  0  0  0
    7.8308    5.2907   20.8612 H   0  0  0  0  0  0  0  0  0  0  0  0
    7.5625    3.5924   22.1916 C   0  0  0  0  0  0  0  0  0  0  0  0
    7.8057    2.3715   21.4881 C   0  0  0  0  0  0  0  0  0  0  0  0
    8.0640    2.2371   20.4483 H   0  0  0  0  0  0  0  0  0  0  0  0
    8.2991   -0.9228   23.2219 C   0  0  0  0  0  0  0  0  0  0  0  0
    8.5559   -0.4340   24.1619 H   0  0  0  0  0  0  0  0  0  0  0  0
    8.5390   -2.2461   23.0096 C   0  0  0  0  0  0  0  0  0  0  0  0
    8.9828   -2.9093   23.7436 H   0  0  0  0  0  0  0  0  0  0  0  0
    8.2082   -2.8619   21.7263 C   0  0  0  0  0  0  0  0  0  0  0  0
    8.3390   -4.0312   21.4080 O   0  0  0  0  0  0  0  0  0  0  0  0
    7.6862   -1.9950   20.7837 N   0  0  0  0  0  0  0  0  0  0  0  0
    7.4121   -2.4954   19.9567 H   0  0  0  0  0  0  0  0  0  0  0  0
    5.4060    0.6265   20.1377 C   0  0  0  0  0  0  0  0  0  0  0  0
    4.9921    0.6431   21.1481 H   0  0  0  0  0  0  0  0  0  0  0  0
    4.7915    1.2941   19.0826 C   0  0  0  0  0  0  0  0  0  0  0  0
    3.8717    1.8434   19.2271 H   0  0  0  0  0  0  0  0  0  0  0  0
  1  2  1  0
  2  3  2  0
  3  4  1  0
  4  5  1  0
  4  6  2  0
  6  7  1  0
  7  8  2  0
  8  9  1  0
  9 10  1  0
 10 11  1  0
 11 12  2  0
 12 13  1  0
 12 14  1  0
 14 15  1  0
 14 16  2  0
 16 17  1  0
 16 18  1  0
 18 19  1  0
 18 20  2  0
 20 21  1  0
 21 22  1  0
  8 23  1  0
 23 24  1  0
 23 25  2  0
 25 26  1  0
 25 27  1  0
 27 28  2  0
 27 29  1  0
 29 30  1  0
  6 31  1  0
 31 32  1  0
 31 33  2  0
 33 34  1  0
 33  2  1  0
 29  7  1  0
 21  9  2  0
 20 11  1  0
M  END
>  <cnnaffinity>  (1) 
-5.3959

>  <filename>  (1) 
O=c1ccc(-c2cc3ccccc3o2)c(-c2cccnc2)[nH]1

$$$$
