
     RDKit          3D

 32 34  0  0  0  0  0  0  0  0999 V2000
    5.1740    1.6544   16.9737 H   0  0  0  0  0  0  0  0  0  0  0  0
    5.6383    1.2118   17.8538 C   0  0  0  0  0  0  0  0  0  0  0  0
    6.8222    0.6090   17.6568 N   0  0  0  0  0  0  0  0  0  0  0  0
    7.4257    0.0553   18.7175 C   0  0  0  0  0  0  0  0  0  0  0  0
    8.3813   -0.4345   18.5292 H   0  0  0  0  0  0  0  0  0  0  0  0
    6.8640    0.0594   20.0031 C   0  0  0  0  0  0  0  0  0  0  0  0
    7.4832   -0.6644   21.1234 C   0  0  0  0  0  0  0  0  0  0  0  0
    8.8479   -0.5782   21.1827 O   0  0  0  0  0  0  0  0  0  0  0  0
    9.5059   -1.2187   22.2057 C   0  0  0  0  0  0  0  0  0  0  0  0
   11.0133   -1.1215   22.0934 C   0  0  0  0  0  0  0  0  0  0  0  0
   11.5239   -1.8882   21.1284 N   0  0  0  0  0  0  0  0  0  0  0  0
   12.8433   -1.9224   20.9314 C   0  0  0  0  0  0  0  0  0  0  0  0
   13.1931   -2.5436   20.1071 H   0  0  0  0  0  0  0  0  0  0  0  0
   13.7464   -1.2087   21.7167 C   0  0  0  0  0  0  0  0  0  0  0  0
   14.8059   -1.3287   21.5531 H   0  0  0  0  0  0  0  0  0  0  0  0
   13.2435   -0.3811   22.7131 C   0  0  0  0  0  0  0  0  0  0  0  0
   13.8914    0.2509   23.3201 H   0  0  0  0  0  0  0  0  0  0  0  0
   11.8630   -0.3586   22.9228 C   0  0  0  0  0  0  0  0  0  0  0  0
   11.2886    0.3553   24.0972 C   0  0  0  0  0  0  0  0  0  0  0  0
   10.8649   -0.5399   25.0153 F   0  0  0  0  0  0  0  0  0  0  0  0
   10.2367    1.1099   23.7415 F   0  0  0  0  0  0  0  0  0  0  0  0
   12.1785    1.1512   24.7149 F   0  0  0  0  0  0  0  0  0  0  0  0
    8.8499   -1.9833   23.1075 C   0  0  0  0  0  0  0  0  0  0  0  0
    9.3597   -2.5172   23.8960 H   0  0  0  0  0  0  0  0  0  0  0  0
    7.3947   -2.1525   23.0531 C   0  0  0  0  0  0  0  0  0  0  0  0
    6.7883   -2.8600   23.8378 O   0  0  0  0  0  0  0  0  0  0  0  0
    6.7676   -1.4223   21.9727 C   0  0  0  0  0  0  0  0  0  0  0  0
    5.7087   -1.5446   21.8281 H   0  0  0  0  0  0  0  0  0  0  0  0
    5.6244    0.6865   20.1909 C   0  0  0  0  0  0  0  0  0  0  0  0
    5.1769    0.7134   21.1865 H   0  0  0  0  0  0  0  0  0  0  0  0
    5.0032    1.2815   19.0989 C   0  0  0  0  0  0  0  0  0  0  0  0
    4.0467    1.7791   19.2006 H   0  0  0  0  0  0  0  0  0  0  0  0
  1  2  1  0
  2  3  2  0
  3  4  1  0
  4  5  1  0
  4  6  2  0
  6  7  1  0
  7  8  1  0
  8  9  1  0
  9 10  1  0
 10 11  2  0
 11 12  1  0
 12 13  1  0
 12 14  2  0
 14 15  1  0
 14 16  1  0
 16 17  1  0
 16 18  2  0
 18 19  1  0
 19 20  1  0
 19 21  1  0
 19 22  1  0
  9 23  2  0
 23 24  1  0
 23 25  1  0
 25 26  2  0
 25 27  1  0
 27 28  1  0
  6 29  1  0
 29 30  1  0
 29 31  2  0
 31 32  1  0
 31  2  1  0
 27  7  2  0
 18 10  1  0
M  END
>  <cnnaffinity>  (1) 
-6.17862

>  <filename>  (1) 
O=c1cc(-c2cccnc2)oc(-c2ncccc2C(F)(F)F)c1

$$$$
