
     RDKit          3D

 35 37  0  0  0  0  0  0  0  0999 V2000
    5.0366    1.9817   16.9263 H   0  0  0  0  0  0  0  0  0  0  0  0
    5.5185    1.3787   17.6926 C   0  0  0  0  0  0  0  0  0  0  0  0
    6.6992    0.8295   17.3557 N   0  0  0  0  0  0  0  0  0  0  0  0
    7.3305    0.0994   18.2832 C   0  0  0  0  0  0  0  0  0  0  0  0
    8.3041   -0.3252   18.0298 H   0  0  0  0  0  0  0  0  0  0  0  0
    6.7994   -0.1585   19.5607 C   0  0  0  0  0  0  0  0  0  0  0  0
    7.5127   -0.9420   20.5073 N   0  0  0  0  0  0  0  0  0  0  0  0
    6.8432   -1.8035   21.3745 C   0  0  0  0  0  0  0  0  0  0  0  0
    5.7807   -2.3444   21.1624 O   0  0  0  0  0  0  0  0  0  0  0  0
    7.6752   -1.8981   22.6405 C   0  0  2  0  0  0  0  0  0  0  0  0
    7.6238   -2.9319   22.9941 H   0  0  0  0  0  0  0  0  0  0  0  0
    7.0580   -0.9622   23.7189 C   0  0  0  0  0  0  0  0  0  0  0  0
    6.9299    0.0569   23.3352 H   0  0  0  0  0  0  0  0  0  0  0  0
    6.0610   -1.3337   23.9760 H   0  0  0  0  0  0  0  0  0  0  0  0
    7.8813   -0.9258   24.9786 C   0  0  0  0  0  0  0  0  0  0  0  0
    7.9191   -2.0703   25.7917 C   0  0  0  0  0  0  0  0  0  0  0  0
    7.3161   -2.9257   25.4994 H   0  0  0  0  0  0  0  0  0  0  0  0
    8.6940   -2.1296   26.9472 C   0  0  0  0  0  0  0  0  0  0  0  0
    8.6442   -3.0151   27.5740 H   0  0  0  0  0  0  0  0  0  0  0  0
    9.5032   -1.0410   27.2837 C   0  0  0  0  0  0  0  0  0  0  0  0
   10.1051   -1.0551   28.1859 H   0  0  0  0  0  0  0  0  0  0  0  0
    9.5192    0.0925   26.4699 C   0  0  0  0  0  0  0  0  0  0  0  0
   10.1749    0.9288   26.6660 H   0  0  0  0  0  0  0  0  0  0  0  0
    8.6806    0.1646   25.3575 C   0  0  0  0  0  0  0  0  0  0  0  0
    8.6147    1.6764   24.4821 Cl  0  0  0  0  0  0  0  0  0  0  0  0
    9.0790   -1.4619   22.1771 C   0  0  0  0  0  0  0  0  0  0  0  0
    9.6627   -1.0161   22.9892 H   0  0  0  0  0  0  0  0  0  0  0  0
    9.6525   -2.3105   21.7912 H   0  0  0  0  0  0  0  0  0  0  0  0
    8.7707   -0.4429   21.0743 C   0  0  0  0  0  0  0  0  0  0  0  0
    8.6505    0.5646   21.5145 H   0  0  0  0  0  0  0  0  0  0  0  0
    9.5509   -0.3871   20.3035 H   0  0  0  0  0  0  0  0  0  0  0  0
    5.5621    0.4098   19.8988 C   0  0  0  0  0  0  0  0  0  0  0  0
    5.1298    0.2284   20.8831 H   0  0  0  0  0  0  0  0  0  0  0  0
    4.9220    1.2064   18.9485 C   0  0  0  0  0  0  0  0  0  0  0  0
    3.9804    1.6974   19.1710 H   0  0  0  0  0  0  0  0  0  0  0  0
  1  2  1  0
  2  3  2  0
  3  4  1  0
  4  5  1  0
  4  6  2  0
  6  7  1  0
  7  8  1  0
  8  9  2  0
  8 10  1  0
 10 11  1  1
 10 12  1  0
 12 13  1  0
 12 14  1  0
 12 15  1  0
 15 16  2  0
 16 17  1  0
 16 18  1  0
 18 19  1  0
 18 20  2  0
 20 21  1  0
 20 22  1  0
 22 23  1  0
 22 24  2  0
 24 25  1  0
 10 26  1  0
 26 27  1  0
 26 28  1  0
 26 29  1  0
 29 30  1  0
 29 31  1  0
  6 32  1  0
 32 33  1  0
 32 34  2  0
 34 35  1  0
 34  2  1  0
 29  7  1  0
 24 15  1  0
M  END
>  <cnnaffinity>  (1) 
-5.0448

>  <filename>  (1) 
O=C1[C@H](Cc2ccccc2Cl)CCN1c1cccnc1

$$$$
