
     RDKit          3D

 44 47  0  0  0  0  0  0  0  0999 V2000
    3.5232   -8.5860   26.4488 H   0  0  0  0  0  0  0  0  0  0  0  0
    3.7399   -7.5978   26.8449 C   0  0  0  0  0  0  0  0  0  0  0  0
    4.3743   -6.7877   25.9983 N   0  0  0  0  0  0  0  0  0  0  0  0
    4.7296   -5.5773   26.4478 C   0  0  0  0  0  0  0  0  0  0  0  0
    5.4681   -4.7796   25.5916 N   0  0  0  0  0  0  0  0  0  0  0  0
    6.5424   -3.8721   26.0452 C   0  0  0  0  0  0  0  0  0  0  0  0
    7.5291   -4.3648   25.9741 H   0  0  0  0  0  0  0  0  0  0  0  0
    6.4146   -3.5752   27.0918 H   0  0  0  0  0  0  0  0  0  0  0  0
    6.6117   -2.6252   25.1478 C   0  0  0  0  0  0  0  0  0  0  0  0
    7.4740   -2.0195   25.4399 H   0  0  0  0  0  0  0  0  0  0  0  0
    5.7023   -2.0110   25.2800 H   0  0  0  0  0  0  0  0  0  0  0  0
    6.7919   -3.0326   23.7473 N   0  0  0  0  0  0  0  0  0  0  0  0
    7.4550   -2.1740   22.8559 C   0  0  0  0  0  0  0  0  0  0  0  0
    6.8013   -1.5679   21.7940 C   0  0  0  0  0  0  0  0  0  0  0  0
    5.7350   -1.7589   21.6775 H   0  0  0  0  0  0  0  0  0  0  0  0
    7.4730   -0.7174   20.8591 C   0  0  0  0  0  0  0  0  0  0  0  0
    6.7117   -0.0173   19.7851 C   0  0  0  0  0  0  0  0  0  0  0  0
    7.1879    0.0447   18.4598 C   0  0  0  0  0  0  0  0  0  0  0  0
    8.1073   -0.4759   18.1904 H   0  0  0  0  0  0  0  0  0  0  0  0
    6.5688    0.6921   17.4647 N   0  0  0  0  0  0  0  0  0  0  0  0
    5.4275    1.3314   17.7651 C   0  0  0  0  0  0  0  0  0  0  0  0
    4.9526    1.8599   16.9425 H   0  0  0  0  0  0  0  0  0  0  0  0
    4.8484    1.3193   19.0391 C   0  0  0  0  0  0  0  0  0  0  0  0
    3.9172    1.8467   19.2104 H   0  0  0  0  0  0  0  0  0  0  0  0
    5.4927    0.6225   20.0611 C   0  0  0  0  0  0  0  0  0  0  0  0
    5.0835    0.5941   21.0734 H   0  0  0  0  0  0  0  0  0  0  0  0
    8.8241   -0.5357   20.9920 C   0  0  0  0  0  0  0  0  0  0  0  0
    9.4034    0.1029   20.3263 H   0  0  0  0  0  0  0  0  0  0  0  0
    9.4828   -1.1452   22.0286 N   0  0  0  0  0  0  0  0  0  0  0  0
   10.4642   -1.0535   22.2526 H   0  0  0  0  0  0  0  0  0  0  0  0
    8.9098   -1.9071   23.0455 C   0  0  0  0  0  0  0  0  0  0  0  0
    9.6676   -2.2575   23.9422 O   0  0  0  0  0  0  0  0  0  0  0  0
    5.7184   -3.9173   23.3016 C   0  0  0  0  0  0  0  0  0  0  0  0
    4.7295   -3.4289   23.3577 H   0  0  0  0  0  0  0  0  0  0  0  0
    5.8966   -4.2009   22.2606 H   0  0  0  0  0  0  0  0  0  0  0  0
    5.6958   -5.1696   24.1893 C   0  0  0  0  0  0  0  0  0  0  0  0
    4.9305   -5.8703   23.8547 H   0  0  0  0  0  0  0  0  0  0  0  0
    6.6693   -5.6768   24.0800 H   0  0  0  0  0  0  0  0  0  0  0  0
    4.3324   -5.0940   27.7166 C   0  0  0  0  0  0  0  0  0  0  0  0
    4.5507   -4.0683   27.9722 H   0  0  0  0  0  0  0  0  0  0  0  0
    3.6515   -5.9480   28.5755 C   0  0  0  0  0  0  0  0  0  0  0  0
    3.3741   -5.6276   29.5790 H   0  0  0  0  0  0  0  0  0  0  0  0
    3.3683   -7.2472   28.1382 C   0  0  0  0  0  0  0  0  0  0  0  0
    2.8759   -7.9851   28.7567 H   0  0  0  0  0  0  0  0  0  0  0  0
  1  2  1  0
  2  3  2  0
  3  4  1  0
  4  5  1  0
  5  6  1  0
  6  7  1  0
  6  8  1  0
  6  9  1  0
  9 10  1  0
  9 11  1  0
  9 12  1  0
 12 13  1  0
 13 14  2  0
 14 15  1  0
 14 16  1  0
 16 17  1  0
 17 18  2  0
 18 19  1  0
 18 20  1  0
 20 21  2  0
 21 22  1  0
 21 23  1  0
 23 24  1  0
 23 25  2  0
 25 26  1  0
 16 27  2  0
 27 28  1  0
 27 29  1  0
 29 30  1  0
 29 31  1  0
 31 32  2  0
 12 33  1  0
 33 34  1  0
 33 35  1  0
 33 36  1  0
 36 37  1  0
 36 38  1  0
  4 39  2  0
 39 40  1  0
 39 41  1  0
 41 42  1  0
 41 43  2  0
 43 44  1  0
 43  2  1  0
 36  5  1  0
 31 13  1  0
 25 17  1  0
M  END
>  <cnnaffinity>  (1) 
-5.50993

>  <filename>  (1) 
O=c1[nH]cc(-c2cccnc2)cc1N1CCN(c2ccccn2)CC1

$$$$
