
     RDKit          3D

 32 34  0  0  0  0  0  0  0  0999 V2000
    5.0354    1.7861   16.9391 H   0  0  0  0  0  0  0  0  0  0  0  0
    5.4750    1.2880   17.7988 C   0  0  0  0  0  0  0  0  0  0  0  0
    6.6366    0.6537   17.5818 N   0  0  0  0  0  0  0  0  0  0  0  0
    7.1976    0.0353   18.6220 C   0  0  0  0  0  0  0  0  0  0  0  0
    8.1333   -0.4862   18.4189 H   0  0  0  0  0  0  0  0  0  0  0  0
    6.6523    0.0122   19.9127 C   0  0  0  0  0  0  0  0  0  0  0  0
    7.3712   -0.7000   20.9667 C   0  0  0  0  0  0  0  0  0  0  0  0
    6.8306   -0.9419   22.1200 N   0  0  0  0  0  0  0  0  0  0  0  0
    7.7381   -1.6450   22.8739 N   0  0  0  0  0  0  0  0  0  0  0  0
    7.5500   -1.6813   24.3266 C   0  0  0  0  0  0  0  0  0  0  0  0
    6.4722   -1.7758   24.4995 H   0  0  0  0  0  0  0  0  0  0  0  0
    8.0596   -2.5636   24.7295 H   0  0  0  0  0  0  0  0  0  0  0  0
    8.0757   -0.4030   24.9520 C   0  0  0  0  0  0  0  0  0  0  0  0
    9.4379   -0.2839   25.2782 C   0  0  0  0  0  0  0  0  0  0  0  0
   10.0997   -1.1213   25.0795 H   0  0  0  0  0  0  0  0  0  0  0  0
    9.9620    0.9082   25.7813 C   0  0  0  0  0  0  0  0  0  0  0  0
   11.0074    0.9813   26.0638 H   0  0  0  0  0  0  0  0  0  0  0  0
    9.1276    2.0177   25.9243 C   0  0  0  0  0  0  0  0  0  0  0  0
    9.5274    2.9532   26.2851 H   0  0  0  0  0  0  0  0  0  0  0  0
    7.7842    1.9484   25.5683 C   0  0  0  0  0  0  0  0  0  0  0  0
    7.1428    2.8216   25.6420 H   0  0  0  0  0  0  0  0  0  0  0  0
    7.2677    0.7407   25.0933 C   0  0  0  0  0  0  0  0  0  0  0  0
    5.5867    0.7328   24.6381 Cl  0  0  0  0  0  0  0  0  0  0  0  0
    8.9631   -1.8108   22.2504 C   0  0  0  0  0  0  0  0  0  0  0  0
    9.9490   -2.3390   22.7126 O   0  0  0  0  0  0  0  0  0  0  0  0
    8.7795   -1.2118   20.8751 C   0  0  0  0  0  0  0  0  0  0  0  0
    8.9369   -1.9883   20.1196 H   0  0  0  0  0  0  0  0  0  0  0  0
    9.5511   -0.4558   20.6894 H   0  0  0  0  0  0  0  0  0  0  0  0
    5.4224    0.6670   20.1232 C   0  0  0  0  0  0  0  0  0  0  0  0
    4.9553    0.6607   21.1085 H   0  0  0  0  0  0  0  0  0  0  0  0
    4.8317    1.3126   19.0411 C   0  0  0  0  0  0  0  0  0  0  0  0
    3.8884    1.8359   19.1427 H   0  0  0  0  0  0  0  0  0  0  0  0
  1  2  1  0
  2  3  2  0
  3  4  1  0
  4  5  1  0
  4  6  2  0
  6  7  1  0
  7  8  2  0
  8  9  1  0
  9 10  1  0
 10 11  1  0
 10 12  1  0
 10 13  1  0
 13 14  2  0
 14 15  1  0
 14 16  1  0
 16 17  1  0
 16 18  2  0
 18 19  1  0
 18 20  1  0
 20 21  1  0
 20 22  2  0
 22 23  1  0
  9 24  1  0
 24 25  2  0
 24 26  1  0
 26 27  1  0
 26 28  1  0
  6 29  1  0
 29 30  1  0
 29 31  2  0
 31 32  1  0
 31  2  1  0
 26  7  1  0
 22 13  1  0
M  END
>  <cnnaffinity>  (1) 
-4.88204

>  <filename>  (1) 
O=C1CC(c2cccnc2)=NN1Cc1ccccc1Cl

$$$$
