
     RDKit          3D

 51 54  0  0  0  0  0  0  0  0999 V2000
   10.5227    4.6659   22.9636 O   0  0  0  0  0  0  0  0  0  0  0  0
    9.3698    4.6028   23.3118 C   0  0  0  0  0  0  0  0  0  0  0  0
    8.6701    5.6730   23.7792 O   0  0  0  0  0  0  0  0  0  0  0  0
    7.3761    5.2784   24.2356 C   0  0  0  0  0  0  0  0  0  0  0  0
    7.2921    3.7572   24.0045 C   0  0  0  0  0  0  0  0  0  0  0  0
    8.5595    3.4962   23.3594 N   0  0  0  0  0  0  0  0  0  0  0  0
    9.0354    2.1931   22.9502 C   0  0  0  0  0  0  0  0  0  0  0  0
    9.0585    2.0613   21.4246 C   0  0  0  0  0  0  0  0  0  0  0  0
    9.5185    0.6661   20.9572 C   0  0  0  0  0  0  0  0  0  0  0  0
    8.6380   -0.4454   21.4392 C   0  0  0  0  0  0  0  0  0  0  0  0
    8.8651   -1.2477   22.4637 N   0  0  0  0  0  0  0  0  0  0  0  0
    7.6937   -1.9271   22.6042 C   0  0  0  0  0  0  0  0  0  0  0  0
    7.3759   -2.9313   23.6873 C   0  0  0  0  0  0  0  0  0  0  0  0
    6.6581   -2.2390   24.8838 C   0  0  0  0  0  0  0  0  0  0  0  0
    7.6437   -1.3805   25.6916 C   0  0  0  0  0  0  0  0  0  0  0  0
    8.7978   -2.2321   26.1987 C   0  0  0  0  0  0  0  0  0  0  0  0
    8.2982   -3.1950   27.0499 F   0  0  0  0  0  0  0  0  0  0  0  0
    9.6337   -1.4582   26.9559 F   0  0  0  0  0  0  0  0  0  0  0  0
    9.5612   -2.9191   25.0741 C   0  0  0  0  0  0  0  0  0  0  0  0
    8.6090   -3.7339   24.1736 C   0  0  0  0  0  0  0  0  0  0  0  0
    8.2451   -4.5957   24.7481 H   0  0  0  0  0  0  0  0  0  0  0  0
    9.1590   -4.1525   23.3224 H   0  0  0  0  0  0  0  0  0  0  0  0
   10.3333   -3.5655   25.5107 H   0  0  0  0  0  0  0  0  0  0  0  0
   10.0464   -2.1304   24.4911 H   0  0  0  0  0  0  0  0  0  0  0  0
    8.0693   -0.5936   25.0557 H   0  0  0  0  0  0  0  0  0  0  0  0
    7.1679   -0.8915   26.5483 H   0  0  0  0  0  0  0  0  0  0  0  0
    6.2421   -3.0163   25.5379 H   0  0  0  0  0  0  0  0  0  0  0  0
    5.8201   -1.6327   24.5191 H   0  0  0  0  0  0  0  0  0  0  0  0
    6.6694   -3.6226   23.2154 H   0  0  0  0  0  0  0  0  0  0  0  0
    6.7627   -1.5916   21.7325 N   0  0  0  0  0  0  0  0  0  0  0  0
    7.3807   -0.6617   20.9567 N   0  0  0  0  0  0  0  0  0  0  0  0
    6.6746   -0.0242   19.9003 C   0  0  0  0  0  0  0  0  0  0  0  0
    5.4550    0.6098   20.1564 C   0  0  0  0  0  0  0  0  0  0  0  0
    4.8375    1.2932   19.1056 C   0  0  0  0  0  0  0  0  0  0  0  0
    5.4358    1.2946   17.8388 C   0  0  0  0  0  0  0  0  0  0  0  0
    6.5747    0.6367   17.5727 N   0  0  0  0  0  0  0  0  0  0  0  0
    7.1692   -0.0079   18.5831 C   0  0  0  0  0  0  0  0  0  0  0  0
    8.0813   -0.5488   18.3418 H   0  0  0  0  0  0  0  0  0  0  0  0
    4.9801    1.8331   17.0091 H   0  0  0  0  0  0  0  0  0  0  0  0
    3.9059    1.8250   19.2580 H   0  0  0  0  0  0  0  0  0  0  0  0
    5.0175    0.5523   21.1541 H   0  0  0  0  0  0  0  0  0  0  0  0
   10.5367    0.4691   21.3113 H   0  0  0  0  0  0  0  0  0  0  0  0
    9.5570    0.6407   19.8648 H   0  0  0  0  0  0  0  0  0  0  0  0
    9.7597    2.8082   21.0400 H   0  0  0  0  0  0  0  0  0  0  0  0
    8.0639    2.2965   21.0182 H   0  0  0  0  0  0  0  0  0  0  0  0
    8.4050    1.4117   23.4019 H   0  0  0  0  0  0  0  0  0  0  0  0
   10.0472    2.0374   23.3500 H   0  0  0  0  0  0  0  0  0  0  0  0
    6.4407    3.4873   23.3655 H   0  0  0  0  0  0  0  0  0  0  0  0
    7.1982    3.2042   24.9506 H   0  0  0  0  0  0  0  0  0  0  0  0
    6.6179    5.8342   23.6754 H   0  0  0  0  0  0  0  0  0  0  0  0
    7.2865    5.5452   25.2921 H   0  0  0  0  0  0  0  0  0  0  0  0
  1  2  2  0
  2  3  1  0
  3  4  1  0
  4  5  1  0
  5  6  1  0
  6  7  1  0
  7  8  1  0
  8  9  1  0
  9 10  1  0
 10 11  2  0
 11 12  1  0
 12 13  1  0
 13 14  1  0
 14 15  1  0
 15 16  1  0
 16 17  1  0
 16 18  1  0
 16 19  1  0
 19 20  1  0
 20 21  1  0
 20 22  1  0
 19 23  1  0
 19 24  1  0
 15 25  1  0
 15 26  1  0
 14 27  1  0
 14 28  1  0
 13 29  1  0
 12 30  2  0
 30 31  1  0
 31 32  1  0
 32 33  2  0
 33 34  1  0
 34 35  2  0
 35 36  1  0
 36 37  2  0
 37 38  1  0
 35 39  1  0
 34 40  1  0
 33 41  1  0
  9 42  1  0
  9 43  1  0
  8 44  1  0
  8 45  1  0
  7 46  1  0
  7 47  1  0
  5 48  1  0
  5 49  1  0
  4 50  1  0
  4 51  1  0
  6  2  1  0
 31 10  1  0
 37 32  1  0
 20 13  1  0
M  END
>  <cnnaffinity>  (1) 
-6.37129

>  <filename>  (1) 
O=C1OCCN1CCCc1nc(C2CCC(F)(F)CC2)nn1-c1cccnc1

$$$$
