
     RDKit          3D

 34 36  0  0  0  0  0  0  0  0999 V2000
    5.0601    1.8880   16.9633 H   0  0  0  0  0  0  0  0  0  0  0  0
    5.4973    1.3368   17.7943 C   0  0  0  0  0  0  0  0  0  0  0  0
    6.6560    0.7022   17.5434 N   0  0  0  0  0  0  0  0  0  0  0  0
    7.2256    0.0278   18.5518 C   0  0  0  0  0  0  0  0  0  0  0  0
    8.1721   -0.4682   18.3310 H   0  0  0  0  0  0  0  0  0  0  0  0
    6.6584   -0.0816   19.8368 C   0  0  0  0  0  0  0  0  0  0  0  0
    7.3054   -0.8162   20.8991 N   0  0  0  0  0  0  0  0  0  0  0  0
    8.5422   -0.3751   21.3277 C   0  0  0  0  0  0  0  0  0  0  0  0
    8.9158    0.4926   20.7866 H   0  0  0  0  0  0  0  0  0  0  0  0
    9.2261   -0.9541   22.3635 C   0  0  0  0  0  0  0  0  0  0  0  0
   10.5225   -0.3563   22.8830 C   0  0  0  0  0  0  0  0  0  0  0  0
   10.9329   -1.0560   23.6245 H   0  0  0  0  0  0  0  0  0  0  0  0
   11.6272   -0.1166   21.8099 C   0  0  0  0  0  0  0  0  0  0  0  0
   11.2961   -0.3341   20.7871 H   0  0  0  0  0  0  0  0  0  0  0  0
   12.4701   -0.7983   21.9783 H   0  0  0  0  0  0  0  0  0  0  0  0
   12.0762    1.3553   21.9459 C   0  0  0  0  0  0  0  0  0  0  0  0
   13.1564    1.4624   21.8165 H   0  0  0  0  0  0  0  0  0  0  0  0
   11.6030    1.9781   21.1786 H   0  0  0  0  0  0  0  0  0  0  0  0
   11.6109    1.8247   23.3279 C   0  0  0  0  0  0  0  0  0  0  0  0
   12.3598    1.5869   24.0955 H   0  0  0  0  0  0  0  0  0  0  0  0
   11.4378    2.9096   23.3716 H   0  0  0  0  0  0  0  0  0  0  0  0
   10.3331    1.0192   23.5901 C   0  0  0  0  0  0  0  0  0  0  0  0
    9.4524    1.5438   23.1937 H   0  0  0  0  0  0  0  0  0  0  0  0
   10.1678    0.8881   24.6638 H   0  0  0  0  0  0  0  0  0  0  0  0
    8.6087   -2.0680   23.0210 C   0  0  0  0  0  0  0  0  0  0  0  0
    9.1354   -2.5596   23.8432 H   0  0  0  0  0  0  0  0  0  0  0  0
    7.3795   -2.5103   22.6437 C   0  0  0  0  0  0  0  0  0  0  0  0
    6.8660   -3.3329   23.1125 H   0  0  0  0  0  0  0  0  0  0  0  0
    6.6356   -1.9128   21.5460 C   0  0  0  0  0  0  0  0  0  0  0  0
    5.5464   -2.3307   21.1840 O   0  0  0  0  0  0  0  0  0  0  0  0
    5.4509    0.5800   20.0833 C   0  0  0  0  0  0  0  0  0  0  0  0
    5.0023    0.5226   21.0739 H   0  0  0  0  0  0  0  0  0  0  0  0
    4.8662    1.3060   19.0422 C   0  0  0  0  0  0  0  0  0  0  0  0
    3.9398    1.8510   19.1886 H   0  0  0  0  0  0  0  0  0  0  0  0
  1  2  1  0
  2  3  2  0
  3  4  1  0
  4  5  1  0
  4  6  2  0
  6  7  1  0
  7  8  1  0
  8  9  1  0
  8 10  2  0
 10 11  1  0
 11 12  1  0
 11 13  1  0
 13 14  1  0
 13 15  1  0
 13 16  1  0
 16 17  1  0
 16 18  1  0
 16 19  1  0
 19 20  1  0
 19 21  1  0
 19 22  1  0
 22 23  1  0
 22 24  1  0
 10 25  1  0
 25 26  1  0
 25 27  2  0
 27 28  1  0
 27 29  1  0
 29 30  2  0
  6 31  1  0
 31 32  1  0
 31 33  2  0
 33 34  1  0
 33  2  1  0
 29  7  1  0
 22 11  1  0
M  END
>  <cnnaffinity>  (1) 
-5.25448

>  <filename>  (1) 
O=c1ccc(C2CCCC2)cn1-c1cccnc1

$$$$
