
     RDKit          3D

 35 37  0  0  0  0  0  0  0  0999 V2000
    4.9176    1.7981   16.9881 H   0  0  0  0  0  0  0  0  0  0  0  0
    5.3881    1.2979   17.8305 C   0  0  0  0  0  0  0  0  0  0  0  0
    6.5439    0.6712   17.5623 N   0  0  0  0  0  0  0  0  0  0  0  0
    7.1645    0.0538   18.5738 C   0  0  0  0  0  0  0  0  0  0  0  0
    8.1215   -0.4161   18.3494 H   0  0  0  0  0  0  0  0  0  0  0  0
    6.6532    0.0045   19.8861 C   0  0  0  0  0  0  0  0  0  0  0  0
    7.3569   -0.6792   20.9420 N   0  0  0  0  0  0  0  0  0  0  0  0
    6.7225   -1.7404   21.5981 C   0  0  0  0  0  0  0  0  0  0  0  0
    5.7106   -1.9642   21.2591 H   0  0  0  0  0  0  0  0  0  0  0  0
    7.3161   -2.4562   22.5846 C   0  0  0  0  0  0  0  0  0  0  0  0
    6.6868   -3.5212   23.2182 N   0  0  0  0  0  0  0  0  0  0  0  0
    7.1893   -3.9815   23.9693 H   0  0  0  0  0  0  0  0  0  0  0  0
    5.3332   -3.9509   22.9291 C   0  0  0  0  0  0  0  0  0  0  0  0
    4.6182   -3.1303   23.0828 H   0  0  0  0  0  0  0  0  0  0  0  0
    5.2538   -4.2667   21.8784 H   0  0  0  0  0  0  0  0  0  0  0  0
    4.9547   -5.1073   23.8295 C   0  0  0  0  0  0  0  0  0  0  0  0
    4.3593   -4.9002   25.0809 C   0  0  0  0  0  0  0  0  0  0  0  0
    4.1391   -3.8994   25.4363 H   0  0  0  0  0  0  0  0  0  0  0  0
    4.0459   -6.0021   25.8832 C   0  0  0  0  0  0  0  0  0  0  0  0
    3.5790   -5.8606   26.8570 H   0  0  0  0  0  0  0  0  0  0  0  0
    4.2823   -7.2702   25.5219 N   0  0  0  0  0  0  0  0  0  0  0  0
    4.8623   -7.4647   24.3324 C   0  0  0  0  0  0  0  0  0  0  0  0
    5.0680   -8.4967   24.0621 H   0  0  0  0  0  0  0  0  0  0  0  0
    5.2170   -6.4318   23.4622 C   0  0  0  0  0  0  0  0  0  0  0  0
    5.6934   -6.6715   22.5185 H   0  0  0  0  0  0  0  0  0  0  0  0
    8.7218   -2.0633   22.9864 C   0  0  0  0  0  0  0  0  0  0  0  0
    9.4350   -2.5626   23.8361 O   0  0  0  0  0  0  0  0  0  0  0  0
    9.2343   -1.0081   22.2848 N   0  0  0  0  0  0  0  0  0  0  0  0
   10.1648   -0.7338   22.5296 H   0  0  0  0  0  0  0  0  0  0  0  0
    8.6661   -0.2807   21.2939 C   0  0  0  0  0  0  0  0  0  0  0  0
    9.2911    0.6165   20.7806 O   0  0  0  0  0  0  0  0  0  0  0  0
    5.4382    0.6428   20.1491 C   0  0  0  0  0  0  0  0  0  0  0  0
    5.0313    0.6243   21.1608 H   0  0  0  0  0  0  0  0  0  0  0  0
    4.8021    1.3151   19.1003 C   0  0  0  0  0  0  0  0  0  0  0  0
    3.8724    1.8481   19.2543 H   0  0  0  0  0  0  0  0  0  0  0  0
  1  2  1  0
  2  3  2  0
  3  4  1  0
  4  5  1  0
  4  6  2  0
  6  7  1  0
  7  8  1  0
  8  9  1  0
  8 10  2  0
 10 11  1  0
 11 12  1  0
 11 13  1  0
 13 14  1  0
 13 15  1  0
 13 16  1  0
 16 17  2  0
 17 18  1  0
 17 19  1  0
 19 20  1  0
 19 21  2  0
 21 22  1  0
 22 23  1  0
 22 24  2  0
 24 25  1  0
 10 26  1  0
 26 27  2  0
 26 28  1  0
 28 29  1  0
 28 30  1  0
 30 31  2  0
  6 32  1  0
 32 33  1  0
 32 34  2  0
 34 35  1  0
 34  2  1  0
 30  7  1  0
 24 16  1  0
M  END
>  <cnnaffinity>  (1) 
-5.23471

>  <filename>  (1) 
O=c1[nH]c(=O)n(-c2cccnc2)cc1NCc1ccncc1

$$$$
