
     RDKit          3D

 31 33  0  0  0  0  0  0  0  0999 V2000
    4.9047    1.8336   16.9475 H   0  0  0  0  0  0  0  0  0  0  0  0
    5.3865    1.3347   17.7864 C   0  0  0  0  0  0  0  0  0  0  0  0
    6.5519    0.7258   17.5142 N   0  0  0  0  0  0  0  0  0  0  0  0
    7.1764    0.1122   18.5275 C   0  0  0  0  0  0  0  0  0  0  0  0
    8.1152   -0.3748   18.2686 H   0  0  0  0  0  0  0  0  0  0  0  0
    6.6762    0.0297   19.8498 C   0  0  0  0  0  0  0  0  0  0  0  0
    7.4066   -0.6867   20.9473 C   0  0  0  0  0  0  0  0  0  0  0  0
    8.7114   -0.4166   21.2054 C   0  0  0  0  0  0  0  0  0  0  0  0
    9.2841    0.3017   20.6159 H   0  0  0  0  0  0  0  0  0  0  0  0
    9.4313   -1.0439   22.2164 N   0  0  0  0  0  0  0  0  0  0  0  0
   10.8283   -0.7349   22.3695 C   0  0  0  0  0  0  0  0  0  0  0  0
   11.7913   -1.7387   22.2288 C   0  0  0  0  0  0  0  0  0  0  0  0
   11.4596   -2.7659   22.1276 H   0  0  0  0  0  0  0  0  0  0  0  0
   13.1487   -1.4026   22.2828 C   0  0  0  0  0  0  0  0  0  0  0  0
   13.9015   -2.1704   22.1037 H   0  0  0  0  0  0  0  0  0  0  0  0
   13.5343   -0.0988   22.6241 C   0  0  0  0  0  0  0  0  0  0  0  0
   14.5694    0.1655   22.8133 H   0  0  0  0  0  0  0  0  0  0  0  0
   12.5551    0.8880   22.7729 C   0  0  0  0  0  0  0  0  0  0  0  0
   13.0314    2.5191   23.1444 Cl  0  0  0  0  0  0  0  0  0  0  0  0
   11.2011    0.5908   22.6134 C   0  0  0  0  0  0  0  0  0  0  0  0
   10.4440    1.3665   22.6791 H   0  0  0  0  0  0  0  0  0  0  0  0
    8.8303   -2.0016   23.0507 C   0  0  0  0  0  0  0  0  0  0  0  0
    9.3893   -2.6296   23.9217 O   0  0  0  0  0  0  0  0  0  0  0  0
    7.5062   -2.2002   22.8150 N   0  0  0  0  0  0  0  0  0  0  0  0
    7.0900   -2.9312   23.3557 H   0  0  0  0  0  0  0  0  0  0  0  0
    6.7366   -1.7418   21.7672 C   0  0  0  0  0  0  0  0  0  0  0  0
    5.6506   -2.2574   21.6001 O   0  0  0  0  0  0  0  0  0  0  0  0
    5.4441    0.6643   20.0943 C   0  0  0  0  0  0  0  0  0  0  0  0
    5.0158    0.6109   21.0952 H   0  0  0  0  0  0  0  0  0  0  0  0
    4.7931    1.3374   19.0525 C   0  0  0  0  0  0  0  0  0  0  0  0
    3.8482    1.8578   19.2013 H   0  0  0  0  0  0  0  0  0  0  0  0
  1  2  1  0
  2  3  2  0
  3  4  1  0
  4  5  1  0
  4  6  2  0
  6  7  1  0
  7  8  2  0
  8  9  1  0
  8 10  1  0
 10 11  1  0
 11 12  2  0
 12 13  1  0
 12 14  1  0
 14 15  1  0
 14 16  2  0
 16 17  1  0
 16 18  1  0
 18 19  1  0
 18 20  2  0
 20 21  1  0
 10 22  1  0
 22 23  2  0
 22 24  1  0
 24 25  1  0
 24 26  1  0
 26 27  2  0
  6 28  1  0
 28 29  1  0
 28 30  2  0
 30 31  1  0
 30  2  1  0
 26  7  1  0
 20 11  1  0
M  END
>  <cnnaffinity>  (1) 
-5.26511

>  <filename>  (1) 
O=c1[nH]c(=O)n(-c2cccc(Cl)c2)cc1-c1cccnc1

$$$$
