
     RDKit          3D

 48 51  0  0  0  0  0  0  0  0999 V2000
   10.9689    2.5309   24.3905 O   0  0  0  0  0  0  0  0  0  0  0  0
    9.8535    2.1691   24.7287 C   0  0  0  0  0  0  0  0  0  0  0  0
    9.3673    0.8153   24.8348 C   0  0  0  0  0  0  0  0  0  0  0  0
    8.0906    0.5566   25.2487 C   0  0  0  0  0  0  0  0  0  0  0  0
    7.6030   -0.7867   25.3521 N   0  0  0  0  0  0  0  0  0  0  0  0
    6.9895   -1.2664   26.4768 N   0  0  0  0  0  0  0  0  0  0  0  0
    6.7005   -2.5081   26.1536 C   0  0  0  0  0  0  0  0  0  0  0  0
    5.9635   -3.4373   27.0732 C   0  0  0  0  0  0  0  0  0  0  0  0
    4.4812   -3.6078   26.6425 C   0  0  0  0  0  0  0  0  0  0  0  0
    3.7726   -4.7000   27.4095 C   0  0  0  0  0  0  0  0  0  0  0  0
    4.4106   -5.6502   28.0897 C   0  0  0  0  0  0  0  0  0  0  0  0
    5.9167   -5.6977   28.2284 C   0  0  0  0  0  0  0  0  0  0  0  0
    6.6418   -4.8184   27.1939 C   0  0  0  0  0  0  0  0  0  0  0  0
    6.6277   -5.3007   26.2078 H   0  0  0  0  0  0  0  0  0  0  0  0
    7.6967   -4.7095   27.4713 H   0  0  0  0  0  0  0  0  0  0  0  0
    6.1807   -5.3674   29.2435 H   0  0  0  0  0  0  0  0  0  0  0  0
    6.2735   -6.7329   28.1625 H   0  0  0  0  0  0  0  0  0  0  0  0
    3.8427   -6.4381   28.5890 H   0  0  0  0  0  0  0  0  0  0  0  0
    2.6820   -4.6941   27.3753 H   0  0  0  0  0  0  0  0  0  0  0  0
    3.9437   -2.6581   26.7507 H   0  0  0  0  0  0  0  0  0  0  0  0
    4.4465   -3.8480   25.5713 H   0  0  0  0  0  0  0  0  0  0  0  0
    5.9699   -2.9505   28.0516 H   0  0  0  0  0  0  0  0  0  0  0  0
    7.0551   -2.8593   24.8862 N   0  0  0  0  0  0  0  0  0  0  0  0
    7.6116   -1.7665   24.4085 C   0  0  0  0  0  0  0  0  0  0  0  0
    8.0125   -1.5843   22.9825 C   0  0  0  0  0  0  0  0  0  0  0  0
    6.9717   -0.7745   22.2064 C   0  0  0  0  0  0  0  0  0  0  0  0
    7.4182   -0.6810   20.8552 O   0  0  0  0  0  0  0  0  0  0  0  0
    6.6696   -0.0026   19.9387 C   0  0  0  0  0  0  0  0  0  0  0  0
    5.4471    0.6420   20.1819 C   0  0  0  0  0  0  0  0  0  0  0  0
    4.8159    1.3021   19.1132 C   0  0  0  0  0  0  0  0  0  0  0  0
    5.4011    1.2895   17.8462 C   0  0  0  0  0  0  0  0  0  0  0  0
    6.5683    0.6670   17.6008 N   0  0  0  0  0  0  0  0  0  0  0  0
    7.1797    0.0520   18.6180 C   0  0  0  0  0  0  0  0  0  0  0  0
    8.1247   -0.4355   18.3987 H   0  0  0  0  0  0  0  0  0  0  0  0
    4.9234    1.7804   16.9974 H   0  0  0  0  0  0  0  0  0  0  0  0
    3.8834    1.8351   19.2615 H   0  0  0  0  0  0  0  0  0  0  0  0
    5.0023    0.6310   21.1790 H   0  0  0  0  0  0  0  0  0  0  0  0
    6.8523    0.2258   22.6473 H   0  0  0  0  0  0  0  0  0  0  0  0
    6.0041   -1.2892   22.2426 H   0  0  0  0  0  0  0  0  0  0  0  0
    8.1201   -2.5686   22.5216 H   0  0  0  0  0  0  0  0  0  0  0  0
    8.9805   -1.0856   22.9003 H   0  0  0  0  0  0  0  0  0  0  0  0
    7.1978    1.6327   25.5830 C   0  0  0  0  0  0  0  0  0  0  0  0
    7.6363    2.9139   25.4786 C   0  0  0  0  0  0  0  0  0  0  0  0
    8.9182    3.1497   25.0654 N   0  0  0  0  0  0  0  0  0  0  0  0
    9.3295    4.0605   24.9488 H   0  0  0  0  0  0  0  0  0  0  0  0
    7.0177    3.7803   25.7173 H   0  0  0  0  0  0  0  0  0  0  0  0
    6.1953    1.4148   25.9278 H   0  0  0  0  0  0  0  0  0  0  0  0
   10.0968    0.0555   24.6149 H   0  0  0  0  0  0  0  0  0  0  0  0
  1  2  2  0
  2  3  1  0
  3  4  2  0
  4  5  1  0
  5  6  1  0
  6  7  2  0
  7  8  1  0
  8  9  1  0
  9 10  1  0
 10 11  2  0
 11 12  1  0
 12 13  1  0
 13 14  1  0
 13 15  1  0
 12 16  1  0
 12 17  1  0
 11 18  1  0
 10 19  1  0
  9 20  1  0
  9 21  1  0
  8 22  1  0
  7 23  1  0
 23 24  2  0
 24 25  1  0
 25 26  1  0
 26 27  1  0
 27 28  1  0
 28 29  2  0
 29 30  1  0
 30 31  2  0
 31 32  1  0
 32 33  2  0
 33 34  1  0
 31 35  1  0
 30 36  1  0
 29 37  1  0
 26 38  1  0
 26 39  1  0
 25 40  1  0
 25 41  1  0
  4 42  1  0
 42 43  2  0
 43 44  1  0
 44 45  1  0
 43 46  1  0
 42 47  1  0
  3 48  1  0
 44  2  1  0
 24  5  1  0
 33 28  1  0
 13  8  1  0
M  END
>  <cnnaffinity>  (1) 
-5.99424

>  <filename>  (1) 
O=c1cc(-n2nc(C3CC=CCC3)nc2CCOc2cccnc2)cc[nH]1

$$$$
