
     RDKit          3D

 30 32  0  0  0  0  0  0  0  0999 V2000
    4.9558    2.1027   16.5883 H   0  0  0  0  0  0  0  0  0  0  0  0
    5.3166    1.5584   17.4611 C   0  0  0  0  0  0  0  0  0  0  0  0
    6.4680    0.8854   17.3074 N   0  0  0  0  0  0  0  0  0  0  0  0
    6.9474    0.2214   18.3640 C   0  0  0  0  0  0  0  0  0  0  0  0
    7.8994   -0.2886   18.2121 H   0  0  0  0  0  0  0  0  0  0  0  0
    6.3052    0.1870   19.6080 C   0  0  0  0  0  0  0  0  0  0  0  0
    6.8854   -0.6104   20.7040 C   0  0  0  0  0  0  0  0  0  0  0  0
    7.2988   -1.8089   20.3993 N   0  0  0  0  0  0  0  0  0  0  0  0
    7.8938   -2.5559   21.3773 C   0  0  0  0  0  0  0  0  0  0  0  0
    8.3089   -3.6877   21.2470 O   0  0  0  0  0  0  0  0  0  0  0  0
    8.0794   -1.9737   22.6237 N   0  0  0  0  0  0  0  0  0  0  0  0
    8.5399   -2.6139   23.2445 H   0  0  0  0  0  0  0  0  0  0  0  0
    7.5863   -0.7719   22.9900 C   0  0  0  0  0  0  0  0  0  0  0  0
    7.6966   -0.4067   24.4231 C   0  0  0  0  0  0  0  0  0  0  0  0
    6.5129   -0.1646   25.1427 C   0  0  0  0  0  0  0  0  0  0  0  0
    5.5728   -0.1193   24.5930 H   0  0  0  0  0  0  0  0  0  0  0  0
    6.5348   -0.0082   26.5299 C   0  0  0  0  0  0  0  0  0  0  0  0
    5.6044    0.1445   27.0672 H   0  0  0  0  0  0  0  0  0  0  0  0
    7.7445   -0.0787   27.2251 C   0  0  0  0  0  0  0  0  0  0  0  0
    7.8027    0.0317   28.3073 H   0  0  0  0  0  0  0  0  0  0  0  0
    8.9334   -0.2834   26.5183 C   0  0  0  0  0  0  0  0  0  0  0  0
   10.3917   -0.4016   27.4124 Cl  0  0  0  0  0  0  0  0  0  0  0  0
    8.9267   -0.4265   25.1213 C   0  0  0  0  0  0  0  0  0  0  0  0
   10.4176   -0.6225   24.2582 Cl  0  0  0  0  0  0  0  0  0  0  0  0
    6.9741   -0.0464   22.0065 C   0  0  0  0  0  0  0  0  0  0  0  0
    6.5833    0.9373   22.2021 H   0  0  0  0  0  0  0  0  0  0  0  0
    5.1309    0.9257   19.7706 C   0  0  0  0  0  0  0  0  0  0  0  0
    4.6520    0.9698   20.7495 H   0  0  0  0  0  0  0  0  0  0  0  0
    4.6121    1.6005   18.6692 C   0  0  0  0  0  0  0  0  0  0  0  0
    3.7030    2.1822   18.7506 H   0  0  0  0  0  0  0  0  0  0  0  0
  1  2  1  0
  2  3  2  0
  3  4  1  0
  4  5  1  0
  4  6  2  0
  6  7  1  0
  7  8  2  0
  8  9  1  0
  9 10  2  0
  9 11  1  0
 11 12  1  0
 11 13  1  0
 13 14  1  0
 14 15  2  0
 15 16  1  0
 15 17  1  0
 17 18  1  0
 17 19  2  0
 19 20  1  0
 19 21  1  0
 21 22  1  0
 21 23  2  0
 23 24  1  0
 13 25  2  0
 25 26  1  0
  6 27  1  0
 27 28  1  0
 27 29  2  0
 29 30  1  0
 29  2  1  0
 25  7  1  0
 23 14  1  0
M  END
>  <cnnaffinity>  (1) 
-5.59506

>  <filename>  (1) 
O=c1nc(-c2cccnc2)cc(-c2cccc(Cl)c2Cl)[nH]1

$$$$
