
     RDKit          3D

 31 33  0  0  0  0  0  0  0  0999 V2000
    4.9549    1.8779   16.9526 H   0  0  0  0  0  0  0  0  0  0  0  0
    5.4134    1.3400   17.7806 C   0  0  0  0  0  0  0  0  0  0  0  0
    6.5744    0.7193   17.5184 N   0  0  0  0  0  0  0  0  0  0  0  0
    7.1712    0.0691   18.5244 C   0  0  0  0  0  0  0  0  0  0  0  0
    8.1138   -0.4143   18.2810 H   0  0  0  0  0  0  0  0  0  0  0  0
    6.6365   -0.0248   19.8278 C   0  0  0  0  0  0  0  0  0  0  0  0
    7.3373   -0.7138   20.8984 N   0  0  0  0  0  0  0  0  0  0  0  0
    8.6027   -0.2687   21.2554 C   0  0  0  0  0  0  0  0  0  0  0  0
    8.9705    0.5854   20.6905 H   0  0  0  0  0  0  0  0  0  0  0  0
    9.3596   -0.8503   22.2103 C   0  0  0  0  0  0  0  0  0  0  0  0
   10.7421   -0.3676   22.4592 C   0  0  0  0  0  0  0  0  0  0  0  0
   11.8460   -1.2290   22.3472 C   0  0  0  0  0  0  0  0  0  0  0  0
   11.6815   -2.2779   22.1203 H   0  0  0  0  0  0  0  0  0  0  0  0
   13.1451   -0.7454   22.5258 C   0  0  0  0  0  0  0  0  0  0  0  0
   13.9887   -1.4249   22.4311 H   0  0  0  0  0  0  0  0  0  0  0  0
   13.3691    0.5959   22.8517 C   0  0  0  0  0  0  0  0  0  0  0  0
   14.3721    0.9869   23.0020 H   0  0  0  0  0  0  0  0  0  0  0  0
   12.2709    1.4485   22.9887 C   0  0  0  0  0  0  0  0  0  0  0  0
   12.5213    3.1053   23.4655 Cl  0  0  0  0  0  0  0  0  0  0  0  0
   10.9716    0.9868   22.7725 C   0  0  0  0  0  0  0  0  0  0  0  0
   10.1506    1.6911   22.8480 H   0  0  0  0  0  0  0  0  0  0  0  0
    8.7877   -1.9921   22.9628 C   0  0  0  0  0  0  0  0  0  0  0  0
    9.2959   -2.6899   23.8088 O   0  0  0  0  0  0  0  0  0  0  0  0
    7.4816   -2.2756   22.6272 N   0  0  0  0  0  0  0  0  0  0  0  0
    7.0683   -3.0506   23.1070 H   0  0  0  0  0  0  0  0  0  0  0  0
    6.7335   -1.7828   21.6107 C   0  0  0  0  0  0  0  0  0  0  0  0
    5.6541   -2.2688   21.3684 O   0  0  0  0  0  0  0  0  0  0  0  0
    5.4219    0.6209   20.0850 C   0  0  0  0  0  0  0  0  0  0  0  0
    4.9805    0.5772   21.0812 H   0  0  0  0  0  0  0  0  0  0  0  0
    4.8042    1.3194   19.0397 C   0  0  0  0  0  0  0  0  0  0  0  0
    3.8735    1.8572   19.1936 H   0  0  0  0  0  0  0  0  0  0  0  0
  1  2  1  0
  2  3  2  0
  3  4  1  0
  4  5  1  0
  4  6  2  0
  6  7  1  0
  7  8  1  0
  8  9  1  0
  8 10  2  0
 10 11  1  0
 11 12  2  0
 12 13  1  0
 12 14  1  0
 14 15  1  0
 14 16  2  0
 16 17  1  0
 16 18  1  0
 18 19  1  0
 18 20  2  0
 20 21  1  0
 10 22  1  0
 22 23  2  0
 22 24  1  0
 24 25  1  0
 24 26  1  0
 26 27  2  0
  6 28  1  0
 28 29  1  0
 28 30  2  0
 30 31  1  0
 30  2  1  0
 26  7  1  0
 20 11  1  0
M  END
>  <cnnaffinity>  (1) 
-5.30923

>  <filename>  (1) 
O=c1[nH]c(=O)n(-c2cccnc2)cc1-c1cccc(Cl)c1

$$$$
