
     RDKit          3D

 33 36  0  0  0  0  0  0  0  0999 V2000
    4.9758    1.7836   16.9211 H   0  0  0  0  0  0  0  0  0  0  0  0
    5.4040    1.2636   17.7778 C   0  0  0  0  0  0  0  0  0  0  0  0
    6.5600    0.6142   17.5565 N   0  0  0  0  0  0  0  0  0  0  0  0
    7.1217    0.0040   18.6001 C   0  0  0  0  0  0  0  0  0  0  0  0
    8.0540   -0.5336   18.4146 H   0  0  0  0  0  0  0  0  0  0  0  0
    6.6010    0.0310   19.9019 C   0  0  0  0  0  0  0  0  0  0  0  0
    7.3930   -0.5801   20.9644 C   0  0  0  0  0  0  0  0  0  0  0  0
    7.8486    0.0417   22.1082 C   0  0  0  0  0  0  0  0  0  0  0  0
    7.7957    1.5093   22.2513 C   0  0  0  0  0  0  0  0  0  0  0  0
    7.7425    2.4351   21.3437 N   0  0  0  0  0  0  0  0  0  0  0  0
    7.6967    3.6342   22.0703 C   0  0  0  0  0  0  0  0  0  0  0  0
    7.5870    4.9905   21.6946 C   0  0  0  0  0  0  0  0  0  0  0  0
    7.5039    5.3142   20.6617 H   0  0  0  0  0  0  0  0  0  0  0  0
    7.5729    5.9584   22.7003 C   0  0  0  0  0  0  0  0  0  0  0  0
    7.5045    7.0080   22.4257 H   0  0  0  0  0  0  0  0  0  0  0  0
    7.6392    5.6044   24.0640 C   0  0  0  0  0  0  0  0  0  0  0  0
    7.6239    6.3783   24.8241 H   0  0  0  0  0  0  0  0  0  0  0  0
    7.7186    4.2655   24.4574 C   0  0  0  0  0  0  0  0  0  0  0  0
    7.7459    3.9405   25.4931 H   0  0  0  0  0  0  0  0  0  0  0  0
    7.7530    3.3236   23.4340 C   0  0  0  0  0  0  0  0  0  0  0  0
    7.8324    1.9694   23.5462 O   0  0  0  0  0  0  0  0  0  0  0  0
    8.3986   -0.7896   23.1557 C   0  0  0  0  0  0  0  0  0  0  0  0
    8.6901   -0.3560   24.1153 H   0  0  0  0  0  0  0  0  0  0  0  0
    8.5449   -2.1239   22.9646 C   0  0  0  0  0  0  0  0  0  0  0  0
    8.9284   -2.7937   23.7195 H   0  0  0  0  0  0  0  0  0  0  0  0
    8.1750   -2.7755   21.7146 C   0  0  0  0  0  0  0  0  0  0  0  0
    8.2633   -3.9664   21.4774 O   0  0  0  0  0  0  0  0  0  0  0  0
    7.6803   -1.9095   20.7552 N   0  0  0  0  0  0  0  0  0  0  0  0
    7.3472   -2.3919   19.9315 H   0  0  0  0  0  0  0  0  0  0  0  0
    5.3543    0.6454   20.1084 C   0  0  0  0  0  0  0  0  0  0  0  0
    4.8830    0.6427   21.0947 H   0  0  0  0  0  0  0  0  0  0  0  0
    4.7612    1.2837   19.0194 C   0  0  0  0  0  0  0  0  0  0  0  0
    3.8166    1.8037   19.1138 H   0  0  0  0  0  0  0  0  0  0  0  0
  1  2  1  0
  2  3  2  0
  3  4  1  0
  4  5  1  0
  4  6  2  0
  6  7  1  0
  7  8  2  0
  8  9  1  0
  9 10  2  0
 10 11  1  0
 11 12  2  0
 12 13  1  0
 12 14  1  0
 14 15  1  0
 14 16  2  0
 16 17  1  0
 16 18  1  0
 18 19  1  0
 18 20  2  0
 20 21  1  0
  8 22  1  0
 22 23  1  0
 22 24  2  0
 24 25  1  0
 24 26  1  0
 26 27  2  0
 26 28  1  0
 28 29  1  0
  6 30  1  0
 30 31  1  0
 30 32  2  0
 32 33  1  0
 32  2  1  0
 28  7  1  0
 21  9  1  0
 20 11  1  0
M  END
>  <cnnaffinity>  (1) 
-5.26622

>  <filename>  (1) 
O=c1ccc(-c2nc3ccccc3o2)c(-c2cccnc2)[nH]1

$$$$
