
     RDKit          3D

 40 43  0  0  0  0  0  0  0  0999 V2000
    6.6139    6.3279   21.2642 O   0  0  0  0  0  0  0  0  0  0  0  0
    7.4228    5.7262   21.9487 C   0  0  0  0  0  0  0  0  0  0  0  0
    8.2707    6.2907   22.9846 C   0  0  0  0  0  0  0  0  0  0  0  0
    9.2065    5.5307   23.6212 C   0  0  0  0  0  0  0  0  0  0  0  0
    9.4018    4.1638   23.2564 C   0  0  0  0  0  0  0  0  0  0  0  0
    8.6050    3.6033   22.2920 C   0  0  0  0  0  0  0  0  0  0  0  0
    8.6799    2.1978   21.7904 C   0  0  0  0  0  0  0  0  0  0  0  0
    7.6873    1.2895   22.5625 C   0  0  0  0  0  0  0  0  0  0  0  0
    7.7391   -0.1395   22.1635 C   0  0  0  0  0  0  0  0  0  0  0  0
    8.3317   -1.0842   22.8600 N   0  0  0  0  0  0  0  0  0  0  0  0
    8.3119   -2.1450   22.0161 C   0  0  0  0  0  0  0  0  0  0  0  0
    8.9512   -3.4177   22.3962 C   0  0  0  0  0  0  0  0  0  0  0  0
    8.2193   -4.7201   22.2530 C   0  0  0  0  0  0  0  0  0  0  0  0
    8.5614   -4.2005   23.6262 C   0  0  0  0  0  0  0  0  0  0  0  0
    7.7642   -3.8156   24.2644 H   0  0  0  0  0  0  0  0  0  0  0  0
    9.3965   -4.6625   24.1560 H   0  0  0  0  0  0  0  0  0  0  0  0
    8.7562   -5.5823   21.8658 H   0  0  0  0  0  0  0  0  0  0  0  0
    7.1816   -4.6271   21.9280 H   0  0  0  0  0  0  0  0  0  0  0  0
   10.0210   -3.3590   22.2257 H   0  0  0  0  0  0  0  0  0  0  0  0
    7.7719   -1.9130   20.8326 N   0  0  0  0  0  0  0  0  0  0  0  0
    7.3537   -0.6232   20.9466 N   0  0  0  0  0  0  0  0  0  0  0  0
    6.6317    0.0192   19.8969 C   0  0  0  0  0  0  0  0  0  0  0  0
    5.4182    0.6800   20.1311 C   0  0  0  0  0  0  0  0  0  0  0  0
    4.8061    1.3303   19.0546 C   0  0  0  0  0  0  0  0  0  0  0  0
    5.4225    1.3091   17.8014 C   0  0  0  0  0  0  0  0  0  0  0  0
    6.5690    0.6468   17.5644 N   0  0  0  0  0  0  0  0  0  0  0  0
    7.1445    0.0027   18.5869 C   0  0  0  0  0  0  0  0  0  0  0  0
    8.0663   -0.5353   18.3744 H   0  0  0  0  0  0  0  0  0  0  0  0
    4.9777    1.8342   16.9572 H   0  0  0  0  0  0  0  0  0  0  0  0
    3.8695    1.8566   19.1873 H   0  0  0  0  0  0  0  0  0  0  0  0
    4.9611    0.6684   21.1218 H   0  0  0  0  0  0  0  0  0  0  0  0
    6.6717    1.6700   22.4338 H   0  0  0  0  0  0  0  0  0  0  0  0
    7.9093    1.3104   23.6332 H   0  0  0  0  0  0  0  0  0  0  0  0
    8.4487    2.1837   20.7170 H   0  0  0  0  0  0  0  0  0  0  0  0
    9.7016    1.8187   21.9080 H   0  0  0  0  0  0  0  0  0  0  0  0
    7.5824    4.3599   21.7731 N   0  0  0  0  0  0  0  0  0  0  0  0
    6.9962    4.0417   21.0180 H   0  0  0  0  0  0  0  0  0  0  0  0
   10.1877    3.5859   23.7258 H   0  0  0  0  0  0  0  0  0  0  0  0
    9.8334    5.9666   24.3991 H   0  0  0  0  0  0  0  0  0  0  0  0
    8.1006    7.3386   23.1682 H   0  0  0  0  0  0  0  0  0  0  0  0
  1  2  2  0
  2  3  1  0
  3  4  2  0
  4  5  1  0
  5  6  2  0
  6  7  1  0
  7  8  1  0
  8  9  1  0
  9 10  2  0
 10 11  1  0
 11 12  1  0
 12 13  1  0
 13 14  1  0
 14 15  1  0
 14 16  1  0
 13 17  1  0
 13 18  1  0
 12 19  1  0
 11 20  2  0
 20 21  1  0
 21 22  1  0
 22 23  2  0
 23 24  1  0
 24 25  2  0
 25 26  1  0
 26 27  2  0
 27 28  1  0
 25 29  1  0
 24 30  1  0
 23 31  1  0
  8 32  1  0
  8 33  1  0
  7 34  1  0
  7 35  1  0
  6 36  1  0
 36 37  1  0
  5 38  1  0
  4 39  1  0
  3 40  1  0
 36  2  1  0
 21  9  1  0
 27 22  1  0
 14 12  1  0
M  END
>  <cnnaffinity>  (1) 
-5.8161

>  <filename>  (1) 
O=c1cccc(CCc2nc(C3CC3)nn2-c2cccnc2)[nH]1

$$$$
