
     RDKit          3D

 34 37  0  0  0  0  0  0  0  0999 V2000
    5.0990    2.0458   16.7685 H   0  0  0  0  0  0  0  0  0  0  0  0
    5.4172    1.4504   17.6229 C   0  0  0  0  0  0  0  0  0  0  0  0
    6.5440    0.7381   17.4574 N   0  0  0  0  0  0  0  0  0  0  0  0
    6.9792    0.0086   18.4947 C   0  0  0  0  0  0  0  0  0  0  0  0
    7.9041   -0.5480   18.3523 H   0  0  0  0  0  0  0  0  0  0  0  0
    6.3108   -0.0562   19.7332 C   0  0  0  0  0  0  0  0  0  0  0  0
    6.8327   -0.8133   20.8470 N   0  0  0  0  0  0  0  0  0  0  0  0
    7.4019   -0.1073   21.8902 C   0  0  0  0  0  0  0  0  0  0  0  0
    7.2757    0.9721   21.8567 H   0  0  0  0  0  0  0  0  0  0  0  0
    8.1060   -0.7196   22.8876 C   0  0  0  0  0  0  0  0  0  0  0  0
    8.7155    0.0669   23.9859 C   0  0  0  0  0  0  0  0  0  0  0  0
    7.9598    0.7242   24.9293 C   0  0  0  0  0  0  0  0  0  0  0  0
    6.8795    0.7873   24.9817 H   0  0  0  0  0  0  0  0  0  0  0  0
    8.9115    1.4539   26.2354 S   0  0  0  0  0  0  0  0  0  0  0  0
   10.5884    0.8653   25.6327 C   0  0  0  0  0  0  0  0  0  0  0  0
   10.7723    0.6774   25.4774 C   0  0  0  0  0  0  0  0  0  0  0  0
   11.3081    1.7418   25.6188 H   0  0  0  0  0  0  0  0  0  0  0  0
   12.6672    0.5686   24.8676 C   0  0  0  0  0  0  0  0  0  0  0  0
   13.6538    0.5928   25.3997 H   0  0  0  0  0  0  0  0  0  0  0  0
   12.4736    0.0915   23.6373 C   0  0  0  0  0  0  0  0  0  0  0  0
   13.3025   -0.1258   22.9670 H   0  0  0  0  0  0  0  0  0  0  0  0
   11.0771   -0.1411   23.2331 C   0  0  0  0  0  0  0  0  0  0  0  0
   10.7672   -0.5244   22.2638 H   0  0  0  0  0  0  0  0  0  0  0  0
   10.1784    0.1822   24.1935 C   0  0  0  0  0  0  0  0  0  0  0  0
    8.2167   -2.1497   22.8530 C   0  0  0  0  0  0  0  0  0  0  0  0
    8.8014   -2.6525   23.6256 H   0  0  0  0  0  0  0  0  0  0  0  0
    7.5855   -2.8744   21.8890 C   0  0  0  0  0  0  0  0  0  0  0  0
    7.6093   -3.9512   21.8341 H   0  0  0  0  0  0  0  0  0  0  0  0
    6.7796   -2.2529   20.8463 C   0  0  0  0  0  0  0  0  0  0  0  0
    6.1231   -2.8780   20.0336 O   0  0  0  0  0  0  0  0  0  0  0  0
    5.1408    0.6897   19.8906 C   0  0  0  0  0  0  0  0  0  0  0  0
    4.6285    0.6603   20.8528 H   0  0  0  0  0  0  0  0  0  0  0  0
    4.6773    1.4511   18.8107 C   0  0  0  0  0  0  0  0  0  0  0  0
    3.7828    2.0585   18.8893 H   0  0  0  0  0  0  0  0  0  0  0  0
  1  2  1  0
  2  3  2  0
  3  4  1  0
  4  5  1  0
  4  6  2  0
  6  7  1  0
  7  8  1  0
  8  9  1  0
  8 10  2  0
 10 11  1  0
 11 12  2  0
 12 13  1  0
 12 14  1  0
 14 15  1  0
 15 16  2  0
 16 17  1  0
 16 18  1  0
 18 19  1  0
 18 20  2  0
 20 21  1  0
 20 22  1  0
 22 23  1  0
 22 24  2  0
 10 25  1  0
 25 26  1  0
 25 27  2  0
 27 28  1  0
 27 29  1  0
 29 30  2  0
  6 31  1  0
 31 32  1  0
 31 33  2  0
 33 34  1  0
 33  2  1  0
 29  7  1  0
 24 11  1  0
 24 15  1  0
M  END
>  <cnnaffinity>  (1) 
-5.51734

>  <filename>  (1) 
O=c1ccc(-c2csc3ccccc23)cn1-c1cccnc1

$$$$
