
     RDKit          3D

 33 35  0  0  0  0  0  0  0  0999 V2000
    4.9410    1.8126   16.9491 H   0  0  0  0  0  0  0  0  0  0  0  0
    5.3840    1.3220   17.8111 C   0  0  0  0  0  0  0  0  0  0  0  0
    6.5480    0.6919   17.5904 N   0  0  0  0  0  0  0  0  0  0  0  0
    7.1299    0.0985   18.6339 C   0  0  0  0  0  0  0  0  0  0  0  0
    8.0611   -0.4396   18.4496 H   0  0  0  0  0  0  0  0  0  0  0  0
    6.6054    0.1360   19.9310 C   0  0  0  0  0  0  0  0  0  0  0  0
    7.3550   -0.5480   20.9954 C   0  0  0  0  0  0  0  0  0  0  0  0
    8.0241   -1.5997   20.6059 N   0  0  0  0  0  0  0  0  0  0  0  0
    8.5697   -2.3751   21.5744 C   0  0  0  0  0  0  0  0  0  0  0  0
    8.8298   -3.5533   21.4629 O   0  0  0  0  0  0  0  0  0  0  0  0
    8.8491   -1.7777   22.8067 N   0  0  0  0  0  0  0  0  0  0  0  0
    9.0958   -2.5043   23.4530 H   0  0  0  0  0  0  0  0  0  0  0  0
    8.0418   -0.7796   23.2473 C   0  0  0  0  0  0  0  0  0  0  0  0
    8.0602   -0.5053   24.5754 N   0  0  0  0  0  0  0  0  0  0  0  0
    9.2565   -0.7099   25.3983 C   0  0  0  0  0  0  0  0  0  0  0  0
   10.1551   -0.6153   24.7753 H   0  0  0  0  0  0  0  0  0  0  0  0
    9.2609   -1.7090   25.8610 H   0  0  0  0  0  0  0  0  0  0  0  0
    9.3048    0.3467   26.5023 C   0  0  0  0  0  0  0  0  0  0  0  0
   10.1059    0.1046   27.2012 H   0  0  0  0  0  0  0  0  0  0  0  0
    9.5227    1.3315   26.0613 H   0  0  0  0  0  0  0  0  0  0  0  0
    8.0997    0.3936   27.2526 O   0  0  0  0  0  0  0  0  0  0  0  0
    6.9795    0.6816   26.4278 C   0  0  0  0  0  0  0  0  0  0  0  0
    6.1055    0.7015   27.0826 H   0  0  0  0  0  0  0  0  0  0  0  0
    7.0831    1.6763   25.9685 H   0  0  0  0  0  0  0  0  0  0  0  0
    6.8054   -0.3685   25.3316 C   0  0  0  0  0  0  0  0  0  0  0  0
    5.9922   -0.0660   24.6602 H   0  0  0  0  0  0  0  0  0  0  0  0
    6.5145   -1.3302   25.7849 H   0  0  0  0  0  0  0  0  0  0  0  0
    7.2829   -0.0997   22.3298 C   0  0  0  0  0  0  0  0  0  0  0  0
    6.6965    0.7507   22.6319 H   0  0  0  0  0  0  0  0  0  0  0  0
    5.3693    0.7540   20.1431 C   0  0  0  0  0  0  0  0  0  0  0  0
    4.9077    0.7263   21.1321 H   0  0  0  0  0  0  0  0  0  0  0  0
    4.7486    1.3617   19.0572 C   0  0  0  0  0  0  0  0  0  0  0  0
    3.8031    1.8773   19.1693 H   0  0  0  0  0  0  0  0  0  0  0  0
  1  2  1  0
  2  3  2  0
  3  4  1  0
  4  5  1  0
  4  6  2  0
  6  7  1  0
  7  8  2  0
  8  9  1  0
  9 10  2  0
  9 11  1  0
 11 12  1  0
 11 13  1  0
 13 14  1  0
 14 15  1  0
 15 16  1  0
 15 17  1  0
 15 18  1  0
 18 19  1  0
 18 20  1  0
 18 21  1  0
 21 22  1  0
 22 23  1  0
 22 24  1  0
 22 25  1  0
 25 26  1  0
 25 27  1  0
 13 28  2  0
 28 29  1  0
  6 30  1  0
 30 31  1  0
 30 32  2  0
 32 33  1  0
 32  2  1  0
 28  7  1  0
 25 14  1  0
M  END
>  <cnnaffinity>  (1) 
-4.77471

>  <filename>  (1) 
O=c1nc(-c2cccnc2)cc(N2CCOCC2)[nH]1

$$$$
