
     RDKit          3D

 50 53  0  0  0  0  0  0  0  0999 V2000
    5.8159   -3.2784   19.2376 O   0  0  0  0  0  0  0  0  0  0  0  0
    5.8952   -3.8598   20.3033 C   0  0  0  0  0  0  0  0  0  0  0  0
    6.0001   -5.3751   20.3157 C   0  0  0  0  0  0  0  0  0  0  0  0
    5.6681   -6.0923   21.6259 C   0  0  0  0  0  0  0  0  0  0  0  0
    4.8509   -5.1922   22.5652 C   0  0  0  0  0  0  0  0  0  0  0  0
    4.5556   -5.8674   23.8921 C   0  0  0  0  0  0  0  0  0  0  0  0
    5.6786   -6.1145   24.6033 F   0  0  0  0  0  0  0  0  0  0  0  0
    3.7556   -5.1123   24.6688 F   0  0  0  0  0  0  0  0  0  0  0  0
    3.9410   -7.0541   23.7149 F   0  0  0  0  0  0  0  0  0  0  0  0
    5.5830   -3.8578   22.7832 C   0  0  0  0  0  0  0  0  0  0  0  0
    5.9020   -3.2024   21.5160 N   0  0  0  0  0  0  0  0  0  0  0  0
    6.2424   -1.7677   21.5441 C   0  0  0  0  0  0  0  0  0  0  0  0
    7.6825   -1.3221   21.3653 C   0  0  0  0  0  0  0  0  0  0  0  0
    8.6796   -1.5962   22.1914 N   0  0  0  0  0  0  0  0  0  0  0  0
    9.6960   -0.8103   21.7392 C   0  0  0  0  0  0  0  0  0  0  0  0
   10.9903   -0.6849   22.4953 C   0  0  0  0  0  0  0  0  0  0  0  0
   12.2579   -1.3955   21.9235 C   0  0  0  0  0  0  0  0  0  0  0  0
   13.4690   -0.5555   22.4255 C   0  0  0  0  0  0  0  0  0  0  0  0
   12.8651    0.5432   23.3163 C   0  0  0  0  0  0  0  0  0  0  0  0
   11.4784    0.7640   22.7183 C   0  0  0  0  0  0  0  0  0  0  0  0
   10.8092    1.3493   23.3619 H   0  0  0  0  0  0  0  0  0  0  0  0
   11.5445    1.2793   21.7463 H   0  0  0  0  0  0  0  0  0  0  0  0
   13.4684    1.4564   23.3669 H   0  0  0  0  0  0  0  0  0  0  0  0
   12.7680    0.1819   24.3519 H   0  0  0  0  0  0  0  0  0  0  0  0
   14.2229   -1.1533   22.9497 H   0  0  0  0  0  0  0  0  0  0  0  0
   13.9932   -0.0996   21.5794 H   0  0  0  0  0  0  0  0  0  0  0  0
   12.2351   -1.4254   20.8277 H   0  0  0  0  0  0  0  0  0  0  0  0
   12.3127   -2.4297   22.2810 H   0  0  0  0  0  0  0  0  0  0  0  0
   10.7691   -1.1341   23.4734 H   0  0  0  0  0  0  0  0  0  0  0  0
    9.3922   -0.0820   20.6786 N   0  0  0  0  0  0  0  0  0  0  0  0
    8.0845   -0.3723   20.4656 N   0  0  0  0  0  0  0  0  0  0  0  0
    7.3437    0.3536   19.4899 C   0  0  0  0  0  0  0  0  0  0  0  0
    6.1166    0.9720   19.7821 C   0  0  0  0  0  0  0  0  0  0  0  0
    5.4229    1.5957   18.7385 C   0  0  0  0  0  0  0  0  0  0  0  0
    5.9881    1.6061   17.4629 C   0  0  0  0  0  0  0  0  0  0  0  0
    7.1870    1.0651   17.1982 N   0  0  0  0  0  0  0  0  0  0  0  0
    7.8556    0.4683   18.1895 C   0  0  0  0  0  0  0  0  0  0  0  0
    8.8272    0.0433   17.9421 H   0  0  0  0  0  0  0  0  0  0  0  0
    5.4924    2.0992   16.6274 H   0  0  0  0  0  0  0  0  0  0  0  0
    4.4681    2.0785   18.9095 H   0  0  0  0  0  0  0  0  0  0  0  0
    5.7253    0.9888   20.7987 H   0  0  0  0  0  0  0  0  0  0  0  0
    5.6159   -1.2542   20.8143 H   0  0  0  0  0  0  0  0  0  0  0  0
    5.9803   -1.3772   22.5314 H   0  0  0  0  0  0  0  0  0  0  0  0
    4.9447   -3.1918   23.3831 H   0  0  0  0  0  0  0  0  0  0  0  0
    6.5047   -4.0189   23.3574 H   0  0  0  0  0  0  0  0  0  0  0  0
    3.8606   -5.0064   22.1304 H   0  0  0  0  0  0  0  0  0  0  0  0
    6.5921   -6.4009   22.1357 H   0  0  0  0  0  0  0  0  0  0  0  0
    5.1136   -7.0088   21.4036 H   0  0  0  0  0  0  0  0  0  0  0  0
    7.0250   -5.5968   20.0192 H   0  0  0  0  0  0  0  0  0  0  0  0
    5.3653   -5.6830   19.4819 H   0  0  0  0  0  0  0  0  0  0  0  0
  1  2  2  0
  2  3  1  0
  3  4  1  0
  4  5  1  0
  5  6  1  0
  6  7  1  0
  6  8  1  0
  6  9  1  0
  5 10  1  0
 10 11  1  0
 11 12  1  0
 12 13  1  0
 13 14  2  0
 14 15  1  0
 15 16  1  0
 16 17  1  0
 17 18  1  0
 18 19  1  0
 19 20  1  0
 20 21  1  0
 20 22  1  0
 19 23  1  0
 19 24  1  0
 18 25  1  0
 18 26  1  0
 17 27  1  0
 17 28  1  0
 16 29  1  0
 15 30  2  0
 30 31  1  0
 31 32  1  0
 32 33  2  0
 33 34  1  0
 34 35  2  0
 35 36  1  0
 36 37  2  0
 37 38  1  0
 35 39  1  0
 34 40  1  0
 33 41  1  0
 12 42  1  0
 12 43  1  0
 10 44  1  0
 10 45  1  0
  5 46  1  0
  4 47  1  0
  4 48  1  0
  3 49  1  0
  3 50  1  0
 11  2  1  0
 31 13  1  0
 37 32  1  0
 20 16  1  0
M  END
>  <cnnaffinity>  (1) 
-6.75852

>  <filename>  (1) 
O=C1CCC(C(F)(F)F)CN1Cc1nc(C2CCCC2)nn1-c1cccnc1

$$$$
