
     RDKit          3D

 46 49  0  0  0  0  0  0  0  0999 V2000
    4.0167    3.4470   23.0331 O   0  0  0  0  0  0  0  0  0  0  0  0
    5.1649    3.0699   22.9127 C   0  0  0  0  0  0  0  0  0  0  0  0
    6.2975    3.6770   22.1788 C   0  0  0  0  0  0  0  0  0  0  0  0
    7.6149    2.6658   22.1358 C   0  0  0  0  0  0  0  0  0  0  0  0
    7.7584    2.7307   22.1598 C   0  0  0  0  0  0  0  0  0  0  0  0
    9.1256    1.9978   21.6427 C   0  0  0  0  0  0  0  0  0  0  0  0
    9.5423    0.4194   21.1063 C   0  0  0  0  0  0  0  0  0  0  0  0
    8.5708   -0.6697   21.4783 C   0  0  0  0  0  0  0  0  0  0  0  0
    8.6460   -1.4171   22.5596 N   0  0  0  0  0  0  0  0  0  0  0  0
    7.5419   -2.2175   22.4785 C   0  0  0  0  0  0  0  0  0  0  0  0
    7.1448   -3.1161   23.6035 C   0  0  0  0  0  0  0  0  0  0  0  0
    6.6171   -2.3245   24.8168 C   0  0  0  0  0  0  0  0  0  0  0  0
    7.5718   -1.3022   25.4900 C   0  0  0  0  0  0  0  0  0  0  0  0
    7.1920   -1.8762   26.8730 C   0  0  0  0  0  0  0  0  0  0  0  0
    6.5087   -3.0737   26.1677 C   0  0  0  0  0  0  0  0  0  0  0  0
    7.1207   -3.9836   26.1924 H   0  0  0  0  0  0  0  0  0  0  0  0
    5.5016   -3.3410   26.5040 H   0  0  0  0  0  0  0  0  0  0  0  0
    8.0281   -2.1165   27.5371 H   0  0  0  0  0  0  0  0  0  0  0  0
    6.4917   -1.2387   27.4244 H   0  0  0  0  0  0  0  0  0  0  0  0
    8.6176   -1.4870   25.2313 H   0  0  0  0  0  0  0  0  0  0  0  0
    7.3743   -0.2344   25.3080 H   0  0  0  0  0  0  0  0  0  0  0  0
    5.6603   -1.8430   24.5606 H   0  0  0  0  0  0  0  0  0  0  0  0
    6.3896   -3.8211   23.2437 H   0  0  0  0  0  0  0  0  0  0  0  0
    8.0364   -3.6817   23.8944 H   0  0  0  0  0  0  0  0  0  0  0  0
    6.8033   -2.0268   21.4072 N   0  0  0  0  0  0  0  0  0  0  0  0
    7.4632   -1.0243   20.7522 N   0  0  0  0  0  0  0  0  0  0  0  0
    6.7862   -0.2440   19.7608 C   0  0  0  0  0  0  0  0  0  0  0  0
    6.0213    0.8545   20.1697 C   0  0  0  0  0  0  0  0  0  0  0  0
    5.4637    1.6587   19.1706 C   0  0  0  0  0  0  0  0  0  0  0  0
    5.6502    1.3084   17.8262 C   0  0  0  0  0  0  0  0  0  0  0  0
    6.3569    0.2353   17.4401 N   0  0  0  0  0  0  0  0  0  0  0  0
    6.9036   -0.5308   18.3930 C   0  0  0  0  0  0  0  0  0  0  0  0
    7.4761   -1.3948   18.0626 H   0  0  0  0  0  0  0  0  0  0  0  0
    5.2184    1.9145   17.0325 H   0  0  0  0  0  0  0  0  0  0  0  0
    4.8869    2.5462   19.4191 H   0  0  0  0  0  0  0  0  0  0  0  0
    5.8538    1.0434   21.2347 H   0  0  0  0  0  0  0  0  0  0  0  0
    9.6473    0.4111   20.0156 H   0  0  0  0  0  0  0  0  0  0  0  0
   10.5131    0.1787   21.5446 H   0  0  0  0  0  0  0  0  0  0  0  0
    9.8943    2.1910   22.4137 H   0  0  0  0  0  0  0  0  0  0  0  0
    9.5915    2.5993   20.8355 H   0  0  0  0  0  0  0  0  0  0  0  0
    7.0629    1.6722   23.5410 C   0  0  0  0  0  0  0  0  0  0  0  0
    5.6065    1.8752   23.5289 N   0  0  0  0  0  0  0  0  0  0  0  0
    5.0358    1.6446   24.3259 H   0  0  0  0  0  0  0  0  0  0  0  0
    7.2066    0.5887   23.2918 H   0  0  0  0  0  0  0  0  0  0  0  0
    8.3147    3.5613   22.9138 H   0  0  0  0  0  0  0  0  0  0  0  0
    6.0077    4.1630   21.2514 H   0  0  0  0  0  0  0  0  0  0  0  0
  1  2  2  0
  2  3  1  0
  3  4  2  0
  4  5  1  0
  5  6  1  0
  6  7  1  0
  7  8  1  0
  8  9  2  0
  9 10  1  0
 10 11  1  0
 11 12  1  0
 12 13  1  0
 13 14  1  0
 14 15  1  0
 15 16  1  0
 15 17  1  0
 14 18  1  0
 14 19  1  0
 13 20  1  0
 13 21  1  0
 12 22  1  0
 11 23  1  0
 11 24  1  0
 10 25  2  0
 25 26  1  0
 26 27  1  0
 27 28  2  0
 28 29  1  0
 29 30  2  0
 30 31  1  0
 31 32  2  0
 32 33  1  0
 30 34  1  0
 29 35  1  0
 28 36  1  0
  7 37  1  0
  7 38  1  0
  6 39  1  0
  6 40  1  0
  5 41  2  0
 41 42  1  0
 42 43  1  0
 41 44  1  0
  4 45  1  0
  3 46  1  0
 42  2  1  0
 26  8  1  0
 32 27  1  0
 15 12  1  0
M  END
>  <cnnaffinity>  (1) 
-6.00087

>  <filename>  (1) 
O=c1ccc(CCc2nc(CC3CCC3)nn2-c2cccnc2)c[nH]1

$$$$
