
     RDKit          3D

 31 33  0  0  0  0  0  0  0  0999 V2000
    5.1310    2.0657   16.8300 H   0  0  0  0  0  0  0  0  0  0  0  0
    5.4882    1.4478   17.6523 C   0  0  0  0  0  0  0  0  0  0  0  0
    6.6183    0.7541   17.4322 N   0  0  0  0  0  0  0  0  0  0  0  0
    7.0739   -0.0159   18.4286 C   0  0  0  0  0  0  0  0  0  0  0  0
    7.9776   -0.5973   18.2415 H   0  0  0  0  0  0  0  0  0  0  0  0
    6.4402   -0.1361   19.6804 C   0  0  0  0  0  0  0  0  0  0  0  0
    7.0367   -0.9159   20.7407 N   0  0  0  0  0  0  0  0  0  0  0  0
    8.2453   -0.4855   21.2621 C   0  0  0  0  0  0  0  0  0  0  0  0
    8.6812    0.3912   20.7904 H   0  0  0  0  0  0  0  0  0  0  0  0
    8.8373   -1.1066   22.3231 C   0  0  0  0  0  0  0  0  0  0  0  0
   10.1962   -0.7352   22.7706 C   0  0  0  0  0  0  0  0  0  0  0  0
   10.3803    0.0530   23.9089 C   0  0  0  0  0  0  0  0  0  0  0  0
    9.5014    0.3534   24.4719 H   0  0  0  0  0  0  0  0  0  0  0  0
   11.6626    0.4420   24.2937 C   0  0  0  0  0  0  0  0  0  0  0  0
   11.8118    1.0519   25.1798 H   0  0  0  0  0  0  0  0  0  0  0  0
   12.7673    0.0177   23.5415 C   0  0  0  0  0  0  0  0  0  0  0  0
   14.3428    0.4007   24.0976 Cl  0  0  0  0  0  0  0  0  0  0  0  0
   12.5938   -0.7902   22.4022 C   0  0  0  0  0  0  0  0  0  0  0  0
   13.9329   -1.3432   21.4475 Cl  0  0  0  0  0  0  0  0  0  0  0  0
   11.3062   -1.1798   22.0352 C   0  0  0  0  0  0  0  0  0  0  0  0
   11.1609   -1.8239   21.1778 H   0  0  0  0  0  0  0  0  0  0  0  0
    8.1567   -2.1798   22.9679 C   0  0  0  0  0  0  0  0  0  0  0  0
    8.6078   -2.6333   23.8490 H   0  0  0  0  0  0  0  0  0  0  0  0
    6.9855   -2.6442   22.4582 C   0  0  0  0  0  0  0  0  0  0  0  0
    6.4513   -3.4875   22.8608 H   0  0  0  0  0  0  0  0  0  0  0  0
    6.4005   -2.1093   21.2390 C   0  0  0  0  0  0  0  0  0  0  0  0
    5.4786   -2.6640   20.6670 O   0  0  0  0  0  0  0  0  0  0  0  0
    5.2454    0.5644   19.8859 C   0  0  0  0  0  0  0  0  0  0  0  0
    4.7124    0.4722   20.8316 H   0  0  0  0  0  0  0  0  0  0  0  0
    4.7727    1.3815   18.8522 C   0  0  0  0  0  0  0  0  0  0  0  0
    3.8702    1.9712   18.9672 H   0  0  0  0  0  0  0  0  0  0  0  0
  1  2  1  0
  2  3  2  0
  3  4  1  0
  4  5  1  0
  4  6  2  0
  6  7  1  0
  7  8  1  0
  8  9  1  0
  8 10  2  0
 10 11  1  0
 11 12  2  0
 12 13  1  0
 12 14  1  0
 14 15  1  0
 14 16  2  0
 16 17  1  0
 16 18  1  0
 18 19  1  0
 18 20  2  0
 20 21  1  0
 10 22  1  0
 22 23  1  0
 22 24  2  0
 24 25  1  0
 24 26  1  0
 26 27  2  0
  6 28  1  0
 28 29  1  0
 28 30  2  0
 30 31  1  0
 30  2  1  0
 26  7  1  0
 20 11  1  0
M  END
>  <cnnaffinity>  (1) 
-5.59378

>  <filename>  (1) 
O=c1ccc(-c2ccc(Cl)c(Cl)c2)cn1-c1cccnc1

$$$$
