
     RDKit          3D

 28 29  0  0  0  0  0  0  0  0999 V2000
    5.5796   -0.2202   26.3780 H   0  0  0  0  0  0  0  0  0  0  0  0
    5.4951   -0.3924   25.4046 O   0  0  0  0  0  0  0  0  0  0  0  0
    6.9037   -0.9519   25.5350 P   0  0  0  0  0  0  0  0  0  0  0  0
    7.0365   -2.4215   25.4498 O   0  0  0  0  0  0  0  0  0  0  0  0
    6.3663   -0.4962   26.9425 O   0  0  0  0  0  0  0  0  0  0  0  0
    5.6418   -1.1380   27.0038 H   0  0  0  0  0  0  0  0  0  0  0  0
    8.3715   -0.1952   24.6600 C   0  0  0  0  0  0  0  0  0  0  0  0
    9.5757   -0.6219   25.1569 F   0  0  0  0  0  0  0  0  0  0  0  0
    8.3985    1.1744   24.6959 F   0  0  0  0  0  0  0  0  0  0  0  0
    8.1104   -0.7301   23.2767 C   0  0  0  0  0  0  0  0  0  0  0  0
    7.4009   -0.0370   22.3336 C   0  0  0  0  0  0  0  0  0  0  0  0
    7.0618    0.9703   22.5269 H   0  0  0  0  0  0  0  0  0  0  0  0
    7.1280   -0.6337   21.0261 C   0  0  0  0  0  0  0  0  0  0  0  0
    6.4968    0.1286   19.9795 C   0  0  0  0  0  0  0  0  0  0  0  0
    7.0554    0.0258   18.7047 C   0  0  0  0  0  0  0  0  0  0  0  0
    7.9581   -0.5642   18.5689 H   0  0  0  0  0  0  0  0  0  0  0  0
    6.5386    0.6335   17.6302 N   0  0  0  0  0  0  0  0  0  0  0  0
    5.4369    1.3852   17.7988 C   0  0  0  0  0  0  0  0  0  0  0  0
    4.9967    1.8697   16.9337 H   0  0  0  0  0  0  0  0  0  0  0  0
    4.8310    1.5549   19.0480 C   0  0  0  0  0  0  0  0  0  0  0  0
    3.9478    2.1808   19.1226 H   0  0  0  0  0  0  0  0  0  0  0  0
    5.3607    0.9255   20.1722 C   0  0  0  0  0  0  0  0  0  0  0  0
    4.8870    1.0442   21.1476 H   0  0  0  0  0  0  0  0  0  0  0  0
    7.4918   -1.8497   20.7182 N   0  0  0  0  0  0  0  0  0  0  0  0
    8.1137   -2.5671   21.7045 C   0  0  0  0  0  0  0  0  0  0  0  0
    8.4401   -3.7233   21.5038 O   0  0  0  0  0  0  0  0  0  0  0  0
    8.4002   -2.0441   22.9402 N   0  0  0  0  0  0  0  0  0  0  0  0
    8.7949   -2.6933   23.6083 H   0  0  0  0  0  0  0  0  0  0  0  0
  1  2  1  0
  2  3  1  0
  3  4  2  0
  3  5  1  0
  5  6  1  0
  3  7  1  0
  7  8  1  0
  7  9  1  0
  7 10  1  0
 10 11  2  0
 11 12  1  0
 11 13  1  0
 13 14  1  0
 14 15  2  0
 15 16  1  0
 15 17  1  0
 17 18  2  0
 18 19  1  0
 18 20  1  0
 20 21  1  0
 20 22  2  0
 22 23  1  0
 13 24  2  0
 24 25  1  0
 25 26  2  0
 25 27  1  0
 27 28  1  0
 27 10  1  0
 22 14  1  0
M  END
>  <cnnaffinity>  (1) 
-4.95608

>  <filename>  (1) 
O=c1nc(-c2cccnc2)cc(C(F)(F)P(=O)(O)O)[nH]1

$$$$
