
     RDKit          3D

 33 36  0  0  0  0  0  0  0  0999 V2000
    4.9155    1.8406   16.9073 H   0  0  0  0  0  0  0  0  0  0  0  0
    5.3700    1.3581   17.7694 C   0  0  0  0  0  0  0  0  0  0  0  0
    6.5363    0.7331   17.5492 N   0  0  0  0  0  0  0  0  0  0  0  0
    7.1107    0.1380   18.5955 C   0  0  0  0  0  0  0  0  0  0  0  0
    8.0369   -0.3974   18.4019 H   0  0  0  0  0  0  0  0  0  0  0  0
    6.5878    0.1594   19.8942 C   0  0  0  0  0  0  0  0  0  0  0  0
    7.3385   -0.5639   20.9407 C   0  0  0  0  0  0  0  0  0  0  0  0
    7.9636   -1.6334   20.5359 N   0  0  0  0  0  0  0  0  0  0  0  0
    8.4734   -2.4514   21.4967 C   0  0  0  0  0  0  0  0  0  0  0  0
    8.7201   -3.6279   21.3567 O   0  0  0  0  0  0  0  0  0  0  0  0
    8.7353   -1.9013   22.7570 N   0  0  0  0  0  0  0  0  0  0  0  0
    9.0807   -2.6339   23.3480 H   0  0  0  0  0  0  0  0  0  0  0  0
    8.0398   -0.8264   23.2304 C   0  0  0  0  0  0  0  0  0  0  0  0
    8.1128   -0.5265   24.6693 C   0  0  0  0  0  0  0  0  0  0  0  0
    7.4059    0.5762   25.0930 O   0  0  0  0  0  0  0  0  0  0  0  0
    7.6355    0.7088   26.4207 C   0  0  0  0  0  0  0  0  0  0  0  0
    7.1007    1.6968   27.2470 C   0  0  0  0  0  0  0  0  0  0  0  0
    6.4475    2.4632   26.8410 H   0  0  0  0  0  0  0  0  0  0  0  0
    7.4594    1.6367   28.5931 C   0  0  0  0  0  0  0  0  0  0  0  0
    7.0628    2.3718   29.2820 H   0  0  0  0  0  0  0  0  0  0  0  0
    8.3350    0.6447   29.0825 C   0  0  0  0  0  0  0  0  0  0  0  0
    8.6010    0.6243   30.1353 H   0  0  0  0  0  0  0  0  0  0  0  0
    8.8812   -0.3084   28.2268 C   0  0  0  0  0  0  0  0  0  0  0  0
    9.5842   -1.0435   28.6036 H   0  0  0  0  0  0  0  0  0  0  0  0
    8.4993   -0.3024   26.8731 C   0  0  0  0  0  0  0  0  0  0  0  0
    8.7693   -1.1097   25.7109 C   0  0  0  0  0  0  0  0  0  0  0  0
    9.3646   -2.0096   25.6731 H   0  0  0  0  0  0  0  0  0  0  0  0
    7.3301   -0.1137   22.2941 C   0  0  0  0  0  0  0  0  0  0  0  0
    6.7795    0.7674   22.5736 H   0  0  0  0  0  0  0  0  0  0  0  0
    5.3505    0.7793   20.1056 C   0  0  0  0  0  0  0  0  0  0  0  0
    4.8721    0.7518   21.0888 H   0  0  0  0  0  0  0  0  0  0  0  0
    4.7342    1.3905   19.0157 C   0  0  0  0  0  0  0  0  0  0  0  0
    3.7804    1.8943   19.1199 H   0  0  0  0  0  0  0  0  0  0  0  0
  1  2  1  0
  2  3  2  0
  3  4  1  0
  4  5  1  0
  4  6  2  0
  6  7  1  0
  7  8  2  0
  8  9  1  0
  9 10  2  0
  9 11  1  0
 11 12  1  0
 11 13  1  0
 13 14  1  0
 14 15  1  0
 15 16  1  0
 16 17  2  0
 17 18  1  0
 17 19  1  0
 19 20  1  0
 19 21  2  0
 21 22  1  0
 21 23  1  0
 23 24  1  0
 23 25  2  0
 25 26  1  0
 26 27  1  0
 13 28  2  0
 28 29  1  0
  6 30  1  0
 30 31  1  0
 30 32  2  0
 32 33  1  0
 32  2  1  0
 28  7  1  0
 26 14  2  0
 25 16  1  0
M  END
>  <cnnaffinity>  (1) 
-5.25115

>  <filename>  (1) 
O=c1nc(-c2cccnc2)cc(-c2cc3ccccc3o2)[nH]1

$$$$
