
     RDKit          3D

 30 32  0  0  0  0  0  0  0  0999 V2000
    9.8820   -1.7578   22.8981 O   0  0  0  0  0  0  0  0  0  0  0  0
    8.8563   -1.5077   22.3213 C   0  0  0  0  0  0  0  0  0  0  0  0
    7.6437   -2.0795   22.5611 O   0  0  0  0  0  0  0  0  0  0  0  0
    6.6759   -1.5674   21.6934 N   0  0  0  0  0  0  0  0  0  0  0  0
    7.3052   -0.7195   20.9514 C   0  0  0  0  0  0  0  0  0  0  0  0
    6.6407    0.0269   19.8946 C   0  0  0  0  0  0  0  0  0  0  0  0
    5.4226    0.6612   20.1566 C   0  0  0  0  0  0  0  0  0  0  0  0
    4.8036    1.3221   19.1026 C   0  0  0  0  0  0  0  0  0  0  0  0
    5.4072    1.2943   17.8380 C   0  0  0  0  0  0  0  0  0  0  0  0
    6.5682    0.6717   17.5741 N   0  0  0  0  0  0  0  0  0  0  0  0
    7.1696    0.0626   18.6004 C   0  0  0  0  0  0  0  0  0  0  0  0
    8.1153   -0.4343   18.3797 H   0  0  0  0  0  0  0  0  0  0  0  0
    4.9192    1.7772   16.9976 H   0  0  0  0  0  0  0  0  0  0  0  0
    3.8691    1.8492   19.2574 H   0  0  0  0  0  0  0  0  0  0  0  0
    4.9982    0.6216   21.1654 H   0  0  0  0  0  0  0  0  0  0  0  0
    8.6331   -0.6278   21.2694 N   0  0  0  0  0  0  0  0  0  0  0  0
    9.6630    0.2714   20.7607 C   0  0  0  0  0  0  0  0  0  0  0  0
   10.2991    1.1305   21.8351 C   0  0  0  0  0  0  0  0  0  0  0  0
   11.5893    0.8327   22.2967 C   0  0  0  0  0  0  0  0  0  0  0  0
   12.1559    1.5686   23.3333 C   0  0  0  0  0  0  0  0  0  0  0  0
   13.7371    1.1426   23.8976 Cl  0  0  0  0  0  0  0  0  0  0  0  0
   11.4685    2.6322   23.9148 C   0  0  0  0  0  0  0  0  0  0  0  0
   10.1911    2.9515   23.4576 C   0  0  0  0  0  0  0  0  0  0  0  0
    9.6157    2.2038   22.4266 C   0  0  0  0  0  0  0  0  0  0  0  0
    8.0239    2.6514   21.8937 Cl  0  0  0  0  0  0  0  0  0  0  0  0
    9.6409    3.7790   23.8922 H   0  0  0  0  0  0  0  0  0  0  0  0
   11.9259    3.2056   24.7092 H   0  0  0  0  0  0  0  0  0  0  0  0
   12.1407   -0.0081   21.8871 H   0  0  0  0  0  0  0  0  0  0  0  0
    9.2408    0.9337   20.0006 H   0  0  0  0  0  0  0  0  0  0  0  0
   10.4253   -0.3579   20.3006 H   0  0  0  0  0  0  0  0  0  0  0  0
  1  2  2  0
  2  3  1  0
  3  4  1  0
  4  5  2  0
  5  6  1  0
  6  7  2  0
  7  8  1  0
  8  9  2  0
  9 10  1  0
 10 11  2  0
 11 12  1  0
  9 13  1  0
  8 14  1  0
  7 15  1  0
  5 16  1  0
 16 17  1  0
 17 18  1  0
 18 19  2  0
 19 20  1  0
 20 21  1  0
 20 22  2  0
 22 23  1  0
 23 24  2  0
 24 25  1  0
 23 26  1  0
 22 27  1  0
 19 28  1  0
 17 29  1  0
 17 30  1  0
 16  2  1  0
 24 18  1  0
 11  6  1  0
M  END
>  <cnnaffinity>  (1) 
-5.48782

>  <filename>  (1) 
O=c1onc(-c2cccnc2)n1Cc1cc(Cl)ccc1Cl

$$$$
