
     RDKit          3D

 35 38  0  0  0  0  0  0  0  0999 V2000
    5.0175    1.8218   16.9952 H   0  0  0  0  0  0  0  0  0  0  0  0
    5.4399    1.3260   17.8666 C   0  0  0  0  0  0  0  0  0  0  0  0
    6.6132    0.6991   17.6730 N   0  0  0  0  0  0  0  0  0  0  0  0
    7.1609    0.0677   18.7193 C   0  0  0  0  0  0  0  0  0  0  0  0
    8.1204   -0.4240   18.5646 H   0  0  0  0  0  0  0  0  0  0  0  0
    6.5619    0.0180   19.9953 C   0  0  0  0  0  0  0  0  0  0  0  0
    7.1513   -0.6949   21.0911 N   0  0  0  0  0  0  0  0  0  0  0  0
    7.8282   -0.1283   22.1871 C   0  0  0  0  0  0  0  0  0  0  0  0
    7.7807    1.3241   22.5741 C   0  0  0  0  0  0  0  0  0  0  0  0
    8.7719    1.7673   22.4477 H   0  0  0  0  0  0  0  0  0  0  0  0
    7.0666    1.8766   21.9595 H   0  0  0  0  0  0  0  0  0  0  0  0
    7.3937    1.4888   23.9695 N   0  0  0  0  0  0  0  0  0  0  0  0
    8.2953    1.1909   24.9955 C   0  0  0  0  0  0  0  0  0  0  0  0
    9.4938    1.1611   24.8435 O   0  0  0  0  0  0  0  0  0  0  0  0
    7.4816    0.9018   26.2092 C   0  0  0  0  0  0  0  0  0  0  0  0
    7.8602    0.6454   27.5297 C   0  0  0  0  0  0  0  0  0  0  0  0
    8.9000    0.5439   27.8160 H   0  0  0  0  0  0  0  0  0  0  0  0
    6.8525    0.5240   28.4933 C   0  0  0  0  0  0  0  0  0  0  0  0
    7.1189    0.3504   29.5374 H   0  0  0  0  0  0  0  0  0  0  0  0
    5.4970    0.6445   28.1277 C   0  0  0  0  0  0  0  0  0  0  0  0
    4.7336    0.6005   28.9026 H   0  0  0  0  0  0  0  0  0  0  0  0
    5.1253    0.8509   26.7931 C   0  0  0  0  0  0  0  0  0  0  0  0
    4.0796    0.9437   26.5160 H   0  0  0  0  0  0  0  0  0  0  0  0
    6.1389    0.9714   25.8421 C   0  0  0  0  0  0  0  0  0  0  0  0
    6.0791    1.2585   24.3804 C   0  0  0  0  0  0  0  0  0  0  0  0
    5.1203    1.3085   23.6445 O   0  0  0  0  0  0  0  0  0  0  0  0
    8.3991   -1.1593   22.8296 C   0  0  0  0  0  0  0  0  0  0  0  0
    9.1025   -1.1994   23.6535 H   0  0  0  0  0  0  0  0  0  0  0  0
    8.0165   -2.3467   22.2563 O   0  0  0  0  0  0  0  0  0  0  0  0
    7.1697   -2.0896   21.2062 C   0  0  0  0  0  0  0  0  0  0  0  0
    6.5755   -2.9213   20.5742 O   0  0  0  0  0  0  0  0  0  0  0  0
    5.3512    0.6884   20.1872 C   0  0  0  0  0  0  0  0  0  0  0  0
    4.9064    0.6886   21.1846 H   0  0  0  0  0  0  0  0  0  0  0  0
    4.7706    1.3497   19.0958 C   0  0  0  0  0  0  0  0  0  0  0  0
    3.8237    1.8753   19.1850 H   0  0  0  0  0  0  0  0  0  0  0  0
  1  2  1  0
  2  3  2  0
  3  4  1  0
  4  5  1  0
  4  6  2  0
  6  7  1  0
  7  8  1  0
  8  9  1  0
  9 10  1  0
  9 11  1  0
  9 12  1  0
 12 13  1  0
 13 14  2  0
 13 15  1  0
 15 16  2  0
 16 17  1  0
 16 18  1  0
 18 19  1  0
 18 20  2  0
 20 21  1  0
 20 22  1  0
 22 23  1  0
 22 24  2  0
 24 25  1  0
 25 26  2  0
  8 27  2  0
 27 28  1  0
 27 29  1  0
 29 30  1  0
 30 31  2  0
  6 32  1  0
 32 33  1  0
 32 34  2  0
 34 35  1  0
 34  2  1  0
 30  7  1  0
 25 12  1  0
 24 15  1  0
M  END
>  <cnnaffinity>  (1) 
-4.99215

>  <filename>  (1) 
O=C1c2ccccc2C(=O)N1Cc1coc(=O)n1-c1cccnc1

$$$$
