
     RDKit          3D

 34 36  0  0  0  0  0  0  0  0999 V2000
    5.0392    1.7469   16.8635 H   0  0  0  0  0  0  0  0  0  0  0  0
    5.4899    1.2775   17.7345 C   0  0  0  0  0  0  0  0  0  0  0  0
    6.6597    0.6493   17.5340 N   0  0  0  0  0  0  0  0  0  0  0  0
    7.2407    0.0860   18.5979 C   0  0  0  0  0  0  0  0  0  0  0  0
    8.1934   -0.4086   18.4067 H   0  0  0  0  0  0  0  0  0  0  0  0
    6.6926    0.1034   19.8903 C   0  0  0  0  0  0  0  0  0  0  0  0
    7.3560   -0.5507   21.0111 C   0  0  0  0  0  0  0  0  0  0  0  0
    6.7499   -0.7493   22.1408 N   0  0  0  0  0  0  0  0  0  0  0  0
    7.6155   -1.4451   22.9573 N   0  0  0  0  0  0  0  0  0  0  0  0
    7.0937   -1.9858   24.2014 C   0  0  0  0  0  0  0  0  0  0  0  0
    6.3019   -1.2883   24.4997 H   0  0  0  0  0  0  0  0  0  0  0  0
    6.6081   -2.9627   24.0489 H   0  0  0  0  0  0  0  0  0  0  0  0
    8.1162   -2.0280   25.2105 N   0  0  0  0  0  0  0  0  0  0  0  0
    8.8640   -1.4259   24.9017 H   0  0  0  0  0  0  0  0  0  0  0  0
    8.6682   -3.2531   25.6390 C   0  0  0  0  0  0  0  0  0  0  0  0
    9.1339   -3.3464   26.9533 C   0  0  0  0  0  0  0  0  0  0  0  0
    8.9252   -2.4822   27.5789 H   0  0  0  0  0  0  0  0  0  0  0  0
    9.8543   -4.4781   27.3639 C   0  0  0  0  0  0  0  0  0  0  0  0
   10.2447   -4.5526   28.3770 H   0  0  0  0  0  0  0  0  0  0  0  0
   10.1248   -5.4968   26.4430 C   0  0  0  0  0  0  0  0  0  0  0  0
   10.7590   -6.3360   26.7094 H   0  0  0  0  0  0  0  0  0  0  0  0
    9.6129   -5.4252   25.1459 C   0  0  0  0  0  0  0  0  0  0  0  0
    9.8329   -6.2166   24.4359 H   0  0  0  0  0  0  0  0  0  0  0  0
    8.8722   -4.3109   24.7486 C   0  0  0  0  0  0  0  0  0  0  0  0
    8.5103   -4.2157   23.7349 H   0  0  0  0  0  0  0  0  0  0  0  0
    8.8182   -1.7355   22.3597 C   0  0  0  0  0  0  0  0  0  0  0  0
    9.7593   -2.3375   22.8345 O   0  0  0  0  0  0  0  0  0  0  0  0
    8.7332   -1.1255   20.9854 C   0  0  0  0  0  0  0  0  0  0  0  0
    9.5311   -0.3849   20.8592 H   0  0  0  0  0  0  0  0  0  0  0  0
    8.8765   -1.9010   20.2269 H   0  0  0  0  0  0  0  0  0  0  0  0
    5.4581    0.7469   20.0783 C   0  0  0  0  0  0  0  0  0  0  0  0
    5.0066    0.7603   21.0721 H   0  0  0  0  0  0  0  0  0  0  0  0
    4.8547    1.3479   18.9802 C   0  0  0  0  0  0  0  0  0  0  0  0
    3.9158    1.8816   19.0813 H   0  0  0  0  0  0  0  0  0  0  0  0
  1  2  1  0
  2  3  2  0
  3  4  1  0
  4  5  1  0
  4  6  2  0
  6  7  1  0
  7  8  2  0
  8  9  1  0
  9 10  1  0
 10 11  1  0
 10 12  1  0
 10 13  1  0
 13 14  1  0
 13 15  1  0
 15 16  2  0
 16 17  1  0
 16 18  1  0
 18 19  1  0
 18 20  2  0
 20 21  1  0
 20 22  1  0
 22 23  1  0
 22 24  2  0
 24 25  1  0
  9 26  1  0
 26 27  2  0
 26 28  1  0
 28 29  1  0
 28 30  1  0
  6 31  1  0
 31 32  1  0
 31 33  2  0
 33 34  1  0
 33  2  1  0
 28  7  1  0
 24 15  1  0
M  END
>  <cnnaffinity>  (1) 
-4.77752

>  <filename>  (1) 
O=C1CC(c2cccnc2)=NN1CNc1ccccc1

$$$$
