
     RDKit          3D

 40 42  0  0  0  0  0  0  0  0999 V2000
   11.9397    3.6115   23.4044 H   0  0  0  0  0  0  0  0  0  0  0  0
   12.6602    3.4249   22.7889 O   0  0  0  0  0  0  0  0  0  0  0  0
   13.4165    2.3550   23.3264 C   0  0  0  0  0  0  0  0  0  0  0  0
   13.9496    2.6453   24.2249 H   0  0  0  0  0  0  0  0  0  0  0  0
   14.2027    2.1646   22.5910 H   0  0  0  0  0  0  0  0  0  0  0  0
   12.6273    1.0446   23.5588 C   0  0  0  0  0  0  0  0  0  0  0  0
   13.2771    0.3900   24.1656 H   0  0  0  0  0  0  0  0  0  0  0  0
   11.2969    1.2069   24.3376 C   0  0  0  0  0  0  0  0  0  0  0  0
   10.7325    2.0693   23.9622 H   0  0  0  0  0  0  0  0  0  0  0  0
   11.4828    1.3936   25.4008 H   0  0  0  0  0  0  0  0  0  0  0  0
   10.3800   -0.0170   24.1863 C   0  0  0  0  0  0  0  0  0  0  0  0
    9.4313    0.1339   24.7111 H   0  0  0  0  0  0  0  0  0  0  0  0
   10.8576   -0.8989   24.6572 H   0  0  0  0  0  0  0  0  0  0  0  0
   10.1394   -0.2289   22.7586 N   0  0  0  0  0  0  0  0  0  0  0  0
    8.9414   -0.8603   22.3277 C   0  0  0  0  0  0  0  0  0  0  0  0
    8.3867   -2.0090   22.9785 C   0  0  0  0  0  0  0  0  0  0  0  0
    8.9147   -2.4133   23.8433 H   0  0  0  0  0  0  0  0  0  0  0  0
    7.2385   -2.5764   22.5099 C   0  0  0  0  0  0  0  0  0  0  0  0
    6.7754   -3.4444   22.9554 H   0  0  0  0  0  0  0  0  0  0  0  0
    6.5138   -2.0726   21.3472 C   0  0  0  0  0  0  0  0  0  0  0  0
    5.5025   -2.5974   20.9234 O   0  0  0  0  0  0  0  0  0  0  0  0
    7.1381   -0.9292   20.7207 N   0  0  0  0  0  0  0  0  0  0  0  0
    6.4822   -0.1982   19.6607 C   0  0  0  0  0  0  0  0  0  0  0  0
    7.0917   -0.0478   18.3989 C   0  0  0  0  0  0  0  0  0  0  0  0
    8.0044   -0.6027   18.1802 H   0  0  0  0  0  0  0  0  0  0  0  0
    6.6038    0.7326   17.4258 N   0  0  0  0  0  0  0  0  0  0  0  0
    5.4750    1.4149   17.6847 C   0  0  0  0  0  0  0  0  0  0  0  0
    5.1102    2.0585   16.8857 H   0  0  0  0  0  0  0  0  0  0  0  0
    4.7754    1.3095   18.8922 C   0  0  0  0  0  0  0  0  0  0  0  0
    3.8751    1.8978   19.0382 H   0  0  0  0  0  0  0  0  0  0  0  0
    5.2721    0.4663   19.8940 C   0  0  0  0  0  0  0  0  0  0  0  0
    4.7535    0.3335   20.8427 H   0  0  0  0  0  0  0  0  0  0  0  0
    8.3263   -0.3976   21.1998 C   0  0  0  0  0  0  0  0  0  0  0  0
    8.7655    0.4173   20.6334 H   0  0  0  0  0  0  0  0  0  0  0  0
   11.3673   -0.7189   22.1269 C   0  0  0  0  0  0  0  0  0  0  0  0
   11.1558   -0.9966   21.0865 H   0  0  0  0  0  0  0  0  0  0  0  0
   11.7272   -1.6330   22.6404 H   0  0  0  0  0  0  0  0  0  0  0  0
   12.4296    0.3756   22.1776 C   0  0  0  0  0  0  0  0  0  0  0  0
   13.3935   -0.0431   21.8660 H   0  0  0  0  0  0  0  0  0  0  0  0
   12.1638    1.1607   21.4574 H   0  0  0  0  0  0  0  0  0  0  0  0
  1  2  1  0
  2  3  1  0
  3  4  1  0
  3  5  1  0
  3  6  1  0
  6  7  1  0
  6  8  1  0
  8  9  1  0
  8 10  1  0
  8 11  1  0
 11 12  1  0
 11 13  1  0
 11 14  1  0
 14 15  1  0
 15 16  1  0
 16 17  1  0
 16 18  2  0
 18 19  1  0
 18 20  1  0
 20 21  2  0
 20 22  1  0
 22 23  1  0
 23 24  2  0
 24 25  1  0
 24 26  1  0
 26 27  2  0
 27 28  1  0
 27 29  1  0
 29 30  1  0
 29 31  2  0
 31 32  1  0
 22 33  1  0
 33 34  1  0
 14 35  1  0
 35 36  1  0
 35 37  1  0
 35 38  1  0
 38 39  1  0
 38 40  1  0
 38  6  1  0
 33 15  2  0
 31 23  1  0
M  END
>  <cnnaffinity>  (1) 
-5.40191

>  <filename>  (1) 
O=c1ccc(N2CCC(CO)CC2)cn1-c1cccnc1

$$$$
