
     RDKit          3D

 28 30  0  0  0  0  0  0  0  0999 V2000
    4.9069    1.7762   17.0016 H   0  0  0  0  0  0  0  0  0  0  0  0
    5.3978    1.2940   17.8426 C   0  0  0  0  0  0  0  0  0  0  0  0
    6.5630    0.6785   17.5787 N   0  0  0  0  0  0  0  0  0  0  0  0
    7.1799    0.0590   18.5921 C   0  0  0  0  0  0  0  0  0  0  0  0
    8.1290   -0.4307   18.3834 H   0  0  0  0  0  0  0  0  0  0  0  0
    6.6670    0.0017   19.9084 C   0  0  0  0  0  0  0  0  0  0  0  0
    7.3592   -0.6866   20.9494 N   0  0  0  0  0  0  0  0  0  0  0  0
    6.7685   -1.4501   21.9508 C   0  0  0  0  0  0  0  0  0  0  0  0
    5.7014   -1.5992   21.9860 H   0  0  0  0  0  0  0  0  0  0  0  0
    7.7382   -1.9403   22.7527 C   0  0  0  0  0  0  0  0  0  0  0  0
    7.6040   -2.7847   23.9326 C   0  0  0  0  0  0  0  0  0  0  0  0
    8.6724   -3.5263   24.4667 C   0  0  0  0  0  0  0  0  0  0  0  0
    9.6556   -3.4927   23.9985 H   0  0  0  0  0  0  0  0  0  0  0  0
    8.5424   -4.3157   25.5408 N   0  0  0  0  0  0  0  0  0  0  0  0
    7.3416   -4.3990   26.1361 C   0  0  0  0  0  0  0  0  0  0  0  0
    7.2406   -5.0384   27.0098 H   0  0  0  0  0  0  0  0  0  0  0  0
    6.2274   -3.6954   25.6665 C   0  0  0  0  0  0  0  0  0  0  0  0
    5.0445   -3.8057   26.2867 F   0  0  0  0  0  0  0  0  0  0  0  0
    6.3452   -2.8813   24.5558 C   0  0  0  0  0  0  0  0  0  0  0  0
    5.4855   -2.3235   24.1998 H   0  0  0  0  0  0  0  0  0  0  0  0
    8.9448   -1.4829   22.2374 N   0  0  0  0  0  0  0  0  0  0  0  0
    9.8724   -1.6071   22.5942 H   0  0  0  0  0  0  0  0  0  0  0  0
    8.7520   -0.6829   21.1383 C   0  0  0  0  0  0  0  0  0  0  0  0
    9.5941   -0.1094   20.4768 O   0  0  0  0  0  0  0  0  0  0  0  0
    5.4472    0.6448   20.1626 C   0  0  0  0  0  0  0  0  0  0  0  0
    5.0141    0.6302   21.1624 H   0  0  0  0  0  0  0  0  0  0  0  0
    4.8082    1.3111   19.1112 C   0  0  0  0  0  0  0  0  0  0  0  0
    3.8730    1.8439   19.2680 H   0  0  0  0  0  0  0  0  0  0  0  0
  1  2  1  0
  2  3  2  0
  3  4  1  0
  4  5  1  0
  4  6  2  0
  6  7  1  0
  7  8  1  0
  8  9  1  0
  8 10  2  0
 10 11  1  0
 11 12  2  0
 12 13  1  0
 12 14  1  0
 14 15  2  0
 15 16  1  0
 15 17  1  0
 17 18  1  0
 17 19  2  0
 19 20  1  0
 10 21  1  0
 21 22  1  0
 21 23  1  0
 23 24  2  0
  6 25  1  0
 25 26  1  0
 25 27  2  0
 27 28  1  0
 27  2  1  0
 23  7  1  0
 19 11  1  0
M  END
>  <cnnaffinity>  (1) 
-5.46022

>  <filename>  (1) 
O=c1[nH]c(-c2cncc(F)c2)cn1-c1cccnc1

$$$$
