
     RDKit          3D

 35 37  0  0  0  0  0  0  0  0999 V2000
    9.3987    0.4916   20.6238 O   0  0  0  0  0  0  0  0  0  0  0  0
    8.7524   -0.3735   21.1849 C   0  0  0  0  0  0  0  0  0  0  0  0
    9.4452   -1.2954   22.2320 C   0  0  0  0  0  0  0  0  0  0  0  0
    8.5859   -2.1619   23.0868 N   0  0  0  0  0  0  0  0  0  0  0  0
    9.0571   -2.9619   24.0723 C   0  0  0  0  0  0  0  0  0  0  0  0
   10.3850   -3.3769   23.9899 N   0  0  0  0  0  0  0  0  0  0  0  0
   10.8670   -4.1819   24.9824 C   0  0  0  0  0  0  0  0  0  0  0  0
   10.1051   -4.4784   26.0892 C   0  0  0  0  0  0  0  0  0  0  0  0
   10.7612   -5.1790   27.5380 Cl  0  0  0  0  0  0  0  0  0  0  0  0
    8.7246   -4.1713   25.9982 C   0  0  0  0  0  0  0  0  0  0  0  0
    7.6630   -4.7430   26.9948 C   0  0  0  0  0  0  0  0  0  0  0  0
    6.4169   -4.3366   26.7077 F   0  0  0  0  0  0  0  0  0  0  0  0
    7.6582   -6.0908   26.9897 F   0  0  0  0  0  0  0  0  0  0  0  0
    7.9082   -4.3666   28.2558 F   0  0  0  0  0  0  0  0  0  0  0  0
    8.2673   -3.3793   25.0183 N   0  0  0  0  0  0  0  0  0  0  0  0
   11.0250   -3.1559   23.2044 H   0  0  0  0  0  0  0  0  0  0  0  0
    7.1339   -1.9016   23.0175 C   0  0  0  0  0  0  0  0  0  0  0  0
    6.7405   -1.7872   21.5482 C   0  0  0  0  0  0  0  0  0  0  0  0
    7.4147   -0.6426   20.9123 N   0  0  0  0  0  0  0  0  0  0  0  0
    6.7217    0.0367   19.8615 C   0  0  0  0  0  0  0  0  0  0  0  0
    5.4958    0.6569   20.1307 C   0  0  0  0  0  0  0  0  0  0  0  0
    4.8324    1.3128   19.0901 C   0  0  0  0  0  0  0  0  0  0  0  0
    5.4051    1.2934   17.8123 C   0  0  0  0  0  0  0  0  0  0  0  0
    6.5617    0.6714   17.5301 N   0  0  0  0  0  0  0  0  0  0  0  0
    7.2060    0.0703   18.5364 C   0  0  0  0  0  0  0  0  0  0  0  0
    8.1478   -0.4211   18.2988 H   0  0  0  0  0  0  0  0  0  0  0  0
    4.9166    1.7881   16.9778 H   0  0  0  0  0  0  0  0  0  0  0  0
    3.8922    1.8280   19.2530 H   0  0  0  0  0  0  0  0  0  0  0  0
    5.1010    0.6305   21.1479 H   0  0  0  0  0  0  0  0  0  0  0  0
    5.6558   -1.6764   21.4560 H   0  0  0  0  0  0  0  0  0  0  0  0
    7.0103   -2.7247   21.0413 H   0  0  0  0  0  0  0  0  0  0  0  0
    6.8764   -0.9766   23.5537 H   0  0  0  0  0  0  0  0  0  0  0  0
    6.5748   -2.7170   23.4859 H   0  0  0  0  0  0  0  0  0  0  0  0
   10.0582   -0.6066   22.8248 H   0  0  0  0  0  0  0  0  0  0  0  0
   10.1296   -1.8852   21.6056 H   0  0  0  0  0  0  0  0  0  0  0  0
  1  2  2  0
  2  3  1  0
  3  4  1  0
  4  5  1  0
  5  6  2  0
  6  7  1  0
  7  8  2  0
  8  9  1  0
  8 10  1  0
 10 11  1  0
 11 12  1  0
 11 13  1  0
 11 14  1  0
 10 15  2  0
  7 16  1  0
  4 17  1  0
 17 18  1  0
 18 19  1  0
 19 20  1  0
 20 21  2  0
 21 22  1  0
 22 23  2  0
 23 24  1  0
 24 25  2  0
 25 26  1  0
 23 27  1  0
 22 28  1  0
 21 29  1  0
 18 30  1  0
 18 31  1  0
 17 32  1  0
 17 33  1  0
  3 34  1  0
  3 35  1  0
 19  2  1  0
 25 20  1  0
 15  5  1  0
M  END
>  <cnnaffinity>  (1) 
-5.01218

>  <filename>  (1) 
O=C1CN(c2ncc(Cl)c(C(F)(F)F)n2)CCN1c1cccnc1

$$$$
