
     RDKit          3D

 50 53  0  0  0  0  0  0  0  0999 V2000
    9.1764    2.4153   22.4758 O   0  0  0  0  0  0  0  0  0  0  0  0
   10.2655    1.8742   22.5265 C   0  0  0  0  0  0  0  0  0  0  0  0
   11.3325    2.4190   23.4705 C   0  0  0  0  0  0  0  0  0  0  0  0
   11.7648    3.7331   22.8400 C   0  0  0  0  0  0  0  0  0  0  0  0
   12.2452    3.5549   21.5930 F   0  0  0  0  0  0  0  0  0  0  0  0
   10.7648    4.6126   22.7812 F   0  0  0  0  0  0  0  0  0  0  0  0
   12.7494    4.3150   23.5600 F   0  0  0  0  0  0  0  0  0  0  0  0
   12.5235    1.4898   23.7876 C   0  0  0  0  0  0  0  0  0  0  0  0
   12.8876    0.6423   22.5680 C   0  0  0  0  0  0  0  0  0  0  0  0
   11.6605   -0.1506   22.1405 C   0  0  0  0  0  0  0  0  0  0  0  0
   10.5921    0.7811   21.7481 N   0  0  0  0  0  0  0  0  0  0  0  0
    9.5639    0.2608   20.8433 C   0  0  0  0  0  0  0  0  0  0  0  0
    8.5268   -0.6328   21.4761 C   0  0  0  0  0  0  0  0  0  0  0  0
    8.6928   -1.4400   22.5087 N   0  0  0  0  0  0  0  0  0  0  0  0
    7.5217   -2.1155   22.5807 C   0  0  0  0  0  0  0  0  0  0  0  0
    7.2536   -3.0995   23.6793 C   0  0  0  0  0  0  0  0  0  0  0  0
    6.3387   -2.5494   24.8051 C   0  0  0  0  0  0  0  0  0  0  0  0
    5.7715   -3.7949   25.5187 C   0  0  0  0  0  0  0  0  0  0  0  0
    5.9684   -4.9859   24.5428 C   0  0  0  0  0  0  0  0  0  0  0  0
    6.5407   -4.3951   23.2393 C   0  0  0  0  0  0  0  0  0  0  0  0
    5.7364   -4.1434   22.5348 H   0  0  0  0  0  0  0  0  0  0  0  0
    7.2196   -5.0837   22.7205 H   0  0  0  0  0  0  0  0  0  0  0  0
    6.6679   -5.7136   24.9724 H   0  0  0  0  0  0  0  0  0  0  0  0
    5.0341   -5.5310   24.3673 H   0  0  0  0  0  0  0  0  0  0  0  0
    4.7166   -3.6503   25.7797 H   0  0  0  0  0  0  0  0  0  0  0  0
    6.2924   -3.9817   26.4652 H   0  0  0  0  0  0  0  0  0  0  0  0
    5.5231   -1.9673   24.3626 H   0  0  0  0  0  0  0  0  0  0  0  0
    6.8746   -1.8704   25.4798 H   0  0  0  0  0  0  0  0  0  0  0  0
    8.2381   -3.3403   24.1058 H   0  0  0  0  0  0  0  0  0  0  0  0
    6.6428   -1.7854   21.6489 N   0  0  0  0  0  0  0  0  0  0  0  0
    7.2944   -0.8427   20.9231 N   0  0  0  0  0  0  0  0  0  0  0  0
    6.6151   -0.1623   19.8687 C   0  0  0  0  0  0  0  0  0  0  0  0
    5.4363    0.5422   20.1386 C   0  0  0  0  0  0  0  0  0  0  0  0
    4.8549    1.2819   19.1049 C   0  0  0  0  0  0  0  0  0  0  0  0
    5.4572    1.2718   17.8388 C   0  0  0  0  0  0  0  0  0  0  0  0
    6.5581    0.5582   17.5590 N   0  0  0  0  0  0  0  0  0  0  0  0
    7.1120   -0.1510   18.5511 C   0  0  0  0  0  0  0  0  0  0  0  0
    7.9912   -0.7392   18.2932 H   0  0  0  0  0  0  0  0  0  0  0  0
    5.0371    1.8551   17.0209 H   0  0  0  0  0  0  0  0  0  0  0  0
    3.9597    1.8734   19.2681 H   0  0  0  0  0  0  0  0  0  0  0  0
    5.0075    0.5166   21.1416 H   0  0  0  0  0  0  0  0  0  0  0  0
   10.0545   -0.3489   20.0718 H   0  0  0  0  0  0  0  0  0  0  0  0
    9.0755    1.1024   20.3447 H   0  0  0  0  0  0  0  0  0  0  0  0
   11.8738   -0.8085   21.2885 H   0  0  0  0  0  0  0  0  0  0  0  0
   11.3094   -0.8051   22.9551 H   0  0  0  0  0  0  0  0  0  0  0  0
   13.2008    1.2794   21.7383 H   0  0  0  0  0  0  0  0  0  0  0  0
   13.7183   -0.0280   22.8047 H   0  0  0  0  0  0  0  0  0  0  0  0
   13.3823    2.0912   24.1045 H   0  0  0  0  0  0  0  0  0  0  0  0
   12.2677    0.8308   24.6310 H   0  0  0  0  0  0  0  0  0  0  0  0
   10.7818    2.6881   24.3738 H   0  0  0  0  0  0  0  0  0  0  0  0
  1  2  2  0
  2  3  1  0
  3  4  1  0
  4  5  1  0
  4  6  1  0
  4  7  1  0
  3  8  1  0
  8  9  1  0
  9 10  1  0
 10 11  1  0
 11 12  1  0
 12 13  1  0
 13 14  2  0
 14 15  1  0
 15 16  1  0
 16 17  1  0
 17 18  1  0
 18 19  1  0
 19 20  1  0
 20 21  1  0
 20 22  1  0
 19 23  1  0
 19 24  1  0
 18 25  1  0
 18 26  1  0
 17 27  1  0
 17 28  1  0
 16 29  1  0
 15 30  2  0
 30 31  1  0
 31 32  1  0
 32 33  2  0
 33 34  1  0
 34 35  2  0
 35 36  1  0
 36 37  2  0
 37 38  1  0
 35 39  1  0
 34 40  1  0
 33 41  1  0
 12 42  1  0
 12 43  1  0
 10 44  1  0
 10 45  1  0
  9 46  1  0
  9 47  1  0
  8 48  1  0
  8 49  1  0
  3 50  1  0
 11  2  1  0
 31 13  1  0
 37 32  1  0
 20 16  1  0
M  END
>  <cnnaffinity>  (1) 
-6.57973

>  <filename>  (1) 
O=C1C(C(F)(F)F)CCCN1Cc1nc(C2CCCC2)nn1-c1cccnc1

$$$$
