
     RDKit          3D

 43 46  0  0  0  0  0  0  0  0999 V2000
    7.8666    5.1278   29.2712 H   0  0  0  0  0  0  0  0  0  0  0  0
    7.3919    4.9607   28.3068 C   0  0  0  0  0  0  0  0  0  0  0  0
    7.5591    3.7465   27.7804 N   0  0  0  0  0  0  0  0  0  0  0  0
    6.9446    3.4900   26.6163 C   0  0  0  0  0  0  0  0  0  0  0  0
    7.0966    2.2268   26.0937 N   0  0  0  0  0  0  0  0  0  0  0  0
    6.1397    1.6689   25.1187 C   0  0  0  0  0  0  0  0  0  0  0  0
    5.1147    1.9666   25.3701 H   0  0  0  0  0  0  0  0  0  0  0  0
    6.3549    2.0164   24.0957 H   0  0  0  0  0  0  0  0  0  0  0  0
    6.2080    0.1324   25.0806 C   0  0  0  0  0  0  0  0  0  0  0  0
    5.5333   -0.2470   24.3152 H   0  0  0  0  0  0  0  0  0  0  0  0
    5.9222   -0.3002   26.0471 H   0  0  0  0  0  0  0  0  0  0  0  0
    7.5637   -0.3506   24.7720 N   0  0  0  0  0  0  0  0  0  0  0  0
    7.7966   -0.7913   23.4817 N   0  0  0  0  0  0  0  0  0  0  0  0
    7.0861   -0.1519   22.4869 N   0  0  0  0  0  0  0  0  0  0  0  0
    7.3447   -0.4758   21.2338 C   0  0  0  0  0  0  0  0  0  0  0  0
    6.6187    0.2293   20.1264 C   0  0  0  0  0  0  0  0  0  0  0  0
    7.2019    0.2506   18.8438 C   0  0  0  0  0  0  0  0  0  0  0  0
    8.2026   -0.1444   18.6774 H   0  0  0  0  0  0  0  0  0  0  0  0
    6.6240    0.7517   17.7523 N   0  0  0  0  0  0  0  0  0  0  0  0
    5.4159    1.3143   17.8956 C   0  0  0  0  0  0  0  0  0  0  0  0
    4.9644    1.7110   16.9872 H   0  0  0  0  0  0  0  0  0  0  0  0
    4.7598    1.4006   19.1268 C   0  0  0  0  0  0  0  0  0  0  0  0
    3.8030    1.9090   19.1780 H   0  0  0  0  0  0  0  0  0  0  0  0
    5.3683    0.8624   20.2650 C   0  0  0  0  0  0  0  0  0  0  0  0
    4.8866    0.9477   21.2400 H   0  0  0  0  0  0  0  0  0  0  0  0
    8.2889   -1.5057   20.9343 C   0  0  0  0  0  0  0  0  0  0  0  0
    8.4869   -1.7571   19.8993 H   0  0  0  0  0  0  0  0  0  0  0  0
    8.9239   -2.1886   21.9244 C   0  0  0  0  0  0  0  0  0  0  0  0
    9.6444   -2.9740   21.7419 H   0  0  0  0  0  0  0  0  0  0  0  0
    8.7234   -1.8900   23.3153 C   0  0  0  0  0  0  0  0  0  0  0  0
    9.2617   -2.4582   24.2491 O   0  0  0  0  0  0  0  0  0  0  0  0
    8.6757    0.4947   25.2847 C   0  0  0  0  0  0  0  0  0  0  0  0
    9.0361    1.1368   24.4642 H   0  0  0  0  0  0  0  0  0  0  0  0
    9.4911   -0.1710   25.5878 H   0  0  0  0  0  0  0  0  0  0  0  0
    8.2657    1.4079   26.4544 C   0  0  0  0  0  0  0  0  0  0  0  0
    9.1132    2.0672   26.6603 H   0  0  0  0  0  0  0  0  0  0  0  0
    8.0765    0.8321   27.3741 H   0  0  0  0  0  0  0  0  0  0  0  0
    6.1809    4.4606   25.9295 C   0  0  0  0  0  0  0  0  0  0  0  0
    5.7219    4.1701   24.9949 H   0  0  0  0  0  0  0  0  0  0  0  0
    6.0711    5.7345   26.4681 C   0  0  0  0  0  0  0  0  0  0  0  0
    5.5172    6.5066   25.9336 H   0  0  0  0  0  0  0  0  0  0  0  0
    6.6789    5.9930   27.7015 C   0  0  0  0  0  0  0  0  0  0  0  0
    6.6018    6.9574   28.1862 H   0  0  0  0  0  0  0  0  0  0  0  0
  1  2  1  0
  2  3  2  0
  3  4  1  0
  4  5  1  0
  5  6  1  0
  6  7  1  0
  6  8  1  0
  6  9  1  0
  9 10  1  0
  9 11  1  0
  9 12  1  0
 12 13  1  0
 13 14  1  0
 14 15  2  0
 15 16  1  0
 16 17  2  0
 17 18  1  0
 17 19  1  0
 19 20  2  0
 20 21  1  0
 20 22  1  0
 22 23  1  0
 22 24  2  0
 24 25  1  0
 15 26  1  0
 26 27  1  0
 26 28  2  0
 28 29  1  0
 28 30  1  0
 30 31  2  0
 12 32  1  0
 32 33  1  0
 32 34  1  0
 32 35  1  0
 35 36  1  0
 35 37  1  0
  4 38  2  0
 38 39  1  0
 38 40  1  0
 40 41  1  0
 40 42  2  0
 42 43  1  0
 42  2  1  0
 35  5  1  0
 30 13  1  0
 24 16  1  0
M  END
>  <cnnaffinity>  (1) 
-5.27295

>  <filename>  (1) 
O=c1ccc(-c2cccnc2)nn1N1CCN(c2ccccn2)CC1

$$$$
