
     RDKit          3D

 27 28  0  0  0  0  0  0  0  0999 V2000
   12.1595    0.9819   22.9506 H   0  0  0  0  0  0  0  0  0  0  0  0
   12.1218    0.5685   23.8524 O   0  0  0  0  0  0  0  0  0  0  0  0
   10.7615   -0.0880   23.4782 P   0  0  0  0  0  0  0  0  0  0  0  0
    9.6802    0.1038   24.4653 O   0  0  0  0  0  0  0  0  0  0  0  0
   11.2595    1.1345   22.6806 O   0  0  0  0  0  0  0  0  0  0  0  0
   11.7228    1.3853   23.5279 H   0  0  0  0  0  0  0  0  0  0  0  0
   10.4932   -1.7770   22.6943 C   0  0  0  0  0  0  0  0  0  0  0  0
   11.4101   -2.0586   21.7171 F   0  0  0  0  0  0  0  0  0  0  0  0
   10.5057   -2.8130   23.5910 F   0  0  0  0  0  0  0  0  0  0  0  0
    9.1326   -1.5979   22.0754 C   0  0  0  0  0  0  0  0  0  0  0  0
    7.9614   -2.2229   22.4369 C   0  0  0  0  0  0  0  0  0  0  0  0
    7.8412   -2.9709   23.2094 H   0  0  0  0  0  0  0  0  0  0  0  0
    6.8660   -1.7408   21.6130 C   0  0  0  0  0  0  0  0  0  0  0  0
    5.7629   -2.2756   21.5306 O   0  0  0  0  0  0  0  0  0  0  0  0
    7.4317   -0.7505   20.8052 N   0  0  0  0  0  0  0  0  0  0  0  0
    6.7823   -0.0408   19.7850 C   0  0  0  0  0  0  0  0  0  0  0  0
    7.4021    0.1985   18.5428 C   0  0  0  0  0  0  0  0  0  0  0  0
    8.4003   -0.1930   18.3776 H   0  0  0  0  0  0  0  0  0  0  0  0
    6.8053    0.8617   17.5309 N   0  0  0  0  0  0  0  0  0  0  0  0
    5.5650    1.3465   17.7355 C   0  0  0  0  0  0  0  0  0  0  0  0
    5.0742    1.9075   16.9442 H   0  0  0  0  0  0  0  0  0  0  0  0
    4.8863    1.1619   18.9454 C   0  0  0  0  0  0  0  0  0  0  0  0
    3.8969    1.5856   19.0665 H   0  0  0  0  0  0  0  0  0  0  0  0
    5.4889    0.4451   19.9813 C   0  0  0  0  0  0  0  0  0  0  0  0
    4.9883    0.2908   20.9358 H   0  0  0  0  0  0  0  0  0  0  0  0
    8.8257   -0.6345   21.1140 N   0  0  0  0  0  0  0  0  0  0  0  0
    9.5106   -0.3289   20.4154 H   0  0  0  0  0  0  0  0  0  0  0  0
  1  2  1  0
  2  3  1  0
  3  4  2  0
  3  5  1  0
  5  6  1  0
  3  7  1  0
  7  8  1  0
  7  9  1  0
  7 10  1  0
 10 11  2  0
 11 12  1  0
 11 13  1  0
 13 14  2  0
 13 15  1  0
 15 16  1  0
 16 17  2  0
 17 18  1  0
 17 19  1  0
 19 20  2  0
 20 21  1  0
 20 22  1  0
 22 23  1  0
 22 24  2  0
 24 25  1  0
 15 26  1  0
 26 27  1  0
 26 10  1  0
 24 16  1  0
M  END
>  <cnnaffinity>  (1) 
-4.54063

>  <filename>  (1) 
O=c1cc(C(F)(F)P(=O)(O)O)[nH]n1-c1cccnc1

$$$$
