
     RDKit          3D

 30 32  0  0  0  0  0  0  0  0999 V2000
   12.1454    2.5124   23.0031 H   0  0  0  0  0  0  0  0  0  0  0  0
   12.0767    1.4398   22.8300 C   0  0  0  0  0  0  0  0  0  0  0  0
   10.8518    0.9617   22.5946 N   0  0  0  0  0  0  0  0  0  0  0  0
   10.7211   -0.3664   22.4425 C   0  0  0  0  0  0  0  0  0  0  0  0
    9.3713   -0.8066   22.1693 C   0  0  0  0  0  0  0  0  0  0  0  0
    8.6069   -0.1982   21.2345 C   0  0  0  0  0  0  0  0  0  0  0  0
    8.9408    0.6934   20.7069 H   0  0  0  0  0  0  0  0  0  0  0  0
    7.3579   -0.6798   20.9009 N   0  0  0  0  0  0  0  0  0  0  0  0
    6.6386   -0.0118   19.8318 C   0  0  0  0  0  0  0  0  0  0  0  0
    7.1664    0.0731   18.5247 C   0  0  0  0  0  0  0  0  0  0  0  0
    8.1130   -0.4099   18.2834 H   0  0  0  0  0  0  0  0  0  0  0  0
    6.5606    0.7125   17.5182 N   0  0  0  0  0  0  0  0  0  0  0  0
    5.3993    1.3311   17.7878 C   0  0  0  0  0  0  0  0  0  0  0  0
    4.9319    1.8582   16.9583 H   0  0  0  0  0  0  0  0  0  0  0  0
    4.8001    1.3171   19.0513 C   0  0  0  0  0  0  0  0  0  0  0  0
    3.8708    1.8521   19.2094 H   0  0  0  0  0  0  0  0  0  0  0  0
    5.4248    0.6277   20.0966 C   0  0  0  0  0  0  0  0  0  0  0  0
    4.9981    0.5890   21.0988 H   0  0  0  0  0  0  0  0  0  0  0  0
    6.7910   -1.7573   21.6333 C   0  0  0  0  0  0  0  0  0  0  0  0
    5.7143   -2.2567   21.4112 O   0  0  0  0  0  0  0  0  0  0  0  0
    7.5696   -2.2391   22.6371 N   0  0  0  0  0  0  0  0  0  0  0  0
    7.1784   -3.0106   23.1412 H   0  0  0  0  0  0  0  0  0  0  0  0
    8.8646   -1.9160   22.9467 C   0  0  0  0  0  0  0  0  0  0  0  0
    9.4314   -2.5609   23.8024 O   0  0  0  0  0  0  0  0  0  0  0  0
   11.8067   -1.2529   22.4649 C   0  0  0  0  0  0  0  0  0  0  0  0
   11.6306   -2.3161   22.3656 H   0  0  0  0  0  0  0  0  0  0  0  0
   13.0888   -0.7288   22.6243 C   0  0  0  0  0  0  0  0  0  0  0  0
   13.9640   -1.3733   22.5863 H   0  0  0  0  0  0  0  0  0  0  0  0
   13.2247    0.6444   22.8289 C   0  0  0  0  0  0  0  0  0  0  0  0
   14.1953    1.1078   22.9485 H   0  0  0  0  0  0  0  0  0  0  0  0
  1  2  1  0
  2  3  2  0
  3  4  1  0
  4  5  1  0
  5  6  2  0
  6  7  1  0
  6  8  1  0
  8  9  1  0
  9 10  2  0
 10 11  1  0
 10 12  1  0
 12 13  2  0
 13 14  1  0
 13 15  1  0
 15 16  1  0
 15 17  2  0
 17 18  1  0
  8 19  1  0
 19 20  2  0
 19 21  1  0
 21 22  1  0
 21 23  1  0
 23 24  2  0
  4 25  2  0
 25 26  1  0
 25 27  1  0
 27 28  1  0
 27 29  2  0
 29 30  1  0
 29  2  1  0
 23  5  1  0
 17  9  1  0
M  END
>  <cnnaffinity>  (1) 
-5.1652

>  <filename>  (1) 
O=c1[nH]c(=O)n(-c2cccnc2)cc1-c1ccccn1

$$$$
