
     RDKit          3D

 33 35  0  0  0  0  0  0  0  0999 V2000
    4.9765    1.8588   16.9317 H   0  0  0  0  0  0  0  0  0  0  0  0
    5.4538    1.3365   17.7590 C   0  0  0  0  0  0  0  0  0  0  0  0
    6.6209    0.7262   17.4950 N   0  0  0  0  0  0  0  0  0  0  0  0
    7.2186    0.0741   18.4999 C   0  0  0  0  0  0  0  0  0  0  0  0
    8.1761   -0.3863   18.2821 H   0  0  0  0  0  0  0  0  0  0  0  0
    6.6907   -0.0438   19.8113 C   0  0  0  0  0  0  0  0  0  0  0  0
    7.3400   -0.8126   20.8118 N   0  0  0  0  0  0  0  0  0  0  0  0
    8.7093   -1.0344   20.9199 C   0  0  0  0  0  0  0  0  0  0  0  0
    9.5950   -0.5072   20.2910 O   0  0  0  0  0  0  0  0  0  0  0  0
    8.9139   -1.9980   21.9001 N   0  0  0  0  0  0  0  0  0  0  0  0
   10.2458   -2.1996   22.4898 C   0  0  0  0  0  0  0  0  0  0  0  0
   10.9721   -2.1643   21.6758 H   0  0  0  0  0  0  0  0  0  0  0  0
   10.2820   -3.2042   22.9273 H   0  0  0  0  0  0  0  0  0  0  0  0
   10.5368   -1.1498   23.5574 C   0  0  0  0  0  0  0  0  0  0  0  0
    9.8246   -1.2049   24.7689 C   0  0  0  0  0  0  0  0  0  0  0  0
    9.1631   -2.0506   24.9247 H   0  0  0  0  0  0  0  0  0  0  0  0
    9.9290   -0.1922   25.7255 C   0  0  0  0  0  0  0  0  0  0  0  0
    9.3427   -0.2494   26.6384 H   0  0  0  0  0  0  0  0  0  0  0  0
   10.7599    0.9057   25.4845 C   0  0  0  0  0  0  0  0  0  0  0  0
   10.7998    1.7254   26.1939 H   0  0  0  0  0  0  0  0  0  0  0  0
   11.5369    0.9574   24.3292 C   0  0  0  0  0  0  0  0  0  0  0  0
   12.2301    1.7705   24.1253 H   0  0  0  0  0  0  0  0  0  0  0  0
   11.4320   -0.0795   23.3936 C   0  0  0  0  0  0  0  0  0  0  0  0
   12.5099   -0.0146   22.0347 Cl  0  0  0  0  0  0  0  0  0  0  0  0
    7.7327   -2.2963   22.5386 C   0  0  0  0  0  0  0  0  0  0  0  0
    7.6074   -3.0798   23.4491 O   0  0  0  0  0  0  0  0  0  0  0  0
    6.6452   -1.4672   21.9052 C   0  0  0  0  0  0  0  0  0  0  0  0
    6.2790   -0.7499   22.6554 H   0  0  0  0  0  0  0  0  0  0  0  0
    5.8280   -2.1187   21.5810 H   0  0  0  0  0  0  0  0  0  0  0  0
    5.4719    0.6100   20.0649 C   0  0  0  0  0  0  0  0  0  0  0  0
    5.0124    0.5706   21.0520 H   0  0  0  0  0  0  0  0  0  0  0  0
    4.8561    1.3130   19.0221 C   0  0  0  0  0  0  0  0  0  0  0  0
    3.9206    1.8390   19.1807 H   0  0  0  0  0  0  0  0  0  0  0  0
  1  2  1  0
  2  3  2  0
  3  4  1  0
  4  5  1  0
  4  6  2  0
  6  7  1  0
  7  8  1  0
  8  9  2  0
  8 10  1  0
 10 11  1  0
 11 12  1  0
 11 13  1  0
 11 14  1  0
 14 15  2  0
 15 16  1  0
 15 17  1  0
 17 18  1  0
 17 19  2  0
 19 20  1  0
 19 21  1  0
 21 22  1  0
 21 23  2  0
 23 24  1  0
 10 25  1  0
 25 26  2  0
 25 27  1  0
 27 28  1  0
 27 29  1  0
  6 30  1  0
 30 31  1  0
 30 32  2  0
 32 33  1  0
 32  2  1  0
 27  7  1  0
 23 14  1  0
M  END
>  <cnnaffinity>  (1) 
-5.3575

>  <filename>  (1) 
O=C1CN(c2cccnc2)C(=O)N1Cc1ccccc1Cl

$$$$
