
     RDKit          3D

 34 35  0  0  0  0  0  0  0  0999 V2000
    9.5007   -3.4650   26.5850 H   0  0  0  0  0  0  0  0  0  0  0  0
    9.4632   -2.7036   25.9402 O   0  0  0  0  0  0  0  0  0  0  0  0
    8.7497   -3.7118   25.0349 P   0  0  0  0  0  0  0  0  0  0  0  0
    7.3220   -3.7850   25.2624 O   0  0  0  0  0  0  0  0  0  0  0  0
    9.7404   -4.2334   26.0717 O   0  0  0  0  0  0  0  0  0  0  0  0
   10.1510   -3.3331   26.0805 H   0  0  0  0  0  0  0  0  0  0  0  0
    8.9255   -4.1006   23.2811 C   0  0  0  0  0  0  0  0  0  0  0  0
    9.1341   -5.1586   23.2217 H   0  0  0  0  0  0  0  0  0  0  0  0
    7.9577   -3.6629   22.1438 N   0  0  0  0  0  0  0  0  0  0  0  0
    7.4800   -4.3484   21.5320 H   0  0  0  0  0  0  0  0  0  0  0  0
    7.7633   -2.3307   21.8182 C   0  0  0  0  0  0  0  0  0  0  0  0
    7.2418   -1.8448   20.6495 C   0  0  0  0  0  0  0  0  0  0  0  0
    6.9044   -2.4505   19.8187 H   0  0  0  0  0  0  0  0  0  0  0  0
    7.1428   -0.4569   20.7387 N   0  0  0  0  0  0  0  0  0  0  0  0
    6.5344    0.3285   19.7436 C   0  0  0  0  0  0  0  0  0  0  0  0
    6.9872    0.2430   18.4105 C   0  0  0  0  0  0  0  0  0  0  0  0
    7.8779   -0.3498   18.2201 H   0  0  0  0  0  0  0  0  0  0  0  0
    6.3818    0.8529   17.3726 N   0  0  0  0  0  0  0  0  0  0  0  0
    5.2875    1.5879   17.6378 C   0  0  0  0  0  0  0  0  0  0  0  0
    4.7793    2.0661   16.8085 H   0  0  0  0  0  0  0  0  0  0  0  0
    4.7859    1.7492   18.9354 C   0  0  0  0  0  0  0  0  0  0  0  0
    3.8968    2.3513   19.0792 H   0  0  0  0  0  0  0  0  0  0  0  0
    5.4241    1.1328   20.0178 C   0  0  0  0  0  0  0  0  0  0  0  0
    5.0433    1.2368   21.0337 H   0  0  0  0  0  0  0  0  0  0  0  0
    7.5254   -0.1157   22.0397 C   0  0  0  0  0  0  0  0  0  0  0  0
    7.4833    1.3530   22.8230 S   0  0  0  0  0  0  0  0  0  0  0  0
    8.0106   -1.2577   22.6455 N   0  0  0  0  0  0  0  0  0  0  0  0
    8.0225   -1.3478   23.6540 H   0  0  0  0  0  0  0  0  0  0  0  0
   10.4250   -3.2820   23.6455 P   0  0  0  0  0  0  0  0  0  0  0  0
   11.2373   -2.5997   22.6567 O   0  0  0  0  0  0  0  0  0  0  0  0
   10.4023   -1.8900   24.0901 O   0  0  0  0  0  0  0  0  0  0  0  0
   11.0020   -1.8464   23.2805 H   0  0  0  0  0  0  0  0  0  0  0  0
   11.2966   -4.2303   24.5120 O   0  0  0  0  0  0  0  0  0  0  0  0
   12.0650   -3.6462   24.5961 H   0  0  0  0  0  0  0  0  0  0  0  0
  1  2  1  0
  2  3  1  0
  3  4  2  0
  3  5  1  0
  5  6  1  0
  3  7  1  0
  7  8  1  0
  7  9  1  0
  9 10  1  0
  9 11  1  0
 11 12  2  0
 12 13  1  0
 12 14  1  0
 14 15  1  0
 15 16  2  0
 16 17  1  0
 16 18  1  0
 18 19  2  0
 19 20  1  0
 19 21  1  0
 21 22  1  0
 21 23  2  0
 23 24  1  0
 14 25  1  0
 25 26  2  0
 25 27  1  0
 27 28  1  0
  7 29  1  0
 29 30  2  0
 29 31  1  0
 31 32  1  0
 29 33  1  0
 33 34  1  0
 27 11  1  0
 23 15  1  0
M  END
>  <cnnaffinity>  (1) 
-5.00316

>  <filename>  (1) 
O=P(O)(O)C(Nc1cn(-c2cccnc2)c(=S)[nH]1)P(=O)(O)O

$$$$
