
     RDKit          3D

 27 28  0  0  0  0  0  0  0  0999 V2000
    7.2951   -3.1451   26.5017 H   0  0  0  0  0  0  0  0  0  0  0  0
    7.5237   -3.2525   25.5397 O   0  0  0  0  0  0  0  0  0  0  0  0
    7.5401   -1.6968   25.4912 P   0  0  0  0  0  0  0  0  0  0  0  0
    6.2599   -0.9585   25.4878 O   0  0  0  0  0  0  0  0  0  0  0  0
    7.8785   -2.4374   26.8259 O   0  0  0  0  0  0  0  0  0  0  0  0
    8.0942   -3.2528   26.3069 H   0  0  0  0  0  0  0  0  0  0  0  0
    8.7196   -0.7086   24.3417 C   0  0  0  0  0  0  0  0  0  0  0  0
   10.0065   -1.1727   24.3882 F   0  0  0  0  0  0  0  0  0  0  0  0
    8.7786    0.6310   24.6165 F   0  0  0  0  0  0  0  0  0  0  0  0
    8.1727   -0.9386   22.9505 C   0  0  0  0  0  0  0  0  0  0  0  0
    7.9496   -0.0357   21.9376 C   0  0  0  0  0  0  0  0  0  0  0  0
    8.1659    1.0297   21.9733 H   0  0  0  0  0  0  0  0  0  0  0  0
    7.3254   -0.6940   20.8736 N   0  0  0  0  0  0  0  0  0  0  0  0
    6.6688   -0.0237   19.8365 C   0  0  0  0  0  0  0  0  0  0  0  0
    7.1631   -0.0446   18.5169 C   0  0  0  0  0  0  0  0  0  0  0  0
    8.0784   -0.5942   18.3128 H   0  0  0  0  0  0  0  0  0  0  0  0
    6.5679    0.5997   17.4964 N   0  0  0  0  0  0  0  0  0  0  0  0
    5.4544    1.3104   17.7585 C   0  0  0  0  0  0  0  0  0  0  0  0
    4.9598    1.8300   16.9439 H   0  0  0  0  0  0  0  0  0  0  0  0
    4.9118    1.3977   19.0457 C   0  0  0  0  0  0  0  0  0  0  0  0
    4.0215    1.9949   19.2098 H   0  0  0  0  0  0  0  0  0  0  0  0
    5.5185    0.7200   20.1031 C   0  0  0  0  0  0  0  0  0  0  0  0
    5.1260    0.7680   21.1177 H   0  0  0  0  0  0  0  0  0  0  0  0
    7.0640   -2.0027   21.2898 C   0  0  0  0  0  0  0  0  0  0  0  0
    6.1233   -3.1895   20.5878 S   0  0  0  0  0  0  0  0  0  0  0  0
    7.6667   -2.1632   22.5210 N   0  0  0  0  0  0  0  0  0  0  0  0
    7.4636   -2.9606   23.1171 H   0  0  0  0  0  0  0  0  0  0  0  0
  1  2  1  0
  2  3  1  0
  3  4  2  0
  3  5  1  0
  5  6  1  0
  3  7  1  0
  7  8  1  0
  7  9  1  0
  7 10  1  0
 10 11  2  0
 11 12  1  0
 11 13  1  0
 13 14  1  0
 14 15  2  0
 15 16  1  0
 15 17  1  0
 17 18  2  0
 18 19  1  0
 18 20  1  0
 20 21  1  0
 20 22  2  0
 22 23  1  0
 13 24  1  0
 24 25  2  0
 24 26  1  0
 26 27  1  0
 26 10  1  0
 22 14  1  0
M  END
>  <cnnaffinity>  (1) 
-5.07995

>  <filename>  (1) 
O=P(O)(O)C(F)(F)c1cn(-c2cccnc2)c(=S)[nH]1

$$$$
