
     RDKit          3D

 22 22  0  0  0  0  0  0  0  0999 V2000
   10.9908   -0.8538   22.4577 H   0  0  0  0  0  0  0  0  0  0  0  0
   10.7764   -0.4048   23.3115 O   0  0  0  0  0  0  0  0  0  0  0  0
    9.3048   -0.3311   22.9026 P   0  0  0  0  0  0  0  0  0  0  0  0
    8.3175   -0.7758   23.8827 O   0  0  0  0  0  0  0  0  0  0  0  0
   10.2190   -1.3733   22.2421 O   0  0  0  0  0  0  0  0  0  0  0  0
   10.7257   -1.3551   23.0936 H   0  0  0  0  0  0  0  0  0  0  0  0
    8.4818    0.9583   21.9800 C   0  0  0  0  0  0  0  0  0  0  0  0
    7.5251    1.7181   22.6341 F   0  0  0  0  0  0  0  0  0  0  0  0
    9.2860    1.7767   21.2125 F   0  0  0  0  0  0  0  0  0  0  0  0
    7.9186   -0.5602   21.1653 S   0  0  0  0  0  0  0  0  0  0  0  0
    8.9721   -1.2819   20.4250 O   0  0  0  0  0  0  0  0  0  0  0  0
    7.0935   -1.4780   21.9756 O   0  0  0  0  0  0  0  0  0  0  0  0
    6.8561    0.0717   19.9107 C   0  0  0  0  0  0  0  0  0  0  0  0
    7.3200   -0.1190   18.6257 C   0  0  0  0  0  0  0  0  0  0  0  0
    8.2603   -0.6404   18.4548 H   0  0  0  0  0  0  0  0  0  0  0  0
    6.6543    0.3644   17.5805 N   0  0  0  0  0  0  0  0  0  0  0  0
    5.5113    1.0318   17.8002 C   0  0  0  0  0  0  0  0  0  0  0  0
    4.9853    1.4516   16.9457 H   0  0  0  0  0  0  0  0  0  0  0  0
    4.9742    1.1918   19.0786 C   0  0  0  0  0  0  0  0  0  0  0  0
    4.0357    1.7117   19.1933 H   0  0  0  0  0  0  0  0  0  0  0  0
    5.6474    0.6993   20.1828 C   0  0  0  0  0  0  0  0  0  0  0  0
    5.2299    0.8166   21.1881 H   0  0  0  0  0  0  0  0  0  0  0  0
  1  2  1  0
  2  3  1  0
  3  4  2  0
  3  5  1  0
  5  6  1  0
  3  7  1  0
  7  8  1  0
  7  9  1  0
  7 10  1  0
 10 11  2  0
 10 12  2  0
 10 13  1  0
 13 14  2  0
 14 15  1  0
 14 16  1  0
 16 17  2  0
 17 18  1  0
 17 19  1  0
 19 20  1  0
 19 21  2  0
 21 22  1  0
 21 13  1  0
M  END
>  <cnnaffinity>  (1) 
-3.9292

>  <filename>  (1) 
O=P(O)(O)C(F)(F)S(=O)(=O)c1cccnc1

$$$$
