
     RDKit          3D

 31 33  0  0  0  0  0  0  0  0999 V2000
    4.9992    1.8188   16.9656 H   0  0  0  0  0  0  0  0  0  0  0  0
    5.4330    1.2899   17.8143 C   0  0  0  0  0  0  0  0  0  0  0  0
    6.5976    0.6584   17.5850 N   0  0  0  0  0  0  0  0  0  0  0  0
    7.1752    0.0297   18.6090 C   0  0  0  0  0  0  0  0  0  0  0  0
    8.1196   -0.4718   18.4071 H   0  0  0  0  0  0  0  0  0  0  0  0
    6.6255   -0.0305   19.9050 C   0  0  0  0  0  0  0  0  0  0  0  0
    7.3500   -0.7446   20.9290 N   0  0  0  0  0  0  0  0  0  0  0  0
    8.6913   -0.5398   21.0585 N   0  0  0  0  0  0  0  0  0  0  0  0
    9.1117   -1.3369   21.9618 N   0  0  0  0  0  0  0  0  0  0  0  0
    8.1069   -2.1047   22.4575 N   0  0  0  0  0  0  0  0  0  0  0  0
    7.0338   -1.7085   21.8355 C   0  0  0  0  0  0  0  0  0  0  0  0
    5.7964   -2.3033   21.9476 N   0  0  0  0  0  0  0  0  0  0  0  0
    5.0174   -1.6795   22.0860 H   0  0  0  0  0  0  0  0  0  0  0  0
    5.5976   -3.1112   23.3823 S   0  0  0  0  0  0  0  0  0  0  0  0
    4.2030   -3.4914   23.2858 O   0  0  0  0  0  0  0  0  0  0  0  0
    6.0849   -2.2791   24.4614 O   0  0  0  0  0  0  0  0  0  0  0  0
    6.6745   -4.4692   23.1549 C   0  0  0  0  0  0  0  0  0  0  0  0
    6.7427   -5.0934   21.9061 C   0  0  0  0  0  0  0  0  0  0  0  0
    6.1636   -4.7440   21.0514 H   0  0  0  0  0  0  0  0  0  0  0  0
    7.5724   -6.1973   21.7634 C   0  0  0  0  0  0  0  0  0  0  0  0
    7.5881   -6.6428   20.7776 H   0  0  0  0  0  0  0  0  0  0  0  0
    8.3342   -6.6734   22.8371 C   0  0  0  0  0  0  0  0  0  0  0  0
    8.9899   -7.5341   22.7150 H   0  0  0  0  0  0  0  0  0  0  0  0
    8.2591   -6.0256   24.0789 C   0  0  0  0  0  0  0  0  0  0  0  0
    8.8345   -6.3931   24.9250 H   0  0  0  0  0  0  0  0  0  0  0  0
    7.4344   -4.9088   24.2449 C   0  0  0  0  0  0  0  0  0  0  0  0
    7.3848   -4.3835   25.2016 H   0  0  0  0  0  0  0  0  0  0  0  0
    5.4103    0.6251   20.1408 C   0  0  0  0  0  0  0  0  0  0  0  0
    4.9500    0.6448   21.1284 H   0  0  0  0  0  0  0  0  0  0  0  0
    4.8109    1.2981   19.0632 C   0  0  0  0  0  0  0  0  0  0  0  0
    3.8865    1.8528   19.1842 H   0  0  0  0  0  0  0  0  0  0  0  0
  1  2  1  0
  2  3  2  0
  3  4  1  0
  4  5  1  0
  4  6  2  0
  6  7  1  0
  7  8  1  0
  8  9  2  0
  9 10  1  0
 10 11  2  0
 11 12  1  0
 12 13  1  0
 12 14  1  0
 14 15  2  0
 14 16  2  0
 14 17  1  0
 17 18  2  0
 18 19  1  0
 18 20  1  0
 20 21  1  0
 20 22  2  0
 22 23  1  0
 22 24  1  0
 24 25  1  0
 24 26  2  0
 26 27  1  0
  6 28  1  0
 28 29  1  0
 28 30  2  0
 30 31  1  0
 30  2  1  0
 11  7  1  0
 26 17  1  0
M  END
>  <cnnaffinity>  (1) 
-5.07938

>  <filename>  (1) 
O=S(=O)(Nc1nnnn1-c1cccnc1)c1ccccc1

$$$$
