
     RDKit          3D

 28 29  0  0  0  0  0  0  0  0999 V2000
    4.9102    1.7836   17.0119 H   0  0  0  0  0  0  0  0  0  0  0  0
    5.4017    1.2719   17.8354 C   0  0  0  0  0  0  0  0  0  0  0  0
    6.5647    0.6525   17.5527 N   0  0  0  0  0  0  0  0  0  0  0  0
    7.2097    0.0646   18.5642 C   0  0  0  0  0  0  0  0  0  0  0  0
    8.1570   -0.4224   18.3248 H   0  0  0  0  0  0  0  0  0  0  0  0
    6.7505    0.0609   19.9124 C   0  0  0  0  0  0  0  0  0  0  0  0
    7.5836   -0.4391   20.9410 N   0  0  0  0  0  0  0  0  0  0  0  0
    8.2464   -1.1827   20.8032 H   0  0  0  0  0  0  0  0  0  0  0  0
    7.4664   -0.5369   22.5868 S   0  0  0  0  0  0  0  0  0  0  0  0
    6.3914   -1.4351   22.9320 O   0  0  0  0  0  0  0  0  0  0  0  0
    8.8404   -0.8687   22.8945 O   0  0  0  0  0  0  0  0  0  0  0  0
    7.1120    1.0596   23.1411 C   0  0  0  0  0  0  0  0  0  0  0  0
    7.0201    2.2521   23.3251 C   0  0  0  0  0  0  0  0  0  0  0  0
    6.9803    3.6651   23.6338 C   0  0  0  0  0  0  0  0  0  0  0  0
    7.5251    4.1307   24.8533 C   0  0  0  0  0  0  0  0  0  0  0  0
    7.9737    3.4282   25.5514 H   0  0  0  0  0  0  0  0  0  0  0  0
    7.4750    5.4869   25.1834 C   0  0  0  0  0  0  0  0  0  0  0  0
    7.8954    5.8302   26.1284 H   0  0  0  0  0  0  0  0  0  0  0  0
    6.8866    6.4020   24.3021 C   0  0  0  0  0  0  0  0  0  0  0  0
    6.8568    7.4592   24.5566 H   0  0  0  0  0  0  0  0  0  0  0  0
    6.3445    5.9564   23.0900 C   0  0  0  0  0  0  0  0  0  0  0  0
    5.8845    6.6689   22.4040 H   0  0  0  0  0  0  0  0  0  0  0  0
    6.3922    4.5992   22.7530 C   0  0  0  0  0  0  0  0  0  0  0  0
    5.9575    4.2693   21.8109 H   0  0  0  0  0  0  0  0  0  0  0  0
    5.5034    0.6345   20.1698 C   0  0  0  0  0  0  0  0  0  0  0  0
    5.0706    0.5730   21.1667 H   0  0  0  0  0  0  0  0  0  0  0  0
    4.8361    1.2711   19.1137 C   0  0  0  0  0  0  0  0  0  0  0  0
    3.8927    1.7769   19.2837 H   0  0  0  0  0  0  0  0  0  0  0  0
  1  2  1  0
  2  3  2  0
  3  4  1  0
  4  5  1  0
  4  6  2  0
  6  7  1  0
  7  8  1  0
  7  9  1  0
  9 10  2  0
  9 11  2  0
  9 12  1  0
 12 13  3  0
 13 14  1  0
 14 15  2  0
 15 16  1  0
 15 17  1  0
 17 18  1  0
 17 19  2  0
 19 20  1  0
 19 21  1  0
 21 22  1  0
 21 23  2  0
 23 24  1  0
  6 25  1  0
 25 26  1  0
 25 27  2  0
 27 28  1  0
 27  2  1  0
 23 14  1  0
M  END
>  <cnnaffinity>  (1) 
-4.52483

>  <filename>  (1) 
O=S(=O)(C#Cc1ccccc1)Nc1cccnc1

$$$$
