
     RDKit          3D

 42 44  0  0  0  0  0  0  0  0999 V2000
    5.3208    2.0069   16.5857 H   0  0  0  0  0  0  0  0  0  0  0  0
    5.7009    1.3768   17.3869 C   0  0  0  0  0  0  0  0  0  0  0  0
    6.9398    0.8921   17.2237 N   0  0  0  0  0  0  0  0  0  0  0  0
    7.4346    0.1007   18.1843 C   0  0  0  0  0  0  0  0  0  0  0  0
    8.4469   -0.2688   18.0198 H   0  0  0  0  0  0  0  0  0  0  0  0
    6.7344   -0.2861   19.3622 C   0  0  0  0  0  0  0  0  0  0  0  0
    7.2915   -1.1646   20.2929 N   0  0  0  0  0  0  0  0  0  0  0  0
    6.5068   -1.8677   21.2998 C   0  0  0  0  0  0  0  0  0  0  0  0
    6.8397   -2.9142   21.3090 H   0  0  0  0  0  0  0  0  0  0  0  0
    5.4478   -1.8842   21.0355 H   0  0  0  0  0  0  0  0  0  0  0  0
    6.7318   -1.2893   22.7139 C   0  0  0  0  0  0  0  0  0  0  0  0
    6.1124   -0.3911   22.8359 H   0  0  0  0  0  0  0  0  0  0  0  0
    6.3938   -2.0197   23.4601 H   0  0  0  0  0  0  0  0  0  0  0  0
    8.2224   -0.8878   22.9348 C   0  0  0  0  0  0  0  0  0  0  0  0
    8.3015    0.1820   22.7103 H   0  0  0  0  0  0  0  0  0  0  0  0
    8.7690   -0.9355   24.6782 S   0  0  0  0  0  0  0  0  0  0  0  0
    7.6505   -1.1747   25.5595 O   0  0  0  0  0  0  0  0  0  0  0  0
    9.9827   -1.7185   24.7758 O   0  0  0  0  0  0  0  0  0  0  0  0
    9.0930    0.7521   24.9172 N   0  0  0  0  0  0  0  0  0  0  0  0
    7.8422    1.5709   25.2922 C   0  0  0  0  0  0  0  0  0  0  0  0
    7.2211    1.7927   24.3954 H   0  0  0  0  0  0  0  0  0  0  0  0
    7.2280    1.0048   26.0029 H   0  0  0  0  0  0  0  0  0  0  0  0
    8.3581    2.9505   26.0669 C   0  0  0  0  0  0  0  0  0  0  0  0
    7.4147    3.3645   26.5426 H   0  0  0  0  0  0  0  0  0  0  0  0
    8.9551    2.4486   26.8728 H   0  0  0  0  0  0  0  0  0  0  0  0
    9.0556    3.8092   25.4336 O   0  0  0  0  0  0  0  0  0  0  0  0
   10.3734    1.4660   24.8193 C   0  0  0  0  0  0  0  0  0  0  0  0
   11.1372    2.5154   25.0033 H   0  0  0  0  0  0  0  0  0  0  0  0
   10.6899    1.4103   26.0683 H   0  0  0  0  0  0  0  0  0  0  0  0
   10.2555    1.6401   24.9365 C   0  0  0  0  0  0  0  0  0  0  0  0
    9.7835    2.2188   23.9562 H   0  0  0  0  0  0  0  0  0  0  0  0
   11.3888    0.5546   23.9978 H   0  0  0  0  0  0  0  0  0  0  0  0
    9.1480   -1.6137   21.9259 C   0  0  0  0  0  0  0  0  0  0  0  0
   10.2072   -1.3778   22.0808 H   0  0  0  0  0  0  0  0  0  0  0  0
    9.0426   -2.7040   22.0294 H   0  0  0  0  0  0  0  0  0  0  0  0
    8.7481   -1.2004   20.4890 C   0  0  0  0  0  0  0  0  0  0  0  0
    9.2279   -1.8703   19.7684 H   0  0  0  0  0  0  0  0  0  0  0  0
    9.1580   -0.1994   20.2861 H   0  0  0  0  0  0  0  0  0  0  0  0
    5.4423    0.2726   19.5205 C   0  0  0  0  0  0  0  0  0  0  0  0
    4.8743    0.0780   20.4279 H   0  0  0  0  0  0  0  0  0  0  0  0
    4.9281    1.1012   18.5194 C   0  0  0  0  0  0  0  0  0  0  0  0
    3.9397    1.5433   18.6066 H   0  0  0  0  0  0  0  0  0  0  0  0
  1  2  1  0
  2  3  2  0
  3  4  1  0
  4  5  1  0
  4  6  2  0
  6  7  1  0
  7  8  1  0
  8  9  1  0
  8 10  1  0
  8 11  1  0
 11 12  1  0
 11 13  1  0
 11 14  1  0
 14 15  1  0
 14 16  1  0
 16 17  2  0
 16 18  2  0
 16 19  1  0
 19 20  1  0
 20 21  1  0
 20 22  1  0
 20 23  1  0
 23 24  1  0
 23 25  1  0
 23 26  1  0
 26 27  1  0
 27 28  1  0
 27 29  1  0
 27 30  1  0
 30 31  1  0
 30 32  1  0
 14 33  1  0
 33 34  1  0
 33 35  1  0
 33 36  1  0
 36 37  1  0
 36 38  1  0
  6 39  1  0
 39 40  1  0
 39 41  2  0
 41 42  1  0
 41  2  1  0
 36  7  1  0
 30 19  1  0
M  END
>  <cnnaffinity>  (1) 
-5.18502

>  <filename>  (1) 
O=S(=O)(C1CCN(c2cccnc2)CC1)N1CCOCC1

$$$$
