
     RDKit          3D

 28 29  0  0  0  0  0  0  0  0999 V2000
    6.7520    3.2387   22.6128 H   0  0  0  0  0  0  0  0  0  0  0  0
    6.5586    3.6829   23.4520 O   0  0  0  0  0  0  0  0  0  0  0  0
    6.3822    2.7550   24.4263 C   0  0  0  0  0  0  0  0  0  0  0  0
    6.0793    3.2584   25.6909 C   0  0  0  0  0  0  0  0  0  0  0  0
    5.9804    4.3285   25.7950 H   0  0  0  0  0  0  0  0  0  0  0  0
    5.8999    2.3900   26.7640 C   0  0  0  0  0  0  0  0  0  0  0  0
    5.4852    3.0534   28.3117 Cl  0  0  0  0  0  0  0  0  0  0  0  0
    6.0304    1.0113   26.6071 C   0  0  0  0  0  0  0  0  0  0  0  0
    5.8842    0.3572   27.4587 H   0  0  0  0  0  0  0  0  0  0  0  0
    6.3331    0.4943   25.3380 C   0  0  0  0  0  0  0  0  0  0  0  0
    6.4395   -0.5762   25.1949 H   0  0  0  0  0  0  0  0  0  0  0  0
    6.4886    1.3574   24.2559 C   0  0  0  0  0  0  0  0  0  0  0  0
    6.6810    0.9213   22.9261 O   0  0  0  0  0  0  0  0  0  0  0  0
    7.3413   -0.5123   22.6280 S   0  0  0  0  0  0  0  0  0  0  0  0
    6.3850   -1.5619   22.8473 O   0  0  0  0  0  0  0  0  0  0  0  0
    8.6564   -0.5866   23.1914 O   0  0  0  0  0  0  0  0  0  0  0  0
    7.6318   -0.3298   21.0258 N   0  0  0  0  0  0  0  0  0  0  0  0
    8.2095   -1.1409   20.8769 H   0  0  0  0  0  0  0  0  0  0  0  0
    6.7650    0.1187   19.9845 C   0  0  0  0  0  0  0  0  0  0  0  0
    7.2213    0.0877   18.6373 C   0  0  0  0  0  0  0  0  0  0  0  0
    8.1682   -0.4058   18.4268 H   0  0  0  0  0  0  0  0  0  0  0  0
    6.5763    0.6361   17.6025 N   0  0  0  0  0  0  0  0  0  0  0  0
    5.4063    1.2507   17.8598 C   0  0  0  0  0  0  0  0  0  0  0  0
    4.9160    1.7339   17.0155 H   0  0  0  0  0  0  0  0  0  0  0  0
    4.8331    1.2708   19.1343 C   0  0  0  0  0  0  0  0  0  0  0  0
    3.8782    1.7606   19.2855 H   0  0  0  0  0  0  0  0  0  0  0  0
    5.5079    0.6824   20.2164 C   0  0  0  0  0  0  0  0  0  0  0  0
    5.0694    0.6663   21.2085 H   0  0  0  0  0  0  0  0  0  0  0  0
  1  2  1  0
  2  3  1  0
  3  4  2  0
  4  5  1  0
  4  6  1  0
  6  7  1  0
  6  8  2  0
  8  9  1  0
  8 10  1  0
 10 11  1  0
 10 12  2  0
 12 13  1  0
 13 14  1  0
 14 15  2  0
 14 16  2  0
 14 17  1  0
 17 18  1  0
 17 19  1  0
 19 20  2  0
 20 21  1  0
 20 22  1  0
 22 23  2  0
 23 24  1  0
 23 25  1  0
 25 26  1  0
 25 27  2  0
 27 28  1  0
 12  3  1  0
 27 19  1  0
M  END
>  <cnnaffinity>  (1) 
-4.39275

>  <filename>  (1) 
O=S(=O)(Nc1cccnc1)Oc1ccc(Cl)cc1O

$$$$
