
     RDKit          3D

 27 28  0  0  0  0  0  0  0  0999 V2000
    4.9236    1.7095   16.9489 H   0  0  0  0  0  0  0  0  0  0  0  0
    5.4413    1.2546   17.7953 C   0  0  0  0  0  0  0  0  0  0  0  0
    6.6156    0.6517   17.5413 N   0  0  0  0  0  0  0  0  0  0  0  0
    7.2916    0.1087   18.5733 C   0  0  0  0  0  0  0  0  0  0  0  0
    8.2238   -0.4099   18.3550 H   0  0  0  0  0  0  0  0  0  0  0  0
    6.8175    0.1640   19.9010 C   0  0  0  0  0  0  0  0  0  0  0  0
    7.6229   -0.3128   20.9762 O   0  0  0  0  0  0  0  0  0  0  0  0
    6.8150   -0.9198   22.3052 S   0  0  0  0  0  0  0  0  0  0  0  0
    5.8549   -1.8611   21.7766 O   0  0  0  0  0  0  0  0  0  0  0  0
    6.3872    0.1968   23.1212 O   0  0  0  0  0  0  0  0  0  0  0  0
    8.2046   -1.8556   23.1612 C   0  0  0  0  0  0  0  0  0  0  0  0
    8.9308   -1.1318   24.0069 N   0  0  0  0  0  0  0  0  0  0  0  0
    9.8446   -1.7096   24.7999 C   0  0  0  0  0  0  0  0  0  0  0  0
   10.3792   -1.0554   25.4874 H   0  0  0  0  0  0  0  0  0  0  0  0
   10.0837   -3.0789   24.7752 C   0  0  0  0  0  0  0  0  0  0  0  0
   10.7954   -3.5375   25.4465 H   0  0  0  0  0  0  0  0  0  0  0  0
    9.3555   -3.8613   23.8894 C   0  0  0  0  0  0  0  0  0  0  0  0
    9.5310   -4.9358   23.8509 H   0  0  0  0  0  0  0  0  0  0  0  0
    8.4080   -3.2660   23.0432 C   0  0  0  0  0  0  0  0  0  0  0  0
    7.5796   -4.1844   22.1664 C   0  0  0  0  0  0  0  0  0  0  0  0
    8.1350   -5.4054   22.0216 F   0  0  0  0  0  0  0  0  0  0  0  0
    6.3648   -4.3608   22.6992 F   0  0  0  0  0  0  0  0  0  0  0  0
    7.4366   -3.6852   20.9354 F   0  0  0  0  0  0  0  0  0  0  0  0
    5.5675    0.7281   20.1438 C   0  0  0  0  0  0  0  0  0  0  0  0
    5.1502    0.7206   21.1459 H   0  0  0  0  0  0  0  0  0  0  0  0
    4.8723    1.2944   19.0709 C   0  0  0  0  0  0  0  0  0  0  0  0
    3.9079    1.7569   19.2385 H   0  0  0  0  0  0  0  0  0  0  0  0
  1  2  1  0
  2  3  2  0
  3  4  1  0
  4  5  1  0
  4  6  2  0
  6  7  1  0
  7  8  1  0
  8  9  2  0
  8 10  2  0
  8 11  1  0
 11 12  2  0
 12 13  1  0
 13 14  1  0
 13 15  2  0
 15 16  1  0
 15 17  1  0
 17 18  1  0
 17 19  2  0
 19 20  1  0
 20 21  1  0
 20 22  1  0
 20 23  1  0
  6 24  1  0
 24 25  1  0
 24 26  2  0
 26 27  1  0
 26  2  1  0
 19 11  1  0
M  END
>  <cnnaffinity>  (1) 
-4.77922

>  <filename>  (1) 
O=S(=O)(Oc1cccnc1)c1ncccc1C(F)(F)F

$$$$
