
     RDKit          3D

 27 29  0  0  0  0  0  0  0  0999 V2000
    4.9831    1.7554   17.0216 H   0  0  0  0  0  0  0  0  0  0  0  0
    5.4419    1.2655   17.8776 C   0  0  0  0  0  0  0  0  0  0  0  0
    6.6023    0.6394   17.6436 N   0  0  0  0  0  0  0  0  0  0  0  0
    7.1948    0.0167   18.6581 C   0  0  0  0  0  0  0  0  0  0  0  0
    8.1393   -0.4793   18.4389 H   0  0  0  0  0  0  0  0  0  0  0  0
    6.6294    0.0083   19.9209 C   0  0  0  0  0  0  0  0  0  0  0  0
    7.4970   -0.8760   21.1468 S   0  0  0  0  0  0  0  0  0  0  0  0
    8.2961   -1.8749   20.4676 O   0  0  0  0  0  0  0  0  0  0  0  0
    6.4879   -1.2107   22.1399 O   0  0  0  0  0  0  0  0  0  0  0  0
    8.6190    0.3195   21.8453 C   0  0  0  0  0  0  0  0  0  0  0  0
    9.9697    0.0612   21.8666 O   0  0  0  0  0  0  0  0  0  0  0  0
   10.5405    1.1145   22.5173 C   0  0  0  0  0  0  0  0  0  0  0  0
   11.9000    1.3055   22.7917 C   0  0  0  0  0  0  0  0  0  0  0  0
   12.6407    0.5717   22.4925 H   0  0  0  0  0  0  0  0  0  0  0  0
   12.2471    2.4835   23.4565 C   0  0  0  0  0  0  0  0  0  0  0  0
   13.2926    2.6847   23.6751 H   0  0  0  0  0  0  0  0  0  0  0  0
   11.2709    3.4304   23.8413 C   0  0  0  0  0  0  0  0  0  0  0  0
   11.5753    4.3404   24.3479 H   0  0  0  0  0  0  0  0  0  0  0  0
    9.9243    3.2164   23.5690 C   0  0  0  0  0  0  0  0  0  0  0  0
    9.1641    3.9386   23.8536 H   0  0  0  0  0  0  0  0  0  0  0  0
    9.5526    2.0375   22.8963 C   0  0  0  0  0  0  0  0  0  0  0  0
    8.3061    1.4832   22.4496 C   0  0  0  0  0  0  0  0  0  0  0  0
    7.3325    1.9366   22.6020 H   0  0  0  0  0  0  0  0  0  0  0  0
    5.4207    0.6492   20.1972 C   0  0  0  0  0  0  0  0  0  0  0  0
    4.9623    0.6257   21.1890 H   0  0  0  0  0  0  0  0  0  0  0  0
    4.8224    1.3025   19.1307 C   0  0  0  0  0  0  0  0  0  0  0  0
    3.8896    1.8352   19.2518 H   0  0  0  0  0  0  0  0  0  0  0  0
  1  2  1  0
  2  3  2  0
  3  4  1  0
  4  5  1  0
  4  6  2  0
  6  7  1  0
  7  8  2  0
  7  9  2  0
  7 10  1  0
 10 11  1  0
 11 12  1  0
 12 13  2  0
 13 14  1  0
 13 15  1  0
 15 16  1  0
 15 17  2  0
 17 18  1  0
 17 19  1  0
 19 20  1  0
 19 21  2  0
 21 22  1  0
 22 23  1  0
  6 24  1  0
 24 25  1  0
 24 26  2  0
 26 27  1  0
 26  2  1  0
 22 10  2  0
 21 12  1  0
M  END
>  <cnnaffinity>  (1) 
-4.81676

>  <filename>  (1) 
O=S(=O)(c1cccnc1)c1cc2ccccc2o1

$$$$
