
     RDKit          3D

 31 32  0  0  0  0  0  0  0  0999 V2000
    7.6991   -1.7483   20.6627 H   0  0  0  0  0  0  0  0  0  0  0  0
    7.3865   -0.7395   20.9387 C   0  0  0  0  0  0  0  0  0  0  0  0
    7.7120   -0.2760   22.1565 C   0  0  0  0  0  0  0  0  0  0  0  0
    7.4470    1.3390   22.6979 Cl  0  0  0  0  0  0  0  0  0  0  0  0
    8.5779   -1.3019   23.3778 S   0  0  0  0  0  0  0  0  0  0  0  0
    8.4070   -0.7459   24.6965 O   0  0  0  0  0  0  0  0  0  0  0  0
    8.2748   -2.6872   23.0711 O   0  0  0  0  0  0  0  0  0  0  0  0
   10.1738   -1.0503   22.9629 N   0  0  0  0  0  0  0  0  0  0  0  0
   10.7141    0.2957   23.2427 C   0  0  0  0  0  0  0  0  0  0  0  0
   10.2944    1.0633   22.5757 H   0  0  0  0  0  0  0  0  0  0  0  0
   10.4664    0.5677   24.2729 H   0  0  0  0  0  0  0  0  0  0  0  0
   12.2413    0.2962   23.0694 C   0  0  0  0  0  0  0  0  0  0  0  0
   12.6047    1.3309   23.0748 H   0  0  0  0  0  0  0  0  0  0  0  0
   12.7150   -0.2399   23.9054 H   0  0  0  0  0  0  0  0  0  0  0  0
   12.6444   -0.2552   21.8260 O   0  0  0  0  0  0  0  0  0  0  0  0
   12.1566   -1.5708   21.5954 C   0  0  0  0  0  0  0  0  0  0  0  0
   12.4638   -1.8387   20.5783 H   0  0  0  0  0  0  0  0  0  0  0  0
   12.6092   -2.2890   22.2971 H   0  0  0  0  0  0  0  0  0  0  0  0
   10.6258   -1.6466   21.6931 C   0  0  0  0  0  0  0  0  0  0  0  0
   10.3056   -2.6915   21.6742 H   0  0  0  0  0  0  0  0  0  0  0  0
   10.2033   -1.1301   20.8166 H   0  0  0  0  0  0  0  0  0  0  0  0
    6.6477   -0.0060   19.8791 C   0  0  0  0  0  0  0  0  0  0  0  0
    7.1532    0.0407   18.5655 C   0  0  0  0  0  0  0  0  0  0  0  0
    8.1010   -0.4489   18.3284 H   0  0  0  0  0  0  0  0  0  0  0  0
    6.5595    0.6719   17.5470 N   0  0  0  0  0  0  0  0  0  0  0  0
    5.3997    1.2996   17.8139 C   0  0  0  0  0  0  0  0  0  0  0  0
    4.9360    1.8200   16.9809 H   0  0  0  0  0  0  0  0  0  0  0  0
    4.8002    1.3130   19.0746 C   0  0  0  0  0  0  0  0  0  0  0  0
    3.8642    1.8436   19.2240 H   0  0  0  0  0  0  0  0  0  0  0  0
    5.4319    0.6534   20.1284 C   0  0  0  0  0  0  0  0  0  0  0  0
    4.9981    0.6390   21.1285 H   0  0  0  0  0  0  0  0  0  0  0  0
  1  2  1  0
  2  3  2  3
  3  4  1  0
  3  5  1  0
  5  6  2  0
  5  7  2  0
  5  8  1  0
  8  9  1  0
  9 10  1  0
  9 11  1  0
  9 12  1  0
 12 13  1  0
 12 14  1  0
 12 15  1  0
 15 16  1  0
 16 17  1  0
 16 18  1  0
 16 19  1  0
 19 20  1  0
 19 21  1  0
  2 22  1  0
 22 23  2  0
 23 24  1  0
 23 25  1  0
 25 26  2  0
 26 27  1  0
 26 28  1  0
 28 29  1  0
 28 30  2  0
 30 31  1  0
 19  8  1  0
 30 22  1  0
M  END
>  <cnnaffinity>  (1) 
-4.59413

>  <filename>  (1) 
O=S(=O)(C(Cl)=Cc1cccnc1)N1CCOCC1

$$$$
