
     RDKit          3D

 33 34  0  0  0  0  0  0  0  0999 V2000
    5.1712    1.7817   16.9548 H   0  0  0  0  0  0  0  0  0  0  0  0
    5.5322    1.2359   17.8249 C   0  0  0  0  0  0  0  0  0  0  0  0
    6.6550    0.5237   17.6560 N   0  0  0  0  0  0  0  0  0  0  0  0
    7.1242   -0.1564   18.7093 C   0  0  0  0  0  0  0  0  0  0  0  0
    8.0797   -0.6631   18.5710 H   0  0  0  0  0  0  0  0  0  0  0  0
    6.4907   -0.2081   19.9631 C   0  0  0  0  0  0  0  0  0  0  0  0
    7.0776   -0.9770   21.1213 C   0  0  0  0  0  0  0  0  0  0  0  0
    6.2926   -1.5373   21.6497 H   0  0  0  0  0  0  0  0  0  0  0  0
    7.8237   -1.7106   20.7879 H   0  0  0  0  0  0  0  0  0  0  0  0
    7.6994    0.0106   22.1090 C   0  0  1  0  0  0  0  0  0  0  0  0
    6.9701    0.7638   22.4079 H   0  0  0  0  0  0  0  0  0  0  0  0
    8.1194   -0.6509   23.2543 F   0  0  0  0  0  0  0  0  0  0  0  0
    8.9817    1.0494   21.2587 S   0  0  0  0  0  0  0  0  0  0  0  0
    9.7993    0.1453   20.4741 O   0  0  0  0  0  0  0  0  0  0  0  0
    8.2936    2.1771   20.6690 O   0  0  0  0  0  0  0  0  0  0  0  0
    9.9527    1.7041   22.4272 N   0  0  0  0  0  0  0  0  0  0  0  0
    9.3429    2.6862   23.3402 C   0  0  0  0  0  0  0  0  0  0  0  0
    8.7788    3.4018   22.7340 H   0  0  0  0  0  0  0  0  0  0  0  0
    8.6480    2.2044   24.0487 H   0  0  0  0  0  0  0  0  0  0  0  0
   10.4269    3.4447   24.1308 C   0  0  0  0  0  0  0  0  0  0  0  0
   10.9249    4.1883   23.4899 H   0  0  0  0  0  0  0  0  0  0  0  0
    9.9560    3.9900   24.9526 H   0  0  0  0  0  0  0  0  0  0  0  0
   11.3956    2.5776   24.7066 O   0  0  0  0  0  0  0  0  0  0  0  0
   12.0386    1.7868   23.7179 C   0  0  0  0  0  0  0  0  0  0  0  0
   12.8029    1.1935   24.2285 H   0  0  0  0  0  0  0  0  0  0  0  0
   12.5493    2.4448   22.9969 H   0  0  0  0  0  0  0  0  0  0  0  0
   11.0417    0.8783   22.9731 C   0  0  0  0  0  0  0  0  0  0  0  0
   10.6438    0.1085   23.6506 H   0  0  0  0  0  0  0  0  0  0  0  0
   11.5414    0.3836   22.1335 H   0  0  0  0  0  0  0  0  0  0  0  0
    5.3369    0.5727   20.1270 C   0  0  0  0  0  0  0  0  0  0  0  0
    4.8478    0.6297   21.1028 H   0  0  0  0  0  0  0  0  0  0  0  0
    4.8430    1.2980   19.0400 C   0  0  0  0  0  0  0  0  0  0  0  0
    3.9652    1.9287   19.1258 H   0  0  0  0  0  0  0  0  0  0  0  0
  1  2  1  0
  2  3  2  0
  3  4  1  0
  4  5  1  0
  4  6  2  0
  6  7  1  0
  7  8  1  0
  7  9  1  0
  7 10  1  0
 10 11  1  1
 10 12  1  0
 10 13  1  0
 13 14  2  0
 13 15  2  0
 13 16  1  0
 16 17  1  0
 17 18  1  0
 17 19  1  0
 17 20  1  0
 20 21  1  0
 20 22  1  0
 20 23  1  0
 23 24  1  0
 24 25  1  0
 24 26  1  0
 24 27  1  0
 27 28  1  0
 27 29  1  0
  6 30  1  0
 30 31  1  0
 30 32  2  0
 32 33  1  0
 32  2  1  0
 27 16  1  0
M  END
>  <cnnaffinity>  (1) 
-4.80594

>  <filename>  (1) 
O=S(=O)([C@H](F)Cc1cccnc1)N1CCOCC1

$$$$
