
     RDKit          3D

 29 30  0  0  0  0  0  0  0  0999 V2000
    4.8809    1.4543   16.8589 H   0  0  0  0  0  0  0  0  0  0  0  0
    5.4507    1.1762   17.7380 C   0  0  0  0  0  0  0  0  0  0  0  0
    6.6276    0.5748   17.5094 N   0  0  0  0  0  0  0  0  0  0  0  0
    7.3774    0.2493   18.5596 C   0  0  0  0  0  0  0  0  0  0  0  0
    8.3213   -0.2506   18.3429 H   0  0  0  0  0  0  0  0  0  0  0  0
    6.9717    0.5441   19.8486 C   0  0  0  0  0  0  0  0  0  0  0  0
    7.9801   -0.0787   21.0921 S   0  0  0  0  0  0  0  0  0  0  0  0
    7.6695    0.6109   22.3200 O   0  0  0  0  0  0  0  0  0  0  0  0
    9.3287   -0.2639   20.5861 O   0  0  0  0  0  0  0  0  0  0  0  0
    7.4884   -1.6459   21.1641 N   0  0  0  0  0  0  0  0  0  0  0  0
    8.2795   -2.0746   20.7093 H   0  0  0  0  0  0  0  0  0  0  0  0
    6.1278   -2.0936   20.8737 C   0  0  0  0  0  0  0  0  0  0  0  0
    5.7900   -1.8380   19.8536 H   0  0  0  0  0  0  0  0  0  0  0  0
    5.4394   -1.6038   21.5724 H   0  0  0  0  0  0  0  0  0  0  0  0
    6.0325   -3.5894   21.0359 C   0  0  0  0  0  0  0  0  0  0  0  0
    6.0215   -4.4348   19.9136 C   0  0  0  0  0  0  0  0  0  0  0  0
    6.0836   -3.9910   18.9214 H   0  0  0  0  0  0  0  0  0  0  0  0
    5.9241   -5.8199   20.0419 C   0  0  0  0  0  0  0  0  0  0  0  0
    5.9157   -6.4420   19.1489 H   0  0  0  0  0  0  0  0  0  0  0  0
    5.8331   -6.3793   21.3236 C   0  0  0  0  0  0  0  0  0  0  0  0
    5.7328   -7.4493   21.4561 H   0  0  0  0  0  0  0  0  0  0  0  0
    5.8477   -5.5664   22.4588 C   0  0  0  0  0  0  0  0  0  0  0  0
    5.7982   -5.9870   23.4616 H   0  0  0  0  0  0  0  0  0  0  0  0
    5.9415   -4.1820   22.3073 C   0  0  0  0  0  0  0  0  0  0  0  0
    5.9320   -3.1988   23.7482 Cl  0  0  0  0  0  0  0  0  0  0  0  0
    5.7220    1.1116   20.1227 C   0  0  0  0  0  0  0  0  0  0  0  0
    5.3628    1.2870   21.1403 H   0  0  0  0  0  0  0  0  0  0  0  0
    4.9451    1.4255   19.0176 C   0  0  0  0  0  0  0  0  0  0  0  0
    3.9713    1.8826   19.1291 H   0  0  0  0  0  0  0  0  0  0  0  0
  1  2  1  0
  2  3  2  0
  3  4  1  0
  4  5  1  0
  4  6  2  0
  6  7  1  0
  7  8  2  0
  7  9  2  0
  7 10  1  0
 10 11  1  0
 10 12  1  0
 12 13  1  0
 12 14  1  0
 12 15  1  0
 15 16  2  0
 16 17  1  0
 16 18  1  0
 18 19  1  0
 18 20  2  0
 20 21  1  0
 20 22  1  0
 22 23  1  0
 22 24  2  0
 24 25  1  0
  6 26  1  0
 26 27  1  0
 26 28  2  0
 28 29  1  0
 28  2  1  0
 24 15  1  0
M  END
>  <cnnaffinity>  (1) 
-4.43362

>  <filename>  (1) 
O=S(=O)(NCc1ccccc1Cl)c1cccnc1

$$$$
