
     RDKit          3D

 35 37  0  0  0  0  0  0  0  0999 V2000
    8.6783   -0.5005   20.9010 H   0  0  0  0  0  0  0  0  0  0  0  0
    7.6194   -0.7540   20.7890 C   0  0  0  0  0  0  0  0  0  0  0  0
    7.1038   -1.7620   21.5216 C   0  0  0  0  0  0  0  0  0  0  0  0
    7.6199   -2.3501   22.7464 C   0  0  0  0  0  0  0  0  0  0  0  0
    9.1912   -1.6732   23.4525 S   0  0  0  0  0  0  0  0  0  0  0  0
    8.9407   -0.3545   24.0353 O   0  0  0  0  0  0  0  0  0  0  0  0
   10.2831   -1.8588   22.4996 O   0  0  0  0  0  0  0  0  0  0  0  0
    9.4482   -2.8235   24.7916 C   0  0  0  0  0  0  0  0  0  0  0  0
   10.1673   -3.9938   24.5272 C   0  0  0  0  0  0  0  0  0  0  0  0
   10.6585   -4.1238   23.5643 H   0  0  0  0  0  0  0  0  0  0  0  0
   10.2184   -4.9932   25.5017 C   0  0  0  0  0  0  0  0  0  0  0  0
   10.7329   -5.9336   25.3055 H   0  0  0  0  0  0  0  0  0  0  0  0
    9.5707   -4.8045   26.7292 C   0  0  0  0  0  0  0  0  0  0  0  0
    9.6152   -5.5930   27.4749 H   0  0  0  0  0  0  0  0  0  0  0  0
    8.8513   -3.6295   26.9769 C   0  0  0  0  0  0  0  0  0  0  0  0
    8.3368   -3.5014   27.9230 H   0  0  0  0  0  0  0  0  0  0  0  0
    8.7694   -2.6333   26.0035 C   0  0  0  0  0  0  0  0  0  0  0  0
    8.1597   -1.7476   26.1764 H   0  0  0  0  0  0  0  0  0  0  0  0
    6.8986   -3.2817   23.2724 N   0  0  0  0  0  0  0  0  0  0  0  0
    5.6948   -3.4432   22.4743 C   0  0  0  0  0  0  0  0  0  0  0  0
    4.8355   -3.1951   23.1061 H   0  0  0  0  0  0  0  0  0  0  0  0
    5.6074   -4.4972   22.1944 H   0  0  0  0  0  0  0  0  0  0  0  0
    5.8116   -2.4958   21.2586 C   0  0  0  0  0  0  0  0  0  0  0  0
    5.0215   -1.7524   21.2269 H   0  0  0  0  0  0  0  0  0  0  0  0
    5.8167   -3.0406   20.3104 H   0  0  0  0  0  0  0  0  0  0  0  0
    6.8480    0.0157   19.7793 C   0  0  0  0  0  0  0  0  0  0  0  0
    7.3306    0.1361   18.4617 C   0  0  0  0  0  0  0  0  0  0  0  0
    8.2936   -0.2988   18.2017 H   0  0  0  0  0  0  0  0  0  0  0  0
    6.6825    0.7475   17.4640 N   0  0  0  0  0  0  0  0  0  0  0  0
    5.5091    1.3315   17.7583 C   0  0  0  0  0  0  0  0  0  0  0  0
    4.9980    1.8313   16.9372 H   0  0  0  0  0  0  0  0  0  0  0  0
    4.9525    1.3215   19.0385 C   0  0  0  0  0  0  0  0  0  0  0  0
    4.0149    1.8296   19.2251 H   0  0  0  0  0  0  0  0  0  0  0  0
    5.6260    0.6501   20.0609 C   0  0  0  0  0  0  0  0  0  0  0  0
    5.2274    0.6224   21.0754 H   0  0  0  0  0  0  0  0  0  0  0  0
  1  2  1  0
  2  3  2  3
  3  4  1  0
  4  5  1  0
  5  6  2  0
  5  7  2  0
  5  8  1  0
  8  9  2  0
  9 10  1  0
  9 11  1  0
 11 12  1  0
 11 13  2  0
 13 14  1  0
 13 15  1  0
 15 16  1  0
 15 17  2  0
 17 18  1  0
  4 19  2  0
 19 20  1  0
 20 21  1  0
 20 22  1  0
 20 23  1  0
 23 24  1  0
 23 25  1  0
  2 26  1  0
 26 27  2  0
 27 28  1  0
 27 29  1  0
 29 30  2  0
 30 31  1  0
 30 32  1  0
 32 33  1  0
 32 34  2  0
 34 35  1  0
 23  3  1  0
 34 26  1  0
 17  8  1  0
M  END
>  <cnnaffinity>  (1) 
-5.12219

>  <filename>  (1) 
O=S(=O)(C1=NCCC1=Cc1cccnc1)c1ccccc1

$$$$
