
     RDKit          3D

 35 38  0  0  0  0  0  0  0  0999 V2000
    4.9425    1.8191   16.9613 H   0  0  0  0  0  0  0  0  0  0  0  0
    5.3981    1.2835   17.7929 C   0  0  0  0  0  0  0  0  0  0  0  0
    6.5520    0.6445   17.5356 N   0  0  0  0  0  0  0  0  0  0  0  0
    7.1594    0.0335   18.5565 C   0  0  0  0  0  0  0  0  0  0  0  0
    8.1002   -0.4604   18.3316 H   0  0  0  0  0  0  0  0  0  0  0  0
    6.6717    0.0288   19.8763 C   0  0  0  0  0  0  0  0  0  0  0  0
    7.4337   -0.5292   20.9197 N   0  0  0  0  0  0  0  0  0  0  0  0
    8.3324   -1.5951   20.8442 C   0  0  0  0  0  0  0  0  0  0  0  0
    8.6111   -1.9910   19.8956 H   0  0  0  0  0  0  0  0  0  0  0  0
    8.8526   -1.8390   22.0661 C   0  0  0  0  0  0  0  0  0  0  0  0
    9.5083   -2.5897   22.4690 H   0  0  0  0  0  0  0  0  0  0  0  0
    8.3390   -0.8530   22.8936 N   0  0  0  0  0  0  0  0  0  0  0  0
    8.7342   -0.3450   24.0752 N   0  0  0  0  0  0  0  0  0  0  0  0
    8.0820    0.8219   24.1237 C   0  0  0  0  0  0  0  0  0  0  0  0
    8.4824    2.0388   25.4305 S   0  0  0  0  0  0  0  0  0  0  0  0
    7.2394    2.5673   25.9934 O   0  0  0  0  0  0  0  0  0  0  0  0
    9.5357    1.4852   26.2674 O   0  0  0  0  0  0  0  0  0  0  0  0
    9.2260    3.3754   24.4737 C   0  0  0  0  0  0  0  0  0  0  0  0
   10.6080    3.3654   24.2569 C   0  0  0  0  0  0  0  0  0  0  0  0
   11.2262    2.5634   24.6589 H   0  0  0  0  0  0  0  0  0  0  0  0
   11.1821    4.4172   23.5430 C   0  0  0  0  0  0  0  0  0  0  0  0
   12.2556    4.4362   23.4015 H   0  0  0  0  0  0  0  0  0  0  0  0
   10.3910    5.4469   23.0263 C   0  0  0  0  0  0  0  0  0  0  0  0
   10.8493    6.2677   22.4809 H   0  0  0  0  0  0  0  0  0  0  0  0
    9.0050    5.4039   23.2000 C   0  0  0  0  0  0  0  0  0  0  0  0
    8.3851    6.1876   22.7810 H   0  0  0  0  0  0  0  0  0  0  0  0
    8.4091    4.3692   23.9211 C   0  0  0  0  0  0  0  0  0  0  0  0
    7.3287    4.3524   24.0583 H   0  0  0  0  0  0  0  0  0  0  0  0
    7.2412    1.0607   23.0032 C   0  0  0  0  0  0  0  0  0  0  0  0
    6.6156    1.9152   22.7950 H   0  0  0  0  0  0  0  0  0  0  0  0
    7.4984   -0.0485   22.2136 C   0  0  0  0  0  0  0  0  0  0  0  0
    5.4315    0.6398   20.1248 C   0  0  0  0  0  0  0  0  0  0  0  0
    4.9960    0.6136   21.1267 H   0  0  0  0  0  0  0  0  0  0  0  0
    4.7990    1.2842   19.0588 C   0  0  0  0  0  0  0  0  0  0  0  0
    3.8622    1.8091   19.2067 H   0  0  0  0  0  0  0  0  0  0  0  0
  1  2  1  0
  2  3  2  0
  3  4  1  0
  4  5  1  0
  4  6  2  0
  6  7  1  0
  7  8  1  0
  8  9  1  0
  8 10  2  0
 10 11  1  0
 10 12  1  0
 12 13  1  0
 13 14  2  0
 14 15  1  0
 15 16  2  0
 15 17  2  0
 15 18  1  0
 18 19  2  0
 19 20  1  0
 19 21  1  0
 21 22  1  0
 21 23  2  0
 23 24  1  0
 23 25  1  0
 25 26  1  0
 25 27  2  0
 27 28  1  0
 14 29  1  0
 29 30  1  0
 29 31  2  0
  6 32  1  0
 32 33  1  0
 32 34  2  0
 34 35  1  0
 34  2  1  0
 31  7  1  0
 31 12  1  0
 27 18  1  0
M  END
>  <cnnaffinity>  (1) 
-5.43529

>  <filename>  (1) 
O=S(=O)(c1ccccc1)c1cc2n(-c3cccnc3)ccn2n1

$$$$
