
     RDKit          3D

 41 43  0  0  0  0  0  0  0  0999 V2000
    8.2643   -4.1301   26.1933 O   0  0  0  0  0  0  0  0  0  0  0  0
    8.5158   -4.2395   24.7682 S   0  0  0  0  0  0  0  0  0  0  0  0
    9.8221   -4.5907   24.2409 O   0  0  0  0  0  0  0  0  0  0  0  0
    8.1218   -2.6969   24.3034 N   0  0  0  0  0  0  0  0  0  0  0  0
    8.7580   -2.1524   23.1025 C   0  0  0  0  0  0  0  0  0  0  0  0
    8.0240   -2.7888   21.9179 C   0  0  0  0  0  0  0  0  0  0  0  0
    7.9495   -1.8906   20.6953 C   0  0  0  0  0  0  0  0  0  0  0  0
    7.3861   -0.5833   21.0031 N   0  0  0  0  0  0  0  0  0  0  0  0
    6.6979    0.0692   19.9678 C   0  0  0  0  0  0  0  0  0  0  0  0
    5.4730    0.7263   20.1841 C   0  0  0  0  0  0  0  0  0  0  0  0
    4.8276    1.3385   19.1035 C   0  0  0  0  0  0  0  0  0  0  0  0
    5.4149    1.3006   17.8338 C   0  0  0  0  0  0  0  0  0  0  0  0
    6.5727    0.6660   17.5892 N   0  0  0  0  0  0  0  0  0  0  0  0
    7.1762    0.0629   18.6231 C   0  0  0  0  0  0  0  0  0  0  0  0
    8.1013   -0.4599   18.3850 H   0  0  0  0  0  0  0  0  0  0  0  0
    4.9385    1.7858   16.9843 H   0  0  0  0  0  0  0  0  0  0  0  0
    3.8786    1.8440   19.2392 H   0  0  0  0  0  0  0  0  0  0  0  0
    5.0448    0.7231   21.1861 H   0  0  0  0  0  0  0  0  0  0  0  0
    7.3688   -0.1180   22.3884 C   0  0  0  0  0  0  0  0  0  0  0  0
    8.6293   -0.6199   23.1078 C   0  0  0  0  0  0  0  0  0  0  0  0
    9.4995   -0.1849   22.6045 H   0  0  0  0  0  0  0  0  0  0  0  0
    8.6575   -0.2468   24.1353 H   0  0  0  0  0  0  0  0  0  0  0  0
    7.3653    0.9797   22.3895 H   0  0  0  0  0  0  0  0  0  0  0  0
    6.4643   -0.4486   22.9303 H   0  0  0  0  0  0  0  0  0  0  0  0
    7.2545   -2.3603   19.9913 H   0  0  0  0  0  0  0  0  0  0  0  0
    8.9348   -1.7973   20.2030 H   0  0  0  0  0  0  0  0  0  0  0  0
    8.4947   -3.7408   21.6541 H   0  0  0  0  0  0  0  0  0  0  0  0
    6.9902   -3.0045   22.2187 H   0  0  0  0  0  0  0  0  0  0  0  0
    9.8304   -2.4064   23.0762 H   0  0  0  0  0  0  0  0  0  0  0  0
    8.3166   -2.2564   25.1914 H   0  0  0  0  0  0  0  0  0  0  0  0
    7.3125   -5.2337   23.9308 C   0  0  0  0  0  0  0  0  0  0  0  0
    7.7338   -6.2577   23.0642 C   0  0  0  0  0  0  0  0  0  0  0  0
    6.7721   -6.9807   22.3578 C   0  0  0  0  0  0  0  0  0  0  0  0
    5.4115   -6.6777   22.4809 C   0  0  0  0  0  0  0  0  0  0  0  0
    5.0077   -5.6811   23.3752 C   0  0  0  0  0  0  0  0  0  0  0  0
    5.9496   -4.9497   24.1011 C   0  0  0  0  0  0  0  0  0  0  0  0
    5.6108   -4.1653   24.7810 H   0  0  0  0  0  0  0  0  0  0  0  0
    3.9519   -5.4776   23.5222 H   0  0  0  0  0  0  0  0  0  0  0  0
    4.6773   -7.1863   21.8663 H   0  0  0  0  0  0  0  0  0  0  0  0
    7.0894   -7.8055   21.7299 H   0  0  0  0  0  0  0  0  0  0  0  0
    8.7917   -6.4928   22.9336 H   0  0  0  0  0  0  0  0  0  0  0  0
  1  2  2  0
  2  3  2  0
  2  4  1  0
  4  5  1  0
  5  6  1  0
  6  7  1  0
  7  8  1  0
  8  9  1  0
  9 10  2  0
 10 11  1  0
 11 12  2  0
 12 13  1  0
 13 14  2  0
 14 15  1  0
 12 16  1  0
 11 17  1  0
 10 18  1  0
  8 19  1  0
 19 20  1  0
 20 21  1  0
 20 22  1  0
 19 23  1  0
 19 24  1  0
  7 25  1  0
  7 26  1  0
  6 27  1  0
  6 28  1  0
  5 29  1  0
  4 30  1  0
  2 31  1  0
 31 32  2  0
 32 33  1  0
 33 34  2  0
 34 35  1  0
 35 36  2  0
 36 37  1  0
 35 38  1  0
 34 39  1  0
 33 40  1  0
 32 41  1  0
 20  5  1  0
 36 31  1  0
 14  9  1  0
M  END
>  <cnnaffinity>  (1) 
-5.50973

>  <filename>  (1) 
O=S(=O)(NC1CCN(c2cccnc2)CC1)c1ccccc1

$$$$
