
     RDKit          3D

 35 38  0  0  0  0  0  0  0  0999 V2000
    4.9636    1.8166   16.9693 H   0  0  0  0  0  0  0  0  0  0  0  0
    5.4129    1.2910   17.8073 C   0  0  0  0  0  0  0  0  0  0  0  0
    6.5671    0.6551   17.5592 N   0  0  0  0  0  0  0  0  0  0  0  0
    7.1533    0.0071   18.5700 C   0  0  0  0  0  0  0  0  0  0  0  0
    8.1066   -0.4658   18.3374 H   0  0  0  0  0  0  0  0  0  0  0  0
    6.6152   -0.0432   19.8713 C   0  0  0  0  0  0  0  0  0  0  0  0
    7.3603   -0.6647   20.9753 C   0  0  0  0  0  0  0  0  0  0  0  0
    8.4959   -1.3382   20.7326 N   0  0  0  0  0  0  0  0  0  0  0  0
    8.9330   -1.6295   21.9779 N   0  0  0  0  0  0  0  0  0  0  0  0
   10.1357   -2.0771   22.5082 C   0  0  0  0  0  0  0  0  0  0  0  0
   10.8838   -2.4744   21.8475 H   0  0  0  0  0  0  0  0  0  0  0  0
   10.0792   -1.8574   23.8465 C   0  0  0  0  0  0  0  0  0  0  0  0
   10.7885   -2.0596   24.6355 H   0  0  0  0  0  0  0  0  0  0  0  0
    8.8175   -1.2840   24.1510 N   0  0  0  0  0  0  0  0  0  0  0  0
    8.2400   -0.5436   25.5631 S   0  0  0  0  0  0  0  0  0  0  0  0
    9.2903   -0.6999   26.5542 O   0  0  0  0  0  0  0  0  0  0  0  0
    6.8833   -1.0087   25.8050 O   0  0  0  0  0  0  0  0  0  0  0  0
    8.1100    1.1824   25.0654 C   0  0  0  0  0  0  0  0  0  0  0  0
    9.0207    1.7747   24.1750 C   0  0  0  0  0  0  0  0  0  0  0  0
    9.8146    1.2046   23.6892 H   0  0  0  0  0  0  0  0  0  0  0  0
    8.8852    3.1337   23.8732 C   0  0  0  0  0  0  0  0  0  0  0  0
    9.5958    3.6057   23.1960 H   0  0  0  0  0  0  0  0  0  0  0  0
    7.8465    3.8889   24.4334 C   0  0  0  0  0  0  0  0  0  0  0  0
    7.7502    4.9472   24.1983 H   0  0  0  0  0  0  0  0  0  0  0  0
    6.9373    3.2794   25.3063 C   0  0  0  0  0  0  0  0  0  0  0  0
    6.1307    3.8546   25.7550 H   0  0  0  0  0  0  0  0  0  0  0  0
    7.0588    1.9250   25.6195 C   0  0  0  0  0  0  0  0  0  0  0  0
    6.3323    1.4516   26.2801 H   0  0  0  0  0  0  0  0  0  0  0  0
    8.1325   -1.1674   22.9475 C   0  0  0  0  0  0  0  0  0  0  0  0
    7.0606   -0.5381   22.3615 C   0  0  0  0  0  0  0  0  0  0  0  0
    6.2510   -0.0320   22.8606 H   0  0  0  0  0  0  0  0  0  0  0  0
    5.4043    0.6258   20.1074 C   0  0  0  0  0  0  0  0  0  0  0  0
    4.9642    0.6469   21.1045 H   0  0  0  0  0  0  0  0  0  0  0  0
    4.7929    1.3022   19.0589 C   0  0  0  0  0  0  0  0  0  0  0  0
    3.8707    1.8509   19.2069 H   0  0  0  0  0  0  0  0  0  0  0  0
  1  2  1  0
  2  3  2  0
  3  4  1  0
  4  5  1  0
  4  6  2  0
  6  7  1  0
  7  8  2  0
  8  9  1  0
  9 10  1  0
 10 11  1  0
 10 12  2  0
 12 13  1  0
 12 14  1  0
 14 15  1  0
 15 16  2  0
 15 17  2  0
 15 18  1  0
 18 19  2  0
 19 20  1  0
 19 21  1  0
 21 22  1  0
 21 23  2  0
 23 24  1  0
 23 25  1  0
 25 26  1  0
 25 27  2  0
 27 28  1  0
 14 29  1  0
 29 30  2  0
 30 31  1  0
  6 32  1  0
 32 33  1  0
 32 34  2  0
 34 35  1  0
 34  2  1  0
 30  7  1  0
 29  9  1  0
 27 18  1  0
M  END
>  <cnnaffinity>  (1) 
-5.52428

>  <filename>  (1) 
O=S(=O)(c1ccccc1)n1ccn2nc(-c3cccnc3)cc12

$$$$
