
     RDKit          3D

 38 40  0  0  0  0  0  0  0  0999 V2000
    6.7014   -1.4146   21.6092 H   0  0  0  0  0  0  0  0  0  0  0  0
    7.3183   -0.7196   21.0303 C   0  0  0  0  0  0  0  0  0  0  0  0
    8.5902   -0.4729   21.3924 C   0  0  0  0  0  0  0  0  0  0  0  0
    9.3615   -1.0610   22.4831 C   0  0  0  0  0  0  0  0  0  0  0  0
    8.6500   -2.4541   23.4804 S   0  0  0  0  0  0  0  0  0  0  0  0
    8.2095   -3.5207   22.5973 O   0  0  0  0  0  0  0  0  0  0  0  0
    9.5739   -2.7659   24.5675 O   0  0  0  0  0  0  0  0  0  0  0  0
    7.2141   -1.8729   24.2049 N   0  0  0  0  0  0  0  0  0  0  0  0
    7.3621   -0.6516   25.0371 C   0  0  0  0  0  0  0  0  0  0  0  0
    6.3537   -0.2248   25.1038 H   0  0  0  0  0  0  0  0  0  0  0  0
    7.9974    0.0808   24.5235 H   0  0  0  0  0  0  0  0  0  0  0  0
    7.8785   -0.9328   26.4633 C   0  0  0  0  0  0  0  0  0  0  0  0
    7.8325   -0.0237   27.0679 H   0  0  0  0  0  0  0  0  0  0  0  0
    8.9181   -1.2818   26.3963 H   0  0  0  0  0  0  0  0  0  0  0  0
    7.0703   -1.9041   27.1251 O   0  0  0  0  0  0  0  0  0  0  0  0
    7.0587   -3.1333   26.4001 C   0  0  0  0  0  0  0  0  0  0  0  0
    6.4281   -3.8240   26.9650 H   0  0  0  0  0  0  0  0  0  0  0  0
    8.0775   -3.5395   26.3309 H   0  0  0  0  0  0  0  0  0  0  0  0
    6.5021   -2.9386   24.9722 C   0  0  0  0  0  0  0  0  0  0  0  0
    6.5162   -3.8776   24.4073 H   0  0  0  0  0  0  0  0  0  0  0  0
    5.4580   -2.6079   25.0436 H   0  0  0  0  0  0  0  0  0  0  0  0
   10.5083   -0.5288   22.7022 N   0  0  0  0  0  0  0  0  0  0  0  0
   10.7339    0.5298   21.7291 C   0  0  0  0  0  0  0  0  0  0  0  0
   11.6560    0.3015   21.1889 H   0  0  0  0  0  0  0  0  0  0  0  0
   10.8959    1.4674   22.2704 H   0  0  0  0  0  0  0  0  0  0  0  0
    9.4878    0.5943   20.8083 C   0  0  0  0  0  0  0  0  0  0  0  0
    9.6792    0.3576   19.7595 H   0  0  0  0  0  0  0  0  0  0  0  0
    9.0026    1.5754   20.8049 H   0  0  0  0  0  0  0  0  0  0  0  0
    6.6373   -0.0281   19.9130 C   0  0  0  0  0  0  0  0  0  0  0  0
    7.1570    0.0509   18.6027 C   0  0  0  0  0  0  0  0  0  0  0  0
    8.1020   -0.4351   18.3656 H   0  0  0  0  0  0  0  0  0  0  0  0
    6.5609    0.6813   17.5816 N   0  0  0  0  0  0  0  0  0  0  0  0
    5.3979    1.3010   17.8325 C   0  0  0  0  0  0  0  0  0  0  0  0
    4.9282    1.8030   16.9858 H   0  0  0  0  0  0  0  0  0  0  0  0
    4.7940    1.3057   19.0949 C   0  0  0  0  0  0  0  0  0  0  0  0
    3.8668    1.8493   19.2411 H   0  0  0  0  0  0  0  0  0  0  0  0
    5.4154    0.6239   20.1416 C   0  0  0  0  0  0  0  0  0  0  0  0
    4.9887    0.6185   21.1425 H   0  0  0  0  0  0  0  0  0  0  0  0
  1  2  1  0
  2  3  2  3
  3  4  1  0
  4  5  1  0
  5  6  2  0
  5  7  2  0
  5  8  1  0
  8  9  1  0
  9 10  1  0
  9 11  1  0
  9 12  1  0
 12 13  1  0
 12 14  1  0
 12 15  1  0
 15 16  1  0
 16 17  1  0
 16 18  1  0
 16 19  1  0
 19 20  1  0
 19 21  1  0
  4 22  2  0
 22 23  1  0
 23 24  1  0
 23 25  1  0
 23 26  1  0
 26 27  1  0
 26 28  1  0
  2 29  1  0
 29 30  2  0
 30 31  1  0
 30 32  1  0
 32 33  2  0
 33 34  1  0
 33 35  1  0
 35 36  1  0
 35 37  2  0
 37 38  1  0
 26  3  1  0
 37 29  1  0
 19  8  1  0
M  END
>  <cnnaffinity>  (1) 
-5.4071

>  <filename>  (1) 
O=S(=O)(C1=NCCC1=Cc1cccnc1)N1CCOCC1

$$$$
