
     RDKit          3D

 34 35  0  0  0  0  0  0  0  0999 V2000
    5.3194    1.6323   16.6647 H   0  0  0  0  0  0  0  0  0  0  0  0
    5.7512    1.2348   17.5796 C   0  0  0  0  0  0  0  0  0  0  0  0
    6.9097    0.5712   17.4384 N   0  0  0  0  0  0  0  0  0  0  0  0
    7.4546    0.0362   18.5399 C   0  0  0  0  0  0  0  0  0  0  0  0
    8.4040   -0.4885   18.4369 H   0  0  0  0  0  0  0  0  0  0  0  0
    6.8742    0.1012   19.8284 C   0  0  0  0  0  0  0  0  0  0  0  0
    7.5162   -0.5680   20.9525 N   0  0  0  0  0  0  0  0  0  0  0  0
    7.8395   -1.5026   20.7194 H   0  0  0  0  0  0  0  0  0  0  0  0
    6.4929   -1.0627   22.1827 S   0  0  0  0  0  0  0  0  0  0  0  0
    5.6638   -2.1267   21.6753 O   0  0  0  0  0  0  0  0  0  0  0  0
    6.0126    0.1365   22.8338 O   0  0  0  0  0  0  0  0  0  0  0  0
    7.7817   -1.6998   23.0209 N   0  0  0  0  0  0  0  0  0  0  0  0
    8.4251   -0.9723   22.7139 H   0  0  0  0  0  0  0  0  0  0  0  0
    7.6196   -1.6834   24.4983 C   0  0  0  0  0  0  0  0  0  0  0  0
    6.5581   -1.8368   24.7499 H   0  0  0  0  0  0  0  0  0  0  0  0
    8.1039   -0.3367   25.0661 C   0  0  0  0  0  0  0  0  0  0  0  0
    7.5475    0.4923   24.6244 H   0  0  0  0  0  0  0  0  0  0  0  0
    9.1516   -0.2203   24.7441 H   0  0  0  0  0  0  0  0  0  0  0  0
    8.0396   -0.3034   26.5987 C   0  0  0  0  0  0  0  0  0  0  0  0
    8.3949    0.6654   26.9699 H   0  0  0  0  0  0  0  0  0  0  0  0
    6.9912   -0.3954   26.9223 H   0  0  0  0  0  0  0  0  0  0  0  0
    8.8765   -1.4433   27.1891 C   0  0  0  0  0  0  0  0  0  0  0  0
    9.9250   -1.2732   26.9101 H   0  0  0  0  0  0  0  0  0  0  0  0
    8.8680   -1.3938   28.2770 H   0  0  0  0  0  0  0  0  0  0  0  0
    8.4179   -2.8145   26.6654 C   0  0  0  0  0  0  0  0  0  0  0  0
    7.4081   -3.0441   27.0476 H   0  0  0  0  0  0  0  0  0  0  0  0
    9.0754   -3.6064   27.0464 H   0  0  0  0  0  0  0  0  0  0  0  0
    8.4385   -2.8302   25.1199 C   0  0  0  0  0  0  0  0  0  0  0  0
    8.0984   -3.7943   24.7334 H   0  0  0  0  0  0  0  0  0  0  0  0
    9.4802   -2.7160   24.7900 H   0  0  0  0  0  0  0  0  0  0  0  0
    5.6855    0.8368   19.9641 C   0  0  0  0  0  0  0  0  0  0  0  0
    5.2176    1.0003   20.9292 H   0  0  0  0  0  0  0  0  0  0  0  0
    5.1115    1.3877   18.8104 C   0  0  0  0  0  0  0  0  0  0  0  0
    4.1883    1.9548   18.8689 H   0  0  0  0  0  0  0  0  0  0  0  0
  1  2  1  0
  2  3  2  0
  3  4  1  0
  4  5  1  0
  4  6  2  0
  6  7  1  0
  7  8  1  0
  7  9  1  0
  9 10  2  0
  9 11  2  0
  9 12  1  0
 12 13  1  0
 12 14  1  0
 14 15  1  0
 14 16  1  0
 16 17  1  0
 16 18  1  0
 16 19  1  0
 19 20  1  0
 19 21  1  0
 19 22  1  0
 22 23  1  0
 22 24  1  0
 22 25  1  0
 25 26  1  0
 25 27  1  0
 25 28  1  0
 28 29  1  0
 28 30  1  0
  6 31  1  0
 31 32  1  0
 31 33  2  0
 33 34  1  0
 33  2  1  0
 28 14  1  0
M  END
>  <cnnaffinity>  (1) 
-4.46214

>  <filename>  (1) 
O=S(=O)(Nc1cccnc1)NC1CCCCC1

$$$$
