
     RDKit          3D

 48 51  0  0  0  0  0  0  0  0999 V2000
    6.3795    4.1373   24.0474 O   0  0  0  0  0  0  0  0  0  0  0  0
    7.2987    3.1907   24.6481 S   0  0  0  0  0  0  0  0  0  0  0  0
    8.7285    3.4370   24.6931 O   0  0  0  0  0  0  0  0  0  0  0  0
    6.7456    2.8600   26.2989 C   0  0  0  0  0  0  0  0  0  0  0  0
    5.3046    2.3398   26.3031 C   0  0  0  0  0  0  0  0  0  0  0  0
    5.2386    1.0396   25.4880 C   0  0  0  0  0  0  0  0  0  0  0  0
    5.6948    1.1656   24.0312 C   0  0  0  0  0  0  0  0  0  0  0  0
    7.0657    1.6812   23.9448 N   0  0  0  0  0  0  0  0  0  0  0  0
    7.8452    1.3982   22.7102 C   0  0  0  0  0  0  0  0  0  0  0  0
    7.8175   -0.0441   22.2362 C   0  0  0  0  0  0  0  0  0  0  0  0
    8.3739   -1.0452   22.8972 N   0  0  0  0  0  0  0  0  0  0  0  0
    8.0592   -2.1336   22.1529 C   0  0  0  0  0  0  0  0  0  0  0  0
    8.4808   -3.5148   22.5625 C   0  0  0  0  0  0  0  0  0  0  0  0
    8.4111   -3.8260   24.0816 C   0  0  0  0  0  0  0  0  0  0  0  0
    8.2621   -5.3675   24.1752 C   0  0  0  0  0  0  0  0  0  0  0  0
    8.0383   -5.8861   22.7333 C   0  0  0  0  0  0  0  0  0  0  0  0
    7.6800   -4.6504   21.9016 C   0  0  0  0  0  0  0  0  0  0  0  0
    6.6086   -4.4127   21.9772 H   0  0  0  0  0  0  0  0  0  0  0  0
    7.9212   -4.7546   20.8377 H   0  0  0  0  0  0  0  0  0  0  0  0
    7.2564   -6.6535   22.6893 H   0  0  0  0  0  0  0  0  0  0  0  0
    8.9585   -6.3424   22.3440 H   0  0  0  0  0  0  0  0  0  0  0  0
    7.4129   -5.6393   24.8135 H   0  0  0  0  0  0  0  0  0  0  0  0
    9.1471   -5.8361   24.6212 H   0  0  0  0  0  0  0  0  0  0  0  0
    7.5541   -3.3267   24.5535 H   0  0  0  0  0  0  0  0  0  0  0  0
    9.3053   -3.4628   24.6022 H   0  0  0  0  0  0  0  0  0  0  0  0
    9.5383   -3.5798   22.2738 H   0  0  0  0  0  0  0  0  0  0  0  0
    7.4032   -1.8597   21.0366 N   0  0  0  0  0  0  0  0  0  0  0  0
    7.2270   -0.5157   21.0978 N   0  0  0  0  0  0  0  0  0  0  0  0
    6.5856    0.1335   20.0024 C   0  0  0  0  0  0  0  0  0  0  0  0
    5.4279    0.9011   20.1615 C   0  0  0  0  0  0  0  0  0  0  0  0
    4.8540    1.4775   19.0230 C   0  0  0  0  0  0  0  0  0  0  0  0
    5.4637    1.2819   17.7786 C   0  0  0  0  0  0  0  0  0  0  0  0
    6.5671    0.5282   17.6188 N   0  0  0  0  0  0  0  0  0  0  0  0
    7.0987   -0.0444   18.7016 C   0  0  0  0  0  0  0  0  0  0  0  0
    7.9746   -0.6700   18.5426 H   0  0  0  0  0  0  0  0  0  0  0  0
    5.0622    1.7383   16.8753 H   0  0  0  0  0  0  0  0  0  0  0  0
    3.9541    2.0797   19.0878 H   0  0  0  0  0  0  0  0  0  0  0  0
    4.9762    1.0170   21.1504 H   0  0  0  0  0  0  0  0  0  0  0  0
    8.8958    1.6119   22.9421 H   0  0  0  0  0  0  0  0  0  0  0  0
    7.5509    2.0603   21.8829 H   0  0  0  0  0  0  0  0  0  0  0  0
    4.9944    1.7557   23.4165 H   0  0  0  0  0  0  0  0  0  0  0  0
    5.7267    0.1555   23.6048 H   0  0  0  0  0  0  0  0  0  0  0  0
    5.8830    0.2893   25.9652 H   0  0  0  0  0  0  0  0  0  0  0  0
    4.2233    0.6319   25.4945 H   0  0  0  0  0  0  0  0  0  0  0  0
    4.6337    3.1086   25.8941 H   0  0  0  0  0  0  0  0  0  0  0  0
    4.9791    2.1591   27.3354 H   0  0  0  0  0  0  0  0  0  0  0  0
    6.8867    3.8047   26.8272 H   0  0  0  0  0  0  0  0  0  0  0  0
    7.4728    2.1314   26.6697 H   0  0  0  0  0  0  0  0  0  0  0  0
  1  2  2  0
  2  3  2  0
  2  4  1  0
  4  5  1  0
  5  6  1  0
  6  7  1  0
  7  8  1  0
  8  9  1  0
  9 10  1  0
 10 11  2  0
 11 12  1  0
 12 13  1  0
 13 14  1  0
 14 15  1  0
 15 16  1  0
 16 17  1  0
 17 18  1  0
 17 19  1  0
 16 20  1  0
 16 21  1  0
 15 22  1  0
 15 23  1  0
 14 24  1  0
 14 25  1  0
 13 26  1  0
 12 27  2  0
 27 28  1  0
 28 29  1  0
 29 30  2  0
 30 31  1  0
 31 32  2  0
 32 33  1  0
 33 34  2  0
 34 35  1  0
 32 36  1  0
 31 37  1  0
 30 38  1  0
  9 39  1  0
  9 40  1  0
  7 41  1  0
  7 42  1  0
  6 43  1  0
  6 44  1  0
  5 45  1  0
  5 46  1  0
  4 47  1  0
  4 48  1  0
  8  2  1  0
 28 10  1  0
 34 29  1  0
 17 13  1  0
M  END
>  <cnnaffinity>  (1) 
-5.88739

>  <filename>  (1) 
O=S1(=O)CCCCN1Cc1nc(C2CCCC2)nn1-c1cccnc1

$$$$
