
     RDKit          3D

 49 52  0  0  0  0  0  0  0  0999 V2000
    9.5345    2.1595   24.3636 O   0  0  0  0  0  0  0  0  0  0  0  0
    9.6479    3.5929   23.8695 S   0  0  0  0  0  0  0  0  0  0  0  0
   11.0489    3.5443   22.6976 C   0  0  0  0  0  0  0  0  0  0  0  0
   10.8442    2.5036   21.5614 C   0  0  0  0  0  0  0  0  0  0  0  0
    9.6264    1.6741   21.8271 N   0  0  0  0  0  4  0  0  0  0  0  0
    9.6378    0.3742   21.0968 C   0  0  0  0  0  0  0  0  0  0  0  0
    8.6053   -0.6359   21.5053 C   0  0  0  0  0  0  0  0  0  0  0  0
    8.7962   -1.5592   22.4313 N   0  0  0  0  0  0  0  0  0  0  0  0
    7.5870   -2.1696   22.5162 C   0  0  0  0  0  0  0  0  0  0  0  0
    7.3188   -3.1971   23.5714 C   0  0  0  0  0  0  0  0  0  0  0  0
    6.4918   -2.5834   24.7364 C   0  0  0  0  0  0  0  0  0  0  0  0
    6.0170   -3.6204   25.7222 C   0  0  0  0  0  0  0  0  0  0  0  0
    6.0665   -4.9345   25.4897 C   0  0  0  0  0  0  0  0  0  0  0  0
    6.5672   -5.5257   24.1896 C   0  0  0  0  0  0  0  0  0  0  0  0
    6.6508   -4.4880   23.0535 C   0  0  0  0  0  0  0  0  0  0  0  0
    5.6445   -4.2454   22.6841 H   0  0  0  0  0  0  0  0  0  0  0  0
    7.2110   -4.9064   22.2081 H   0  0  0  0  0  0  0  0  0  0  0  0
    5.9221   -6.3606   23.8918 H   0  0  0  0  0  0  0  0  0  0  0  0
    7.5608   -5.9702   24.3613 H   0  0  0  0  0  0  0  0  0  0  0  0
    5.7719   -5.6346   26.2730 H   0  0  0  0  0  0  0  0  0  0  0  0
    5.5861   -3.2454   26.6505 H   0  0  0  0  0  0  0  0  0  0  0  0
    5.6213   -2.0496   24.3308 H   0  0  0  0  0  0  0  0  0  0  0  0
    7.0876   -1.8185   25.2524 H   0  0  0  0  0  0  0  0  0  0  0  0
    8.3103   -3.4567   23.9622 H   0  0  0  0  0  0  0  0  0  0  0  0
    6.6763   -1.7109   21.6756 N   0  0  0  0  0  0  0  0  0  0  0  0
    7.3420   -0.7370   21.0010 N   0  0  0  0  0  0  0  0  0  0  0  0
    6.6897   -0.0411   19.9450 C   0  0  0  0  0  0  0  0  0  0  0  0
    5.4823    0.6327   20.1767 C   0  0  0  0  0  0  0  0  0  0  0  0
    4.8984    1.3257   19.1105 C   0  0  0  0  0  0  0  0  0  0  0  0
    5.5201    1.3001   17.8570 C   0  0  0  0  0  0  0  0  0  0  0  0
    6.6564    0.6226   17.6215 N   0  0  0  0  0  0  0  0  0  0  0  0
    7.2160   -0.0384   18.6403 C   0  0  0  0  0  0  0  0  0  0  0  0
    8.1233   -0.6010   18.4107 H   0  0  0  0  0  0  0  0  0  0  0  0
    5.0882    1.8260   17.0071 H   0  0  0  0  0  0  0  0  0  0  0  0
    3.9723    1.8789   19.2346 H   0  0  0  0  0  0  0  0  0  0  0  0
    5.0185    0.6045   21.1644 H   0  0  0  0  0  0  0  0  0  0  0  0
    9.5606    0.5399   20.0155 H   0  0  0  0  0  0  0  0  0  0  0  0
   10.5919   -0.1304   21.2900 H   0  0  0  0  0  0  0  0  0  0  0  0
    8.3626    2.4820   21.6517 C   0  0  0  0  0  0  0  0  0  0  0  0
    8.4358    3.7660   22.5103 C   0  0  0  0  0  0  0  0  0  0  0  0
    7.4781    4.0393   22.9567 H   0  0  0  0  0  0  0  0  0  0  0  0
    8.7855    4.6235   21.9247 H   0  0  0  0  0  0  0  0  0  0  0  0
    8.2350    2.7532   20.5967 H   0  0  0  0  0  0  0  0  0  0  0  0
    7.4986    1.8666   21.9468 H   0  0  0  0  0  0  0  0  0  0  0  0
    9.6453    1.5273   22.9076 H   0  0  0  0  0  0  0  0  0  0  0  0
   11.7387    1.8707   21.4846 H   0  0  0  0  0  0  0  0  0  0  0  0
   10.7472    2.9867   20.5808 H   0  0  0  0  0  0  0  0  0  0  0  0
   11.1470    4.5624   22.3127 H   0  0  0  0  0  0  0  0  0  0  0  0
   11.9254    3.3055   23.3017 H   0  0  0  0  0  0  0  0  0  0  0  0
  1  2  2  0
  2  3  1  0
  3  4  1  0
  4  5  1  0
  5  6  1  0
  6  7  1  0
  7  8  2  0
  8  9  1  0
  9 10  1  0
 10 11  1  0
 11 12  1  0
 12 13  2  0
 13 14  1  0
 14 15  1  0
 15 16  1  0
 15 17  1  0
 14 18  1  0
 14 19  1  0
 13 20  1  0
 12 21  1  0
 11 22  1  0
 11 23  1  0
 10 24  1  0
  9 25  2  0
 25 26  1  0
 26 27  1  0
 27 28  2  0
 28 29  1  0
 29 30  2  0
 30 31  1  0
 31 32  2  0
 32 33  1  0
 30 34  1  0
 29 35  1  0
 28 36  1  0
  6 37  1  0
  6 38  1  0
  5 39  1  0
 39 40  1  0
 40 41  1  0
 40 42  1  0
 39 43  1  0
 39 44  1  0
  5 45  1  0
  4 46  1  0
  4 47  1  0
  3 48  1  0
  3 49  1  0
 40  2  1  0
 26  7  1  0
 32 27  1  0
 15 10  1  0
M  CHG  1   5   1
M  END
>  <cnnaffinity>  (1) 
-5.78516

>  <filename>  (1) 
O=S1CC[NH+](Cc2nc(C3CC=CCC3)nn2-c2cccnc2)CC1

$$$$
