
     RDKit          3D

 48 51  0  0  0  0  0  0  0  0999 V2000
    7.9679    0.5858   24.2439 O   0  0  0  0  0  0  0  0  0  0  0  0
    8.9481    1.4259   23.6555 C   0  0  2  0  0  0  0  0  0  0  0  0
    8.8514    2.8800   24.1402 C   0  0  0  0  0  0  0  0  0  0  0  0
    9.4115    3.7683   23.0037 C   0  0  0  0  0  0  0  0  0  0  0  0
    9.5535    2.8162   21.7927 C   0  0  0  0  0  0  0  0  0  0  0  0
    8.8078    1.5351   22.1384 C   0  0  1  0  0  0  0  0  0  0  0  0
    9.3080    0.3290   21.3128 C   0  0  0  0  0  0  0  0  0  0  0  0
    8.4437   -0.8696   21.4938 C   0  0  0  0  0  0  0  0  0  0  0  0
    8.6644   -1.7970   22.3932 N   0  0  0  0  0  0  0  0  0  0  0  0
    7.4458   -2.3901   22.5348 C   0  0  0  0  0  0  0  0  0  0  0  0
    7.2344   -3.2968   23.7115 C   0  0  0  0  0  0  0  0  0  0  0  0
    8.3379   -4.3864   23.7680 C   0  0  0  0  0  0  0  0  0  0  0  0
    8.3874   -5.1016   25.0943 C   0  0  0  0  0  0  0  0  0  0  0  0
    7.7952   -4.6438   26.2011 C   0  0  0  0  0  0  0  0  0  0  0  0
    7.0636   -3.3246   26.2716 C   0  0  0  0  0  0  0  0  0  0  0  0
    7.2886   -2.4615   25.0223 C   0  0  0  0  0  0  0  0  0  0  0  0
    6.5759   -1.6282   24.9799 H   0  0  0  0  0  0  0  0  0  0  0  0
    8.2882   -2.0088   25.0751 H   0  0  0  0  0  0  0  0  0  0  0  0
    5.9922   -3.5195   26.4227 H   0  0  0  0  0  0  0  0  0  0  0  0
    7.3931   -2.7734   27.1630 H   0  0  0  0  0  0  0  0  0  0  0  0
    7.8190   -5.2465   27.1080 H   0  0  0  0  0  0  0  0  0  0  0  0
    8.9847   -6.0107   25.1402 H   0  0  0  0  0  0  0  0  0  0  0  0
    8.2114   -5.1074   22.9500 H   0  0  0  0  0  0  0  0  0  0  0  0
    9.3102   -3.8997   23.5975 H   0  0  0  0  0  0  0  0  0  0  0  0
    6.2453   -3.7542   23.5924 H   0  0  0  0  0  0  0  0  0  0  0  0
    6.5263   -1.9722   21.6844 N   0  0  0  0  0  0  0  0  0  0  0  0
    7.1878   -1.0120   20.9733 N   0  0  0  0  0  0  0  0  0  0  0  0
    6.5494   -0.2794   19.9251 C   0  0  0  0  0  0  0  0  0  0  0  0
    5.3711    0.4387   20.1631 C   0  0  0  0  0  0  0  0  0  0  0  0
    4.8643    1.2349   19.1291 C   0  0  0  0  0  0  0  0  0  0  0  0
    5.5239    1.2512   17.8954 C   0  0  0  0  0  0  0  0  0  0  0  0
    6.6236    0.5274   17.6426 N   0  0  0  0  0  0  0  0  0  0  0  0
    7.1185   -0.2220   18.6373 C   0  0  0  0  0  0  0  0  0  0  0  0
    8.0140   -0.7993   18.4073 H   0  0  0  0  0  0  0  0  0  0  0  0
    5.1492    1.8657   17.0781 H   0  0  0  0  0  0  0  0  0  0  0  0
    3.9826    1.8501   19.2699 H   0  0  0  0  0  0  0  0  0  0  0  0
    4.8816    0.3788   21.1361 H   0  0  0  0  0  0  0  0  0  0  0  0
   10.3178    0.0554   21.6350 H   0  0  0  0  0  0  0  0  0  0  0  0
    9.3657    0.5838   20.2506 H   0  0  0  0  0  0  0  0  0  0  0  0
    7.7379    1.6948   21.9331 H   0  0  0  0  0  0  0  0  0  0  0  0
    9.1030    3.2125   20.8794 H   0  0  0  0  0  0  0  0  0  0  0  0
   10.6151    2.6078   21.6041 H   0  0  0  0  0  0  0  0  0  0  0  0
    8.6938    4.5624   22.7836 H   0  0  0  0  0  0  0  0  0  0  0  0
   10.3604    4.2586   23.2628 H   0  0  0  0  0  0  0  0  0  0  0  0
    7.7896    3.1229   24.2973 H   0  0  0  0  0  0  0  0  0  0  0  0
    9.3410    3.0030   25.1104 H   0  0  0  0  0  0  0  0  0  0  0  0
    9.9502    1.0133   23.8735 H   0  0  0  0  0  0  0  0  0  0  0  0
    7.6045    1.0569   25.0030 H   0  0  0  0  0  0  0  0  0  0  0  0
  1  2  1  0
  2  3  1  0
  3  4  1  0
  4  5  1  0
  5  6  1  0
  6  7  1  0
  7  8  1  0
  8  9  2  0
  9 10  1  0
 10 11  1  0
 11 12  1  0
 12 13  1  0
 13 14  2  0
 14 15  1  0
 15 16  1  0
 16 17  1  0
 16 18  1  0
 15 19  1  0
 15 20  1  0
 14 21  1  0
 13 22  1  0
 12 23  1  0
 12 24  1  0
 11 25  1  0
 10 26  2  0
 26 27  1  0
 27 28  1  0
 28 29  2  0
 29 30  1  0
 30 31  2  0
 31 32  1  0
 32 33  2  0
 33 34  1  0
 31 35  1  0
 30 36  1  0
 29 37  1  0
  7 38  1  0
  7 39  1  0
  6 40  1  1
  5 41  1  0
  5 42  1  0
  4 43  1  0
  4 44  1  0
  3 45  1  0
  3 46  1  0
  2 47  1  6
  1 48  1  0
  6  2  1  0
 27  8  1  0
 33 28  1  0
 16 11  1  0
M  END
>  <cnnaffinity>  (1) 
-6.07238

>  <filename>  (1) 
O[C@@H]1CCC[C@H]1Cc1nc(C2CC=CCC2)nn1-c1cccnc1

$$$$
