
     RDKit          3D

 30 31  0  0  0  0  0  0  0  0999 V2000
    7.5245   -2.4708   22.0257 H   0  0  0  0  0  0  0  0  0  0  0  0
    7.5892   -1.9450   22.8374 O   0  0  0  0  0  0  0  0  0  0  0  0
    6.9268   -0.8078   22.3503 C   0  0  2  0  0  0  0  0  0  0  0  0
    5.8465   -0.9175   22.4797 H   0  0  0  0  0  0  0  0  0  0  0  0
    7.2550   -0.8833   20.9387 N   0  0  0  0  0  0  0  0  0  0  0  0
    8.2632   -0.9440   20.8926 H   0  0  0  0  0  0  0  0  0  0  0  0
    6.6488   -0.1063   19.9355 C   0  0  0  0  0  0  0  0  0  0  0  0
    7.1918    0.0001   18.6183 C   0  0  0  0  0  0  0  0  0  0  0  0
    8.1332   -0.4880   18.3785 H   0  0  0  0  0  0  0  0  0  0  0  0
    6.6248    0.6645   17.5979 N   0  0  0  0  0  0  0  0  0  0  0  0
    5.4617    1.2916   17.8381 C   0  0  0  0  0  0  0  0  0  0  0  0
    5.0109    1.8338   17.0064 H   0  0  0  0  0  0  0  0  0  0  0  0
    4.8509    1.2730   19.0921 C   0  0  0  0  0  0  0  0  0  0  0  0
    3.9238    1.8131   19.2488 H   0  0  0  0  0  0  0  0  0  0  0  0
    5.4415    0.5765   20.1534 C   0  0  0  0  0  0  0  0  0  0  0  0
    4.9949    0.5711   21.1461 H   0  0  0  0  0  0  0  0  0  0  0  0
    7.3406    0.4663   23.0850 C   0  0  0  0  0  0  0  0  0  0  0  0
    6.9935    0.3416   24.1192 H   0  0  0  0  0  0  0  0  0  0  0  0
    6.7710    1.2969   22.6612 H   0  0  0  0  0  0  0  0  0  0  0  0
    8.8226    0.7891   23.0791 C   0  0  0  0  0  0  0  0  0  0  0  0
    9.6810    0.1369   23.9805 C   0  0  0  0  0  0  0  0  0  0  0  0
    9.2550   -0.6018   24.6566 H   0  0  0  0  0  0  0  0  0  0  0  0
   11.0484    0.4099   24.0020 C   0  0  0  0  0  0  0  0  0  0  0  0
   11.6858   -0.1022   24.7150 H   0  0  0  0  0  0  0  0  0  0  0  0
   11.5965    1.3383   23.1137 C   0  0  0  0  0  0  0  0  0  0  0  0
   12.6654    1.5387   23.1164 H   0  0  0  0  0  0  0  0  0  0  0  0
   10.7761    2.0069   22.2093 C   0  0  0  0  0  0  0  0  0  0  0  0
   11.1712    2.7434   21.5123 H   0  0  0  0  0  0  0  0  0  0  0  0
    9.4062    1.7246   22.2024 C   0  0  0  0  0  0  0  0  0  0  0  0
    8.4346    2.5766   21.0485 Cl  0  0  0  0  0  0  0  0  0  0  0  0
  1  2  1  0
  2  3  1  0
  3  4  1  6
  3  5  1  0
  5  6  1  0
  5  7  1  0
  7  8  2  0
  8  9  1  0
  8 10  1  0
 10 11  2  0
 11 12  1  0
 11 13  1  0
 13 14  1  0
 13 15  2  0
 15 16  1  0
  3 17  1  0
 17 18  1  0
 17 19  1  0
 17 20  1  0
 20 21  2  0
 21 22  1  0
 21 23  1  0
 23 24  1  0
 23 25  2  0
 25 26  1  0
 25 27  1  0
 27 28  1  0
 27 29  2  0
 29 30  1  0
 15  7  1  0
 29 20  1  0
M  END
>  <cnnaffinity>  (1) 
-4.80892

>  <filename>  (1) 
O[C@@H](Cc1ccccc1Cl)Nc1cccnc1

$$$$
