
     RDKit          3D

 31 33  0  0  0  0  0  0  0  0999 V2000
    7.0520   -0.5222   28.5791 H   0  0  0  0  0  0  0  0  0  0  0  0
    6.6888   -0.5002   27.6830 O   0  0  0  0  0  0  0  0  0  0  0  0
    7.7822   -0.5908   26.7831 C   0  0  2  0  0  0  0  0  0  0  0  0
    8.5232    0.1797   27.0279 H   0  0  0  0  0  0  0  0  0  0  0  0
    7.3162   -0.3799   25.3372 C   0  0  0  0  0  0  0  0  0  0  0  0
    6.2375   -0.5617   25.2602 H   0  0  0  0  0  0  0  0  0  0  0  0
    7.4978    0.6545   25.0223 H   0  0  0  0  0  0  0  0  0  0  0  0
    8.0898   -1.3188   24.5415 N   0  0  0  0  0  0  0  0  0  0  0  0
    8.0643   -1.3474   23.1676 C   0  0  0  0  0  0  0  0  0  0  0  0
    8.8368   -2.1686   22.3832 C   0  0  0  0  0  0  0  0  0  0  0  0
    9.5477   -2.8919   22.7266 H   0  0  0  0  0  0  0  0  0  0  0  0
    8.5919   -1.9079   20.7144 S   0  0  0  0  0  0  0  0  0  0  0  0
    7.3824   -0.7013   21.0129 C   0  0  0  0  0  0  0  0  0  0  0  0
    6.6691    0.0000   19.9137 C   0  0  0  0  0  0  0  0  0  0  0  0
    7.1743    0.0583   18.5968 C   0  0  0  0  0  0  0  0  0  0  0  0
    8.1212   -0.4213   18.3610 H   0  0  0  0  0  0  0  0  0  0  0  0
    6.5662    0.6778   17.5774 N   0  0  0  0  0  0  0  0  0  0  0  0
    5.4009    1.2924   17.8394 C   0  0  0  0  0  0  0  0  0  0  0  0
    4.9152    1.7805   16.9971 H   0  0  0  0  0  0  0  0  0  0  0  0
    4.8060    1.3092   19.1060 C   0  0  0  0  0  0  0  0  0  0  0  0
    3.8728    1.8434   19.2603 H   0  0  0  0  0  0  0  0  0  0  0  0
    5.4472    0.6508   20.1575 C   0  0  0  0  0  0  0  0  0  0  0  0
    5.0035    0.6290   21.1567 H   0  0  0  0  0  0  0  0  0  0  0  0
    7.2325   -0.5076   22.3529 C   0  0  0  0  0  0  0  0  0  0  0  0
    6.5575    0.2277   22.7791 H   0  0  0  0  0  0  0  0  0  0  0  0
    8.8711   -2.2438   25.3403 C   0  0  0  0  0  0  0  0  0  0  0  0
    8.6655   -3.2834   25.0523 H   0  0  0  0  0  0  0  0  0  0  0  0
    9.9432   -2.0652   25.1821 H   0  0  0  0  0  0  0  0  0  0  0  0
    8.4478   -1.9686   26.7843 C   0  0  0  0  0  0  0  0  0  0  0  0
    9.2959   -1.9995   27.4663 H   0  0  0  0  0  0  0  0  0  0  0  0
    7.7221   -2.7127   27.1216 H   0  0  0  0  0  0  0  0  0  0  0  0
  1  2  1  0
  2  3  1  0
  3  4  1  1
  3  5  1  0
  5  6  1  0
  5  7  1  0
  5  8  1  0
  8  9  1  0
  9 10  2  0
 10 11  1  0
 10 12  1  0
 12 13  1  0
 13 14  1  0
 14 15  2  0
 15 16  1  0
 15 17  1  0
 17 18  2  0
 18 19  1  0
 18 20  1  0
 20 21  1  0
 20 22  2  0
 22 23  1  0
 13 24  2  0
 24 25  1  0
  8 26  1  0
 26 27  1  0
 26 28  1  0
 26 29  1  0
 29 30  1  0
 29 31  1  0
 29  3  1  0
 24  9  1  0
 22 14  1  0
M  END
>  <cnnaffinity>  (1) 
-4.68692

>  <filename>  (1) 
O[C@H]1CCN(c2csc(-c3cccnc3)c2)C1

$$$$
