
     RDKit          3D

 40 42  0  0  0  0  0  0  0  0999 V2000
    5.9744   -1.9760   21.3055 H   0  0  0  0  0  0  0  0  0  0  0  0
    6.5967   -1.5035   21.8705 O   0  0  0  0  0  0  0  0  0  0  0  0
    7.4514   -0.7504   21.0162 C   0  0  1  0  0  0  0  0  0  0  0  0
    8.1369   -1.4350   20.4858 H   0  0  0  0  0  0  0  0  0  0  0  0
    6.6488   -0.0433   19.9364 C   0  0  0  0  0  0  0  0  0  0  0  0
    7.1367   -0.0332   18.6177 C   0  0  0  0  0  0  0  0  0  0  0  0
    8.0609   -0.5624   18.3754 H   0  0  0  0  0  0  0  0  0  0  0  0
    6.5612    0.6012   17.5873 N   0  0  0  0  0  0  0  0  0  0  0  0
    5.4254    1.2674   17.8406 C   0  0  0  0  0  0  0  0  0  0  0  0
    4.9829    1.7996   17.0004 H   0  0  0  0  0  0  0  0  0  0  0  0
    4.8195    1.2912   19.0998 C   0  0  0  0  0  0  0  0  0  0  0  0
    3.8959    1.8415   19.2386 H   0  0  0  0  0  0  0  0  0  0  0  0
    5.4268    0.6171   20.1612 C   0  0  0  0  0  0  0  0  0  0  0  0
    4.9605    0.6041   21.1494 H   0  0  0  0  0  0  0  0  0  0  0  0
    8.3680    0.1219   21.9214 C   0  0  0  0  0  0  0  0  0  0  0  0
    9.1975   -0.7907   22.8497 C   0  0  0  0  0  0  0  0  0  0  0  0
   10.0463   -0.2259   23.2632 H   0  0  0  0  0  0  0  0  0  0  0  0
    9.6390   -1.5928   22.2332 H   0  0  0  0  0  0  0  0  0  0  0  0
    8.4153   -1.3273   23.9400 N   0  0  0  0  0  0  0  0  0  0  0  0
    7.4329   -1.4068   23.7170 H   0  0  0  0  0  0  0  0  0  0  0  0
    8.8722   -2.4040   24.6837 C   0  0  0  0  0  0  0  0  0  0  0  0
   10.1069   -3.0392   24.4450 C   0  0  0  0  0  0  0  0  0  0  0  0
   10.7472   -2.7242   23.6289 H   0  0  0  0  0  0  0  0  0  0  0  0
   10.5254   -4.0759   25.2815 C   0  0  0  0  0  0  0  0  0  0  0  0
   11.4829   -4.5605   25.0978 H   0  0  0  0  0  0  0  0  0  0  0  0
    9.7449   -4.4758   26.3667 C   0  0  0  0  0  0  0  0  0  0  0  0
   10.1041   -5.2486   27.0384 H   0  0  0  0  0  0  0  0  0  0  0  0
    8.5148   -3.8500   26.5975 C   0  0  0  0  0  0  0  0  0  0  0  0
    7.9090   -4.1283   27.4560 H   0  0  0  0  0  0  0  0  0  0  0  0
    8.0654   -2.8435   25.7461 C   0  0  0  0  0  0  0  0  0  0  0  0
    7.0831   -2.3910   25.8585 H   0  0  0  0  0  0  0  0  0  0  0  0
    7.7180    1.3410   22.6519 C   0  0  0  0  0  0  0  0  0  0  0  0
    6.6336    1.4494   22.5317 H   0  0  0  0  0  0  0  0  0  0  0  0
    7.9440    1.3596   23.7233 H   0  0  0  0  0  0  0  0  0  0  0  0
    8.5919    2.3080   21.8212 C   0  0  0  0  0  0  0  0  0  0  0  0
    8.0118    2.9369   21.1451 H   0  0  0  0  0  0  0  0  0  0  0  0
    9.2645    2.9415   22.4084 H   0  0  0  0  0  0  0  0  0  0  0  0
    9.2755    1.1061   21.1284 C   0  0  0  0  0  0  0  0  0  0  0  0
    9.1378    1.0676   20.0465 H   0  0  0  0  0  0  0  0  0  0  0  0
   10.3463    0.9983   21.3313 H   0  0  0  0  0  0  0  0  0  0  0  0
  1  2  1  0
  2  3  1  0
  3  4  1  6
  3  5  1  0
  5  6  2  0
  6  7  1  0
  6  8  1  0
  8  9  2  0
  9 10  1  0
  9 11  1  0
 11 12  1  0
 11 13  2  0
 13 14  1  0
  3 15  1  0
 15 16  1  0
 16 17  1  0
 16 18  1  0
 16 19  1  0
 19 20  1  0
 19 21  1  0
 21 22  2  0
 22 23  1  0
 22 24  1  0
 24 25  1  0
 24 26  2  0
 26 27  1  0
 26 28  1  0
 28 29  1  0
 28 30  2  0
 30 31  1  0
 15 32  1  0
 32 33  1  0
 32 34  1  0
 32 35  1  0
 35 36  1  0
 35 37  1  0
 35 38  1  0
 38 39  1  0
 38 40  1  0
 13  5  1  0
 38 15  1  0
 30 21  1  0
M  END
>  <cnnaffinity>  (1) 
-4.94416

>  <filename>  (1) 
O[C@@H](c1cccnc1)C1(CNc2ccccc2)CCC1

$$$$
