
     RDKit          3D

 48 51  0  0  0  0  0  0  0  0999 V2000
   11.0883    1.0206   23.4800 O   0  0  0  0  0  0  0  0  0  0  0  0
    9.8212    1.6327   23.3239 C   0  0  1  0  0  0  0  0  0  0  0  0
    9.7419    2.9325   24.1281 C   0  0  0  0  0  0  0  0  0  0  0  0
    8.3791    3.6276   23.9867 C   0  0  0  0  0  0  0  0  0  0  0  0
    8.0196    3.8531   22.5067 C   0  0  0  0  0  0  0  0  0  0  0  0
    8.0826    2.5266   21.7297 C   0  0  0  0  0  0  0  0  0  0  0  0
    9.4648    1.8650   21.8420 C   0  0  2  0  0  0  0  0  0  0  0  0
    9.5565    0.5730   20.9836 C   0  0  0  0  0  0  0  0  0  0  0  0
    8.6288   -0.5171   21.4060 C   0  0  0  0  0  0  0  0  0  0  0  0
    8.8494   -1.3770   22.3831 N   0  0  0  0  0  0  0  0  0  0  0  0
    7.6611   -2.0162   22.5136 C   0  0  0  0  0  0  0  0  0  0  0  0
    7.4330   -3.0515   23.5690 C   0  0  0  0  0  0  0  0  0  0  0  0
    6.4698   -4.1844   23.1545 C   0  0  0  0  0  0  0  0  0  0  0  0
    6.9231   -5.3644   24.0201 C   0  0  0  0  0  0  0  0  0  0  0  0
    8.2470   -5.0773   24.4454 O   0  0  0  0  0  0  0  0  0  0  0  0
    8.7029   -3.8215   23.9723 C   0  0  0  0  0  0  0  0  0  0  0  0
    9.2672   -3.3473   24.7848 H   0  0  0  0  0  0  0  0  0  0  0  0
    9.3902   -3.9500   23.1211 H   0  0  0  0  0  0  0  0  0  0  0  0
    6.9147   -6.3130   23.4663 H   0  0  0  0  0  0  0  0  0  0  0  0
    6.2877   -5.4952   24.9082 H   0  0  0  0  0  0  0  0  0  0  0  0
    6.5998   -4.4053   22.0888 H   0  0  0  0  0  0  0  0  0  0  0  0
    5.4208   -3.9236   23.3122 H   0  0  0  0  0  0  0  0  0  0  0  0
    7.0477   -2.5334   24.4561 H   0  0  0  0  0  0  0  0  0  0  0  0
    6.7283   -1.6312   21.6623 N   0  0  0  0  0  0  0  0  0  0  0  0
    7.3617   -0.6833   20.9224 N   0  0  0  0  0  0  0  0  0  0  0  0
    6.6570    0.0028   19.8982 C   0  0  0  0  0  0  0  0  0  0  0  0
    5.4403    0.6397   20.1652 C   0  0  0  0  0  0  0  0  0  0  0  0
    4.8117    1.3092   19.1095 C   0  0  0  0  0  0  0  0  0  0  0  0
    5.3979    1.2974   17.8387 C   0  0  0  0  0  0  0  0  0  0  0  0
    6.5556    0.6721   17.5740 N   0  0  0  0  0  0  0  0  0  0  0  0
    7.1663    0.0498   18.5895 C   0  0  0  0  0  0  0  0  0  0  0  0
    8.1120   -0.4363   18.3609 H   0  0  0  0  0  0  0  0  0  0  0  0
    4.9213    1.7890   16.9949 H   0  0  0  0  0  0  0  0  0  0  0  0
    3.8805    1.8389   19.2594 H   0  0  0  0  0  0  0  0  0  0  0  0
    5.0150    0.6049   21.1736 H   0  0  0  0  0  0  0  0  0  0  0  0
   10.5699    0.1719   21.0403 H   0  0  0  0  0  0  0  0  0  0  0  0
    9.3650    0.8205   19.9383 H   0  0  0  0  0  0  0  0  0  0  0  0
   10.2164    2.5694   21.4394 H   0  0  0  0  0  0  0  0  0  0  0  0
    7.3001    1.8563   22.1140 H   0  0  0  0  0  0  0  0  0  0  0  0
    7.8454    2.6233   20.6727 H   0  0  0  0  0  0  0  0  0  0  0  0
    8.7280    4.5731   22.0732 H   0  0  0  0  0  0  0  0  0  0  0  0
    7.0273    4.3111   22.4173 H   0  0  0  0  0  0  0  0  0  0  0  0
    7.6046    2.9965   24.4482 H   0  0  0  0  0  0  0  0  0  0  0  0
    8.3733    4.5739   24.5414 H   0  0  0  0  0  0  0  0  0  0  0  0
    9.9645    2.7008   25.1741 H   0  0  0  0  0  0  0  0  0  0  0  0
   10.5408    3.6032   23.7748 H   0  0  0  0  0  0  0  0  0  0  0  0
    9.1039    0.9142   23.7370 H   0  0  0  0  0  0  0  0  0  0  0  0
   11.7262    1.6197   23.0714 H   0  0  0  0  0  0  0  0  0  0  0  0
  1  2  1  0
  2  3  1  0
  3  4  1  0
  4  5  1  0
  5  6  1  0
  6  7  1  0
  7  8  1  0
  8  9  1  0
  9 10  2  0
 10 11  1  0
 11 12  1  0
 12 13  1  0
 13 14  1  0
 14 15  1  0
 15 16  1  0
 16 17  1  0
 16 18  1  0
 14 19  1  0
 14 20  1  0
 13 21  1  0
 13 22  1  0
 12 23  1  0
 11 24  2  0
 24 25  1  0
 25 26  1  0
 26 27  2  0
 27 28  1  0
 28 29  2  0
 29 30  1  0
 30 31  2  0
 31 32  1  0
 29 33  1  0
 28 34  1  0
 27 35  1  0
  8 36  1  0
  8 37  1  0
  7 38  1  6
  6 39  1  0
  6 40  1  0
  5 41  1  0
  5 42  1  0
  4 43  1  0
  4 44  1  0
  3 45  1  0
  3 46  1  0
  2 47  1  1
  1 48  1  0
  7  2  1  0
 25  9  1  0
 31 26  1  0
 16 12  1  0
M  END
>  <cnnaffinity>  (1) 
-5.66898

>  <filename>  (1) 
O[C@H]1CCCC[C@@H]1Cc1nc(C2CCOC2)nn1-c1cccnc1

$$$$
