
     RDKit          3D

 47 50  0  0  0  0  0  0  0  0999 V2000
   11.0932    1.0100   23.4827 O   0  0  0  0  0  0  0  0  0  0  0  0
    9.8271    1.6254   23.3267 C   0  0  1  0  0  0  0  0  0  0  0  0
    9.7483    2.9218   24.1340 C   0  0  0  0  0  0  0  0  0  0  0  0
    8.3867    3.6201   23.9946 C   0  0  0  0  0  0  0  0  0  0  0  0
    8.0269    3.8501   22.5151 C   0  0  0  0  0  0  0  0  0  0  0  0
    8.0878    2.5245   21.7354 C   0  0  0  0  0  0  0  0  0  0  0  0
    9.4682    1.8597   21.8464 C   0  0  2  0  0  0  0  0  0  0  0  0
    9.5538    0.5677   20.9864 C   0  0  0  0  0  0  0  0  0  0  0  0
    8.6252   -0.5221   21.4075 C   0  0  0  0  0  0  0  0  0  0  0  0
    8.8508   -1.3996   22.3617 N   0  0  0  0  0  0  0  0  0  0  0  0
    7.6672   -2.0568   22.4916 C   0  0  0  0  0  0  0  0  0  0  0  0
    7.4611   -3.1198   23.5078 C   0  0  0  0  0  0  0  0  0  0  0  0
    8.4880   -3.4664   24.4132 C   0  0  0  0  0  0  0  0  0  0  0  0
    8.2747   -4.4730   25.3590 C   0  0  0  0  0  0  0  0  0  0  0  0
    7.0463   -5.1417   25.4177 C   0  0  0  0  0  0  0  0  0  0  0  0
    6.0250   -4.7996   24.5249 C   0  0  0  0  0  0  0  0  0  0  0  0
    6.2252   -3.7962   23.5768 C   0  0  0  0  0  0  0  0  0  0  0  0
    5.4323   -3.5174   22.8837 H   0  0  0  0  0  0  0  0  0  0  0  0
    5.0667   -5.3107   24.5670 H   0  0  0  0  0  0  0  0  0  0  0  0
    6.8839   -5.9240   26.1577 H   0  0  0  0  0  0  0  0  0  0  0  0
    9.0685   -4.7373   26.0542 H   0  0  0  0  0  0  0  0  0  0  0  0
    9.4474   -2.9498   24.3763 H   0  0  0  0  0  0  0  0  0  0  0  0
    6.7328   -1.6509   21.6471 N   0  0  0  0  0  0  0  0  0  0  0  0
    7.3549   -0.6856   20.9278 N   0  0  0  0  0  0  0  0  0  0  0  0
    6.6555    0.0044   19.8992 C   0  0  0  0  0  0  0  0  0  0  0  0
    5.4385    0.6408   20.1656 C   0  0  0  0  0  0  0  0  0  0  0  0
    4.8115    1.3098   19.1088 C   0  0  0  0  0  0  0  0  0  0  0  0
    5.3981    1.2977   17.8378 C   0  0  0  0  0  0  0  0  0  0  0  0
    6.5548    0.6714   17.5733 N   0  0  0  0  0  0  0  0  0  0  0  0
    7.1649    0.0495   18.5893 C   0  0  0  0  0  0  0  0  0  0  0  0
    8.1097   -0.4367   18.3601 H   0  0  0  0  0  0  0  0  0  0  0  0
    4.9225    1.7901   16.9935 H   0  0  0  0  0  0  0  0  0  0  0  0
    3.8809    1.8384   19.2584 H   0  0  0  0  0  0  0  0  0  0  0  0
    5.0145    0.6040   21.1745 H   0  0  0  0  0  0  0  0  0  0  0  0
    9.3632    0.8171   19.9410 H   0  0  0  0  0  0  0  0  0  0  0  0
   10.5658    0.1632   21.0422 H   0  0  0  0  0  0  0  0  0  0  0  0
   10.2217    2.5638   21.4458 H   0  0  0  0  0  0  0  0  0  0  0  0
    7.8508    2.6201   20.6780 H   0  0  0  0  0  0  0  0  0  0  0  0
    7.3037    1.8547   22.1169 H   0  0  0  0  0  0  0  0  0  0  0  0
    7.0363    4.3118   22.4260 H   0  0  0  0  0  0  0  0  0  0  0  0
    8.7364    4.5698   22.0839 H   0  0  0  0  0  0  0  0  0  0  0  0
    7.6113    2.9892   24.4540 H   0  0  0  0  0  0  0  0  0  0  0  0
    8.3814    4.5641   24.5534 H   0  0  0  0  0  0  0  0  0  0  0  0
   10.5490    3.5915   23.7843 H   0  0  0  0  0  0  0  0  0  0  0  0
    9.9704    2.6850   25.1787 H   0  0  0  0  0  0  0  0  0  0  0  0
    9.1148    0.9040   23.7396 H   0  0  0  0  0  0  0  0  0  0  0  0
   11.7327    1.6081   23.0793 H   0  0  0  0  0  0  0  0  0  0  0  0
  1  2  1  0
  2  3  1  0
  3  4  1  0
  4  5  1  0
  5  6  1  0
  6  7  1  0
  7  8  1  0
  8  9  1  0
  9 10  2  0
 10 11  1  0
 11 12  1  0
 12 13  2  0
 13 14  1  0
 14 15  2  0
 15 16  1  0
 16 17  2  0
 17 18  1  0
 16 19  1  0
 15 20  1  0
 14 21  1  0
 13 22  1  0
 11 23  2  0
 23 24  1  0
 24 25  1  0
 25 26  2  0
 26 27  1  0
 27 28  2  0
 28 29  1  0
 29 30  2  0
 30 31  1  0
 28 32  1  0
 27 33  1  0
 26 34  1  0
  8 35  1  0
  8 36  1  0
  7 37  1  6
  6 38  1  0
  6 39  1  0
  5 40  1  0
  5 41  1  0
  4 42  1  0
  4 43  1  0
  3 44  1  0
  3 45  1  0
  2 46  1  1
  1 47  1  0
  7  2  1  0
 24  9  1  0
 30 25  1  0
 17 12  1  0
M  END
>  <cnnaffinity>  (1) 
-5.72304

>  <filename>  (1) 
O[C@H]1CCCC[C@@H]1Cc1nc(-c2ccccc2)nn1-c1cccnc1

$$$$
