
     RDKit          3D

 40 43  0  0  0  0  0  0  0  0999 V2000
    9.0635    0.9503   20.1978 H   0  0  0  0  0  0  0  0  0  0  0  0
    9.4911    0.6838   21.0234 O   0  0  0  0  0  0  0  0  0  0  0  0
    8.4247    0.3699   21.9199 C   0  0  1  0  0  0  0  0  0  0  0  0
    8.8845   -0.2489   22.7028 H   0  0  0  0  0  0  0  0  0  0  0  0
    7.8420    1.6317   22.5075 C   0  0  0  0  0  0  0  0  0  0  0  0
    7.6625    2.6907   21.6495 C   0  0  0  0  0  0  0  0  0  0  0  0
    8.0217    2.5975   20.6282 H   0  0  0  0  0  0  0  0  0  0  0  0
    6.9976    3.8376   21.9309 N   0  0  0  0  0  0  0  0  0  0  0  0
    6.4940    3.9603   23.1385 C   0  0  0  0  0  0  0  0  0  0  0  0
    5.9385    4.8723   23.3496 H   0  0  0  0  0  0  0  0  0  0  0  0
    6.6394    2.9803   24.1684 C   0  0  0  0  0  0  0  0  0  0  0  0
    6.1079    3.1664   25.4789 C   0  0  0  0  0  0  0  0  0  0  0  0
    5.5648    4.0841   25.6985 H   0  0  0  0  0  0  0  0  0  0  0  0
    6.2743    2.2049   26.4415 C   0  0  0  0  0  0  0  0  0  0  0  0
    5.8721    2.3539   27.4401 H   0  0  0  0  0  0  0  0  0  0  0  0
    6.9750    1.0065   26.1427 C   0  0  0  0  0  0  0  0  0  0  0  0
    7.0971    0.2512   26.9135 H   0  0  0  0  0  0  0  0  0  0  0  0
    7.4931    0.7967   24.8798 C   0  0  0  0  0  0  0  0  0  0  0  0
    8.0057   -0.1354   24.6624 H   0  0  0  0  0  0  0  0  0  0  0  0
    7.3459    1.7737   23.8492 C   0  0  0  0  0  0  0  0  0  0  0  0
    7.3557   -0.4978   21.1667 C   0  0  0  0  0  0  0  0  0  0  0  0
    6.6262    0.2467   20.0364 C   0  0  0  0  0  0  0  0  0  0  0  0
    7.2007    0.2670   18.7475 C   0  0  0  0  0  0  0  0  0  0  0  0
    8.1622   -0.2297   18.5912 H   0  0  0  0  0  0  0  0  0  0  0  0
    6.6309    0.7883   17.6568 N   0  0  0  0  0  0  0  0  0  0  0  0
    5.4161    1.3371   17.8156 C   0  0  0  0  0  0  0  0  0  0  0  0
    4.9622    1.7426   16.9158 H   0  0  0  0  0  0  0  0  0  0  0  0
    4.7459    1.3895   19.0424 C   0  0  0  0  0  0  0  0  0  0  0  0
    3.7614    1.8442   19.0926 H   0  0  0  0  0  0  0  0  0  0  0  0
    5.3662    0.8498   20.1755 C   0  0  0  0  0  0  0  0  0  0  0  0
    4.8919    0.8914   21.1594 H   0  0  0  0  0  0  0  0  0  0  0  0
    6.4465   -1.3648   22.0908 C   0  0  0  0  0  0  0  0  0  0  0  0
    6.3412   -1.0301   23.1325 H   0  0  0  0  0  0  0  0  0  0  0  0
    5.4613   -1.4754   21.6307 H   0  0  0  0  0  0  0  0  0  0  0  0
    7.2955   -2.6328   21.7909 C   0  0  0  0  0  0  0  0  0  0  0  0
    6.7366   -3.5139   21.4517 H   0  0  0  0  0  0  0  0  0  0  0  0
    7.9637   -2.9435   22.6006 H   0  0  0  0  0  0  0  0  0  0  0  0
    7.9790   -1.8345   20.6684 C   0  0  0  0  0  0  0  0  0  0  0  0
    9.0710   -1.8596   20.5814 H   0  0  0  0  0  0  0  0  0  0  0  0
    7.5022   -2.0426   19.7155 H   0  0  0  0  0  0  0  0  0  0  0  0
  1  2  1  0
  2  3  1  0
  3  4  1  1
  3  5  1  0
  5  6  2  0
  6  7  1  0
  6  8  1  0
  8  9  2  0
  9 10  1  0
  9 11  1  0
 11 12  2  0
 12 13  1  0
 12 14  1  0
 14 15  1  0
 14 16  2  0
 16 17  1  0
 16 18  1  0
 18 19  1  0
 18 20  2  0
  3 21  1  0
 21 22  1  0
 22 23  2  0
 23 24  1  0
 23 25  1  0
 25 26  2  0
 26 27  1  0
 26 28  1  0
 28 29  1  0
 28 30  2  0
 30 31  1  0
 21 32  1  0
 32 33  1  0
 32 34  1  0
 32 35  1  0
 35 36  1  0
 35 37  1  0
 35 38  1  0
 38 39  1  0
 38 40  1  0
 20  5  1  0
 38 21  1  0
 20 11  1  0
 30 22  1  0
M  END
>  <cnnaffinity>  (1) 
-4.73865

>  <filename>  (1) 
O[C@@H](c1cncc2ccccc12)C1(c2cccnc2)CCC1

$$$$
