
     RDKit          3D

 48 51  0  0  0  0  0  0  0  0999 V2000
    5.6819    0.2723   25.9942 O   0  0  0  0  0  0  0  0  0  0  0  0
    6.7890    0.5898   25.1492 C   0  0  2  0  0  0  0  0  0  0  0  0
    7.6757    1.5660   25.9290 C   0  0  0  0  0  0  0  0  0  0  0  0
    7.0427    2.9598   26.0714 C   0  0  0  0  0  0  0  0  0  0  0  0
    6.6091    3.5312   24.7127 C   0  0  0  0  0  0  0  0  0  0  0  0
    5.6465    2.5739   23.9972 C   0  0  0  0  0  0  0  0  0  0  0  0
    6.2863    1.1879   23.7979 C   0  0  1  0  0  0  0  0  0  0  0  0
    7.4044    1.2769   22.7184 C   0  0  0  0  0  0  0  0  0  0  0  0
    7.7177   -0.0494   22.1258 C   0  0  0  0  0  0  0  0  0  0  0  0
    8.3542   -0.9607   22.8270 N   0  0  0  0  0  0  0  0  0  0  0  0
    8.3734   -2.0360   22.0041 C   0  0  0  0  0  0  0  0  0  0  0  0
    8.9772   -3.2856   22.5258 C   0  0  0  0  0  0  0  0  0  0  0  0
    8.2356   -3.9673   23.6974 C   0  0  0  0  0  0  0  0  0  0  0  0
    9.3697   -4.6574   24.4715 C   0  0  0  0  0  0  0  0  0  0  0  0
   10.5756   -4.0009   24.1242 O   0  0  0  0  0  0  0  0  0  0  0  0
   10.3517   -2.9941   23.1599 C   0  0  0  0  0  0  0  0  0  0  0  0
   11.1813   -2.9979   22.4450 H   0  0  0  0  0  0  0  0  0  0  0  0
   10.3484   -2.0056   23.6423 H   0  0  0  0  0  0  0  0  0  0  0  0
    9.4716   -5.7226   24.2238 H   0  0  0  0  0  0  0  0  0  0  0  0
    9.2277   -4.5945   25.5564 H   0  0  0  0  0  0  0  0  0  0  0  0
    7.7681   -3.1984   24.3276 H   0  0  0  0  0  0  0  0  0  0  0  0
    7.4686   -4.6788   23.3728 H   0  0  0  0  0  0  0  0  0  0  0  0
    9.0220   -3.9808   21.6946 H   0  0  0  0  0  0  0  0  0  0  0  0
    7.8494   -1.8437   20.8156 N   0  0  0  0  0  0  0  0  0  0  0  0
    7.3743   -0.5630   20.9091 N   0  0  0  0  0  0  0  0  0  0  0  0
    6.6297    0.0364   19.8553 C   0  0  0  0  0  0  0  0  0  0  0  0
    5.4143    0.6940   20.0941 C   0  0  0  0  0  0  0  0  0  0  0  0
    4.7912    1.3382   19.0221 C   0  0  0  0  0  0  0  0  0  0  0  0
    5.4023    1.3062   17.7649 C   0  0  0  0  0  0  0  0  0  0  0  0
    6.5435    0.6382   17.5199 N   0  0  0  0  0  0  0  0  0  0  0  0
    7.1287    0.0053   18.5400 C   0  0  0  0  0  0  0  0  0  0  0  0
    8.0424   -0.5432   18.3257 H   0  0  0  0  0  0  0  0  0  0  0  0
    4.9582    1.8289   16.9200 H   0  0  0  0  0  0  0  0  0  0  0  0
    3.8544    1.8696   19.1530 H   0  0  0  0  0  0  0  0  0  0  0  0
    4.9597    0.6904   21.0859 H   0  0  0  0  0  0  0  0  0  0  0  0
    7.1432    1.9998   21.9410 H   0  0  0  0  0  0  0  0  0  0  0  0
    8.3287    1.6475   23.1774 H   0  0  0  0  0  0  0  0  0  0  0  0
    5.5083    0.4999   23.4258 H   0  0  0  0  0  0  0  0  0  0  0  0
    5.3538    2.9770   23.0180 H   0  0  0  0  0  0  0  0  0  0  0  0
    4.7228    2.4667   24.5800 H   0  0  0  0  0  0  0  0  0  0  0  0
    6.1374    4.5118   24.8390 H   0  0  0  0  0  0  0  0  0  0  0  0
    7.4953    3.6911   24.0794 H   0  0  0  0  0  0  0  0  0  0  0  0
    7.7458    3.6368   26.5689 H   0  0  0  0  0  0  0  0  0  0  0  0
    6.1593    2.8671   26.7173 H   0  0  0  0  0  0  0  0  0  0  0  0
    8.6512    1.6456   25.4262 H   0  0  0  0  0  0  0  0  0  0  0  0
    7.8799    1.1336   26.9162 H   0  0  0  0  0  0  0  0  0  0  0  0
    7.3765   -0.3194   24.9462 H   0  0  0  0  0  0  0  0  0  0  0  0
    5.2160   -0.4632   25.5748 H   0  0  0  0  0  0  0  0  0  0  0  0
  1  2  1  0
  2  3  1  0
  3  4  1  0
  4  5  1  0
  5  6  1  0
  6  7  1  0
  7  8  1  0
  8  9  1  0
  9 10  2  0
 10 11  1  0
 11 12  1  0
 12 13  1  0
 13 14  1  0
 14 15  1  0
 15 16  1  0
 16 17  1  0
 16 18  1  0
 14 19  1  0
 14 20  1  0
 13 21  1  0
 13 22  1  0
 12 23  1  0
 11 24  2  0
 24 25  1  0
 25 26  1  0
 26 27  2  0
 27 28  1  0
 28 29  2  0
 29 30  1  0
 30 31  2  0
 31 32  1  0
 29 33  1  0
 28 34  1  0
 27 35  1  0
  8 36  1  0
  8 37  1  0
  7 38  1  6
  6 39  1  0
  6 40  1  0
  5 41  1  0
  5 42  1  0
  4 43  1  0
  4 44  1  0
  3 45  1  0
  3 46  1  0
  2 47  1  6
  1 48  1  0
  7  2  1  0
 25  9  1  0
 31 26  1  0
 16 12  1  0
M  END
>  <cnnaffinity>  (1) 
-5.74877

>  <filename>  (1) 
O[C@@H]1CCCC[C@H]1Cc1nc(C2CCOC2)nn1-c1cccnc1

$$$$
