
     RDKit          3D

 47 50  0  0  0  0  0  0  0  0999 V2000
    8.4078    4.0262   21.9770 O   0  0  0  0  0  0  0  0  0  0  0  0
    8.2061    2.6251   21.8237 C   0  0  2  0  0  0  0  0  0  0  0  0
    7.2729    2.1969   22.9616 C   0  0  0  0  0  0  0  0  0  0  0  0
    7.9504    2.2311   24.3372 C   0  0  0  0  0  0  0  0  0  0  0  0
    9.1888    1.3309   24.3517 C   0  0  0  0  0  0  0  0  0  0  0  0
   10.1754    1.7127   23.2344 C   0  0  0  0  0  0  0  0  0  0  0  0
    9.5724    1.8811   21.8123 C   0  0  1  0  0  0  0  0  0  0  0  0
    9.5525    0.5629   20.9904 C   0  0  0  0  0  0  0  0  0  0  0  0
    8.6092   -0.5069   21.4284 C   0  0  0  0  0  0  0  0  0  0  0  0
    8.8498   -1.4073   22.3576 N   0  0  0  0  0  0  0  0  0  0  0  0
    7.6787   -2.0969   22.4459 C   0  0  0  0  0  0  0  0  0  0  0  0
    7.4433   -3.1354   23.4858 C   0  0  0  0  0  0  0  0  0  0  0  0
    7.1810   -2.5730   24.9230 C   0  0  0  0  0  0  0  0  0  0  0  0
    8.4544   -3.2892   25.4273 C   0  0  0  0  0  0  0  0  0  0  0  0
    8.6967   -3.8869   24.0210 C   0  0  0  0  0  0  0  0  0  0  0  0
    8.6209   -4.9763   23.9685 H   0  0  0  0  0  0  0  0  0  0  0  0
    9.6369   -3.5917   23.5450 H   0  0  0  0  0  0  0  0  0  0  0  0
    8.2892   -4.0199   26.2244 H   0  0  0  0  0  0  0  0  0  0  0  0
    9.2452   -2.6117   25.7658 H   0  0  0  0  0  0  0  0  0  0  0  0
    7.2060   -1.4772   24.9885 H   0  0  0  0  0  0  0  0  0  0  0  0
    6.2454   -2.9060   25.3783 H   0  0  0  0  0  0  0  0  0  0  0  0
    6.6470   -3.7872   23.1195 H   0  0  0  0  0  0  0  0  0  0  0  0
    6.7392   -1.7001   21.6109 N   0  0  0  0  0  0  0  0  0  0  0  0
    7.3448   -0.6843   20.9326 N   0  0  0  0  0  0  0  0  0  0  0  0
    6.6533    0.0067   19.9001 C   0  0  0  0  0  0  0  0  0  0  0  0
    5.4383    0.6450   20.1625 C   0  0  0  0  0  0  0  0  0  0  0  0
    4.8090    1.3121   19.1070 C   0  0  0  0  0  0  0  0  0  0  0  0
    5.3978    1.2969   17.8365 C   0  0  0  0  0  0  0  0  0  0  0  0
    6.5566    0.6735   17.5752 N   0  0  0  0  0  0  0  0  0  0  0  0
    7.1676    0.0538   18.5924 C   0  0  0  0  0  0  0  0  0  0  0  0
    8.1130   -0.4339   18.3650 H   0  0  0  0  0  0  0  0  0  0  0  0
    4.9189    1.7873   16.9927 H   0  0  0  0  0  0  0  0  0  0  0  0
    3.8775    1.8411   19.2598 H   0  0  0  0  0  0  0  0  0  0  0  0
    5.0150    0.6110   21.1710 H   0  0  0  0  0  0  0  0  0  0  0  0
    9.3423    0.8135   19.9506 H   0  0  0  0  0  0  0  0  0  0  0  0
   10.5569    0.1277   20.9961 H   0  0  0  0  0  0  0  0  0  0  0  0
   10.2587    2.5448   21.2604 H   0  0  0  0  0  0  0  0  0  0  0  0
   10.6410    2.6685   23.5054 H   0  0  0  0  0  0  0  0  0  0  0  0
   10.9856    0.9736   23.1922 H   0  0  0  0  0  0  0  0  0  0  0  0
    8.8788    0.2850   24.2296 H   0  0  0  0  0  0  0  0  0  0  0  0
    9.6946    1.4018   25.3244 H   0  0  0  0  0  0  0  0  0  0  0  0
    7.2415    1.9216   25.1152 H   0  0  0  0  0  0  0  0  0  0  0  0
    8.2382    3.2678   24.5594 H   0  0  0  0  0  0  0  0  0  0  0  0
    6.9138    1.1804   22.7572 H   0  0  0  0  0  0  0  0  0  0  0  0
    6.3919    2.8481   22.9505 H   0  0  0  0  0  0  0  0  0  0  0  0
    7.6924    2.4208   20.8693 H   0  0  0  0  0  0  0  0  0  0  0  0
    8.7633    4.3612   21.1421 H   0  0  0  0  0  0  0  0  0  0  0  0
  1  2  1  0
  2  3  1  0
  3  4  1  0
  4  5  1  0
  5  6  1  0
  6  7  1  0
  7  8  1  0
  8  9  1  0
  9 10  2  0
 10 11  1  0
 11 12  1  0
 12 13  1  0
 13 14  1  0
 14 15  1  0
 15 16  1  0
 15 17  1  0
 14 18  1  0
 14 19  1  0
 13 20  1  0
 13 21  1  0
 12 22  1  0
 11 23  2  0
 23 24  1  0
 24 25  1  0
 25 26  2  0
 26 27  1  0
 27 28  2  0
 28 29  1  0
 29 30  2  0
 30 31  1  0
 28 32  1  0
 27 33  1  0
 26 34  1  0
  8 35  1  0
  8 36  1  0
  7 37  1  6
  6 38  1  0
  6 39  1  0
  5 40  1  0
  5 41  1  0
  4 42  1  0
  4 43  1  0
  3 44  1  0
  3 45  1  0
  2 46  1  6
  1 47  1  0
  7  2  1  0
 24  9  1  0
 30 25  1  0
 15 12  1  0
M  END
>  <cnnaffinity>  (1) 
-6.05468

>  <filename>  (1) 
O[C@@H]1CCCC[C@H]1Cc1nc(C2CCC2)nn1-c1cccnc1

$$$$
