
     RDKit          3D

 45 48  0  0  0  0  0  0  0  0999 V2000
   11.0923    0.9925   23.4794 O   0  0  0  0  0  0  0  0  0  0  0  0
    9.8263    1.6104   23.3298 C   0  0  1  0  0  0  0  0  0  0  0  0
    9.7518    2.9037   24.1446 C   0  0  0  0  0  0  0  0  0  0  0  0
    8.3909    3.6024   24.0111 C   0  0  0  0  0  0  0  0  0  0  0  0
    8.0296    3.8419   22.5351 C   0  0  0  0  0  0  0  0  0  0  0  0
    8.0881    2.5239   21.7455 C   0  0  0  0  0  0  0  0  0  0  0  0
    9.4661    1.8531   21.8508 C   0  0  2  0  0  0  0  0  0  0  0  0
    9.5496    0.5645   20.9851 C   0  0  0  0  0  0  0  0  0  0  0  0
    8.6168   -0.5269   21.4087 C   0  0  0  0  0  0  0  0  0  0  0  0
    8.8418   -1.3935   22.3754 N   0  0  0  0  0  0  0  0  0  0  0  0
    7.6592   -2.0462   22.5026 C   0  0  0  0  0  0  0  0  0  0  0  0
    7.4585   -3.0763   23.5605 C   0  0  0  0  0  0  0  0  0  0  0  0
    8.5821   -4.1462   23.6526 C   0  0  0  0  0  0  0  0  0  0  0  0
    8.9878   -3.6748   25.3683 S   0  0  0  0  0  0  0  0  0  0  0  0
    7.6076   -2.5366   25.0143 C   0  0  0  0  0  0  0  0  0  0  0  0
    6.7378   -2.7114   25.6541 H   0  0  0  0  0  0  0  0  0  0  0  0
    7.9017   -1.4841   25.0865 H   0  0  0  0  0  0  0  0  0  0  0  0
    8.2279   -5.1782   23.5765 H   0  0  0  0  0  0  0  0  0  0  0  0
    9.4207   -3.9931   22.9662 H   0  0  0  0  0  0  0  0  0  0  0  0
    6.4776   -3.5157   23.3844 H   0  0  0  0  0  0  0  0  0  0  0  0
    6.7220   -1.6629   21.6632 N   0  0  0  0  0  0  0  0  0  0  0  0
    7.3451   -0.6938   20.9304 N   0  0  0  0  0  0  0  0  0  0  0  0
    6.6534    0.0012   19.9009 C   0  0  0  0  0  0  0  0  0  0  0  0
    5.4389    0.6437   20.1654 C   0  0  0  0  0  0  0  0  0  0  0  0
    4.8114    1.3108   19.1085 C   0  0  0  0  0  0  0  0  0  0  0  0
    5.3991    1.2970   17.8382 C   0  0  0  0  0  0  0  0  0  0  0  0
    6.5572    0.6721   17.5764 N   0  0  0  0  0  0  0  0  0  0  0  0
    7.1665    0.0498   18.5919 C   0  0  0  0  0  0  0  0  0  0  0  0
    8.1122   -0.4363   18.3636 H   0  0  0  0  0  0  0  0  0  0  0  0
    4.9198    1.7874   16.9944 H   0  0  0  0  0  0  0  0  0  0  0  0
    3.8797    1.8398   19.2586 H   0  0  0  0  0  0  0  0  0  0  0  0
    5.0135    0.6071   21.1734 H   0  0  0  0  0  0  0  0  0  0  0  0
   10.5661    0.1664   21.0313 H   0  0  0  0  0  0  0  0  0  0  0  0
    9.3602    0.8238   19.9419 H   0  0  0  0  0  0  0  0  0  0  0  0
   10.2185    2.5578   21.4494 H   0  0  0  0  0  0  0  0  0  0  0  0
    7.8516    2.6404   20.6909 H   0  0  0  0  0  0  0  0  0  0  0  0
    7.3030    1.8520   22.1195 H   0  0  0  0  0  0  0  0  0  0  0  0
    7.0377    4.3017   22.4515 H   0  0  0  0  0  0  0  0  0  0  0  0
    8.7388    4.5634   22.1059 H   0  0  0  0  0  0  0  0  0  0  0  0
    8.3883    4.5443   24.5727 H   0  0  0  0  0  0  0  0  0  0  0  0
    7.6166    2.9685   24.4683 H   0  0  0  0  0  0  0  0  0  0  0  0
    9.9742    2.6651   25.1893 H   0  0  0  0  0  0  0  0  0  0  0  0
   10.5507    3.5766   23.7968 H   0  0  0  0  0  0  0  0  0  0  0  0
    9.1077    0.8923   23.7405 H   0  0  0  0  0  0  0  0  0  0  0  0
   11.7316    1.5929   23.0794 H   0  0  0  0  0  0  0  0  0  0  0  0
  1  2  1  0
  2  3  1  0
  3  4  1  0
  4  5  1  0
  5  6  1  0
  6  7  1  0
  7  8  1  0
  8  9  1  0
  9 10  2  0
 10 11  1  0
 11 12  1  0
 12 13  1  0
 13 14  1  0
 14 15  1  0
 15 16  1  0
 15 17  1  0
 13 18  1  0
 13 19  1  0
 12 20  1  0
 11 21  2  0
 21 22  1  0
 22 23  1  0
 23 24  2  0
 24 25  1  0
 25 26  2  0
 26 27  1  0
 27 28  2  0
 28 29  1  0
 26 30  1  0
 25 31  1  0
 24 32  1  0
  8 33  1  0
  8 34  1  0
  7 35  1  6
  6 36  1  0
  6 37  1  0
  5 38  1  0
  5 39  1  0
  4 40  1  0
  4 41  1  0
  3 42  1  0
  3 43  1  0
  2 44  1  1
  1 45  1  0
  7  2  1  0
 22  9  1  0
 28 23  1  0
 15 12  1  0
M  END
>  <cnnaffinity>  (1) 
-5.6463

>  <filename>  (1) 
O[C@H]1CCCC[C@@H]1Cc1nc(C2CSC2)nn1-c1cccnc1

$$$$
