
     RDKit          3D

 47 50  0  0  0  0  0  0  0  0999 V2000
   11.0898    1.0189   23.4293 O   0  0  0  0  0  0  0  0  0  0  0  0
    9.8009    1.6066   23.3329 C   0  0  1  0  0  0  0  0  0  0  0  0
    9.7426    2.9092   24.1369 C   0  0  0  0  0  0  0  0  0  0  0  0
    8.3896    3.6198   23.9912 C   0  0  0  0  0  0  0  0  0  0  0  0
    8.0378    3.8511   22.5113 C   0  0  0  0  0  0  0  0  0  0  0  0
    8.0977    2.5276   21.7320 C   0  0  0  0  0  0  0  0  0  0  0  0
    9.4728    1.8506   21.8534 C   0  0  2  0  0  0  0  0  0  0  0  0
    9.5557    0.5657   20.9836 C   0  0  0  0  0  0  0  0  0  0  0  0
    8.6178   -0.5205   21.4038 C   0  0  0  0  0  0  0  0  0  0  0  0
    8.8365   -1.3827   22.3744 N   0  0  0  0  0  0  0  0  0  0  0  0
    7.6512   -2.0414   22.4917 C   0  0  0  0  0  0  0  0  0  0  0  0
    7.4410   -3.0701   23.5461 C   0  0  0  0  0  0  0  0  0  0  0  0
    8.5985   -4.0973   23.7429 C   0  0  0  0  0  0  0  0  0  0  0  0
    8.8162   -3.5739   25.1824 C   0  0  0  0  0  0  0  0  0  0  0  0
    7.6493   -2.5746   25.0137 C   0  0  0  0  0  0  0  0  0  0  0  0
    6.7945   -2.7395   25.6745 H   0  0  0  0  0  0  0  0  0  0  0  0
    7.9303   -1.5178   25.0913 H   0  0  0  0  0  0  0  0  0  0  0  0
    8.6755   -4.3170   25.9734 H   0  0  0  0  0  0  0  0  0  0  0  0
    9.7909   -3.1030   25.3447 H   0  0  0  0  0  0  0  0  0  0  0  0
    8.2869   -5.1430   23.6773 H   0  0  0  0  0  0  0  0  0  0  0  0
    9.4457   -3.9535   23.0645 H   0  0  0  0  0  0  0  0  0  0  0  0
    6.4639   -3.5225   23.3658 H   0  0  0  0  0  0  0  0  0  0  0  0
    6.7202   -1.6550   21.6452 N   0  0  0  0  0  0  0  0  0  0  0  0
    7.3476   -0.6859   20.9221 N   0  0  0  0  0  0  0  0  0  0  0  0
    6.6546    0.0073   19.8968 C   0  0  0  0  0  0  0  0  0  0  0  0
    5.4389    0.6463   20.1637 C   0  0  0  0  0  0  0  0  0  0  0  0
    4.8106    1.3120   19.1075 C   0  0  0  0  0  0  0  0  0  0  0  0
    5.3989    1.2974   17.8372 C   0  0  0  0  0  0  0  0  0  0  0  0
    6.5572    0.6732   17.5729 N   0  0  0  0  0  0  0  0  0  0  0  0
    7.1673    0.0525   18.5891 C   0  0  0  0  0  0  0  0  0  0  0  0
    8.1132   -0.4361   18.3647 H   0  0  0  0  0  0  0  0  0  0  0  0
    4.9186    1.7872   16.9943 H   0  0  0  0  0  0  0  0  0  0  0  0
    3.8787    1.8401   19.2598 H   0  0  0  0  0  0  0  0  0  0  0  0
    5.0135    0.6087   21.1711 H   0  0  0  0  0  0  0  0  0  0  0  0
   10.5729    0.1699   21.0321 H   0  0  0  0  0  0  0  0  0  0  0  0
    9.3641    0.8277   19.9410 H   0  0  0  0  0  0  0  0  0  0  0  0
   10.2378    2.5457   21.4703 H   0  0  0  0  0  0  0  0  0  0  0  0
    7.8727    2.6354   20.6744 H   0  0  0  0  0  0  0  0  0  0  0  0
    7.3042    1.8638   22.1035 H   0  0  0  0  0  0  0  0  0  0  0  0
    8.7515    4.5672   22.0810 H   0  0  0  0  0  0  0  0  0  0  0  0
    7.0477    4.3134   22.4192 H   0  0  0  0  0  0  0  0  0  0  0  0
    7.6090    2.9941   24.4490 H   0  0  0  0  0  0  0  0  0  0  0  0
    8.3937    4.5664   24.5450 H   0  0  0  0  0  0  0  0  0  0  0  0
   10.5539    3.5546   23.7761 H   0  0  0  0  0  0  0  0  0  0  0  0
    9.9558    2.6906   25.1898 H   0  0  0  0  0  0  0  0  0  0  0  0
    9.0402    0.9149   23.7297 H   0  0  0  0  0  0  0  0  0  0  0  0
   11.1328    0.6041   24.2975 H   0  0  0  0  0  0  0  0  0  0  0  0
  1  2  1  0
  2  3  1  0
  3  4  1  0
  4  5  1  0
  5  6  1  0
  6  7  1  0
  7  8  1  0
  8  9  1  0
  9 10  2  0
 10 11  1  0
 11 12  1  0
 12 13  1  0
 13 14  1  0
 14 15  1  0
 15 16  1  0
 15 17  1  0
 14 18  1  0
 14 19  1  0
 13 20  1  0
 13 21  1  0
 12 22  1  0
 11 23  2  0
 23 24  1  0
 24 25  1  0
 25 26  2  0
 26 27  1  0
 27 28  2  0
 28 29  1  0
 29 30  2  0
 30 31  1  0
 28 32  1  0
 27 33  1  0
 26 34  1  0
  8 35  1  0
  8 36  1  0
  7 37  1  6
  6 38  1  0
  6 39  1  0
  5 40  1  0
  5 41  1  0
  4 42  1  0
  4 43  1  0
  3 44  1  0
  3 45  1  0
  2 46  1  1
  1 47  1  0
  7  2  1  0
 24  9  1  0
 30 25  1  0
 15 12  1  0
M  END
>  <cnnaffinity>  (1) 
-5.8288

>  <filename>  (1) 
O[C@H]1CCCC[C@@H]1Cc1nc(C2CCC2)nn1-c1cccnc1

$$$$
