
     RDKit          3D

 46 49  0  0  0  0  0  0  0  0999 V2000
   11.9305    2.0622   22.0295 O   0  0  0  0  0  0  0  0  0  0  0  0
   10.6581    2.6641   21.8099 C   0  0  2  0  0  0  0  0  0  0  0  0
   10.5593    3.9514   22.6519 C   0  0  0  0  0  0  0  0  0  0  0  0
    9.1621    4.6013   22.7429 C   0  0  0  0  0  0  0  0  0  0  0  0
    8.0571    3.5734   23.0237 C   0  0  0  0  0  0  0  0  0  0  0  0
    8.1279    2.3655   22.0795 C   0  0  0  0  0  0  0  0  0  0  0  0
    9.5083    1.6806   22.1080 C   0  0  1  0  0  0  0  0  0  0  0  0
    9.5571    0.4879   21.1131 C   0  0  0  0  0  0  0  0  0  0  0  0
    8.5809   -0.5944   21.4242 C   0  0  0  0  0  0  0  0  0  0  0  0
    8.7534   -1.4695   22.3841 N   0  0  0  0  0  0  0  0  0  0  0  0
    7.5511   -2.1181   22.4700 C   0  0  0  0  0  0  0  0  0  0  0  0
    7.3289   -3.1828   23.5269 C   0  0  0  0  0  0  0  0  0  0  0  0
    8.3790   -3.4644   24.4311 C   0  0  0  0  0  0  0  0  0  0  0  0
    8.2053   -4.4352   25.4128 C   0  0  0  0  0  0  0  0  0  0  0  0
    6.9796   -5.0991   25.4747 C   0  0  0  0  0  0  0  0  0  0  0  0
    5.9903   -4.7582   24.5493 C   0  0  0  0  0  0  0  0  0  0  0  0
    6.1465   -3.8371   23.5949 N   0  0  0  0  0  0  0  0  0  0  0  0
    5.0202   -5.2539   24.5764 H   0  0  0  0  0  0  0  0  0  0  0  0
    6.7945   -5.8606   26.2226 H   0  0  0  0  0  0  0  0  0  0  0  0
    9.0099   -4.6662   26.1114 H   0  0  0  0  0  0  0  0  0  0  0  0
    9.3077   -2.9127   24.3480 H   0  0  0  0  0  0  0  0  0  0  0  0
    6.6567   -1.6891   21.5929 N   0  0  0  0  0  0  0  0  0  0  0  0
    7.3281   -0.7435   20.8929 N   0  0  0  0  0  0  0  0  0  0  0  0
    6.6595   -0.0508   19.8434 C   0  0  0  0  0  0  0  0  0  0  0  0
    5.4522    0.5961   20.1180 C   0  0  0  0  0  0  0  0  0  0  0  0
    4.8346    1.3014   19.0829 C   0  0  0  0  0  0  0  0  0  0  0  0
    5.4240    1.3142   17.8148 C   0  0  0  0  0  0  0  0  0  0  0  0
    6.5555    0.6534   17.5313 N   0  0  0  0  0  0  0  0  0  0  0  0
    7.1500   -0.0218   18.5256 C   0  0  0  0  0  0  0  0  0  0  0  0
    8.0476   -0.5748   18.2575 H   0  0  0  0  0  0  0  0  0  0  0  0
    4.9622    1.8599   16.9935 H   0  0  0  0  0  0  0  0  0  0  0  0
    3.9095    1.8375   19.2505 H   0  0  0  0  0  0  0  0  0  0  0  0
    5.0155    0.5285   21.1160 H   0  0  0  0  0  0  0  0  0  0  0  0
    9.3873    0.8538   20.0973 H   0  0  0  0  0  0  0  0  0  0  0  0
   10.5578    0.0474   21.1459 H   0  0  0  0  0  0  0  0  0  0  0  0
    9.6922    1.3092   23.1340 H   0  0  0  0  0  0  0  0  0  0  0  0
    7.3514    1.6377   22.3552 H   0  0  0  0  0  0  0  0  0  0  0  0
    7.8943    2.6778   21.0479 H   0  0  0  0  0  0  0  0  0  0  0  0
    7.0740    4.0510   22.9131 H   0  0  0  0  0  0  0  0  0  0  0  0
    8.1499    3.2286   24.0663 H   0  0  0  0  0  0  0  0  0  0  0  0
    9.1829    5.3511   23.5458 H   0  0  0  0  0  0  0  0  0  0  0  0
    8.9158    5.1553   21.8255 H   0  0  0  0  0  0  0  0  0  0  0  0
   11.2848    4.6740   22.2634 H   0  0  0  0  0  0  0  0  0  0  0  0
   10.8992    3.7050   23.6722 H   0  0  0  0  0  0  0  0  0  0  0  0
   10.6408    2.8647   20.7282 H   0  0  0  0  0  0  0  0  0  0  0  0
   12.0211    1.9743   22.9897 H   0  0  0  0  0  0  0  0  0  0  0  0
  1  2  1  0
  2  3  1  0
  3  4  1  0
  4  5  1  0
  5  6  1  0
  6  7  1  0
  7  8  1  0
  8  9  1  0
  9 10  2  0
 10 11  1  0
 11 12  1  0
 12 13  2  0
 13 14  1  0
 14 15  2  0
 15 16  1  0
 16 17  2  0
 16 18  1  0
 15 19  1  0
 14 20  1  0
 13 21  1  0
 11 22  2  0
 22 23  1  0
 23 24  1  0
 24 25  2  0
 25 26  1  0
 26 27  2  0
 27 28  1  0
 28 29  2  0
 29 30  1  0
 27 31  1  0
 26 32  1  0
 25 33  1  0
  8 34  1  0
  8 35  1  0
  7 36  1  1
  6 37  1  0
  6 38  1  0
  5 39  1  0
  5 40  1  0
  4 41  1  0
  4 42  1  0
  3 43  1  0
  3 44  1  0
  2 45  1  6
  1 46  1  0
  7  2  1  0
 23  9  1  0
 29 24  1  0
 17 12  1  0
M  END
>  <cnnaffinity>  (1) 
-5.92771

>  <filename>  (1) 
O[C@@H]1CCCC[C@H]1Cc1nc(-c2ccccn2)nn1-c1cccnc1

$$$$
