
     RDKit          3D

 46 49  0  0  0  0  0  0  0  0999 V2000
   12.3666   -1.2163   20.6619 O   0  0  0  0  0  0  0  0  0  0  0  0
   11.7109   -0.4109   21.6523 C   0  0  2  0  0  0  0  0  0  0  0  0
   12.7140    0.6557   22.1432 C   0  0  0  0  0  0  0  0  0  0  0  0
   12.3859    1.3230   23.4903 C   0  0  0  0  0  0  0  0  0  0  0  0
   12.0154    0.2969   24.5653 C   0  0  0  0  0  0  0  0  0  0  0  0
   10.9011   -0.6346   24.0699 C   0  0  0  0  0  0  0  0  0  0  0  0
   11.2510   -1.3723   22.7637 C   0  0  1  0  0  0  0  0  0  0  0  0
   10.1344   -2.3405   22.2921 C   0  0  0  0  0  0  0  0  0  0  0  0
    8.8312   -1.7264   21.9423 C   0  0  0  0  0  0  0  0  0  0  0  0
    8.5058   -1.2525   20.7529 N   0  0  0  0  0  0  0  0  0  0  0  0
    7.3118   -0.6385   20.9816 C   0  0  0  0  0  0  0  0  0  0  0  0
    6.5788    0.0423   19.9301 C   0  0  0  0  0  0  0  0  0  0  0  0
    5.3563    0.7018   20.1389 C   0  0  0  0  0  0  0  0  0  0  0  0
    4.7762    1.3380   19.0459 C   0  0  0  0  0  0  0  0  0  0  0  0
    5.4279    1.2938   17.8049 C   0  0  0  0  0  0  0  0  0  0  0  0
    6.5886    0.6529   17.6016 N   0  0  0  0  0  0  0  0  0  0  0  0
    7.1441    0.0443   18.6518 C   0  0  0  0  0  0  0  0  0  0  0  0
    8.0860   -0.4747   18.4917 H   0  0  0  0  0  0  0  0  0  0  0  0
    4.9956    1.7907   16.9392 H   0  0  0  0  0  0  0  0  0  0  0  0
    3.8431    1.8788   19.1417 H   0  0  0  0  0  0  0  0  0  0  0  0
    4.8978    0.7150   21.1304 H   0  0  0  0  0  0  0  0  0  0  0  0
    6.8923   -0.6944   22.2268 N   0  0  0  0  0  0  0  0  0  0  0  0
    7.8456   -1.4366   22.8329 N   0  0  0  0  0  0  0  0  0  0  0  0
    7.7213   -1.7506   24.2016 C   0  0  0  0  0  0  0  0  0  0  0  0
    7.8182   -3.0617   24.6795 C   0  0  0  0  0  0  0  0  0  0  0  0
    7.7081   -3.2539   26.0572 C   0  0  0  0  0  0  0  0  0  0  0  0
    7.5176   -2.1425   26.8794 C   0  0  0  0  0  0  0  0  0  0  0  0
    7.3883   -0.8891   26.4219 N   0  0  0  0  0  0  0  0  0  0  0  0
    7.4706   -0.7064   25.1025 C   0  0  0  0  0  0  0  0  0  0  0  0
    7.3543    0.3094   24.7231 H   0  0  0  0  0  0  0  0  0  0  0  0
    7.4685   -2.2570   27.9483 H   0  0  0  0  0  0  0  0  0  0  0  0
    7.7729   -4.2476   26.4834 H   0  0  0  0  0  0  0  0  0  0  0  0
    7.9435   -3.9013   23.9949 H   0  0  0  0  0  0  0  0  0  0  0  0
   10.4924   -2.8003   21.3785 H   0  0  0  0  0  0  0  0  0  0  0  0
    9.9962   -3.1351   23.0321 H   0  0  0  0  0  0  0  0  0  0  0  0
   12.1130   -2.0384   22.8654 H   0  0  0  0  0  0  0  0  0  0  0  0
   10.0177   -0.0056   23.8912 H   0  0  0  0  0  0  0  0  0  0  0  0
   10.6344   -1.3563   24.8504 H   0  0  0  0  0  0  0  0  0  0  0  0
   12.9073   -0.2616   24.8700 H   0  0  0  0  0  0  0  0  0  0  0  0
   11.6725    0.8148   25.4674 H   0  0  0  0  0  0  0  0  0  0  0  0
   13.2605    1.9058   23.8135 H   0  0  0  0  0  0  0  0  0  0  0  0
   11.5472    2.0279   23.3790 H   0  0  0  0  0  0  0  0  0  0  0  0
   12.7960    1.4233   21.3662 H   0  0  0  0  0  0  0  0  0  0  0  0
   13.7022    0.1794   22.2087 H   0  0  0  0  0  0  0  0  0  0  0  0
   10.8177    0.0804   21.2294 H   0  0  0  0  0  0  0  0  0  0  0  0
   11.8699   -1.1466   19.8389 H   0  0  0  0  0  0  0  0  0  0  0  0
  1  2  1  0
  2  3  1  0
  3  4  1  0
  4  5  1  0
  5  6  1  0
  6  7  1  0
  7  8  1  0
  8  9  1  0
  9 10  2  0
 10 11  1  0
 11 12  1  0
 12 13  2  0
 13 14  1  0
 14 15  2  0
 15 16  1  0
 16 17  2  0
 17 18  1  0
 15 19  1  0
 14 20  1  0
 13 21  1  0
 11 22  2  0
 22 23  1  0
 23 24  1  0
 24 25  2  0
 25 26  1  0
 26 27  2  0
 27 28  1  0
 28 29  2  0
 29 30  1  0
 27 31  1  0
 26 32  1  0
 25 33  1  0
  8 34  1  0
  8 35  1  0
  7 36  1  1
  6 37  1  0
  6 38  1  0
  5 39  1  0
  5 40  1  0
  4 41  1  0
  4 42  1  0
  3 43  1  0
  3 44  1  0
  2 45  1  6
  1 46  1  0
  7  2  1  0
 23  9  1  0
 29 24  1  0
 17 12  1  0
M  END
>  <cnnaffinity>  (1) 
-6.21164

>  <filename>  (1) 
O[C@@H]1CCCC[C@H]1Cc1nc(-c2cccnc2)nn1-c1cccnc1

$$$$
