
     RDKit          3D

 47 50  0  0  0  0  0  0  0  0999 V2000
    7.4667    3.3204   21.6419 O   0  0  0  0  0  0  0  0  0  0  0  0
    8.0714    2.3595   22.4816 C   0  0  2  0  0  0  0  0  0  0  0  0
    8.3070    3.0100   23.8376 C   0  0  0  0  0  0  0  0  0  0  0  0
    9.2498    2.0359   24.5360 C   0  0  0  0  0  0  0  0  0  0  0  0
   10.1805    1.5309   23.4151 C   0  0  0  0  0  0  0  0  0  0  0  0
    9.4826    1.8527   22.0648 C   0  0  1  0  0  0  0  0  0  0  0  0
    9.5540    0.6496   21.0767 C   0  0  0  0  0  0  0  0  0  0  0  0
    8.6574   -0.5060   21.4207 C   0  0  0  0  0  0  0  0  0  0  0  0
    8.8783   -1.3963   22.3764 N   0  0  0  0  0  0  0  0  0  0  0  0
    7.6962   -2.0589   22.4762 C   0  0  0  0  0  0  0  0  0  0  0  0
    7.4340   -3.1041   23.5317 C   0  0  0  0  0  0  0  0  0  0  0  0
    6.4234   -2.6514   24.6220 C   0  0  0  0  0  0  0  0  0  0  0  0
    5.8530   -3.9482   25.2346 C   0  0  0  0  0  0  0  0  0  0  0  0
    6.1527   -5.0844   24.2236 C   0  0  0  0  0  0  0  0  0  0  0  0
    6.8140   -4.4192   22.9998 C   0  0  0  0  0  0  0  0  0  0  0  0
    7.5673   -5.0651   22.5298 H   0  0  0  0  0  0  0  0  0  0  0  0
    6.0573   -4.1827   22.2377 H   0  0  0  0  0  0  0  0  0  0  0  0
    5.2419   -5.6222   23.9319 H   0  0  0  0  0  0  0  0  0  0  0  0
    6.8202   -5.8287   24.6786 H   0  0  0  0  0  0  0  0  0  0  0  0
    6.3119   -4.1703   26.2072 H   0  0  0  0  0  0  0  0  0  0  0  0
    4.7765   -3.8442   25.4167 H   0  0  0  0  0  0  0  0  0  0  0  0
    6.8981   -2.0063   25.3735 H   0  0  0  0  0  0  0  0  0  0  0  0
    5.6181   -2.0704   24.1552 H   0  0  0  0  0  0  0  0  0  0  0  0
    8.4064   -3.3128   24.0019 H   0  0  0  0  0  0  0  0  0  0  0  0
    6.7724   -1.6608   21.6205 N   0  0  0  0  0  0  0  0  0  0  0  0
    7.4052   -0.6921   20.9093 N   0  0  0  0  0  0  0  0  0  0  0  0
    6.7058   -0.0282   19.8632 C   0  0  0  0  0  0  0  0  0  0  0  0
    5.5015    0.6259   20.1428 C   0  0  0  0  0  0  0  0  0  0  0  0
    4.8521    1.3074   19.1097 C   0  0  0  0  0  0  0  0  0  0  0  0
    5.4243    1.2946   17.8316 C   0  0  0  0  0  0  0  0  0  0  0  0
    6.5533    0.6309   17.5416 N   0  0  0  0  0  0  0  0  0  0  0  0
    7.1701   -0.0221   18.5350 C   0  0  0  0  0  0  0  0  0  0  0  0
    8.0692   -0.5724   18.2626 H   0  0  0  0  0  0  0  0  0  0  0  0
    4.9497    1.8202   17.0061 H   0  0  0  0  0  0  0  0  0  0  0  0
    3.9214    1.8408   19.2804 H   0  0  0  0  0  0  0  0  0  0  0  0
    5.0861    0.5816   21.1488 H   0  0  0  0  0  0  0  0  0  0  0  0
    9.3536    0.9602   20.0508 H   0  0  0  0  0  0  0  0  0  0  0  0
   10.5778    0.2649   21.0911 H   0  0  0  0  0  0  0  0  0  0  0  0
    9.9965    2.7026   21.5872 H   0  0  0  0  0  0  0  0  0  0  0  0
   11.1558    2.0235   23.4555 H   0  0  0  0  0  0  0  0  0  0  0  0
   10.3716    0.4572   23.5121 H   0  0  0  0  0  0  0  0  0  0  0  0
    9.8003    2.4982   25.3610 H   0  0  0  0  0  0  0  0  0  0  0  0
    8.6776    1.1895   24.9379 H   0  0  0  0  0  0  0  0  0  0  0  0
    7.3681    3.2102   24.3698 H   0  0  0  0  0  0  0  0  0  0  0  0
    8.8116    3.9682   23.6514 H   0  0  0  0  0  0  0  0  0  0  0  0
    7.4074    1.4844   22.6011 H   0  0  0  0  0  0  0  0  0  0  0  0
    7.5879    3.0444   20.7260 H   0  0  0  0  0  0  0  0  0  0  0  0
  1  2  1  0
  2  3  1  0
  3  4  1  0
  4  5  1  0
  5  6  1  0
  6  7  1  0
  7  8  1  0
  8  9  2  0
  9 10  1  0
 10 11  1  0
 11 12  1  0
 12 13  1  0
 13 14  1  0
 14 15  1  0
 15 16  1  0
 15 17  1  0
 14 18  1  0
 14 19  1  0
 13 20  1  0
 13 21  1  0
 12 22  1  0
 12 23  1  0
 11 24  1  0
 10 25  2  0
 25 26  1  0
 26 27  1  0
 27 28  2  0
 28 29  1  0
 29 30  2  0
 30 31  1  0
 31 32  2  0
 32 33  1  0
 30 34  1  0
 29 35  1  0
 28 36  1  0
  7 37  1  0
  7 38  1  0
  6 39  1  6
  5 40  1  0
  5 41  1  0
  4 42  1  0
  4 43  1  0
  3 44  1  0
  3 45  1  0
  2 46  1  1
  1 47  1  0
  6  2  1  0
 26  8  1  0
 32 27  1  0
 15 11  1  0
M  END
>  <cnnaffinity>  (1) 
-5.90761

>  <filename>  (1) 
O[C@@H]1CCC[C@H]1Cc1nc(C2CCCC2)nn1-c1cccnc1

$$$$
