
     RDKit          3D

 45 48  0  0  0  0  0  0  0  0999 V2000
   11.9276    2.0505   22.0728 O   0  0  0  0  0  0  0  0  0  0  0  0
   10.6621    2.6601   21.8453 C   0  0  2  0  0  0  0  0  0  0  0  0
   10.5713    3.9494   22.6807 C   0  0  0  0  0  0  0  0  0  0  0  0
    9.1720    4.5901   22.7781 C   0  0  0  0  0  0  0  0  0  0  0  0
    8.0669    3.5558   23.0424 C   0  0  0  0  0  0  0  0  0  0  0  0
    8.1366    2.3570   22.0876 C   0  0  0  0  0  0  0  0  0  0  0  0
    9.5125    1.6713   22.1110 C   0  0  1  0  0  0  0  0  0  0  0  0
    9.5691    0.4812   21.1095 C   0  0  0  0  0  0  0  0  0  0  0  0
    8.5845   -0.5890   21.4257 C   0  0  0  0  0  0  0  0  0  0  0  0
    8.7574   -1.4328   22.4260 N   0  0  0  0  0  0  0  0  0  0  0  0
    7.5775   -2.0856   22.4962 C   0  0  0  0  0  0  0  0  0  0  0  0
    7.3592   -3.1102   23.5508 C   0  0  0  0  0  0  0  0  0  0  0  0
    6.7975   -4.4630   23.0453 C   0  0  0  0  0  0  0  0  0  0  0  0
    5.2827   -4.2858   24.0459 S   0  0  0  0  0  0  0  0  0  0  0  0
    6.2150   -2.8026   24.5568 C   0  0  0  0  0  0  0  0  0  0  0  0
    6.5363   -2.8499   25.6000 H   0  0  0  0  0  0  0  0  0  0  0  0
    5.6798   -1.8621   24.3959 H   0  0  0  0  0  0  0  0  0  0  0  0
    7.4030   -5.3210   23.3459 H   0  0  0  0  0  0  0  0  0  0  0  0
    6.6034   -4.5146   21.9692 H   0  0  0  0  0  0  0  0  0  0  0  0
    8.3243   -3.2162   24.0532 H   0  0  0  0  0  0  0  0  0  0  0  0
    6.6799   -1.7197   21.6017 N   0  0  0  0  0  0  0  0  0  0  0  0
    7.3421   -0.7729   20.8769 N   0  0  0  0  0  0  0  0  0  0  0  0
    6.6561   -0.0801   19.8368 C   0  0  0  0  0  0  0  0  0  0  0  0
    5.4547    0.5794   20.1158 C   0  0  0  0  0  0  0  0  0  0  0  0
    4.8323    1.2965   19.0906 C   0  0  0  0  0  0  0  0  0  0  0  0
    5.4237    1.3125   17.8202 C   0  0  0  0  0  0  0  0  0  0  0  0
    6.5492    0.6437   17.5298 N   0  0  0  0  0  0  0  0  0  0  0  0
    7.1435   -0.0430   18.5141 C   0  0  0  0  0  0  0  0  0  0  0  0
    8.0378   -0.5999   18.2398 H   0  0  0  0  0  0  0  0  0  0  0  0
    4.9662    1.8620   17.0007 H   0  0  0  0  0  0  0  0  0  0  0  0
    3.9080    1.8387   19.2623 H   0  0  0  0  0  0  0  0  0  0  0  0
    5.0285    0.5092   21.1191 H   0  0  0  0  0  0  0  0  0  0  0  0
   10.5643    0.0263   21.1599 H   0  0  0  0  0  0  0  0  0  0  0  0
    9.4166    0.8455   20.0901 H   0  0  0  0  0  0  0  0  0  0  0  0
    9.6840    1.2748   23.1261 H   0  0  0  0  0  0  0  0  0  0  0  0
    7.9055    2.6693   21.0592 H   0  0  0  0  0  0  0  0  0  0  0  0
    7.3624    1.6239   22.3515 H   0  0  0  0  0  0  0  0  0  0  0  0
    7.0849    4.0361   22.9439 H   0  0  0  0  0  0  0  0  0  0  0  0
    8.1434    3.1890   24.0758 H   0  0  0  0  0  0  0  0  0  0  0  0
    8.9210    5.1407   21.8623 H   0  0  0  0  0  0  0  0  0  0  0  0
    9.1801    5.3395   23.5812 H   0  0  0  0  0  0  0  0  0  0  0  0
   11.3082    4.6688   22.2972 H   0  0  0  0  0  0  0  0  0  0  0  0
   10.9132    3.6821   23.6908 H   0  0  0  0  0  0  0  0  0  0  0  0
   10.6591    2.8729   20.7726 H   0  0  0  0  0  0  0  0  0  0  0  0
   12.0127    1.9520   23.0299 H   0  0  0  0  0  0  0  0  0  0  0  0
  1  2  1  0
  2  3  1  0
  3  4  1  0
  4  5  1  0
  5  6  1  0
  6  7  1  0
  7  8  1  0
  8  9  1  0
  9 10  2  0
 10 11  1  0
 11 12  1  0
 12 13  1  0
 13 14  1  0
 14 15  1  0
 15 16  1  0
 15 17  1  0
 13 18  1  0
 13 19  1  0
 12 20  1  0
 11 21  2  0
 21 22  1  0
 22 23  1  0
 23 24  2  0
 24 25  1  0
 25 26  2  0
 26 27  1  0
 27 28  2  0
 28 29  1  0
 26 30  1  0
 25 31  1  0
 24 32  1  0
  8 33  1  0
  8 34  1  0
  7 35  1  1
  6 36  1  0
  6 37  1  0
  5 38  1  0
  5 39  1  0
  4 40  1  0
  4 41  1  0
  3 42  1  0
  3 43  1  0
  2 44  1  6
  1 45  1  0
  7  2  1  0
 22  9  1  0
 28 23  1  0
 15 12  1  0
M  END
>  <cnnaffinity>  (1) 
-5.97201

>  <filename>  (1) 
O[C@@H]1CCCC[C@H]1Cc1nc(C2CSC2)nn1-c1cccnc1

$$$$
