
     RDKit          3D

 50 53  0  0  0  0  0  0  0  0999 V2000
   10.6251    2.8912   21.6706 O   0  0  0  0  0  0  0  0  0  0  0  0
   11.5647    1.8401   21.4684 C   0  0  1  0  0  0  0  0  0  0  0  0
   12.7576    2.0698   22.4162 C   0  0  0  0  0  0  0  0  0  0  0  0
   13.6802    0.8488   22.5938 C   0  0  0  0  0  0  0  0  0  0  0  0
   12.8747   -0.4303   22.8493 C   0  0  0  0  0  0  0  0  0  0  0  0
   11.7695   -0.6859   21.8158 C   0  0  0  0  0  0  0  0  0  0  0  0
   10.8194    0.5234   21.7586 C   0  0  2  0  0  0  0  0  0  0  0  0
    9.6113    0.2715   20.8174 C   0  0  0  0  0  0  0  0  0  0  0  0
    8.5468   -0.5711   21.4466 C   0  0  0  0  0  0  0  0  0  0  0  0
    8.6967   -1.3192   22.5183 N   0  0  0  0  0  0  0  0  0  0  0  0
    7.5029   -1.9441   22.6516 C   0  0  0  0  0  0  0  0  0  0  0  0
    7.2777   -2.9316   23.7642 C   0  0  0  0  0  0  0  0  0  0  0  0
    6.2434   -4.0293   23.4478 C   0  0  0  0  0  0  0  0  0  0  0  0
    6.5469   -5.1645   24.4455 C   0  0  0  0  0  0  0  0  0  0  0  0
    8.0189   -4.9730   24.8996 C   0  0  0  0  0  0  0  0  0  0  0  0
    8.5416   -3.7346   24.1518 C   0  0  0  0  0  0  0  0  0  0  0  0
    9.0673   -4.0293   23.2344 H   0  0  0  0  0  0  0  0  0  0  0  0
    9.2549   -3.1459   24.7411 H   0  0  0  0  0  0  0  0  0  0  0  0
    8.0682   -4.8168   25.9844 H   0  0  0  0  0  0  0  0  0  0  0  0
    8.6379   -5.8531   24.6913 H   0  0  0  0  0  0  0  0  0  0  0  0
    5.8743   -5.1105   25.3099 H   0  0  0  0  0  0  0  0  0  0  0  0
    6.3786   -6.1446   23.9880 H   0  0  0  0  0  0  0  0  0  0  0  0
    5.2112   -3.6663   23.5062 H   0  0  0  0  0  0  0  0  0  0  0  0
    6.3951   -4.3627   22.4136 H   0  0  0  0  0  0  0  0  0  0  0  0
    6.9427   -2.3461   24.6346 H   0  0  0  0  0  0  0  0  0  0  0  0
    6.6093   -1.6127   21.7369 N   0  0  0  0  0  0  0  0  0  0  0  0
    7.2840   -0.7356   20.9474 N   0  0  0  0  0  0  0  0  0  0  0  0
    6.6166   -0.0590   19.8860 C   0  0  0  0  0  0  0  0  0  0  0  0
    5.4103    0.6087   20.1295 C   0  0  0  0  0  0  0  0  0  0  0  0
    4.8125    1.3117   19.0803 C   0  0  0  0  0  0  0  0  0  0  0  0
    5.4312    1.3029   17.8237 C   0  0  0  0  0  0  0  0  0  0  0  0
    6.5715    0.6423   17.5723 N   0  0  0  0  0  0  0  0  0  0  0  0
    7.1441   -0.0229   18.5818 C   0  0  0  0  0  0  0  0  0  0  0  0
    8.0608   -0.5633   18.3421 H   0  0  0  0  0  0  0  0  0  0  0  0
    4.9869    1.8389   16.9875 H   0  0  0  0  0  0  0  0  0  0  0  0
    3.8878    1.8625   19.2257 H   0  0  0  0  0  0  0  0  0  0  0  0
    4.9693    0.5592   21.1246 H   0  0  0  0  0  0  0  0  0  0  0  0
    9.9056   -0.2532   19.8980 H   0  0  0  0  0  0  0  0  0  0  0  0
    9.1644    1.2242   20.5114 H   0  0  0  0  0  0  0  0  0  0  0  0
   10.4169    0.6841   22.7716 H   0  0  0  0  0  0  0  0  0  0  0  0
   11.1902   -1.5776   22.0888 H   0  0  0  0  0  0  0  0  0  0  0  0
   12.1764   -0.9053   20.8153 H   0  0  0  0  0  0  0  0  0  0  0  0
   13.5584   -1.2831   22.8663 H   0  0  0  0  0  0  0  0  0  0  0  0
   12.3821   -0.3254   23.8283 H   0  0  0  0  0  0  0  0  0  0  0  0
   14.3072    0.6597   21.7177 H   0  0  0  0  0  0  0  0  0  0  0  0
   14.3795    1.0350   23.4212 H   0  0  0  0  0  0  0  0  0  0  0  0
   13.3157    2.9543   22.0790 H   0  0  0  0  0  0  0  0  0  0  0  0
   12.3105    2.3464   23.3816 H   0  0  0  0  0  0  0  0  0  0  0  0
   11.9060    1.8428   20.4249 H   0  0  0  0  0  0  0  0  0  0  0  0
   10.8080    3.6114   21.0512 H   0  0  0  0  0  0  0  0  0  0  0  0
  1  2  1  0
  2  3  1  0
  3  4  1  0
  4  5  1  0
  5  6  1  0
  6  7  1  0
  7  8  1  0
  8  9  1  0
  9 10  2  0
 10 11  1  0
 11 12  1  0
 12 13  1  0
 13 14  1  0
 14 15  1  0
 15 16  1  0
 16 17  1  0
 16 18  1  0
 15 19  1  0
 15 20  1  0
 14 21  1  0
 14 22  1  0
 13 23  1  0
 13 24  1  0
 12 25  1  0
 11 26  2  0
 26 27  1  0
 27 28  1  0
 28 29  2  0
 29 30  1  0
 30 31  2  0
 31 32  1  0
 32 33  2  0
 33 34  1  0
 31 35  1  0
 30 36  1  0
 29 37  1  0
  8 38  1  0
  8 39  1  0
  7 40  1  1
  6 41  1  0
  6 42  1  0
  5 43  1  0
  5 44  1  0
  4 45  1  0
  4 46  1  0
  3 47  1  0
  3 48  1  0
  2 49  1  6
  1 50  1  0
  7  2  1  0
 27  9  1  0
 33 28  1  0
 16 12  1  0
M  END
>  <cnnaffinity>  (1) 
-6.62155

>  <filename>  (1) 
O[C@H]1CCCC[C@@H]1Cc1nc(C2CCCC2)nn1-c1cccnc1

$$$$
