
     RDKit          3D

 46 49  0  0  0  0  0  0  0  0999 V2000
    8.7404    1.7436   20.7182 O   0  0  0  0  0  0  0  0  0  0  0  0
    8.6069    1.2050   22.0200 C   0  0  0  0  0  0  0  0  0  0  0  0
    7.7146    2.1666   22.8479 C   0  0  0  0  0  0  0  0  0  0  0  0
    8.3827    3.5128   22.9166 C   0  0  0  0  0  0  0  0  0  0  0  0
    9.4693    3.7510   23.7765 C   0  0  0  0  0  0  0  0  0  0  0  0
   10.0521    5.0189   23.8137 C   0  0  0  0  0  0  0  0  0  0  0  0
    9.5201    6.0008   22.9762 C   0  0  0  0  0  0  0  0  0  0  0  0
    8.4799    5.6525   22.1070 C   0  0  0  0  0  0  0  0  0  0  0  0
    7.9458    4.4254   22.0386 N   0  0  0  0  0  0  0  0  0  0  0  0
    8.0709    6.3959   21.4314 H   0  0  0  0  0  0  0  0  0  0  0  0
    9.8984    7.0161   22.9761 H   0  0  0  0  0  0  0  0  0  0  0  0
   10.9148    5.2194   24.4507 H   0  0  0  0  0  0  0  0  0  0  0  0
    9.8395    2.9351   24.3856 H   0  0  0  0  0  0  0  0  0  0  0  0
    6.7485    2.3000   22.3421 H   0  0  0  0  0  0  0  0  0  0  0  0
    7.5555    1.7525   23.8476 H   0  0  0  0  0  0  0  0  0  0  0  0
    8.1646   -0.2491   21.9711 C   0  0  0  0  0  0  0  0  0  0  0  0
    8.4714   -1.2230   22.8162 N   0  0  0  0  0  0  0  0  0  0  0  0
    7.8314   -2.3064   22.2926 C   0  0  0  0  0  0  0  0  0  0  0  0
    7.8493   -3.6811   22.9136 C   0  0  0  0  0  0  0  0  0  0  0  0
    8.3078   -3.7110   24.3849 C   0  0  0  0  0  0  0  0  0  0  0  0
    7.7955   -5.0490   24.9563 C   0  0  0  0  0  0  0  0  0  0  0  0
    6.6588   -5.5142   24.0081 C   0  0  0  0  0  0  0  0  0  0  0  0
    6.4747   -4.3957   22.9653 C   0  0  0  0  0  0  0  0  0  0  0  0
    6.1763   -4.7818   21.9832 H   0  0  0  0  0  0  0  0  0  0  0  0
    5.7039   -3.6821   23.2930 H   0  0  0  0  0  0  0  0  0  0  0  0
    5.7307   -5.7194   24.5547 H   0  0  0  0  0  0  0  0  0  0  0  0
    6.9405   -6.4453   23.5030 H   0  0  0  0  0  0  0  0  0  0  0  0
    7.4402   -4.9182   25.9859 H   0  0  0  0  0  0  0  0  0  0  0  0
    8.5933   -5.8025   24.9996 H   0  0  0  0  0  0  0  0  0  0  0  0
    7.8338   -2.8717   24.9110 H   0  0  0  0  0  0  0  0  0  0  0  0
    9.3919   -3.5894   24.4837 H   0  0  0  0  0  0  0  0  0  0  0  0
    8.5375   -4.2814   22.2982 H   0  0  0  0  0  0  0  0  0  0  0  0
    7.1620   -2.0576   21.1788 N   0  0  0  0  0  0  0  0  0  0  0  0
    7.3646   -0.7370   20.9925 N   0  0  0  0  0  0  0  0  0  0  0  0
    6.7102   -0.0473   19.9399 C   0  0  0  0  0  0  0  0  0  0  0  0
    5.4919    0.5940   20.1611 C   0  0  0  0  0  0  0  0  0  0  0  0
    4.9105    1.2766   19.0898 C   0  0  0  0  0  0  0  0  0  0  0  0
    5.5647    1.2848   17.8547 C   0  0  0  0  0  0  0  0  0  0  0  0
    6.7327    0.6566   17.6420 N   0  0  0  0  0  0  0  0  0  0  0  0
    7.2913    0.0070   18.6686 C   0  0  0  0  0  0  0  0  0  0  0  0
    8.2578   -0.4582   18.4878 H   0  0  0  0  0  0  0  0  0  0  0  0
    5.1313    1.7945   16.9965 H   0  0  0  0  0  0  0  0  0  0  0  0
    3.9672    1.7945   19.2037 H   0  0  0  0  0  0  0  0  0  0  0  0
    5.0155    0.5564   21.1428 H   0  0  0  0  0  0  0  0  0  0  0  0
    9.5919    1.1410   22.5182 H   0  0  0  0  0  0  0  0  0  0  0  0
    8.4740    2.6838   20.7423 H   0  0  0  0  0  0  0  0  0  0  0  0
  1  2  1  0
  2  3  1  0
  3  4  1  0
  4  5  2  0
  5  6  1  0
  6  7  2  0
  7  8  1  0
  8  9  2  0
  8 10  1  0
  7 11  1  0
  6 12  1  0
  5 13  1  0
  3 14  1  0
  3 15  1  0
  2 16  1  0
 16 17  2  0
 17 18  1  0
 18 19  1  0
 19 20  1  0
 20 21  1  0
 21 22  1  0
 22 23  1  0
 23 24  1  0
 23 25  1  0
 22 26  1  0
 22 27  1  0
 21 28  1  0
 21 29  1  0
 20 30  1  0
 20 31  1  0
 19 32  1  0
 18 33  2  0
 33 34  1  0
 34 35  1  0
 35 36  2  0
 36 37  1  0
 37 38  2  0
 38 39  1  0
 39 40  2  0
 40 41  1  0
 38 42  1  0
 37 43  1  0
 36 44  1  0
  2 45  1  0
  1 46  1  0
  9  4  1  0
 34 16  1  0
 40 35  1  0
 23 19  1  0
M  END
>  <cnnaffinity>  (1) 
-6.22076

>  <filename>  (1) 
OC(Cc1ccccn1)c1nc(C2CCCC2)nn1-c1cccnc1

$$$$
