
     RDKit          3D

 49 52  0  0  0  0  0  0  0  0999 V2000
    9.0859    1.6144   20.7059 O   0  0  0  0  0  0  0  0  0  0  0  0
    8.7806    1.1603   22.0116 C   0  0  0  0  0  0  0  0  0  0  0  0
    7.8582    2.2068   22.6922 C   0  0  0  0  0  0  0  0  0  0  0  0
    8.5229    3.5644   22.7848 C   0  0  0  0  0  0  0  0  0  0  0  0
    8.0758    4.6907   22.0682 C   0  0  0  0  0  0  0  0  0  0  0  0
    8.7568    5.9059   22.2065 C   0  0  0  0  0  0  0  0  0  0  0  0
    9.8773    5.9495   23.0393 C   0  0  0  0  0  0  0  0  0  0  0  0
   10.2261    4.7892   23.7384 C   0  0  0  0  0  0  0  0  0  0  0  0
    9.5716    3.6295   23.6205 N   0  0  0  0  0  0  0  0  0  0  0  0
   11.0512    4.7929   24.4478 H   0  0  0  0  0  0  0  0  0  0  0  0
   10.4723    6.8506   23.1555 H   0  0  0  0  0  0  0  0  0  0  0  0
    8.4092    6.7955   21.6865 H   0  0  0  0  0  0  0  0  0  0  0  0
    7.2153    4.6130   21.4108 H   0  0  0  0  0  0  0  0  0  0  0  0
    6.9339    2.2683   22.1017 H   0  0  0  0  0  0  0  0  0  0  0  0
    7.6047    1.8775   23.7044 H   0  0  0  0  0  0  0  0  0  0  0  0
    8.2499   -0.2656   21.9857 C   0  0  0  0  0  0  0  0  0  0  0  0
    8.5310   -1.2563   22.8204 N   0  0  0  0  0  0  0  0  0  0  0  0
    7.8298   -2.3022   22.3087 C   0  0  0  0  0  0  0  0  0  0  0  0
    7.7277   -3.6328   22.9852 C   0  0  0  0  0  0  0  0  0  0  0  0
    6.4894   -3.7147   23.9162 C   0  0  0  0  0  0  0  0  0  0  0  0
    6.3724   -5.0776   24.6234 C   0  0  0  0  0  0  0  0  0  0  0  0
    7.2144   -4.9632   25.9135 C   0  0  0  0  0  0  0  0  0  0  0  0
    7.2988   -3.4498   26.2354 C   0  0  0  0  0  0  0  0  0  0  0  0
    6.5535   -2.7194   25.0955 C   0  0  0  0  0  0  0  0  0  0  0  0
    5.5308   -2.4614   25.4011 H   0  0  0  0  0  0  0  0  0  0  0  0
    7.0519   -1.7800   24.8273 H   0  0  0  0  0  0  0  0  0  0  0  0
    6.8505   -3.2039   27.2043 H   0  0  0  0  0  0  0  0  0  0  0  0
    8.3462   -3.1262   26.2909 H   0  0  0  0  0  0  0  0  0  0  0  0
    6.7617   -5.5338   26.7316 H   0  0  0  0  0  0  0  0  0  0  0  0
    8.2178   -5.3812   25.7648 H   0  0  0  0  0  0  0  0  0  0  0  0
    5.3177   -5.2588   24.8735 H   0  0  0  0  0  0  0  0  0  0  0  0
    6.6955   -5.9107   23.9861 H   0  0  0  0  0  0  0  0  0  0  0  0
    5.5985   -3.5251   23.2968 H   0  0  0  0  0  0  0  0  0  0  0  0
    7.6516   -4.4042   22.2096 H   0  0  0  0  0  0  0  0  0  0  0  0
    8.6488   -3.7868   23.5563 H   0  0  0  0  0  0  0  0  0  0  0  0
    7.1432   -2.0245   21.2179 N   0  0  0  0  0  0  0  0  0  0  0  0
    7.3984   -0.7094   21.0232 N   0  0  0  0  0  0  0  0  0  0  0  0
    6.7183   -0.0014   19.9864 C   0  0  0  0  0  0  0  0  0  0  0  0
    5.4904    0.6317   20.2121 C   0  0  0  0  0  0  0  0  0  0  0  0
    4.8800    1.2811   19.1323 C   0  0  0  0  0  0  0  0  0  0  0  0
    5.5116    1.2686   17.8854 C   0  0  0  0  0  0  0  0  0  0  0  0
    6.6864    0.6561   17.6679 N   0  0  0  0  0  0  0  0  0  0  0  0
    7.2658    0.0280   18.6995 C   0  0  0  0  0  0  0  0  0  0  0  0
    8.2223   -0.4528   18.5101 H   0  0  0  0  0  0  0  0  0  0  0  0
    5.0563    1.7592   17.0265 H   0  0  0  0  0  0  0  0  0  0  0  0
    3.9312    1.7904   19.2504 H   0  0  0  0  0  0  0  0  0  0  0  0
    5.0211    0.6001   21.1968 H   0  0  0  0  0  0  0  0  0  0  0  0
    9.7235    1.0857   22.5723 H   0  0  0  0  0  0  0  0  0  0  0  0
    8.2868    2.0118   20.3266 H   0  0  0  0  0  0  0  0  0  0  0  0
  1  2  1  0
  2  3  1  0
  3  4  1  0
  4  5  2  0
  5  6  1  0
  6  7  2  0
  7  8  1  0
  8  9  2  0
  8 10  1  0
  7 11  1  0
  6 12  1  0
  5 13  1  0
  3 14  1  0
  3 15  1  0
  2 16  1  0
 16 17  2  0
 17 18  1  0
 18 19  1  0
 19 20  1  0
 20 21  1  0
 21 22  1  0
 22 23  1  0
 23 24  1  0
 24 25  1  0
 24 26  1  0
 23 27  1  0
 23 28  1  0
 22 29  1  0
 22 30  1  0
 21 31  1  0
 21 32  1  0
 20 33  1  0
 19 34  1  0
 19 35  1  0
 18 36  2  0
 36 37  1  0
 37 38  1  0
 38 39  2  0
 39 40  1  0
 40 41  2  0
 41 42  1  0
 42 43  2  0
 43 44  1  0
 41 45  1  0
 40 46  1  0
 39 47  1  0
  2 48  1  0
  1 49  1  0
  9  4  1  0
 37 16  1  0
 43 38  1  0
 24 20  1  0
M  END
>  <cnnaffinity>  (1) 
-6.2106

>  <filename>  (1) 
OC(Cc1ccccn1)c1nc(CC2CCCC2)nn1-c1cccnc1

$$$$
