
     RDKit          3D

 45 48  0  0  0  0  0  0  0  0999 V2000
    9.0476    1.5615   20.7073 O   0  0  0  0  0  0  0  0  0  0  0  0
    8.7190    1.1372   22.0223 C   0  0  0  0  0  0  0  0  0  0  0  0
    7.7886    2.1902   22.6993 C   0  0  0  0  0  0  0  0  0  0  0  0
    8.4476    3.5522   22.8940 C   0  0  0  0  0  0  0  0  0  0  0  0
    8.0376    4.6819   22.1615 C   0  0  0  0  0  0  0  0  0  0  0  0
    8.6851    5.9176   22.2664 C   0  0  0  0  0  0  0  0  0  0  0  0
    9.7980    6.0478   23.0981 C   0  0  0  0  0  0  0  0  0  0  0  0
   10.1924    4.9698   23.8976 C   0  0  0  0  0  0  0  0  0  0  0  0
    9.4982    3.7559   23.8133 C   0  0  0  0  0  0  0  0  0  0  0  0
    9.9505    2.4804   24.9234 Cl  0  0  0  0  0  0  0  0  0  0  0  0
   11.0151    5.0590   24.6009 H   0  0  0  0  0  0  0  0  0  0  0  0
   10.3499    6.9852   23.1344 H   0  0  0  0  0  0  0  0  0  0  0  0
    8.3219    6.7670   21.6939 H   0  0  0  0  0  0  0  0  0  0  0  0
    7.2000    4.5915   21.4777 H   0  0  0  0  0  0  0  0  0  0  0  0
    7.4503    1.8002   23.6647 H   0  0  0  0  0  0  0  0  0  0  0  0
    6.8923    2.3002   22.0743 H   0  0  0  0  0  0  0  0  0  0  0  0
    8.1941   -0.2965   22.0290 C   0  0  0  0  0  0  0  0  0  0  0  0
    8.4486   -1.2925   22.8706 N   0  0  0  0  0  0  0  0  0  0  0  0
    7.7401   -2.3280   22.3558 C   0  0  0  0  0  0  0  0  0  0  0  0
    7.6393   -3.6696   23.0319 C   0  0  0  0  0  0  0  0  0  0  0  0
    6.2745   -3.9524   23.7169 C   0  0  0  0  0  0  0  0  0  0  0  0
    6.2356   -5.4736   23.7480 C   0  0  0  0  0  0  0  0  0  0  0  0
    6.8660   -5.8778   22.5479 O   0  0  0  0  0  0  0  0  0  0  0  0
    7.7902   -4.8995   22.1029 C   0  0  0  0  0  0  0  0  0  0  0  0
    8.8027   -5.3205   22.1460 H   0  0  0  0  0  0  0  0  0  0  0  0
    7.5634   -4.6833   21.0514 H   0  0  0  0  0  0  0  0  0  0  0  0
    5.2232   -5.8953   23.7496 H   0  0  0  0  0  0  0  0  0  0  0  0
    6.7692   -5.8649   24.6305 H   0  0  0  0  0  0  0  0  0  0  0  0
    5.4534   -3.5688   23.1010 H   0  0  0  0  0  0  0  0  0  0  0  0
    6.1907   -3.5047   24.7099 H   0  0  0  0  0  0  0  0  0  0  0  0
    8.4375   -3.6936   23.7836 H   0  0  0  0  0  0  0  0  0  0  0  0
    7.0746   -2.0423   21.2495 N   0  0  0  0  0  0  0  0  0  0  0  0
    7.3617   -0.7355   21.0455 N   0  0  0  0  0  0  0  0  0  0  0  0
    6.7122   -0.0217   19.9909 C   0  0  0  0  0  0  0  0  0  0  0  0
    5.4828    0.6110   20.2104 C   0  0  0  0  0  0  0  0  0  0  0  0
    4.8831    1.2687   19.1307 C   0  0  0  0  0  0  0  0  0  0  0  0
    5.5350    1.2626   17.8923 C   0  0  0  0  0  0  0  0  0  0  0  0
    6.7151    0.6556   17.6807 N   0  0  0  0  0  0  0  0  0  0  0  0
    7.2846    0.0169   18.7123 C   0  0  0  0  0  0  0  0  0  0  0  0
    8.2523   -0.4519   18.5285 H   0  0  0  0  0  0  0  0  0  0  0  0
    5.0877    1.7552   17.0332 H   0  0  0  0  0  0  0  0  0  0  0  0
    3.9332    1.7815   19.2454 H   0  0  0  0  0  0  0  0  0  0  0  0
    5.0106    0.5833   21.1964 H   0  0  0  0  0  0  0  0  0  0  0  0
    9.6592    1.0938   22.5819 H   0  0  0  0  0  0  0  0  0  0  0  0
    8.2790    2.0239   20.3370 H   0  0  0  0  0  0  0  0  0  0  0  0
  1  2  1  0
  2  3  1  0
  3  4  1  0
  4  5  2  0
  5  6  1  0
  6  7  2  0
  7  8  1  0
  8  9  2  0
  9 10  1  0
  8 11  1  0
  7 12  1  0
  6 13  1  0
  5 14  1  0
  3 15  1  0
  3 16  1  0
  2 17  1  0
 17 18  2  0
 18 19  1  0
 19 20  1  0
 20 21  1  0
 21 22  1  0
 22 23  1  0
 23 24  1  0
 24 25  1  0
 24 26  1  0
 22 27  1  0
 22 28  1  0
 21 29  1  0
 21 30  1  0
 20 31  1  0
 19 32  2  0
 32 33  1  0
 33 34  1  0
 34 35  2  0
 35 36  1  0
 36 37  2  0
 37 38  1  0
 38 39  2  0
 39 40  1  0
 37 41  1  0
 36 42  1  0
 35 43  1  0
  2 44  1  0
  1 45  1  0
  9  4  1  0
 33 17  1  0
 39 34  1  0
 24 20  1  0
M  END
>  <cnnaffinity>  (1) 
-6.18344

>  <filename>  (1) 
OC(Cc1ccccc1Cl)c1nc(C2CCOC2)nn1-c1cccnc1

$$$$
