
     RDKit          3D

 41 44  0  0  0  0  0  0  0  0999 V2000
    9.0718    1.5985   20.6880 O   0  0  0  0  0  0  0  0  0  0  0  0
    8.7493    1.1550   21.9930 C   0  0  0  0  0  0  0  0  0  0  0  0
    7.8033    2.1854   22.6829 C   0  0  0  0  0  0  0  0  0  0  0  0
    8.4333    3.5584   22.8947 C   0  0  0  0  0  0  0  0  0  0  0  0
    8.0396    4.6776   22.1388 C   0  0  0  0  0  0  0  0  0  0  0  0
    8.7043    5.9061   22.2347 C   0  0  0  0  0  0  0  0  0  0  0  0
    9.7918    6.0425   23.1040 C   0  0  0  0  0  0  0  0  0  0  0  0
   10.1589    4.9802   23.9343 C   0  0  0  0  0  0  0  0  0  0  0  0
    9.4628    3.7716   23.8312 C   0  0  0  0  0  0  0  0  0  0  0  0
    9.8861    2.4988   24.9393 Cl  0  0  0  0  0  0  0  0  0  0  0  0
   10.9519    5.0759   24.6733 H   0  0  0  0  0  0  0  0  0  0  0  0
   10.3732    6.9581   23.1180 H   0  0  0  0  0  0  0  0  0  0  0  0
    8.3595    6.7413   21.6315 H   0  0  0  0  0  0  0  0  0  0  0  0
    7.1986    4.5876   21.4541 H   0  0  0  0  0  0  0  0  0  0  0  0
    6.9221    2.2725   22.0323 H   0  0  0  0  0  0  0  0  0  0  0  0
    7.4661    1.7703   23.6392 H   0  0  0  0  0  0  0  0  0  0  0  0
    8.2083   -0.2691   21.9838 C   0  0  0  0  0  0  0  0  0  0  0  0
    8.4728   -1.2483   22.8297 N   0  0  0  0  0  0  0  0  0  0  0  0
    7.7999   -2.3106   22.3016 C   0  0  0  0  0  0  0  0  0  0  0  0
    7.7789   -3.6522   22.9475 C   0  0  0  0  0  0  0  0  0  0  0  0
    7.6395   -3.7199   24.4479 C   0  0  0  0  0  0  0  0  0  0  0  0
    6.5104   -4.1912   23.5849 C   0  0  0  0  0  0  0  0  0  0  0  0
    5.6128   -3.5760   23.5151 H   0  0  0  0  0  0  0  0  0  0  0  0
    6.3348   -5.2634   23.5165 H   0  0  0  0  0  0  0  0  0  0  0  0
    7.5180   -2.7622   24.9547 H   0  0  0  0  0  0  0  0  0  0  0  0
    8.2477   -4.4432   24.9853 H   0  0  0  0  0  0  0  0  0  0  0  0
    8.4300   -4.3732   22.4474 H   0  0  0  0  0  0  0  0  0  0  0  0
    7.1410   -2.0452   21.1900 N   0  0  0  0  0  0  0  0  0  0  0  0
    7.3743   -0.7238   21.0073 N   0  0  0  0  0  0  0  0  0  0  0  0
    6.7106   -0.0133   19.9629 C   0  0  0  0  0  0  0  0  0  0  0  0
    5.4838    0.6166   20.1901 C   0  0  0  0  0  0  0  0  0  0  0  0
    4.8735    1.2743   19.1168 C   0  0  0  0  0  0  0  0  0  0  0  0
    5.5055    1.2739   17.8703 C   0  0  0  0  0  0  0  0  0  0  0  0
    6.6795    0.6599   17.6487 N   0  0  0  0  0  0  0  0  0  0  0  0
    7.2589    0.0238   18.6764 C   0  0  0  0  0  0  0  0  0  0  0  0
    8.2170   -0.4520   18.4811 H   0  0  0  0  0  0  0  0  0  0  0  0
    5.0531    1.7779   17.0172 H   0  0  0  0  0  0  0  0  0  0  0  0
    3.9290    1.7887   19.2440 H   0  0  0  0  0  0  0  0  0  0  0  0
    5.0206    0.5841   21.1774 H   0  0  0  0  0  0  0  0  0  0  0  0
    9.6944    1.0846   22.5480 H   0  0  0  0  0  0  0  0  0  0  0  0
    8.2792    2.0071   20.2991 H   0  0  0  0  0  0  0  0  0  0  0  0
  1  2  1  0
  2  3  1  0
  3  4  1  0
  4  5  2  0
  5  6  1  0
  6  7  2  0
  7  8  1  0
  8  9  2  0
  9 10  1  0
  8 11  1  0
  7 12  1  0
  6 13  1  0
  5 14  1  0
  3 15  1  0
  3 16  1  0
  2 17  1  0
 17 18  2  0
 18 19  1  0
 19 20  1  0
 20 21  1  0
 21 22  1  0
 22 23  1  0
 22 24  1  0
 21 25  1  0
 21 26  1  0
 20 27  1  0
 19 28  2  0
 28 29  1  0
 29 30  1  0
 30 31  2  0
 31 32  1  0
 32 33  2  0
 33 34  1  0
 34 35  2  0
 35 36  1  0
 33 37  1  0
 32 38  1  0
 31 39  1  0
  2 40  1  0
  1 41  1  0
  9  4  1  0
 29 17  1  0
 35 30  1  0
 22 20  1  0
M  END
>  <cnnaffinity>  (1) 
-6.06862

>  <filename>  (1) 
OC(Cc1ccccc1Cl)c1nc(C2CC2)nn1-c1cccnc1

$$$$
