
     RDKit          3D

 49 52  0  0  0  0  0  0  0  0999 V2000
    8.7401    1.7062   20.7155 O   0  0  0  0  0  0  0  0  0  0  0  0
    8.5624    1.2249   22.0335 C   0  0  0  0  0  0  0  0  0  0  0  0
    7.7154    2.2268   22.8456 C   0  0  0  0  0  0  0  0  0  0  0  0
    8.4053    3.5580   22.8761 C   0  0  0  0  0  0  0  0  0  0  0  0
    9.5354    3.7573   23.6859 C   0  0  0  0  0  0  0  0  0  0  0  0
   10.1154    5.0247   23.7395 C   0  0  0  0  0  0  0  0  0  0  0  0
    9.5387    6.0394   22.9750 C   0  0  0  0  0  0  0  0  0  0  0  0
    8.4633    5.7232   22.1374 C   0  0  0  0  0  0  0  0  0  0  0  0
    7.9272    4.4957   22.0535 N   0  0  0  0  0  0  0  0  0  0  0  0
    8.0357    6.4827   21.4877 H   0  0  0  0  0  0  0  0  0  0  0  0
    9.9164    7.0551   23.0021 H   0  0  0  0  0  0  0  0  0  0  0  0
   11.0024    5.1989   24.3496 H   0  0  0  0  0  0  0  0  0  0  0  0
    9.9440    2.9149   24.2313 H   0  0  0  0  0  0  0  0  0  0  0  0
    7.5519    1.8446   23.8575 H   0  0  0  0  0  0  0  0  0  0  0  0
    6.7427    2.3590   22.3613 H   0  0  0  0  0  0  0  0  0  0  0  0
    8.0064   -0.1777   22.0704 C   0  0  0  0  0  0  0  0  0  0  0  0
    8.1803   -1.0483   23.0502 N   0  0  0  0  0  0  0  0  0  0  0  0
    7.5051   -2.1418   22.6115 C   0  0  0  0  0  0  0  0  0  0  0  0
    7.4823   -3.4329   23.3828 C   0  0  0  0  0  0  0  0  0  0  0  0
    6.7355   -3.3451   24.7545 C   0  0  0  0  0  0  0  0  0  0  0  0
    7.1963   -4.4333   25.7561 C   0  0  0  0  0  0  0  0  0  0  0  0
    7.6386   -5.7089   25.0281 C   0  0  0  0  0  0  0  0  0  0  0  0
    8.8442   -5.4573   24.0910 C   0  0  0  0  0  0  0  0  0  0  0  0
    8.9061   -4.0027   23.5817 C   0  0  0  0  0  0  0  0  0  0  0  0
    9.4357   -3.3669   24.3038 H   0  0  0  0  0  0  0  0  0  0  0  0
    9.4853   -3.9361   22.6584 H   0  0  0  0  0  0  0  0  0  0  0  0
    8.7845   -6.1479   23.2404 H   0  0  0  0  0  0  0  0  0  0  0  0
    9.7832   -5.6900   24.6074 H   0  0  0  0  0  0  0  0  0  0  0  0
    6.7855   -6.0809   24.4465 H   0  0  0  0  0  0  0  0  0  0  0  0
    7.8814   -6.4986   25.7436 H   0  0  0  0  0  0  0  0  0  0  0  0
    8.0429   -4.0561   26.3464 H   0  0  0  0  0  0  0  0  0  0  0  0
    6.3979   -4.6551   26.4753 H   0  0  0  0  0  0  0  0  0  0  0  0
    5.6591   -3.4500   24.5683 H   0  0  0  0  0  0  0  0  0  0  0  0
    6.8725   -2.3571   25.2101 H   0  0  0  0  0  0  0  0  0  0  0  0
    6.9284   -4.1370   22.7501 H   0  0  0  0  0  0  0  0  0  0  0  0
    6.9168   -1.9911   21.4410 N   0  0  0  0  0  0  0  0  0  0  0  0
    7.2299   -0.7165   21.0965 N   0  0  0  0  0  0  0  0  0  0  0  0
    6.6279   -0.0594   19.9740 C   0  0  0  0  0  0  0  0  0  0  0  0
    5.4055    0.5997   20.1338 C   0  0  0  0  0  0  0  0  0  0  0  0
    4.8755    1.2837   19.0361 C   0  0  0  0  0  0  0  0  0  0  0  0
    5.5834    1.2760   17.8290 C   0  0  0  0  0  0  0  0  0  0  0  0
    6.7564    0.6435   17.6688 N   0  0  0  0  0  0  0  0  0  0  0  0
    7.2697   -0.0058   18.7241 C   0  0  0  0  0  0  0  0  0  0  0  0
    8.2478   -0.4570   18.5740 H   0  0  0  0  0  0  0  0  0  0  0  0
    5.1947    1.8093   16.9656 H   0  0  0  0  0  0  0  0  0  0  0  0
    3.9437    1.8324   19.1181 H   0  0  0  0  0  0  0  0  0  0  0  0
    4.8906    0.5747   21.0979 H   0  0  0  0  0  0  0  0  0  0  0  0
    9.5485    1.1298   22.5197 H   0  0  0  0  0  0  0  0  0  0  0  0
    8.3719    2.6058   20.6540 H   0  0  0  0  0  0  0  0  0  0  0  0
  1  2  1  0
  2  3  1  0
  3  4  1  0
  4  5  2  0
  5  6  1  0
  6  7  2  0
  7  8  1  0
  8  9  2  0
  8 10  1  0
  7 11  1  0
  6 12  1  0
  5 13  1  0
  3 14  1  0
  3 15  1  0
  2 16  1  0
 16 17  2  0
 17 18  1  0
 18 19  1  0
 19 20  1  0
 20 21  1  0
 21 22  1  0
 22 23  1  0
 23 24  1  0
 24 25  1  0
 24 26  1  0
 23 27  1  0
 23 28  1  0
 22 29  1  0
 22 30  1  0
 21 31  1  0
 21 32  1  0
 20 33  1  0
 20 34  1  0
 19 35  1  0
 18 36  2  0
 36 37  1  0
 37 38  1  0
 38 39  2  0
 39 40  1  0
 40 41  2  0
 41 42  1  0
 42 43  2  0
 43 44  1  0
 41 45  1  0
 40 46  1  0
 39 47  1  0
  2 48  1  0
  1 49  1  0
  9  4  1  0
 37 16  1  0
 43 38  1  0
 24 19  1  0
M  END
>  <cnnaffinity>  (1) 
-6.28397

>  <filename>  (1) 
OC(Cc1ccccn1)c1nc(C2CCCCC2)nn1-c1cccnc1

$$$$
