
     RDKit          3D

 47 50  0  0  0  0  0  0  0  0999 V2000
   10.8719    0.5767   21.4227 O   0  0  0  0  0  0  0  0  0  0  0  0
    9.5289    0.6665   21.0319 C   0  0  0  0  0  0  0  0  0  0  0  0
    8.9353    1.9955   21.5908 C   0  0  0  0  0  0  0  0  0  0  0  0
    8.7664    1.8974   23.0819 C   0  0  0  0  0  0  0  0  0  0  0  0
    7.5108    1.7085   23.6847 C   0  0  0  0  0  0  0  0  0  0  0  0
    7.4215    1.6448   25.0733 C   0  0  0  0  0  0  0  0  0  0  0  0
    8.6071    1.7419   25.8065 C   0  0  0  0  0  0  0  0  0  0  0  0
    9.8210    1.8623   25.1223 C   0  0  0  0  0  0  0  0  0  0  0  0
    9.9100    1.8952   23.7886 N   0  0  0  0  0  0  0  0  0  0  0  0
   10.7600    1.9337   25.6668 H   0  0  0  0  0  0  0  0  0  0  0  0
    8.6092    1.7091   26.8854 H   0  0  0  0  0  0  0  0  0  0  0  0
    6.4546    1.5065   25.5689 H   0  0  0  0  0  0  0  0  0  0  0  0
    6.6340    1.5936   23.0551 H   0  0  0  0  0  0  0  0  0  0  0  0
    9.6502    2.7974   21.3632 H   0  0  0  0  0  0  0  0  0  0  0  0
    7.9897    2.2318   21.0980 H   0  0  0  0  0  0  0  0  0  0  0  0
    8.6680   -0.5601   21.3950 C   0  0  0  0  0  0  0  0  0  0  0  0
    8.8629   -1.4600   22.3448 N   0  0  0  0  0  0  0  0  0  0  0  0
    7.6325   -2.0081   22.5386 C   0  0  0  0  0  0  0  0  0  0  0  0
    7.3564   -2.9512   23.6797 C   0  0  0  0  0  0  0  0  0  0  0  0
    8.5095   -3.9755   23.8545 C   0  0  0  0  0  0  0  0  0  0  0  0
    8.4208   -4.7529   25.1474 C   0  0  0  0  0  0  0  0  0  0  0  0
    7.6490   -4.3892   26.1768 C   0  0  0  0  0  0  0  0  0  0  0  0
    6.8020   -3.1357   26.1753 C   0  0  0  0  0  0  0  0  0  0  0  0
    7.1617   -2.1805   25.0177 C   0  0  0  0  0  0  0  0  0  0  0  0
    6.3846   -1.4121   24.9141 H   0  0  0  0  0  0  0  0  0  0  0  0
    8.1047   -1.6595   25.2546 H   0  0  0  0  0  0  0  0  0  0  0  0
    5.7388   -3.4252   26.1351 H   0  0  0  0  0  0  0  0  0  0  0  0
    6.9229   -2.6128   27.1346 H   0  0  0  0  0  0  0  0  0  0  0  0
    7.6027   -5.0218   27.0653 H   0  0  0  0  0  0  0  0  0  0  0  0
    9.0707   -5.6240   25.2415 H   0  0  0  0  0  0  0  0  0  0  0  0
    8.5279   -4.6686   23.0049 H   0  0  0  0  0  0  0  0  0  0  0  0
    9.4730   -3.4401   23.8239 H   0  0  0  0  0  0  0  0  0  0  0  0
    6.4201   -3.4714   23.4257 H   0  0  0  0  0  0  0  0  0  0  0  0
    6.7019   -1.5503   21.7265 N   0  0  0  0  0  0  0  0  0  0  0  0
    7.3738   -0.6554   20.9533 N   0  0  0  0  0  0  0  0  0  0  0  0
    6.6852   -0.0051   19.8906 C   0  0  0  0  0  0  0  0  0  0  0  0
    5.4640    0.6286   20.1399 C   0  0  0  0  0  0  0  0  0  0  0  0
    4.8434    1.3090   19.0893 C   0  0  0  0  0  0  0  0  0  0  0  0
    5.4378    1.3051   17.8224 C   0  0  0  0  0  0  0  0  0  0  0  0
    6.5768    0.6470   17.5610 N   0  0  0  0  0  0  0  0  0  0  0  0
    7.1761    0.0074   18.5724 C   0  0  0  0  0  0  0  0  0  0  0  0
    8.0828   -0.5353   18.3176 H   0  0  0  0  0  0  0  0  0  0  0  0
    4.9790    1.8384   16.9897 H   0  0  0  0  0  0  0  0  0  0  0  0
    3.9084    1.8374   19.2397 H   0  0  0  0  0  0  0  0  0  0  0  0
    5.0137    0.5658   21.1318 H   0  0  0  0  0  0  0  0  0  0  0  0
    9.5339    0.7132   19.9378 H   0  0  0  0  0  0  0  0  0  0  0  0
   10.9137    0.8749   22.3534 H   0  0  0  0  0  0  0  0  0  0  0  0
  1  2  1  0
  2  3  1  0
  3  4  1  0
  4  5  2  0
  5  6  1  0
  6  7  2  0
  7  8  1  0
  8  9  2  0
  8 10  1  0
  7 11  1  0
  6 12  1  0
  5 13  1  0
  3 14  1  0
  3 15  1  0
  2 16  1  0
 16 17  2  0
 17 18  1  0
 18 19  1  0
 19 20  1  0
 20 21  1  0
 21 22  2  0
 22 23  1  0
 23 24  1  0
 24 25  1  0
 24 26  1  0
 23 27  1  0
 23 28  1  0
 22 29  1  0
 21 30  1  0
 20 31  1  0
 20 32  1  0
 19 33  1  0
 18 34  2  0
 34 35  1  0
 35 36  1  0
 36 37  2  0
 37 38  1  0
 38 39  2  0
 39 40  1  0
 40 41  2  0
 41 42  1  0
 39 43  1  0
 38 44  1  0
 37 45  1  0
  2 46  1  0
  1 47  1  0
  9  4  1  0
 35 16  1  0
 41 36  1  0
 24 19  1  0
M  END
>  <cnnaffinity>  (1) 
-6.00299

>  <filename>  (1) 
OC(Cc1ccccn1)c1nc(C2CC=CCC2)nn1-c1cccnc1

$$$$
