
     RDKit          3D

 45 49  0  0  0  0  0  0  0  0999 V2000
    8.4154    2.0329   20.9800 O   0  0  0  0  0  0  0  0  0  0  0  0
    8.3759    1.2942   22.1928 C   0  0  0  0  0  0  0  0  0  0  0  0
    7.3015    1.8482   23.1709 C   0  0  0  0  0  0  0  0  0  0  0  0
    7.6104    3.2511   23.6267 C   0  0  0  0  0  0  0  0  0  0  0  0
    7.0489    4.3483   22.9516 C   0  0  0  0  0  0  0  0  0  0  0  0
    7.3466    5.6625   23.3199 C   0  0  0  0  0  0  0  0  0  0  0  0
    8.2336    5.9005   24.3730 C   0  0  0  0  0  0  0  0  0  0  0  0
    8.8252    4.8306   25.0500 C   0  0  0  0  0  0  0  0  0  0  0  0
    8.5138    3.5226   24.6720 C   0  0  0  0  0  0  0  0  0  0  0  0
    9.3076    2.2192   25.5257 Cl  0  0  0  0  0  0  0  0  0  0  0  0
    9.5277    4.9935   25.8609 H   0  0  0  0  0  0  0  0  0  0  0  0
    8.4766    6.9188   24.6589 H   0  0  0  0  0  0  0  0  0  0  0  0
    6.8917    6.4897   22.7825 H   0  0  0  0  0  0  0  0  0  0  0  0
    6.3736    4.1598   22.1189 H   0  0  0  0  0  0  0  0  0  0  0  0
    6.3268    1.8184   22.6704 H   0  0  0  0  0  0  0  0  0  0  0  0
    7.2454    1.1786   24.0360 H   0  0  0  0  0  0  0  0  0  0  0  0
    8.1309   -0.1648   21.9216 C   0  0  0  0  0  0  0  0  0  0  0  0
    8.5458   -1.1513   22.6896 N   0  0  0  0  0  0  0  0  0  0  0  0
    8.0815   -2.2529   22.0463 C   0  0  0  0  0  0  0  0  0  0  0  0
    8.4710   -3.5550   22.6179 C   0  0  0  0  0  0  0  0  0  0  0  0
    7.9683   -3.8843   23.9806 C   0  0  0  0  0  0  0  0  0  0  0  0
    7.5686   -4.7878   22.7714 C   0  0  0  0  0  0  0  0  0  0  0  0
    7.0589   -6.1937   23.0249 C   0  0  0  0  0  0  0  0  0  0  0  0
    7.5851   -5.8452   21.6757 C   0  0  0  0  0  0  0  0  0  0  0  0
    8.5848   -6.1889   21.4203 H   0  0  0  0  0  0  0  0  0  0  0  0
    6.8756   -5.7922   20.8526 H   0  0  0  0  0  0  0  0  0  0  0  0
    7.7418   -6.7482   23.6611 H   0  0  0  0  0  0  0  0  0  0  0  0
    5.9891   -6.3668   23.1312 H   0  0  0  0  0  0  0  0  0  0  0  0
    7.2027   -3.2391   24.4073 H   0  0  0  0  0  0  0  0  0  0  0  0
    8.6489   -4.3183   24.7248 H   0  0  0  0  0  0  0  0  0  0  0  0
    9.5308   -3.7406   22.4557 H   0  0  0  0  0  0  0  0  0  0  0  0
    7.3998   -2.0161   20.9431 N   0  0  0  0  0  0  0  0  0  0  0  0
    7.3981   -0.6598   20.8877 N   0  0  0  0  0  0  0  0  0  0  0  0
    6.6624    0.0305   19.8763 C   0  0  0  0  0  0  0  0  0  0  0  0
    5.4494    0.6743   20.1412 C   0  0  0  0  0  0  0  0  0  0  0  0
    4.8085    1.3260   19.0798 C   0  0  0  0  0  0  0  0  0  0  0  0
    5.4045    1.3054   17.8165 C   0  0  0  0  0  0  0  0  0  0  0  0
    6.5576    0.6654   17.5555 N   0  0  0  0  0  0  0  0  0  0  0  0
    7.1639    0.0357   18.5697 C   0  0  0  0  0  0  0  0  0  0  0  0
    8.0998   -0.4779   18.3528 H   0  0  0  0  0  0  0  0  0  0  0  0
    4.9395    1.8156   16.9747 H   0  0  0  0  0  0  0  0  0  0  0  0
    3.8693    1.8464   19.2270 H   0  0  0  0  0  0  0  0  0  0  0  0
    5.0068    0.6453   21.1386 H   0  0  0  0  0  0  0  0  0  0  0  0
    9.3457    1.3286   22.7133 H   0  0  0  0  0  0  0  0  0  0  0  0
    8.7055    2.9400   21.1822 H   0  0  0  0  0  0  0  0  0  0  0  0
  1  2  1  0
  2  3  1  0
  3  4  1  0
  4  5  2  0
  5  6  1  0
  6  7  2  0
  7  8  1  0
  8  9  2  0
  9 10  1  0
  8 11  1  0
  7 12  1  0
  6 13  1  0
  5 14  1  0
  3 15  1  0
  3 16  1  0
  2 17  1  0
 17 18  2  0
 18 19  1  0
 19 20  1  0
 20 21  1  0
 21 22  1  0
 22 23  1  0
 23 24  1  0
 24 25  1  0
 24 26  1  0
 23 27  1  0
 23 28  1  0
 21 29  1  0
 21 30  1  0
 20 31  1  0
 19 32  2  0
 32 33  1  0
 33 34  1  0
 34 35  2  0
 35 36  1  0
 36 37  2  0
 37 38  1  0
 38 39  2  0
 39 40  1  0
 37 41  1  0
 36 42  1  0
 35 43  1  0
  2 44  1  0
  1 45  1  0
  9  4  1  0
 33 17  1  0
 39 34  1  0
 22 20  1  0
 24 22  1  0
M  END
>  <cnnaffinity>  (1) 
-6.30036

>  <filename>  (1) 
OC(Cc1ccccc1Cl)c1nc(C2CC23CC3)nn1-c1cccnc1

$$$$
