
     RDKit          3D

 49 52  0  0  0  0  0  0  0  0999 V2000
   10.9498    0.0871   21.1881 O   0  0  0  0  0  0  0  0  0  0  0  0
    9.6123    0.5269   21.2943 C   0  0  0  0  0  0  0  0  0  0  0  0
    9.5591    1.5474   22.4671 C   0  0  0  0  0  0  0  0  0  0  0  0
    8.2361    2.2315   22.6151 C   0  0  0  0  0  0  0  0  0  0  0  0
    7.9509    3.3318   21.8016 C   0  0  0  0  0  0  0  0  0  0  0  0
    6.6970    3.9352   21.8339 C   0  0  0  0  0  0  0  0  0  0  0  0
    5.7547    3.3842   22.7075 C   0  0  0  0  0  0  0  0  0  0  0  0
    6.1461    2.3169   23.5244 C   0  0  0  0  0  0  0  0  0  0  0  0
    7.3547    1.7324   23.4930 N   0  0  0  0  0  0  0  0  0  0  0  0
    5.4454    1.9200   24.2527 H   0  0  0  0  0  0  0  0  0  0  0  0
    4.7416    3.7668   22.7849 H   0  0  0  0  0  0  0  0  0  0  0  0
    6.4971    4.8062   21.2016 H   0  0  0  0  0  0  0  0  0  0  0  0
    8.7283    3.6938   21.1553 H   0  0  0  0  0  0  0  0  0  0  0  0
   10.3539    2.2793   22.2820 H   0  0  0  0  0  0  0  0  0  0  0  0
    9.7769    1.0292   23.4062 H   0  0  0  0  0  0  0  0  0  0  0  0
    8.6269   -0.6216   21.4784 C   0  0  0  0  0  0  0  0  0  0  0  0
    8.7890   -1.5258   22.4254 N   0  0  0  0  0  0  0  0  0  0  0  0
    7.5611   -2.0886   22.5519 C   0  0  0  0  0  0  0  0  0  0  0  0
    7.3029   -3.0167   23.7044 C   0  0  0  0  0  0  0  0  0  0  0  0
    7.0899   -2.2038   25.0280 C   0  0  0  0  0  0  0  0  0  0  0  0
    7.4278   -3.0130   26.3074 C   0  0  0  0  0  0  0  0  0  0  0  0
    7.2970   -4.5154   26.0841 C   0  0  0  0  0  0  0  0  0  0  0  0
    5.9824   -4.7878   25.7698 F   0  0  0  0  0  0  0  0  0  0  0  0
    7.5474   -5.1840   27.2507 F   0  0  0  0  0  0  0  0  0  0  0  0
    8.1959   -5.0536   24.9622 C   0  0  0  0  0  0  0  0  0  0  0  0
    8.4778   -4.0058   23.8673 C   0  0  0  0  0  0  0  0  0  0  0  0
    9.3763   -3.4240   24.1201 H   0  0  0  0  0  0  0  0  0  0  0  0
    8.6877   -4.5093   22.9183 H   0  0  0  0  0  0  0  0  0  0  0  0
    7.6959   -5.9309   24.5376 H   0  0  0  0  0  0  0  0  0  0  0  0
    9.1388   -5.3980   25.4023 H   0  0  0  0  0  0  0  0  0  0  0  0
    6.7779   -2.7310   27.1413 H   0  0  0  0  0  0  0  0  0  0  0  0
    8.4590   -2.8172   26.6248 H   0  0  0  0  0  0  0  0  0  0  0  0
    6.0478   -1.8653   25.0694 H   0  0  0  0  0  0  0  0  0  0  0  0
    7.7152   -1.2990   25.0123 H   0  0  0  0  0  0  0  0  0  0  0  0
    6.3837   -3.5730   23.4944 H   0  0  0  0  0  0  0  0  0  0  0  0
    6.6664   -1.6453   21.6941 N   0  0  0  0  0  0  0  0  0  0  0  0
    7.3611   -0.7275   20.9617 N   0  0  0  0  0  0  0  0  0  0  0  0
    6.6904   -0.0280   19.9088 C   0  0  0  0  0  0  0  0  0  0  0  0
    5.4814    0.6240   20.1692 C   0  0  0  0  0  0  0  0  0  0  0  0
    4.8600    1.3206   19.1296 C   0  0  0  0  0  0  0  0  0  0  0  0
    5.4531    1.3151   17.8623 C   0  0  0  0  0  0  0  0  0  0  0  0
    6.5881    0.6566   17.5925 N   0  0  0  0  0  0  0  0  0  0  0  0
    7.1885   -0.0020   18.5926 C   0  0  0  0  0  0  0  0  0  0  0  0
    8.0930   -0.5502   18.3297 H   0  0  0  0  0  0  0  0  0  0  0  0
    4.9873    1.8468   17.0343 H   0  0  0  0  0  0  0  0  0  0  0  0
    3.9337    1.8604   19.2901 H   0  0  0  0  0  0  0  0  0  0  0  0
    5.0360    0.5528   21.1621 H   0  0  0  0  0  0  0  0  0  0  0  0
    9.3886    1.0247   20.3475 H   0  0  0  0  0  0  0  0  0  0  0  0
   11.1507   -0.4190   21.9921 H   0  0  0  0  0  0  0  0  0  0  0  0
  1  2  1  0
  2  3  1  0
  3  4  1  0
  4  5  2  0
  5  6  1  0
  6  7  2  0
  7  8  1  0
  8  9  2  0
  8 10  1  0
  7 11  1  0
  6 12  1  0
  5 13  1  0
  3 14  1  0
  3 15  1  0
  2 16  1  0
 16 17  2  0
 17 18  1  0
 18 19  1  0
 19 20  1  0
 20 21  1  0
 21 22  1  0
 22 23  1  0
 22 24  1  0
 22 25  1  0
 25 26  1  0
 26 27  1  0
 26 28  1  0
 25 29  1  0
 25 30  1  0
 21 31  1  0
 21 32  1  0
 20 33  1  0
 20 34  1  0
 19 35  1  0
 18 36  2  0
 36 37  1  0
 37 38  1  0
 38 39  2  0
 39 40  1  0
 40 41  2  0
 41 42  1  0
 42 43  2  0
 43 44  1  0
 41 45  1  0
 40 46  1  0
 39 47  1  0
  2 48  1  0
  1 49  1  0
  9  4  1  0
 37 16  1  0
 43 38  1  0
 26 19  1  0
M  END
>  <cnnaffinity>  (1) 
-6.27156

>  <filename>  (1) 
OC(Cc1ccccn1)c1nc(C2CCC(F)(F)CC2)nn1-c1cccnc1

$$$$
