
     RDKit          3D

 43 46  0  0  0  0  0  0  0  0999 V2000
   10.9240   -1.2635   21.2226 O   0  0  0  0  0  0  0  0  0  0  0  0
   11.7201   -0.2404   21.6094 C   0  0  0  0  0  0  0  0  0  0  0  0
   12.9907   -0.4311   22.1484 C   0  0  0  0  0  0  0  0  0  0  0  0
   13.6913    0.7064   22.5403 C   0  0  0  0  0  0  0  0  0  0  0  0
   13.2142    1.9472   22.4582 N   0  0  0  0  0  0  0  0  0  0  0  0
   12.0105    2.0913   21.9052 C   0  0  0  0  0  0  0  0  0  0  0  0
   11.2153    1.0471   21.4468 C   0  0  0  0  0  0  0  0  0  0  0  0
    9.8033    1.2910   20.9712 C   0  0  0  0  0  0  0  0  0  0  0  0
    8.7845    1.1129   22.0479 C   0  0  0  0  0  0  0  0  0  0  0  0
    8.7492    1.8593   23.1337 N   0  0  0  0  0  0  0  0  0  0  0  0
    7.6891    1.3663   23.8209 C   0  0  0  0  0  0  0  0  0  0  0  0
    7.2682    1.8842   25.1446 C   0  0  0  0  0  0  0  0  0  0  0  0
    6.1312    1.3433   25.7799 C   0  0  0  0  0  0  0  0  0  0  0  0
    5.7255    1.8233   27.0251 C   0  0  0  0  0  0  0  0  0  0  0  0
    6.4418    2.8448   27.6568 C   0  0  0  0  0  0  0  0  0  0  0  0
    7.5719    3.3876   27.0348 C   0  0  0  0  0  0  0  0  0  0  0  0
    7.9888    2.9139   25.7880 C   0  0  0  0  0  0  0  0  0  0  0  0
    8.8702    3.3421   25.3118 H   0  0  0  0  0  0  0  0  0  0  0  0
    8.1275    4.1838   27.5229 H   0  0  0  0  0  0  0  0  0  0  0  0
    6.1196    3.2139   28.6284 H   0  0  0  0  0  0  0  0  0  0  0  0
    4.8477    1.3954   27.5020 H   0  0  0  0  0  0  0  0  0  0  0  0
    5.5745    0.5458   25.2900 H   0  0  0  0  0  0  0  0  0  0  0  0
    7.0620    0.3778   23.1946 N   0  0  0  0  0  0  0  0  0  0  0  0
    7.7859    0.2099   22.0679 N   0  0  0  0  0  0  0  0  0  0  0  0
    7.3726   -0.7027   21.0066 C   0  0  0  0  0  0  0  0  0  0  0  0
    6.6519    0.0024   19.8837 C   0  0  0  0  0  0  0  0  0  0  0  0
    5.4384    0.6466   20.1479 C   0  0  0  0  0  0  0  0  0  0  0  0
    4.8043    1.3102   19.0985 C   0  0  0  0  0  0  0  0  0  0  0  0
    5.3990    1.2960   17.8318 C   0  0  0  0  0  0  0  0  0  0  0  0
    6.5605    0.6824   17.5632 N   0  0  0  0  0  0  0  0  0  0  0  0
    7.1658    0.0600   18.5815 C   0  0  0  0  0  0  0  0  0  0  0  0
    8.1158   -0.4281   18.3529 H   0  0  0  0  0  0  0  0  0  0  0  0
    4.9148    1.7870   16.9918 H   0  0  0  0  0  0  0  0  0  0  0  0
    3.8751    1.8432   19.2544 H   0  0  0  0  0  0  0  0  0  0  0  0
    5.0249    0.6319   21.1616 H   0  0  0  0  0  0  0  0  0  0  0  0
    8.2650   -1.2186   20.6401 H   0  0  0  0  0  0  0  0  0  0  0  0
    6.7252   -1.4437   21.4824 H   0  0  0  0  0  0  0  0  0  0  0  0
    9.7177    2.3437   20.6978 H   0  0  0  0  0  0  0  0  0  0  0  0
    9.5652    0.6601   20.1101 H   0  0  0  0  0  0  0  0  0  0  0  0
   11.6308    3.1067   21.8336 H   0  0  0  0  0  0  0  0  0  0  0  0
   14.6971    0.6300   22.9406 H   0  0  0  0  0  0  0  0  0  0  0  0
   13.4295   -1.4167   22.2470 H   0  0  0  0  0  0  0  0  0  0  0  0
   11.4055   -2.0840   21.3566 H   0  0  0  0  0  0  0  0  0  0  0  0
  1  2  1  0
  2  3  2  0
  3  4  1  0
  4  5  2  0
  5  6  1  0
  6  7  2  0
  7  8  1  0
  8  9  1  0
  9 10  2  0
 10 11  1  0
 11 12  1  0
 12 13  2  0
 13 14  1  0
 14 15  2  0
 15 16  1  0
 16 17  2  0
 17 18  1  0
 16 19  1  0
 15 20  1  0
 14 21  1  0
 13 22  1  0
 11 23  2  0
 23 24  1  0
 24 25  1  0
 25 26  1  0
 26 27  2  0
 27 28  1  0
 28 29  2  0
 29 30  1  0
 30 31  2  0
 31 32  1  0
 29 33  1  0
 28 34  1  0
 27 35  1  0
 25 36  1  0
 25 37  1  0
  8 38  1  0
  8 39  1  0
  6 40  1  0
  4 41  1  0
  3 42  1  0
  1 43  1  0
  7  2  1  0
 24  9  1  0
 31 26  1  0
 17 12  1  0
M  END
>  <cnnaffinity>  (1) 
-6.19533

>  <filename>  (1) 
Oc1ccncc1Cc1nc(-c2ccccc2)nn1Cc1cccnc1

$$$$
