
     RDKit          3D

 46 49  0  0  0  0  0  0  0  0999 V2000
    8.9902    2.4205   22.6151 O   0  0  0  0  0  0  0  0  0  0  0  0
   10.2153    1.8634   22.6144 C   0  0  0  0  0  0  0  0  0  0  0  0
   11.0939    2.3131   23.5939 C   0  0  0  0  0  0  0  0  0  0  0  0
   12.3494    1.7298   23.6483 C   0  0  0  0  0  0  0  0  0  0  0  0
   12.7454    0.7574   22.8169 N   0  0  0  0  0  0  0  0  0  0  0  0
   11.8773    0.3436   21.8896 C   0  0  0  0  0  0  0  0  0  0  0  0
   10.5944    0.8614   21.7030 C   0  0  0  0  0  0  0  0  0  0  0  0
    9.6276    0.2518   20.7090 C   0  0  0  0  0  0  0  0  0  0  0  0
    8.5973   -0.6182   21.3397 C   0  0  0  0  0  0  0  0  0  0  0  0
    8.8325   -1.4691   22.3191 N   0  0  0  0  0  0  0  0  0  0  0  0
    7.6095   -2.0061   22.5521 C   0  0  0  0  0  0  0  0  0  0  0  0
    7.3806   -2.9964   23.6532 C   0  0  0  0  0  0  0  0  0  0  0  0
    8.1055   -4.3442   23.3246 C   0  0  0  0  0  0  0  0  0  0  0  0
    8.3750   -5.1589   24.5999 C   0  0  0  0  0  0  0  0  0  0  0  0
    9.2983   -4.4032   25.5665 C   0  0  0  0  0  0  0  0  0  0  0  0
    8.9982   -4.7984   26.8489 F   0  0  0  0  0  0  0  0  0  0  0  0
   10.6003   -4.7760   25.3436 F   0  0  0  0  0  0  0  0  0  0  0  0
    9.2070   -2.8758   25.4728 C   0  0  0  0  0  0  0  0  0  0  0  0
    7.7979   -2.4170   25.0509 C   0  0  0  0  0  0  0  0  0  0  0  0
    7.7458   -1.3198   25.0481 H   0  0  0  0  0  0  0  0  0  0  0  0
    7.0712   -2.7529   25.8043 H   0  0  0  0  0  0  0  0  0  0  0  0
    9.9389   -2.5351   24.7290 H   0  0  0  0  0  0  0  0  0  0  0  0
    9.4932   -2.4589   26.4441 H   0  0  0  0  0  0  0  0  0  0  0  0
    8.8250   -6.1325   24.3828 H   0  0  0  0  0  0  0  0  0  0  0  0
    7.4322   -5.3467   25.1294 H   0  0  0  0  0  0  0  0  0  0  0  0
    9.0614   -4.1394   22.8173 H   0  0  0  0  0  0  0  0  0  0  0  0
    7.4959   -4.9179   22.6168 H   0  0  0  0  0  0  0  0  0  0  0  0
    6.2968   -3.1541   23.6573 H   0  0  0  0  0  0  0  0  0  0  0  0
    6.6521   -1.5807   21.7534 N   0  0  0  0  0  0  0  0  0  0  0  0
    7.3026   -0.7106   20.9361 N   0  0  0  0  0  0  0  0  0  0  0  0
    6.6339   -0.0153   19.8939 C   0  0  0  0  0  0  0  0  0  0  0  0
    5.4277    0.6404   20.1571 C   0  0  0  0  0  0  0  0  0  0  0  0
    4.8060    1.3155   19.1040 C   0  0  0  0  0  0  0  0  0  0  0  0
    5.3950    1.2976   17.8349 C   0  0  0  0  0  0  0  0  0  0  0  0
    6.5504    0.6660   17.5758 N   0  0  0  0  0  0  0  0  0  0  0  0
    7.1545    0.0366   18.5884 C   0  0  0  0  0  0  0  0  0  0  0  0
    8.1062   -0.4381   18.3510 H   0  0  0  0  0  0  0  0  0  0  0  0
    4.9273    1.7997   16.9911 H   0  0  0  0  0  0  0  0  0  0  0  0
    3.8739    1.8489   19.2535 H   0  0  0  0  0  0  0  0  0  0  0  0
    5.0114    0.6018   21.1637 H   0  0  0  0  0  0  0  0  0  0  0  0
    9.1412    1.0296   20.1151 H   0  0  0  0  0  0  0  0  0  0  0  0
   10.1428   -0.4178   20.0123 H   0  0  0  0  0  0  0  0  0  0  0  0
   12.2219   -0.4809   21.2591 H   0  0  0  0  0  0  0  0  0  0  0  0
   13.0769    2.0540   24.3958 H   0  0  0  0  0  0  0  0  0  0  0  0
   10.7469    3.0825   24.2756 H   0  0  0  0  0  0  0  0  0  0  0  0
    8.4525    1.9736   21.9544 H   0  0  0  0  0  0  0  0  0  0  0  0
  1  2  1  0
  2  3  2  0
  3  4  1  0
  4  5  2  0
  5  6  1  0
  6  7  2  0
  7  8  1  0
  8  9  1  0
  9 10  2  0
 10 11  1  0
 11 12  1  0
 12 13  1  0
 13 14  1  0
 14 15  1  0
 15 16  1  0
 15 17  1  0
 15 18  1  0
 18 19  1  0
 19 20  1  0
 19 21  1  0
 18 22  1  0
 18 23  1  0
 14 24  1  0
 14 25  1  0
 13 26  1  0
 13 27  1  0
 12 28  1  0
 11 29  2  0
 29 30  1  0
 30 31  1  0
 31 32  2  0
 32 33  1  0
 33 34  2  0
 34 35  1  0
 35 36  2  0
 36 37  1  0
 34 38  1  0
 33 39  1  0
 32 40  1  0
  8 41  1  0
  8 42  1  0
  6 43  1  0
  4 44  1  0
  3 45  1  0
  1 46  1  0
  7  2  1  0
 30  9  1  0
 36 31  1  0
 19 12  1  0
M  END
>  <cnnaffinity>  (1) 
-6.57461

>  <filename>  (1) 
Oc1ccncc1Cc1nc(C2CCC(F)(F)CC2)nn1-c1cccnc1

$$$$
