
     RDKit          3D

 44 47  0  0  0  0  0  0  0  0999 V2000
   12.0570   -1.3584   21.4425 O   0  0  0  0  0  0  0  0  0  0  0  0
   11.8642   -0.1358   21.9613 C   0  0  0  0  0  0  0  0  0  0  0  0
   12.7914    0.2969   22.9077 C   0  0  0  0  0  0  0  0  0  0  0  0
   12.5877    1.5384   23.4873 C   0  0  0  0  0  0  0  0  0  0  0  0
   11.5481    2.3304   23.1828 N   0  0  0  0  0  0  0  0  0  0  0  0
   10.6803    1.8950   22.2617 C   0  0  0  0  0  0  0  0  0  0  0  0
   10.7766    0.6738   21.5885 C   0  0  0  0  0  0  0  0  0  0  0  0
    9.6646    0.2059   20.6654 C   0  0  0  0  0  0  0  0  0  0  0  0
    8.6286   -0.6399   21.3321 C   0  0  0  0  0  0  0  0  0  0  0  0
    8.8503   -1.4995   22.3018 N   0  0  0  0  0  0  0  0  0  0  0  0
    7.6169   -2.0000   22.5519 C   0  0  0  0  0  0  0  0  0  0  0  0
    7.3714   -2.9508   23.6753 C   0  0  0  0  0  0  0  0  0  0  0  0
    6.5496   -2.2799   24.8149 C   0  0  0  0  0  0  0  0  0  0  0  0
    6.0499   -3.2821   25.8274 C   0  0  0  0  0  0  0  0  0  0  0  0
    5.9957   -4.5961   25.5987 C   0  0  0  0  0  0  0  0  0  0  0  0
    6.4952   -5.2441   24.3258 C   0  0  0  0  0  0  0  0  0  0  0  0
    6.6696   -4.2361   23.1795 C   0  0  0  0  0  0  0  0  0  0  0  0
    5.6959   -3.9471   22.7563 H   0  0  0  0  0  0  0  0  0  0  0  0
    7.2462   -4.6904   22.3637 H   0  0  0  0  0  0  0  0  0  0  0  0
    5.8142   -6.0483   24.0209 H   0  0  0  0  0  0  0  0  0  0  0  0
    7.4568   -5.7394   24.5361 H   0  0  0  0  0  0  0  0  0  0  0  0
    5.5940   -5.2617   26.3636 H   0  0  0  0  0  0  0  0  0  0  0  0
    5.6986   -2.8763   26.7773 H   0  0  0  0  0  0  0  0  0  0  0  0
    5.6896   -1.7476   24.3812 H   0  0  0  0  0  0  0  0  0  0  0  0
    7.1454   -1.5060   25.3192 H   0  0  0  0  0  0  0  0  0  0  0  0
    8.3697   -3.2003   24.0609 H   0  0  0  0  0  0  0  0  0  0  0  0
    6.6606   -1.5471   21.7581 N   0  0  0  0  0  0  0  0  0  0  0  0
    7.3244   -0.6886   20.9468 N   0  0  0  0  0  0  0  0  0  0  0  0
    6.6461   -0.0089   19.9013 C   0  0  0  0  0  0  0  0  0  0  0  0
    5.4333    0.6359   20.1612 C   0  0  0  0  0  0  0  0  0  0  0  0
    4.8061    1.3090   19.1087 C   0  0  0  0  0  0  0  0  0  0  0  0
    5.3977    1.2946   17.8389 C   0  0  0  0  0  0  0  0  0  0  0  0
    6.5528    0.6645   17.5796 N   0  0  0  0  0  0  0  0  0  0  0  0
    7.1593    0.0375   18.5921 C   0  0  0  0  0  0  0  0  0  0  0  0
    8.1072   -0.4407   18.3524 H   0  0  0  0  0  0  0  0  0  0  0  0
    4.9311    1.8000   16.9961 H   0  0  0  0  0  0  0  0  0  0  0  0
    3.8747    1.8458   19.2568 H   0  0  0  0  0  0  0  0  0  0  0  0
    5.0146    0.6043   21.1671 H   0  0  0  0  0  0  0  0  0  0  0  0
   10.0205   -0.4073   19.8264 H   0  0  0  0  0  0  0  0  0  0  0  0
    9.1640    1.0751   20.2356 H   0  0  0  0  0  0  0  0  0  0  0  0
    9.8385    2.5652   22.0657 H   0  0  0  0  0  0  0  0  0  0  0  0
   13.2895    1.9270   24.2295 H   0  0  0  0  0  0  0  0  0  0  0  0
   13.6122   -0.3650   23.1605 H   0  0  0  0  0  0  0  0  0  0  0  0
   11.2401   -1.6149   20.9928 H   0  0  0  0  0  0  0  0  0  0  0  0
  1  2  1  0
  2  3  2  0
  3  4  1  0
  4  5  2  0
  5  6  1  0
  6  7  2  0
  7  8  1  0
  8  9  1  0
  9 10  2  0
 10 11  1  0
 11 12  1  0
 12 13  1  0
 13 14  1  0
 14 15  2  0
 15 16  1  0
 16 17  1  0
 17 18  1  0
 17 19  1  0
 16 20  1  0
 16 21  1  0
 15 22  1  0
 14 23  1  0
 13 24  1  0
 13 25  1  0
 12 26  1  0
 11 27  2  0
 27 28  1  0
 28 29  1  0
 29 30  2  0
 30 31  1  0
 31 32  2  0
 32 33  1  0
 33 34  2  0
 34 35  1  0
 32 36  1  0
 31 37  1  0
 30 38  1  0
  8 39  1  0
  8 40  1  0
  6 41  1  0
  4 42  1  0
  3 43  1  0
  1 44  1  0
  7  2  1  0
 28  9  1  0
 34 29  1  0
 17 12  1  0
M  END
>  <cnnaffinity>  (1) 
-6.54354

>  <filename>  (1) 
Oc1ccncc1Cc1nc(C2CC=CCC2)nn1-c1cccnc1

$$$$
