
     RDKit          3D

 29 31  0  0  0  0  0  0  0  0999 V2000
    8.2291   -3.3247   28.6410 H   0  0  0  0  0  0  0  0  0  0  0  0
    7.7578   -2.5751   27.2520 O   0  0  0  0  0  0  0  0  0  0  0  0
    7.7578   -2.5750   27.2520 C   0  0  0  0  0  0  0  0  0  0  0  0
    6.7142   -1.8300   26.4621 C   0  0  0  0  0  0  0  0  0  0  0  0
    5.8485   -1.4495   27.0520 H   0  0  0  0  0  0  0  0  0  0  0  0
    6.7785   -1.4714   25.1028 C   0  0  0  0  0  0  0  0  0  0  0  0
    5.9671   -0.8650   24.6264 H   0  0  0  0  0  0  0  0  0  0  0  0
    7.8475   -1.8878   24.3223 C   0  0  0  0  0  0  0  0  0  0  0  0
    7.9173   -1.5349   22.8765 C   0  0  0  0  0  0  0  0  0  0  0  0
    6.9422   -0.7809   22.2042 N   0  0  0  0  0  0  0  0  0  0  0  0
    7.3301   -0.6803   20.9996 C   0  0  0  0  0  0  0  0  0  0  0  0
    6.6617    0.0080   19.9040 C   0  0  0  0  0  0  0  0  0  0  0  0
    7.1869    0.0514   18.6065 C   0  0  0  0  0  0  0  0  0  0  0  0
    8.1302   -0.4333   18.3771 H   0  0  0  0  0  0  0  0  0  0  0  0
    6.5709    0.6728   17.5955 N   0  0  0  0  0  0  0  0  0  0  0  0
    5.4055    1.2866   17.8460 C   0  0  0  0  0  0  0  0  0  0  0  0
    4.9222    1.7728   17.0033 H   0  0  0  0  0  0  0  0  0  0  0  0
    4.8037    1.3132   19.1051 C   0  0  0  0  0  0  0  0  0  0  0  0
    3.8768    1.8422   19.2590 H   0  0  0  0  0  0  0  0  0  0  0  0
    5.4315    0.6579   20.1564 C   0  0  0  0  0  0  0  0  0  0  0  0
    5.0075    0.6304   21.1685 H   0  0  0  0  0  0  0  0  0  0  0  0
    8.5198   -1.3127   20.7531 O   0  0  0  0  0  0  0  0  0  0  0  0
    8.8634   -1.8428   21.9669 C   0  0  0  0  0  0  0  0  0  0  0  0
    9.7845   -2.3986   22.0247 H   0  0  0  0  0  0  0  0  0  0  0  0
    8.9039   -2.6731   24.9381 C   0  0  0  0  0  0  0  0  0  0  0  0
    9.7288   -2.9930   24.3000 H   0  0  0  0  0  0  0  0  0  0  0  0
    8.8399   -3.0101   26.2788 C   0  0  0  0  0  0  0  0  0  0  0  0
    9.9459   -3.8501   26.7910 O   0  0  0  0  0  0  0  0  0  0  0  0
   10.6192   -4.0125   26.1202 H   0  0  0  0  0  0  0  0  0  0  0  0
  1  2  1  0
  2  3  1  0
  3  4  2  0
  4  5  1  0
  4  6  1  0
  6  7  1  0
  6  8  2  0
  8  9  1  0
  9 10  1  0
 10 11  2  0
 11 12  1  0
 12 13  2  0
 13 14  1  0
 13 15  1  0
 15 16  2  0
 16 17  1  0
 16 18  1  0
 18 19  1  0
 18 20  2  0
 20 21  1  0
 11 22  1  0
 22 23  1  0
 23 24  1  0
  8 25  1  0
 25 26  1  0
 25 27  2  0
 27 28  1  0
 28 29  1  0
 27  3  1  0
 23  9  2  0
 20 12  1  0
M  END
>  <cnnaffinity>  (1) 
-4.85886

>  <filename>  (1) 
Oc1ccc(-c2coc(-c3cccnc3)n2)cc1O

$$$$
