
     RDKit          3D

 43 46  0  0  0  0  0  0  0  0999 V2000
   12.0485   -1.3746   21.4567 O   0  0  0  0  0  0  0  0  0  0  0  0
   11.8490   -0.1495   21.9714 C   0  0  0  0  0  0  0  0  0  0  0  0
   12.7785    0.2819   22.9165 C   0  0  0  0  0  0  0  0  0  0  0  0
   12.5856    1.5257   23.4925 C   0  0  0  0  0  0  0  0  0  0  0  0
   11.5536    2.3254   23.1849 N   0  0  0  0  0  0  0  0  0  0  0  0
   10.6831    1.8912   22.2666 C   0  0  0  0  0  0  0  0  0  0  0  0
   10.7637    0.6642   21.6004 C   0  0  0  0  0  0  0  0  0  0  0  0
    9.6525    0.2044   20.6711 C   0  0  0  0  0  0  0  0  0  0  0  0
    8.6102   -0.6418   21.3313 C   0  0  0  0  0  0  0  0  0  0  0  0
    8.8335   -1.4944   22.3015 N   0  0  0  0  0  0  0  0  0  0  0  0
    7.5979   -2.0078   22.5498 C   0  0  0  0  0  0  0  0  0  0  0  0
    7.3773   -2.9782   23.6624 C   0  0  0  0  0  0  0  0  0  0  0  0
    8.2544   -4.2457   23.5464 C   0  0  0  0  0  0  0  0  0  0  0  0
    8.3533   -4.8100   24.9771 C   0  0  0  0  0  0  0  0  0  0  0  0
    8.0217   -3.6405   25.9423 C   0  0  0  0  0  0  0  0  0  0  0  0
    7.7232   -2.4092   25.0620 C   0  0  0  0  0  0  0  0  0  0  0  0
    8.6079   -1.7598   24.9937 H   0  0  0  0  0  0  0  0  0  0  0  0
    6.9082   -1.7889   25.4578 H   0  0  0  0  0  0  0  0  0  0  0  0
    8.8444   -3.4373   26.6381 H   0  0  0  0  0  0  0  0  0  0  0  0
    7.1565   -3.8966   26.5664 H   0  0  0  0  0  0  0  0  0  0  0  0
    9.3488   -5.2284   25.1667 H   0  0  0  0  0  0  0  0  0  0  0  0
    7.6456   -5.6355   25.1223 H   0  0  0  0  0  0  0  0  0  0  0  0
    7.8299   -4.9606   22.8305 H   0  0  0  0  0  0  0  0  0  0  0  0
    9.2508   -3.9730   23.1706 H   0  0  0  0  0  0  0  0  0  0  0  0
    6.3123   -3.2409   23.6187 H   0  0  0  0  0  0  0  0  0  0  0  0
    6.6465   -1.5626   21.7576 N   0  0  0  0  0  0  0  0  0  0  0  0
    7.3069   -0.6976   20.9435 N   0  0  0  0  0  0  0  0  0  0  0  0
    6.6391   -0.0074   19.8970 C   0  0  0  0  0  0  0  0  0  0  0  0
    5.4305    0.6447   20.1558 C   0  0  0  0  0  0  0  0  0  0  0  0
    4.8051    1.3159   19.1028 C   0  0  0  0  0  0  0  0  0  0  0  0
    5.3975    1.2978   17.8332 C   0  0  0  0  0  0  0  0  0  0  0  0
    6.5539    0.6683   17.5755 N   0  0  0  0  0  0  0  0  0  0  0  0
    7.1582    0.0411   18.5898 C   0  0  0  0  0  0  0  0  0  0  0  0
    8.1060   -0.4398   18.3531 H   0  0  0  0  0  0  0  0  0  0  0  0
    4.9281    1.7996   16.9903 H   0  0  0  0  0  0  0  0  0  0  0  0
    3.8720    1.8487   19.2528 H   0  0  0  0  0  0  0  0  0  0  0  0
    5.0130    0.6061   21.1621 H   0  0  0  0  0  0  0  0  0  0  0  0
   10.0155   -0.4020   19.8297 H   0  0  0  0  0  0  0  0  0  0  0  0
    9.1586    1.0779   20.2422 H   0  0  0  0  0  0  0  0  0  0  0  0
    9.8502    2.5698   22.0639 H   0  0  0  0  0  0  0  0  0  0  0  0
   13.2885    1.9093   24.2351 H   0  0  0  0  0  0  0  0  0  0  0  0
   13.5977   -0.3801   23.1731 H   0  0  0  0  0  0  0  0  0  0  0  0
   11.2500   -1.6351   20.9801 H   0  0  0  0  0  0  0  0  0  0  0  0
  1  2  1  0
  2  3  2  0
  3  4  1  0
  4  5  2  0
  5  6  1  0
  6  7  2  0
  7  8  1  0
  8  9  1  0
  9 10  2  0
 10 11  1  0
 11 12  1  0
 12 13  1  0
 13 14  1  0
 14 15  1  0
 15 16  1  0
 16 17  1  0
 16 18  1  0
 15 19  1  0
 15 20  1  0
 14 21  1  0
 14 22  1  0
 13 23  1  0
 13 24  1  0
 12 25  1  0
 11 26  2  0
 26 27  1  0
 27 28  1  0
 28 29  2  0
 29 30  1  0
 30 31  2  0
 31 32  1  0
 32 33  2  0
 33 34  1  0
 31 35  1  0
 30 36  1  0
 29 37  1  0
  8 38  1  0
  8 39  1  0
  6 40  1  0
  4 41  1  0
  3 42  1  0
  1 43  1  0
  7  2  1  0
 27  9  1  0
 33 28  1  0
 16 12  1  0
M  END
>  <cnnaffinity>  (1) 
-6.52723

>  <filename>  (1) 
Oc1ccncc1Cc1nc(C2CCCC2)nn1-c1cccnc1

$$$$
