
     RDKit          3D

 34 36  0  0  0  0  0  0  0  0999 V2000
   15.0777    1.3489   22.8534 H   0  0  0  0  0  0  0  0  0  0  0  0
   14.8260    0.4297   22.7055 O   0  0  0  0  0  0  0  0  0  0  0  0
   13.5170    0.3560   22.3212 C   0  0  0  0  0  0  0  0  0  0  0  0
   12.6614    1.4588   22.3314 C   0  0  0  0  0  0  0  0  0  0  0  0
   13.0374    2.4089   22.7017 H   0  0  0  0  0  0  0  0  0  0  0  0
   11.3386    1.3371   21.8940 C   0  0  0  0  0  0  0  0  0  0  0  0
   10.6624    2.1897   21.9675 H   0  0  0  0  0  0  0  0  0  0  0  0
   10.8647    0.1018   21.4265 C   0  0  0  0  0  0  0  0  0  0  0  0
    9.4686    0.0255   20.9627 C   0  0  0  0  0  0  0  0  0  0  0  0
    9.1629    0.8630   20.3327 H   0  0  0  0  0  0  0  0  0  0  0  0
    8.5617   -0.8919   21.3361 C   0  0  0  0  0  0  0  0  0  0  0  0
    7.1194   -0.9217   20.9974 C   0  0  0  0  0  0  0  0  0  0  0  0
    6.5207   -0.1215   19.9112 C   0  0  0  0  0  0  0  0  0  0  0  0
    7.1665   -0.0719   18.6722 C   0  0  0  0  0  0  0  0  0  0  0  0
    8.1087   -0.5997   18.5315 H   0  0  0  0  0  0  0  0  0  0  0  0
    6.7049    0.6092   17.6166 N   0  0  0  0  0  0  0  0  0  0  0  0
    5.5661    1.2956   17.7846 C   0  0  0  0  0  0  0  0  0  0  0  0
    5.2158    1.8635   16.9237 H   0  0  0  0  0  0  0  0  0  0  0  0
    4.8424    1.3116   18.9843 C   0  0  0  0  0  0  0  0  0  0  0  0
    3.9396    1.9064   19.0563 H   0  0  0  0  0  0  0  0  0  0  0  0
    5.3149    0.5729   20.0691 C   0  0  0  0  0  0  0  0  0  0  0  0
    4.7769    0.5335   21.0185 H   0  0  0  0  0  0  0  0  0  0  0  0
    6.4294   -1.6997   21.7383 N   0  0  0  0  0  0  0  0  0  0  0  0
    7.2985   -2.2855   22.7674 C   0  0  0  0  0  0  0  0  0  0  0  0
    7.0445   -1.8145   23.7258 H   0  0  0  0  0  0  0  0  0  0  0  0
    7.0903   -3.3530   22.8639 H   0  0  0  0  0  0  0  0  0  0  0  0
    8.7612   -1.9845   22.3593 C   0  0  0  0  0  0  0  0  0  0  0  0
    9.2212   -2.8632   21.8925 H   0  0  0  0  0  0  0  0  0  0  0  0
    9.4074   -1.6703   23.1839 H   0  0  0  0  0  0  0  0  0  0  0  0
   11.7330   -1.0081   21.4550 C   0  0  0  0  0  0  0  0  0  0  0  0
   11.4047   -1.9881   21.1409 H   0  0  0  0  0  0  0  0  0  0  0  0
   13.0424   -0.9073   21.9034 C   0  0  0  0  0  0  0  0  0  0  0  0
   13.8056   -2.0388   21.8996 O   0  0  0  0  0  0  0  0  0  0  0  0
   14.6564   -1.8193   22.3065 H   0  0  0  0  0  0  0  0  0  0  0  0
  1  2  1  0
  2  3  1  0
  3  4  2  0
  4  5  1  0
  4  6  1  0
  6  7  1  0
  6  8  2  0
  8  9  1  0
  9 10  1  0
  9 11  2  3
 11 12  1  0
 12 13  1  0
 13 14  2  0
 14 15  1  0
 14 16  1  0
 16 17  2  0
 17 18  1  0
 17 19  1  0
 19 20  1  0
 19 21  2  0
 21 22  1  0
 12 23  2  0
 23 24  1  0
 24 25  1  0
 24 26  1  0
 24 27  1  0
 27 28  1  0
 27 29  1  0
  8 30  1  0
 30 31  1  0
 30 32  2  0
 32 33  1  0
 33 34  1  0
 32  3  1  0
 27 11  1  0
 21 13  1  0
M  END
>  <cnnaffinity>  (1) 
-6.10604

>  <filename>  (1) 
Oc1ccc(C=C2CCN=C2c2cccnc2)cc1O

$$$$
