
     RDKit          3D

 42 45  0  0  0  0  0  0  0  0999 V2000
    9.1572    4.1472   21.2486 H   0  0  0  0  0  0  0  0  0  0  0  0
    9.0938    3.5377   21.9957 O   0  0  0  0  0  0  0  0  0  0  0  0
   10.3845    3.4710   22.5071 C   0  0  0  0  0  0  0  0  0  0  0  0
   10.9129    4.6692   23.0071 C   0  0  0  0  0  0  0  0  0  0  0  0
   10.2590    5.5310   23.0664 H   0  0  0  0  0  0  0  0  0  0  0  0
   12.2409    4.7465   23.4052 C   0  0  0  0  0  0  0  0  0  0  0  0
   12.9025    6.2671   23.9175 Cl  0  0  0  0  0  0  0  0  0  0  0  0
   13.0631    3.6201   23.3417 C   0  0  0  0  0  0  0  0  0  0  0  0
   14.1047    3.7177   23.6285 H   0  0  0  0  0  0  0  0  0  0  0  0
   12.5103    2.4030   22.9314 C   0  0  0  0  0  0  0  0  0  0  0  0
   13.1056    1.4940   22.8956 H   0  0  0  0  0  0  0  0  0  0  0  0
   11.1727    2.2970   22.5005 C   0  0  0  0  0  0  0  0  0  0  0  0
   10.8390    1.0266   22.0982 O   0  0  0  0  0  0  0  0  0  0  0  0
    9.5363    0.6862   21.6205 C   0  0  2  0  0  0  0  0  0  0  0  0
    9.2417    1.4075   20.8534 H   0  0  0  0  0  0  0  0  0  0  0  0
    8.4803    0.7230   22.7551 C   0  0  0  0  0  0  0  0  0  0  0  0
    8.0902    1.7388   22.8119 H   0  0  0  0  0  0  0  0  0  0  0  0
    8.9852    0.5255   23.7097 H   0  0  0  0  0  0  0  0  0  0  0  0
    7.3124   -0.2869   22.5499 C   0  0  1  0  0  0  0  0  0  0  0  0
    6.3661    0.1452   22.9007 H   0  0  0  0  0  0  0  0  0  0  0  0
    7.2075   -0.7150   21.1439 N   0  0  0  0  0  0  0  0  0  0  0  0
    6.6566    0.0272   20.0877 C   0  0  0  0  0  0  0  0  0  0  0  0
    7.2007    0.0254   18.7633 C   0  0  0  0  0  0  0  0  0  0  0  0
    8.1197   -0.5193   18.5557 H   0  0  0  0  0  0  0  0  0  0  0  0
    6.6561    0.6422   17.7073 N   0  0  0  0  0  0  0  0  0  0  0  0
    5.5074    1.3061   17.9006 C   0  0  0  0  0  0  0  0  0  0  0  0
    5.0820    1.7914   17.0256 H   0  0  0  0  0  0  0  0  0  0  0  0
    4.8729    1.3745   19.1451 C   0  0  0  0  0  0  0  0  0  0  0  0
    3.9397    1.9221   19.2373 H   0  0  0  0  0  0  0  0  0  0  0  0
    5.4516    0.7423   20.2509 C   0  0  0  0  0  0  0  0  0  0  0  0
    4.9800    0.7715   21.2332 H   0  0  0  0  0  0  0  0  0  0  0  0
    8.3994   -1.5349   20.9561 C   0  0  2  0  0  0  0  0  0  0  0  0
    8.3089   -2.0583   20.0169 H   0  0  0  0  0  0  0  0  0  0  0  0
    8.3185   -2.4836   22.1647 C   0  0  0  0  0  0  0  0  0  0  0  0
    9.3057   -2.8536   22.4536 H   0  0  0  0  0  0  0  0  0  0  0  0
    7.7212   -3.3621   21.9067 H   0  0  0  0  0  0  0  0  0  0  0  0
    7.6182   -1.6389   23.2540 C   0  0  0  0  0  0  0  0  0  0  0  0
    6.6894   -2.1097   23.5894 H   0  0  0  0  0  0  0  0  0  0  0  0
    8.2378   -1.4872   24.1445 H   0  0  0  0  0  0  0  0  0  0  0  0
    9.6814   -0.6768   20.9145 C   0  0  0  0  0  0  0  0  0  0  0  0
   10.5131   -1.2519   21.3322 H   0  0  0  0  0  0  0  0  0  0  0  0
    9.9247   -0.4769   19.8639 H   0  0  0  0  0  0  0  0  0  0  0  0
  1  2  1  0
  2  3  1  0
  3  4  2  0
  4  5  1  0
  4  6  1  0
  6  7  1  0
  6  8  2  0
  8  9  1  0
  8 10  1  0
 10 11  1  0
 10 12  2  0
 12 13  1  0
 13 14  1  0
 14 15  1  6
 14 16  1  0
 16 17  1  0
 16 18  1  0
 16 19  1  0
 19 20  1  1
 19 21  1  0
 21 22  1  0
 22 23  2  0
 23 24  1  0
 23 25  1  0
 25 26  2  0
 26 27  1  0
 26 28  1  0
 28 29  1  0
 28 30  2  0
 30 31  1  0
 21 32  1  0
 32 33  1  6
 32 34  1  0
 34 35  1  0
 34 36  1  0
 34 37  1  0
 37 38  1  0
 37 39  1  0
 32 40  1  0
 40 41  1  0
 40 42  1  0
 12  3  1  0
 40 14  1  0
 37 19  1  0
 30 22  1  0
M  END
>  <cnnaffinity>  (1) 
-5.55555

>  <filename>  (1) 
Oc1cc(Cl)ccc1O[C@H]1C[C@H]2CC[C@@H](C1)N2c1cccnc1

$$$$
