
     RDKit          3D

 29 31  0  0  0  0  0  0  0  0999 V2000
   10.3311    1.2952   24.0516 H   0  0  0  0  0  0  0  0  0  0  0  0
    9.4977    1.2091   23.5750 O   0  0  0  0  0  0  0  0  0  0  0  0
    8.4969    1.3820   24.4649 C   0  0  0  0  0  0  0  0  0  0  0  0
    8.7609    1.8485   25.7662 C   0  0  0  0  0  0  0  0  0  0  0  0
    9.7878    1.9832   26.0946 H   0  0  0  0  0  0  0  0  0  0  0  0
    7.6864    2.1245   26.6175 C   0  0  0  0  0  0  0  0  0  0  0  0
    7.8676    2.6117   28.2722 Cl  0  0  0  0  0  0  0  0  0  0  0  0
    6.3743    1.9821   26.1756 C   0  0  0  0  0  0  0  0  0  0  0  0
    5.5733    2.2511   26.8460 H   0  0  0  0  0  0  0  0  0  0  0  0
    6.1137    1.4873   24.9006 C   0  0  0  0  0  0  0  0  0  0  0  0
    5.1050    1.3643   24.5091 H   0  0  0  0  0  0  0  0  0  0  0  0
    7.1640    1.1295   24.0707 C   0  0  0  0  0  0  0  0  0  0  0  0
    6.7443    0.6395   22.8304 O   0  0  0  0  0  0  0  0  0  0  0  0
    7.4808   -0.3523   22.2574 N   0  0  0  0  0  0  0  0  0  0  0  0
    8.1293   -1.2834   22.9577 N   0  0  0  0  0  0  0  0  0  0  0  0
    8.5602   -2.0747   21.9881 C   0  0  0  0  0  0  0  0  0  0  0  0
    9.1801   -2.9376   22.2016 H   0  0  0  0  0  0  0  0  0  0  0  0
    8.1769   -1.7338   20.7314 N   0  0  0  0  0  0  0  0  0  0  0  0
    7.4404   -0.6558   20.9329 C   0  0  0  0  0  0  0  0  0  0  0  0
    6.6607    0.0492   19.9201 C   0  0  0  0  0  0  0  0  0  0  0  0
    7.1659    0.0486   18.6136 C   0  0  0  0  0  0  0  0  0  0  0  0
    8.1045   -0.4531   18.3866 H   0  0  0  0  0  0  0  0  0  0  0  0
    6.5616    0.6564   17.5919 N   0  0  0  0  0  0  0  0  0  0  0  0
    5.4037    1.2866   17.8364 C   0  0  0  0  0  0  0  0  0  0  0  0
    4.9458    1.7903   16.9866 H   0  0  0  0  0  0  0  0  0  0  0  0
    4.7964    1.3130   19.0972 C   0  0  0  0  0  0  0  0  0  0  0  0
    3.8600    1.8456   19.2271 H   0  0  0  0  0  0  0  0  0  0  0  0
    5.4303    0.6827   20.1650 C   0  0  0  0  0  0  0  0  0  0  0  0
    4.9832    0.6811   21.1587 H   0  0  0  0  0  0  0  0  0  0  0  0
  1  2  1  0
  2  3  1  0
  3  4  2  0
  4  5  1  0
  4  6  1  0
  6  7  1  0
  6  8  2  0
  8  9  1  0
  8 10  1  0
 10 11  1  0
 10 12  2  0
 12 13  1  0
 13 14  1  0
 14 15  1  0
 15 16  2  0
 16 17  1  0
 16 18  1  0
 18 19  2  0
 19 20  1  0
 20 21  2  0
 21 22  1  0
 21 23  1  0
 23 24  2  0
 24 25  1  0
 24 26  1  0
 26 27  1  0
 26 28  2  0
 28 29  1  0
 12  3  1  0
 19 14  1  0
 28 20  1  0
M  END
>  <cnnaffinity>  (1) 
-4.98604

>  <filename>  (1) 
Oc1cc(Cl)ccc1On1ncnc1-c1cccnc1

$$$$
