
     RDKit          3D

 43 46  0  0  0  0  0  0  0  0999 V2000
   11.9262    1.8623   23.2057 O   0  0  0  0  0  0  0  0  0  0  0  0
   11.9855    0.7110   22.5060 C   0  0  0  0  0  0  0  0  0  0  0  0
   13.0874   -0.1111   22.7133 C   0  0  0  0  0  0  0  0  0  0  0  0
   13.0951   -1.3599   22.1038 C   0  0  0  0  0  0  0  0  0  0  0  0
   12.1005   -1.7979   21.3245 N   0  0  0  0  0  0  0  0  0  0  0  0
   11.0905   -0.9575   21.0886 C   0  0  0  0  0  0  0  0  0  0  0  0
   10.9918    0.3397   21.5879 C   0  0  0  0  0  0  0  0  0  0  0  0
    9.8663    1.2891   21.2068 C   0  0  0  0  0  0  0  0  0  0  0  0
    8.7356    1.2180   22.1841 C   0  0  0  0  0  0  0  0  0  0  0  0
    8.6750    1.8790   23.3224 N   0  0  0  0  0  0  0  0  0  0  0  0
    7.5820    1.3436   23.9390 C   0  0  0  0  0  0  0  0  0  0  0  0
    7.1055    1.8189   25.2604 C   0  0  0  0  0  0  0  0  0  0  0  0
    7.7645    2.8934   25.8956 C   0  0  0  0  0  0  0  0  0  0  0  0
    7.2716    3.3544   27.1103 C   0  0  0  0  0  0  0  0  0  0  0  0
    7.8713    4.3991   27.6932 F   0  0  0  0  0  0  0  0  0  0  0  0
    6.1718    2.7922   27.7465 C   0  0  0  0  0  0  0  0  0  0  0  0
    5.5573    1.7239   27.1036 C   0  0  0  0  0  0  0  0  0  0  0  0
    4.4971    1.1595   27.6943 F   0  0  0  0  0  0  0  0  0  0  0  0
    5.9849    1.2209   25.8803 C   0  0  0  0  0  0  0  0  0  0  0  0
    5.4442    0.3861   25.4400 H   0  0  0  0  0  0  0  0  0  0  0  0
    5.8060    3.1761   28.6909 H   0  0  0  0  0  0  0  0  0  0  0  0
    8.6418    3.3753   25.4700 H   0  0  0  0  0  0  0  0  0  0  0  0
    6.9942    0.3845   23.2415 N   0  0  0  0  0  0  0  0  0  0  0  0
    7.7446    0.3031   22.1219 N   0  0  0  0  0  0  0  0  0  0  0  0
    7.3555   -0.6172   21.0527 C   0  0  0  0  0  0  0  0  0  0  0  0
    6.6631    0.0542   19.8900 C   0  0  0  0  0  0  0  0  0  0  0  0
    5.4488    0.7126   20.1130 C   0  0  0  0  0  0  0  0  0  0  0  0
    4.8288    1.3490   19.0373 C   0  0  0  0  0  0  0  0  0  0  0  0
    5.4449    1.3006   17.7825 C   0  0  0  0  0  0  0  0  0  0  0  0
    6.5958    0.6526   17.5466 N   0  0  0  0  0  0  0  0  0  0  0  0
    7.1786    0.0423   18.5868 C   0  0  0  0  0  0  0  0  0  0  0  0
    8.1028   -0.4968   18.3630 H   0  0  0  0  0  0  0  0  0  0  0  0
    4.9870    1.7832   16.9204 H   0  0  0  0  0  0  0  0  0  0  0  0
    3.8871    1.8726   19.1577 H   0  0  0  0  0  0  0  0  0  0  0  0
    5.0231    0.7187   21.1195 H   0  0  0  0  0  0  0  0  0  0  0  0
    6.6833   -1.3354   21.5275 H   0  0  0  0  0  0  0  0  0  0  0  0
    8.2244   -1.1849   20.7100 H   0  0  0  0  0  0  0  0  0  0  0  0
   10.2386    2.3206   21.1742 H   0  0  0  0  0  0  0  0  0  0  0  0
    9.4947    1.0599   20.2037 H   0  0  0  0  0  0  0  0  0  0  0  0
   10.2908   -1.3394   20.4569 H   0  0  0  0  0  0  0  0  0  0  0  0
   13.9200   -2.0574   22.2523 H   0  0  0  0  0  0  0  0  0  0  0  0
   13.8714    0.2708   23.3536 H   0  0  0  0  0  0  0  0  0  0  0  0
   10.9953    2.0701   23.3815 H   0  0  0  0  0  0  0  0  0  0  0  0
  1  2  1  0
  2  3  2  0
  3  4  1  0
  4  5  2  0
  5  6  1  0
  6  7  2  0
  7  8  1  0
  8  9  1  0
  9 10  2  0
 10 11  1  0
 11 12  1  0
 12 13  2  0
 13 14  1  0
 14 15  1  0
 14 16  2  0
 16 17  1  0
 17 18  1  0
 17 19  2  0
 19 20  1  0
 16 21  1  0
 13 22  1  0
 11 23  2  0
 23 24  1  0
 24 25  1  0
 25 26  1  0
 26 27  2  0
 27 28  1  0
 28 29  2  0
 29 30  1  0
 30 31  2  0
 31 32  1  0
 29 33  1  0
 28 34  1  0
 27 35  1  0
 25 36  1  0
 25 37  1  0
  8 38  1  0
  8 39  1  0
  6 40  1  0
  4 41  1  0
  3 42  1  0
  1 43  1  0
  7  2  1  0
 24  9  1  0
 31 26  1  0
 19 12  1  0
M  END
>  <cnnaffinity>  (1) 
-6.44025

>  <filename>  (1) 
Oc1ccncc1Cc1nc(-c2cc(F)cc(F)c2)nn1Cc1cccnc1

$$$$
