
     RDKit          3D

 29 31  0  0  0  0  0  0  0  0999 V2000
    8.8792   -0.2102   24.9721 H   0  0  0  0  0  0  0  0  0  0  0  0
    8.7509   -0.7686   25.7451 O   0  0  0  0  0  0  0  0  0  0  0  0
    9.2564   -2.0079   25.5383 C   0  0  0  0  0  0  0  0  0  0  0  0
    9.0470   -2.9137   26.5832 C   0  0  0  0  0  0  0  0  0  0  0  0
    8.4718   -2.5548   27.4214 H   0  0  0  0  0  0  0  0  0  0  0  0
    9.4974   -4.2287   26.4885 C   0  0  0  0  0  0  0  0  0  0  0  0
    9.2042   -5.3360   27.7939 Cl  0  0  0  0  0  0  0  0  0  0  0  0
   10.1629   -4.6678   25.3425 C   0  0  0  0  0  0  0  0  0  0  0  0
   10.4974   -5.6934   25.2525 H   0  0  0  0  0  0  0  0  0  0  0  0
   10.3834   -3.7557   24.3075 C   0  0  0  0  0  0  0  0  0  0  0  0
   10.9137   -4.0052   23.4022 H   0  0  0  0  0  0  0  0  0  0  0  0
    9.9223   -2.4539   24.3803 C   0  0  0  0  0  0  0  0  0  0  0  0
   10.1113   -1.6470   23.2410 O   0  0  0  0  0  0  0  0  0  0  0  0
    9.0228   -1.4692   22.4722 C   0  0  0  0  0  0  0  0  0  0  0  0
    7.8070   -1.6374   22.8787 N   0  0  0  0  0  0  0  0  0  0  0  0
    6.9461   -1.2060   21.9097 C   0  0  0  0  0  0  0  0  0  0  0  0
    5.8788   -1.3087   22.0656 H   0  0  0  0  0  0  0  0  0  0  0  0
    7.4967   -0.6957   20.7686 C   0  0  0  0  0  0  0  0  0  0  0  0
    6.7841   -0.0085   19.6811 C   0  0  0  0  0  0  0  0  0  0  0  0
    7.2446    0.0493   18.3454 C   0  0  0  0  0  0  0  0  0  0  0  0
    8.1693   -0.4491   18.0669 H   0  0  0  0  0  0  0  0  0  0  0  0
    6.6099    0.6895   17.3550 N   0  0  0  0  0  0  0  0  0  0  0  0
    5.4695    1.3307   17.6588 C   0  0  0  0  0  0  0  0  0  0  0  0
    4.9778    1.8555   16.8411 H   0  0  0  0  0  0  0  0  0  0  0  0
    4.9184    1.3432   18.9424 C   0  0  0  0  0  0  0  0  0  0  0  0
    4.0053    1.8933   19.1341 H   0  0  0  0  0  0  0  0  0  0  0  0
    5.5813    0.6632   19.9624 C   0  0  0  0  0  0  0  0  0  0  0  0
    5.1861    0.6790   20.9775 H   0  0  0  0  0  0  0  0  0  0  0  0
    9.2399   -0.8562   20.8745 S   0  0  0  0  0  0  0  0  0  0  0  0
  1  2  1  0
  2  3  1  0
  3  4  2  0
  4  5  1  0
  4  6  1  0
  6  7  1  0
  6  8  2  0
  8  9  1  0
  8 10  1  0
 10 11  1  0
 10 12  2  0
 12 13  1  0
 13 14  1  0
 14 15  2  0
 15 16  1  0
 16 17  1  0
 16 18  2  0
 18 19  1  0
 19 20  2  0
 20 21  1  0
 20 22  1  0
 22 23  2  0
 23 24  1  0
 23 25  1  0
 25 26  1  0
 25 27  2  0
 27 28  1  0
 18 29  1  0
 12  3  1  0
 29 14  1  0
 27 19  1  0
M  END
>  <cnnaffinity>  (1) 
-5.57363

>  <filename>  (1) 
Oc1cc(Cl)ccc1Oc1ncc(-c2cccnc2)s1

$$$$
