
     RDKit          3D

 39 41  0  0  0  0  0  0  0  0999 V2000
    8.6204   -4.6718   21.6409 H   0  0  0  0  0  0  0  0  0  0  0  0
    8.4875   -5.4202   22.2466 O   0  0  0  0  0  0  0  0  0  0  0  0
    8.4260   -4.8128   23.4661 C   0  0  0  0  0  0  0  0  0  0  0  0
    8.3633   -5.6177   24.6047 C   0  0  0  0  0  0  0  0  0  0  0  0
    8.4128   -6.6870   24.4287 H   0  0  0  0  0  0  0  0  0  0  0  0
    8.2105   -5.0277   25.8657 C   0  0  0  0  0  0  0  0  0  0  0  0
    8.1210   -5.6447   26.7629 H   0  0  0  0  0  0  0  0  0  0  0  0
    8.1575   -3.6324   25.9787 C   0  0  0  0  0  0  0  0  0  0  0  0
    7.9997   -3.1757   26.9492 H   0  0  0  0  0  0  0  0  0  0  0  0
    8.2754   -2.8190   24.8384 C   0  0  0  0  0  0  0  0  0  0  0  0
    8.2189   -1.7373   24.9284 H   0  0  0  0  0  0  0  0  0  0  0  0
    8.4189   -3.3946   23.5695 C   0  0  0  0  0  0  0  0  0  0  0  0
    8.5402   -2.6413   22.3562 N   0  0  0  0  0  0  0  0  0  0  0  0
    7.3250   -2.3795   21.5892 C   0  0  0  0  0  0  0  0  0  0  0  0
    6.6201   -3.1951   21.7834 H   0  0  0  0  0  0  0  0  0  0  0  0
    7.5624   -2.4043   20.5155 H   0  0  0  0  0  0  0  0  0  0  0  0
    6.6493   -1.0232   21.8726 C   0  0  0  0  0  0  0  0  0  0  0  0
    5.5872   -1.1070   21.6357 H   0  0  0  0  0  0  0  0  0  0  0  0
    6.7172   -0.8336   22.9514 H   0  0  0  0  0  0  0  0  0  0  0  0
    7.1950    0.1059   21.1075 N   0  0  0  0  0  0  0  0  0  0  0  0
    6.5407    0.4525   19.8960 C   0  0  0  0  0  0  0  0  0  0  0  0
    7.1309    0.3413   18.6064 C   0  0  0  0  0  0  0  0  0  0  0  0
    8.0878   -0.1671   18.4969 H   0  0  0  0  0  0  0  0  0  0  0  0
    6.5881    0.7998   17.4711 N   0  0  0  0  0  0  0  0  0  0  0  0
    5.3866    1.3894   17.5542 C   0  0  0  0  0  0  0  0  0  0  0  0
    4.9907    1.8062   16.6305 H   0  0  0  0  0  0  0  0  0  0  0  0
    4.6594    1.4614   18.7491 C   0  0  0  0  0  0  0  0  0  0  0  0
    3.6751    1.9139   18.7445 H   0  0  0  0  0  0  0  0  0  0  0  0
    5.2271    0.9594   19.9254 C   0  0  0  0  0  0  0  0  0  0  0  0
    4.6906    0.9677   20.8742 H   0  0  0  0  0  0  0  0  0  0  0  0
    8.6257    0.4204   21.1884 C   0  0  0  0  0  0  0  0  0  0  0  0
    9.1339    0.1415   20.2504 H   0  0  0  0  0  0  0  0  0  0  0  0
    8.7276    1.5166   21.2449 H   0  0  0  0  0  0  0  0  0  0  0  0
    9.3935   -0.2327   22.3380 C   0  0  0  0  0  0  0  0  0  0  0  0
   10.3696    0.2640   22.4100 H   0  0  0  0  0  0  0  0  0  0  0  0
    8.8822   -0.0379   23.2837 H   0  0  0  0  0  0  0  0  0  0  0  0
    9.6630   -1.7370   22.1620 C   0  0  0  0  0  0  0  0  0  0  0  0
   10.0462   -1.8938   21.1388 H   0  0  0  0  0  0  0  0  0  0  0  0
   10.4616   -2.0605   22.8382 H   0  0  0  0  0  0  0  0  0  0  0  0
  1  2  1  0
  2  3  1  0
  3  4  2  0
  4  5  1  0
  4  6  1  0
  6  7  1  0
  6  8  2  0
  8  9  1  0
  8 10  1  0
 10 11  1  0
 10 12  2  0
 12 13  1  0
 13 14  1  0
 14 15  1  0
 14 16  1  0
 14 17  1  0
 17 18  1  0
 17 19  1  0
 17 20  1  0
 20 21  1  0
 21 22  2  0
 22 23  1  0
 22 24  1  0
 24 25  2  0
 25 26  1  0
 25 27  1  0
 27 28  1  0
 27 29  2  0
 29 30  1  0
 20 31  1  0
 31 32  1  0
 31 33  1  0
 31 34  1  0
 34 35  1  0
 34 36  1  0
 34 37  1  0
 37 38  1  0
 37 39  1  0
 12  3  1  0
 37 13  1  0
 29 21  1  0
M  END
>  <cnnaffinity>  (1) 
-5.33728

>  <filename>  (1) 
Oc1ccccc1N1CCCN(c2cccnc2)CC1

$$$$
