
     RDKit          3D

 31 33  0  0  0  0  0  0  0  0999 V2000
    8.7149    2.9791   20.9515 H   0  0  0  0  0  0  0  0  0  0  0  0
    8.4582    2.0752   21.1637 O   0  0  0  0  0  0  0  0  0  0  0  0
    7.6487    2.1458   22.2568 C   0  0  0  0  0  0  0  0  0  0  0  0
    7.3298    3.3901   22.8111 C   0  0  0  0  0  0  0  0  0  0  0  0
    7.7332    4.2863   22.3419 H   0  0  0  0  0  0  0  0  0  0  0  0
    6.5041    3.4850   23.9304 C   0  0  0  0  0  0  0  0  0  0  0  0
    6.2604    4.4588   24.3505 H   0  0  0  0  0  0  0  0  0  0  0  0
    5.9939    2.3236   24.5092 C   0  0  0  0  0  0  0  0  0  0  0  0
    5.3603    2.3758   25.3870 H   0  0  0  0  0  0  0  0  0  0  0  0
    6.3014    1.0755   23.9610 C   0  0  0  0  0  0  0  0  0  0  0  0
    5.9192    0.1482   24.3802 H   0  0  0  0  0  0  0  0  0  0  0  0
    7.1092    0.9573   22.8247 C   0  0  0  0  0  0  0  0  0  0  0  0
    7.3364   -0.3531   22.3078 N   0  0  0  0  0  0  0  0  0  0  0  0
    7.3880   -0.7071   20.9692 C   0  0  0  0  0  0  0  0  0  0  0  0
    6.6376    0.0286   19.9404 C   0  0  0  0  0  0  0  0  0  0  0  0
    7.1684    0.0470   18.6456 C   0  0  0  0  0  0  0  0  0  0  0  0
    8.1126   -0.4539   18.4276 H   0  0  0  0  0  0  0  0  0  0  0  0
    6.5790    0.6628   17.6144 N   0  0  0  0  0  0  0  0  0  0  0  0
    5.4152    1.2847   17.8521 C   0  0  0  0  0  0  0  0  0  0  0  0
    4.9620    1.7783   16.9950 H   0  0  0  0  0  0  0  0  0  0  0  0
    4.7965    1.3171   19.1070 C   0  0  0  0  0  0  0  0  0  0  0  0
    3.8583    1.8444   19.2276 H   0  0  0  0  0  0  0  0  0  0  0  0
    5.4179    0.6789   20.1760 C   0  0  0  0  0  0  0  0  0  0  0  0
    4.9687    0.6825   21.1706 H   0  0  0  0  0  0  0  0  0  0  0  0
    8.0707   -1.7543   20.6964 N   0  0  0  0  0  0  0  0  0  0  0  0
    8.5811   -2.2999   21.9535 C   0  0  0  0  0  0  0  0  0  0  0  0
    8.2035   -3.3235   22.1025 H   0  0  0  0  0  0  0  0  0  0  0  0
    9.6793   -2.3573   21.9067 H   0  0  0  0  0  0  0  0  0  0  0  0
    8.0930   -1.3429   23.0740 C   0  0  0  0  0  0  0  0  0  0  0  0
    7.4505   -1.8311   23.8216 H   0  0  0  0  0  0  0  0  0  0  0  0
    8.9167   -0.8617   23.6191 H   0  0  0  0  0  0  0  0  0  0  0  0
  1  2  1  0
  2  3  1  0
  3  4  2  0
  4  5  1  0
  4  6  1  0
  6  7  1  0
  6  8  2  0
  8  9  1  0
  8 10  1  0
 10 11  1  0
 10 12  2  0
 12 13  1  0
 13 14  1  0
 14 15  1  0
 15 16  2  0
 16 17  1  0
 16 18  1  0
 18 19  2  0
 19 20  1  0
 19 21  1  0
 21 22  1  0
 21 23  2  0
 23 24  1  0
 14 25  2  0
 25 26  1  0
 26 27  1  0
 26 28  1  0
 26 29  1  0
 29 30  1  0
 29 31  1  0
 12  3  1  0
 29 13  1  0
 23 15  1  0
M  END
>  <cnnaffinity>  (1) 
-4.62282

>  <filename>  (1) 
Oc1ccccc1N1CCN=C1c1cccnc1

$$$$
