
     RDKit          3D

 29 31  0  0  0  0  0  0  0  0999 V2000
   11.5066   -3.2439   22.1304 H   0  0  0  0  0  0  0  0  0  0  0  0
   11.7563   -3.2403   23.0641 O   0  0  0  0  0  0  0  0  0  0  0  0
   10.6753   -3.6356   23.7754 C   0  0  0  0  0  0  0  0  0  0  0  0
   10.9009   -4.3155   24.9669 C   0  0  0  0  0  0  0  0  0  0  0  0
   11.9056   -4.6303   25.2075 H   0  0  0  0  0  0  0  0  0  0  0  0
    9.8264   -4.6358   25.7963 C   0  0  0  0  0  0  0  0  0  0  0  0
   10.1526   -5.2351   27.3887 Cl  0  0  0  0  0  0  0  0  0  0  0  0
    8.5132   -4.4039   25.3853 C   0  0  0  0  0  0  0  0  0  0  0  0
    7.6735   -4.7243   25.9920 H   0  0  0  0  0  0  0  0  0  0  0  0
    8.2845   -3.7830   24.1533 C   0  0  0  0  0  0  0  0  0  0  0  0
    7.2795   -3.5568   23.8179 H   0  0  0  0  0  0  0  0  0  0  0  0
    9.3530   -3.3683   23.3682 C   0  0  0  0  0  0  0  0  0  0  0  0
    9.1912   -2.7778   22.1062 O   0  0  0  0  0  0  0  0  0  0  0  0
    8.2931   -1.8339   21.8430 C   0  0  0  0  0  0  0  0  0  0  0  0
    8.0014   -1.4155   20.6632 N   0  0  0  0  0  0  0  0  0  0  0  0
    7.0069   -0.4692   20.8974 C   0  0  0  0  0  0  0  0  0  0  0  0
    6.3861    0.2168   19.7679 C   0  0  0  0  0  0  0  0  0  0  0  0
    7.0164    0.1425   18.5110 C   0  0  0  0  0  0  0  0  0  0  0  0
    7.9457   -0.4162   18.4172 H   0  0  0  0  0  0  0  0  0  0  0  0
    6.5412    0.7251   17.4066 N   0  0  0  0  0  0  0  0  0  0  0  0
    5.3902    1.4073   17.5229 C   0  0  0  0  0  0  0  0  0  0  0  0
    5.0223    1.8700   16.6099 H   0  0  0  0  0  0  0  0  0  0  0  0
    4.6774    1.5319   18.7217 C   0  0  0  0  0  0  0  0  0  0  0  0
    3.7562    2.1052   18.7338 H   0  0  0  0  0  0  0  0  0  0  0  0
    5.1829    0.9336   19.8743 C   0  0  0  0  0  0  0  0  0  0  0  0
    4.6553    1.0202   20.8269 H   0  0  0  0  0  0  0  0  0  0  0  0
    6.7914   -0.3651   22.2293 C   0  0  0  0  0  0  0  0  0  0  0  0
    6.1743    0.2427   22.8706 H   0  0  0  0  0  0  0  0  0  0  0  0
    7.6274   -1.2582   22.8553 O   0  0  0  0  0  0  0  0  0  0  0  0
  1  2  1  0
  2  3  1  0
  3  4  2  0
  4  5  1  0
  4  6  1  0
  6  7  1  0
  6  8  2  0
  8  9  1  0
  8 10  1  0
 10 11  1  0
 10 12  2  0
 12 13  1  0
 13 14  1  0
 14 15  2  0
 15 16  1  0
 16 17  1  0
 17 18  2  0
 18 19  1  0
 18 20  1  0
 20 21  2  0
 21 22  1  0
 21 23  1  0
 23 24  1  0
 23 25  2  0
 25 26  1  0
 16 27  2  0
 27 28  1  0
 27 29  1  0
 12  3  1  0
 29 14  1  0
 25 17  1  0
M  END
>  <cnnaffinity>  (1) 
-5.40273

>  <filename>  (1) 
Oc1cc(Cl)ccc1Oc1nc(-c2cccnc2)co1

$$$$
