
     RDKit          3D

 38 42  0  0  0  0  0  0  0  0999 V2000
    8.1695    2.1941   21.0857 O   0  0  0  0  0  0  0  0  0  0  0  0
    7.4484    2.1688   22.2320 C   0  0  0  0  0  0  0  0  0  0  0  0
    7.0875    3.3532   22.8399 C   0  0  0  0  0  0  0  0  0  0  0  0
    7.5406    5.0494   22.0623 Br  0  0  0  0  0  0  0  0  0  0  0  0
    6.3810    3.2710   24.0378 C   0  0  0  0  0  0  0  0  0  0  0  0
    6.0701    2.1011   24.6265 N   0  0  0  0  0  0  0  0  0  0  0  0
    6.4442    0.9589   24.0330 C   0  0  0  0  0  0  0  0  0  0  0  0
    7.1106    0.9740   22.8267 C   0  0  0  0  0  0  0  0  0  0  0  0
    7.4972   -0.2604   22.2391 C   0  0  0  0  0  0  0  0  0  0  0  0
    8.0534   -1.1917   22.9450 N   0  0  0  0  0  0  0  0  0  0  0  0
    8.3095   -2.1497   21.9798 C   0  0  0  0  0  0  0  0  0  0  0  0
    8.9787   -3.4532   22.2829 C   0  0  0  0  0  0  0  0  0  0  0  0
    8.2442   -4.7484   22.0169 C   0  0  0  0  0  0  0  0  0  0  0  0
    8.5195   -4.3208   23.4745 C   0  0  0  0  0  0  0  0  0  0  0  0
    8.9483   -5.6647   24.0937 C   0  0  0  0  0  0  0  0  0  0  0  0
    9.8235   -4.4451   24.2927 C   0  0  0  0  0  0  0  0  0  0  0  0
   10.7780   -4.3319   23.7604 H   0  0  0  0  0  0  0  0  0  0  0  0
    9.8290   -3.9009   25.2425 H   0  0  0  0  0  0  0  0  0  0  0  0
    9.1512   -6.4867   23.3926 H   0  0  0  0  0  0  0  0  0  0  0  0
    8.2970   -6.0141   24.8987 H   0  0  0  0  0  0  0  0  0  0  0  0
    8.7584   -5.6511   21.6603 H   0  0  0  0  0  0  0  0  0  0  0  0
    7.1928   -4.7308   21.7137 H   0  0  0  0  0  0  0  0  0  0  0  0
   10.0591   -3.2883   22.2202 H   0  0  0  0  0  0  0  0  0  0  0  0
    7.9756   -1.8380   20.7465 N   0  0  0  0  0  0  0  0  0  0  0  0
    7.3988   -0.6338   20.9028 N   0  0  0  0  0  0  0  0  0  0  0  0
    6.6937    0.0307   19.8910 C   0  0  0  0  0  0  0  0  0  0  0  0
    5.4903    0.6893   20.1545 C   0  0  0  0  0  0  0  0  0  0  0  0
    4.8366    1.3198   19.0926 C   0  0  0  0  0  0  0  0  0  0  0  0
    5.4055    1.2936   17.8143 C   0  0  0  0  0  0  0  0  0  0  0  0
    6.5553    0.6435   17.5524 N   0  0  0  0  0  0  0  0  0  0  0  0
    7.1788    0.0187   18.5733 C   0  0  0  0  0  0  0  0  0  0  0  0
    8.1131   -0.4950   18.3768 H   0  0  0  0  0  0  0  0  0  0  0  0
    4.9008    1.8229   17.0101 H   0  0  0  0  0  0  0  0  0  0  0  0
    3.8976    1.8426   19.2446 H   0  0  0  0  0  0  0  0  0  0  0  0
    5.0644    0.6941   21.1576 H   0  0  0  0  0  0  0  0  0  0  0  0
    6.2108   -0.0005   24.4914 H   0  0  0  0  0  0  0  0  0  0  0  0
    6.0674    4.1978   24.5104 H   0  0  0  0  0  0  0  0  0  0  0  0
    8.3676    3.1238   20.8906 H   0  0  0  0  0  0  0  0  0  0  0  0
  1  2  1  0
  2  3  2  0
  3  4  1  0
  3  5  1  0
  5  6  2  0
  6  7  1  0
  7  8  2  0
  8  9  1  0
  9 10  2  0
 10 11  1  0
 11 12  1  0
 12 13  1  0
 13 14  1  0
 14 15  1  0
 15 16  1  0
 16 17  1  0
 16 18  1  0
 15 19  1  0
 15 20  1  0
 13 21  1  0
 13 22  1  0
 12 23  1  0
 11 24  2  0
 24 25  1  0
 25 26  1  0
 26 27  2  0
 27 28  1  0
 28 29  2  0
 29 30  1  0
 30 31  2  0
 31 32  1  0
 29 33  1  0
 28 34  1  0
 27 35  1  0
  7 36  1  0
  5 37  1  0
  1 38  1  0
  8  2  1  0
 25  9  1  0
 31 26  1  0
 14 12  1  0
 16 14  1  0
M  END
>  <cnnaffinity>  (1) 
-6.35544

>  <filename>  (1) 
Oc1c(Br)cncc1-c1nc(C2CC23CC3)nn1-c1cccnc1

$$$$
