
     RDKit          3D

 32 34  0  0  0  0  0  0  0  0999 V2000
    7.3596   -1.0735   26.0830 H   0  0  0  0  0  0  0  0  0  0  0  0
    7.3765   -1.4193   25.1832 O   0  0  0  0  0  0  0  0  0  0  0  0
    6.2533   -2.1893   25.0534 C   0  0  0  0  0  0  0  0  0  0  0  0
    5.5476   -2.5207   26.2119 C   0  0  0  0  0  0  0  0  0  0  0  0
    5.9169   -2.1732   27.1751 H   0  0  0  0  0  0  0  0  0  0  0  0
    4.4106   -3.3191   26.1447 C   0  0  0  0  0  0  0  0  0  0  0  0
    3.5440   -3.6788   27.6085 Cl  0  0  0  0  0  0  0  0  0  0  0  0
    3.9936   -3.8416   24.9166 C   0  0  0  0  0  0  0  0  0  0  0  0
    3.1411   -4.5073   24.8737 H   0  0  0  0  0  0  0  0  0  0  0  0
    4.6997   -3.5170   23.7546 C   0  0  0  0  0  0  0  0  0  0  0  0
    4.4000   -3.9021   22.7816 H   0  0  0  0  0  0  0  0  0  0  0  0
    5.8091   -2.6582   23.7865 C   0  0  0  0  0  0  0  0  0  0  0  0
    6.3333   -2.3571   22.5398 O   0  0  0  0  0  0  0  0  0  0  0  0
    7.1592   -1.2260   22.3694 C   0  0  2  0  0  0  0  0  0  0  0  0
    6.7862   -0.3680   22.9530 H   0  0  0  0  0  0  0  0  0  0  0  0
    7.3715   -0.9738   20.9540 N   0  0  0  0  0  0  0  0  0  0  0  0
    6.7377   -0.1947   20.0025 C   0  0  0  0  0  0  0  0  0  0  0  0
    7.2651   -0.0718   18.6862 C   0  0  0  0  0  0  0  0  0  0  0  0
    8.2080   -0.5648   18.4464 H   0  0  0  0  0  0  0  0  0  0  0  0
    6.6836    0.6093   17.6928 N   0  0  0  0  0  0  0  0  0  0  0  0
    5.5237    1.2346   17.9576 C   0  0  0  0  0  0  0  0  0  0  0  0
    5.0641    1.7662   17.1249 H   0  0  0  0  0  0  0  0  0  0  0  0
    4.9205    1.2029   19.2198 C   0  0  0  0  0  0  0  0  0  0  0  0
    3.9896    1.7386   19.3721 H   0  0  0  0  0  0  0  0  0  0  0  0
    5.5271    0.4836   20.2589 C   0  0  0  0  0  0  0  0  0  0  0  0
    5.0831    0.4382   21.2513 H   0  0  0  0  0  0  0  0  0  0  0  0
    8.7812   -1.3667   20.9828 C   0  0  0  0  0  0  0  0  0  0  0  0
    8.9761   -2.2857   20.4176 H   0  0  0  0  0  0  0  0  0  0  0  0
    9.4725   -0.5821   20.6412 H   0  0  0  0  0  0  0  0  0  0  0  0
    8.6632   -1.5482   22.5083 C   0  0  0  0  0  0  0  0  0  0  0  0
    9.2102   -0.8079   23.0902 H   0  0  0  0  0  0  0  0  0  0  0  0
    8.8597   -2.5631   22.8505 H   0  0  0  0  0  0  0  0  0  0  0  0
  1  2  1  0
  2  3  1  0
  3  4  2  0
  4  5  1  0
  4  6  1  0
  6  7  1  0
  6  8  2  0
  8  9  1  0
  8 10  1  0
 10 11  1  0
 10 12  2  0
 12 13  1  0
 13 14  1  0
 14 15  1  1
 14 16  1  0
 16 17  1  0
 17 18  2  0
 18 19  1  0
 18 20  1  0
 20 21  2  0
 21 22  1  0
 21 23  1  0
 23 24  1  0
 23 25  2  0
 25 26  1  0
 16 27  1  0
 27 28  1  0
 27 29  1  0
 27 30  1  0
 30 31  1  0
 30 32  1  0
 12  3  1  0
 30 14  1  0
 25 17  1  0
M  END
>  <cnnaffinity>  (1) 
-4.68665

>  <filename>  (1) 
Oc1cc(Cl)ccc1O[C@H]1CCN1c1cccnc1

$$$$
