
     RDKit          3D

 43 46  0  0  0  0  0  0  0  0999 V2000
   10.9411   -1.2620   21.2392 O   0  0  0  0  0  0  0  0  0  0  0  0
   11.7246   -0.2310   21.6190 C   0  0  0  0  0  0  0  0  0  0  0  0
   12.9948   -0.4393   22.1559 C   0  0  0  0  0  0  0  0  0  0  0  0
   13.7032    0.6840   22.5675 C   0  0  0  0  0  0  0  0  0  0  0  0
   13.2228    1.9283   22.4819 N   0  0  0  0  0  0  0  0  0  0  0  0
   12.0166    2.0982   21.9264 C   0  0  0  0  0  0  0  0  0  0  0  0
   11.2135    1.0582   21.4652 C   0  0  0  0  0  0  0  0  0  0  0  0
    9.7956    1.3153   20.9921 C   0  0  0  0  0  0  0  0  0  0  0  0
    8.7797    1.1102   22.0699 C   0  0  0  0  0  0  0  0  0  0  0  0
    8.7285    1.8532   23.1552 N   0  0  0  0  0  0  0  0  0  0  0  0
    7.6701    1.3463   23.8334 C   0  0  0  0  0  0  0  0  0  0  0  0
    7.2518    1.8706   25.1531 C   0  0  0  0  0  0  0  0  0  0  0  0
    7.9730    2.9118   25.7751 C   0  0  0  0  0  0  0  0  0  0  0  0
    7.5252    3.3958   26.9969 C   0  0  0  0  0  0  0  0  0  0  0  0
    8.1489    4.4508   27.5432 F   0  0  0  0  0  0  0  0  0  0  0  0
    6.4276    2.8458   27.6538 C   0  0  0  0  0  0  0  0  0  0  0  0
    5.7195    1.8099   27.0361 C   0  0  0  0  0  0  0  0  0  0  0  0
    6.1180    1.3278   25.7892 C   0  0  0  0  0  0  0  0  0  0  0  0
    5.5655    0.5332   25.2920 H   0  0  0  0  0  0  0  0  0  0  0  0
    4.8415    1.3840   27.5146 H   0  0  0  0  0  0  0  0  0  0  0  0
    6.1489    3.2425   28.6209 H   0  0  0  0  0  0  0  0  0  0  0  0
    8.8609    3.3531   25.3289 H   0  0  0  0  0  0  0  0  0  0  0  0
    7.0620    0.3455   23.2084 N   0  0  0  0  0  0  0  0  0  0  0  0
    7.7884    0.1994   22.0812 N   0  0  0  0  0  0  0  0  0  0  0  0
    7.3725   -0.7120   21.0234 C   0  0  0  0  0  0  0  0  0  0  0  0
    6.6510   -0.0124   19.8829 C   0  0  0  0  0  0  0  0  0  0  0  0
    5.4415    0.6466   20.1349 C   0  0  0  0  0  0  0  0  0  0  0  0
    4.7998    1.3088   19.0852 C   0  0  0  0  0  0  0  0  0  0  0  0
    5.3947    1.2980   17.8202 C   0  0  0  0  0  0  0  0  0  0  0  0
    6.5539    0.6757   17.5577 N   0  0  0  0  0  0  0  0  0  0  0  0
    7.1595    0.0495   18.5755 C   0  0  0  0  0  0  0  0  0  0  0  0
    8.1078   -0.4322   18.3244 H   0  0  0  0  0  0  0  0  0  0  0  0
    4.9248    1.8096   16.9800 H   0  0  0  0  0  0  0  0  0  0  0  0
    3.8680    1.8465   19.2357 H   0  0  0  0  0  0  0  0  0  0  0  0
    5.0276    0.6433   21.1442 H   0  0  0  0  0  0  0  0  0  0  0  0
    6.7247   -1.4435   21.5165 H   0  0  0  0  0  0  0  0  0  0  0  0
    8.2638   -1.2308   20.6583 H   0  0  0  0  0  0  0  0  0  0  0  0
    9.5354    0.7190   20.1135 H   0  0  0  0  0  0  0  0  0  0  0  0
    9.7127    2.3710   20.7191 H   0  0  0  0  0  0  0  0  0  0  0  0
   11.6514    3.1276   21.8376 H   0  0  0  0  0  0  0  0  0  0  0  0
   14.7124    0.6017   22.9739 H   0  0  0  0  0  0  0  0  0  0  0  0
   13.4145   -1.4370   22.2434 H   0  0  0  0  0  0  0  0  0  0  0  0
   11.4536   -2.0661   21.3741 H   0  0  0  0  0  0  0  0  0  0  0  0
  1  2  1  0
  2  3  2  0
  3  4  1  0
  4  5  2  0
  5  6  1  0
  6  7  2  0
  7  8  1  0
  8  9  1  0
  9 10  2  0
 10 11  1  0
 11 12  1  0
 12 13  2  0
 13 14  1  0
 14 15  1  0
 14 16  2  0
 16 17  1  0
 17 18  2  0
 18 19  1  0
 17 20  1  0
 16 21  1  0
 13 22  1  0
 11 23  2  0
 23 24  1  0
 24 25  1  0
 25 26  1  0
 26 27  2  0
 27 28  1  0
 28 29  2  0
 29 30  1  0
 30 31  2  0
 31 32  1  0
 29 33  1  0
 28 34  1  0
 27 35  1  0
 25 36  1  0
 25 37  1  0
  8 38  1  0
  8 39  1  0
  6 40  1  0
  4 41  1  0
  3 42  1  0
  1 43  1  0
  7  2  1  0
 24  9  1  0
 31 26  1  0
 18 12  1  0
M  END
>  <cnnaffinity>  (1) 
-6.33128

>  <filename>  (1) 
Oc1ccncc1Cc1nc(-c2cccc(F)c2)nn1Cc1cccnc1

$$$$
