
     RDKit          3D

 31 33  0  0  0  0  0  0  0  0999 V2000
   10.3152   -1.9763   21.1976 H   0  0  0  0  0  0  0  0  0  0  0  0
   11.2008   -2.1426   21.5433 O   0  0  0  0  0  0  0  0  0  0  0  0
   11.5818   -1.1459   22.3925 C   0  0  0  0  0  0  0  0  0  0  0  0
   12.8611   -0.6292   22.1998 C   0  0  0  0  0  0  0  0  0  0  0  0
   13.4514   -0.9928   21.3664 H   0  0  0  0  0  0  0  0  0  0  0  0
   13.3398    0.3643   23.0476 C   0  0  0  0  0  0  0  0  0  0  0  0
   14.8437    1.1229   22.6757 Cl  0  0  0  0  0  0  0  0  0  0  0  0
   12.6132    0.7951   24.1559 C   0  0  0  0  0  0  0  0  0  0  0  0
   13.0598    1.5286   24.8203 H   0  0  0  0  0  0  0  0  0  0  0  0
   11.3315    0.2716   24.3556 C   0  0  0  0  0  0  0  0  0  0  0  0
   10.7239    0.5825   25.1982 H   0  0  0  0  0  0  0  0  0  0  0  0
   10.7906   -0.6493   23.4546 C   0  0  0  0  0  0  0  0  0  0  0  0
    9.4938   -1.1088   23.6902 O   0  0  0  0  0  0  0  0  0  0  0  0
    8.6423   -1.0891   22.6472 C   0  0  0  0  0  0  0  0  0  0  0  0
    8.4724   -0.3043   21.5591 C   0  0  0  0  0  0  0  0  0  0  0  0
    8.9838    0.5826   21.2314 H   0  0  0  0  0  0  0  0  0  0  0  0
    7.3858   -0.8319   20.8512 N   0  0  0  0  0  0  0  0  0  0  0  0
    6.7079   -0.1373   19.7943 C   0  0  0  0  0  0  0  0  0  0  0  0
    7.2593   -0.0236   18.5058 C   0  0  0  0  0  0  0  0  0  0  0  0
    8.1906   -0.5381   18.2717 H   0  0  0  0  0  0  0  0  0  0  0  0
    6.6802    0.6762   17.5202 N   0  0  0  0  0  0  0  0  0  0  0  0
    5.5177    1.2946   17.7874 C   0  0  0  0  0  0  0  0  0  0  0  0
    5.0734    1.8701   16.9770 H   0  0  0  0  0  0  0  0  0  0  0  0
    4.8805    1.2184   19.0306 C   0  0  0  0  0  0  0  0  0  0  0  0
    3.9490    1.7500   19.1922 H   0  0  0  0  0  0  0  0  0  0  0  0
    5.4742    0.4716   20.0516 C   0  0  0  0  0  0  0  0  0  0  0  0
    5.0080    0.3627   21.0310 H   0  0  0  0  0  0  0  0  0  0  0  0
    6.8603   -1.9151   21.5253 C   0  0  0  0  0  0  0  0  0  0  0  0
    5.5542   -2.8824   21.1874 S   0  0  0  0  0  0  0  0  0  0  0  0
    7.6695   -2.0515   22.6136 N   0  0  0  0  0  0  0  0  0  0  0  0
    7.4024   -2.6590   23.3609 H   0  0  0  0  0  0  0  0  0  0  0  0
  1  2  1  0
  2  3  1  0
  3  4  2  0
  4  5  1  0
  4  6  1  0
  6  7  1  0
  6  8  2  0
  8  9  1  0
  8 10  1  0
 10 11  1  0
 10 12  2  0
 12 13  1  0
 13 14  1  0
 14 15  2  0
 15 16  1  0
 15 17  1  0
 17 18  1  0
 18 19  2  0
 19 20  1  0
 19 21  1  0
 21 22  2  0
 22 23  1  0
 22 24  1  0
 24 25  1  0
 24 26  2  0
 26 27  1  0
 17 28  1  0
 28 29  2  0
 28 30  1  0
 30 31  1  0
 12  3  1  0
 30 14  1  0
 26 18  1  0
M  END
>  <cnnaffinity>  (1) 
-5.77846

>  <filename>  (1) 
Oc1cc(Cl)ccc1Oc1cn(-c2cccnc2)c(=S)[nH]1

$$$$
