
     RDKit          3D

 41 45  0  0  0  0  0  0  0  0999 V2000
   12.1290   -1.1477   21.2487 O   0  0  0  0  0  0  0  0  0  0  0  0
   11.8792   -0.0132   21.9290 C   0  0  0  0  0  0  0  0  0  0  0  0
   12.7655    0.4086   22.9168 C   0  0  0  0  0  0  0  0  0  0  0  0
   12.4775    1.5869   23.5872 C   0  0  0  0  0  0  0  0  0  0  0  0
   11.4011    2.3347   23.3235 N   0  0  0  0  0  0  0  0  0  0  0  0
   10.5602    1.9042   22.3735 C   0  0  0  0  0  0  0  0  0  0  0  0
   10.7262    0.7276   21.6371 C   0  0  0  0  0  0  0  0  0  0  0  0
    9.6583    0.2036   20.6971 C   0  0  0  0  0  0  0  0  0  0  0  0
    8.5969   -0.6161   21.3669 C   0  0  0  0  0  0  0  0  0  0  0  0
    8.7838   -1.4102   22.4063 N   0  0  0  0  0  0  0  0  0  0  0  0
    7.5699   -1.9860   22.5758 C   0  0  0  0  0  0  0  0  0  0  0  0
    7.1877   -2.9473   23.6551 C   0  0  0  0  0  0  0  0  0  0  0  0
    6.7610   -4.3141   23.2154 C   0  0  0  0  0  0  0  0  0  0  0  0
    7.9854   -4.1916   24.1546 C   0  0  0  0  0  0  0  0  0  0  0  0
    8.5599   -5.4168   24.8751 C   0  0  0  0  0  0  0  0  0  0  0  0
    8.9620   -4.0413   25.3016 C   0  0  0  0  0  0  0  0  0  0  0  0
    8.5816   -3.6506   26.2481 H   0  0  0  0  0  0  0  0  0  0  0  0
    9.9751   -3.7338   25.0431 H   0  0  0  0  0  0  0  0  0  0  0  0
    9.3011   -6.0055   24.3357 H   0  0  0  0  0  0  0  0  0  0  0  0
    7.8762   -5.9903   25.5046 H   0  0  0  0  0  0  0  0  0  0  0  0
    6.9748   -4.5827   22.1748 H   0  0  0  0  0  0  0  0  0  0  0  0
    5.8345   -4.7415   23.6119 H   0  0  0  0  0  0  0  0  0  0  0  0
    6.6339   -2.4435   24.4553 H   0  0  0  0  0  0  0  0  0  0  0  0
    6.6481   -1.5999   21.7071 N   0  0  0  0  0  0  0  0  0  0  0  0
    7.3128   -0.7275   20.9113 N   0  0  0  0  0  0  0  0  0  0  0  0
    6.6340   -0.0287   19.8695 C   0  0  0  0  0  0  0  0  0  0  0  0
    5.4262    0.6279   20.1338 C   0  0  0  0  0  0  0  0  0  0  0  0
    4.8067    1.3161   19.0866 C   0  0  0  0  0  0  0  0  0  0  0  0
    5.3997    1.3079   17.8170 C   0  0  0  0  0  0  0  0  0  0  0  0
    6.5441    0.6628   17.5508 N   0  0  0  0  0  0  0  0  0  0  0  0
    7.1414    0.0167   18.5589 C   0  0  0  0  0  0  0  0  0  0  0  0
    8.0752   -0.4851   18.3192 H   0  0  0  0  0  0  0  0  0  0  0  0
    4.9383    1.8326   16.9827 H   0  0  0  0  0  0  0  0  0  0  0  0
    3.8777    1.8558   19.2384 H   0  0  0  0  0  0  0  0  0  0  0  0
    4.9961    0.5916   21.1356 H   0  0  0  0  0  0  0  0  0  0  0  0
   10.1045   -0.4749   19.9611 H   0  0  0  0  0  0  0  0  0  0  0  0
    9.1854    1.0328   20.1615 H   0  0  0  0  0  0  0  0  0  0  0  0
    9.6811    2.5334   22.2045 H   0  0  0  0  0  0  0  0  0  0  0  0
   13.1381    1.9566   24.3717 H   0  0  0  0  0  0  0  0  0  0  0  0
   13.6485   -0.1719   23.1504 H   0  0  0  0  0  0  0  0  0  0  0  0
   12.8732   -1.5735   21.6887 H   0  0  0  0  0  0  0  0  0  0  0  0
  1  2  1  0
  2  3  2  0
  3  4  1  0
  4  5  2  0
  5  6  1  0
  6  7  2  0
  7  8  1  0
  8  9  1  0
  9 10  2  0
 10 11  1  0
 11 12  1  0
 12 13  1  0
 13 14  1  0
 14 15  1  0
 15 16  1  0
 16 17  1  0
 16 18  1  0
 15 19  1  0
 15 20  1  0
 13 21  1  0
 13 22  1  0
 12 23  1  0
 11 24  2  0
 24 25  1  0
 25 26  1  0
 26 27  2  0
 27 28  1  0
 28 29  2  0
 29 30  1  0
 30 31  2  0
 31 32  1  0
 29 33  1  0
 28 34  1  0
 27 35  1  0
  8 36  1  0
  8 37  1  0
  6 38  1  0
  4 39  1  0
  3 40  1  0
  1 41  1  0
  7  2  1  0
 25  9  1  0
 31 26  1  0
 14 12  1  0
 16 14  1  0
M  END
>  <cnnaffinity>  (1) 
-6.54804

>  <filename>  (1) 
Oc1ccncc1Cc1nc(C2CC23CC3)nn1-c1cccnc1

$$$$
