
     RDKit          3D

 37 40  0  0  0  0  0  0  0  0999 V2000
    6.9304    2.8507   23.4083 H   0  0  0  0  0  0  0  0  0  0  0  0
    6.7646    3.0743   24.3388 O   0  0  0  0  0  0  0  0  0  0  0  0
    6.3517    1.9347   24.9501 C   0  0  0  0  0  0  0  0  0  0  0  0
    6.0298    2.0011   26.3070 C   0  0  0  0  0  0  0  0  0  0  0  0
    6.0965    2.9525   26.8231 H   0  0  0  0  0  0  0  0  0  0  0  0
    5.6233    0.8461   26.9781 C   0  0  0  0  0  0  0  0  0  0  0  0
    5.2001    0.9343   28.6641 Cl  0  0  0  0  0  0  0  0  0  0  0  0
    5.5650   -0.3847   26.3215 C   0  0  0  0  0  0  0  0  0  0  0  0
    5.2807   -1.2715   26.8731 H   0  0  0  0  0  0  0  0  0  0  0  0
    5.8761   -0.4534   24.9582 C   0  0  0  0  0  0  0  0  0  0  0  0
    5.8616   -1.4076   24.4331 H   0  0  0  0  0  0  0  0  0  0  0  0
    6.2333    0.7057   24.2649 C   0  0  0  0  0  0  0  0  0  0  0  0
    6.4438    0.7328   22.8918 O   0  0  0  0  0  0  0  0  0  0  0  0
    7.3082   -0.1790   22.3452 C   0  0  0  0  0  0  0  0  0  0  0  0
    7.3518   -0.5265   20.9623 C   0  0  0  0  0  0  0  0  0  0  0  0
    6.5854    0.0637   19.8550 C   0  0  0  0  0  0  0  0  0  0  0  0
    7.1018    0.0304   18.5443 C   0  0  0  0  0  0  0  0  0  0  0  0
    8.0215   -0.5119   18.3259 H   0  0  0  0  0  0  0  0  0  0  0  0
    6.5267    0.6446   17.5063 N   0  0  0  0  0  0  0  0  0  0  0  0
    5.3823    1.3055   17.7354 C   0  0  0  0  0  0  0  0  0  0  0  0
    4.9514    1.8291   16.8847 H   0  0  0  0  0  0  0  0  0  0  0  0
    4.7516    1.3487   18.9825 C   0  0  0  0  0  0  0  0  0  0  0  0
    3.8160    1.8848   19.0954 H   0  0  0  0  0  0  0  0  0  0  0  0
    5.3590    0.7200   20.0653 C   0  0  0  0  0  0  0  0  0  0  0  0
    4.9068    0.7339   21.0571 H   0  0  0  0  0  0  0  0  0  0  0  0
    8.2775   -1.4710   20.7571 N   0  0  0  0  0  0  0  0  0  0  0  0
    8.7786   -1.6979   21.9625 N   0  0  0  0  0  0  0  0  0  0  0  0
    8.2982   -0.9287   22.9506 C   0  0  0  0  0  0  0  0  0  0  0  0
    8.9950   -1.2581   24.2400 C   0  0  0  0  0  0  0  0  0  0  0  0
    9.3828   -0.3736   24.7460 H   0  0  0  0  0  0  0  0  0  0  0  0
    8.3052   -1.7479   24.9359 H   0  0  0  0  0  0  0  0  0  0  0  0
   10.1360   -2.1938   23.7656 C   0  0  0  0  0  0  0  0  0  0  0  0
   11.0471   -1.6083   23.6472 H   0  0  0  0  0  0  0  0  0  0  0  0
   10.3383   -2.9991   24.4691 H   0  0  0  0  0  0  0  0  0  0  0  0
    9.7333   -2.7003   22.3632 C   0  0  0  0  0  0  0  0  0  0  0  0
    9.2632   -3.6897   22.3703 H   0  0  0  0  0  0  0  0  0  0  0  0
   10.5716   -2.7060   21.6685 H   0  0  0  0  0  0  0  0  0  0  0  0
  1  2  1  0
  2  3  1  0
  3  4  2  0
  4  5  1  0
  4  6  1  0
  6  7  1  0
  6  8  2  0
  8  9  1  0
  8 10  1  0
 10 11  1  0
 10 12  2  0
 12 13  1  0
 13 14  1  0
 14 15  1  0
 15 16  1  0
 16 17  2  0
 17 18  1  0
 17 19  1  0
 19 20  2  0
 20 21  1  0
 20 22  1  0
 22 23  1  0
 22 24  2  0
 24 25  1  0
 15 26  2  0
 26 27  1  0
 27 28  1  0
 28 29  1  0
 29 30  1  0
 29 31  1  0
 29 32  1  0
 32 33  1  0
 32 34  1  0
 32 35  1  0
 35 36  1  0
 35 37  1  0
 12  3  1  0
 28 14  2  0
 24 16  1  0
 35 27  1  0
M  END
>  <cnnaffinity>  (1) 
-5.52597

>  <filename>  (1) 
Oc1cc(Cl)ccc1Oc1c(-c2cccnc2)nn2c1CCC2

$$$$
