
     RDKit          3D

 35 37  0  0  0  0  0  0  0  0999 V2000
   10.2215   -5.8898   27.5131 H   0  0  0  0  0  0  0  0  0  0  0  0
   10.0435   -5.9647   26.5691 O   0  0  0  0  0  0  0  0  0  0  0  0
   10.0872   -4.6861   25.9806 C   0  0  0  0  0  0  0  0  0  0  0  0
   10.9542   -4.1351   26.3572 H   0  0  0  0  0  0  0  0  0  0  0  0
   10.2975   -4.9051   24.4968 C   0  0  0  0  0  0  0  0  0  0  0  0
    9.4715   -5.5130   24.1066 H   0  0  0  0  0  0  0  0  0  0  0  0
   11.2307   -5.4616   24.3739 H   0  0  0  0  0  0  0  0  0  0  0  0
   10.3413   -3.5636   23.7778 C   0  0  0  0  0  0  0  0  0  0  0  0
   10.5590   -3.6362   22.7129 H   0  0  0  0  0  0  0  0  0  0  0  0
   11.1424   -2.9394   24.2030 H   0  0  0  0  0  0  0  0  0  0  0  0
    9.0428   -2.9241   23.9868 N   0  0  0  0  0  0  0  0  0  0  0  0
    8.4704   -2.1597   22.9908 C   0  0  0  0  0  0  0  0  0  0  0  0
    9.2981   -1.6378   22.0584 N   0  0  0  0  0  0  0  0  0  0  0  0
    8.7174   -0.8780   21.1180 C   0  0  0  0  0  0  0  0  0  0  0  0
    9.3830   -0.3749   20.4160 H   0  0  0  0  0  0  0  0  0  0  0  0
    7.3158   -0.6981   21.0183 C   0  0  0  0  0  0  0  0  0  0  0  0
    6.6484    0.0294   19.9207 C   0  0  0  0  0  0  0  0  0  0  0  0
    7.1881    0.0346   18.6237 C   0  0  0  0  0  0  0  0  0  0  0  0
    8.1083   -0.5108   18.4145 H   0  0  0  0  0  0  0  0  0  0  0  0
    6.6254    0.6490   17.5788 N   0  0  0  0  0  0  0  0  0  0  0  0
    5.4714    1.2981   17.8020 C   0  0  0  0  0  0  0  0  0  0  0  0
    5.0297    1.7956   16.9443 H   0  0  0  0  0  0  0  0  0  0  0  0
    4.8308    1.3383   19.0479 C   0  0  0  0  0  0  0  0  0  0  0  0
    3.8889    1.8681   19.1618 H   0  0  0  0  0  0  0  0  0  0  0  0
    5.4240    0.6902   20.1246 C   0  0  0  0  0  0  0  0  0  0  0  0
    4.9592    0.6600   21.1131 H   0  0  0  0  0  0  0  0  0  0  0  0
    6.4882   -1.2183   21.9650 N   0  0  0  0  0  0  0  0  0  0  0  0
    7.0493   -1.9334   22.9361 C   0  0  0  0  0  0  0  0  0  0  0  0
    6.3772   -2.3729   23.6745 H   0  0  0  0  0  0  0  0  0  0  0  0
    8.7934   -2.6023   25.3953 C   0  0  0  0  0  0  0  0  0  0  0  0
    9.5506   -1.8839   25.7633 H   0  0  0  0  0  0  0  0  0  0  0  0
    7.8246   -2.1052   25.5058 H   0  0  0  0  0  0  0  0  0  0  0  0
    8.8178   -3.8772   26.2394 C   0  0  0  0  0  0  0  0  0  0  0  0
    7.9605   -4.5092   25.9821 H   0  0  0  0  0  0  0  0  0  0  0  0
    8.7488   -3.6219   27.3036 H   0  0  0  0  0  0  0  0  0  0  0  0
  1  2  1  0
  2  3  1  0
  3  4  1  0
  3  5  1  0
  5  6  1  0
  5  7  1  0
  5  8  1  0
  8  9  1  0
  8 10  1  0
  8 11  1  0
 11 12  1  0
 12 13  2  0
 13 14  1  0
 14 15  1  0
 14 16  2  0
 16 17  1  0
 17 18  2  0
 18 19  1  0
 18 20  1  0
 20 21  2  0
 21 22  1  0
 21 23  1  0
 23 24  1  0
 23 25  2  0
 25 26  1  0
 16 27  1  0
 27 28  2  0
 28 29  1  0
 11 30  1  0
 30 31  1  0
 30 32  1  0
 30 33  1  0
 33 34  1  0
 33 35  1  0
 33  3  1  0
 28 12  1  0
 25 17  1  0
M  END
>  <cnnaffinity>  (1) 
-5.07993

>  <filename>  (1) 
OC1CCN(c2cnc(-c3cccnc3)cn2)CC1

$$$$
