
     RDKit          3D

 30 32  0  0  0  0  0  0  0  0999 V2000
    4.9201    1.1690   23.4990 H   0  0  0  0  0  0  0  0  0  0  0  0
    4.8513    1.7217   24.3037 O   0  0  0  0  0  0  0  0  0  0  0  0
    6.1529    1.8994   24.6416 C   0  0  0  0  0  0  0  0  0  0  0  0
    6.4749    2.7055   25.7333 C   0  0  0  0  0  0  0  0  0  0  0  0
    5.6928    3.1236   26.3501 H   0  0  0  0  0  0  0  0  0  0  0  0
    7.8188    2.9431   26.0222 C   0  0  0  0  0  0  0  0  0  0  0  0
    8.2282    4.1459   27.1929 Cl  0  0  0  0  0  0  0  0  0  0  0  0
    8.8382    2.2906   25.3364 C   0  0  0  0  0  0  0  0  0  0  0  0
    9.8584    2.4469   25.6561 H   0  0  0  0  0  0  0  0  0  0  0  0
    8.5211    1.4607   24.2536 C   0  0  0  0  0  0  0  0  0  0  0  0
    9.3120    1.0012   23.6726 H   0  0  0  0  0  0  0  0  0  0  0  0
    7.1846    1.2795   23.9098 C   0  0  0  0  0  0  0  0  0  0  0  0
    6.6892    0.5677   22.8090 O   0  0  0  0  0  0  0  0  0  0  0  0
    7.4903   -0.3754   22.2360 N   0  0  0  0  0  0  0  0  0  0  0  0
    7.4555   -0.6786   20.9019 C   0  0  0  0  0  0  0  0  0  0  0  0
    6.6740    0.0422   19.8935 C   0  0  0  0  0  0  0  0  0  0  0  0
    7.1650    0.0212   18.5796 C   0  0  0  0  0  0  0  0  0  0  0  0
    8.0826   -0.5205   18.3594 H   0  0  0  0  0  0  0  0  0  0  0  0
    6.5732    0.6403   17.5557 N   0  0  0  0  0  0  0  0  0  0  0  0
    5.4246    1.2878   17.8027 C   0  0  0  0  0  0  0  0  0  0  0  0
    4.9600    1.7844   16.9521 H   0  0  0  0  0  0  0  0  0  0  0  0
    4.8251    1.3310   19.0664 C   0  0  0  0  0  0  0  0  0  0  0  0
    3.8808    1.8498   19.1883 H   0  0  0  0  0  0  0  0  0  0  0  0
    5.4632    0.7151   20.1415 C   0  0  0  0  0  0  0  0  0  0  0  0
    5.0285    0.7579   21.1387 H   0  0  0  0  0  0  0  0  0  0  0  0
    8.1960   -1.7422   20.6745 N   0  0  0  0  0  0  0  0  0  0  0  0
    8.6314   -2.1778   21.8943 C   0  0  0  0  0  0  0  0  0  0  0  0
    9.2158   -3.0851   21.9943 H   0  0  0  0  0  0  0  0  0  0  0  0
    8.1918   -1.3616   22.8990 C   0  0  0  0  0  0  0  0  0  0  0  0
    8.3158   -1.3775   23.9728 H   0  0  0  0  0  0  0  0  0  0  0  0
  1  2  1  0
  2  3  1  0
  3  4  2  0
  4  5  1  0
  4  6  1  0
  6  7  1  0
  6  8  2  0
  8  9  1  0
  8 10  1  0
 10 11  1  0
 10 12  2  0
 12 13  1  0
 13 14  1  0
 14 15  1  0
 15 16  1  0
 16 17  2  0
 17 18  1  0
 17 19  1  0
 19 20  2  0
 20 21  1  0
 20 22  1  0
 22 23  1  0
 22 24  2  0
 24 25  1  0
 15 26  2  0
 26 27  1  0
 27 28  1  0
 27 29  2  0
 29 30  1  0
 12  3  1  0
 29 14  1  0
 24 16  1  0
M  END
>  <cnnaffinity>  (1) 
-5.06951

>  <filename>  (1) 
Oc1cc(Cl)ccc1On1ccnc1-c1cccnc1

$$$$
