
     RDKit          3D

 36 38  0  0  0  0  0  0  0  0999 V2000
    6.7521   -3.5163   24.2447 H   0  0  0  0  0  0  0  0  0  0  0  0
    6.7864   -4.3716   24.7061 O   0  0  0  0  0  0  0  0  0  0  0  0
    8.1004   -4.6567   24.8947 C   0  0  0  0  0  0  0  0  0  0  0  0
    8.3956   -5.9495   25.3686 C   0  0  0  0  0  0  0  0  0  0  0  0
    7.5728   -6.6017   25.6382 H   0  0  0  0  0  0  0  0  0  0  0  0
    9.7223   -6.3542   25.5076 C   0  0  0  0  0  0  0  0  0  0  0  0
   10.0914   -8.0009   25.9180 Cl  0  0  0  0  0  0  0  0  0  0  0  0
   10.7721   -5.4572   25.2975 C   0  0  0  0  0  0  0  0  0  0  0  0
   11.7990   -5.7594   25.4348 H   0  0  0  0  0  0  0  0  0  0  0  0
   10.4840   -4.1532   24.9203 C   0  0  0  0  0  0  0  0  0  0  0  0
   11.2600   -3.4049   24.7898 H   0  0  0  0  0  0  0  0  0  0  0  0
    9.1710   -3.7582   24.6705 C   0  0  0  0  0  0  0  0  0  0  0  0
    9.1171   -2.4127   24.2750 O   0  0  0  0  0  0  0  0  0  0  0  0
    8.1004   -2.0596   23.3499 N   0  0  0  0  0  0  0  0  0  0  0  0
    8.0873   -0.5723   23.4571 C   0  0  0  0  0  0  0  0  0  0  0  0
    7.6760   -0.3304   24.4359 H   0  0  0  0  0  0  0  0  0  0  0  0
    9.1303   -0.2151   23.4686 H   0  0  0  0  0  0  0  0  0  0  0  0
    7.3186    0.0869   22.3384 C   0  0  0  0  0  0  0  0  0  0  0  0
    6.9313    1.0829   22.5426 H   0  0  0  0  0  0  0  0  0  0  0  0
    7.2186   -0.4659   21.1250 C   0  0  0  0  0  0  0  0  0  0  0  0
    6.5433    0.2039   19.9733 C   0  0  0  0  0  0  0  0  0  0  0  0
    7.1013    0.1811   18.6773 C   0  0  0  0  0  0  0  0  0  0  0  0
    8.0729   -0.2822   18.5096 H   0  0  0  0  0  0  0  0  0  0  0  0
    6.5439    0.7311   17.5900 N   0  0  0  0  0  0  0  0  0  0  0  0
    5.3727    1.3640   17.7548 C   0  0  0  0  0  0  0  0  0  0  0  0
    4.9353    1.8146   16.8656 H   0  0  0  0  0  0  0  0  0  0  0  0
    4.7289    1.4701   18.9920 C   0  0  0  0  0  0  0  0  0  0  0  0
    3.7944    2.0144   19.0652 H   0  0  0  0  0  0  0  0  0  0  0  0
    5.3263    0.8969   20.1160 C   0  0  0  0  0  0  0  0  0  0  0  0
    4.8592    0.9746   21.0984 H   0  0  0  0  0  0  0  0  0  0  0  0
    7.8197   -1.8420   20.8618 C   0  0  0  0  0  0  0  0  0  0  0  0
    7.0129   -2.5329   20.5954 H   0  0  0  0  0  0  0  0  0  0  0  0
    8.4854   -1.7529   20.0012 H   0  0  0  0  0  0  0  0  0  0  0  0
    8.6508   -2.4202   22.0165 C   0  0  0  0  0  0  0  0  0  0  0  0
    8.6834   -3.5167   21.9722 H   0  0  0  0  0  0  0  0  0  0  0  0
    9.6943   -2.0728   21.9720 H   0  0  0  0  0  0  0  0  0  0  0  0
  1  2  1  0
  2  3  1  0
  3  4  2  0
  4  5  1  0
  4  6  1  0
  6  7  1  0
  6  8  2  0
  8  9  1  0
  8 10  1  0
 10 11  1  0
 10 12  2  0
 12 13  1  0
 13 14  1  0
 14 15  1  0
 15 16  1  0
 15 17  1  0
 15 18  1  0
 18 19  1  0
 18 20  2  0
 20 21  1  0
 21 22  2  0
 22 23  1  0
 22 24  1  0
 24 25  2  0
 25 26  1  0
 25 27  1  0
 27 28  1  0
 27 29  2  0
 29 30  1  0
 20 31  1  0
 31 32  1  0
 31 33  1  0
 31 34  1  0
 34 35  1  0
 34 36  1  0
 12  3  1  0
 34 14  1  0
 29 21  1  0
M  END
>  <cnnaffinity>  (1) 
-5.14315

>  <filename>  (1) 
Oc1cc(Cl)ccc1ON1CC=C(c2cccnc2)CC1

$$$$
