
     RDKit          3D

 19 20  0  0  0  0  0  0  0  0999 V2000
    5.4803   -2.5690   22.5058 H   0  0  0  0  0  0  0  0  0  0  0  0
    5.5586   -2.1298   21.6423 O   0  0  0  0  0  0  0  0  0  0  0  0
    6.8017   -1.6801   21.7405 C   0  0  0  0  0  0  0  0  0  0  0  0
    7.6189   -2.1199   22.6355 N   0  0  0  0  0  0  0  0  0  0  0  0
    8.7576   -1.3959   22.3677 N   0  0  0  0  0  0  0  0  0  0  0  0
    9.6308   -1.5289   22.8545 H   0  0  0  0  0  0  0  0  0  0  0  0
    8.6450   -0.5233   21.3572 C   0  0  0  0  0  0  0  0  0  0  0  0
    9.8005    0.5264   20.8099 S   0  0  0  0  0  0  0  0  0  0  0  0
    7.3344   -0.7215   20.9183 N   0  0  0  0  0  0  0  0  0  0  0  0
    6.6495   -0.0108   19.8775 C   0  0  0  0  0  0  0  0  0  0  0  0
    7.1772    0.0479   18.5736 C   0  0  0  0  0  0  0  0  0  0  0  0
    8.1311   -0.4349   18.3650 H   0  0  0  0  0  0  0  0  0  0  0  0
    6.5557    0.6676   17.5659 N   0  0  0  0  0  0  0  0  0  0  0  0
    5.3991    1.2943   17.8358 C   0  0  0  0  0  0  0  0  0  0  0  0
    4.9327    1.8061   16.9982 H   0  0  0  0  0  0  0  0  0  0  0  0
    4.8053    1.3091   19.1036 C   0  0  0  0  0  0  0  0  0  0  0  0
    3.8773    1.8536   19.2567 H   0  0  0  0  0  0  0  0  0  0  0  0
    5.4405    0.6319   20.1526 C   0  0  0  0  0  0  0  0  0  0  0  0
    5.0251    0.5980   21.1608 H   0  0  0  0  0  0  0  0  0  0  0  0
  1  2  1  0
  2  3  1  0
  3  4  2  0
  4  5  1  0
  5  6  1  0
  5  7  1  0
  7  8  2  0
  7  9  1  0
  9 10  1  0
 10 11  2  0
 11 12  1  0
 11 13  1  0
 13 14  2  0
 14 15  1  0
 14 16  1  0
 16 17  1  0
 16 18  2  0
 18 19  1  0
  9  3  1  0
 18 10  1  0
M  END
>  <cnnaffinity>  (1) 
-4.25267

>  <filename>  (1) 
Oc1n[nH]c(=S)n1-c1cccnc1

$$$$
