
     RDKit          3D

 37 40  0  0  0  0  0  0  0  0999 V2000
   10.3315    3.5946   24.3064 O   0  0  0  0  0  0  0  0  0  0  0  0
   10.7025    2.5863   23.5188 C   0  0  0  0  0  0  0  0  0  0  0  0
   11.9245    2.1775   23.8554 N   0  0  0  0  0  0  0  0  0  0  0  0
   12.4347    1.1519   23.1678 C   0  0  0  0  0  0  0  0  0  0  0  0
   11.7174    0.5236   22.1458 C   0  0  0  0  0  0  0  0  0  0  0  0
   10.4347    0.9575   21.8092 C   0  0  0  0  0  0  0  0  0  0  0  0
    9.6439    0.2584   20.7459 C   0  0  0  0  0  0  0  0  0  0  0  0
    8.6091   -0.6246   21.3352 C   0  0  0  0  0  0  0  0  0  0  0  0
    8.8572   -1.4726   22.2838 N   0  0  0  0  0  0  0  0  0  0  0  0
    7.6147   -2.0294   22.5059 C   0  0  0  0  0  0  0  0  0  0  0  0
    7.4081   -3.0019   23.6239 C   0  0  0  0  0  0  0  0  0  0  0  0
    6.3363   -2.6940   24.6683 C   0  0  0  0  0  0  0  0  0  0  0  0
    7.8152   -2.6372   25.0546 C   0  0  0  0  0  0  0  0  0  0  0  0
    8.2105   -3.4392   25.6875 H   0  0  0  0  0  0  0  0  0  0  0  0
    8.2775   -1.6550   25.2184 H   0  0  0  0  0  0  0  0  0  0  0  0
    5.7903   -1.7486   24.5596 H   0  0  0  0  0  0  0  0  0  0  0  0
    5.7385   -3.5346   25.0326 H   0  0  0  0  0  0  0  0  0  0  0  0
    7.5489   -4.0339   23.2918 H   0  0  0  0  0  0  0  0  0  0  0  0
    6.6565   -1.6204   21.7130 N   0  0  0  0  0  0  0  0  0  0  0  0
    7.2802   -0.7005   20.9475 N   0  0  0  0  0  0  0  0  0  0  0  0
    6.6503    0.0002   19.9123 C   0  0  0  0  0  0  0  0  0  0  0  0
    5.4301    0.6366   20.1487 C   0  0  0  0  0  0  0  0  0  0  0  0
    4.8124    1.3009   19.0880 C   0  0  0  0  0  0  0  0  0  0  0  0
    5.4184    1.3017   17.8276 C   0  0  0  0  0  0  0  0  0  0  0  0
    6.5906    0.6838   17.5868 N   0  0  0  0  0  0  0  0  0  0  0  0
    7.1906    0.0547   18.6170 C   0  0  0  0  0  0  0  0  0  0  0  0
    8.1370   -0.4433   18.4305 H   0  0  0  0  0  0  0  0  0  0  0  0
    4.9181    1.8221   17.0168 H   0  0  0  0  0  0  0  0  0  0  0  0
    3.8731    1.8284   19.2304 H   0  0  0  0  0  0  0  0  0  0  0  0
    4.9903    0.6257   21.1439 H   0  0  0  0  0  0  0  0  0  0  0  0
    9.1636    0.9914   20.0960 H   0  0  0  0  0  0  0  0  0  0  0  0
   10.2934   -0.3907   20.1648 H   0  0  0  0  0  0  0  0  0  0  0  0
    9.9088    2.0345   22.5140 C   0  0  0  0  0  0  0  0  0  0  0  0
    8.1553    2.7225   22.1392 Br  0  0  0  0  0  0  0  0  0  0  0  0
   12.1666   -0.3099   21.6277 H   0  0  0  0  0  0  0  0  0  0  0  0
   13.4302    0.7894   23.4254 H   0  0  0  0  0  0  0  0  0  0  0  0
   11.1227    3.6855   24.8602 H   0  0  0  0  0  0  0  0  0  0  0  0
  1  2  1  0
  2  3  2  0
  3  4  1  0
  4  5  2  0
  5  6  1  0
  6  7  1  0
  7  8  1  0
  8  9  2  0
  9 10  1  0
 10 11  1  0
 11 12  1  0
 12 13  1  0
 13 14  1  0
 13 15  1  0
 12 16  1  0
 12 17  1  0
 11 18  1  0
 10 19  2  0
 19 20  1  0
 20 21  1  0
 21 22  2  0
 22 23  1  0
 23 24  2  0
 24 25  1  0
 25 26  2  0
 26 27  1  0
 24 28  1  0
 23 29  1  0
 22 30  1  0
  7 31  1  0
  7 32  1  0
  6 33  2  0
 33 34  1  0
  5 35  1  0
  4 36  1  0
  1 37  1  0
 33  2  1  0
 20  8  1  0
 26 21  1  0
 13 11  1  0
M  END
>  <cnnaffinity>  (1) 
-6.0002

>  <filename>  (1) 
Oc1nccc(Cc2nc(C3CC3)nn2-c2cccnc2)c1Br

$$$$
