
     RDKit          3D

 38 40  0  0  0  0  0  0  0  0999 V2000
    5.0101   -6.9832   26.9459 H   0  0  0  0  0  0  0  0  0  0  0  0
    5.0463   -6.9623   25.9808 O   0  0  0  0  0  0  0  0  0  0  0  0
    4.7139   -5.6516   25.5585 C   0  0  0  0  0  0  0  0  0  0  0  0
    4.7442   -5.6823   24.4642 H   0  0  0  0  0  0  0  0  0  0  0  0
    3.6770   -5.3932   25.8374 H   0  0  0  0  0  0  0  0  0  0  0  0
    5.6616   -4.5741   26.1080 C   0  0  0  0  0  0  0  0  0  0  0  0
    5.6365   -4.6760   27.2039 H   0  0  0  0  0  0  0  0  0  0  0  0
    7.1308   -4.7197   25.6618 C   0  0  0  0  0  0  0  0  0  0  0  0
    7.5220   -5.7196   25.8840 H   0  0  0  0  0  0  0  0  0  0  0  0
    7.7367   -4.0161   26.2455 H   0  0  0  0  0  0  0  0  0  0  0  0
    7.3405   -4.3872   24.1815 C   0  0  0  0  0  0  0  0  0  0  0  0
    6.8571   -5.1497   23.5435 H   0  0  0  0  0  0  0  0  0  0  0  0
    8.4134   -4.4138   23.9603 H   0  0  0  0  0  0  0  0  0  0  0  0
    6.8352   -3.0458   23.8758 N   0  0  0  0  0  0  0  0  0  0  0  0
    7.4504   -2.2542   22.9121 C   0  0  0  0  0  0  0  0  0  0  0  0
    8.7881   -2.1396   22.9699 N   0  0  0  0  0  0  0  0  0  0  0  0
    9.4343   -1.3116   22.1297 N   0  0  0  0  0  0  0  0  0  0  0  0
    8.7720   -0.6461   21.1885 C   0  0  0  0  0  0  0  0  0  0  0  0
    9.3822    0.0180   20.5845 H   0  0  0  0  0  0  0  0  0  0  0  0
    7.3616   -0.7595   21.0002 C   0  0  0  0  0  0  0  0  0  0  0  0
    6.6408   -0.0244   19.9035 C   0  0  0  0  0  0  0  0  0  0  0  0
    7.1513    0.0397   18.5832 C   0  0  0  0  0  0  0  0  0  0  0  0
    8.0882   -0.4573   18.3377 H   0  0  0  0  0  0  0  0  0  0  0  0
    6.5557    0.6717   17.5636 N   0  0  0  0  0  0  0  0  0  0  0  0
    5.4027    1.3060   17.8227 C   0  0  0  0  0  0  0  0  0  0  0  0
    4.9368    1.8228   16.9869 H   0  0  0  0  0  0  0  0  0  0  0  0
    4.7963    1.3181   19.0832 C   0  0  0  0  0  0  0  0  0  0  0  0
    3.8655    1.8599   19.2244 H   0  0  0  0  0  0  0  0  0  0  0  0
    5.4216    0.6410   20.1334 C   0  0  0  0  0  0  0  0  0  0  0  0
    4.9866    0.6564   21.1332 H   0  0  0  0  0  0  0  0  0  0  0  0
    6.6994   -1.5746   21.9103 C   0  0  0  0  0  0  0  0  0  0  0  0
    5.6291   -1.7455   21.8630 H   0  0  0  0  0  0  0  0  0  0  0  0
    5.4947   -2.6962   24.3285 C   0  0  0  0  0  0  0  0  0  0  0  0
    5.4361   -1.6026   24.3489 H   0  0  0  0  0  0  0  0  0  0  0  0
    4.7152   -3.0686   23.6384 H   0  0  0  0  0  0  0  0  0  0  0  0
    5.1957   -3.1487   25.7654 C   0  0  0  0  0  0  0  0  0  0  0  0
    5.6943   -2.4524   26.4471 H   0  0  0  0  0  0  0  0  0  0  0  0
    4.1205   -3.0263   25.9477 H   0  0  0  0  0  0  0  0  0  0  0  0
  1  2  1  0
  2  3  1  0
  3  4  1  0
  3  5  1  0
  3  6  1  0
  6  7  1  0
  6  8  1  0
  8  9  1  0
  8 10  1  0
  8 11  1  0
 11 12  1  0
 11 13  1  0
 11 14  1  0
 14 15  1  0
 15 16  2  0
 16 17  1  0
 17 18  2  0
 18 19  1  0
 18 20  1  0
 20 21  1  0
 21 22  2  0
 22 23  1  0
 22 24  1  0
 24 25  2  0
 25 26  1  0
 25 27  1  0
 27 28  1  0
 27 29  2  0
 29 30  1  0
 20 31  2  0
 31 32  1  0
 14 33  1  0
 33 34  1  0
 33 35  1  0
 33 36  1  0
 36 37  1  0
 36 38  1  0
 36  6  1  0
 31 15  1  0
 29 21  1  0
M  END
>  <cnnaffinity>  (1) 
-4.91852

>  <filename>  (1) 
OCC1CCN(c2cc(-c3cccnc3)cnn2)CC1

$$$$
