
     RDKit          3D

 37 39  0  0  0  0  0  0  0  0999 V2000
    3.7410    3.8695   25.7951 H   0  0  0  0  0  0  0  0  0  0  0  0
    4.4309    4.5167   25.6073 O   0  0  0  0  0  0  0  0  0  0  0  0
    4.8223    4.3256   24.2580 C   0  0  0  0  0  0  0  0  0  0  0  0
    5.2021    5.2916   23.9101 H   0  0  0  0  0  0  0  0  0  0  0  0
    3.9582    4.0663   23.6259 H   0  0  0  0  0  0  0  0  0  0  0  0
    5.9008    3.2553   24.0803 C   0  0  0  0  0  0  0  0  0  0  0  0
    6.7310    3.5327   24.7465 H   0  0  0  0  0  0  0  0  0  0  0  0
    6.4218    3.2177   22.6311 C   0  0  0  0  0  0  0  0  0  0  0  0
    5.5905    3.0144   21.9400 H   0  0  0  0  0  0  0  0  0  0  0  0
    6.8366    4.1925   22.3441 H   0  0  0  0  0  0  0  0  0  0  0  0
    7.4738    2.1223   22.4363 C   0  0  0  0  0  0  0  0  0  0  0  0
    8.3991    2.3969   22.9804 H   0  0  0  0  0  0  0  0  0  0  0  0
    7.7492    2.0399   21.3815 H   0  0  0  0  0  0  0  0  0  0  0  0
    6.9313    0.8347   22.8797 N   0  0  0  0  0  0  0  0  0  0  0  0
    7.4715   -0.3268   22.3199 C   0  0  0  0  0  0  0  0  0  0  0  0
    8.1952   -1.4110   22.8931 C   0  0  0  0  0  0  0  0  0  0  0  0
    8.4913   -1.5395   23.9261 H   0  0  0  0  0  0  0  0  0  0  0  0
    8.5246   -2.3233   21.9876 N   0  0  0  0  0  0  0  0  0  0  0  0
    8.0253   -1.8413   20.8409 N   0  0  0  0  0  0  0  0  0  0  0  0
    8.1006   -2.3813   19.9920 H   0  0  0  0  0  0  0  0  0  0  0  0
    7.3705   -0.6634   20.9719 C   0  0  0  0  0  0  0  0  0  0  0  0
    6.6594    0.0145   19.8840 C   0  0  0  0  0  0  0  0  0  0  0  0
    7.1614    0.0658   18.5687 C   0  0  0  0  0  0  0  0  0  0  0  0
    8.1166   -0.4031   18.3373 H   0  0  0  0  0  0  0  0  0  0  0  0
    6.5524    0.6886   17.5547 N   0  0  0  0  0  0  0  0  0  0  0  0
    5.3897    1.3048   17.8237 C   0  0  0  0  0  0  0  0  0  0  0  0
    4.9111    1.7963   16.9837 H   0  0  0  0  0  0  0  0  0  0  0  0
    4.7990    1.3215   19.0920 C   0  0  0  0  0  0  0  0  0  0  0  0
    3.8656    1.8473   19.2462 H   0  0  0  0  0  0  0  0  0  0  0  0
    5.4402    0.6651   20.1419 C   0  0  0  0  0  0  0  0  0  0  0  0
    5.0293    0.6323   21.1541 H   0  0  0  0  0  0  0  0  0  0  0  0
    6.4856    0.7996   24.2648 C   0  0  0  0  0  0  0  0  0  0  0  0
    7.3062    0.9450   24.9928 H   0  0  0  0  0  0  0  0  0  0  0  0
    6.0762   -0.1956   24.4429 H   0  0  0  0  0  0  0  0  0  0  0  0
    5.4085    1.8580   24.4869 C   0  0  0  0  0  0  0  0  0  0  0  0
    4.5312    1.5859   23.8863 H   0  0  0  0  0  0  0  0  0  0  0  0
    5.0930    1.8503   25.5354 H   0  0  0  0  0  0  0  0  0  0  0  0
  1  2  1  0
  2  3  1  0
  3  4  1  0
  3  5  1  0
  3  6  1  0
  6  7  1  0
  6  8  1  0
  8  9  1  0
  8 10  1  0
  8 11  1  0
 11 12  1  0
 11 13  1  0
 11 14  1  0
 14 15  1  0
 15 16  1  0
 16 17  1  0
 16 18  2  0
 18 19  1  0
 19 20  1  0
 19 21  1  0
 21 22  1  0
 22 23  2  0
 23 24  1  0
 23 25  1  0
 25 26  2  0
 26 27  1  0
 26 28  1  0
 28 29  1  0
 28 30  2  0
 30 31  1  0
 14 32  1  0
 32 33  1  0
 32 34  1  0
 32 35  1  0
 35 36  1  0
 35 37  1  0
 35  6  1  0
 21 15  2  0
 30 22  1  0
M  END
>  <cnnaffinity>  (1) 
-5.10433

>  <filename>  (1) 
OCC1CCN(c2cn[nH]c2-c2cccnc2)CC1

$$$$
