
     RDKit          3D

 38 40  0  0  0  0  0  0  0  0999 V2000
   10.2837   -4.8523   28.3094 H   0  0  0  0  0  0  0  0  0  0  0  0
   10.4949   -5.4614   27.5936 O   0  0  0  0  0  0  0  0  0  0  0  0
    9.2767   -5.7926   26.9389 C   0  0  0  0  0  0  0  0  0  0  0  0
    8.4608   -5.9702   27.6601 H   0  0  0  0  0  0  0  0  0  0  0  0
    9.4579   -6.7484   26.4427 H   0  0  0  0  0  0  0  0  0  0  0  0
    8.8763   -4.7444   25.8953 C   0  0  0  0  0  0  0  0  0  0  0  0
    7.8294   -4.9409   25.6419 H   0  0  0  0  0  0  0  0  0  0  0  0
    9.6904   -4.8743   24.5740 C   0  0  0  0  0  0  0  0  0  0  0  0
   10.5879   -5.4873   24.7199 H   0  0  0  0  0  0  0  0  0  0  0  0
    9.0603   -5.4028   23.8456 H   0  0  0  0  0  0  0  0  0  0  0  0
   10.1300   -3.5313   23.9738 C   0  0  0  0  0  0  0  0  0  0  0  0
   10.3454   -3.6308   22.9108 H   0  0  0  0  0  0  0  0  0  0  0  0
   11.0542   -3.1831   24.4621 H   0  0  0  0  0  0  0  0  0  0  0  0
    9.0869   -2.5226   24.1589 N   0  0  0  0  0  0  0  0  0  0  0  0
    8.5804   -1.7827   23.1336 C   0  0  0  0  0  0  0  0  0  0  0  0
    8.8846   -2.1792   21.8739 N   0  0  0  0  0  0  0  0  0  0  0  0
    8.2903   -1.4983   20.8884 C   0  0  0  0  0  0  0  0  0  0  0  0
    8.5761   -1.7981   19.8884 H   0  0  0  0  0  0  0  0  0  0  0  0
    7.3561   -0.4489   21.0859 C   0  0  0  0  0  0  0  0  0  0  0  0
    6.6201    0.1847   19.9632 C   0  0  0  0  0  0  0  0  0  0  0  0
    7.1685    0.1808   18.6687 C   0  0  0  0  0  0  0  0  0  0  0  0
    8.1439   -0.2686   18.4758 H   0  0  0  0  0  0  0  0  0  0  0  0
    6.5851    0.7207   17.5978 N   0  0  0  0  0  0  0  0  0  0  0  0
    5.3964    1.3138   17.7803 C   0  0  0  0  0  0  0  0  0  0  0  0
    4.9493    1.7592   16.8945 H   0  0  0  0  0  0  0  0  0  0  0  0
    4.7516    1.3771   19.0176 C   0  0  0  0  0  0  0  0  0  0  0  0
    3.7980    1.8876   19.0979 H   0  0  0  0  0  0  0  0  0  0  0  0
    5.3683    0.8120   20.1335 C   0  0  0  0  0  0  0  0  0  0  0  0
    4.9070    0.8674   21.1190 H   0  0  0  0  0  0  0  0  0  0  0  0
    7.1065    0.0030   22.3441 N   0  0  0  0  0  0  0  0  0  0  0  0
    7.7331   -0.6249   23.3402 C   0  0  0  0  0  0  0  0  0  0  0  0
    7.5882   -0.2245   24.3411 H   0  0  0  0  0  0  0  0  0  0  0  0
    8.6761   -2.2152   25.5295 C   0  0  0  0  0  0  0  0  0  0  0  0
    7.5950   -2.0350   25.5474 H   0  0  0  0  0  0  0  0  0  0  0  0
    9.1836   -1.3005   25.8737 H   0  0  0  0  0  0  0  0  0  0  0  0
    8.9718   -3.3442   26.5059 C   0  0  0  0  0  0  0  0  0  0  0  0
    8.2874   -3.2691   27.3573 H   0  0  0  0  0  0  0  0  0  0  0  0
    9.9778   -3.2124   26.9021 H   0  0  0  0  0  0  0  0  0  0  0  0
  1  2  1  0
  2  3  1  0
  3  4  1  0
  3  5  1  0
  3  6  1  0
  6  7  1  0
  6  8  1  0
  8  9  1  0
  8 10  1  0
  8 11  1  0
 11 12  1  0
 11 13  1  0
 11 14  1  0
 14 15  1  0
 15 16  2  0
 16 17  1  0
 17 18  1  0
 17 19  2  0
 19 20  1  0
 20 21  2  0
 21 22  1  0
 21 23  1  0
 23 24  2  0
 24 25  1  0
 24 26  1  0
 26 27  1  0
 26 28  2  0
 28 29  1  0
 19 30  1  0
 30 31  2  0
 31 32  1  0
 14 33  1  0
 33 34  1  0
 33 35  1  0
 33 36  1  0
 36 37  1  0
 36 38  1  0
 36  6  1  0
 31 15  1  0
 28 20  1  0
M  END
>  <cnnaffinity>  (1) 
-5.21009

>  <filename>  (1) 
OCC1CCN(c2cnc(-c3cccnc3)cn2)CC1

$$$$
