
     RDKit          3D

 38 40  0  0  0  0  0  0  0  0999 V2000
    4.7151   -5.3835   27.5303 H   0  0  0  0  0  0  0  0  0  0  0  0
    5.2963   -4.6177   27.5942 O   0  0  0  0  0  0  0  0  0  0  0  0
    6.3428   -4.7957   26.6536 C   0  0  0  0  0  0  0  0  0  0  0  0
    5.9361   -4.9001   25.6350 H   0  0  0  0  0  0  0  0  0  0  0  0
    6.9178   -5.7108   26.8711 H   0  0  0  0  0  0  0  0  0  0  0  0
    7.2885   -3.5912   26.7180 C   0  0  0  0  0  0  0  0  0  0  0  0
    7.6195   -3.5188   27.7589 H   0  0  0  0  0  0  0  0  0  0  0  0
    8.5340   -3.7961   25.8354 C   0  0  0  0  0  0  0  0  0  0  0  0
    9.2836   -3.0341   26.0783 H   0  0  0  0  0  0  0  0  0  0  0  0
    8.9971   -4.7651   26.0487 H   0  0  0  0  0  0  0  0  0  0  0  0
    8.2129   -3.6988   24.3431 C   0  0  0  0  0  0  0  0  0  0  0  0
    9.1376   -3.7317   23.7610 H   0  0  0  0  0  0  0  0  0  0  0  0
    7.6305   -4.5752   24.0146 H   0  0  0  0  0  0  0  0  0  0  0  0
    7.5126   -2.4544   24.0356 N   0  0  0  0  0  0  0  0  0  0  0  0
    7.7821   -1.8269   22.8398 C   0  0  0  0  0  0  0  0  0  0  0  0
    8.9956   -1.6387   22.2157 C   0  0  0  0  0  0  0  0  0  0  0  0
    9.9463   -1.9441   22.6227 H   0  0  0  0  0  0  0  0  0  0  0  0
    8.7495   -0.9229   21.0238 C   0  0  0  0  0  0  0  0  0  0  0  0
    9.4772   -0.5620   20.3142 H   0  0  0  0  0  0  0  0  0  0  0  0
    7.3981   -0.6950   20.9311 C   0  0  0  0  0  0  0  0  0  0  0  0
    6.6414    0.0048   19.9018 C   0  0  0  0  0  0  0  0  0  0  0  0
    7.1561    0.0695   18.5934 C   0  0  0  0  0  0  0  0  0  0  0  0
    8.1009   -0.4208   18.3686 H   0  0  0  0  0  0  0  0  0  0  0  0
    6.5560    0.6831   17.5700 N   0  0  0  0  0  0  0  0  0  0  0  0
    5.3921    1.2993   17.8276 C   0  0  0  0  0  0  0  0  0  0  0  0
    4.9167    1.7884   16.9837 H   0  0  0  0  0  0  0  0  0  0  0  0
    4.7947    1.3197   19.0935 C   0  0  0  0  0  0  0  0  0  0  0  0
    3.8654    1.8507   19.2487 H   0  0  0  0  0  0  0  0  0  0  0  0
    5.4182    0.6578   20.1483 C   0  0  0  0  0  0  0  0  0  0  0  0
    4.9923    0.6567   21.1590 H   0  0  0  0  0  0  0  0  0  0  0  0
    6.8151   -1.2387   22.0590 N   0  0  0  0  0  0  0  0  0  0  0  0
    5.8318   -1.2990   22.2519 H   0  0  0  0  0  0  0  0  0  0  0  0
    6.3193   -2.1679   24.8223 C   0  0  0  0  0  0  0  0  0  0  0  0
    5.4895   -2.8455   24.5582 H   0  0  0  0  0  0  0  0  0  0  0  0
    5.9859   -1.1497   24.5954 H   0  0  0  0  0  0  0  0  0  0  0  0
    6.6144   -2.2639   26.3237 C   0  0  0  0  0  0  0  0  0  0  0  0
    5.6826   -2.1340   26.8800 H   0  0  0  0  0  0  0  0  0  0  0  0
    7.2744   -1.4307   26.5921 H   0  0  0  0  0  0  0  0  0  0  0  0
  1  2  1  0
  2  3  1  0
  3  4  1  0
  3  5  1  0
  3  6  1  0
  6  7  1  0
  6  8  1  0
  8  9  1  0
  8 10  1  0
  8 11  1  0
 11 12  1  0
 11 13  1  0
 11 14  1  0
 14 15  1  0
 15 16  2  0
 16 17  1  0
 16 18  1  0
 18 19  1  0
 18 20  2  0
 20 21  1  0
 21 22  2  0
 22 23  1  0
 22 24  1  0
 24 25  2  0
 25 26  1  0
 25 27  1  0
 27 28  1  0
 27 29  2  0
 29 30  1  0
 20 31  1  0
 31 32  1  0
 14 33  1  0
 33 34  1  0
 33 35  1  0
 33 36  1  0
 36 37  1  0
 36 38  1  0
 36  6  1  0
 31 15  1  0
 29 21  1  0
M  END
>  <cnnaffinity>  (1) 
-4.8426

>  <filename>  (1) 
OCC1CCN(c2ccc(-c3cccnc3)[nH]2)CC1

$$$$
