
     RDKit          3D

 37 39  0  0  0  0  0  0  0  0999 V2000
    5.6165   -5.1702   27.8988 H   0  0  0  0  0  0  0  0  0  0  0  0
    6.3126   -4.8056   28.4621 O   0  0  0  0  0  0  0  0  0  0  0  0
    7.4602   -4.5983   27.6600 C   0  0  0  0  0  0  0  0  0  0  0  0
    8.2611   -4.3207   28.3463 H   0  0  0  0  0  0  0  0  0  0  0  0
    7.7747   -5.5293   27.1556 H   0  0  0  0  0  0  0  0  0  0  0  0
    7.2993   -3.4576   26.6384 C   0  0  0  0  0  0  0  0  0  0  0  0
    6.8595   -2.6240   27.2100 H   0  0  0  0  0  0  0  0  0  0  0  0
    8.6682   -2.9810   26.0615 C   0  0  0  0  0  0  0  0  0  0  0  0
    9.4975   -3.4910   26.5659 H   0  0  0  0  0  0  0  0  0  0  0  0
    8.7871   -1.9169   26.2808 H   0  0  0  0  0  0  0  0  0  0  0  0
    8.8475   -3.1387   24.5394 C   0  0  0  0  0  0  0  0  0  0  0  0
    8.9626   -4.2024   24.2762 H   0  0  0  0  0  0  0  0  0  0  0  0
    9.7571   -2.6236   24.2102 H   0  0  0  0  0  0  0  0  0  0  0  0
    7.7050   -2.5755   23.8302 N   0  0  0  0  0  0  0  0  0  0  0  0
    7.8466   -1.8596   22.6686 C   0  0  0  0  0  0  0  0  0  0  0  0
    9.0705   -1.4830   22.1676 N   0  0  0  0  0  0  0  0  0  0  0  0
    8.7975   -0.7920   21.0914 C   0  0  0  0  0  0  0  0  0  0  0  0
    9.5231   -0.3173   20.4427 H   0  0  0  0  0  0  0  0  0  0  0  0
    7.4550   -0.6963   20.8337 N   0  0  0  0  0  0  0  0  0  0  0  0
    6.7625    0.0018   19.8057 C   0  0  0  0  0  0  0  0  0  0  0  0
    7.2122   -0.0004   18.4738 C   0  0  0  0  0  0  0  0  0  0  0  0
    8.1112   -0.5490   18.1855 H   0  0  0  0  0  0  0  0  0  0  0  0
    6.5740    0.6360   17.4842 N   0  0  0  0  0  0  0  0  0  0  0  0
    5.4449    1.2991   17.7789 C   0  0  0  0  0  0  0  0  0  0  0  0
    4.9580    1.8057   16.9485 H   0  0  0  0  0  0  0  0  0  0  0  0
    4.9051    1.3414   19.0672 C   0  0  0  0  0  0  0  0  0  0  0  0
    3.9796    1.8773   19.2437 H   0  0  0  0  0  0  0  0  0  0  0  0
    5.5722    0.6833   20.1013 C   0  0  0  0  0  0  0  0  0  0  0  0
    5.1903    0.7136   21.1236 H   0  0  0  0  0  0  0  0  0  0  0  0
    6.8506   -1.4014   21.8558 C   0  0  0  0  0  0  0  0  0  0  0  0
    5.7884   -1.5257   21.9388 H   0  0  0  0  0  0  0  0  0  0  0  0
    6.3530   -2.8642   24.3126 C   0  0  0  0  0  0  0  0  0  0  0  0
    5.8539   -1.9229   24.5965 H   0  0  0  0  0  0  0  0  0  0  0  0
    5.7559   -3.3018   23.4963 H   0  0  0  0  0  0  0  0  0  0  0  0
    6.3436   -3.8436   25.4933 C   0  0  0  0  0  0  0  0  0  0  0  0
    5.3143   -3.9193   25.8576 H   0  0  0  0  0  0  0  0  0  0  0  0
    6.6192   -4.8368   25.1095 H   0  0  0  0  0  0  0  0  0  0  0  0
  1  2  1  0
  2  3  1  0
  3  4  1  0
  3  5  1  0
  3  6  1  0
  6  7  1  0
  6  8  1  0
  8  9  1  0
  8 10  1  0
  8 11  1  0
 11 12  1  0
 11 13  1  0
 11 14  1  0
 14 15  1  0
 15 16  1  0
 16 17  2  0
 17 18  1  0
 17 19  1  0
 19 20  1  0
 20 21  2  0
 21 22  1  0
 21 23  1  0
 23 24  2  0
 24 25  1  0
 24 26  1  0
 26 27  1  0
 26 28  2  0
 28 29  1  0
 19 30  1  0
 30 31  1  0
 14 32  1  0
 32 33  1  0
 32 34  1  0
 32 35  1  0
 35 36  1  0
 35 37  1  0
 35  6  1  0
 30 15  2  0
 28 20  1  0
M  END
>  <cnnaffinity>  (1) 
-4.92883

>  <filename>  (1) 
OCC1CCN(c2cn(-c3cccnc3)cn2)CC1

$$$$
