
     RDKit          3D

 43 45  0  0  0  0  0  0  0  0999 V2000
    8.2914   -6.3848   27.8305 H   0  0  0  0  0  0  0  0  0  0  0  0
    7.5365   -6.3028   27.2300 O   0  0  0  0  0  0  0  0  0  0  0  0
    7.1958   -4.9352   27.1158 C   0  0  0  0  0  0  0  0  0  0  0  0
    6.9664   -4.4871   28.0970 H   0  0  0  0  0  0  0  0  0  0  0  0
    6.2697   -4.9107   26.5261 H   0  0  0  0  0  0  0  0  0  0  0  0
    8.2584   -4.0957   26.4053 C   0  0  0  0  0  0  0  0  0  0  0  0
    9.2012   -4.2082   26.9730 H   0  0  0  0  0  0  0  0  0  0  0  0
    8.5284   -4.5789   24.9644 C   0  0  0  0  0  0  0  0  0  0  0  0
    7.5904   -4.5656   24.3902 H   0  0  0  0  0  0  0  0  0  0  0  0
    8.8586   -5.6233   24.9649 H   0  0  0  0  0  0  0  0  0  0  0  0
    9.5811   -3.6872   24.2721 C   0  0  0  0  0  0  0  0  0  0  0  0
   10.5649   -3.8454   24.7310 H   0  0  0  0  0  0  0  0  0  0  0  0
    9.6738   -3.9558   23.2137 H   0  0  0  0  0  0  0  0  0  0  0  0
    9.3086   -2.2454   24.3515 N   0  0  0  0  0  0  0  0  0  0  0  0
    8.6161   -1.6357   23.2928 N   0  0  0  0  0  0  0  0  0  0  0  0
    7.4133   -2.3454   22.8306 C   0  0  0  0  0  0  0  0  0  0  0  0
    7.6643   -3.3583   22.4595 H   0  0  0  0  0  0  0  0  0  0  0  0
    6.7181   -2.4925   23.6658 H   0  0  0  0  0  0  0  0  0  0  0  0
    6.7345   -1.5719   21.7405 C   0  0  0  0  0  0  0  0  0  0  0  0
    5.6931   -1.8121   21.5575 H   0  0  0  0  0  0  0  0  0  0  0  0
    7.3747   -0.6793   20.9755 C   0  0  0  0  0  0  0  0  0  0  0  0
    6.6624    0.0325   19.8944 C   0  0  0  0  0  0  0  0  0  0  0  0
    7.1675    0.0812   18.5863 C   0  0  0  0  0  0  0  0  0  0  0  0
    8.1126   -0.4141   18.3557 H   0  0  0  0  0  0  0  0  0  0  0  0
    6.5551    0.6793   17.5579 N   0  0  0  0  0  0  0  0  0  0  0  0
    5.3927    1.3021   17.8166 C   0  0  0  0  0  0  0  0  0  0  0  0
    4.9260    1.8011   16.9702 H   0  0  0  0  0  0  0  0  0  0  0  0
    4.8009    1.3208   19.0836 C   0  0  0  0  0  0  0  0  0  0  0  0
    3.8691    1.8468   19.2333 H   0  0  0  0  0  0  0  0  0  0  0  0
    5.4303    0.6630   20.1346 C   0  0  0  0  0  0  0  0  0  0  0  0
    5.0165    0.6317   21.1462 H   0  0  0  0  0  0  0  0  0  0  0  0
    8.8146   -0.2887   21.2590 C   0  0  0  0  0  0  0  0  0  0  0  0
    8.8144    0.7065   21.7227 H   0  0  0  0  0  0  0  0  0  0  0  0
    9.3727   -0.1816   20.3242 H   0  0  0  0  0  0  0  0  0  0  0  0
    9.5102   -1.2920   22.1865 C   0  0  0  0  0  0  0  0  0  0  0  0
    9.8094   -2.1986   21.6191 H   0  0  0  0  0  0  0  0  0  0  0  0
   10.4222   -0.8657   22.6187 H   0  0  0  0  0  0  0  0  0  0  0  0
    8.9240   -1.7470   25.6728 C   0  0  0  0  0  0  0  0  0  0  0  0
    9.8032   -1.7137   26.3170 H   0  0  0  0  0  0  0  0  0  0  0  0
    8.6089   -0.7089   25.5366 H   0  0  0  0  0  0  0  0  0  0  0  0
    7.8640   -2.6006   26.3923 C   0  0  0  0  0  0  0  0  0  0  0  0
    7.7450   -2.2271   27.4169 H   0  0  0  0  0  0  0  0  0  0  0  0
    6.8960   -2.4629   25.8876 H   0  0  0  0  0  0  0  0  0  0  0  0
  1  2  1  0
  2  3  1  0
  3  4  1  0
  3  5  1  0
  3  6  1  0
  6  7  1  0
  6  8  1  0
  8  9  1  0
  8 10  1  0
  8 11  1  0
 11 12  1  0
 11 13  1  0
 11 14  1  0
 14 15  1  0
 15 16  1  0
 16 17  1  0
 16 18  1  0
 16 19  1  0
 19 20  1  0
 19 21  2  0
 21 22  1  0
 22 23  2  0
 23 24  1  0
 23 25  1  0
 25 26  2  0
 26 27  1  0
 26 28  1  0
 28 29  1  0
 28 30  2  0
 30 31  1  0
 21 32  1  0
 32 33  1  0
 32 34  1  0
 32 35  1  0
 35 36  1  0
 35 37  1  0
 14 38  1  0
 38 39  1  0
 38 40  1  0
 38 41  1  0
 41 42  1  0
 41 43  1  0
 41  6  1  0
 35 15  1  0
 30 22  1  0
M  END
>  <cnnaffinity>  (1) 
-5.17326

>  <filename>  (1) 
OCC1CCN(N2CC=C(c3cccnc3)CC2)CC1

$$$$
