
     RDKit          3D

 31 33  0  0  0  0  0  0  0  0999 V2000
    7.5973    1.3775   27.2488 H   0  0  0  0  0  0  0  0  0  0  0  0
    7.0078    2.1354   27.3496 O   0  0  0  0  0  0  0  0  0  0  0  0
    5.9345    1.9479   26.4381 C   0  0  0  0  0  0  0  0  0  0  0  0
    5.4140    0.9962   26.6341 H   0  0  0  0  0  0  0  0  0  0  0  0
    5.2324    2.7555   26.6568 H   0  0  0  0  0  0  0  0  0  0  0  0
    6.3622    2.0098   24.9831 C   0  0  0  0  0  0  0  0  0  0  0  0
    6.4699    3.2444   24.3158 C   0  0  0  0  0  0  0  0  0  0  0  0
    6.2223    4.1604   24.8490 H   0  0  0  0  0  0  0  0  0  0  0  0
    6.9316    3.3058   22.9959 C   0  0  0  0  0  0  0  0  0  0  0  0
    7.0105    4.2638   22.4839 H   0  0  0  0  0  0  0  0  0  0  0  0
    7.2914    2.1310   22.3321 C   0  0  0  0  0  0  0  0  0  0  0  0
    7.6127    2.1724   21.2941 H   0  0  0  0  0  0  0  0  0  0  0  0
    7.1969    0.8839   22.9843 C   0  0  0  0  0  0  0  0  0  0  0  0
    7.5171   -0.3440   22.2616 C   0  0  0  0  0  0  0  0  0  0  0  0
    8.1284   -1.3932   22.8871 O   0  0  0  0  0  0  0  0  0  0  0  0
    8.3642   -2.2854   21.9107 C   0  0  0  0  0  0  0  0  0  0  0  0
    8.8671   -3.1983   22.2134 H   0  0  0  0  0  0  0  0  0  0  0  0
    7.9568   -1.9337   20.7388 N   0  0  0  0  0  0  0  0  0  0  0  0
    7.3637   -0.7020   20.9412 C   0  0  0  0  0  0  0  0  0  0  0  0
    6.6377   -0.0070   19.8842 C   0  0  0  0  0  0  0  0  0  0  0  0
    7.1613    0.0349   18.5816 C   0  0  0  0  0  0  0  0  0  0  0  0
    8.1141   -0.4385   18.3619 H   0  0  0  0  0  0  0  0  0  0  0  0
    6.5646    0.6710   17.5750 N   0  0  0  0  0  0  0  0  0  0  0  0
    5.4050    1.2931   17.8298 C   0  0  0  0  0  0  0  0  0  0  0  0
    4.9342    1.7912   16.9877 H   0  0  0  0  0  0  0  0  0  0  0  0
    4.7999    1.3070   19.0910 C   0  0  0  0  0  0  0  0  0  0  0  0
    3.8730    1.8434   19.2439 H   0  0  0  0  0  0  0  0  0  0  0  0
    5.4187    0.6427   20.1440 C   0  0  0  0  0  0  0  0  0  0  0  0
    5.0067    0.6458   21.1559 H   0  0  0  0  0  0  0  0  0  0  0  0
    6.7234    0.8399   24.3055 C   0  0  0  0  0  0  0  0  0  0  0  0
    6.6497   -0.1306   24.7945 H   0  0  0  0  0  0  0  0  0  0  0  0
  1  2  1  0
  2  3  1  0
  3  4  1  0
  3  5  1  0
  3  6  1  0
  6  7  2  0
  7  8  1  0
  7  9  1  0
  9 10  1  0
  9 11  2  0
 11 12  1  0
 11 13  1  0
 13 14  1  0
 14 15  1  0
 15 16  1  0
 16 17  1  0
 16 18  2  0
 18 19  1  0
 19 20  1  0
 20 21  2  0
 21 22  1  0
 21 23  1  0
 23 24  2  0
 24 25  1  0
 24 26  1  0
 26 27  1  0
 26 28  2  0
 28 29  1  0
 13 30  2  0
 30 31  1  0
 30  6  1  0
 19 14  2  0
 28 20  1  0
M  END
>  <cnnaffinity>  (1) 
-4.75794

>  <filename>  (1) 
OCc1cccc(-c2ocnc2-c2cccnc2)c1

$$$$
