
     RDKit          3D

 39 41  0  0  0  0  0  0  0  0999 V2000
   10.3827   -5.8642   28.2321 H   0  0  0  0  0  0  0  0  0  0  0  0
   10.3190   -5.2663   27.4747 O   0  0  0  0  0  0  0  0  0  0  0  0
    9.8075   -6.0096   26.3761 C   0  0  0  0  0  0  0  0  0  0  0  0
    8.9203   -6.5926   26.6674 H   0  0  0  0  0  0  0  0  0  0  0  0
   10.5574   -6.7189   25.9971 H   0  0  0  0  0  0  0  0  0  0  0  0
    9.4273   -5.0595   25.2450 C   0  0  0  0  0  0  0  0  0  0  0  0
    9.0397   -5.7075   24.4424 H   0  0  0  0  0  0  0  0  0  0  0  0
    8.2841   -4.0852   25.6502 C   0  0  0  0  0  0  0  0  0  0  0  0
    7.3739   -4.3801   25.1246 H   0  0  0  0  0  0  0  0  0  0  0  0
    8.0639   -4.1639   26.7199 H   0  0  0  0  0  0  0  0  0  0  0  0
    8.5612   -2.6133   25.3118 C   0  0  0  0  0  0  0  0  0  0  0  0
    9.2706   -2.1922   26.0386 H   0  0  0  0  0  0  0  0  0  0  0  0
    7.6468   -2.0170   25.4087 H   0  0  0  0  0  0  0  0  0  0  0  0
    9.1320   -2.4657   23.9835 N   0  0  0  0  0  0  0  0  0  0  0  0
    8.4528   -1.8851   22.9310 C   0  0  0  0  0  0  0  0  0  0  0  0
    9.2047   -1.1894   22.0614 N   0  0  0  0  0  0  0  0  0  0  0  0
    8.5781   -0.5693   21.0651 C   0  0  0  0  0  0  0  0  0  0  0  0
    9.2017    0.0499   20.4171 H   0  0  0  0  0  0  0  0  0  0  0  0
    7.2009   -0.6592   20.8079 C   0  0  0  0  0  0  0  0  0  0  0  0
    6.5490    0.0761   19.6942 C   0  0  0  0  0  0  0  0  0  0  0  0
    7.0730    0.1101   18.3848 C   0  0  0  0  0  0  0  0  0  0  0  0
    7.9985   -0.4227   18.1568 H   0  0  0  0  0  0  0  0  0  0  0  0
    6.5014    0.7582   17.3612 N   0  0  0  0  0  0  0  0  0  0  0  0
    5.3640    1.4271   17.6149 C   0  0  0  0  0  0  0  0  0  0  0  0
    4.9237    1.9497   16.7697 H   0  0  0  0  0  0  0  0  0  0  0  0
    4.7515    1.4632   18.8713 C   0  0  0  0  0  0  0  0  0  0  0  0
    3.8276    2.0155   19.0103 H   0  0  0  0  0  0  0  0  0  0  0  0
    5.3524    0.7750   19.9242 C   0  0  0  0  0  0  0  0  0  0  0  0
    4.9306    0.7988   20.9296 H   0  0  0  0  0  0  0  0  0  0  0  0
    6.4418   -1.4649   21.6769 C   0  0  0  0  0  0  0  0  0  0  0  0
    5.3786   -1.6027   21.4800 H   0  0  0  0  0  0  0  0  0  0  0  0
    7.0660   -2.0671   22.7608 C   0  0  0  0  0  0  0  0  0  0  0  0
    6.5296   -2.6722   23.4769 H   0  0  0  0  0  0  0  0  0  0  0  0
   10.3074   -3.2710   23.6394 C   0  0  0  0  0  0  0  0  0  0  0  0
   11.1558   -2.6099   23.4217 H   0  0  0  0  0  0  0  0  0  0  0  0
   10.0845   -3.7873   22.7005 H   0  0  0  0  0  0  0  0  0  0  0  0
   10.6685   -4.3202   24.7021 C   0  0  0  0  0  0  0  0  0  0  0  0
   11.3631   -5.0501   24.2763 H   0  0  0  0  0  0  0  0  0  0  0  0
   11.2259   -3.8775   25.5279 H   0  0  0  0  0  0  0  0  0  0  0  0
  1  2  1  0
  2  3  1  0
  3  4  1  0
  3  5  1  0
  3  6  1  0
  6  7  1  0
  6  8  1  0
  8  9  1  0
  8 10  1  0
  8 11  1  0
 11 12  1  0
 11 13  1  0
 11 14  1  0
 14 15  1  0
 15 16  2  0
 16 17  1  0
 17 18  1  0
 17 19  2  0
 19 20  1  0
 20 21  2  0
 21 22  1  0
 21 23  1  0
 23 24  2  0
 24 25  1  0
 24 26  1  0
 26 27  1  0
 26 28  2  0
 28 29  1  0
 19 30  1  0
 30 31  1  0
 30 32  2  0
 32 33  1  0
 14 34  1  0
 34 35  1  0
 34 36  1  0
 34 37  1  0
 37 38  1  0
 37 39  1  0
 37  6  1  0
 32 15  1  0
 28 20  1  0
M  END
>  <cnnaffinity>  (1) 
-5.11565

>  <filename>  (1) 
OCC1CCN(c2ccc(-c3cccnc3)cn2)CC1

$$$$
