
     RDKit          3D

 31 33  0  0  0  0  0  0  0  0999 V2000
    8.4236    5.3428   23.4188 H   0  0  0  0  0  0  0  0  0  0  0  0
    8.2555    5.1934   22.4803 O   0  0  0  0  0  0  0  0  0  0  0  0
    6.9556    4.6271   22.3677 C   0  0  0  0  0  0  0  0  0  0  0  0
    6.1935    5.3210   22.7592 H   0  0  0  0  0  0  0  0  0  0  0  0
    6.7839    4.5365   21.2878 H   0  0  0  0  0  0  0  0  0  0  0  0
    6.8273    3.2736   23.0523 C   0  0  0  0  0  0  0  0  0  0  0  0
    6.3412    3.1665   24.3670 C   0  0  0  0  0  0  0  0  0  0  0  0
    6.0436    4.0667   24.9007 H   0  0  0  0  0  0  0  0  0  0  0  0
    6.2581    1.9219   25.0067 C   0  0  0  0  0  0  0  0  0  0  0  0
    5.9040    1.8581   26.0324 H   0  0  0  0  0  0  0  0  0  0  0  0
    6.6526    0.7626   24.3416 C   0  0  0  0  0  0  0  0  0  0  0  0
    6.5860   -0.2154   24.8146 H   0  0  0  0  0  0  0  0  0  0  0  0
    7.1381    0.8405   23.0254 C   0  0  0  0  0  0  0  0  0  0  0  0
    7.5315   -0.3824   22.3114 C   0  0  0  0  0  0  0  0  0  0  0  0
    8.2107   -1.4431   22.9104 N   0  0  0  0  0  0  0  0  0  0  0  0
    8.4684   -2.2393   21.9360 C   0  0  0  0  0  0  0  0  0  0  0  0
    8.9985   -3.1894   21.9532 H   0  0  0  0  0  0  0  0  0  0  0  0
    8.0116   -1.8426   20.7330 O   0  0  0  0  0  0  0  0  0  0  0  0
    7.3702   -0.6633   20.9732 C   0  0  0  0  0  0  0  0  0  0  0  0
    6.6447   -0.0197   19.8830 C   0  0  0  0  0  0  0  0  0  0  0  0
    7.1607    0.0258   18.5738 C   0  0  0  0  0  0  0  0  0  0  0  0
    8.1158   -0.4375   18.3355 H   0  0  0  0  0  0  0  0  0  0  0  0
    6.5588    0.6660   17.5663 N   0  0  0  0  0  0  0  0  0  0  0  0
    5.4002    1.2917   17.8228 C   0  0  0  0  0  0  0  0  0  0  0  0
    4.9354    1.8053   16.9816 H   0  0  0  0  0  0  0  0  0  0  0  0
    4.7995    1.3007   19.0833 C   0  0  0  0  0  0  0  0  0  0  0  0
    3.8766    1.8396   19.2357 H   0  0  0  0  0  0  0  0  0  0  0  0
    5.4276    0.6310   20.1307 C   0  0  0  0  0  0  0  0  0  0  0  0
    5.0147    0.6451   21.1410 H   0  0  0  0  0  0  0  0  0  0  0  0
    7.2239    2.0993   22.3980 C   0  0  0  0  0  0  0  0  0  0  0  0
    7.5938    2.1643   21.3759 H   0  0  0  0  0  0  0  0  0  0  0  0
  1  2  1  0
  2  3  1  0
  3  4  1  0
  3  5  1  0
  3  6  1  0
  6  7  2  0
  7  8  1  0
  7  9  1  0
  9 10  1  0
  9 11  2  0
 11 12  1  0
 11 13  1  0
 13 14  1  0
 14 15  1  0
 15 16  2  0
 16 17  1  0
 16 18  1  0
 18 19  1  0
 19 20  1  0
 20 21  2  0
 21 22  1  0
 21 23  1  0
 23 24  2  0
 24 25  1  0
 24 26  1  0
 26 27  1  0
 26 28  2  0
 28 29  1  0
 13 30  2  0
 30 31  1  0
 30  6  1  0
 19 14  2  0
 28 20  1  0
M  END
>  <cnnaffinity>  (1) 
-4.68492

>  <filename>  (1) 
OCc1cccc(-c2ncoc2-c2cccnc2)c1

$$$$
