
     RDKit          3D

 22 23  0  0  0  0  0  0  0  0999 V2000
    9.2818    1.6833   21.6027 H   0  0  0  0  0  0  0  0  0  0  0  0
    9.4768    1.4182   20.6985 O   0  0  0  0  0  0  0  0  0  0  0  0
    9.7659    0.0373   20.7445 C   0  0  0  0  0  0  0  0  0  0  0  0
    9.8868   -0.2902   19.7057 H   0  0  0  0  0  0  0  0  0  0  0  0
   10.7292   -0.1307   21.2493 H   0  0  0  0  0  0  0  0  0  0  0  0
    8.6720   -0.7473   21.3950 C   0  0  0  0  0  0  0  0  0  0  0  0
    8.7386   -1.6077   22.5149 C   0  0  0  0  0  0  0  0  0  0  0  0
    9.6087   -1.9015   23.0908 H   0  0  0  0  0  0  0  0  0  0  0  0
    7.5551   -2.1020   22.8425 N   0  0  0  0  0  0  0  0  0  0  0  0
    6.7200   -1.5534   21.9443 N   0  0  0  0  0  0  0  0  0  0  0  0
    5.7318   -1.7492   22.0214 H   0  0  0  0  0  0  0  0  0  0  0  0
    7.3251   -0.7357   21.0391 C   0  0  0  0  0  0  0  0  0  0  0  0
    6.6235   -0.0160   19.9410 C   0  0  0  0  0  0  0  0  0  0  0  0
    7.1603    0.0458   18.6357 C   0  0  0  0  0  0  0  0  0  0  0  0
    8.1107   -0.4362   18.3990 H   0  0  0  0  0  0  0  0  0  0  0  0
    6.5770    0.6624   17.5938 N   0  0  0  0  0  0  0  0  0  0  0  0
    5.4154    1.2922   17.8254 C   0  0  0  0  0  0  0  0  0  0  0  0
    4.9580    1.8030   16.9811 H   0  0  0  0  0  0  0  0  0  0  0  0
    4.7922    1.3177   19.0759 C   0  0  0  0  0  0  0  0  0  0  0  0
    3.8579    1.8561   19.2016 H   0  0  0  0  0  0  0  0  0  0  0  0
    5.4012    0.6560   20.1428 C   0  0  0  0  0  0  0  0  0  0  0  0
    4.9445    0.6876   21.1316 H   0  0  0  0  0  0  0  0  0  0  0  0
  1  2  1  0
  2  3  1  0
  3  4  1  0
  3  5  1  0
  3  6  1  0
  6  7  1  0
  7  8  1  0
  7  9  2  0
  9 10  1  0
 10 11  1  0
 10 12  1  0
 12 13  1  0
 13 14  2  0
 14 15  1  0
 14 16  1  0
 16 17  2  0
 17 18  1  0
 17 19  1  0
 19 20  1  0
 19 21  2  0
 21 22  1  0
 12  6  2  0
 21 13  1  0
M  END
>  <cnnaffinity>  (1) 
-4.17488

>  <filename>  (1) 
OCc1cn[nH]c1-c1cccnc1

$$$$
