
     RDKit          3D

 35 37  0  0  0  0  0  0  0  0999 V2000
    8.3047   -5.1895   28.0009 H   0  0  0  0  0  0  0  0  0  0  0  0
    7.6246   -4.7474   28.5201 O   0  0  0  0  0  0  0  0  0  0  0  0
    6.7528   -4.0950   27.6200 C   0  0  0  0  0  0  0  0  0  0  0  0
    5.9349   -3.7125   28.2345 H   0  0  0  0  0  0  0  0  0  0  0  0
    6.3396   -4.8164   26.8951 H   0  0  0  0  0  0  0  0  0  0  0  0
    7.3636   -2.9365   26.8157 C   0  0  0  0  0  0  0  0  0  0  0  0
    7.8210   -2.2280   27.5218 H   0  0  0  0  0  0  0  0  0  0  0  0
    6.2382   -2.2265   26.0249 C   0  0  0  0  0  0  0  0  0  0  0  0
    5.6624   -2.9943   25.4852 H   0  0  0  0  0  0  0  0  0  0  0  0
    5.5518   -1.7194   26.7193 H   0  0  0  0  0  0  0  0  0  0  0  0
    6.7423   -1.2065   24.9960 C   0  0  0  0  0  0  0  0  0  0  0  0
    7.1580   -0.3131   25.4917 H   0  0  0  0  0  0  0  0  0  0  0  0
    5.9145   -0.8544   24.3738 H   0  0  0  0  0  0  0  0  0  0  0  0
    7.7595   -1.8322   24.1463 N   0  0  0  0  0  0  0  0  0  0  0  0
    7.9047   -1.5379   22.8319 C   0  0  0  0  0  0  0  0  0  0  0  0
    8.8707   -1.8858   22.0358 N   0  0  0  0  0  0  0  0  0  0  0  0
    8.5458   -1.3417   20.7935 N   0  0  0  0  0  0  0  0  0  0  0  0
    7.4254   -0.7238   20.9436 C   0  0  0  0  0  0  0  0  0  0  0  0
    6.6451   -0.0006   19.9430 C   0  0  0  0  0  0  0  0  0  0  0  0
    7.1693    0.0392   18.6413 C   0  0  0  0  0  0  0  0  0  0  0  0
    8.1178   -0.4428   18.4198 H   0  0  0  0  0  0  0  0  0  0  0  0
    6.5728    0.6513   17.6182 N   0  0  0  0  0  0  0  0  0  0  0  0
    5.4145    1.2783   17.8611 C   0  0  0  0  0  0  0  0  0  0  0  0
    4.9643    1.7853   17.0088 H   0  0  0  0  0  0  0  0  0  0  0  0
    4.8003    1.3040   19.1176 C   0  0  0  0  0  0  0  0  0  0  0  0
    3.8651    1.8441   19.2371 H   0  0  0  0  0  0  0  0  0  0  0  0
    5.4209    0.6552   20.1864 C   0  0  0  0  0  0  0  0  0  0  0  0
    4.9606    0.6708   21.1735 H   0  0  0  0  0  0  0  0  0  0  0  0
    6.9525   -0.8024   22.2186 O   0  0  0  0  0  0  0  0  0  0  0  0
    8.9080   -2.4263   24.8335 C   0  0  0  0  0  0  0  0  0  0  0  0
    9.5482   -2.9066   24.0847 H   0  0  0  0  0  0  0  0  0  0  0  0
    9.5140   -1.6331   25.3059 H   0  0  0  0  0  0  0  0  0  0  0  0
    8.4431   -3.4632   25.8535 C   0  0  0  0  0  0  0  0  0  0  0  0
    8.0243   -4.3220   25.3031 H   0  0  0  0  0  0  0  0  0  0  0  0
    9.3183   -3.8089   26.4240 H   0  0  0  0  0  0  0  0  0  0  0  0
  1  2  1  0
  2  3  1  0
  3  4  1  0
  3  5  1  0
  3  6  1  0
  6  7  1  0
  6  8  1  0
  8  9  1  0
  8 10  1  0
  8 11  1  0
 11 12  1  0
 11 13  1  0
 11 14  1  0
 14 15  1  0
 15 16  2  0
 16 17  1  0
 17 18  2  0
 18 19  1  0
 19 20  2  0
 20 21  1  0
 20 22  1  0
 22 23  2  0
 23 24  1  0
 23 25  1  0
 25 26  1  0
 25 27  2  0
 27 28  1  0
 18 29  1  0
 14 30  1  0
 30 31  1  0
 30 32  1  0
 30 33  1  0
 33 34  1  0
 33 35  1  0
 33  6  1  0
 29 15  1  0
 27 19  1  0
M  END
>  <cnnaffinity>  (1) 
-4.75307

>  <filename>  (1) 
OCC1CCN(c2nnc(-c3cccnc3)o2)CC1

$$$$
