
     RDKit          3D

 41 44  0  0  0  0  0  0  0  0999 V2000
    6.8710    1.5322   28.7586 H   0  0  0  0  0  0  0  0  0  0  0  0
    6.1094    1.9980   28.3875 O   0  0  0  0  0  0  0  0  0  0  0  0
    6.4913    2.5509   27.1387 C   0  0  0  0  0  0  0  0  0  0  0  0
    5.5573    2.8874   26.6757 H   0  0  0  0  0  0  0  0  0  0  0  0
    7.1232    3.4429   27.2900 H   0  0  0  0  0  0  0  0  0  0  0  0
    7.1942    1.5537   26.2007 C   0  0  0  0  0  0  0  0  0  0  0  0
    7.3783    2.1093   25.2708 H   0  0  0  0  0  0  0  0  0  0  0  0
    6.2791    0.3466   25.8771 C   0  0  0  0  0  0  0  0  0  0  0  0
    5.7320    0.5520   24.9493 H   0  0  0  0  0  0  0  0  0  0  0  0
    5.5092    0.2563   26.6526 H   0  0  0  0  0  0  0  0  0  0  0  0
    7.0034   -1.0179   25.8305 C   0  0  0  0  0  0  0  0  0  0  0  0
    7.0006   -1.4284   26.8487 H   0  0  0  0  0  0  0  0  0  0  0  0
    6.4546   -1.7151   25.1880 H   0  0  0  0  0  0  0  0  0  0  0  0
    8.4051   -0.9972   25.3961 N   0  0  0  0  0  0  0  0  0  0  0  0
    8.6592   -1.4019   24.1077 N   0  0  0  0  0  0  0  0  0  0  0  0
    9.7703   -2.1720   23.7998 C   0  0  0  0  0  0  0  0  0  0  0  0
   10.2510   -2.6909   24.6096 H   0  0  0  0  0  0  0  0  0  0  0  0
    9.9568   -2.1625   22.4592 C   0  0  0  0  0  0  0  0  0  0  0  0
   10.6970   -2.5669   21.7903 H   0  0  0  0  0  0  0  0  0  0  0  0
    8.9152   -1.4009   21.9506 N   0  0  0  0  0  0  0  0  0  0  0  0
    8.5085   -1.1226   20.7014 N   0  0  0  0  0  0  0  0  0  0  0  0
    7.3382   -0.4981   20.8966 C   0  0  0  0  0  0  0  0  0  0  0  0
    6.5841    0.0293   19.7434 C   0  0  0  0  0  0  0  0  0  0  0  0
    7.1331   -0.0252   18.4464 C   0  0  0  0  0  0  0  0  0  0  0  0
    8.0517   -0.5748   18.2622 H   0  0  0  0  0  0  0  0  0  0  0  0
    6.5976    0.5818   17.3824 N   0  0  0  0  0  0  0  0  0  0  0  0
    5.4495    1.2505   17.5636 C   0  0  0  0  0  0  0  0  0  0  0  0
    5.0534    1.7697   16.6951 H   0  0  0  0  0  0  0  0  0  0  0  0
    4.7764    1.3016   18.7876 C   0  0  0  0  0  0  0  0  0  0  0  0
    3.8493    1.8576   18.8679 H   0  0  0  0  0  0  0  0  0  0  0  0
    5.3461    0.6760   19.8918 C   0  0  0  0  0  0  0  0  0  0  0  0
    4.8384    0.7059   20.8567 H   0  0  0  0  0  0  0  0  0  0  0  0
    6.9913   -0.3997   22.2677 C   0  0  0  0  0  0  0  0  0  0  0  0
    6.0843   -0.0119   22.6944 H   0  0  0  0  0  0  0  0  0  0  0  0
    8.0820   -0.9762   22.9211 C   0  0  0  0  0  0  0  0  0  0  0  0
    9.2971    0.0743   25.8850 C   0  0  0  0  0  0  0  0  0  0  0  0
    9.7917    0.5574   25.0275 H   0  0  0  0  0  0  0  0  0  0  0  0
   10.1064   -0.3798   26.4817 H   0  0  0  0  0  0  0  0  0  0  0  0
    8.5721    1.1266   26.7400 C   0  0  0  0  0  0  0  0  0  0  0  0
    9.2069    2.0179   26.7888 H   0  0  0  0  0  0  0  0  0  0  0  0
    8.4861    0.7266   27.7613 H   0  0  0  0  0  0  0  0  0  0  0  0
  1  2  1  0
  2  3  1  0
  3  4  1  0
  3  5  1  0
  3  6  1  0
  6  7  1  0
  6  8  1  0
  8  9  1  0
  8 10  1  0
  8 11  1  0
 11 12  1  0
 11 13  1  0
 11 14  1  0
 14 15  1  0
 15 16  1  0
 16 17  1  0
 16 18  2  0
 18 19  1  0
 18 20  1  0
 20 21  1  0
 21 22  2  0
 22 23  1  0
 23 24  2  0
 24 25  1  0
 24 26  1  0
 26 27  2  0
 27 28  1  0
 27 29  1  0
 29 30  1  0
 29 31  2  0
 31 32  1  0
 22 33  1  0
 33 34  1  0
 33 35  2  0
 14 36  1  0
 36 37  1  0
 36 38  1  0
 36 39  1  0
 39 40  1  0
 39 41  1  0
 39  6  1  0
 35 15  1  0
 35 20  1  0
 31 23  1  0
M  END
>  <cnnaffinity>  (1) 
-5.19157

>  <filename>  (1) 
OCC1CCN(n2ccn3nc(-c4cccnc4)cc23)CC1

$$$$
