
     RDKit          3D

 39 41  0  0  0  0  0  0  0  0999 V2000
    9.2106    2.0436   26.2796 H   0  0  0  0  0  0  0  0  0  0  0  0
    9.6188    2.7222   25.7306 O   0  0  0  0  0  0  0  0  0  0  0  0
    8.6154    3.6446   25.3516 C   0  0  0  0  0  0  0  0  0  0  0  0
    9.1463    4.4811   24.8793 H   0  0  0  0  0  0  0  0  0  0  0  0
    8.1038    4.0416   26.2434 H   0  0  0  0  0  0  0  0  0  0  0  0
    7.5856    3.0476   24.3758 C   0  0  0  0  0  0  0  0  0  0  0  0
    6.7677    3.7844   24.2862 H   0  0  0  0  0  0  0  0  0  0  0  0
    8.1808    2.8346   22.9661 C   0  0  0  0  0  0  0  0  0  0  0  0
    9.1082    2.2521   23.0438 H   0  0  0  0  0  0  0  0  0  0  0  0
    8.4406    3.8007   22.5137 H   0  0  0  0  0  0  0  0  0  0  0  0
    7.2037    2.1185   22.0286 C   0  0  0  0  0  0  0  0  0  0  0  0
    6.3618    2.7833   21.7817 H   0  0  0  0  0  0  0  0  0  0  0  0
    7.6955    1.8851   21.0799 H   0  0  0  0  0  0  0  0  0  0  0  0
    6.6687    0.8984   22.6392 N   0  0  0  0  0  0  0  0  0  0  0  0
    7.1770   -0.3256   22.2985 C   0  0  0  0  0  0  0  0  0  0  0  0
    7.4363   -1.2648   23.1345 N   0  0  0  0  0  0  0  0  0  0  0  0
    7.9623   -2.3940   22.3826 C   0  0  0  0  0  0  0  0  0  0  0  0
    8.9807   -2.6366   22.7174 H   0  0  0  0  0  0  0  0  0  0  0  0
    7.3573   -3.2944   22.5599 H   0  0  0  0  0  0  0  0  0  0  0  0
    7.9291   -1.9813   20.8925 C   0  0  0  0  0  0  0  0  0  0  0  0
    7.2485   -2.6163   20.3135 H   0  0  0  0  0  0  0  0  0  0  0  0
    8.9196   -2.0192   20.4237 H   0  0  0  0  0  0  0  0  0  0  0  0
    7.4203   -0.6083   20.9409 N   0  0  0  0  0  0  0  0  0  0  0  0
    6.7168   -0.0361   19.8371 C   0  0  0  0  0  0  0  0  0  0  0  0
    7.2459    0.0298   18.5228 C   0  0  0  0  0  0  0  0  0  0  0  0
    8.2047   -0.4319   18.2921 H   0  0  0  0  0  0  0  0  0  0  0  0
    6.6542    0.6741   17.5023 N   0  0  0  0  0  0  0  0  0  0  0  0
    5.4946    1.3047   17.7454 C   0  0  0  0  0  0  0  0  0  0  0  0
    5.0420    1.8430   16.9162 H   0  0  0  0  0  0  0  0  0  0  0  0
    4.8720    1.2818   18.9960 C   0  0  0  0  0  0  0  0  0  0  0  0
    3.9548    1.8347   19.1612 H   0  0  0  0  0  0  0  0  0  0  0  0
    5.4692    0.5778   20.0387 C   0  0  0  0  0  0  0  0  0  0  0  0
    5.0270    0.5520   21.0315 H   0  0  0  0  0  0  0  0  0  0  0  0
    6.0414    1.0578   23.9452 C   0  0  0  0  0  0  0  0  0  0  0  0
    5.7448    0.0752   24.3220 H   0  0  0  0  0  0  0  0  0  0  0  0
    5.1208    1.6538   23.8430 H   0  0  0  0  0  0  0  0  0  0  0  0
    7.0009    1.7261   24.9260 C   0  0  0  0  0  0  0  0  0  0  0  0
    7.8146    1.0083   25.1140 H   0  0  0  0  0  0  0  0  0  0  0  0
    6.4894    1.9098   25.8796 H   0  0  0  0  0  0  0  0  0  0  0  0
  1  2  1  0
  2  3  1  0
  3  4  1  0
  3  5  1  0
  3  6  1  0
  6  7  1  0
  6  8  1  0
  8  9  1  0
  8 10  1  0
  8 11  1  0
 11 12  1  0
 11 13  1  0
 11 14  1  0
 14 15  1  0
 15 16  2  0
 16 17  1  0
 17 18  1  0
 17 19  1  0
 17 20  1  0
 20 21  1  0
 20 22  1  0
 20 23  1  0
 23 24  1  0
 24 25  2  0
 25 26  1  0
 25 27  1  0
 27 28  2  0
 28 29  1  0
 28 30  1  0
 30 31  1  0
 30 32  2  0
 32 33  1  0
 14 34  1  0
 34 35  1  0
 34 36  1  0
 34 37  1  0
 37 38  1  0
 37 39  1  0
 37  6  1  0
 23 15  1  0
 32 24  1  0
M  END
>  <cnnaffinity>  (1) 
-4.54762

>  <filename>  (1) 
OCC1CCN(C2=NCCN2c2cccnc2)CC1

$$$$
