
     RDKit          3D

 29 30  0  0  0  0  0  0  0  0999 V2000
    9.4576   -1.1279   25.6646 H   0  0  0  0  0  0  0  0  0  0  0  0
    9.1130   -2.0308   25.5878 O   0  0  0  0  0  0  0  0  0  0  0  0
    7.6956   -1.9516   25.5392 C   0  0  0  0  0  0  0  0  0  0  0  0
    7.2848   -1.4320   26.4185 H   0  0  0  0  0  0  0  0  0  0  0  0
    7.3425   -2.9896   25.5904 H   0  0  0  0  0  0  0  0  0  0  0  0
    7.1886   -1.3032   24.2611 C   0  0  0  0  0  0  0  0  0  0  0  0
    7.6783   -0.3374   24.0954 H   0  0  0  0  0  0  0  0  0  0  0  0
    6.1167   -1.0970   24.3638 H   0  0  0  0  0  0  0  0  0  0  0  0
    7.3991   -2.1672   22.9841 C   0  0  1  0  0  0  0  0  0  0  0  0
    6.9758   -3.1693   23.1958 H   0  0  0  0  0  0  0  0  0  0  0  0
    6.6997   -1.5756   21.8105 C   0  0  0  0  0  0  0  0  0  0  0  0
    5.6322   -1.7031   21.7409 H   0  0  0  0  0  0  0  0  0  0  0  0
    7.3504   -0.7827   20.9375 C   0  0  0  0  0  0  0  0  0  0  0  0
    6.6960    0.0234   19.8907 C   0  0  0  0  0  0  0  0  0  0  0  0
    7.2176    0.0886   18.5840 C   0  0  0  0  0  0  0  0  0  0  0  0
    8.1561   -0.4079   18.3365 H   0  0  0  0  0  0  0  0  0  0  0  0
    6.6035    0.7050   17.5662 N   0  0  0  0  0  0  0  0  0  0  0  0
    5.4380    1.3187   17.8178 C   0  0  0  0  0  0  0  0  0  0  0  0
    4.9563    1.8015   16.9696 H   0  0  0  0  0  0  0  0  0  0  0  0
    4.8389    1.3375   19.0829 C   0  0  0  0  0  0  0  0  0  0  0  0
    3.8911    1.8378   19.2208 H   0  0  0  0  0  0  0  0  0  0  0  0
    5.4789    0.6822   20.1372 C   0  0  0  0  0  0  0  0  0  0  0  0
    5.0624    0.6906   21.1439 H   0  0  0  0  0  0  0  0  0  0  0  0
    8.7429   -0.7388   21.0076 N   0  0  0  0  0  0  0  0  0  0  0  0
    9.2741   -0.0389   20.5266 H   0  0  0  0  0  0  0  0  0  0  0  0
    9.4880   -1.4644   21.8748 C   0  0  0  0  0  0  0  0  0  0  0  0
   11.1347   -1.2896   21.9491 S   0  0  0  0  0  0  0  0  0  0  0  0
    8.8264   -2.3273   22.6783 N   0  0  0  0  0  0  0  0  0  0  0  0
    9.4288   -2.5883   23.4499 H   0  0  0  0  0  0  0  0  0  0  0  0
  1  2  1  0
  2  3  1  0
  3  4  1  0
  3  5  1  0
  3  6  1  0
  6  7  1  0
  6  8  1  0
  6  9  1  0
  9 10  1  1
  9 11  1  0
 11 12  1  0
 11 13  2  0
 13 14  1  0
 14 15  2  0
 15 16  1  0
 15 17  1  0
 17 18  2  0
 18 19  1  0
 18 20  1  0
 20 21  1  0
 20 22  2  0
 22 23  1  0
 13 24  1  0
 24 25  1  0
 24 26  1  0
 26 27  2  0
 26 28  1  0
 28 29  1  0
 28  9  1  0
 22 14  1  0
M  END
>  <cnnaffinity>  (1) 
-4.41326

>  <filename>  (1) 
OCC[C@H]1C=C(c2cccnc2)NC(=S)N1

$$$$
