
     RDKit          3D

 27 28  0  0  0  0  0  0  0  0999 V2000
   10.2868    1.7636   23.0390 H   0  0  0  0  0  0  0  0  0  0  0  0
   10.0964    1.5635   22.1133 O   0  0  0  0  0  0  0  0  0  0  0  0
    8.8129    2.0622   21.8100 C   0  0  0  0  0  0  0  0  0  0  0  0
    8.7027    1.9617   20.7219 H   0  0  0  0  0  0  0  0  0  0  0  0
    8.7170    3.1342   22.0483 H   0  0  0  0  0  0  0  0  0  0  0  0
    7.7332    1.2858   22.5572 C   0  0  0  0  0  0  0  0  0  0  0  0
    7.8835    1.3548   23.6384 H   0  0  0  0  0  0  0  0  0  0  0  0
    6.7491    1.6849   22.3070 H   0  0  0  0  0  0  0  0  0  0  0  0
    7.7838   -0.1652   22.2319 C   0  0  0  0  0  0  0  0  0  0  0  0
    8.2984   -1.0375   23.0074 N   0  0  0  0  0  0  0  0  0  0  0  0
    8.2711   -2.3318   22.3197 C   0  0  0  0  0  0  0  0  0  0  0  0
    9.2877   -2.7371   22.2574 H   0  0  0  0  0  0  0  0  0  0  0  0
    7.6704   -3.0534   22.8928 H   0  0  0  0  0  0  0  0  0  0  0  0
    7.7179   -2.0412   20.9110 C   0  0  0  0  0  0  0  0  0  0  0  0
    8.5109   -2.1184   20.1641 H   0  0  0  0  0  0  0  0  0  0  0  0
    6.8701   -2.6715   20.6186 H   0  0  0  0  0  0  0  0  0  0  0  0
    7.3229   -0.6434   21.0075 N   0  0  0  0  0  0  0  0  0  0  0  0
    6.6815    0.0429   19.9408 C   0  0  0  0  0  0  0  0  0  0  0  0
    7.1753    0.0680   18.6058 C   0  0  0  0  0  0  0  0  0  0  0  0
    8.1163   -0.4227   18.3614 H   0  0  0  0  0  0  0  0  0  0  0  0
    6.5584    0.6734   17.5760 N   0  0  0  0  0  0  0  0  0  0  0  0
    5.3978    1.2986   17.8283 C   0  0  0  0  0  0  0  0  0  0  0  0
    4.9287    1.8023   16.9837 H   0  0  0  0  0  0  0  0  0  0  0  0
    4.8033    1.3184   19.0958 C   0  0  0  0  0  0  0  0  0  0  0  0
    3.8648    1.8399   19.2457 H   0  0  0  0  0  0  0  0  0  0  0  0
    5.4525    0.6767   20.1607 C   0  0  0  0  0  0  0  0  0  0  0  0
    5.0244    0.6249   21.1588 H   0  0  0  0  0  0  0  0  0  0  0  0
  1  2  1  0
  2  3  1  0
  3  4  1  0
  3  5  1  0
  3  6  1  0
  6  7  1  0
  6  8  1  0
  6  9  1  0
  9 10  2  0
 10 11  1  0
 11 12  1  0
 11 13  1  0
 11 14  1  0
 14 15  1  0
 14 16  1  0
 14 17  1  0
 17 18  1  0
 18 19  2  0
 19 20  1  0
 19 21  1  0
 21 22  2  0
 22 23  1  0
 22 24  1  0
 24 25  1  0
 24 26  2  0
 26 27  1  0
 17  9  1  0
 26 18  1  0
M  END
>  <cnnaffinity>  (1) 
-4.04057

>  <filename>  (1) 
OCCC1=NCCN1c1cccnc1

$$$$
