
     RDKit          3D

 39 41  0  0  0  0  0  0  0  0999 V2000
    9.5054   -5.7740   24.3611 O   0  0  0  0  0  0  0  0  0  0  0  0
    8.4974   -5.8072   23.3669 C   0  0  0  0  0  0  0  0  0  0  0  0
    7.9238   -4.4275   23.0583 C   0  0  0  0  0  0  0  0  0  0  0  0
    8.9148   -3.4837   22.3630 C   0  0  0  0  0  0  0  0  0  0  0  0
    8.3779   -2.1463   22.0419 C   0  0  0  0  0  0  0  0  0  0  0  0
    8.3509   -1.1118   22.8519 N   0  0  0  0  0  0  0  0  0  0  0  0
    7.6982   -0.1860   22.1156 N   0  0  0  0  0  0  0  0  0  0  0  0
    7.4880    1.1260   22.7003 C   0  0  0  0  0  0  0  0  0  0  0  0
    6.4675    1.1220   23.8156 C   0  0  0  0  0  0  0  0  0  0  0  0
    6.8070    0.5966   25.0719 C   0  0  0  0  0  0  0  0  0  0  0  0
    5.8544    0.5893   26.0887 C   0  0  0  0  0  0  0  0  0  0  0  0
    4.5966    1.1288   25.8131 C   0  0  0  0  0  0  0  0  0  0  0  0
    4.3598    1.6467   24.5379 C   0  0  0  0  0  0  0  0  0  0  0  0
    5.2633    1.6417   23.5465 N   0  0  0  0  0  0  0  0  0  0  0  0
    3.3921    2.0750   24.2910 H   0  0  0  0  0  0  0  0  0  0  0  0
    3.8121    1.1492   26.5594 H   0  0  0  0  0  0  0  0  0  0  0  0
    6.0873    0.1668   27.0674 H   0  0  0  0  0  0  0  0  0  0  0  0
    7.7954    0.1768   25.2030 H   0  0  0  0  0  0  0  0  0  0  0  0
    8.4617    1.4425   23.0818 H   0  0  0  0  0  0  0  0  0  0  0  0
    7.1813    1.8092   21.9119 H   0  0  0  0  0  0  0  0  0  0  0  0
    7.3826   -0.7069   20.9049 C   0  0  0  0  0  0  0  0  0  0  0  0
    6.6372    0.0160   19.8891 C   0  0  0  0  0  0  0  0  0  0  0  0
    5.4255    0.6657   20.1557 C   0  0  0  0  0  0  0  0  0  0  0  0
    4.7962    1.3154   19.0986 C   0  0  0  0  0  0  0  0  0  0  0  0
    5.4018    1.2939   17.8367 C   0  0  0  0  0  0  0  0  0  0  0  0
    6.5657    0.6759   17.5773 N   0  0  0  0  0  0  0  0  0  0  0  0
    7.1613    0.0468   18.5927 C   0  0  0  0  0  0  0  0  0  0  0  0
    8.1122   -0.4412   18.3812 H   0  0  0  0  0  0  0  0  0  0  0  0
    4.9261    1.7841   16.9919 H   0  0  0  0  0  0  0  0  0  0  0  0
    3.8669    1.8484   19.2497 H   0  0  0  0  0  0  0  0  0  0  0  0
    4.9957    0.6572   21.1611 H   0  0  0  0  0  0  0  0  0  0  0  0
    7.8252   -1.9382   20.8187 N   0  0  0  0  0  0  0  0  0  0  0  0
    9.0922   -3.8618   21.3607 H   0  0  0  0  0  0  0  0  0  0  0  0
    9.8385   -3.3800   22.9417 H   0  0  0  0  0  0  0  0  0  0  0  0
    7.5659   -3.9908   23.9994 H   0  0  0  0  0  0  0  0  0  0  0  0
    7.0585   -4.5559   22.3926 H   0  0  0  0  0  0  0  0  0  0  0  0
    8.8542   -6.3016   22.4470 H   0  0  0  0  0  0  0  0  0  0  0  0
    7.7010   -6.4341   23.7699 H   0  0  0  0  0  0  0  0  0  0  0  0
   10.3477   -5.5879   23.9280 H   0  0  0  0  0  0  0  0  0  0  0  0
  1  2  1  0
  2  3  1  0
  3  4  1  0
  4  5  1  0
  5  6  2  0
  6  7  1  0
  7  8  1  0
  8  9  1  0
  9 10  2  0
 10 11  1  0
 11 12  2  0
 12 13  1  0
 13 14  2  0
 13 15  1  0
 12 16  1  0
 11 17  1  0
 10 18  1  0
  8 19  1  0
  8 20  1  0
  7 21  1  0
 21 22  1  0
 22 23  2  0
 23 24  1  0
 24 25  2  0
 25 26  1  0
 26 27  2  0
 27 28  1  0
 25 29  1  0
 24 30  1  0
 23 31  1  0
 21 32  2  0
  4 33  1  0
  4 34  1  0
  3 35  1  0
  3 36  1  0
  2 37  1  0
  2 38  1  0
  1 39  1  0
 32  5  1  0
 14  9  1  0
 27 22  1  0
M  END
>  <cnnaffinity>  (1) 
-5.37323

>  <filename>  (1) 
OCCCc1nc(-c2cccnc2)n(Cc2ccccn2)n1

$$$$
