
     RDKit          3D

 40 42  0  0  0  0  0  0  0  0999 V2000
    5.6974   -5.7220   23.1733 O   0  0  0  0  0  0  0  0  0  0  0  0
    6.4480   -4.8636   22.3403 C   0  0  0  0  0  0  0  0  0  0  0  0
    7.7374   -4.4287   23.0350 C   0  0  0  0  0  0  0  0  0  0  0  0
    8.5989   -3.4707   22.1946 C   0  0  0  0  0  0  0  0  0  0  0  0
    7.9501   -2.1653   21.8932 C   0  0  0  0  0  0  0  0  0  0  0  0
    7.4822   -1.8427   20.7090 N   0  0  0  0  0  0  0  0  0  0  0  0
    7.0069   -0.5828   20.8984 N   0  0  0  0  0  0  0  0  0  0  0  0
    6.4169    0.0937   19.8027 C   0  0  0  0  0  0  0  0  0  0  0  0
    5.2324    0.8279   19.9268 C   0  0  0  0  0  0  0  0  0  0  0  0
    4.7392    1.4643   18.7799 C   0  0  0  0  0  0  0  0  0  0  0  0
    5.4379    1.3381   17.5778 C   0  0  0  0  0  0  0  0  0  0  0  0
    6.5644    0.6150   17.4522 N   0  0  0  0  0  0  0  0  0  0  0  0
    7.0341    0.0016   18.5415 C   0  0  0  0  0  0  0  0  0  0  0  0
    7.9477   -0.5842   18.4377 H   0  0  0  0  0  0  0  0  0  0  0  0
    5.0864    1.8324   16.6728 H   0  0  0  0  0  0  0  0  0  0  0  0
    3.8340    2.0581   18.8168 H   0  0  0  0  0  0  0  0  0  0  0  0
    4.7094    0.8859   20.8821 H   0  0  0  0  0  0  0  0  0  0  0  0
    7.2588   -0.2054   22.1898 C   0  0  0  0  0  0  0  0  0  0  0  0
    7.0369    1.1275   22.8459 C   0  0  0  0  0  0  0  0  0  0  0  0
    8.3596    1.6667   23.3843 C   0  0  0  0  0  0  0  0  0  0  0  0
    8.7777    1.3420   24.6839 C   0  0  0  0  0  0  0  0  0  0  0  0
   10.0939    1.5917   25.0638 C   0  0  0  0  0  0  0  0  0  0  0  0
   10.5049    1.1808   26.2675 F   0  0  0  0  0  0  0  0  0  0  0  0
   11.0218    2.1922   24.2175 C   0  0  0  0  0  0  0  0  0  0  0  0
   10.5835    2.6178   22.9601 C   0  0  0  0  0  0  0  0  0  0  0  0
    9.2747    2.3270   22.5474 C   0  0  0  0  0  0  0  0  0  0  0  0
    8.8184    2.7193   20.9234 Cl  0  0  0  0  0  0  0  0  0  0  0  0
   11.2493    3.1452   22.2852 H   0  0  0  0  0  0  0  0  0  0  0  0
   12.0532    2.2985   24.5490 H   0  0  0  0  0  0  0  0  0  0  0  0
    8.1037    0.8471   25.3810 H   0  0  0  0  0  0  0  0  0  0  0  0
    6.5804    1.8383   22.1528 H   0  0  0  0  0  0  0  0  0  0  0  0
    6.3494    0.9592   23.6820 H   0  0  0  0  0  0  0  0  0  0  0  0
    7.8303   -1.2043   22.8346 N   0  0  0  0  0  0  0  0  0  0  0  0
    9.5284   -3.2391   22.7264 H   0  0  0  0  0  0  0  0  0  0  0  0
    8.8441   -3.9124   21.2282 H   0  0  0  0  0  0  0  0  0  0  0  0
    8.3367   -5.3225   23.2682 H   0  0  0  0  0  0  0  0  0  0  0  0
    7.4770   -3.9574   23.9942 H   0  0  0  0  0  0  0  0  0  0  0  0
    6.6707   -5.3400   21.3661 H   0  0  0  0  0  0  0  0  0  0  0  0
    5.8125   -3.9942   22.1295 H   0  0  0  0  0  0  0  0  0  0  0  0
    6.2886   -6.4322   23.4541 H   0  0  0  0  0  0  0  0  0  0  0  0
  1  2  1  0
  2  3  1  0
  3  4  1  0
  4  5  1  0
  5  6  2  0
  6  7  1  0
  7  8  1  0
  8  9  2  0
  9 10  1  0
 10 11  2  0
 11 12  1  0
 12 13  2  0
 13 14  1  0
 11 15  1  0
 10 16  1  0
  9 17  1  0
  7 18  1  0
 18 19  1  0
 19 20  1  0
 20 21  2  0
 21 22  1  0
 22 23  1  0
 22 24  2  0
 24 25  1  0
 25 26  2  0
 26 27  1  0
 25 28  1  0
 24 29  1  0
 21 30  1  0
 19 31  1  0
 19 32  1  0
 18 33  2  0
  4 34  1  0
  4 35  1  0
  3 36  1  0
  3 37  1  0
  2 38  1  0
  2 39  1  0
  1 40  1  0
 33  5  1  0
 13  8  1  0
 26 20  1  0
M  END
>  <cnnaffinity>  (1) 
-6.43025

>  <filename>  (1) 
OCCCc1nc(Cc2cc(F)ccc2Cl)n(-c2cccnc2)n1

$$$$
