
     RDKit          3D

 39 41  0  0  0  0  0  0  0  0999 V2000
    5.7842   -3.7812   23.7811 O   0  0  0  0  0  0  0  0  0  0  0  0
    6.8950   -4.6432   23.8130 C   0  0  0  0  0  0  0  0  0  0  0  0
    7.6612   -4.6902   22.4902 C   0  0  0  0  0  0  0  0  0  0  0  0
    8.4882   -3.4388   22.1361 C   0  0  0  0  0  0  0  0  0  0  0  0
    7.7806   -2.1319   21.9664 C   0  0  0  0  0  0  0  0  0  0  0  0
    7.3399   -1.7562   20.7903 N   0  0  0  0  0  0  0  0  0  0  0  0
    6.9431   -0.4733   20.9955 N   0  0  0  0  0  0  0  0  0  0  0  0
    6.3866    0.2305   19.8996 C   0  0  0  0  0  0  0  0  0  0  0  0
    5.2114    0.9813   19.9916 C   0  0  0  0  0  0  0  0  0  0  0  0
    4.7154    1.5565   18.8148 C   0  0  0  0  0  0  0  0  0  0  0  0
    5.4160    1.3840   17.6163 C   0  0  0  0  0  0  0  0  0  0  0  0
    6.5477    0.6617   17.5264 N   0  0  0  0  0  0  0  0  0  0  0  0
    7.0118    0.1030   18.6446 C   0  0  0  0  0  0  0  0  0  0  0  0
    7.9409   -0.4582   18.5743 H   0  0  0  0  0  0  0  0  0  0  0  0
    5.0608    1.8384   16.6924 H   0  0  0  0  0  0  0  0  0  0  0  0
    3.7955    2.1301   18.8179 H   0  0  0  0  0  0  0  0  0  0  0  0
    4.6915    1.0968   20.9438 H   0  0  0  0  0  0  0  0  0  0  0  0
    7.2474   -0.1158   22.2792 C   0  0  0  0  0  0  0  0  0  0  0  0
    7.2068    1.2768   22.8513 C   0  0  0  0  0  0  0  0  0  0  0  0
    8.5281    1.7055   23.4995 C   0  0  0  0  0  0  0  0  0  0  0  0
    8.7211    1.6181   24.8816 C   0  0  0  0  0  0  0  0  0  0  0  0
    9.9859    1.8585   25.4289 C   0  0  0  0  0  0  0  0  0  0  0  0
   11.0265    2.2117   24.5762 C   0  0  0  0  0  0  0  0  0  0  0  0
   10.8741    2.3346   23.2546 N   0  0  0  0  0  0  0  0  0  0  0  0
    9.6713    2.0857   22.7612 C   0  0  0  0  0  0  0  0  0  0  0  0
    9.5422    2.2056   21.0466 Cl  0  0  0  0  0  0  0  0  0  0  0  0
   12.0295    2.3992   24.9525 H   0  0  0  0  0  0  0  0  0  0  0  0
   10.1740    1.7408   26.4828 H   0  0  0  0  0  0  0  0  0  0  0  0
    7.8884    1.3514   25.5315 H   0  0  0  0  0  0  0  0  0  0  0  0
    6.4174    1.2830   23.6088 H   0  0  0  0  0  0  0  0  0  0  0  0
    6.9127    1.9867   22.0704 H   0  0  0  0  0  0  0  0  0  0  0  0
    7.7060   -1.1775   22.9314 N   0  0  0  0  0  0  0  0  0  0  0  0
    9.2454   -3.2600   22.9037 H   0  0  0  0  0  0  0  0  0  0  0  0
    8.9929   -3.5963   21.1776 H   0  0  0  0  0  0  0  0  0  0  0  0
    6.9532   -4.9161   21.6828 H   0  0  0  0  0  0  0  0  0  0  0  0
    8.3617   -5.5376   22.5435 H   0  0  0  0  0  0  0  0  0  0  0  0
    6.4954   -5.6444   24.0085 H   0  0  0  0  0  0  0  0  0  0  0  0
    7.5770   -4.4008   24.6475 H   0  0  0  0  0  0  0  0  0  0  0  0
    6.0972   -2.8632   23.8053 H   0  0  0  0  0  0  0  0  0  0  0  0
  1  2  1  0
  2  3  1  0
  3  4  1  0
  4  5  1  0
  5  6  2  0
  6  7  1  0
  7  8  1  0
  8  9  2  0
  9 10  1  0
 10 11  2  0
 11 12  1  0
 12 13  2  0
 13 14  1  0
 11 15  1  0
 10 16  1  0
  9 17  1  0
  7 18  1  0
 18 19  1  0
 19 20  1  0
 20 21  2  0
 21 22  1  0
 22 23  2  0
 23 24  1  0
 24 25  2  0
 25 26  1  0
 23 27  1  0
 22 28  1  0
 21 29  1  0
 19 30  1  0
 19 31  1  0
 18 32  2  0
  4 33  1  0
  4 34  1  0
  3 35  1  0
  3 36  1  0
  2 37  1  0
  2 38  1  0
  1 39  1  0
 32  5  1  0
 13  8  1  0
 25 20  1  0
M  END
>  <cnnaffinity>  (1) 
-5.49665

>  <filename>  (1) 
OCCCc1nc(Cc2cccnc2Cl)n(-c2cccnc2)n1

$$$$
