
     RDKit          3D

 37 39  0  0  0  0  0  0  0  0999 V2000
    5.9279   -5.9003   22.5794 O   0  0  0  0  0  0  0  0  0  0  0  0
    6.7875   -4.9451   21.9941 C   0  0  0  0  0  0  0  0  0  0  0  0
    7.9451   -4.5505   22.9113 C   0  0  0  0  0  0  0  0  0  0  0  0
    8.8614   -3.5313   22.2054 C   0  0  0  0  0  0  0  0  0  0  0  0
    8.2661   -2.1968   21.9634 C   0  0  0  0  0  0  0  0  0  0  0  0
    7.8544   -1.8556   20.7592 N   0  0  0  0  0  0  0  0  0  0  0  0
    7.3486   -0.6188   20.9482 N   0  0  0  0  0  0  0  0  0  0  0  0
    6.6398    0.0164   19.9010 C   0  0  0  0  0  0  0  0  0  0  0  0
    5.4154    0.6444   20.1471 C   0  0  0  0  0  0  0  0  0  0  0  0
    4.7923    1.2985   19.0829 C   0  0  0  0  0  0  0  0  0  0  0  0
    5.4095    1.2854   17.8284 C   0  0  0  0  0  0  0  0  0  0  0  0
    6.5686    0.6501   17.5837 N   0  0  0  0  0  0  0  0  0  0  0  0
    7.1647    0.0205   18.5981 C   0  0  0  0  0  0  0  0  0  0  0  0
    8.1095   -0.4746   18.3791 H   0  0  0  0  0  0  0  0  0  0  0  0
    4.9599    1.8066   16.9864 H   0  0  0  0  0  0  0  0  0  0  0  0
    3.8660    1.8421   19.2290 H   0  0  0  0  0  0  0  0  0  0  0  0
    4.9966    0.6411   21.1531 H   0  0  0  0  0  0  0  0  0  0  0  0
    7.5237   -0.2820   22.2600 C   0  0  0  0  0  0  0  0  0  0  0  0
    7.1537    0.9954   22.8652 C   0  0  0  0  0  0  0  0  0  0  0  0
    6.4715    0.9915   24.0896 C   0  0  0  0  0  0  0  0  0  0  0  0
    6.0968    2.1917   24.6863 C   0  0  0  0  0  0  0  0  0  0  0  0
    6.4157    3.4066   24.0619 C   0  0  0  0  0  0  0  0  0  0  0  0
    7.1144    3.4167   22.8497 C   0  0  0  0  0  0  0  0  0  0  0  0
    7.5176    4.9018   22.0570 Cl  0  0  0  0  0  0  0  0  0  0  0  0
    7.4908    2.2121   22.2575 C   0  0  0  0  0  0  0  0  0  0  0  0
    8.1771    2.2199   21.1086 F   0  0  0  0  0  0  0  0  0  0  0  0
    6.1371    4.3586   24.5033 H   0  0  0  0  0  0  0  0  0  0  0  0
    5.5722    2.1699   25.6385 H   0  0  0  0  0  0  0  0  0  0  0  0
    6.2533    0.0257   24.5459 H   0  0  0  0  0  0  0  0  0  0  0  0
    8.0894   -1.2718   22.9223 N   0  0  0  0  0  0  0  0  0  0  0  0
    9.8212   -3.3955   22.7200 H   0  0  0  0  0  0  0  0  0  0  0  0
    9.0327   -3.8562   21.1857 H   0  0  0  0  0  0  0  0  0  0  0  0
    7.5683   -4.1423   23.8604 H   0  0  0  0  0  0  0  0  0  0  0  0
    8.5169   -5.4534   23.1648 H   0  0  0  0  0  0  0  0  0  0  0  0
    6.2398   -4.0465   21.6549 H   0  0  0  0  0  0  0  0  0  0  0  0
    7.2044   -5.4257   21.0974 H   0  0  0  0  0  0  0  0  0  0  0  0
    5.5012   -5.4964   23.3441 H   0  0  0  0  0  0  0  0  0  0  0  0
  1  2  1  0
  2  3  1  0
  3  4  1  0
  4  5  1  0
  5  6  2  0
  6  7  1  0
  7  8  1  0
  8  9  2  0
  9 10  1  0
 10 11  2  0
 11 12  1  0
 12 13  2  0
 13 14  1  0
 11 15  1  0
 10 16  1  0
  9 17  1  0
  7 18  1  0
 18 19  1  0
 19 20  2  0
 20 21  1  0
 21 22  2  0
 22 23  1  0
 23 24  1  0
 23 25  2  0
 25 26  1  0
 22 27  1  0
 21 28  1  0
 20 29  1  0
 18 30  2  0
  4 31  1  0
  4 32  1  0
  3 33  1  0
  3 34  1  0
  2 35  1  0
  2 36  1  0
  1 37  1  0
 30  5  1  0
 13  8  1  0
 25 19  1  0
M  END
>  <cnnaffinity>  (1) 
-5.93388

>  <filename>  (1) 
OCCCc1nc(-c2cccc(Cl)c2F)n(-c2cccnc2)n1

$$$$
