
     RDKit          3D

 43 46  0  0  0  0  0  0  0  0999 V2000
    7.2572   -6.7343   22.9219 O   0  0  0  0  0  0  0  0  0  0  0  0
    8.3098   -5.7927   22.8406 C   0  0  0  0  0  0  0  0  0  0  0  0
    7.6900   -4.4096   22.6656 C   0  0  0  0  0  0  0  0  0  0  0  0
    8.6885   -3.3710   22.1160 C   0  0  0  0  0  0  0  0  0  0  0  0
    8.1141   -2.0093   21.8832 C   0  0  0  0  0  0  0  0  0  0  0  0
    7.6344   -1.6892   20.7001 N   0  0  0  0  0  0  0  0  0  0  0  0
    7.1468   -0.4435   20.8925 N   0  0  0  0  0  0  0  0  0  0  0  0
    6.4767    0.2143   19.8298 C   0  0  0  0  0  0  0  0  0  0  0  0
    5.2864    0.9316   20.0046 C   0  0  0  0  0  0  0  0  0  0  0  0
    4.7234    1.5321   18.8732 C   0  0  0  0  0  0  0  0  0  0  0  0
    5.3565    1.4042   17.6362 C   0  0  0  0  0  0  0  0  0  0  0  0
    6.4834    0.6907   17.4610 N   0  0  0  0  0  0  0  0  0  0  0  0
    7.0145    0.1032   18.5337 C   0  0  0  0  0  0  0  0  0  0  0  0
    7.9149   -0.4834   18.3689 H   0  0  0  0  0  0  0  0  0  0  0  0
    4.9498    1.8877   16.7514 H   0  0  0  0  0  0  0  0  0  0  0  0
    3.8079    2.1063   18.9479 H   0  0  0  0  0  0  0  0  0  0  0  0
    4.8033    1.0053   20.9771 H   0  0  0  0  0  0  0  0  0  0  0  0
    7.4213   -0.0519   22.1735 C   0  0  0  0  0  0  0  0  0  0  0  0
    7.0959    1.3193   22.6479 C   0  0  2  0  0  0  0  0  0  0  0  0
    7.6181    2.5176   21.9051 C   0  0  0  0  0  0  0  0  0  0  0  0
    8.1168    2.2343   23.3122 C   0  0  1  0  0  0  0  0  0  0  0  0
    7.7727    3.0804   24.5049 C   0  0  0  0  0  0  0  0  0  0  0  0
    6.4534    3.3964   24.8683 C   0  0  0  0  0  0  0  0  0  0  0  0
    6.2132    4.1558   26.0134 C   0  0  0  0  0  0  0  0  0  0  0  0
    7.3137    4.6050   26.7422 C   0  0  0  0  0  0  0  0  0  0  0  0
    8.5949    4.2642   26.2984 C   0  0  0  0  0  0  0  0  0  0  0  0
    8.8287    3.5129   25.2215 N   0  0  0  0  0  0  0  0  0  0  0  0
    9.4749    4.6083   26.8430 H   0  0  0  0  0  0  0  0  0  0  0  0
    7.1915    5.2053   27.6328 H   0  0  0  0  0  0  0  0  0  0  0  0
    5.1938    4.3884   26.3252 H   0  0  0  0  0  0  0  0  0  0  0  0
    5.6272    3.0667   24.2530 H   0  0  0  0  0  0  0  0  0  0  0  0
    9.1340    1.8505   23.4143 H   0  0  0  0  0  0  0  0  0  0  0  0
    8.3056    2.2954   21.0901 H   0  0  0  0  0  0  0  0  0  0  0  0
    6.9491    3.3549   21.7090 H   0  0  0  0  0  0  0  0  0  0  0  0
    6.0710    1.3729   23.0186 H   0  0  0  0  0  0  0  0  0  0  0  0
    8.0002   -1.0431   22.8287 N   0  0  0  0  0  0  0  0  0  0  0  0
    9.0150   -3.6908   21.1239 H   0  0  0  0  0  0  0  0  0  0  0  0
    9.5630   -3.2849   22.7728 H   0  0  0  0  0  0  0  0  0  0  0  0
    7.2874   -4.0794   23.6325 H   0  0  0  0  0  0  0  0  0  0  0  0
    6.8336   -4.5005   21.9870 H   0  0  0  0  0  0  0  0  0  0  0  0
    8.9400   -5.8007   23.7444 H   0  0  0  0  0  0  0  0  0  0  0  0
    8.9633   -6.0465   21.9916 H   0  0  0  0  0  0  0  0  0  0  0  0
    7.5116   -7.4296   23.5400 H   0  0  0  0  0  0  0  0  0  0  0  0
  1  2  1  0
  2  3  1  0
  3  4  1  0
  4  5  1  0
  5  6  2  0
  6  7  1  0
  7  8  1  0
  8  9  2  0
  9 10  1  0
 10 11  2  0
 11 12  1  0
 12 13  2  0
 13 14  1  0
 11 15  1  0
 10 16  1  0
  9 17  1  0
  7 18  1  0
 18 19  1  0
 19 20  1  0
 20 21  1  0
 21 22  1  0
 22 23  2  0
 23 24  1  0
 24 25  2  0
 25 26  1  0
 26 27  2  0
 26 28  1  0
 25 29  1  0
 24 30  1  0
 23 31  1  0
 21 32  1  6
 20 33  1  0
 20 34  1  0
 19 35  1  1
 18 36  2  0
  4 37  1  0
  4 38  1  0
  3 39  1  0
  3 40  1  0
  2 41  1  0
  2 42  1  0
  1 43  1  0
 36  5  1  0
 13  8  1  0
 21 19  1  0
 27 22  1  0
M  END
>  <cnnaffinity>  (1) 
-5.55586

>  <filename>  (1) 
OCCCc1nc([C@@H]2C[C@H]2c2ccccn2)n(-c2cccnc2)n1

$$$$
