
     RDKit          3D

 30 31  0  0  0  0  0  0  0  0999 V2000
   10.3962    4.4705   23.3385 H   0  0  0  0  0  0  0  0  0  0  0  0
    9.5902    4.5712   22.8191 O   0  0  0  0  0  0  0  0  0  0  0  0
    8.6820    3.5861   23.2692 C   0  0  0  0  0  0  0  0  0  0  0  0
    8.5526    3.6506   24.3589 H   0  0  0  0  0  0  0  0  0  0  0  0
    7.7201    3.8419   22.8177 H   0  0  0  0  0  0  0  0  0  0  0  0
    9.0786    2.1773   22.8567 C   0  0  0  0  0  0  0  0  0  0  0  0
    8.3909    1.4599   23.3236 H   0  0  0  0  0  0  0  0  0  0  0  0
   10.0691    1.9544   23.2735 H   0  0  0  0  0  0  0  0  0  0  0  0
    9.1135    1.9801   21.3412 C   0  0  0  0  0  0  0  0  0  0  0  0
    8.1227    2.1832   20.9151 H   0  0  0  0  0  0  0  0  0  0  0  0
    9.7955    2.7146   20.9017 H   0  0  0  0  0  0  0  0  0  0  0  0
    9.5597    0.5676   20.9422 C   0  0  0  0  0  0  0  0  0  0  0  0
    9.6334    0.5042   19.8527 H   0  0  0  0  0  0  0  0  0  0  0  0
   10.5495    0.3473   21.3541 H   0  0  0  0  0  0  0  0  0  0  0  0
    8.6311   -0.4944   21.4342 C   0  0  0  0  0  0  0  0  0  0  0  0
    8.8584   -1.3116   22.4296 N   0  0  0  0  0  0  0  0  0  0  0  0
    7.7139   -2.0383   22.6480 N   0  0  0  0  0  0  0  0  0  0  0  0
    6.8306   -1.6370   21.7777 C   0  0  0  0  0  0  0  0  0  0  0  0
    5.8198   -2.0146   21.6642 H   0  0  0  0  0  0  0  0  0  0  0  0
    7.3480   -0.6691   20.9521 N   0  0  0  0  0  0  0  0  0  0  0  0
    6.6671    0.0167   19.8958 C   0  0  0  0  0  0  0  0  0  0  0  0
    7.1753    0.0695   18.5801 C   0  0  0  0  0  0  0  0  0  0  0  0
    8.1150   -0.4310   18.3650 H   0  0  0  0  0  0  0  0  0  0  0  0
    6.5592    0.6823   17.5624 N   0  0  0  0  0  0  0  0  0  0  0  0
    5.3981    1.2992   17.8320 C   0  0  0  0  0  0  0  0  0  0  0  0
    4.9101    1.7877   16.9905 H   0  0  0  0  0  0  0  0  0  0  0  0
    4.8092    1.3105   19.1036 C   0  0  0  0  0  0  0  0  0  0  0  0
    3.8759    1.8418   19.2600 H   0  0  0  0  0  0  0  0  0  0  0  0
    5.4431    0.6463   20.1608 C   0  0  0  0  0  0  0  0  0  0  0  0
    5.0241    0.6235   21.1717 H   0  0  0  0  0  0  0  0  0  0  0  0
  1  2  1  0
  2  3  1  0
  3  4  1  0
  3  5  1  0
  3  6  1  0
  6  7  1  0
  6  8  1  0
  6  9  1  0
  9 10  1  0
  9 11  1  0
  9 12  1  0
 12 13  1  0
 12 14  1  0
 12 15  1  0
 15 16  2  0
 16 17  1  0
 17 18  2  0
 18 19  1  0
 18 20  1  0
 20 21  1  0
 21 22  2  0
 22 23  1  0
 22 24  1  0
 24 25  2  0
 25 26  1  0
 25 27  1  0
 27 28  1  0
 27 29  2  0
 29 30  1  0
 20 15  1  0
 29 21  1  0
M  END
>  <cnnaffinity>  (1) 
-4.93072

>  <filename>  (1) 
OCCCCc1nncn1-c1cccnc1

$$$$
