
     RDKit          3D

 37 39  0  0  0  0  0  0  0  0999 V2000
    5.3079   -2.7951   17.7527 H   0  0  0  0  0  0  0  0  0  0  0  0
    4.9228   -3.1834   18.5575 O   0  0  0  0  0  0  0  0  0  0  0  0
    5.8639   -4.9259   20.3898 C   0  0  0  0  0  0  0  0  0  0  0  0
    5.3096   -4.0782   18.6639 H   0  0  0  0  0  0  0  0  0  0  0  0
    5.5233   -5.3903   18.8023 H   0  0  0  0  0  0  0  0  0  0  0  0
    5.9207   -4.9245   20.6010 C   0  0  0  0  0  0  0  0  0  0  0  0
    6.9567   -5.5841   20.4238 H   0  0  0  0  0  0  0  0  0  0  0  0
    5.1817   -5.8781   20.9391 H   0  0  0  0  0  0  0  0  0  0  0  0
    6.1994   -3.6939   21.3804 C   0  0  0  0  0  0  0  0  0  0  0  0
    5.4152   -2.9023   21.5198 H   0  0  0  0  0  0  0  0  0  0  0  0
    6.2667   -4.2095   22.3329 H   0  0  0  0  0  0  0  0  0  0  0  0
    7.4627   -2.9295   21.1288 N   0  0  0  0  0  0  0  0  0  0  0  0
    8.3093   -3.4613   21.3430 H   0  0  0  0  0  0  0  0  0  0  0  0
    7.5963   -1.7332   21.8829 C   0  0  0  0  0  0  0  0  0  0  0  0
    7.1811   -0.3789   21.5774 C   0  0  0  0  0  0  0  0  0  0  0  0
    6.5858    0.1450   20.3310 C   0  0  0  0  0  0  0  0  0  0  0  0
    7.0770   -0.2980   19.0910 C   0  0  0  0  0  0  0  0  0  0  0  0
    7.9079   -1.0010   19.0575 H   0  0  0  0  0  0  0  0  0  0  0  0
    6.6119    0.1128   17.9041 N   0  0  0  0  0  0  0  0  0  0  0  0
    5.6223    1.0176   17.9116 C   0  0  0  0  0  0  0  0  0  0  0  0
    5.2613    1.3467   16.9384 H   0  0  0  0  0  0  0  0  0  0  0  0
    5.0641    1.5383   19.0858 C   0  0  0  0  0  0  0  0  0  0  0  0
    4.2778    2.2854   19.0234 H   0  0  0  0  0  0  0  0  0  0  0  0
    5.5567    1.1065   20.3182 C   0  0  0  0  0  0  0  0  0  0  0  0
    5.1695    1.5111   21.2562 H   0  0  0  0  0  0  0  0  0  0  0  0
    7.4302    0.4372   22.6049 N   0  0  0  0  0  0  0  0  0  0  0  0
    8.0428   -0.3436   23.4874 N   0  0  0  0  0  0  0  0  0  0  0  0
    8.2079   -1.6213   23.1244 C   0  0  0  0  0  0  0  0  0  0  0  0
    8.9584   -2.3649   24.2003 C   0  0  0  0  0  0  0  0  0  0  0  0
    9.8801   -2.8183   23.8218 H   0  0  0  0  0  0  0  0  0  0  0  0
    8.3582   -3.1769   24.6266 H   0  0  0  0  0  0  0  0  0  0  0  0
    9.2609   -1.2527   25.2519 C   0  0  0  0  0  0  0  0  0  0  0  0
   10.3211   -0.9939   25.2506 H   0  0  0  0  0  0  0  0  0  0  0  0
    9.0046   -1.5678   26.2642 H   0  0  0  0  0  0  0  0  0  0  0  0
    8.4284   -0.0129   24.8333 C   0  0  0  0  0  0  0  0  0  0  0  0
    7.5300    0.1236   25.4417 H   0  0  0  0  0  0  0  0  0  0  0  0
    8.9811    0.9280   24.8345 H   0  0  0  0  0  0  0  0  0  0  0  0
  1  2  1  0
  2  3  1  0
  3  4  1  0
  3  5  1  0
  3  6  1  0
  6  7  1  0
  6  8  1  0
  6  9  1  0
  9 10  1  0
  9 11  1  0
  9 12  1  0
 12 13  1  0
 12 14  1  0
 14 15  1  0
 15 16  1  0
 16 17  2  0
 17 18  1  0
 17 19  1  0
 19 20  2  0
 20 21  1  0
 20 22  1  0
 22 23  1  0
 22 24  2  0
 24 25  1  0
 15 26  2  0
 26 27  1  0
 27 28  1  0
 28 29  1  0
 29 30  1  0
 29 31  1  0
 29 32  1  0
 32 33  1  0
 32 34  1  0
 32 35  1  0
 35 36  1  0
 35 37  1  0
 28 14  2  0
 24 16  1  0
 35 27  1  0
M  END
>  <cnnaffinity>  (1) 
-5.3935

>  <filename>  (1) 
OCCCNc1c(-c2cccnc2)nn2c1CCC2

$$$$
