
     RDKit          3D

 40 42  0  0  0  0  0  0  0  0999 V2000
    6.6142   -0.6239   26.5867 O   0  0  0  0  0  0  0  0  0  0  0  0
    7.4192   -1.1127   25.5284 C   0  0  0  0  0  0  0  0  0  0  0  0
    6.6383   -2.2568   24.8819 C   0  0  0  0  0  0  0  0  0  0  0  0
    7.3605   -2.9605   23.7073 C   0  0  0  0  0  0  0  0  0  0  0  0
    7.6535   -2.0340   22.5699 C   0  0  0  0  0  0  0  0  0  0  0  0
    6.7726   -1.6713   21.6648 N   0  0  0  0  0  0  0  0  0  0  0  0
    7.4202   -0.6868   20.9782 N   0  0  0  0  0  0  0  0  0  0  0  0
    6.7273   -0.0118   19.9183 C   0  0  0  0  0  0  0  0  0  0  0  0
    5.5013    0.6189   20.1741 C   0  0  0  0  0  0  0  0  0  0  0  0
    4.8678    1.2863   19.1224 C   0  0  0  0  0  0  0  0  0  0  0  0
    5.4629    1.2779   17.8548 C   0  0  0  0  0  0  0  0  0  0  0  0
    6.6178    0.6459   17.5927 N   0  0  0  0  0  0  0  0  0  0  0  0
    7.2251    0.0114   18.6042 C   0  0  0  0  0  0  0  0  0  0  0  0
    8.1406   -0.5258   18.3555 H   0  0  0  0  0  0  0  0  0  0  0  0
    4.9905    1.7776   17.0125 H   0  0  0  0  0  0  0  0  0  0  0  0
    3.9240    1.8029   19.2698 H   0  0  0  0  0  0  0  0  0  0  0  0
    5.0689    0.5699   21.1758 H   0  0  0  0  0  0  0  0  0  0  0  0
    8.6415   -0.4887   21.5626 C   0  0  0  0  0  0  0  0  0  0  0  0
    9.5438    0.6867   21.3677 C   0  0  0  0  0  0  0  0  0  0  0  0
    9.0002    1.9097   22.0851 C   0  0  0  0  0  0  0  0  0  0  0  0
    8.1488    2.7709   21.4030 C   0  0  0  0  0  0  0  0  0  0  0  0
    7.6615    3.9362   22.0009 C   0  0  0  0  0  0  0  0  0  0  0  0
    7.9852    4.2091   23.3363 C   0  0  0  0  0  0  0  0  0  0  0  0
    8.7571    3.3039   24.0745 C   0  0  0  0  0  0  0  0  0  0  0  0
    9.0460    3.5807   25.7703 Cl  0  0  0  0  0  0  0  0  0  0  0  0
    9.2515    2.1537   23.4435 C   0  0  0  0  0  0  0  0  0  0  0  0
    9.9559    1.2541   24.1474 F   0  0  0  0  0  0  0  0  0  0  0  0
    7.6486    5.1312   23.8004 H   0  0  0  0  0  0  0  0  0  0  0  0
    7.0611    4.6398   21.4273 H   0  0  0  0  0  0  0  0  0  0  0  0
    7.8920    2.4664   20.3910 H   0  0  0  0  0  0  0  0  0  0  0  0
    9.6546    0.8912   20.3010 H   0  0  0  0  0  0  0  0  0  0  0  0
   10.5290    0.4122   21.7538 H   0  0  0  0  0  0  0  0  0  0  0  0
    8.8310   -1.3618   22.5256 N   0  0  0  0  0  0  0  0  0  0  0  0
    8.3255   -3.3590   24.0366 H   0  0  0  0  0  0  0  0  0  0  0  0
    6.7582   -3.7971   23.3441 H   0  0  0  0  0  0  0  0  0  0  0  0
    6.4207   -2.9961   25.6623 H   0  0  0  0  0  0  0  0  0  0  0  0
    5.6690   -1.8701   24.5454 H   0  0  0  0  0  0  0  0  0  0  0  0
    8.3852   -1.4926   25.9056 H   0  0  0  0  0  0  0  0  0  0  0  0
    7.6582   -0.3150   24.8000 H   0  0  0  0  0  0  0  0  0  0  0  0
    7.0694    0.1213   26.9937 H   0  0  0  0  0  0  0  0  0  0  0  0
  1  2  1  0
  2  3  1  0
  3  4  1  0
  4  5  1  0
  5  6  2  0
  6  7  1  0
  7  8  1  0
  8  9  2  0
  9 10  1  0
 10 11  2  0
 11 12  1  0
 12 13  2  0
 13 14  1  0
 11 15  1  0
 10 16  1  0
  9 17  1  0
  7 18  1  0
 18 19  1  0
 19 20  1  0
 20 21  2  0
 21 22  1  0
 22 23  2  0
 23 24  1  0
 24 25  1  0
 24 26  2  0
 26 27  1  0
 23 28  1  0
 22 29  1  0
 21 30  1  0
 19 31  1  0
 19 32  1  0
 18 33  2  0
  4 34  1  0
  4 35  1  0
  3 36  1  0
  3 37  1  0
  2 38  1  0
  2 39  1  0
  1 40  1  0
 33  5  1  0
 13  8  1  0
 26 20  1  0
M  END
>  <cnnaffinity>  (1) 
-5.90165

>  <filename>  (1) 
OCCCc1nc(Cc2cccc(Cl)c2F)n(-c2cccnc2)n1

$$$$
