
     RDKit          3D

 40 42  0  0  0  0  0  0  0  0999 V2000
    9.3868   -5.8714   24.4296 O   0  0  0  0  0  0  0  0  0  0  0  0
    8.3681   -5.8116   23.4528 C   0  0  0  0  0  0  0  0  0  0  0  0
    7.8202   -4.4105   23.1770 C   0  0  0  0  0  0  0  0  0  0  0  0
    8.7855   -3.5251   22.3505 C   0  0  0  0  0  0  0  0  0  0  0  0
    8.3184   -2.1467   22.0122 C   0  0  0  0  0  0  0  0  0  0  0  0
    8.4218   -1.0949   22.7954 N   0  0  0  0  0  0  0  0  0  0  0  0
    7.7658   -0.1275   22.1050 N   0  0  0  0  0  0  0  0  0  0  0  0
    7.7064    1.2276   22.6627 C   0  0  0  0  0  0  0  0  0  0  0  0
    7.0967    1.2676   24.0501 C   0  0  0  0  0  0  0  0  0  0  0  0
    7.9363    1.0901   25.1627 C   0  0  0  0  0  0  0  0  0  0  0  0
    7.4243    1.0787   26.4611 C   0  0  0  0  0  0  0  0  0  0  0  0
    6.0514    1.2287   26.6284 C   0  0  0  0  0  0  0  0  0  0  0  0
    5.5498    1.2225   27.8745 F   0  0  0  0  0  0  0  0  0  0  0  0
    5.1816    1.3808   25.5524 C   0  0  0  0  0  0  0  0  0  0  0  0
    5.7166    1.4009   24.2582 C   0  0  0  0  0  0  0  0  0  0  0  0
    5.0446    1.4955   23.4071 H   0  0  0  0  0  0  0  0  0  0  0  0
    4.1193    1.4773   25.7522 H   0  0  0  0  0  0  0  0  0  0  0  0
    8.0559    0.9524   27.3354 H   0  0  0  0  0  0  0  0  0  0  0  0
    8.9920    0.8897   24.9895 H   0  0  0  0  0  0  0  0  0  0  0  0
    8.7278    1.6268   22.7005 H   0  0  0  0  0  0  0  0  0  0  0  0
    7.1571    1.8531   21.9600 H   0  0  0  0  0  0  0  0  0  0  0  0
    7.3415   -0.6425   20.9199 C   0  0  0  0  0  0  0  0  0  0  0  0
    6.5943    0.0727   19.8873 C   0  0  0  0  0  0  0  0  0  0  0  0
    5.3713    0.7226   20.1064 C   0  0  0  0  0  0  0  0  0  0  0  0
    4.7579    1.3532   19.0257 C   0  0  0  0  0  0  0  0  0  0  0  0
    5.3927    1.3187   17.7791 C   0  0  0  0  0  0  0  0  0  0  0  0
    6.5383    0.6566   17.5487 N   0  0  0  0  0  0  0  0  0  0  0  0
    7.1085    0.0360   18.5830 C   0  0  0  0  0  0  0  0  0  0  0  0
    8.0289   -0.5109   18.3755 H   0  0  0  0  0  0  0  0  0  0  0  0
    4.9715    1.8548   16.9313 H   0  0  0  0  0  0  0  0  0  0  0  0
    3.8260    1.8885   19.1431 H   0  0  0  0  0  0  0  0  0  0  0  0
    4.8994    0.7033   21.0916 H   0  0  0  0  0  0  0  0  0  0  0  0
    7.7166   -1.8993   20.8191 N   0  0  0  0  0  0  0  0  0  0  0  0
    9.7817   -3.4723   22.8120 H   0  0  0  0  0  0  0  0  0  0  0  0
    8.8718   -3.9925   21.3733 H   0  0  0  0  0  0  0  0  0  0  0  0
    7.5437   -3.9570   24.1370 H   0  0  0  0  0  0  0  0  0  0  0  0
    6.8832   -4.5511   22.6141 H   0  0  0  0  0  0  0  0  0  0  0  0
    7.5514   -6.4067   23.8616 H   0  0  0  0  0  0  0  0  0  0  0  0
    8.6766   -6.2886   22.5049 H   0  0  0  0  0  0  0  0  0  0  0  0
   10.1731   -5.4175   24.0964 H   0  0  0  0  0  0  0  0  0  0  0  0
  1  2  1  0
  2  3  1  0
  3  4  1  0
  4  5  1  0
  5  6  2  0
  6  7  1  0
  7  8  1  0
  8  9  1  0
  9 10  2  0
 10 11  1  0
 11 12  2  0
 12 13  1  0
 12 14  1  0
 14 15  2  0
 15 16  1  0
 14 17  1  0
 11 18  1  0
 10 19  1  0
  8 20  1  0
  8 21  1  0
  7 22  1  0
 22 23  1  0
 23 24  2  0
 24 25  1  0
 25 26  2  0
 26 27  1  0
 27 28  2  0
 28 29  1  0
 26 30  1  0
 25 31  1  0
 24 32  1  0
 22 33  2  0
  4 34  1  0
  4 35  1  0
  3 36  1  0
  3 37  1  0
  2 38  1  0
  2 39  1  0
  1 40  1  0
 33  5  1  0
 15  9  1  0
 28 23  1  0
M  END
>  <cnnaffinity>  (1) 
-5.42443

>  <filename>  (1) 
OCCCc1nc(-c2cccnc2)n(Cc2ccc(F)cc2)n1

$$$$
