
     RDKit          3D

 40 42  0  0  0  0  0  0  0  0999 V2000
    5.7893   -5.1301   24.0669 O   0  0  0  0  0  0  0  0  0  0  0  0
    6.5711   -4.5295   23.0586 C   0  0  0  0  0  0  0  0  0  0  0  0
    7.9608   -4.1608   23.5683 C   0  0  0  0  0  0  0  0  0  0  0  0
    8.8394   -3.5191   22.4873 C   0  0  0  0  0  0  0  0  0  0  0  0
    8.3513   -2.1837   22.0438 C   0  0  0  0  0  0  0  0  0  0  0  0
    8.4767   -1.1033   22.7930 N   0  0  0  0  0  0  0  0  0  0  0  0
    7.8621   -0.1489   22.0550 N   0  0  0  0  0  0  0  0  0  0  0  0
    7.7754    1.2329   22.5149 C   0  0  0  0  0  0  0  0  0  0  0  0
    6.5489    1.5321   23.3556 C   0  0  0  0  0  0  0  0  0  0  0  0
    5.6815    2.5796   23.0168 C   0  0  0  0  0  0  0  0  0  0  0  0
    4.5617    2.8117   23.8117 C   0  0  0  0  0  0  0  0  0  0  0  0
    3.7236    3.8056   23.4826 F   0  0  0  0  0  0  0  0  0  0  0  0
    4.2707    2.0529   24.9409 C   0  0  0  0  0  0  0  0  0  0  0  0
    5.1663    1.0345   25.2537 C   0  0  0  0  0  0  0  0  0  0  0  0
    4.9223    0.2925   26.3426 F   0  0  0  0  0  0  0  0  0  0  0  0
    6.2963    0.7592   24.4959 C   0  0  0  0  0  0  0  0  0  0  0  0
    6.9609   -0.0500   24.7824 H   0  0  0  0  0  0  0  0  0  0  0  0
    3.3995    2.2516   25.5525 H   0  0  0  0  0  0  0  0  0  0  0  0
    5.8434    3.1954   22.1343 H   0  0  0  0  0  0  0  0  0  0  0  0
    8.6767    1.4460   23.0912 H   0  0  0  0  0  0  0  0  0  0  0  0
    7.7876    1.8842   21.6404 H   0  0  0  0  0  0  0  0  0  0  0  0
    7.3844   -0.7101   20.9209 C   0  0  0  0  0  0  0  0  0  0  0  0
    6.6489    0.0234   19.8973 C   0  0  0  0  0  0  0  0  0  0  0  0
    5.4324    0.6708   20.1574 C   0  0  0  0  0  0  0  0  0  0  0  0
    4.7999    1.3205   19.1040 C   0  0  0  0  0  0  0  0  0  0  0  0
    5.4037    1.2937   17.8416 C   0  0  0  0  0  0  0  0  0  0  0  0
    6.5681    0.6756   17.5832 N   0  0  0  0  0  0  0  0  0  0  0  0
    7.1673    0.0509   18.5979 C   0  0  0  0  0  0  0  0  0  0  0  0
    8.1158   -0.4379   18.3828 H   0  0  0  0  0  0  0  0  0  0  0  0
    4.9191    1.7773   16.9996 H   0  0  0  0  0  0  0  0  0  0  0  0
    3.8651    1.8491   19.2572 H   0  0  0  0  0  0  0  0  0  0  0  0
    4.9974    0.6310   21.1617 H   0  0  0  0  0  0  0  0  0  0  0  0
    7.6977   -1.9924   20.8708 N   0  0  0  0  0  0  0  0  0  0  0  0
    9.8701   -3.4074   22.8387 H   0  0  0  0  0  0  0  0  0  0  0  0
    8.8343   -4.1643   21.6105 H   0  0  0  0  0  0  0  0  0  0  0  0
    7.8611   -3.4767   24.4162 H   0  0  0  0  0  0  0  0  0  0  0  0
    8.4518   -5.0668   23.9456 H   0  0  0  0  0  0  0  0  0  0  0  0
    6.0373   -3.6337   22.7254 H   0  0  0  0  0  0  0  0  0  0  0  0
    6.6498   -5.1900   22.1796 H   0  0  0  0  0  0  0  0  0  0  0  0
    6.1346   -6.0229   24.1893 H   0  0  0  0  0  0  0  0  0  0  0  0
  1  2  1  0
  2  3  1  0
  3  4  1  0
  4  5  1  0
  5  6  2  0
  6  7  1  0
  7  8  1  0
  8  9  1  0
  9 10  2  0
 10 11  1  0
 11 12  1  0
 11 13  2  0
 13 14  1  0
 14 15  1  0
 14 16  2  0
 16 17  1  0
 13 18  1  0
 10 19  1  0
  8 20  1  0
  8 21  1  0
  7 22  1  0
 22 23  1  0
 23 24  2  0
 24 25  1  0
 25 26  2  0
 26 27  1  0
 27 28  2  0
 28 29  1  0
 26 30  1  0
 25 31  1  0
 24 32  1  0
 22 33  2  0
  4 34  1  0
  4 35  1  0
  3 36  1  0
  3 37  1  0
  2 38  1  0
  2 39  1  0
  1 40  1  0
 33  5  1  0
 16  9  1  0
 28 23  1  0
M  END
>  <cnnaffinity>  (1) 
-5.10667

>  <filename>  (1) 
OCCCc1nc(-c2cccnc2)n(Cc2cc(F)cc(F)c2)n1

$$$$
