
     RDKit          3D

 39 41  0  0  0  0  0  0  0  0999 V2000
    8.5937   -6.0910   22.0216 O   0  0  0  0  0  0  0  0  0  0  0  0
    8.5083   -4.7720   22.5045 C   0  0  0  0  0  0  0  0  0  0  0  0
    7.1317   -4.4358   23.0740 C   0  0  0  0  0  0  0  0  0  0  0  0
    7.1425   -3.0045   23.6522 C   0  0  0  0  0  0  0  0  0  0  0  0
    7.4216   -1.9557   22.6116 C   0  0  0  0  0  0  0  0  0  0  0  0
    6.5468   -1.5893   21.6979 N   0  0  0  0  0  0  0  0  0  0  0  0
    7.2595   -0.7406   20.9071 N   0  0  0  0  0  0  0  0  0  0  0  0
    6.5928   -0.0472   19.8612 C   0  0  0  0  0  0  0  0  0  0  0  0
    5.3875    0.6143   20.1199 C   0  0  0  0  0  0  0  0  0  0  0  0
    4.7913    1.3194   19.0736 C   0  0  0  0  0  0  0  0  0  0  0  0
    5.3953    1.3119   17.8092 C   0  0  0  0  0  0  0  0  0  0  0  0
    6.5292    0.6439   17.5443 N   0  0  0  0  0  0  0  0  0  0  0  0
    7.1056   -0.0178   18.5546 C   0  0  0  0  0  0  0  0  0  0  0  0
    8.0199   -0.5638   18.3308 H   0  0  0  0  0  0  0  0  0  0  0  0
    4.9497    1.8590   16.9809 H   0  0  0  0  0  0  0  0  0  0  0  0
    3.8736    1.8762   19.2282 H   0  0  0  0  0  0  0  0  0  0  0  0
    4.9410    0.5675   21.1164 H   0  0  0  0  0  0  0  0  0  0  0  0
    8.5205   -0.6079   21.4178 C   0  0  0  0  0  0  0  0  0  0  0  0
    9.6503    0.2066   20.8535 C   0  0  0  0  0  0  0  0  0  0  0  0
   10.3633    1.0603   21.8902 C   0  0  0  0  0  0  0  0  0  0  0  0
   11.6559    0.7475   22.3400 C   0  0  0  0  0  0  0  0  0  0  0  0
   12.2860    1.3684   23.3457 N   0  0  0  0  0  0  0  0  0  0  0  0
   11.6390    2.3678   23.9521 C   0  0  0  0  0  0  0  0  0  0  0  0
   10.3885    2.8238   23.5559 C   0  0  0  0  0  0  0  0  0  0  0  0
    9.7538    2.1597   22.5087 C   0  0  0  0  0  0  0  0  0  0  0  0
    8.1947    2.7292   21.9924 Cl  0  0  0  0  0  0  0  0  0  0  0  0
    9.9253    3.6688   24.0475 H   0  0  0  0  0  0  0  0  0  0  0  0
   12.1334    2.8384   24.8004 H   0  0  0  0  0  0  0  0  0  0  0  0
   12.2055   -0.0632   21.8602 H   0  0  0  0  0  0  0  0  0  0  0  0
   10.3679   -0.4957   20.4147 H   0  0  0  0  0  0  0  0  0  0  0  0
    9.2770    0.8488   20.0543 H   0  0  0  0  0  0  0  0  0  0  0  0
    8.6473   -1.3825   22.4821 N   0  0  0  0  0  0  0  0  0  0  0  0
    6.2084   -2.7784   24.1770 H   0  0  0  0  0  0  0  0  0  0  0  0
    7.9486   -2.9394   24.3915 H   0  0  0  0  0  0  0  0  0  0  0  0
    6.9175   -5.1539   23.8765 H   0  0  0  0  0  0  0  0  0  0  0  0
    6.3461   -4.5402   22.3073 H   0  0  0  0  0  0  0  0  0  0  0  0
    8.7898   -4.0305   21.7352 H   0  0  0  0  0  0  0  0  0  0  0  0
    9.2519   -4.7037   23.3113 H   0  0  0  0  0  0  0  0  0  0  0  0
    8.0313   -6.1501   21.2403 H   0  0  0  0  0  0  0  0  0  0  0  0
  1  2  1  0
  2  3  1  0
  3  4  1  0
  4  5  1  0
  5  6  2  0
  6  7  1  0
  7  8  1  0
  8  9  2  0
  9 10  1  0
 10 11  2  0
 11 12  1  0
 12 13  2  0
 13 14  1  0
 11 15  1  0
 10 16  1  0
  9 17  1  0
  7 18  1  0
 18 19  1  0
 19 20  1  0
 20 21  2  0
 21 22  1  0
 22 23  2  0
 23 24  1  0
 24 25  2  0
 25 26  1  0
 24 27  1  0
 23 28  1  0
 21 29  1  0
 19 30  1  0
 19 31  1  0
 18 32  2  0
  4 33  1  0
  4 34  1  0
  3 35  1  0
  3 36  1  0
  2 37  1  0
  2 38  1  0
  1 39  1  0
 32  5  1  0
 13  8  1  0
 25 20  1  0
M  END
>  <cnnaffinity>  (1) 
-6.05739

>  <filename>  (1) 
OCCCc1nc(Cc2cnccc2Cl)n(-c2cccnc2)n1

$$$$
