
     RDKit          3D

 40 42  0  0  0  0  0  0  0  0999 V2000
    6.1361   -5.2799   24.4304 O   0  0  0  0  0  0  0  0  0  0  0  0
    7.0393   -4.2214   24.1624 C   0  0  0  0  0  0  0  0  0  0  0  0
    7.7207   -4.4794   22.8188 C   0  0  0  0  0  0  0  0  0  0  0  0
    8.6211   -3.3621   22.2577 C   0  0  0  0  0  0  0  0  0  0  0  0
    7.9495   -2.0579   21.9761 C   0  0  0  0  0  0  0  0  0  0  0  0
    7.5669   -1.2263   22.9220 N   0  0  0  0  0  0  0  0  0  0  0  0
    7.0922   -0.1524   22.2312 N   0  0  0  0  0  0  0  0  0  0  0  0
    6.9979    1.1423   22.9357 C   0  0  0  0  0  0  0  0  0  0  0  0
    8.3386    1.5502   23.5412 C   0  0  0  0  0  0  0  0  0  0  0  0
    8.6877    1.3544   24.8936 C   0  0  0  0  0  0  0  0  0  0  0  0
    7.4799    0.9392   26.0836 Cl  0  0  0  0  0  0  0  0  0  0  0  0
    9.9965    1.5272   25.3644 C   0  0  0  0  0  0  0  0  0  0  0  0
   10.9902    1.9808   24.4979 C   0  0  0  0  0  0  0  0  0  0  0  0
   10.6826    2.2217   23.1567 C   0  0  0  0  0  0  0  0  0  0  0  0
    9.3765    2.0029   22.7059 C   0  0  0  0  0  0  0  0  0  0  0  0
    9.0453    2.3385   21.0336 Cl  0  0  0  0  0  0  0  0  0  0  0  0
   11.4225    2.5753   22.4479 H   0  0  0  0  0  0  0  0  0  0  0  0
   12.0029    2.1455   24.8634 H   0  0  0  0  0  0  0  0  0  0  0  0
   10.2122    1.2993   26.4018 H   0  0  0  0  0  0  0  0  0  0  0  0
    6.6917    1.9045   22.2128 H   0  0  0  0  0  0  0  0  0  0  0  0
    6.2366    1.0342   23.7100 H   0  0  0  0  0  0  0  0  0  0  0  0
    7.1396   -0.4465   20.9007 C   0  0  0  0  0  0  0  0  0  0  0  0
    6.4908    0.2973   19.8206 C   0  0  0  0  0  0  0  0  0  0  0  0
    5.2608    0.9654   19.9351 C   0  0  0  0  0  0  0  0  0  0  0  0
    4.7126    1.5331   18.7826 C   0  0  0  0  0  0  0  0  0  0  0  0
    5.4077    1.4205   17.5736 C   0  0  0  0  0  0  0  0  0  0  0  0
    6.5704    0.7635   17.4496 N   0  0  0  0  0  0  0  0  0  0  0  0
    7.0815    0.2102   18.5520 C   0  0  0  0  0  0  0  0  0  0  0  0
    8.0132   -0.3386   18.4267 H   0  0  0  0  0  0  0  0  0  0  0  0
    5.0107    1.8670   16.6634 H   0  0  0  0  0  0  0  0  0  0  0  0
    3.7726    2.0683   18.8097 H   0  0  0  0  0  0  0  0  0  0  0  0
    4.7288    1.0153   20.8874 H   0  0  0  0  0  0  0  0  0  0  0  0
    7.7358   -1.6130   20.7155 N   0  0  0  0  0  0  0  0  0  0  0  0
    9.0213   -3.6688   21.2935 H   0  0  0  0  0  0  0  0  0  0  0  0
    9.4706   -3.1743   22.9275 H   0  0  0  0  0  0  0  0  0  0  0  0
    8.3111   -5.3998   22.9209 H   0  0  0  0  0  0  0  0  0  0  0  0
    6.9290   -4.7053   22.0868 H   0  0  0  0  0  0  0  0  0  0  0  0
    6.5322   -3.2439   24.1866 H   0  0  0  0  0  0  0  0  0  0  0  0
    7.7673   -4.2202   24.9847 H   0  0  0  0  0  0  0  0  0  0  0  0
    5.5582   -5.3613   23.6613 H   0  0  0  0  0  0  0  0  0  0  0  0
  1  2  1  0
  2  3  1  0
  3  4  1  0
  4  5  1  0
  5  6  2  0
  6  7  1  0
  7  8  1  0
  8  9  1  0
  9 10  2  0
 10 11  1  0
 10 12  1  0
 12 13  2  0
 13 14  1  0
 14 15  2  0
 15 16  1  0
 14 17  1  0
 13 18  1  0
 12 19  1  0
  8 20  1  0
  8 21  1  0
  7 22  1  0
 22 23  1  0
 23 24  2  0
 24 25  1  0
 25 26  2  0
 26 27  1  0
 27 28  2  0
 28 29  1  0
 26 30  1  0
 25 31  1  0
 24 32  1  0
 22 33  2  0
  4 34  1  0
  4 35  1  0
  3 36  1  0
  3 37  1  0
  2 38  1  0
  2 39  1  0
  1 40  1  0
 33  5  1  0
 15  9  1  0
 28 23  1  0
M  END
>  <cnnaffinity>  (1) 
-5.87151

>  <filename>  (1) 
OCCCc1nc(-c2cccnc2)n(Cc2c(Cl)cccc2Cl)n1

$$$$
