
     RDKit          3D

 31 32  0  0  0  0  0  0  0  0999 V2000
    7.5706    6.1344   22.0522 H   0  0  0  0  0  0  0  0  0  0  0  0
    6.9915    5.6528   22.6539 O   0  0  0  0  0  0  0  0  0  0  0  0
    7.0203    4.3069   22.2171 C   0  0  0  0  0  0  0  0  0  0  0  0
    6.8295    4.2431   21.1400 H   0  0  0  0  0  0  0  0  0  0  0  0
    6.1683    3.8055   22.6863 H   0  0  0  0  0  0  0  0  0  0  0  0
    8.3314    3.6125   22.5859 C   0  0  0  0  0  0  0  0  0  0  0  0
    8.4200    3.6170   23.6812 H   0  0  0  0  0  0  0  0  0  0  0  0
    9.1713    4.2211   22.2221 H   0  0  0  0  0  0  0  0  0  0  0  0
    8.4610    2.1816   22.0462 C   0  0  0  0  0  0  0  0  0  0  0  0
    9.5003    1.8454   22.1454 H   0  0  0  0  0  0  0  0  0  0  0  0
    8.2448    2.1570   20.9678 H   0  0  0  0  0  0  0  0  0  0  0  0
    7.5521    1.1662   22.7550 C   0  0  0  0  0  0  0  0  0  0  0  0
    6.5077    1.4868   22.6611 H   0  0  0  0  0  0  0  0  0  0  0  0
    7.7596    1.1790   23.8289 H   0  0  0  0  0  0  0  0  0  0  0  0
    7.7449   -0.2184   22.2235 C   0  0  0  0  0  0  0  0  0  0  0  0
    8.4961   -1.2785   22.7751 C   0  0  0  0  0  0  0  0  0  0  0  0
    8.9889   -1.3042   23.7402 H   0  0  0  0  0  0  0  0  0  0  0  0
    8.6034   -2.3091   21.9478 N   0  0  0  0  0  0  0  0  0  0  0  0
    7.9324   -1.9053   20.8549 N   0  0  0  0  0  0  0  0  0  0  0  0
    7.8343   -2.5208   20.0637 H   0  0  0  0  0  0  0  0  0  0  0  0
    7.3894   -0.6665   20.9651 C   0  0  0  0  0  0  0  0  0  0  0  0
    6.6521    0.0078   19.8840 C   0  0  0  0  0  0  0  0  0  0  0  0
    7.1539    0.0662   18.5685 C   0  0  0  0  0  0  0  0  0  0  0  0
    8.1108   -0.3971   18.3339 H   0  0  0  0  0  0  0  0  0  0  0  0
    6.5500    0.6893   17.5497 N   0  0  0  0  0  0  0  0  0  0  0  0
    5.3862    1.3067   17.8177 C   0  0  0  0  0  0  0  0  0  0  0  0
    4.9126    1.8018   16.9754 H   0  0  0  0  0  0  0  0  0  0  0  0
    4.7966    1.3195   19.0860 C   0  0  0  0  0  0  0  0  0  0  0  0
    3.8647    1.8459   19.2439 H   0  0  0  0  0  0  0  0  0  0  0  0
    5.4367    0.6610   20.1408 C   0  0  0  0  0  0  0  0  0  0  0  0
    5.0173    0.6320   21.1509 H   0  0  0  0  0  0  0  0  0  0  0  0
  1  2  1  0
  2  3  1  0
  3  4  1  0
  3  5  1  0
  3  6  1  0
  6  7  1  0
  6  8  1  0
  6  9  1  0
  9 10  1  0
  9 11  1  0
  9 12  1  0
 12 13  1  0
 12 14  1  0
 12 15  1  0
 15 16  1  0
 16 17  1  0
 16 18  2  0
 18 19  1  0
 19 20  1  0
 19 21  1  0
 21 22  1  0
 22 23  2  0
 23 24  1  0
 23 25  1  0
 25 26  2  0
 26 27  1  0
 26 28  1  0
 28 29  1  0
 28 30  2  0
 30 31  1  0
 21 15  2  0
 30 22  1  0
M  END
>  <cnnaffinity>  (1) 
-4.82359

>  <filename>  (1) 
OCCCCc1cn[nH]c1-c1cccnc1

$$$$
