
     RDKit          3D

 25 26  0  0  0  0  0  0  0  0999 V2000
    8.2629    3.1774   21.8665 H   0  0  0  0  0  0  0  0  0  0  0  0
    8.3814    2.3630   21.3616 O   0  0  0  0  0  0  0  0  0  0  0  0
    9.6238    1.7747   21.6935 C   0  0  0  0  0  0  0  0  0  0  0  0
   10.4709    2.4156   21.3994 H   0  0  0  0  0  0  0  0  0  0  0  0
    9.7221    1.5808   22.7727 H   0  0  0  0  0  0  0  0  0  0  0  0
    9.7071    0.4413   20.9447 C   0  0  0  0  0  0  0  0  0  0  0  0
   10.7191    0.0351   21.0575 H   0  0  0  0  0  0  0  0  0  0  0  0
    9.5597    0.6582   19.8854 H   0  0  0  0  0  0  0  0  0  0  0  0
    8.6691   -0.5551   21.3665 C   0  0  0  0  0  0  0  0  0  0  0  0
    7.3437   -0.6967   20.9867 C   0  0  0  0  0  0  0  0  0  0  0  0
    6.6553    0.0178   19.8940 C   0  0  0  0  0  0  0  0  0  0  0  0
    7.1634    0.0770   18.5811 C   0  0  0  0  0  0  0  0  0  0  0  0
    8.1061   -0.4149   18.3437 H   0  0  0  0  0  0  0  0  0  0  0  0
    6.5515    0.6806   17.5482 N   0  0  0  0  0  0  0  0  0  0  0  0
    5.3909    1.3012   17.8166 C   0  0  0  0  0  0  0  0  0  0  0  0
    4.9187    1.8044   16.9729 H   0  0  0  0  0  0  0  0  0  0  0  0
    4.7996    1.3165   19.0837 C   0  0  0  0  0  0  0  0  0  0  0  0
    3.8719    1.8455   19.2366 H   0  0  0  0  0  0  0  0  0  0  0  0
    5.4333    0.6557   20.1359 C   0  0  0  0  0  0  0  0  0  0  0  0
    5.0230    0.6418   21.1490 H   0  0  0  0  0  0  0  0  0  0  0  0
    6.8051   -1.6378   21.9010 C   0  0  0  0  0  0  0  0  0  0  0  0
    5.7971   -2.0295   21.9320 H   0  0  0  0  0  0  0  0  0  0  0  0
    7.7158   -2.0758   22.7603 N   0  0  0  0  0  0  0  0  0  0  0  0
    8.8321   -1.4087   22.4145 N   0  0  0  0  0  0  0  0  0  0  0  0
    9.6563   -1.5191   22.9832 H   0  0  0  0  0  0  0  0  0  0  0  0
  1  2  1  0
  2  3  1  0
  3  4  1  0
  3  5  1  0
  3  6  1  0
  6  7  1  0
  6  8  1  0
  6  9  1  0
  9 10  2  0
 10 11  1  0
 11 12  2  0
 12 13  1  0
 12 14  1  0
 14 15  2  0
 15 16  1  0
 15 17  1  0
 17 18  1  0
 17 19  2  0
 19 20  1  0
 10 21  1  0
 21 22  1  0
 21 23  2  0
 23 24  1  0
 24 25  1  0
 24  9  1  0
 19 11  1  0
M  END
>  <cnnaffinity>  (1) 
-4.3143

>  <filename>  (1) 
OCCc1[nH]ncc1-c1cccnc1

$$$$
