
     RDKit          3D

 39 41  0  0  0  0  0  0  0  0999 V2000
    8.7056   -5.4291   25.1242 O   0  0  0  0  0  0  0  0  0  0  0  0
    7.8792   -5.6326   23.9794 C   0  0  0  0  0  0  0  0  0  0  0  0
    8.0942   -4.4941   22.9869 C   0  0  0  0  0  0  0  0  0  0  0  0
    7.5278   -3.1678   23.5237 C   0  0  0  0  0  0  0  0  0  0  0  0
    7.6519   -2.0573   22.5250 C   0  0  0  0  0  0  0  0  0  0  0  0
    6.7510   -1.7781   21.6120 N   0  0  0  0  0  0  0  0  0  0  0  0
    7.2926   -0.7205   20.9690 N   0  0  0  0  0  0  0  0  0  0  0  0
    6.6543   -0.0303   19.9300 C   0  0  0  0  0  0  0  0  0  0  0  0
    5.4260    0.6023   20.1487 C   0  0  0  0  0  0  0  0  0  0  0  0
    4.8425    1.2830   19.0816 C   0  0  0  0  0  0  0  0  0  0  0  0
    5.4699    1.3002   17.8331 C   0  0  0  0  0  0  0  0  0  0  0  0
    6.6421    0.6745   17.6124 N   0  0  0  0  0  0  0  0  0  0  0  0
    7.2195    0.0307   18.6451 C   0  0  0  0  0  0  0  0  0  0  0  0
    8.1689   -0.4737   18.4783 H   0  0  0  0  0  0  0  0  0  0  0  0
    5.0020    1.8376   17.0151 H   0  0  0  0  0  0  0  0  0  0  0  0
    3.9072    1.8147   19.2074 H   0  0  0  0  0  0  0  0  0  0  0  0
    4.9557    0.5793   21.1311 H   0  0  0  0  0  0  0  0  0  0  0  0
    8.5196   -0.4223   21.5568 C   0  0  0  0  0  0  0  0  0  0  0  0
    9.4399    0.7199   21.2458 C   0  0  0  0  0  0  0  0  0  0  0  0
    8.9197    1.9994   21.8768 C   0  0  0  0  0  0  0  0  0  0  0  0
    7.6513    2.4789   21.5418 C   0  0  0  0  0  0  0  0  0  0  0  0
    7.1907    3.6541   22.1306 C   0  0  0  0  0  0  0  0  0  0  0  0
    5.4562    4.3549   21.7182 Br  0  0  0  0  0  0  0  0  0  0  0  0
    8.0286    4.3241   23.0278 C   0  0  0  0  0  0  0  0  0  0  0  0
    9.2425    3.8627   23.3806 N   0  0  0  0  0  0  0  0  0  0  0  0
    9.6666    2.7134   22.8311 C   0  0  0  0  0  0  0  0  0  0  0  0
   10.6257    2.3189   23.1537 H   0  0  0  0  0  0  0  0  0  0  0  0
    7.6828    5.2496   23.4742 H   0  0  0  0  0  0  0  0  0  0  0  0
    7.0494    1.9459   20.8167 H   0  0  0  0  0  0  0  0  0  0  0  0
    9.5148    0.8421   20.1666 H   0  0  0  0  0  0  0  0  0  0  0  0
   10.4406    0.4739   21.6160 H   0  0  0  0  0  0  0  0  0  0  0  0
    8.7674   -1.2455   22.5312 N   0  0  0  0  0  0  0  0  0  0  0  0
    8.0784   -2.8817   24.4239 H   0  0  0  0  0  0  0  0  0  0  0  0
    6.4754   -3.2901   23.7908 H   0  0  0  0  0  0  0  0  0  0  0  0
    7.6016   -4.7475   22.0438 H   0  0  0  0  0  0  0  0  0  0  0  0
    9.1653   -4.3897   22.7900 H   0  0  0  0  0  0  0  0  0  0  0  0
    8.1347   -6.5848   23.5053 H   0  0  0  0  0  0  0  0  0  0  0  0
    6.8272   -5.6745   24.2808 H   0  0  0  0  0  0  0  0  0  0  0  0
    9.6355   -5.3206   24.8614 H   0  0  0  0  0  0  0  0  0  0  0  0
  1  2  1  0
  2  3  1  0
  3  4  1  0
  4  5  1  0
  5  6  2  0
  6  7  1  0
  7  8  1  0
  8  9  2  0
  9 10  1  0
 10 11  2  0
 11 12  1  0
 12 13  2  0
 13 14  1  0
 11 15  1  0
 10 16  1  0
  9 17  1  0
  7 18  1  0
 18 19  1  0
 19 20  1  0
 20 21  2  0
 21 22  1  0
 22 23  1  0
 22 24  2  0
 24 25  1  0
 25 26  2  0
 26 27  1  0
 24 28  1  0
 21 29  1  0
 19 30  1  0
 19 31  1  0
 18 32  2  0
  4 33  1  0
  4 34  1  0
  3 35  1  0
  3 36  1  0
  2 37  1  0
  2 38  1  0
  1 39  1  0
 32  5  1  0
 13  8  1  0
 26 20  1  0
M  END
>  <cnnaffinity>  (1) 
-5.95187

>  <filename>  (1) 
OCCCc1nc(Cc2cncc(Br)c2)n(-c2cccnc2)n1

$$$$
