
     RDKit          3D

 32 34  0  0  0  0  0  0  0  0999 V2000
    8.8960    1.3715   25.6812 H   0  0  0  0  0  0  0  0  0  0  0  0
    8.1988    1.0306   25.1098 O   0  0  0  0  0  0  0  0  0  0  0  0
    8.2655    1.7068   23.8614 C   0  0  0  0  0  0  0  0  0  0  0  0
    8.1182    2.7884   24.0086 H   0  0  0  0  0  0  0  0  0  0  0  0
    9.2530    1.5887   23.3878 H   0  0  0  0  0  0  0  0  0  0  0  0
    7.1612    1.1617   22.9490 C   0  0  0  0  0  0  0  0  0  0  0  0
    6.2525    1.1271   23.5684 H   0  0  0  0  0  0  0  0  0  0  0  0
    6.9660    1.8836   22.1439 H   0  0  0  0  0  0  0  0  0  0  0  0
    7.4247   -0.2105   22.3598 C   0  0  0  0  0  0  0  0  0  0  0  0
    7.2498   -0.6931   21.0175 C   0  0  0  0  0  0  0  0  0  0  0  0
    6.6161    0.0105   19.8928 C   0  0  0  0  0  0  0  0  0  0  0  0
    7.1540    0.0079   18.5908 C   0  0  0  0  0  0  0  0  0  0  0  0
    8.0740   -0.5280   18.3542 H   0  0  0  0  0  0  0  0  0  0  0  0
    6.5994    0.6506   17.5546 N   0  0  0  0  0  0  0  0  0  0  0  0
    5.4490    1.3073   17.7744 C   0  0  0  0  0  0  0  0  0  0  0  0
    5.0202    1.8355   16.9218 H   0  0  0  0  0  0  0  0  0  0  0  0
    4.8064    1.3333   19.0139 C   0  0  0  0  0  0  0  0  0  0  0  0
    3.8633    1.8544   19.1270 H   0  0  0  0  0  0  0  0  0  0  0  0
    5.3987    0.6817   20.0895 C   0  0  0  0  0  0  0  0  0  0  0  0
    4.9184    0.6647   21.0714 H   0  0  0  0  0  0  0  0  0  0  0  0
    7.6547   -1.9567   20.8883 N   0  0  0  0  0  0  0  0  0  0  0  0
    7.9986   -2.2966   22.1280 N   0  0  0  0  0  0  0  0  0  0  0  0
    7.9153   -1.3161   23.0377 C   0  0  0  0  0  0  0  0  0  0  0  0
    8.4313   -1.8134   24.3647 C   0  0  0  0  0  0  0  0  0  0  0  0
    7.6886   -1.6802   25.1524 H   0  0  0  0  0  0  0  0  0  0  0  0
    9.3280   -1.2555   24.6555 H   0  0  0  0  0  0  0  0  0  0  0  0
    8.7483   -3.3132   24.1002 C   0  0  0  0  0  0  0  0  0  0  0  0
    9.7627   -3.5505   24.4227 H   0  0  0  0  0  0  0  0  0  0  0  0
    8.0728   -3.9781   24.6410 H   0  0  0  0  0  0  0  0  0  0  0  0
    8.5861   -3.5318   22.5741 C   0  0  0  0  0  0  0  0  0  0  0  0
    9.5483   -3.6389   22.0840 H   0  0  0  0  0  0  0  0  0  0  0  0
    7.9360   -4.3719   22.3176 H   0  0  0  0  0  0  0  0  0  0  0  0
  1  2  1  0
  2  3  1  0
  3  4  1  0
  3  5  1  0
  3  6  1  0
  6  7  1  0
  6  8  1  0
  6  9  1  0
  9 10  1  0
 10 11  1  0
 11 12  2  0
 12 13  1  0
 12 14  1  0
 14 15  2  0
 15 16  1  0
 15 17  1  0
 17 18  1  0
 17 19  2  0
 19 20  1  0
 10 21  2  0
 21 22  1  0
 22 23  1  0
 23 24  1  0
 24 25  1  0
 24 26  1  0
 24 27  1  0
 27 28  1  0
 27 29  1  0
 27 30  1  0
 30 31  1  0
 30 32  1  0
 23  9  2  0
 19 11  1  0
 30 22  1  0
M  END
>  <cnnaffinity>  (1) 
-4.83123

>  <filename>  (1) 
OCCc1c(-c2cccnc2)nn2c1CCC2

$$$$
