
     RDKit          3D

 40 42  0  0  0  0  0  0  0  0999 V2000
    9.3718   -5.5832   24.6146 O   0  0  0  0  0  0  0  0  0  0  0  0
    8.2351   -5.6406   23.7725 C   0  0  0  0  0  0  0  0  0  0  0  0
    7.7591   -4.2621   23.3318 C   0  0  0  0  0  0  0  0  0  0  0  0
    8.8002   -3.5028   22.4996 C   0  0  0  0  0  0  0  0  0  0  0  0
    8.3586   -2.1615   22.0622 C   0  0  0  0  0  0  0  0  0  0  0  0
    8.4941   -1.0769   22.7944 N   0  0  0  0  0  0  0  0  0  0  0  0
    7.8746   -0.1353   22.0458 N   0  0  0  0  0  0  0  0  0  0  0  0
    7.8012    1.2474   22.4931 C   0  0  0  0  0  0  0  0  0  0  0  0
    6.5563    1.5626   23.3054 C   0  0  0  0  0  0  0  0  0  0  0  0
    6.2306    0.7870   24.4239 C   0  0  0  0  0  0  0  0  0  0  0  0
    5.0904    1.0555   25.1836 C   0  0  0  0  0  0  0  0  0  0  0  0
    4.2553    2.1232   24.8392 C   0  0  0  0  0  0  0  0  0  0  0  0
    4.5629    2.9274   23.7390 C   0  0  0  0  0  0  0  0  0  0  0  0
    5.7103    2.6362   23.0023 C   0  0  0  0  0  0  0  0  0  0  0  0
    5.9914    3.4203   21.9422 F   0  0  0  0  0  0  0  0  0  0  0  0
    3.9506    3.7746   23.4393 H   0  0  0  0  0  0  0  0  0  0  0  0
    3.3703    2.3386   25.4319 H   0  0  0  0  0  0  0  0  0  0  0  0
    4.8627    0.4314   26.0407 H   0  0  0  0  0  0  0  0  0  0  0  0
    6.8866   -0.0417   24.6768 H   0  0  0  0  0  0  0  0  0  0  0  0
    7.8511    1.8896   21.6143 H   0  0  0  0  0  0  0  0  0  0  0  0
    8.6967    1.4191   23.0960 H   0  0  0  0  0  0  0  0  0  0  0  0
    7.3935   -0.7070   20.9171 C   0  0  0  0  0  0  0  0  0  0  0  0
    6.6459    0.0214   19.8971 C   0  0  0  0  0  0  0  0  0  0  0  0
    5.4305    0.6687   20.1562 C   0  0  0  0  0  0  0  0  0  0  0  0
    4.7981    1.3187   19.0991 C   0  0  0  0  0  0  0  0  0  0  0  0
    5.4019    1.2948   17.8377 C   0  0  0  0  0  0  0  0  0  0  0  0
    6.5632    0.6735   17.5808 N   0  0  0  0  0  0  0  0  0  0  0  0
    7.1621    0.0483   18.5970 C   0  0  0  0  0  0  0  0  0  0  0  0
    8.1099   -0.4397   18.3802 H   0  0  0  0  0  0  0  0  0  0  0  0
    4.9256    1.7838   16.9924 H   0  0  0  0  0  0  0  0  0  0  0  0
    3.8654    1.8492   19.2487 H   0  0  0  0  0  0  0  0  0  0  0  0
    4.9970    0.6409   21.1578 H   0  0  0  0  0  0  0  0  0  0  0  0
    7.7116   -1.9814   20.8814 N   0  0  0  0  0  0  0  0  0  0  0  0
    9.7488   -3.4133   23.0356 H   0  0  0  0  0  0  0  0  0  0  0  0
    8.9316   -4.0480   21.5719 H   0  0  0  0  0  0  0  0  0  0  0  0
    7.4960   -3.6706   24.2173 H   0  0  0  0  0  0  0  0  0  0  0  0
    6.8462   -4.3789   22.7308 H   0  0  0  0  0  0  0  0  0  0  0  0
    8.5386   -6.2432   22.9080 H   0  0  0  0  0  0  0  0  0  0  0  0
    7.4045   -6.1682   24.2608 H   0  0  0  0  0  0  0  0  0  0  0  0
    9.0791   -5.2220   25.4602 H   0  0  0  0  0  0  0  0  0  0  0  0
  1  2  1  0
  2  3  1  0
  3  4  1  0
  4  5  1  0
  5  6  2  0
  6  7  1  0
  7  8  1  0
  8  9  1  0
  9 10  2  0
 10 11  1  0
 11 12  2  0
 12 13  1  0
 13 14  2  0
 14 15  1  0
 13 16  1  0
 12 17  1  0
 11 18  1  0
 10 19  1  0
  8 20  1  0
  8 21  1  0
  7 22  1  0
 22 23  1  0
 23 24  2  0
 24 25  1  0
 25 26  2  0
 26 27  1  0
 27 28  2  0
 28 29  1  0
 26 30  1  0
 25 31  1  0
 24 32  1  0
 22 33  2  0
  4 34  1  0
  4 35  1  0
  3 36  1  0
  3 37  1  0
  2 38  1  0
  2 39  1  0
  1 40  1  0
 33  5  1  0
 14  9  1  0
 28 23  1  0
M  END
>  <cnnaffinity>  (1) 
-5.28512

>  <filename>  (1) 
OCCCc1nc(-c2cccnc2)n(Cc2ccccc2F)n1

$$$$
