
     RDKit          3D

 40 42  0  0  0  0  0  0  0  0999 V2000
    6.5666   -0.8228   26.5964 O   0  0  0  0  0  0  0  0  0  0  0  0
    7.3132   -1.3405   25.5170 C   0  0  0  0  0  0  0  0  0  0  0  0
    6.5836   -2.5081   24.8471 C   0  0  0  0  0  0  0  0  0  0  0  0
    7.3393   -3.1318   23.6476 C   0  0  0  0  0  0  0  0  0  0  0  0
    7.6310   -2.1550   22.5524 C   0  0  0  0  0  0  0  0  0  0  0  0
    6.7546   -1.8011   21.6384 N   0  0  0  0  0  0  0  0  0  0  0  0
    7.3932   -0.7981   20.9691 N   0  0  0  0  0  0  0  0  0  0  0  0
    6.7157   -0.1316   19.9016 C   0  0  0  0  0  0  0  0  0  0  0  0
    5.4514    0.4305   20.1239 C   0  0  0  0  0  0  0  0  0  0  0  0
    4.8474    1.1368   19.0820 C   0  0  0  0  0  0  0  0  0  0  0  0
    5.4987    1.2180   17.8447 C   0  0  0  0  0  0  0  0  0  0  0  0
    6.6793    0.6261   17.6029 N   0  0  0  0  0  0  0  0  0  0  0  0
    7.2673   -0.0304   18.6123 C   0  0  0  0  0  0  0  0  0  0  0  0
    8.2172   -0.5124   18.3828 H   0  0  0  0  0  0  0  0  0  0  0  0
    5.0532    1.7693   17.0190 H   0  0  0  0  0  0  0  0  0  0  0  0
    3.8871    1.6238   19.2168 H   0  0  0  0  0  0  0  0  0  0  0  0
    4.9683    0.3005   21.0944 H   0  0  0  0  0  0  0  0  0  0  0  0
    8.6113   -0.5896   21.5539 C   0  0  0  0  0  0  0  0  0  0  0  0
    9.5389    0.5508   21.2603 C   0  0  0  0  0  0  0  0  0  0  0  0
    9.0430    1.8857   21.8483 C   0  0  0  0  0  0  0  0  0  0  0  0
    8.0620    2.6262   21.2838 C   0  0  0  0  0  0  0  0  0  0  0  0
    7.6998    4.2073   22.5009 C   0  0  0  0  0  0  0  0  0  0  0  0
    7.6710    4.1337   22.8726 C   0  0  0  0  0  0  0  0  0  0  0  0
    7.9361    5.7593   24.0931 F   0  0  0  0  0  0  0  0  0  0  0  0
    8.7945    3.7011   23.5171 C   0  0  0  0  0  0  0  0  0  0  0  0
    9.4342    2.4514   23.1485 C   0  0  0  0  0  0  0  0  0  0  0  0
   10.5844    1.6943   24.1804 Cl  0  0  0  0  0  0  0  0  0  0  0  0
    8.3690    3.7249   24.4720 H   0  0  0  0  0  0  0  0  0  0  0  0
    7.5811    4.7094   21.4772 H   0  0  0  0  0  0  0  0  0  0  0  0
    7.4414    2.3326   20.4313 H   0  0  0  0  0  0  0  0  0  0  0  0
   10.5170    0.2655   21.6593 H   0  0  0  0  0  0  0  0  0  0  0  0
    9.6547    0.6013   20.1671 H   0  0  0  0  0  0  0  0  0  0  0  0
    8.8026   -1.4658   22.5182 N   0  0  0  0  0  0  0  0  0  0  0  0
    6.7670   -3.9646   23.2283 H   0  0  0  0  0  0  0  0  0  0  0  0
    8.3061   -3.5215   23.9820 H   0  0  0  0  0  0  0  0  0  0  0  0
    5.5924   -2.1550   24.5361 H   0  0  0  0  0  0  0  0  0  0  0  0
    6.4129   -3.2944   25.5972 H   0  0  0  0  0  0  0  0  0  0  0  0
    8.3298   -1.6431   25.8263 H   0  0  0  0  0  0  0  0  0  0  0  0
    7.4428   -0.5132   24.8093 H   0  0  0  0  0  0  0  0  0  0  0  0
    6.3994   -1.5502   27.2084 H   0  0  0  0  0  0  0  0  0  0  0  0
  1  2  1  0
  2  3  1  0
  3  4  1  0
  4  5  1  0
  5  6  2  0
  6  7  1  0
  7  8  1  0
  8  9  2  0
  9 10  1  0
 10 11  2  0
 11 12  1  0
 12 13  2  0
 13 14  1  0
 11 15  1  0
 10 16  1  0
  9 17  1  0
  7 18  1  0
 18 19  1  0
 19 20  1  0
 20 21  2  0
 21 22  1  0
 22 23  2  0
 23 24  1  0
 23 25  1  0
 25 26  2  0
 26 27  1  0
 25 28  1  0
 22 29  1  0
 21 30  1  0
 19 31  1  0
 19 32  1  0
 18 33  2  0
  4 34  1  0
  4 35  1  0
  3 36  1  0
  3 37  1  0
  2 38  1  0
  2 39  1  0
  1 40  1  0
 33  5  1  0
 13  8  1  0
 26 20  1  0
M  END
>  <cnnaffinity>  (1) 
-5.82633

>  <filename>  (1) 
OCCCc1nc(Cc2ccc(F)cc2Cl)n(-c2cccnc2)n1

$$$$
