
     RDKit          3D

 24 25  0  0  0  0  0  0  0  0999 V2000
   10.6955   -1.3254   24.7258 H   0  0  0  0  0  0  0  0  0  0  0  0
   10.8035   -0.6135   24.0846 O   0  0  0  0  0  0  0  0  0  0  0  0
   11.1494   -1.1693   22.8393 C   0  0  0  0  0  0  0  0  0  0  0  0
   11.1004   -0.3354   22.1327 H   0  0  0  0  0  0  0  0  0  0  0  0
   12.1797   -1.5626   22.8009 H   0  0  0  0  0  0  0  0  0  0  0  0
   10.1889   -2.2696   22.3928 C   0  0  0  0  0  0  0  0  0  0  0  0
   10.0756   -3.0418   23.1631 H   0  0  0  0  0  0  0  0  0  0  0  0
   10.5640   -2.7108   21.4676 H   0  0  0  0  0  0  0  0  0  0  0  0
    8.8590   -1.7057   22.0570 C   0  0  0  0  0  0  0  0  0  0  0  0
    8.6369   -1.1010   20.8585 N   0  0  0  0  0  0  0  0  0  0  0  0
    7.3850   -0.6990   20.9502 C   0  0  0  0  0  0  0  0  0  0  0  0
    6.6348    0.0170   19.9142 C   0  0  0  0  0  0  0  0  0  0  0  0
    7.1678    0.0540   18.6159 C   0  0  0  0  0  0  0  0  0  0  0  0
    8.1175   -0.4262   18.3890 H   0  0  0  0  0  0  0  0  0  0  0  0
    6.5662    0.6635   17.5909 N   0  0  0  0  0  0  0  0  0  0  0  0
    5.4052    1.2898   17.8259 C   0  0  0  0  0  0  0  0  0  0  0  0
    4.9521    1.7967   16.9748 H   0  0  0  0  0  0  0  0  0  0  0  0
    4.7937    1.3171   19.0829 C   0  0  0  0  0  0  0  0  0  0  0  0
    3.8614    1.8532   19.2175 H   0  0  0  0  0  0  0  0  0  0  0  0
    5.4160    0.6722   20.1471 C   0  0  0  0  0  0  0  0  0  0  0  0
    4.9530    0.7055   21.1363 H   0  0  0  0  0  0  0  0  0  0  0  0
    6.8843   -1.0656   22.1472 N   0  0  0  0  0  0  0  0  0  0  0  0
    5.9576   -0.9178   22.5180 H   0  0  0  0  0  0  0  0  0  0  0  0
    7.8276   -1.7292   22.8641 N   0  0  0  0  0  0  0  0  0  0  0  0
  1  2  1  0
  2  3  1  0
  3  4  1  0
  3  5  1  0
  3  6  1  0
  6  7  1  0
  6  8  1  0
  6  9  1  0
  9 10  1  0
 10 11  2  0
 11 12  1  0
 12 13  2  0
 13 14  1  0
 13 15  1  0
 15 16  2  0
 16 17  1  0
 16 18  1  0
 18 19  1  0
 18 20  2  0
 20 21  1  0
 11 22  1  0
 22 23  1  0
 22 24  1  0
 24  9  2  0
 20 12  1  0
M  END
>  <cnnaffinity>  (1) 
-4.25489

>  <filename>  (1) 
OCCc1n[nH]c(-c2cccnc2)n1

$$$$
