
     RDKit          3D

 26 27  0  0  0  0  0  0  0  0999 V2000
   10.9776    1.9297   23.4334 H   0  0  0  0  0  0  0  0  0  0  0  0
   10.8063    1.2315   22.7925 O   0  0  0  0  0  0  0  0  0  0  0  0
   11.2088    0.0062   23.3680 C   0  0  0  0  0  0  0  0  0  0  0  0
   12.2925   -0.0032   23.5703 H   0  0  0  0  0  0  0  0  0  0  0  0
   10.6873   -0.2000   24.3162 H   0  0  0  0  0  0  0  0  0  0  0  0
   10.8714   -1.0973   22.3800 C   0  0  0  0  0  0  0  0  0  0  0  0
   11.2590   -2.0453   22.7550 H   0  0  0  0  0  0  0  0  0  0  0  0
   11.3695   -0.8872   21.4307 H   0  0  0  0  0  0  0  0  0  0  0  0
    9.3946   -1.2403   22.1479 C   0  0  0  0  0  0  0  0  0  0  0  0
    8.7180   -2.0269   22.9992 N   0  0  0  0  0  0  0  0  0  0  0  0
    7.3890   -2.1850   22.8632 N   0  0  0  0  0  0  0  0  0  0  0  0
    6.7442   -1.5272   21.8997 C   0  0  0  0  0  0  0  0  0  0  0  0
    5.6767   -1.7040   21.8293 H   0  0  0  0  0  0  0  0  0  0  0  0
    7.3885   -0.6880   20.9612 C   0  0  0  0  0  0  0  0  0  0  0  0
    6.6504    0.0222   19.8916 C   0  0  0  0  0  0  0  0  0  0  0  0
    7.1661    0.0810   18.5821 C   0  0  0  0  0  0  0  0  0  0  0  0
    8.1063   -0.4195   18.3616 H   0  0  0  0  0  0  0  0  0  0  0  0
    6.5549    0.6832   17.5550 N   0  0  0  0  0  0  0  0  0  0  0  0
    5.3942    1.3007   17.8218 C   0  0  0  0  0  0  0  0  0  0  0  0
    4.9167    1.7928   16.9803 H   0  0  0  0  0  0  0  0  0  0  0  0
    4.7978    1.3191   19.0893 C   0  0  0  0  0  0  0  0  0  0  0  0
    3.8686    1.8483   19.2453 H   0  0  0  0  0  0  0  0  0  0  0  0
    5.4249    0.6550   20.1429 C   0  0  0  0  0  0  0  0  0  0  0  0
    5.0099    0.6424   21.1555 H   0  0  0  0  0  0  0  0  0  0  0  0
    8.7618   -0.5637   21.0915 C   0  0  0  0  0  0  0  0  0  0  0  0
    9.3387    0.0985   20.4472 H   0  0  0  0  0  0  0  0  0  0  0  0
  1  2  1  0
  2  3  1  0
  3  4  1  0
  3  5  1  0
  3  6  1  0
  6  7  1  0
  6  8  1  0
  6  9  1  0
  9 10  2  0
 10 11  1  0
 11 12  2  0
 12 13  1  0
 12 14  1  0
 14 15  1  0
 15 16  2  0
 16 17  1  0
 16 18  1  0
 18 19  2  0
 19 20  1  0
 19 21  1  0
 21 22  1  0
 21 23  2  0
 23 24  1  0
 14 25  2  0
 25 26  1  0
 25  9  1  0
 23 15  1  0
M  END
>  <cnnaffinity>  (1) 
-4.43294

>  <filename>  (1) 
OCCc1cc(-c2cccnc2)cnn1

$$$$
