
     RDKit          3D

 40 42  0  0  0  0  0  0  0  0999 V2000
    6.4854   -5.1266   21.1349 O   0  0  0  0  0  0  0  0  0  0  0  0
    6.3969   -4.7357   22.4874 C   0  0  0  0  0  0  0  0  0  0  0  0
    7.7686   -4.4349   23.0999 C   0  0  0  0  0  0  0  0  0  0  0  0
    8.6551   -3.4997   22.2599 C   0  0  0  0  0  0  0  0  0  0  0  0
    8.0314   -2.1817   21.9765 C   0  0  0  0  0  0  0  0  0  0  0  0
    7.4910   -1.8682   20.8178 N   0  0  0  0  0  0  0  0  0  0  0  0
    7.0464   -0.5917   21.0154 N   0  0  0  0  0  0  0  0  0  0  0  0
    6.4550    0.1040   19.9184 C   0  0  0  0  0  0  0  0  0  0  0  0
    5.2704    0.8490   20.0276 C   0  0  0  0  0  0  0  0  0  0  0  0
    4.7637    1.4519   18.8691 C   0  0  0  0  0  0  0  0  0  0  0  0
    5.4608    1.3185   17.6638 C   0  0  0  0  0  0  0  0  0  0  0  0
    6.5972    0.6071   17.5532 N   0  0  0  0  0  0  0  0  0  0  0  0
    7.0601    0.0046   18.6493 C   0  0  0  0  0  0  0  0  0  0  0  0
    7.9544   -0.6026   18.5347 H   0  0  0  0  0  0  0  0  0  0  0  0
    5.1147    1.7999   16.7521 H   0  0  0  0  0  0  0  0  0  0  0  0
    3.8541    2.0448   18.8877 H   0  0  0  0  0  0  0  0  0  0  0  0
    4.7426    0.9362   20.9803 H   0  0  0  0  0  0  0  0  0  0  0  0
    7.3602   -0.2184   22.2986 C   0  0  0  0  0  0  0  0  0  0  0  0
    7.1531    1.0977   22.9921 C   0  0  0  0  0  0  0  0  0  0  0  0
    8.4653    1.6284   23.5747 C   0  0  0  0  0  0  0  0  0  0  0  0
    9.4328    2.2168   22.7345 C   0  0  0  0  0  0  0  0  0  0  0  0
    9.0173    2.5536   21.0767 Cl  0  0  0  0  0  0  0  0  0  0  0  0
   10.7227    2.5372   23.1711 C   0  0  0  0  0  0  0  0  0  0  0  0
   11.0948    2.2285   24.4810 C   0  0  0  0  0  0  0  0  0  0  0  0
   10.1565    1.6840   25.3607 C   0  0  0  0  0  0  0  0  0  0  0  0
    8.8490    1.4477   24.9215 C   0  0  0  0  0  0  0  0  0  0  0  0
    7.6788    0.9779   26.1329 Cl  0  0  0  0  0  0  0  0  0  0  0  0
   10.4141    1.4277   26.3807 H   0  0  0  0  0  0  0  0  0  0  0  0
   12.1034    2.4505   24.8258 H   0  0  0  0  0  0  0  0  0  0  0  0
   11.4196    3.0093   22.4848 H   0  0  0  0  0  0  0  0  0  0  0  0
    6.7303    1.8286   22.2998 H   0  0  0  0  0  0  0  0  0  0  0  0
    6.4419    0.9297   23.8058 H   0  0  0  0  0  0  0  0  0  0  0  0
    7.9552   -1.2220   22.9191 N   0  0  0  0  0  0  0  0  0  0  0  0
    9.6018   -3.3190   22.7763 H   0  0  0  0  0  0  0  0  0  0  0  0
    8.8664   -3.9446   21.2887 H   0  0  0  0  0  0  0  0  0  0  0  0
    7.6131   -3.9925   24.0923 H   0  0  0  0  0  0  0  0  0  0  0  0
    8.3039   -5.3818   23.2372 H   0  0  0  0  0  0  0  0  0  0  0  0
    5.7087   -3.8846   22.6119 H   0  0  0  0  0  0  0  0  0  0  0  0
    5.9448   -5.5735   23.0347 H   0  0  0  0  0  0  0  0  0  0  0  0
    6.7637   -4.3485   20.6228 H   0  0  0  0  0  0  0  0  0  0  0  0
  1  2  1  0
  2  3  1  0
  3  4  1  0
  4  5  1  0
  5  6  2  0
  6  7  1  0
  7  8  1  0
  8  9  2  0
  9 10  1  0
 10 11  2  0
 11 12  1  0
 12 13  2  0
 13 14  1  0
 11 15  1  0
 10 16  1  0
  9 17  1  0
  7 18  1  0
 18 19  1  0
 19 20  1  0
 20 21  2  0
 21 22  1  0
 21 23  1  0
 23 24  2  0
 24 25  1  0
 25 26  2  0
 26 27  1  0
 25 28  1  0
 24 29  1  0
 23 30  1  0
 19 31  1  0
 19 32  1  0
 18 33  2  0
  4 34  1  0
  4 35  1  0
  3 36  1  0
  3 37  1  0
  2 38  1  0
  2 39  1  0
  1 40  1  0
 33  5  1  0
 13  8  1  0
 26 20  1  0
M  END
>  <cnnaffinity>  (1) 
-5.78166

>  <filename>  (1) 
OCCCc1nc(Cc2c(Cl)cccc2Cl)n(-c2cccnc2)n1

$$$$
