
     RDKit          3D

 28 29  0  0  0  0  0  0  0  0999 V2000
   11.1852    0.6544   26.0707 H   0  0  0  0  0  0  0  0  0  0  0  0
   11.0790    0.8734   25.1395 O   0  0  0  0  0  0  0  0  0  0  0  0
   10.3932   -0.2091   24.5415 C   0  0  0  0  0  0  0  0  0  0  0  0
   10.8905   -1.1684   24.7566 H   0  0  0  0  0  0  0  0  0  0  0  0
   10.4621   -0.0563   23.4601 H   0  0  0  0  0  0  0  0  0  0  0  0
    8.9346   -0.2824   24.9898 C   0  0  0  0  0  0  0  0  0  0  0  0
    8.8931   -0.3311   26.0864 H   0  0  0  0  0  0  0  0  0  0  0  0
    8.4402    0.6514   24.6986 H   0  0  0  0  0  0  0  0  0  0  0  0
    8.1718   -1.4859   24.3971 C   0  0  0  0  0  0  0  0  0  0  0  0
    8.7087   -2.4111   24.6401 H   0  0  0  0  0  0  0  0  0  0  0  0
    7.1782   -1.5822   24.8637 H   0  0  0  0  0  0  0  0  0  0  0  0
    8.0502   -1.4238   22.9132 C   0  0  0  0  0  0  0  0  0  0  0  0
    8.7762   -2.0056   21.9047 C   0  0  0  0  0  0  0  0  0  0  0  0
    9.5860   -2.7137   22.0080 H   0  0  0  0  0  0  0  0  0  0  0  0
    8.3862   -1.5500   20.6821 N   0  0  0  0  0  0  0  0  0  0  0  0
    7.4109   -0.7004   20.9166 C   0  0  0  0  0  0  0  0  0  0  0  0
    6.6492    0.0234   19.9060 C   0  0  0  0  0  0  0  0  0  0  0  0
    7.1656    0.0566   18.6015 C   0  0  0  0  0  0  0  0  0  0  0  0
    8.1117   -0.4320   18.3801 H   0  0  0  0  0  0  0  0  0  0  0  0
    6.5638    0.6719   17.5827 N   0  0  0  0  0  0  0  0  0  0  0  0
    5.4021    1.2922   17.8353 C   0  0  0  0  0  0  0  0  0  0  0  0
    4.9304    1.7840   16.9907 H   0  0  0  0  0  0  0  0  0  0  0  0
    4.8001    1.3143   19.0978 C   0  0  0  0  0  0  0  0  0  0  0  0
    3.8693    1.8451   19.2501 H   0  0  0  0  0  0  0  0  0  0  0  0
    5.4231    0.6660   20.1596 C   0  0  0  0  0  0  0  0  0  0  0  0
    4.9687    0.6493   21.1556 H   0  0  0  0  0  0  0  0  0  0  0  0
    7.1761   -0.5869   22.2504 N   0  0  0  0  0  0  0  0  0  0  0  0
    6.5159    0.0532   22.6540 H   0  0  0  0  0  0  0  0  0  0  0  0
  1  2  1  0
  2  3  1  0
  3  4  1  0
  3  5  1  0
  3  6  1  0
  6  7  1  0
  6  8  1  0
  6  9  1  0
  9 10  1  0
  9 11  1  0
  9 12  1  0
 12 13  2  0
 13 14  1  0
 13 15  1  0
 15 16  2  0
 16 17  1  0
 17 18  2  0
 18 19  1  0
 18 20  1  0
 20 21  2  0
 21 22  1  0
 21 23  1  0
 23 24  1  0
 23 25  2  0
 25 26  1  0
 16 27  1  0
 27 28  1  0
 27 12  1  0
 25 17  1  0
M  END
>  <cnnaffinity>  (1) 
-4.62823

>  <filename>  (1) 
OCCCc1cnc(-c2cccnc2)[nH]1

$$$$
