
     RDKit          3D

 43 46  0  0  0  0  0  0  0  0999 V2000
    2.1388   -9.6697   26.2879 H   0  0  0  0  0  0  0  0  0  0  0  0
    1.5241   -8.9281   26.2493 O   0  0  0  0  0  0  0  0  0  0  0  0
    2.2936   -7.7350   26.1476 C   0  0  0  0  0  0  0  0  0  0  0  0
    1.6917   -6.9208   26.5616 H   0  0  0  0  0  0  0  0  0  0  0  0
    3.2075   -7.7897   26.7557 H   0  0  0  0  0  0  0  0  0  0  0  0
    2.6267   -7.4044   24.6923 C   0  0  0  0  0  0  0  0  0  0  0  0
    3.1143   -8.2790   24.2147 H   0  0  0  0  0  0  0  0  0  0  0  0
    1.6627   -7.2812   24.1811 H   0  0  0  0  0  0  0  0  0  0  0  0
    3.3965   -6.1685   24.5662 N   0  0  0  0  0  0  0  0  0  0  0  0
    3.2117   -5.5529   23.2527 C   0  0  0  0  0  0  0  0  0  0  0  0
    2.1413   -5.3665   23.0967 H   0  0  0  0  0  0  0  0  0  0  0  0
    3.5628   -6.1998   22.4250 H   0  0  0  0  0  0  0  0  0  0  0  0
    3.9427   -4.2220   23.1357 C   0  0  0  0  0  0  0  0  0  0  0  0
    3.4755   -3.4822   23.8071 H   0  0  0  0  0  0  0  0  0  0  0  0
    3.8020   -3.9010   22.1047 H   0  0  0  0  0  0  0  0  0  0  0  0
    5.3721   -4.3474   23.4304 N   0  0  0  0  0  0  0  0  0  0  0  0
    6.2243   -3.4009   22.8899 C   0  0  0  0  0  0  0  0  0  0  0  0
    7.5298   -3.3241   23.1798 N   0  0  0  0  0  0  0  0  0  0  0  0
    7.9363   -2.3139   22.3586 N   0  0  0  0  0  0  0  0  0  0  0  0
    9.1427   -1.6992   22.0681 C   0  0  0  0  0  0  0  0  0  0  0  0
   10.0374   -1.9377   22.6112 H   0  0  0  0  0  0  0  0  0  0  0  0
    8.8849   -0.8063   21.0739 C   0  0  0  0  0  0  0  0  0  0  0  0
    9.5352   -0.1224   20.5501 H   0  0  0  0  0  0  0  0  0  0  0  0
    7.5251   -0.8334   20.7642 N   0  0  0  0  0  0  0  0  0  0  0  0
    6.8367   -0.0538   19.7918 C   0  0  0  0  0  0  0  0  0  0  0  0
    7.3103    0.0620   18.4693 C   0  0  0  0  0  0  0  0  0  0  0  0
    8.2451   -0.4109   18.1664 H   0  0  0  0  0  0  0  0  0  0  0  0
    6.6542    0.7163   17.5020 N   0  0  0  0  0  0  0  0  0  0  0  0
    5.4929    1.3103   17.8203 C   0  0  0  0  0  0  0  0  0  0  0  0
    4.9852    1.8362   17.0161 H   0  0  0  0  0  0  0  0  0  0  0  0
    4.9464    1.2791   19.1083 C   0  0  0  0  0  0  0  0  0  0  0  0
    4.0197    1.8061   19.3136 H   0  0  0  0  0  0  0  0  0  0  0  0
    5.6293    0.5901   20.1145 C   0  0  0  0  0  0  0  0  0  0  0  0
    5.2561    0.5681   21.1390 H   0  0  0  0  0  0  0  0  0  0  0  0
    6.9558   -1.7913   21.5910 C   0  0  0  0  0  0  0  0  0  0  0  0
    5.8080   -2.4868   21.8882 C   0  0  0  0  0  0  0  0  0  0  0  0
    4.8038   -2.3267   21.5813 H   0  0  0  0  0  0  0  0  0  0  0  0
    5.5641   -4.9529   24.7587 C   0  0  0  0  0  0  0  0  0  0  0  0
    6.6319   -5.0551   24.9697 H   0  0  0  0  0  0  0  0  0  0  0  0
    5.1139   -4.3091   25.5312 H   0  0  0  0  0  0  0  0  0  0  0  0
    4.8425   -6.3145   24.8369 C   0  0  0  0  0  0  0  0  0  0  0  0
    4.9850   -6.7329   25.8401 H   0  0  0  0  0  0  0  0  0  0  0  0
    5.3170   -6.9945   24.1075 H   0  0  0  0  0  0  0  0  0  0  0  0
  1  2  1  0
  2  3  1  0
  3  4  1  0
  3  5  1  0
  3  6  1  0
  6  7  1  0
  6  8  1  0
  6  9  1  0
  9 10  1  0
 10 11  1  0
 10 12  1  0
 10 13  1  0
 13 14  1  0
 13 15  1  0
 13 16  1  0
 16 17  1  0
 17 18  2  0
 18 19  1  0
 19 20  1  0
 20 21  1  0
 20 22  2  0
 22 23  1  0
 22 24  1  0
 24 25  1  0
 25 26  2  0
 26 27  1  0
 26 28  1  0
 28 29  2  0
 29 30  1  0
 29 31  1  0
 31 32  1  0
 31 33  2  0
 33 34  1  0
 24 35  1  0
 35 36  2  0
 36 37  1  0
 16 38  1  0
 38 39  1  0
 38 40  1  0
 38 41  1  0
 41 42  1  0
 41 43  1  0
 41  9  1  0
 36 17  1  0
 35 19  1  0
 33 25  1  0
M  END
>  <cnnaffinity>  (1) 
-5.25158

>  <filename>  (1) 
OCCN1CCN(c2cc3n(-c4cccnc4)ccn3n2)CC1

$$$$
