
     RDKit          3D

 33 34  0  0  0  0  0  0  0  0999 V2000
    6.5944   -6.9446   22.8691 H   0  0  0  0  0  0  0  0  0  0  0  0
    6.3536   -6.3140   23.5583 O   0  0  0  0  0  0  0  0  0  0  0  0
    7.1240   -5.1394   23.3635 C   0  0  0  0  0  0  0  0  0  0  0  0
    8.1966   -5.3566   23.2279 H   0  0  0  0  0  0  0  0  0  0  0  0
    7.0398   -4.5382   24.2731 H   0  0  0  0  0  0  0  0  0  0  0  0
    6.6163   -4.3339   22.1772 C   0  0  0  0  0  0  0  0  0  0  0  0
    6.6331   -4.9736   21.2711 H   0  0  0  0  0  0  0  0  0  0  0  0
    5.5638   -4.0887   22.3667 H   0  0  0  0  0  0  0  0  0  0  0  0
    7.3535   -3.0874   22.0353 N   0  0  0  0  0  0  0  0  0  0  0  0
    8.3366   -3.2785   21.8519 H   0  0  0  0  0  0  0  0  0  0  0  0
    6.8333   -2.2452   20.9622 C   0  0  0  0  0  0  0  0  0  0  0  0
    7.0188   -2.6547   19.9598 H   0  0  0  0  0  0  0  0  0  0  0  0
    5.7375   -2.2202   21.0302 H   0  0  0  0  0  0  0  0  0  0  0  0
    7.3540   -0.7954   20.9844 C   0  0  0  0  0  0  0  0  0  0  0  0
    6.6524   -0.0009   19.8974 C   0  0  0  0  0  0  0  0  0  0  0  0
    7.1579    0.0636   18.5871 C   0  0  0  0  0  0  0  0  0  0  0  0
    8.1123   -0.4104   18.3589 H   0  0  0  0  0  0  0  0  0  0  0  0
    6.5563    0.6799   17.5659 N   0  0  0  0  0  0  0  0  0  0  0  0
    5.3936    1.2978   17.8261 C   0  0  0  0  0  0  0  0  0  0  0  0
    4.9176    1.7921   16.9847 H   0  0  0  0  0  0  0  0  0  0  0  0
    4.8019    1.3094   19.0932 C   0  0  0  0  0  0  0  0  0  0  0  0
    3.8741    1.8456   19.2504 H   0  0  0  0  0  0  0  0  0  0  0  0
    5.4304    0.6465   20.1435 C   0  0  0  0  0  0  0  0  0  0  0  0
    5.0087    0.6374   21.1526 H   0  0  0  0  0  0  0  0  0  0  0  0
    7.3190   -0.1494   22.4028 C   0  0  0  0  0  0  0  0  0  0  0  0
    6.8617    0.8435   22.4124 H   0  0  0  0  0  0  0  0  0  0  0  0
    6.8237   -0.7645   23.1632 H   0  0  0  0  0  0  0  0  0  0  0  0
    8.8633   -0.1336   22.4447 C   0  0  0  0  0  0  0  0  0  0  0  0
    9.3115    0.8549   22.5925 H   0  0  0  0  0  0  0  0  0  0  0  0
    9.2969   -0.8127   23.1882 H   0  0  0  0  0  0  0  0  0  0  0  0
    8.9105   -0.6680   20.9929 C   0  0  0  0  0  0  0  0  0  0  0  0
    9.4740   -1.5963   20.8246 H   0  0  0  0  0  0  0  0  0  0  0  0
    9.2826    0.0630   20.2712 H   0  0  0  0  0  0  0  0  0  0  0  0
  1  2  1  0
  2  3  1  0
  3  4  1  0
  3  5  1  0
  3  6  1  0
  6  7  1  0
  6  8  1  0
  6  9  1  0
  9 10  1  0
  9 11  1  0
 11 12  1  0
 11 13  1  0
 11 14  1  0
 14 15  1  0
 15 16  2  0
 16 17  1  0
 16 18  1  0
 18 19  2  0
 19 20  1  0
 19 21  1  0
 21 22  1  0
 21 23  2  0
 23 24  1  0
 14 25  1  0
 25 26  1  0
 25 27  1  0
 25 28  1  0
 28 29  1  0
 28 30  1  0
 28 31  1  0
 31 32  1  0
 31 33  1  0
 31 14  1  0
 23 15  1  0
M  END
>  <cnnaffinity>  (1) 
-4.32565

>  <filename>  (1) 
OCCNCC1(c2cccnc2)CCC1

$$$$
