
     RDKit          3D

 24 25  0  0  0  0  0  0  0  0999 V2000
    8.9752   -1.6630   20.4685 H   0  0  0  0  0  0  0  0  0  0  0  0
    8.7616   -0.7598   20.7659 O   0  0  0  0  0  0  0  0  0  0  0  0
    7.3790   -0.7343   20.9201 N   0  0  0  0  0  0  0  0  0  0  0  0
    6.6551   -0.0504   19.9292 C   0  0  0  0  0  0  0  0  0  0  0  0
    7.1844    0.0331   18.6229 C   0  0  0  0  0  0  0  0  0  0  0  0
    8.1495   -0.4330   18.4177 H   0  0  0  0  0  0  0  0  0  0  0  0
    6.5880    0.6619   17.6084 N   0  0  0  0  0  0  0  0  0  0  0  0
    5.4193    1.2798   17.8622 C   0  0  0  0  0  0  0  0  0  0  0  0
    4.9543    1.7894   17.0212 H   0  0  0  0  0  0  0  0  0  0  0  0
    4.8107    1.2810   19.1188 C   0  0  0  0  0  0  0  0  0  0  0  0
    3.8779    1.8216   19.2573 H   0  0  0  0  0  0  0  0  0  0  0  0
    5.4316    0.6044   20.1796 C   0  0  0  0  0  0  0  0  0  0  0  0
    4.9913    0.6251   21.1762 H   0  0  0  0  0  0  0  0  0  0  0  0
    6.8682   -1.3260   22.0963 C   0  0  0  0  0  0  0  0  0  0  0  0
    7.1579   -0.7478   23.3424 C   0  0  0  0  0  0  0  0  0  0  0  0
    7.8436    0.0949   23.3732 H   0  0  0  0  0  0  0  0  0  0  0  0
    6.5924   -1.2616   24.5072 C   0  0  0  0  0  0  0  0  0  0  0  0
    6.7920   -0.7822   25.4588 H   0  0  0  0  0  0  0  0  0  0  0  0
    5.7696   -2.3870   24.4587 C   0  0  0  0  0  0  0  0  0  0  0  0
    5.2893   -2.7641   25.3569 H   0  0  0  0  0  0  0  0  0  0  0  0
    5.5350   -3.0206   23.2357 C   0  0  0  0  0  0  0  0  0  0  0  0
    4.5084   -4.4162   23.2156 Cl  0  0  0  0  0  0  0  0  0  0  0  0
    6.0843   -2.5061   22.0449 C   0  0  0  0  0  0  0  0  0  0  0  0
    5.8307   -3.3314   20.5497 Cl  0  0  0  0  0  0  0  0  0  0  0  0
  1  2  1  0
  2  3  1  0
  3  4  1  0
  4  5  2  0
  5  6  1  0
  5  7  1  0
  7  8  2  0
  8  9  1  0
  8 10  1  0
 10 11  1  0
 10 12  2  0
 12 13  1  0
  3 14  1  0
 14 15  2  0
 15 16  1  0
 15 17  1  0
 17 18  1  0
 17 19  2  0
 19 20  1  0
 19 21  1  0
 21 22  1  0
 21 23  2  0
 23 24  1  0
 12  4  1  0
 23 14  1  0
M  END
>  <cnnaffinity>  (1) 
-4.96671

>  <filename>  (1) 
ON(c1cccnc1)c1cccc(Cl)c1Cl

$$$$
