
     RDKit          3D

 24 25  0  0  0  0  0  0  0  0999 V2000
    9.0129    0.3071   21.3111 H   0  0  0  0  0  0  0  0  0  0  0  0
    8.7553   -0.5390   20.9031 O   0  0  0  0  0  0  0  0  0  0  0  0
    7.3670   -0.5886   21.0118 N   0  0  0  0  0  0  0  0  0  0  0  0
    6.6565    0.0035   19.9445 C   0  0  0  0  0  0  0  0  0  0  0  0
    7.2071    0.0534   18.6449 C   0  0  0  0  0  0  0  0  0  0  0  0
    8.1640   -0.4244   18.4466 H   0  0  0  0  0  0  0  0  0  0  0  0
    6.6093    0.6608   17.6126 N   0  0  0  0  0  0  0  0  0  0  0  0
    5.4370    1.2796   17.8380 C   0  0  0  0  0  0  0  0  0  0  0  0
    4.9853    1.7876   16.9869 H   0  0  0  0  0  0  0  0  0  0  0  0
    4.8087    1.2942   19.0871 C   0  0  0  0  0  0  0  0  0  0  0  0
    3.8750    1.8326   19.2118 H   0  0  0  0  0  0  0  0  0  0  0  0
    5.4178    0.6333   20.1595 C   0  0  0  0  0  0  0  0  0  0  0  0
    4.9728    0.6229   21.1548 H   0  0  0  0  0  0  0  0  0  0  0  0
    6.8422   -1.5366   21.9137 C   0  0  0  0  0  0  0  0  0  0  0  0
    5.8073   -2.4088   21.5251 C   0  0  0  0  0  0  0  0  0  0  0  0
    5.4376   -2.4765   20.5078 H   0  0  0  0  0  0  0  0  0  0  0  0
    5.2460   -3.2373   22.4884 C   0  0  0  0  0  0  0  0  0  0  0  0
    4.2851   -4.0879   22.1096 F   0  0  0  0  0  0  0  0  0  0  0  0
    5.6189   -3.2149   23.8264 C   0  0  0  0  0  0  0  0  0  0  0  0
    5.0895   -3.7909   24.5769 H   0  0  0  0  0  0  0  0  0  0  0  0
    6.6789   -2.3794   24.1620 C   0  0  0  0  0  0  0  0  0  0  0  0
    7.0754   -2.3504   25.4433 F   0  0  0  0  0  0  0  0  0  0  0  0
    7.3338   -1.5787   23.2367 C   0  0  0  0  0  0  0  0  0  0  0  0
    8.1720   -0.9719   23.5593 H   0  0  0  0  0  0  0  0  0  0  0  0
  1  2  1  0
  2  3  1  0
  3  4  1  0
  4  5  2  0
  5  6  1  0
  5  7  1  0
  7  8  2  0
  8  9  1  0
  8 10  1  0
 10 11  1  0
 10 12  2  0
 12 13  1  0
  3 14  1  0
 14 15  2  0
 15 16  1  0
 15 17  1  0
 17 18  1  0
 17 19  2  0
 19 20  1  0
 19 21  1  0
 21 22  1  0
 21 23  2  0
 23 24  1  0
 12  4  1  0
 23 14  1  0
M  END
>  <cnnaffinity>  (1) 
-4.56538

>  <filename>  (1) 
ON(c1cccnc1)c1cc(F)cc(F)c1

$$$$
