
     RDKit          3D

 38 40  0  0  0  0  0  0  0  0999 V2000
    7.3965   -1.9781   22.0347 H   0  0  0  0  0  0  0  0  0  0  0  0
    6.7057   -1.6079   21.4602 O   0  0  0  0  0  0  0  0  0  0  0  0
    7.5393   -0.8299   20.6383 N   0  0  0  0  0  0  0  0  0  0  0  0
    6.7444   -0.0322   19.7413 C   0  0  0  0  0  0  0  0  0  0  0  0
    7.1915    0.0382   18.4166 C   0  0  0  0  0  0  0  0  0  0  0  0
    8.1218   -0.4561   18.1426 H   0  0  0  0  0  0  0  0  0  0  0  0
    6.5563    0.6975   17.4394 N   0  0  0  0  0  0  0  0  0  0  0  0
    5.4229    1.3364   17.7732 C   0  0  0  0  0  0  0  0  0  0  0  0
    4.9189    1.8843   16.9789 H   0  0  0  0  0  0  0  0  0  0  0  0
    4.8881    1.3238   19.0652 C   0  0  0  0  0  0  0  0  0  0  0  0
    3.9769    1.8757   19.2690 H   0  0  0  0  0  0  0  0  0  0  0  0
    5.5560    0.6285   20.0808 C   0  0  0  0  0  0  0  0  0  0  0  0
    5.1858    0.6158   21.1063 H   0  0  0  0  0  0  0  0  0  0  0  0
    8.4552   -0.1667   21.4686 N   0  0  0  0  0  0  0  0  0  0  0  0
    9.6915    0.1719   20.7460 C   0  0  0  0  0  0  0  0  0  0  0  0
    9.4919    0.9359   19.9800 H   0  0  0  0  0  0  0  0  0  0  0  0
   10.0767   -0.7296   20.2572 H   0  0  0  0  0  0  0  0  0  0  0  0
   10.7547    0.6924   21.7187 C   0  0  0  0  0  0  0  0  0  0  0  0
   11.0120   -0.1245   22.4121 H   0  0  0  0  0  0  0  0  0  0  0  0
   11.6731    0.9421   21.1784 H   0  0  0  0  0  0  0  0  0  0  0  0
   10.2616    1.8619   22.4425 N   0  0  0  0  0  0  0  0  0  0  0  0
   11.0453    3.0006   22.6679 C   0  0  0  0  0  0  0  0  0  0  0  0
   11.8316    3.5350   21.6283 C   0  0  0  0  0  0  0  0  0  0  0  0
   11.7720    3.0802   20.6473 H   0  0  0  0  0  0  0  0  0  0  0  0
   12.6047    4.6792   21.8242 C   0  0  0  0  0  0  0  0  0  0  0  0
   13.1875    5.0629   20.9905 H   0  0  0  0  0  0  0  0  0  0  0  0
   12.6407    5.3100   23.0707 C   0  0  0  0  0  0  0  0  0  0  0  0
   13.2904    6.1697   23.2080 H   0  0  0  0  0  0  0  0  0  0  0  0
   11.8534    4.7999   24.1109 C   0  0  0  0  0  0  0  0  0  0  0  0
   11.8433    5.2956   25.0786 H   0  0  0  0  0  0  0  0  0  0  0  0
   11.0632    3.6621   23.9127 C   0  0  0  0  0  0  0  0  0  0  0  0
   10.4561    3.2601   24.7155 H   0  0  0  0  0  0  0  0  0  0  0  0
    9.0478    1.5586   23.1995 C   0  0  0  0  0  0  0  0  0  0  0  0
    9.2598    0.8847   24.0484 H   0  0  0  0  0  0  0  0  0  0  0  0
    8.6429    2.4873   23.6205 H   0  0  0  0  0  0  0  0  0  0  0  0
    7.9385    0.9320   22.3199 C   0  0  0  0  0  0  0  0  0  0  0  0
    7.4843    1.7266   21.7048 H   0  0  0  0  0  0  0  0  0  0  0  0
    7.1731    0.5247   22.9947 H   0  0  0  0  0  0  0  0  0  0  0  0
  1  2  1  0
  2  3  1  0
  3  4  1  0
  4  5  2  0
  5  6  1  0
  5  7  1  0
  7  8  2  0
  8  9  1  0
  8 10  1  0
 10 11  1  0
 10 12  2  0
 12 13  1  0
  3 14  1  0
 14 15  1  0
 15 16  1  0
 15 17  1  0
 15 18  1  0
 18 19  1  0
 18 20  1  0
 18 21  1  0
 21 22  1  0
 22 23  2  0
 23 24  1  0
 23 25  1  0
 25 26  1  0
 25 27  2  0
 27 28  1  0
 27 29  1  0
 29 30  1  0
 29 31  2  0
 31 32  1  0
 21 33  1  0
 33 34  1  0
 33 35  1  0
 33 36  1  0
 36 37  1  0
 36 38  1  0
 12  4  1  0
 36 14  1  0
 31 22  1  0
M  END
>  <cnnaffinity>  (1) 
-4.69275

>  <filename>  (1) 
ON(c1cccnc1)N1CCN(c2ccccc2)CC1

$$$$
