
     RDKit          3D

 26 27  0  0  0  0  0  0  0  0999 V2000
    7.8263   -2.4458   20.4601 H   0  0  0  0  0  0  0  0  0  0  0  0
    8.2839   -1.5941   20.5875 O   0  0  0  0  0  0  0  0  0  0  0  0
    7.3026   -0.6814   20.9830 N   0  0  0  0  0  0  0  0  0  0  0  0
    7.2554   -0.2542   22.3368 C   0  0  0  0  0  0  0  0  0  0  0  0
    7.5193    1.0295   22.5882 N   0  0  0  0  0  0  0  0  0  0  0  0
    7.4835    1.4453   23.8564 C   0  0  0  0  0  0  0  0  0  0  0  0
    7.7147    2.4898   24.0224 H   0  0  0  0  0  0  0  0  0  0  0  0
    7.1517    0.6187   24.9261 C   0  0  0  0  0  0  0  0  0  0  0  0
    7.1305    1.0069   25.9315 H   0  0  0  0  0  0  0  0  0  0  0  0
    6.8352   -0.7097   24.6763 C   0  0  0  0  0  0  0  0  0  0  0  0
    6.5669   -1.3872   25.4870 H   0  0  0  0  0  0  0  0  0  0  0  0
    6.8634   -1.1548   23.3563 C   0  0  0  0  0  0  0  0  0  0  0  0
    6.4997   -2.5714   23.0194 C   0  0  0  0  0  0  0  0  0  0  0  0
    5.8036   -3.1556   24.0160 F   0  0  0  0  0  0  0  0  0  0  0  0
    7.5947   -3.3405   22.8221 F   0  0  0  0  0  0  0  0  0  0  0  0
    5.7552   -2.6984   21.9076 F   0  0  0  0  0  0  0  0  0  0  0  0
    6.6694    0.0107   19.9259 C   0  0  0  0  0  0  0  0  0  0  0  0
    7.1824    0.0495   18.6039 C   0  0  0  0  0  0  0  0  0  0  0  0
    8.1295   -0.4356   18.3771 H   0  0  0  0  0  0  0  0  0  0  0  0
    6.5715    0.6692   17.5883 N   0  0  0  0  0  0  0  0  0  0  0  0
    5.4054    1.2895   17.8382 C   0  0  0  0  0  0  0  0  0  0  0  0
    4.9185    1.7801   16.9953 H   0  0  0  0  0  0  0  0  0  0  0  0
    4.8064    1.3035   19.1017 C   0  0  0  0  0  0  0  0  0  0  0  0
    3.8751    1.8406   19.2600 H   0  0  0  0  0  0  0  0  0  0  0  0
    5.4389    0.6479   20.1591 C   0  0  0  0  0  0  0  0  0  0  0  0
    5.0036    0.6360   21.1602 H   0  0  0  0  0  0  0  0  0  0  0  0
  1  2  1  0
  2  3  1  0
  3  4  1  0
  4  5  2  0
  5  6  1  0
  6  7  1  0
  6  8  2  0
  8  9  1  0
  8 10  1  0
 10 11  1  0
 10 12  2  0
 12 13  1  0
 13 14  1  0
 13 15  1  0
 13 16  1  0
  3 17  1  0
 17 18  2  0
 18 19  1  0
 18 20  1  0
 20 21  2  0
 21 22  1  0
 21 23  1  0
 23 24  1  0
 23 25  2  0
 25 26  1  0
 12  4  1  0
 25 17  1  0
M  END
>  <cnnaffinity>  (1) 
-4.75473

>  <filename>  (1) 
ON(c1cccnc1)c1ncccc1C(F)(F)F

$$$$
