
     RDKit          3D

 37 39  0  0  0  0  0  0  0  0999 V2000
    7.4127   -1.9925   21.9864 H   0  0  0  0  0  0  0  0  0  0  0  0
    6.7283   -1.6666   21.3818 O   0  0  0  0  0  0  0  0  0  0  0  0
    7.5520   -0.8291   20.6095 N   0  0  0  0  0  0  0  0  0  0  0  0
    6.7509   -0.0392   19.7143 C   0  0  0  0  0  0  0  0  0  0  0  0
    7.1943    0.0343   18.3856 C   0  0  0  0  0  0  0  0  0  0  0  0
    8.1197   -0.4733   18.1147 H   0  0  0  0  0  0  0  0  0  0  0  0
    6.5504    0.7044   17.4178 N   0  0  0  0  0  0  0  0  0  0  0  0
    5.4192    1.3394   17.7611 C   0  0  0  0  0  0  0  0  0  0  0  0
    4.9223    1.8971   16.9694 H   0  0  0  0  0  0  0  0  0  0  0  0
    4.8839    1.3228   19.0559 C   0  0  0  0  0  0  0  0  0  0  0  0
    3.9742    1.8723   19.2698 H   0  0  0  0  0  0  0  0  0  0  0  0
    5.5557    0.6088   20.0586 C   0  0  0  0  0  0  0  0  0  0  0  0
    5.1801    0.5711   21.0810 H   0  0  0  0  0  0  0  0  0  0  0  0
    8.4238   -0.1668   21.4953 N   0  0  0  0  0  0  0  0  0  0  0  0
    7.8587    0.9118   22.3384 C   0  0  0  0  0  0  0  0  0  0  0  0
    7.4261    1.7164   21.7261 H   0  0  0  0  0  0  0  0  0  0  0  0
    7.0579    0.4883   22.9544 H   0  0  0  0  0  0  0  0  0  0  0  0
    8.9202    1.5234   23.2871 C   0  0  0  0  0  0  0  0  0  0  0  0
    9.1464    0.7811   24.0654 H   0  0  0  0  0  0  0  0  0  0  0  0
    8.4665    2.3863   23.7824 H   0  0  0  0  0  0  0  0  0  0  0  0
   10.1600    1.8950   22.5942 N   0  0  0  0  0  0  0  0  0  0  0  0
   10.9255    3.0283   22.8082 C   0  0  0  0  0  0  0  0  0  0  0  0
   11.9593    3.1994   21.9646 N   0  0  0  0  0  0  0  0  0  0  0  0
   12.7210    4.2848   22.0927 C   0  0  0  0  0  0  0  0  0  0  0  0
   13.5220    4.3988   21.3601 H   0  0  0  0  0  0  0  0  0  0  0  0
   12.5463    5.2453   23.0847 C   0  0  0  0  0  0  0  0  0  0  0  0
   13.2185    6.0950   23.1244 H   0  0  0  0  0  0  0  0  0  0  0  0
   11.4810    5.0718   23.9765 C   0  0  0  0  0  0  0  0  0  0  0  0
   11.2798    5.8155   24.7472 H   0  0  0  0  0  0  0  0  0  0  0  0
   10.6597    3.9539   23.8484 C   0  0  0  0  0  0  0  0  0  0  0  0
    9.8206    3.7897   24.5086 H   0  0  0  0  0  0  0  0  0  0  0  0
   10.6876    0.7710   21.8108 C   0  0  0  0  0  0  0  0  0  0  0  0
   10.9466   -0.0599   22.4863 H   0  0  0  0  0  0  0  0  0  0  0  0
   11.5905    1.0893   21.2881 H   0  0  0  0  0  0  0  0  0  0  0  0
    9.6481    0.2638   20.8081 C   0  0  0  0  0  0  0  0  0  0  0  0
   10.0678   -0.5829   20.2579 H   0  0  0  0  0  0  0  0  0  0  0  0
    9.4145    1.0580   20.0889 H   0  0  0  0  0  0  0  0  0  0  0  0
  1  2  1  0
  2  3  1  0
  3  4  1  0
  4  5  2  0
  5  6  1  0
  5  7  1  0
  7  8  2  0
  8  9  1  0
  8 10  1  0
 10 11  1  0
 10 12  2  0
 12 13  1  0
  3 14  1  0
 14 15  1  0
 15 16  1  0
 15 17  1  0
 15 18  1  0
 18 19  1  0
 18 20  1  0
 18 21  1  0
 21 22  1  0
 22 23  2  0
 23 24  1  0
 24 25  1  0
 24 26  2  0
 26 27  1  0
 26 28  1  0
 28 29  1  0
 28 30  2  0
 30 31  1  0
 21 32  1  0
 32 33  1  0
 32 34  1  0
 32 35  1  0
 35 36  1  0
 35 37  1  0
 12  4  1  0
 35 14  1  0
 30 22  1  0
M  END
>  <cnnaffinity>  (1) 
-5.12818

>  <filename>  (1) 
ON(c1cccnc1)N1CCN(c2ccccn2)CC1

$$$$
