
     RDKit          3D

 24 25  0  0  0  0  0  0  0  0999 V2000
    6.4411   -1.0849   22.5750 H   0  0  0  0  0  0  0  0  0  0  0  0
    6.5469   -1.5030   21.7002 O   0  0  0  0  0  0  0  0  0  0  0  0
    7.3399   -0.6221   20.9676 N   0  0  0  0  0  0  0  0  0  0  0  0
    6.6738   -0.0042   19.8882 C   0  0  0  0  0  0  0  0  0  0  0  0
    7.1911    0.0314   18.5721 C   0  0  0  0  0  0  0  0  0  0  0  0
    8.1171   -0.4878   18.3280 H   0  0  0  0  0  0  0  0  0  0  0  0
    6.5923    0.6638   17.5484 N   0  0  0  0  0  0  0  0  0  0  0  0
    5.4366    1.2971   17.7976 C   0  0  0  0  0  0  0  0  0  0  0  0
    4.9787    1.8276   16.9641 H   0  0  0  0  0  0  0  0  0  0  0  0
    4.8207    1.2933   19.0542 C   0  0  0  0  0  0  0  0  0  0  0  0
    3.8838    1.8159   19.2019 H   0  0  0  0  0  0  0  0  0  0  0  0
    5.4332    0.6225   20.1097 C   0  0  0  0  0  0  0  0  0  0  0  0
    4.9867    0.5754   21.1030 H   0  0  0  0  0  0  0  0  0  0  0  0
    8.7277   -0.6175   21.2366 C   0  0  0  0  0  0  0  0  0  0  0  0
    9.4883    0.5565   21.0658 C   0  0  0  0  0  0  0  0  0  0  0  0
    9.0013    1.4614   20.7213 H   0  0  0  0  0  0  0  0  0  0  0  0
   10.8554    0.5587   21.3692 C   0  0  0  0  0  0  0  0  0  0  0  0
   11.4260    1.4800   21.2797 H   0  0  0  0  0  0  0  0  0  0  0  0
   11.4836   -0.5984   21.8401 C   0  0  0  0  0  0  0  0  0  0  0  0
   12.5489   -0.6237   22.0482 H   0  0  0  0  0  0  0  0  0  0  0  0
   10.7027   -1.7327   22.0541 C   0  0  0  0  0  0  0  0  0  0  0  0
   11.2771   -2.8189   22.5992 F   0  0  0  0  0  0  0  0  0  0  0  0
    9.3511   -1.7749   21.7418 C   0  0  0  0  0  0  0  0  0  0  0  0
    8.7765   -2.6750   21.9187 H   0  0  0  0  0  0  0  0  0  0  0  0
  1  2  1  0
  2  3  1  0
  3  4  1  0
  4  5  2  0
  5  6  1  0
  5  7  1  0
  7  8  2  0
  8  9  1  0
  8 10  1  0
 10 11  1  0
 10 12  2  0
 12 13  1  0
  3 14  1  0
 14 15  2  0
 15 16  1  0
 15 17  1  0
 17 18  1  0
 17 19  2  0
 19 20  1  0
 19 21  1  0
 21 22  1  0
 21 23  2  0
 23 24  1  0
 12  4  1  0
 23 14  1  0
M  END
>  <cnnaffinity>  (1) 
-4.56739

>  <filename>  (1) 
ON(c1cccnc1)c1cccc(F)c1

$$$$
