
     RDKit          3D

 21 22  0  0  0  0  0  0  0  0999 V2000
    8.7746   -1.7708   20.3806 H   0  0  0  0  0  0  0  0  0  0  0  0
    7.8504   -1.9044   20.6674 O   0  0  0  0  0  0  0  0  0  0  0  0
    7.3407   -0.6609   20.9633 N   0  0  0  0  0  0  0  0  0  0  0  0
    7.5073   -0.1488   22.2351 C   0  0  0  0  0  0  0  0  0  0  0  0
    7.9239   -1.1825   23.5780 S   0  0  0  0  0  0  0  0  0  0  0  0
    7.9494    0.2098   24.6220 C   0  0  0  0  0  0  0  0  0  0  0  0
    8.3271    0.0628   26.2899 Cl  0  0  0  0  0  0  0  0  0  0  0  0
    7.6655    1.3800   23.9853 C   0  0  0  0  0  0  0  0  0  0  0  0
    7.6454    2.3533   24.4736 H   0  0  0  0  0  0  0  0  0  0  0  0
    7.4084    1.1728   22.6076 C   0  0  0  0  0  0  0  0  0  0  0  0
    7.1856    1.9670   21.9062 H   0  0  0  0  0  0  0  0  0  0  0  0
    6.6599    0.0080   19.9194 C   0  0  0  0  0  0  0  0  0  0  0  0
    7.1750    0.0449   18.6075 C   0  0  0  0  0  0  0  0  0  0  0  0
    8.1239   -0.4362   18.3726 H   0  0  0  0  0  0  0  0  0  0  0  0
    6.5728    0.6709   17.5909 N   0  0  0  0  0  0  0  0  0  0  0  0
    5.4043    1.2903   17.8419 C   0  0  0  0  0  0  0  0  0  0  0  0
    4.9198    1.7787   16.9981 H   0  0  0  0  0  0  0  0  0  0  0  0
    4.8057    1.3058   19.1056 C   0  0  0  0  0  0  0  0  0  0  0  0
    3.8759    1.8405   19.2603 H   0  0  0  0  0  0  0  0  0  0  0  0
    5.4369    0.6521   20.1683 C   0  0  0  0  0  0  0  0  0  0  0  0
    5.0090    0.6286   21.1721 H   0  0  0  0  0  0  0  0  0  0  0  0
  1  2  1  0
  2  3  1  0
  3  4  1  0
  4  5  1  0
  5  6  1  0
  6  7  1  0
  6  8  2  0
  8  9  1  0
  8 10  1  0
 10 11  1  0
  3 12  1  0
 12 13  2  0
 13 14  1  0
 13 15  1  0
 15 16  2  0
 16 17  1  0
 16 18  1  0
 18 19  1  0
 18 20  2  0
 20 21  1  0
 10  4  2  0
 20 12  1  0
M  END
>  <cnnaffinity>  (1) 
-4.58267

>  <filename>  (1) 
ON(c1cccnc1)c1ccc(Cl)s1

$$$$
