
     RDKit          3D

 30 31  0  0  0  0  0  0  0  0999 V2000
    4.9152    1.7884   16.9915 H   0  0  0  0  0  0  0  0  0  0  0  0
    5.3960    1.2962   17.8346 C   0  0  0  0  0  0  0  0  0  0  0  0
    6.5594    0.6797   17.5742 N   0  0  0  0  0  0  0  0  0  0  0  0
    7.1615    0.0437   18.5882 C   0  0  0  0  0  0  0  0  0  0  0  0
    8.1224   -0.4247   18.3743 H   0  0  0  0  0  0  0  0  0  0  0  0
    6.6208   -0.0260   19.8848 C   0  0  0  0  0  0  0  0  0  0  0  0
    7.5018   -0.8219   21.2238 S   0  0  0  0  0  0  0  0  0  0  0  0
    8.5135    0.5904   21.6973 C   0  0  0  0  0  0  0  0  0  0  0  0
    9.9847    0.8004   21.0447 S   0  0  0  0  0  0  0  0  0  0  0  0
    7.8692    1.5914   22.6559 C   0  0  0  0  0  0  0  0  0  0  0  0
    6.8544    1.2529   22.9309 H   0  0  0  0  0  0  0  0  0  0  0  0
    7.7099    2.9961   22.0139 C   0  0  0  0  0  0  0  0  0  0  0  0
    8.6938    3.3611   21.6896 H   0  0  0  0  0  0  0  0  0  0  0  0
    7.0848    2.9270   21.1152 H   0  0  0  0  0  0  0  0  0  0  0  0
    7.0971    3.9901   23.0109 C   0  0  0  0  0  0  0  0  0  0  0  0
    7.0207    4.9872   22.5587 H   0  0  0  0  0  0  0  0  0  0  0  0
    6.0687    3.6744   23.2376 H   0  0  0  0  0  0  0  0  0  0  0  0
    7.9054    4.0564   24.3155 C   0  0  0  0  0  0  0  0  0  0  0  0
    8.8954    4.4831   24.0992 H   0  0  0  0  0  0  0  0  0  0  0  0
    7.4232    4.7354   25.0292 H   0  0  0  0  0  0  0  0  0  0  0  0
    8.0879    2.6682   24.9448 C   0  0  0  0  0  0  0  0  0  0  0  0
    8.7092    2.7319   25.8458 H   0  0  0  0  0  0  0  0  0  0  0  0
    7.1096    2.2838   25.2660 H   0  0  0  0  0  0  0  0  0  0  0  0
    8.7036    1.6734   23.9557 C   0  0  0  0  0  0  0  0  0  0  0  0
    8.7866    0.6795   24.4125 H   0  0  0  0  0  0  0  0  0  0  0  0
    9.7252    1.9859   23.6995 H   0  0  0  0  0  0  0  0  0  0  0  0
    5.4224    0.6397   20.1502 C   0  0  0  0  0  0  0  0  0  0  0  0
    5.0125    0.6332   21.1628 H   0  0  0  0  0  0  0  0  0  0  0  0
    4.7967    1.3163   19.0981 C   0  0  0  0  0  0  0  0  0  0  0  0
    3.8691    1.8516   19.2547 H   0  0  0  0  0  0  0  0  0  0  0  0
  1  2  1  0
  2  3  2  0
  3  4  1  0
  4  5  1  0
  4  6  2  0
  6  7  1  0
  7  8  1  0
  8  9  2  0
  8 10  1  0
 10 11  1  0
 10 12  1  0
 12 13  1  0
 12 14  1  0
 12 15  1  0
 15 16  1  0
 15 17  1  0
 15 18  1  0
 18 19  1  0
 18 20  1  0
 18 21  1  0
 21 22  1  0
 21 23  1  0
 21 24  1  0
 24 25  1  0
 24 26  1  0
  6 27  1  0
 27 28  1  0
 27 29  2  0
 29 30  1  0
 29  2  1  0
 24 10  1  0
M  END
>  <cnnaffinity>  (1) 
-4.98469

>  <filename>  (1) 
S=C(Sc1cccnc1)C1CCCCC1

$$$$
