
     RDKit          3D

 26 28  0  0  0  0  0  0  0  0999 V2000
    4.9398    1.8014   16.9843 H   0  0  0  0  0  0  0  0  0  0  0  0
    5.4019    1.2918   17.8296 C   0  0  0  0  0  0  0  0  0  0  0  0
    6.5635    0.6696   17.5746 N   0  0  0  0  0  0  0  0  0  0  0  0
    7.1683    0.0527   18.5869 C   0  0  0  0  0  0  0  0  0  0  0  0
    8.1288   -0.4080   18.3605 H   0  0  0  0  0  0  0  0  0  0  0  0
    6.6400   -0.0196   19.8892 C   0  0  0  0  0  0  0  0  0  0  0  0
    7.4042   -0.7294   20.9430 C   0  0  0  0  0  0  0  0  0  0  0  0
    9.0405   -0.7164   20.9562 S   0  0  0  0  0  0  0  0  0  0  0  0
    6.6358   -1.5042   21.9467 C   0  0  0  0  0  0  0  0  0  0  0  0
    5.7225   -2.4586   21.6228 C   0  0  0  0  0  0  0  0  0  0  0  0
    5.3071   -2.6433   20.6366 H   0  0  0  0  0  0  0  0  0  0  0  0
    5.1474   -3.3625   22.9866 S   0  0  0  0  0  0  0  0  0  0  0  0
    6.0303   -2.3386   24.0971 C   0  0  0  0  0  0  0  0  0  0  0  0
    5.9733   -2.3337   25.5077 C   0  0  0  0  0  0  0  0  0  0  0  0
    5.2814   -2.9658   26.0624 H   0  0  0  0  0  0  0  0  0  0  0  0
    6.8142   -1.4633   26.1933 C   0  0  0  0  0  0  0  0  0  0  0  0
    6.8277   -1.4752   27.2776 H   0  0  0  0  0  0  0  0  0  0  0  0
    7.6647   -0.5782   25.5027 C   0  0  0  0  0  0  0  0  0  0  0  0
    8.3416    0.0594   26.0575 H   0  0  0  0  0  0  0  0  0  0  0  0
    7.6593   -0.5348   24.1149 C   0  0  0  0  0  0  0  0  0  0  0  0
    8.2959    0.1441   23.5617 H   0  0  0  0  0  0  0  0  0  0  0  0
    6.8350   -1.4165   23.3922 C   0  0  0  0  0  0  0  0  0  0  0  0
    5.4260    0.6395   20.1451 C   0  0  0  0  0  0  0  0  0  0  0  0
    4.9898    0.6498   21.1459 H   0  0  0  0  0  0  0  0  0  0  0  0
    4.8022    1.3083   19.0914 C   0  0  0  0  0  0  0  0  0  0  0  0
    3.8744    1.8504   19.2309 H   0  0  0  0  0  0  0  0  0  0  0  0
  1  2  1  0
  2  3  2  0
  3  4  1  0
  4  5  1  0
  4  6  2  0
  6  7  1  0
  7  8  2  0
  7  9  1  0
  9 10  2  0
 10 11  1  0
 10 12  1  0
 12 13  1  0
 13 14  2  0
 14 15  1  0
 14 16  1  0
 16 17  1  0
 16 18  2  0
 18 19  1  0
 18 20  1  0
 20 21  1  0
 20 22  2  0
  6 23  1  0
 23 24  1  0
 23 25  2  0
 25 26  1  0
 25  2  1  0
 22  9  1  0
 22 13  1  0
M  END
>  <cnnaffinity>  (1) 
-4.82069

>  <filename>  (1) 
S=C(c1cccnc1)c1csc2ccccc12

$$$$
