
     RDKit          3D

 28 29  0  0  0  0  0  0  0  0999 V2000
    4.9186    1.7873   16.9997 H   0  0  0  0  0  0  0  0  0  0  0  0
    5.3946    1.2949   17.8455 C   0  0  0  0  0  0  0  0  0  0  0  0
    6.5557    0.6776   17.5765 N   0  0  0  0  0  0  0  0  0  0  0  0
    7.1714    0.0547   18.5850 C   0  0  0  0  0  0  0  0  0  0  0  0
    8.1193   -0.4255   18.3554 H   0  0  0  0  0  0  0  0  0  0  0  0
    6.6684   -0.0177   19.9065 C   0  0  0  0  0  0  0  0  0  0  0  0
    7.3743   -0.7278   20.9288 N   0  0  0  0  0  0  0  0  0  0  0  0
    6.8259   -1.1989   21.6385 H   0  0  0  0  0  0  0  0  0  0  0  0
    8.7152   -0.6824   21.1492 C   0  0  0  0  0  0  0  0  0  0  0  0
    9.6702    0.5536   20.6340 S   0  0  0  0  0  0  0  0  0  0  0  0
    9.2933   -1.8460   21.9619 C   0  0  0  0  0  0  0  0  0  0  0  0
   10.3500   -1.9059   21.6897 H   0  0  0  0  0  0  0  0  0  0  0  0
    8.8361   -2.8016   21.6791 H   0  0  0  0  0  0  0  0  0  0  0  0
    9.1612   -1.5628   23.4411 C   0  0  0  0  0  0  0  0  0  0  0  0
   10.0226   -0.6273   24.0368 C   0  0  0  0  0  0  0  0  0  0  0  0
   10.7955   -0.1638   23.4269 H   0  0  0  0  0  0  0  0  0  0  0  0
    9.8902   -0.2825   25.3812 C   0  0  0  0  0  0  0  0  0  0  0  0
   10.5693    0.4370   25.8289 H   0  0  0  0  0  0  0  0  0  0  0  0
    8.8790   -0.8660   26.1528 C   0  0  0  0  0  0  0  0  0  0  0  0
    8.7725   -0.6037   27.2016 H   0  0  0  0  0  0  0  0  0  0  0  0
    8.0019   -1.7874   25.5796 C   0  0  0  0  0  0  0  0  0  0  0  0
    7.2076   -2.2575   26.1504 H   0  0  0  0  0  0  0  0  0  0  0  0
    8.1508   -2.1232   24.2322 C   0  0  0  0  0  0  0  0  0  0  0  0
    7.0185   -3.2578   23.5390 Cl  0  0  0  0  0  0  0  0  0  0  0  0
    5.4520    0.6242   20.1725 C   0  0  0  0  0  0  0  0  0  0  0  0
    5.0309    0.6186   21.1783 H   0  0  0  0  0  0  0  0  0  0  0  0
    4.8174    1.2995   19.1169 C   0  0  0  0  0  0  0  0  0  0  0  0
    3.8889    1.8329   19.2664 H   0  0  0  0  0  0  0  0  0  0  0  0
  1  2  1  0
  2  3  2  0
  3  4  1  0
  4  5  1  0
  4  6  2  0
  6  7  1  0
  7  8  1  0
  7  9  1  0
  9 10  2  0
  9 11  1  0
 11 12  1  0
 11 13  1  0
 11 14  1  0
 14 15  2  0
 15 16  1  0
 15 17  1  0
 17 18  1  0
 17 19  2  0
 19 20  1  0
 19 21  1  0
 21 22  1  0
 21 23  2  0
 23 24  1  0
  6 25  1  0
 25 26  1  0
 25 27  2  0
 27 28  1  0
 27  2  1  0
 23 14  1  0
M  END
>  <cnnaffinity>  (1) 
-5.17725

>  <filename>  (1) 
S=C(Cc1ccccc1Cl)Nc1cccnc1

$$$$
