
     RDKit          3D

 27 28  0  0  0  0  0  0  0  0999 V2000
    4.9573    1.8208   16.8904 H   0  0  0  0  0  0  0  0  0  0  0  0
    5.3959    1.3019   17.7376 C   0  0  0  0  0  0  0  0  0  0  0  0
    6.5251    0.6139   17.4948 N   0  0  0  0  0  0  0  0  0  0  0  0
    7.0914   -0.0215   18.5290 C   0  0  0  0  0  0  0  0  0  0  0  0
    7.9821   -0.6071   18.2989 H   0  0  0  0  0  0  0  0  0  0  0  0
    6.5839    0.0084   19.8412 C   0  0  0  0  0  0  0  0  0  0  0  0
    7.4330   -0.7731   21.2186 S   0  0  0  0  0  0  0  0  0  0  0  0
    8.3601    0.6219   21.9129 C   0  0  0  0  0  0  0  0  0  0  0  0
    7.9122    1.4158   23.2502 S   0  0  0  0  0  0  0  0  0  0  0  0
    9.5958    1.0408   21.1216 C   0  0  0  0  0  0  0  0  0  0  0  0
    9.6173    0.5093   20.1665 H   0  0  0  0  0  0  0  0  0  0  0  0
    9.4682    2.1078   20.8974 H   0  0  0  0  0  0  0  0  0  0  0  0
   10.8777    0.8631   21.9237 C   0  0  0  0  0  0  0  0  0  0  0  0
   11.3492    1.9315   22.7034 C   0  0  0  0  0  0  0  0  0  0  0  0
   10.7970    2.8700   22.6735 H   0  0  0  0  0  0  0  0  0  0  0  0
   12.4969    1.8090   23.4922 C   0  0  0  0  0  0  0  0  0  0  0  0
   12.7969    2.6386   24.1223 H   0  0  0  0  0  0  0  0  0  0  0  0
   13.2311    0.6167   23.4854 C   0  0  0  0  0  0  0  0  0  0  0  0
   14.1540    0.5211   24.0532 H   0  0  0  0  0  0  0  0  0  0  0  0
   12.7850   -0.4588   22.7174 C   0  0  0  0  0  0  0  0  0  0  0  0
   13.3299   -1.3968   22.6582 H   0  0  0  0  0  0  0  0  0  0  0  0
   11.5940   -0.3446   21.9939 C   0  0  0  0  0  0  0  0  0  0  0  0
   11.0118   -1.7839   21.2259 Cl  0  0  0  0  0  0  0  0  0  0  0  0
    5.3727    0.6783   20.0622 C   0  0  0  0  0  0  0  0  0  0  0  0
    4.9127    0.6535   21.0508 H   0  0  0  0  0  0  0  0  0  0  0  0
    4.7728    1.3410   18.9906 C   0  0  0  0  0  0  0  0  0  0  0  0
    3.8382    1.8779   19.1232 H   0  0  0  0  0  0  0  0  0  0  0  0
  1  2  1  0
  2  3  2  0
  3  4  1  0
  4  5  1  0
  4  6  2  0
  6  7  1  0
  7  8  1  0
  8  9  2  0
  8 10  1  0
 10 11  1  0
 10 12  1  0
 10 13  1  0
 13 14  2  0
 14 15  1  0
 14 16  1  0
 16 17  1  0
 16 18  2  0
 18 19  1  0
 18 20  1  0
 20 21  1  0
 20 22  2  0
 22 23  1  0
  6 24  1  0
 24 25  1  0
 24 26  2  0
 26 27  1  0
 26  2  1  0
 22 13  1  0
M  END
>  <cnnaffinity>  (1) 
-4.8983

>  <filename>  (1) 
S=C(Cc1ccccc1Cl)Sc1cccnc1

$$$$
