
     RDKit          3D

 36 39  0  0  0  0  0  0  0  0999 V2000
    5.0501    1.7885   17.3403 H   0  0  0  0  0  0  0  0  0  0  0  0
    5.5087    1.1246   18.0649 C   0  0  0  0  0  0  0  0  0  0  0  0
    6.5953    0.4560   17.6471 N   0  0  0  0  0  0  0  0  0  0  0  0
    7.2017   -0.3220   18.5493 C   0  0  0  0  0  0  0  0  0  0  0  0
    8.0595   -0.8828   18.1890 H   0  0  0  0  0  0  0  0  0  0  0  0
    6.7973   -0.4659   19.8961 C   0  0  0  0  0  0  0  0  0  0  0  0
    7.6936   -1.1089   20.8760 C   0  0  0  0  0  0  0  0  0  0  0  0
    9.0388   -0.9408   21.1284 C   0  0  0  0  0  0  0  0  0  0  0  0
    9.7343   -0.3495   20.5483 H   0  0  0  0  0  0  0  0  0  0  0  0
    9.4637   -1.5777   22.2654 N   0  0  0  0  0  0  0  0  0  0  0  0
    8.3669   -2.1301   22.7148 C   0  0  0  0  0  0  0  0  0  0  0  0
    7.8747   -2.9810   24.1487 S   0  0  0  0  0  0  0  0  0  0  0  0
    6.2339   -2.7964   23.5567 C   0  0  0  0  0  0  0  0  0  0  0  0
    5.1164   -3.0465   24.3025 N   0  0  0  0  0  0  0  0  0  0  0  0
    4.3231   -2.5472   23.9284 H   0  0  0  0  0  0  0  0  0  0  0  0
    4.9562   -3.9766   25.3051 C   0  0  0  0  0  0  0  0  0  0  0  0
    5.7388   -5.4048   25.3768 S   0  0  0  0  0  0  0  0  0  0  0  0
    4.0514   -3.5047   26.2078 N   0  0  0  0  0  0  0  0  0  0  0  0
    3.7630   -2.5609   26.0177 H   0  0  0  0  0  0  0  0  0  0  0  0
    3.9446   -3.9191   27.5729 C   0  0  0  0  0  0  0  0  0  0  0  0
    2.6628   -4.0813   28.1007 C   0  0  0  0  0  0  0  0  0  0  0  0
    1.8151   -3.8533   27.4614 H   0  0  0  0  0  0  0  0  0  0  0  0
    2.5024   -4.5111   29.4216 C   0  0  0  0  0  0  0  0  0  0  0  0
    1.5024   -4.6409   29.8259 H   0  0  0  0  0  0  0  0  0  0  0  0
    3.6263   -4.7504   30.2221 C   0  0  0  0  0  0  0  0  0  0  0  0
    3.5060   -5.1113   31.2395 H   0  0  0  0  0  0  0  0  0  0  0  0
    4.9089   -4.5237   29.7082 C   0  0  0  0  0  0  0  0  0  0  0  0
    5.7823   -4.6654   30.3428 H   0  0  0  0  0  0  0  0  0  0  0  0
    5.0739   -4.1007   28.3853 C   0  0  0  0  0  0  0  0  0  0  0  0
    6.0584   -3.8942   27.9730 H   0  0  0  0  0  0  0  0  0  0  0  0
    6.0585   -2.2651   22.3900 N   0  0  0  0  0  0  0  0  0  0  0  0
    7.2797   -1.8975   21.9280 N   0  0  0  0  0  0  0  0  0  0  0  0
    5.5836    0.1454   20.2642 C   0  0  0  0  0  0  0  0  0  0  0  0
    5.1624   -0.0419   21.2500 H   0  0  0  0  0  0  0  0  0  0  0  0
    4.9533    0.9783   19.3414 C   0  0  0  0  0  0  0  0  0  0  0  0
    4.0617    1.5349   19.6068 H   0  0  0  0  0  0  0  0  0  0  0  0
  1  2  1  0
  2  3  2  0
  3  4  1  0
  4  5  1  0
  4  6  2  0
  6  7  1  0
  7  8  2  0
  8  9  1  0
  8 10  1  0
 10 11  2  0
 11 12  1  0
 12 13  1  0
 13 14  1  0
 14 15  1  0
 14 16  1  0
 16 17  2  0
 16 18  1  0
 18 19  1  0
 18 20  1  0
 20 21  2  0
 21 22  1  0
 21 23  1  0
 23 24  1  0
 23 25  2  0
 25 26  1  0
 25 27  1  0
 27 28  1  0
 27 29  2  0
 29 30  1  0
 13 31  2  0
 31 32  1  0
  6 33  1  0
 33 34  1  0
 33 35  2  0
 35 36  1  0
 35  2  1  0
 32  7  1  0
 32 11  1  0
 29 20  1  0
M  END
>  <cnnaffinity>  (1) 
-5.28076

>  <filename>  (1) 
S=C(Nc1ccccc1)Nc1nn2c(-c3cccnc3)cnc2s1

$$$$
