
     RDKit          3D

 39 41  0  0  0  0  0  0  0  0999 V2000
    5.8031    6.8890   26.3240 H   0  0  0  0  0  0  0  0  0  0  0  0
    6.2460    5.9319   26.5989 C   0  0  0  0  0  0  0  0  0  0  0  0
    6.4379    5.0837   25.5882 N   0  0  0  0  0  0  0  0  0  0  0  0
    6.9445    3.8761   25.8755 C   0  0  0  0  0  0  0  0  0  0  0  0
    7.0943    3.0095   24.8180 N   0  0  0  0  0  0  0  0  0  0  0  0
    7.1971    1.5637   25.0272 C   0  0  0  0  0  0  0  0  0  0  0  0
    6.4607    1.2403   25.7777 H   0  0  0  0  0  0  0  0  0  0  0  0
    8.2004    1.3111   25.4054 H   0  0  0  0  0  0  0  0  0  0  0  0
    6.9228    0.7545   23.7392 C   0  0  0  0  0  0  0  0  0  0  0  0
    7.1497   -0.2919   23.9631 H   0  0  0  0  0  0  0  0  0  0  0  0
    5.8534    0.8375   23.4865 H   0  0  0  0  0  0  0  0  0  0  0  0
    7.7668    1.2159   22.6204 N   0  0  0  0  0  0  0  0  0  0  0  0
    8.3258    0.4029   21.6763 C   0  0  0  0  0  0  0  0  0  0  0  0
    9.8559    0.6257   21.1081 S   0  0  0  0  0  0  0  0  0  0  0  0
    7.4153   -0.6674   21.0547 C   0  0  0  0  0  0  0  0  0  0  0  0
    8.0552   -1.4844   20.7075 H   0  0  0  0  0  0  0  0  0  0  0  0
    6.7385   -1.0758   21.8118 H   0  0  0  0  0  0  0  0  0  0  0  0
    6.6208   -0.0438   19.8968 C   0  0  0  0  0  0  0  0  0  0  0  0
    7.1411    0.0330   18.5887 C   0  0  0  0  0  0  0  0  0  0  0  0
    8.1065   -0.4186   18.3590 H   0  0  0  0  0  0  0  0  0  0  0  0
    6.5466    0.6692   17.5702 N   0  0  0  0  0  0  0  0  0  0  0  0
    5.3913    1.2995   17.8237 C   0  0  0  0  0  0  0  0  0  0  0  0
    4.9347    1.8165   16.9792 H   0  0  0  0  0  0  0  0  0  0  0  0
    4.7844    1.3123   19.0838 C   0  0  0  0  0  0  0  0  0  0  0  0
    3.8591    1.8594   19.2273 H   0  0  0  0  0  0  0  0  0  0  0  0
    5.4160    0.6314   20.1325 C   0  0  0  0  0  0  0  0  0  0  0  0
    4.9821    0.6418   21.1357 H   0  0  0  0  0  0  0  0  0  0  0  0
    8.0248    2.6735   22.5433 C   0  0  0  0  0  0  0  0  0  0  0  0
    7.8724    3.0012   21.5053 H   0  0  0  0  0  0  0  0  0  0  0  0
    9.0747    2.8616   22.8077 H   0  0  0  0  0  0  0  0  0  0  0  0
    7.0625    3.4771   23.4291 C   0  0  0  0  0  0  0  0  0  0  0  0
    6.0392    3.3921   23.0263 H   0  0  0  0  0  0  0  0  0  0  0  0
    7.3387    4.5336   23.3875 H   0  0  0  0  0  0  0  0  0  0  0  0
    7.3235    3.5049   27.1900 C   0  0  0  0  0  0  0  0  0  0  0  0
    7.7587    2.5225   27.3329 H   0  0  0  0  0  0  0  0  0  0  0  0
    7.1442    4.4161   28.2271 C   0  0  0  0  0  0  0  0  0  0  0  0
    7.4320    4.1625   29.2506 H   0  0  0  0  0  0  0  0  0  0  0  0
    6.5821    5.6656   27.9250 C   0  0  0  0  0  0  0  0  0  0  0  0
    6.4050    6.4245   28.6775 H   0  0  0  0  0  0  0  0  0  0  0  0
  1  2  1  0
  2  3  2  0
  3  4  1  0
  4  5  1  0
  5  6  1  0
  6  7  1  0
  6  8  1  0
  6  9  1  0
  9 10  1  0
  9 11  1  0
  9 12  1  0
 12 13  1  0
 13 14  2  0
 13 15  1  0
 15 16  1  0
 15 17  1  0
 15 18  1  0
 18 19  2  0
 19 20  1  0
 19 21  1  0
 21 22  2  0
 22 23  1  0
 22 24  1  0
 24 25  1  0
 24 26  2  0
 26 27  1  0
 12 28  1  0
 28 29  1  0
 28 30  1  0
 28 31  1  0
 31 32  1  0
 31 33  1  0
  4 34  2  0
 34 35  1  0
 34 36  1  0
 36 37  1  0
 36 38  2  0
 38 39  1  0
 38  2  1  0
 31  5  1  0
 26 18  1  0
M  END
>  <cnnaffinity>  (1) 
-4.76508

>  <filename>  (1) 
S=C(Cc1cccnc1)N1CCN(c2ccccn2)CC1

$$$$
