
     RDKit          3D

 33 35  0  0  0  0  0  0  0  0999 V2000
    5.1673    1.8436   16.7973 H   0  0  0  0  0  0  0  0  0  0  0  0
    5.4849    1.3228   17.6979 C   0  0  0  0  0  0  0  0  0  0  0  0
    6.6292    0.6266   17.5994 N   0  0  0  0  0  0  0  0  0  0  0  0
    7.0647   -0.0164   18.6904 C   0  0  0  0  0  0  0  0  0  0  0  0
    7.9900   -0.5868   18.6188 H   0  0  0  0  0  0  0  0  0  0  0  0
    6.3822    0.0063   19.9176 C   0  0  0  0  0  0  0  0  0  0  0  0
    6.9026   -0.6527   21.0749 N   0  0  0  0  0  0  0  0  0  0  0  0
    7.4079    0.0476   22.1748 C   0  0  0  0  0  0  0  0  0  0  0  0
    7.6337    1.0986   22.1252 H   0  0  0  0  0  0  0  0  0  0  0  0
    7.5263   -0.8466   23.1806 C   0  0  0  0  0  0  0  0  0  0  0  0
    7.8656   -0.7268   24.5150 N   0  0  0  0  0  0  0  0  0  0  0  0
    8.0060    0.2642   24.6768 H   0  0  0  0  0  0  0  0  0  0  0  0
    9.0617   -1.4698   24.9640 C   0  0  0  0  0  0  0  0  0  0  0  0
    8.8547   -2.5467   24.9562 H   0  0  0  0  0  0  0  0  0  0  0  0
    9.2083   -1.2143   26.0204 H   0  0  0  0  0  0  0  0  0  0  0  0
   10.3061   -1.1783   24.1278 C   0  0  0  0  0  0  0  0  0  0  0  0
   10.9890    0.0493   24.2064 C   0  0  0  0  0  0  0  0  0  0  0  0
   10.7424    0.7961   24.9535 H   0  0  0  0  0  0  0  0  0  0  0  0
   12.0265    0.3174   23.3113 C   0  0  0  0  0  0  0  0  0  0  0  0
   12.5640    1.2636   23.3672 H   0  0  0  0  0  0  0  0  0  0  0  0
   12.4368   -0.5400   22.3713 N   0  0  0  0  0  0  0  0  0  0  0  0
   11.7971   -1.7122   22.2939 C   0  0  0  0  0  0  0  0  0  0  0  0
   12.1783   -2.3923   21.5376 H   0  0  0  0  0  0  0  0  0  0  0  0
   10.7404   -2.0749   23.1370 C   0  0  0  0  0  0  0  0  0  0  0  0
   10.2559   -3.0388   23.0271 H   0  0  0  0  0  0  0  0  0  0  0  0
    7.1475   -2.0648   22.6980 N   0  0  0  0  0  0  0  0  0  0  0  0
    6.9080   -2.8464   23.2738 H   0  0  0  0  0  0  0  0  0  0  0  0
    6.7146   -1.9792   21.4097 C   0  0  0  0  0  0  0  0  0  0  0  0
    6.0859   -3.2360   20.5277 S   0  0  0  0  0  0  0  0  0  0  0  0
    5.1803    0.7170   20.0084 C   0  0  0  0  0  0  0  0  0  0  0  0
    4.6335    0.7380   20.9511 H   0  0  0  0  0  0  0  0  0  0  0  0
    4.7226    1.3845   18.8699 C   0  0  0  0  0  0  0  0  0  0  0  0
    3.8042    1.9600   18.8787 H   0  0  0  0  0  0  0  0  0  0  0  0
  1  2  1  0
  2  3  2  0
  3  4  1  0
  4  5  1  0
  4  6  2  0
  6  7  1  0
  7  8  1  0
  8  9  1  0
  8 10  2  0
 10 11  1  0
 11 12  1  0
 11 13  1  0
 13 14  1  0
 13 15  1  0
 13 16  1  0
 16 17  2  0
 17 18  1  0
 17 19  1  0
 19 20  1  0
 19 21  2  0
 21 22  1  0
 22 23  1  0
 22 24  2  0
 24 25  1  0
 10 26  1  0
 26 27  1  0
 26 28  1  0
 28 29  2  0
  6 30  1  0
 30 31  1  0
 30 32  2  0
 32 33  1  0
 32  2  1  0
 28  7  1  0
 24 16  1  0
M  END
>  <cnnaffinity>  (1) 
-5.37609

>  <filename>  (1) 
S=c1[nH]c(NCc2ccncc2)cn1-c1cccnc1

$$$$
