
     RDKit          3D

 34 36  0  0  0  0  0  0  0  0999 V2000
    7.3773    1.0188   22.3559 H   0  0  0  0  0  0  0  0  0  0  0  0
    7.6172   -0.0161   22.1856 C   0  0  0  0  0  0  0  0  0  0  0  0
    7.2954   -0.6157   21.0270 C   0  0  0  0  0  0  0  0  0  0  0  0
    6.6209    0.0498   19.9034 C   0  0  0  0  0  0  0  0  0  0  0  0
    7.1739    0.0232   18.6096 C   0  0  0  0  0  0  0  0  0  0  0  0
    8.1264   -0.4757   18.4310 H   0  0  0  0  0  0  0  0  0  0  0  0
    6.6200    0.6117   17.5440 N   0  0  0  0  0  0  0  0  0  0  0  0
    5.4622    1.2660   17.7382 C   0  0  0  0  0  0  0  0  0  0  0  0
    5.0163    1.7288   16.8613 H   0  0  0  0  0  0  0  0  0  0  0  0
    4.8290    1.3666   18.9846 C   0  0  0  0  0  0  0  0  0  0  0  0
    3.8899    1.9040   19.0764 H   0  0  0  0  0  0  0  0  0  0  0  0
    5.4278    0.7681   20.0910 C   0  0  0  0  0  0  0  0  0  0  0  0
    4.9846    0.8331   21.0896 H   0  0  0  0  0  0  0  0  0  0  0  0
    7.6426   -1.9501   20.8532 N   0  0  0  0  0  0  0  0  0  0  0  0
    7.2535   -2.4925   20.1042 H   0  0  0  0  0  0  0  0  0  0  0  0
    8.0861   -2.7490   21.8630 C   0  0  0  0  0  0  0  0  0  0  0  0
    8.0828   -4.3965   21.6806 S   0  0  0  0  0  0  0  0  0  0  0  0
    8.4979   -2.1271   22.9773 N   0  0  0  0  0  0  0  0  0  0  0  0
    8.6588   -2.7689   23.7352 H   0  0  0  0  0  0  0  0  0  0  0  0
    8.4060   -0.6914   23.2452 C   0  0  1  0  0  0  0  0  0  0  0  0
    7.8958   -0.5566   24.2150 H   0  0  0  0  0  0  0  0  0  0  0  0
    9.8341   -0.0834   23.3810 C   0  0  0  0  0  0  0  0  0  0  0  0
   10.3732   -0.5953   24.1821 H   0  0  0  0  0  0  0  0  0  0  0  0
   10.3679   -0.2320   22.4371 H   0  0  0  0  0  0  0  0  0  0  0  0
    9.7298    1.3728   23.7164 C   0  0  0  0  0  0  0  0  0  0  0  0
    9.5454    1.6534   25.0146 N   0  0  0  0  0  0  0  0  0  0  0  0
    9.3771    2.9319   25.3640 C   0  0  0  0  0  0  0  0  0  0  0  0
    9.2206    3.1145   26.4267 H   0  0  0  0  0  0  0  0  0  0  0  0
    9.3903    3.9922   24.4532 C   0  0  0  0  0  0  0  0  0  0  0  0
    9.2462    5.0053   24.8066 H   0  0  0  0  0  0  0  0  0  0  0  0
    9.5750    3.7061   23.0983 C   0  0  0  0  0  0  0  0  0  0  0  0
    9.5733    4.5022   22.3533 H   0  0  0  0  0  0  0  0  0  0  0  0
    9.7393    2.3696   22.7247 C   0  0  0  0  0  0  0  0  0  0  0  0
    9.8471    2.0761   21.6845 H   0  0  0  0  0  0  0  0  0  0  0  0
  1  2  1  0
  2  3  2  0
  3  4  1  0
  4  5  2  0
  5  6  1  0
  5  7  1  0
  7  8  2  0
  8  9  1  0
  8 10  1  0
 10 11  1  0
 10 12  2  0
 12 13  1  0
  3 14  1  0
 14 15  1  0
 14 16  1  0
 16 17  2  0
 16 18  1  0
 18 19  1  0
 18 20  1  0
 20 21  1  1
 20 22  1  0
 22 23  1  0
 22 24  1  0
 22 25  1  0
 25 26  2  0
 26 27  1  0
 27 28  1  0
 27 29  2  0
 29 30  1  0
 29 31  1  0
 31 32  1  0
 31 33  2  0
 33 34  1  0
 20  2  1  0
 33 25  1  0
 12  4  1  0
M  END
>  <cnnaffinity>  (1) 
-5.34273

>  <filename>  (1) 
S=C1NC(c2cccnc2)=C[C@H](Cc2ccccn2)N1

$$$$
