
     RDKit          3D

 31 33  0  0  0  0  0  0  0  0999 V2000
    4.9467    1.7982   16.9572 H   0  0  0  0  0  0  0  0  0  0  0  0
    5.4116    1.3038   17.8073 C   0  0  0  0  0  0  0  0  0  0  0  0
    6.5624    0.6609   17.5553 N   0  0  0  0  0  0  0  0  0  0  0  0
    7.1629    0.0443   18.5795 C   0  0  0  0  0  0  0  0  0  0  0  0
    8.0984   -0.4611   18.3596 H   0  0  0  0  0  0  0  0  0  0  0  0
    6.6426    0.0171   19.8901 C   0  0  0  0  0  0  0  0  0  0  0  0
    7.2910   -0.7031   20.9354 N   0  0  0  0  0  0  0  0  0  0  0  0
    6.6528   -1.6858   21.7037 C   0  0  0  0  0  0  0  0  0  0  0  0
    5.6054   -1.9090   21.6080 H   0  0  0  0  0  0  0  0  0  0  0  0
    7.5727   -2.1727   22.5603 C   0  0  0  0  0  0  0  0  0  0  0  0
    7.4843   -3.1110   23.5606 N   0  0  0  0  0  0  0  0  0  0  0  0
    6.5592   -3.0938   23.9649 H   0  0  0  0  0  0  0  0  0  0  0  0
    8.5245   -3.2210   24.5728 C   0  0  0  0  0  0  0  0  0  0  0  0
    9.4624   -3.5457   24.1045 H   0  0  0  0  0  0  0  0  0  0  0  0
    8.2435   -4.0507   25.2282 H   0  0  0  0  0  0  0  0  0  0  0  0
    8.7814   -1.9742   25.3923 C   0  0  0  0  0  0  0  0  0  0  0  0
    7.6889   -1.4957   26.6370 S   0  0  0  0  0  0  0  0  0  0  0  0
    8.7767   -0.2934   27.2133 C   0  0  0  0  0  0  0  0  0  0  0  0
    8.5315    0.2591   28.1113 H   0  0  0  0  0  0  0  0  0  0  0  0
    9.8902   -0.2021   26.4345 C   0  0  0  0  0  0  0  0  0  0  0  0
   10.7013    0.5003   26.6161 H   0  0  0  0  0  0  0  0  0  0  0  0
    9.8745   -1.1517   25.3681 C   0  0  0  0  0  0  0  0  0  0  0  0
   10.6766   -1.2388   24.6388 H   0  0  0  0  0  0  0  0  0  0  0  0
    8.7583   -1.5467   22.2764 N   0  0  0  0  0  0  0  0  0  0  0  0
    9.5685   -1.5507   22.8598 H   0  0  0  0  0  0  0  0  0  0  0  0
    8.5948   -0.5604   21.3538 C   0  0  0  0  0  0  0  0  0  0  0  0
    9.7476    0.5635   20.9436 S   0  0  0  0  0  0  0  0  0  0  0  0
    5.4393    0.6850   20.1422 C   0  0  0  0  0  0  0  0  0  0  0  0
    5.0178    0.6855   21.1519 H   0  0  0  0  0  0  0  0  0  0  0  0
    4.8175    1.3428   19.0753 C   0  0  0  0  0  0  0  0  0  0  0  0
    3.8819    1.8741   19.2112 H   0  0  0  0  0  0  0  0  0  0  0  0
  1  2  1  0
  2  3  2  0
  3  4  1  0
  4  5  1  0
  4  6  2  0
  6  7  1  0
  7  8  1  0
  8  9  1  0
  8 10  2  0
 10 11  1  0
 11 12  1  0
 11 13  1  0
 13 14  1  0
 13 15  1  0
 13 16  1  0
 16 17  1  0
 17 18  1  0
 18 19  1  0
 18 20  2  0
 20 21  1  0
 20 22  1  0
 22 23  1  0
 10 24  1  0
 24 25  1  0
 24 26  1  0
 26 27  2  0
  6 28  1  0
 28 29  1  0
 28 30  2  0
 30 31  1  0
 30  2  1  0
 26  7  1  0
 22 16  2  0
M  END
>  <cnnaffinity>  (1) 
-5.31842

>  <filename>  (1) 
S=c1[nH]c(NCc2cccs2)cn1-c1cccnc1

$$$$
