
     RDKit          3D

 21 22  0  0  0  0  0  0  0  0999 V2000
    4.9391    1.8093   17.0002 H   0  0  0  0  0  0  0  0  0  0  0  0
    5.4118    1.3026   17.8398 C   0  0  0  0  0  0  0  0  0  0  0  0
    6.5755    0.6866   17.5747 N   0  0  0  0  0  0  0  0  0  0  0  0
    7.1891    0.0562   18.5801 C   0  0  0  0  0  0  0  0  0  0  0  0
    8.1371   -0.4392   18.3691 H   0  0  0  0  0  0  0  0  0  0  0  0
    6.6672    0.0023   19.8889 C   0  0  0  0  0  0  0  0  0  0  0  0
    7.3457   -0.7017   20.9512 N   0  0  0  0  0  0  0  0  0  0  0  0
    8.3004   -0.2017   21.8278 C   0  0  0  0  0  0  0  0  0  0  0  0
    8.8166    1.1978   21.8718 C   0  0  0  0  0  0  0  0  0  0  0  0
    9.0570    1.4546   22.9020 H   0  0  0  0  0  0  0  0  0  0  0  0
    8.0785    1.8990   21.4854 H   0  0  0  0  0  0  0  0  0  0  0  0
   10.3218    1.4338   20.9228 Cl  0  0  0  0  0  0  0  0  0  0  0  0
    8.7033   -1.1129   22.6635 N   0  0  0  0  0  0  0  0  0  0  0  0
    8.0134   -2.2233   22.2918 N   0  0  0  0  0  0  0  0  0  0  0  0
    8.1196   -3.1248   22.7307 H   0  0  0  0  0  0  0  0  0  0  0  0
    7.1426   -2.0389   21.2804 C   0  0  0  0  0  0  0  0  0  0  0  0
    6.1111   -3.1839   20.6603 S   0  0  0  0  0  0  0  0  0  0  0  0
    5.4536    0.6468   20.1548 C   0  0  0  0  0  0  0  0  0  0  0  0
    5.0475    0.6029   21.1628 H   0  0  0  0  0  0  0  0  0  0  0  0
    4.8116    1.3138   19.1033 C   0  0  0  0  0  0  0  0  0  0  0  0
    3.8702    1.8362   19.2542 H   0  0  0  0  0  0  0  0  0  0  0  0
  1  2  1  0
  2  3  2  0
  3  4  1  0
  4  5  1  0
  4  6  2  0
  6  7  1  0
  7  8  1  0
  8  9  1  0
  9 10  1  0
  9 11  1  0
  9 12  1  0
  8 13  2  0
 13 14  1  0
 14 15  1  0
 14 16  1  0
 16 17  2  0
  6 18  1  0
 18 19  1  0
 18 20  2  0
 20 21  1  0
 20  2  1  0
 16  7  1  0
M  END
>  <cnnaffinity>  (1) 
-4.29997

>  <filename>  (1) 
S=c1[nH]nc(CCl)n1-c1cccnc1

$$$$
