
     RDKit          3D

 29 31  0  0  0  0  0  0  0  0999 V2000
    4.9308    1.8006   16.9954 H   0  0  0  0  0  0  0  0  0  0  0  0
    5.3954    1.2910   17.8329 C   0  0  0  0  0  0  0  0  0  0  0  0
    6.5510    0.6615   17.5639 N   0  0  0  0  0  0  0  0  0  0  0  0
    7.1701    0.0457   18.5777 C   0  0  0  0  0  0  0  0  0  0  0  0
    8.1250   -0.4324   18.3620 H   0  0  0  0  0  0  0  0  0  0  0  0
    6.6499    0.0019   19.8867 C   0  0  0  0  0  0  0  0  0  0  0  0
    7.3320   -0.6837   20.9398 N   0  0  0  0  0  0  0  0  0  0  0  0
    6.7407   -1.6154   21.7791 C   0  0  0  0  0  0  0  0  0  0  0  0
    5.6873   -1.8405   21.7107 H   0  0  0  0  0  0  0  0  0  0  0  0
    7.6825   -2.0721   22.6394 C   0  0  0  0  0  0  0  0  0  0  0  0
    7.5630   -3.0565   23.7205 C   0  0  0  0  0  0  0  0  0  0  0  0
    6.7965   -4.2076   23.4628 C   0  0  0  0  0  0  0  0  0  0  0  0
    6.3516   -4.2960   22.4756 H   0  0  0  0  0  0  0  0  0  0  0  0
    6.6130   -5.2014   24.4235 C   0  0  0  0  0  0  0  0  0  0  0  0
    6.0121   -6.0759   24.1889 H   0  0  0  0  0  0  0  0  0  0  0  0
    7.1955   -5.0584   25.6888 C   0  0  0  0  0  0  0  0  0  0  0  0
    7.0627   -5.8307   26.4470 H   0  0  0  0  0  0  0  0  0  0  0  0
    7.9482   -3.9157   25.9815 C   0  0  0  0  0  0  0  0  0  0  0  0
    8.4082   -3.7746   26.9564 H   0  0  0  0  0  0  0  0  0  0  0  0
    8.1240   -2.9240   25.0097 C   0  0  0  0  0  0  0  0  0  0  0  0
    9.0313   -1.5113   25.4836 Cl  0  0  0  0  0  0  0  0  0  0  0  0
    8.8493   -1.4124   22.2952 N   0  0  0  0  0  0  0  0  0  0  0  0
    9.7639   -1.4579   22.7096 H   0  0  0  0  0  0  0  0  0  0  0  0
    8.6538   -0.5155   21.3005 C   0  0  0  0  0  0  0  0  0  0  0  0
    9.8113    0.5431   20.7734 S   0  0  0  0  0  0  0  0  0  0  0  0
    5.4396    0.6473   20.1528 C   0  0  0  0  0  0  0  0  0  0  0  0
    5.0356    0.6341   21.1675 H   0  0  0  0  0  0  0  0  0  0  0  0
    4.8033    1.3118   19.1015 C   0  0  0  0  0  0  0  0  0  0  0  0
    3.8721    1.8457   19.2595 H   0  0  0  0  0  0  0  0  0  0  0  0
  1  2  1  0
  2  3  2  0
  3  4  1  0
  4  5  1  0
  4  6  2  0
  6  7  1  0
  7  8  1  0
  8  9  1  0
  8 10  2  0
 10 11  1  0
 11 12  2  0
 12 13  1  0
 12 14  1  0
 14 15  1  0
 14 16  2  0
 16 17  1  0
 16 18  1  0
 18 19  1  0
 18 20  2  0
 20 21  1  0
 10 22  1  0
 22 23  1  0
 22 24  1  0
 24 25  2  0
  6 26  1  0
 26 27  1  0
 26 28  2  0
 28 29  1  0
 28  2  1  0
 24  7  1  0
 20 11  1  0
M  END
>  <cnnaffinity>  (1) 
-5.63106

>  <filename>  (1) 
S=c1[nH]c(-c2ccccc2Cl)cn1-c1cccnc1

$$$$
