
     RDKit          3D

 37 39  0  0  0  0  0  0  0  0999 V2000
    4.9529    1.8013   16.9844 H   0  0  0  0  0  0  0  0  0  0  0  0
    5.4192    1.2910   17.8257 C   0  0  0  0  0  0  0  0  0  0  0  0
    6.5721    0.6496   17.5712 N   0  0  0  0  0  0  0  0  0  0  0  0
    7.1793    0.0322   18.5946 C   0  0  0  0  0  0  0  0  0  0  0  0
    8.1172   -0.4758   18.3838 H   0  0  0  0  0  0  0  0  0  0  0  0
    6.6651    0.0069   19.9064 C   0  0  0  0  0  0  0  0  0  0  0  0
    7.3226   -0.6819   20.9731 N   0  0  0  0  0  0  0  0  0  0  0  0
    6.6962   -1.6788   21.7254 C   0  0  0  0  0  0  0  0  0  0  0  0
    5.6409   -1.8713   21.6427 H   0  0  0  0  0  0  0  0  0  0  0  0
    7.6190   -2.1714   22.5714 C   0  0  0  0  0  0  0  0  0  0  0  0
    7.6380   -3.1852   23.4960 N   0  0  0  0  0  0  0  0  0  0  0  0
    8.3662   -3.0265   24.1726 H   0  0  0  0  0  0  0  0  0  0  0  0
    6.3495   -3.5841   24.0609 C   0  0  0  0  0  0  0  0  0  0  0  0
    5.7326   -3.8836   23.2076 H   0  0  0  0  0  0  0  0  0  0  0  0
    6.5308   -4.8315   24.9437 C   0  0  0  0  0  0  0  0  0  0  0  0
    7.2402   -5.5015   24.4457 H   0  0  0  0  0  0  0  0  0  0  0  0
    5.5643   -5.3581   24.9974 H   0  0  0  0  0  0  0  0  0  0  0  0
    6.9795   -4.5274   26.3821 C   0  0  0  0  0  0  0  0  0  0  0  0
    7.0373   -5.4593   26.9582 H   0  0  0  0  0  0  0  0  0  0  0  0
    7.9955   -4.0983   26.3839 H   0  0  0  0  0  0  0  0  0  0  0  0
    5.9969   -3.5457   27.0333 C   0  0  0  0  0  0  0  0  0  0  0  0
    4.9917   -3.9942   27.0252 H   0  0  0  0  0  0  0  0  0  0  0  0
    6.2421   -3.3871   28.0846 H   0  0  0  0  0  0  0  0  0  0  0  0
    5.9703   -2.2185   26.2655 C   0  0  0  0  0  0  0  0  0  0  0  0
    6.9552   -1.7310   26.3424 H   0  0  0  0  0  0  0  0  0  0  0  0
    5.2560   -1.5251   26.7289 H   0  0  0  0  0  0  0  0  0  0  0  0
    5.5970   -2.4331   24.7869 C   0  0  0  0  0  0  0  0  0  0  0  0
    5.7769   -1.5052   24.2267 H   0  0  0  0  0  0  0  0  0  0  0  0
    4.5179   -2.6425   24.7194 H   0  0  0  0  0  0  0  0  0  0  0  0
    8.7683   -1.4587   22.3764 N   0  0  0  0  0  0  0  0  0  0  0  0
    9.6039   -1.5363   22.9224 H   0  0  0  0  0  0  0  0  0  0  0  0
    8.6183   -0.5076   21.4167 C   0  0  0  0  0  0  0  0  0  0  0  0
    9.7731    0.5915   20.9549 S   0  0  0  0  0  0  0  0  0  0  0  0
    5.4513    0.6556   20.1514 C   0  0  0  0  0  0  0  0  0  0  0  0
    5.0320    0.6491   21.1572 H   0  0  0  0  0  0  0  0  0  0  0  0
    4.8228    1.3143   19.0904 C   0  0  0  0  0  0  0  0  0  0  0  0
    3.8912    1.8489   19.2394 H   0  0  0  0  0  0  0  0  0  0  0  0
  1  2  1  0
  2  3  2  0
  3  4  1  0
  4  5  1  0
  4  6  2  0
  6  7  1  0
  7  8  1  0
  8  9  1  0
  8 10  2  0
 10 11  1  0
 11 12  1  0
 11 13  1  0
 13 14  1  0
 13 15  1  0
 15 16  1  0
 15 17  1  0
 15 18  1  0
 18 19  1  0
 18 20  1  0
 18 21  1  0
 21 22  1  0
 21 23  1  0
 21 24  1  0
 24 25  1  0
 24 26  1  0
 24 27  1  0
 27 28  1  0
 27 29  1  0
 10 30  1  0
 30 31  1  0
 30 32  1  0
 32 33  2  0
  6 34  1  0
 34 35  1  0
 34 36  2  0
 36 37  1  0
 36  2  1  0
 32  7  1  0
 27 13  1  0
M  END
>  <cnnaffinity>  (1) 
-5.35302

>  <filename>  (1) 
S=c1[nH]c(NC2CCCCC2)cn1-c1cccnc1

$$$$
