
     RDKit          3D

 34 37  0  0  0  0  0  0  0  0999 V2000
    4.9311    1.7990   16.9967 H   0  0  0  0  0  0  0  0  0  0  0  0
    5.3959    1.2900   17.8350 C   0  0  0  0  0  0  0  0  0  0  0  0
    6.5505    0.6601   17.5655 N   0  0  0  0  0  0  0  0  0  0  0  0
    7.1710    0.0425   18.5767 C   0  0  0  0  0  0  0  0  0  0  0  0
    8.1252   -0.4319   18.3542 H   0  0  0  0  0  0  0  0  0  0  0  0
    6.6523   -0.0020   19.8862 C   0  0  0  0  0  0  0  0  0  0  0  0
    7.3377   -0.6723   20.9407 N   0  0  0  0  0  0  0  0  0  0  0  0
    6.7359   -1.5705   21.8065 C   0  0  0  0  0  0  0  0  0  0  0  0
    5.6862   -1.8065   21.7490 H   0  0  0  0  0  0  0  0  0  0  0  0
    7.6751   -2.0111   22.6839 C   0  0  0  0  0  0  0  0  0  0  0  0
    7.5656   -2.8877   23.8447 C   0  0  0  0  0  0  0  0  0  0  0  0
    8.0595   -2.5045   25.0814 C   0  0  0  0  0  0  0  0  0  0  0  0
    8.5938   -1.5626   25.1590 H   0  0  0  0  0  0  0  0  0  0  0  0
    7.8455   -3.2792   26.2497 C   0  0  0  0  0  0  0  0  0  0  0  0
    8.2390   -2.9254   27.2037 H   0  0  0  0  0  0  0  0  0  0  0  0
    7.1306   -4.4565   26.1656 C   0  0  0  0  0  0  0  0  0  0  0  0
    6.9204   -5.0976   27.0193 H   0  0  0  0  0  0  0  0  0  0  0  0
    6.6241   -4.9017   24.9114 C   0  0  0  0  0  0  0  0  0  0  0  0
    5.9111   -6.0744   24.9052 N   0  0  0  0  0  0  0  0  0  0  0  0
    5.4780   -6.5223   23.7518 C   0  0  0  0  0  0  0  0  0  0  0  0
    4.9454   -7.4735   23.7751 H   0  0  0  0  0  0  0  0  0  0  0  0
    5.6877   -5.8695   22.5058 C   0  0  0  0  0  0  0  0  0  0  0  0
    5.2960   -6.3251   21.6034 H   0  0  0  0  0  0  0  0  0  0  0  0
    6.3808   -4.6823   22.4889 C   0  0  0  0  0  0  0  0  0  0  0  0
    6.5736   -4.1396   21.5629 H   0  0  0  0  0  0  0  0  0  0  0  0
    6.8641   -4.1367   23.7234 C   0  0  0  0  0  0  0  0  0  0  0  0
    8.8350   -1.3416   22.3410 N   0  0  0  0  0  0  0  0  0  0  0  0
    9.7601   -1.4162   22.7254 H   0  0  0  0  0  0  0  0  0  0  0  0
    8.6566   -0.4896   21.3075 C   0  0  0  0  0  0  0  0  0  0  0  0
    9.8223    0.5503   20.7628 S   0  0  0  0  0  0  0  0  0  0  0  0
    5.4428    0.6426   20.1555 C   0  0  0  0  0  0  0  0  0  0  0  0
    5.0473    0.6291   21.1747 H   0  0  0  0  0  0  0  0  0  0  0  0
    4.8059    1.3089   19.1049 C   0  0  0  0  0  0  0  0  0  0  0  0
    3.8759    1.8443   19.2592 H   0  0  0  0  0  0  0  0  0  0  0  0
  1  2  1  0
  2  3  2  0
  3  4  1  0
  4  5  1  0
  4  6  2  0
  6  7  1  0
  7  8  1  0
  8  9  1  0
  8 10  2  0
 10 11  1  0
 11 12  2  0
 12 13  1  0
 12 14  1  0
 14 15  1  0
 14 16  2  0
 16 17  1  0
 16 18  1  0
 18 19  2  0
 19 20  1  0
 20 21  1  0
 20 22  2  0
 22 23  1  0
 22 24  1  0
 24 25  1  0
 24 26  2  0
 10 27  1  0
 27 28  1  0
 27 29  1  0
 29 30  2  0
  6 31  1  0
 31 32  1  0
 31 33  2  0
 33 34  1  0
 33  2  1  0
 29  7  1  0
 26 11  1  0
 26 18  1  0
M  END
>  <cnnaffinity>  (1) 
-5.9435

>  <filename>  (1) 
S=c1[nH]c(-c2cccc3ncccc23)cn1-c1cccnc1

$$$$
