
     RDKit          3D

 31 33  0  0  0  0  0  0  0  0999 V2000
    4.9773    1.8908   17.0010 H   0  0  0  0  0  0  0  0  0  0  0  0
    5.4243    1.3129   17.8073 C   0  0  0  0  0  0  0  0  0  0  0  0
    6.5782    0.6915   17.5103 N   0  0  0  0  0  0  0  0  0  0  0  0
    7.1907    0.0062   18.4812 C   0  0  0  0  0  0  0  0  0  0  0  0
    8.1305   -0.4913   18.2221 H   0  0  0  0  0  0  0  0  0  0  0  0
    6.6743   -0.1003   19.7887 C   0  0  0  0  0  0  0  0  0  0  0  0
    7.4076   -0.7846   20.8054 N   0  0  0  0  0  0  0  0  0  0  0  0
    8.7338   -0.4556   21.1296 C   0  0  0  0  0  0  0  0  0  0  0  0
    9.2110    0.4039   20.6935 H   0  0  0  0  0  0  0  0  0  0  0  0
    9.1311   -1.3311   22.0767 C   0  0  0  0  0  0  0  0  0  0  0  0
   10.3089   -1.6491   22.7292 N   0  0  0  0  0  0  0  0  0  0  0  0
   10.1306   -1.6776   23.7283 H   0  0  0  0  0  0  0  0  0  0  0  0
   11.4837   -0.8468   22.4130 C   0  0  0  0  0  0  0  0  0  0  0  0
   11.5475   -0.7689   21.3200 H   0  0  0  0  0  0  0  0  0  0  0  0
   12.3798   -1.3988   22.7278 H   0  0  0  0  0  0  0  0  0  0  0  0
   11.4357    0.5382   23.0252 C   0  0  0  0  0  0  0  0  0  0  0  0
   10.5500    1.0818   22.6978 H   0  0  0  0  0  0  0  0  0  0  0  0
   12.6777    1.3627   23.2129 C   0  0  0  0  0  0  0  0  0  0  0  0
   12.6567    2.4108   22.9234 H   0  0  0  0  0  0  0  0  0  0  0  0
   13.6415    0.8868   23.0372 H   0  0  0  0  0  0  0  0  0  0  0  0
   11.8942    0.9047   24.4166 C   0  0  0  0  0  0  0  0  0  0  0  0
   12.3446    0.1546   25.0679 H   0  0  0  0  0  0  0  0  0  0  0  0
   11.3063    1.6469   24.9548 H   0  0  0  0  0  0  0  0  0  0  0  0
    8.0507   -2.1150   22.3790 N   0  0  0  0  0  0  0  0  0  0  0  0
    8.0691   -2.9184   22.9788 H   0  0  0  0  0  0  0  0  0  0  0  0
    6.9910   -1.8608   21.5610 C   0  0  0  0  0  0  0  0  0  0  0  0
    5.6026   -2.7677   21.4699 S   0  0  0  0  0  0  0  0  0  0  0  0
    5.4500    0.5132   20.0826 C   0  0  0  0  0  0  0  0  0  0  0  0
    5.0204    0.4139   21.0813 H   0  0  0  0  0  0  0  0  0  0  0  0
    4.8230    1.2490   19.0698 C   0  0  0  0  0  0  0  0  0  0  0  0
    3.8986    1.7900   19.2481 H   0  0  0  0  0  0  0  0  0  0  0  0
  1  2  1  0
  2  3  2  0
  3  4  1  0
  4  5  1  0
  4  6  2  0
  6  7  1  0
  7  8  1  0
  8  9  1  0
  8 10  2  0
 10 11  1  0
 11 12  1  0
 11 13  1  0
 13 14  1  0
 13 15  1  0
 13 16  1  0
 16 17  1  0
 16 18  1  0
 18 19  1  0
 18 20  1  0
 18 21  1  0
 21 22  1  0
 21 23  1  0
 10 24  1  0
 24 25  1  0
 24 26  1  0
 26 27  2  0
  6 28  1  0
 28 29  1  0
 28 30  2  0
 30 31  1  0
 30  2  1  0
 26  7  1  0
 21 16  1  0
M  END
>  <cnnaffinity>  (1) 
-5.14542

>  <filename>  (1) 
S=c1[nH]c(NCC2CC2)cn1-c1cccnc1

$$$$
