
     RDKit          3D

 35 37  0  0  0  0  0  0  0  0999 V2000
    7.4277    1.0097   22.3803 H   0  0  0  0  0  0  0  0  0  0  0  0
    7.6415   -0.0289   22.2071 C   0  0  0  0  0  0  0  0  0  0  0  0
    7.3401   -0.6121   21.0299 C   0  0  0  0  0  0  0  0  0  0  0  0
    6.6760    0.0637   19.9142 C   0  0  0  0  0  0  0  0  0  0  0  0
    7.2120    0.0372   18.6138 C   0  0  0  0  0  0  0  0  0  0  0  0
    8.1581   -0.4741   18.4290 H   0  0  0  0  0  0  0  0  0  0  0  0
    6.6303    0.6247   17.5618 N   0  0  0  0  0  0  0  0  0  0  0  0
    5.4630    1.2540   17.7710 C   0  0  0  0  0  0  0  0  0  0  0  0
    5.0171    1.7278   16.8998 H   0  0  0  0  0  0  0  0  0  0  0  0
    4.8385    1.3253   19.0204 C   0  0  0  0  0  0  0  0  0  0  0  0
    3.8959    1.8471   19.1177 H   0  0  0  0  0  0  0  0  0  0  0  0
    5.4628    0.7378   20.1165 C   0  0  0  0  0  0  0  0  0  0  0  0
    5.0107    0.7685   21.1099 H   0  0  0  0  0  0  0  0  0  0  0  0
    7.6462   -1.9536   20.8411 N   0  0  0  0  0  0  0  0  0  0  0  0
    7.2211   -2.4849   20.0963 H   0  0  0  0  0  0  0  0  0  0  0  0
    8.0531   -2.7625   21.8514 C   0  0  0  0  0  0  0  0  0  0  0  0
    7.9863   -4.4082   21.7094 S   0  0  0  0  0  0  0  0  0  0  0  0
    8.5085   -2.1575   22.9655 N   0  0  0  0  0  0  0  0  0  0  0  0
    8.5214   -2.8101   23.7313 H   0  0  0  0  0  0  0  0  0  0  0  0
    8.4329   -0.7209   23.2523 C   0  0  1  0  0  0  0  0  0  0  0  0
    7.9231   -0.6060   24.2245 H   0  0  0  0  0  0  0  0  0  0  0  0
    9.8640   -0.0900   23.4107 C   0  0  0  0  0  0  0  0  0  0  0  0
   10.4150   -0.2437   22.4788 H   0  0  0  0  0  0  0  0  0  0  0  0
   10.3972   -0.6410   24.1894 H   0  0  0  0  0  0  0  0  0  0  0  0
    9.8003    1.3888   23.7509 C   0  0  0  0  0  0  0  0  0  0  0  0
    9.5640    1.7917   25.0779 C   0  0  0  0  0  0  0  0  0  0  0  0
    9.5370    1.0296   25.8540 H   0  0  0  0  0  0  0  0  0  0  0  0
    9.3499    3.1300   25.4163 C   0  0  0  0  0  0  0  0  0  0  0  0
    9.1556    3.4017   26.4477 H   0  0  0  0  0  0  0  0  0  0  0  0
    9.3971    4.1172   24.4304 C   0  0  0  0  0  0  0  0  0  0  0  0
    9.2406    5.1634   24.6826 H   0  0  0  0  0  0  0  0  0  0  0  0
    9.6524    3.7568   23.1083 C   0  0  0  0  0  0  0  0  0  0  0  0
    9.6875    4.5098   22.3312 H   0  0  0  0  0  0  0  0  0  0  0  0
    9.8530    2.4104   22.7793 C   0  0  0  0  0  0  0  0  0  0  0  0
   10.1488    2.0265   21.1054 Cl  0  0  0  0  0  0  0  0  0  0  0  0
  1  2  1  0
  2  3  2  0
  3  4  1  0
  4  5  2  0
  5  6  1  0
  5  7  1  0
  7  8  2  0
  8  9  1  0
  8 10  1  0
 10 11  1  0
 10 12  2  0
 12 13  1  0
  3 14  1  0
 14 15  1  0
 14 16  1  0
 16 17  2  0
 16 18  1  0
 18 19  1  0
 18 20  1  0
 20 21  1  1
 20 22  1  0
 22 23  1  0
 22 24  1  0
 22 25  1  0
 25 26  2  0
 26 27  1  0
 26 28  1  0
 28 29  1  0
 28 30  2  0
 30 31  1  0
 30 32  1  0
 32 33  1  0
 32 34  2  0
 34 35  1  0
 20  2  1  0
 34 25  1  0
 12  4  1  0
M  END
>  <cnnaffinity>  (1) 
-5.38765

>  <filename>  (1) 
S=C1NC(c2cccnc2)=C[C@H](Cc2ccccc2Cl)N1

$$$$
