
     RDKit          3D

 32 34  0  0  0  0  0  0  0  0999 V2000
    4.9188    1.7377   16.8569 H   0  0  0  0  0  0  0  0  0  0  0  0
    5.3695    1.3451   17.7679 C   0  0  0  0  0  0  0  0  0  0  0  0
    6.5517    0.7282   17.6159 N   0  0  0  0  0  0  0  0  0  0  0  0
    7.1223    0.1947   18.6995 C   0  0  0  0  0  0  0  0  0  0  0  0
    8.0649   -0.3372   18.5515 H   0  0  0  0  0  0  0  0  0  0  0  0
    6.5537    0.2619   19.9889 C   0  0  0  0  0  0  0  0  0  0  0  0
    7.1705   -0.4234   21.0806 N   0  0  0  0  0  0  0  0  0  0  0  0
    7.5321   -1.7628   21.0119 C   0  0  0  0  0  0  0  0  0  0  0  0
    7.1977   -2.3846   20.1942 H   0  0  0  0  0  0  0  0  0  0  0  0
    8.2113   -2.0848   22.1356 C   0  0  0  0  0  0  0  0  0  0  0  0
    8.8244   -3.4009   22.4813 C   0  0  0  0  0  0  0  0  0  0  0  0
    8.9536   -3.8976   21.5206 H   0  0  0  0  0  0  0  0  0  0  0  0
    9.8269   -3.2511   22.9003 H   0  0  0  0  0  0  0  0  0  0  0  0
    7.9961   -4.3038   23.3829 C   0  0  0  0  0  0  0  0  0  0  0  0
    8.1987   -4.2814   24.7713 C   0  0  0  0  0  0  0  0  0  0  0  0
    9.0185   -3.6846   25.1594 H   0  0  0  0  0  0  0  0  0  0  0  0
    7.4014   -5.0216   25.6471 C   0  0  0  0  0  0  0  0  0  0  0  0
    7.5784   -4.9634   26.7182 H   0  0  0  0  0  0  0  0  0  0  0  0
    6.3733   -5.8172   25.1411 C   0  0  0  0  0  0  0  0  0  0  0  0
    5.7366   -6.3817   25.8176 H   0  0  0  0  0  0  0  0  0  0  0  0
    6.1850   -5.9129   23.7587 C   0  0  0  0  0  0  0  0  0  0  0  0
    5.4162   -6.5550   23.3447 H   0  0  0  0  0  0  0  0  0  0  0  0
    6.9954   -5.1675   22.8961 C   0  0  0  0  0  0  0  0  0  0  0  0
    6.7407   -5.3864   21.1814 Cl  0  0  0  0  0  0  0  0  0  0  0  0
    8.2534   -0.9194   22.8850 N   0  0  0  0  0  0  0  0  0  0  0  0
    8.6112   -0.7727   23.8146 H   0  0  0  0  0  0  0  0  0  0  0  0
    7.5662    0.1026   22.2954 C   0  0  0  0  0  0  0  0  0  0  0  0
    7.2913    1.5849   22.9996 S   0  0  0  0  0  0  0  0  0  0  0  0
    5.3557    0.9670   20.1521 C   0  0  0  0  0  0  0  0  0  0  0  0
    4.9332    1.0993   21.1478 H   0  0  0  0  0  0  0  0  0  0  0  0
    4.7337    1.4807   19.0067 C   0  0  0  0  0  0  0  0  0  0  0  0
    3.7713    1.9795   19.0574 H   0  0  0  0  0  0  0  0  0  0  0  0
  1  2  1  0
  2  3  2  0
  3  4  1  0
  4  5  1  0
  4  6  2  0
  6  7  1  0
  7  8  1  0
  8  9  1  0
  8 10  2  0
 10 11  1  0
 11 12  1  0
 11 13  1  0
 11 14  1  0
 14 15  2  0
 15 16  1  0
 15 17  1  0
 17 18  1  0
 17 19  2  0
 19 20  1  0
 19 21  1  0
 21 22  1  0
 21 23  2  0
 23 24  1  0
 10 25  1  0
 25 26  1  0
 25 27  1  0
 27 28  2  0
  6 29  1  0
 29 30  1  0
 29 31  2  0
 31 32  1  0
 31  2  1  0
 27  7  1  0
 23 14  1  0
M  END
>  <cnnaffinity>  (1) 
-5.57442

>  <filename>  (1) 
S=c1[nH]c(Cc2ccccc2Cl)cn1-c1cccnc1

$$$$
