
     RDKit          3D

 34 36  0  0  0  0  0  0  0  0999 V2000
    7.3993    1.0075   22.3614 H   0  0  0  0  0  0  0  0  0  0  0  0
    7.6284   -0.0297   22.1866 C   0  0  0  0  0  0  0  0  0  0  0  0
    7.3352   -0.6208   21.0109 C   0  0  0  0  0  0  0  0  0  0  0  0
    6.6649    0.0553   19.9008 C   0  0  0  0  0  0  0  0  0  0  0  0
    7.1928    0.0291   18.5999 C   0  0  0  0  0  0  0  0  0  0  0  0
    8.1273   -0.4992   18.4084 H   0  0  0  0  0  0  0  0  0  0  0  0
    6.6169    0.6253   17.5498 N   0  0  0  0  0  0  0  0  0  0  0  0
    5.4519    1.2604   17.7652 C   0  0  0  0  0  0  0  0  0  0  0  0
    5.0077    1.7427   16.8970 H   0  0  0  0  0  0  0  0  0  0  0  0
    4.8287    1.3315   19.0166 C   0  0  0  0  0  0  0  0  0  0  0  0
    3.8867    1.8613   19.1183 H   0  0  0  0  0  0  0  0  0  0  0  0
    5.4539    0.7365   20.1098 C   0  0  0  0  0  0  0  0  0  0  0  0
    5.0036    0.7653   21.1051 H   0  0  0  0  0  0  0  0  0  0  0  0
    7.6490   -1.9655   20.8186 N   0  0  0  0  0  0  0  0  0  0  0  0
    7.1787   -2.4808   20.0944 H   0  0  0  0  0  0  0  0  0  0  0  0
    8.0372   -2.7772   21.8370 C   0  0  0  0  0  0  0  0  0  0  0  0
    7.9042   -4.4291   21.7515 S   0  0  0  0  0  0  0  0  0  0  0  0
    8.5131   -2.1638   22.9370 N   0  0  0  0  0  0  0  0  0  0  0  0
    8.4800   -2.8152   23.7020 H   0  0  0  0  0  0  0  0  0  0  0  0
    8.4326   -0.7204   23.2205 C   0  0  1  0  0  0  0  0  0  0  0  0
    7.9402   -0.6024   24.1979 H   0  0  0  0  0  0  0  0  0  0  0  0
    9.8571   -0.0928   23.3644 C   0  0  0  0  0  0  0  0  0  0  0  0
   10.3721   -0.2318   22.4081 H   0  0  0  0  0  0  0  0  0  0  0  0
   10.4083   -0.6538   24.1244 H   0  0  0  0  0  0  0  0  0  0  0  0
    9.7757    1.3716   23.7247 C   0  0  0  0  0  0  0  0  0  0  0  0
    9.7650    2.3782   22.7500 C   0  0  0  0  0  0  0  0  0  0  0  0
    9.8710    2.1364   21.6985 H   0  0  0  0  0  0  0  0  0  0  0  0
    9.5705    3.7101   23.1302 C   0  0  0  0  0  0  0  0  0  0  0  0
    9.5740    4.5041   22.3872 H   0  0  0  0  0  0  0  0  0  0  0  0
    9.3702    4.1001   24.3972 N   0  0  0  0  0  0  0  0  0  0  0  0
    9.3636    3.1356   25.3249 C   0  0  0  0  0  0  0  0  0  0  0  0
    9.1984    3.4603   26.3511 H   0  0  0  0  0  0  0  0  0  0  0  0
    9.5735    1.7844   25.0473 C   0  0  0  0  0  0  0  0  0  0  0  0
    9.5656    1.0676   25.8601 H   0  0  0  0  0  0  0  0  0  0  0  0
  1  2  1  0
  2  3  2  0
  3  4  1  0
  4  5  2  0
  5  6  1  0
  5  7  1  0
  7  8  2  0
  8  9  1  0
  8 10  1  0
 10 11  1  0
 10 12  2  0
 12 13  1  0
  3 14  1  0
 14 15  1  0
 14 16  1  0
 16 17  2  0
 16 18  1  0
 18 19  1  0
 18 20  1  0
 20 21  1  1
 20 22  1  0
 22 23  1  0
 22 24  1  0
 22 25  1  0
 25 26  2  0
 26 27  1  0
 26 28  1  0
 28 29  1  0
 28 30  2  0
 30 31  1  0
 31 32  1  0
 31 33  2  0
 33 34  1  0
 20  2  1  0
 33 25  1  0
 12  4  1  0
M  END
>  <cnnaffinity>  (1) 
-5.23947

>  <filename>  (1) 
S=C1NC(c2cccnc2)=C[C@H](Cc2ccncc2)N1

$$$$
