
     RDKit          3D

 31 33  0  0  0  0  0  0  0  0999 V2000
    5.6554   -1.6835   21.6843 H   0  0  0  0  0  0  0  0  0  0  0  0
    6.7238   -1.5483   21.7823 C   0  0  0  0  0  0  0  0  0  0  0  0
    7.3897   -0.7244   20.9469 C   0  0  0  0  0  0  0  0  0  0  0  0
    6.7071    0.0426   19.8987 C   0  0  0  0  0  0  0  0  0  0  0  0
    7.2057    0.0856   18.5859 C   0  0  0  0  0  0  0  0  0  0  0  0
    8.1362   -0.4203   18.3354 H   0  0  0  0  0  0  0  0  0  0  0  0
    6.5765    0.6816   17.5675 N   0  0  0  0  0  0  0  0  0  0  0  0
    5.4123    1.2933   17.8356 C   0  0  0  0  0  0  0  0  0  0  0  0
    4.9273    1.7844   16.9946 H   0  0  0  0  0  0  0  0  0  0  0  0
    4.8222    1.3166   19.1066 C   0  0  0  0  0  0  0  0  0  0  0  0
    3.8772    1.8326   19.2539 H   0  0  0  0  0  0  0  0  0  0  0  0
    5.4714    0.6650   20.1543 C   0  0  0  0  0  0  0  0  0  0  0  0
    5.0363    0.6336   21.1586 H   0  0  0  0  0  0  0  0  0  0  0  0
    8.7725   -0.6103   21.0695 N   0  0  0  0  0  0  0  0  0  0  0  0
    9.3293    0.0529   20.5621 H   0  0  0  0  0  0  0  0  0  0  0  0
    9.5273   -1.3689   21.8993 C   0  0  0  0  0  0  0  0  0  0  0  0
   11.1687   -1.1999   21.9872 S   0  0  0  0  0  0  0  0  0  0  0  0
    8.8614   -2.2669   22.6588 N   0  0  0  0  0  0  0  0  0  0  0  0
    9.5021   -2.7014   23.3086 H   0  0  0  0  0  0  0  0  0  0  0  0
    7.4063   -2.1587   22.9628 C   0  0  1  0  0  0  0  0  0  0  0  0
    7.0216   -3.1716   23.1551 H   0  0  0  0  0  0  0  0  0  0  0  0
    7.0406   -1.4234   24.2979 C   0  0  0  0  0  0  0  0  0  0  0  0
    6.3311   -1.9661   25.2100 N   0  0  0  0  0  0  0  0  0  0  0  0
    6.1780   -0.9743   26.2830 C   0  0  0  0  0  0  0  0  0  0  0  0
    5.1106   -0.7838   26.4418 H   0  0  0  0  0  0  0  0  0  0  0  0
    6.5836   -1.3924   27.2111 H   0  0  0  0  0  0  0  0  0  0  0  0
    6.9430    0.3059   25.8285 C   0  0  0  0  0  0  0  0  0  0  0  0
    7.7645    0.5779   26.5060 H   0  0  0  0  0  0  0  0  0  0  0  0
    6.2892    1.1840   25.7332 H   0  0  0  0  0  0  0  0  0  0  0  0
    7.4380   -0.1346   24.5351 N   0  0  0  0  0  0  0  0  0  0  0  0
    7.9985    0.3969   23.8958 H   0  0  0  0  0  0  0  0  0  0  0  0
  1  2  1  0
  2  3  2  0
  3  4  1  0
  4  5  2  0
  5  6  1  0
  5  7  1  0
  7  8  2  0
  8  9  1  0
  8 10  1  0
 10 11  1  0
 10 12  2  0
 12 13  1  0
  3 14  1  0
 14 15  1  0
 14 16  1  0
 16 17  2  0
 16 18  1  0
 18 19  1  0
 18 20  1  0
 20 21  1  1
 20 22  1  0
 22 23  2  0
 23 24  1  0
 24 25  1  0
 24 26  1  0
 24 27  1  0
 27 28  1  0
 27 29  1  0
 27 30  1  0
 30 31  1  0
 20  2  1  0
 30 22  1  0
 12  4  1  0
M  END
>  <cnnaffinity>  (1) 
-4.77068

>  <filename>  (1) 
S=C1NC(c2cccnc2)=C[C@H](C2=NCCN2)N1

$$$$
