
     RDKit          3D

 33 36  0  0  0  0  0  0  0  0999 V2000
    4.9307    1.7952   16.9940 H   0  0  0  0  0  0  0  0  0  0  0  0
    5.3961    1.2910   17.8354 C   0  0  0  0  0  0  0  0  0  0  0  0
    6.5509    0.6627   17.5685 N   0  0  0  0  0  0  0  0  0  0  0  0
    7.1716    0.0462   18.5788 C   0  0  0  0  0  0  0  0  0  0  0  0
    8.1255   -0.4295   18.3569 H   0  0  0  0  0  0  0  0  0  0  0  0
    6.6526    0.0056   19.8864 C   0  0  0  0  0  0  0  0  0  0  0  0
    7.3359   -0.6716   20.9310 N   0  0  0  0  0  0  0  0  0  0  0  0
    6.7195   -1.5566   21.7968 C   0  0  0  0  0  0  0  0  0  0  0  0
    5.6760   -1.8051   21.7102 H   0  0  0  0  0  0  0  0  0  0  0  0
    7.6473   -2.0119   22.6707 C   0  0  0  0  0  0  0  0  0  0  0  0
    7.4748   -2.8924   23.7909 C   0  0  0  0  0  0  0  0  0  0  0  0
    6.3006   -3.0705   24.4775 C   0  0  0  0  0  0  0  0  0  0  0  0
    5.3456   -2.5774   24.3163 H   0  0  0  0  0  0  0  0  0  0  0  0
    6.4803   -3.9836   25.4825 N   0  0  0  0  0  0  0  0  0  0  0  0
    5.7796   -4.2984   26.1320 H   0  0  0  0  0  0  0  0  0  0  0  0
    7.7816   -4.4358   25.4620 C   0  0  0  0  0  0  0  0  0  0  0  0
    8.4284   -5.3850   26.2796 C   0  0  0  0  0  0  0  0  0  0  0  0
    7.8996   -5.8808   27.0922 H   0  0  0  0  0  0  0  0  0  0  0  0
    9.7629   -5.6659   26.0011 C   0  0  0  0  0  0  0  0  0  0  0  0
   10.3050   -6.3936   26.5938 H   0  0  0  0  0  0  0  0  0  0  0  0
   10.4469   -5.0289   24.9387 C   0  0  0  0  0  0  0  0  0  0  0  0
   11.4866   -5.2818   24.7453 H   0  0  0  0  0  0  0  0  0  0  0  0
    9.8003   -4.0954   24.1368 C   0  0  0  0  0  0  0  0  0  0  0  0
   10.3258   -3.6391   23.3010 H   0  0  0  0  0  0  0  0  0  0  0  0
    8.4498   -3.7761   24.4030 C   0  0  0  0  0  0  0  0  0  0  0  0
    8.8387   -1.4057   22.2967 N   0  0  0  0  0  0  0  0  0  0  0  0
    9.7155   -1.3771   22.7892 H   0  0  0  0  0  0  0  0  0  0  0  0
    8.6581   -0.5170   21.2913 C   0  0  0  0  0  0  0  0  0  0  0  0
    9.8239    0.5324   20.7686 S   0  0  0  0  0  0  0  0  0  0  0  0
    5.4414    0.6460   20.1564 C   0  0  0  0  0  0  0  0  0  0  0  0
    5.0408    0.6306   21.1724 H   0  0  0  0  0  0  0  0  0  0  0  0
    4.8084    1.3100   19.1049 C   0  0  0  0  0  0  0  0  0  0  0  0
    3.8798    1.8414   19.2570 H   0  0  0  0  0  0  0  0  0  0  0  0
  1  2  1  0
  2  3  2  0
  3  4  1  0
  4  5  1  0
  4  6  2  0
  6  7  1  0
  7  8  1  0
  8  9  1  0
  8 10  2  0
 10 11  1  0
 11 12  2  0
 12 13  1  0
 12 14  1  0
 14 15  1  0
 14 16  1  0
 16 17  2  0
 17 18  1  0
 17 19  1  0
 19 20  1  0
 19 21  2  0
 21 22  1  0
 21 23  1  0
 23 24  1  0
 23 25  2  0
 10 26  1  0
 26 27  1  0
 26 28  1  0
 28 29  2  0
  6 30  1  0
 30 31  1  0
 30 32  2  0
 32 33  1  0
 32  2  1  0
 28  7  1  0
 25 11  1  0
 25 16  1  0
M  END
>  <cnnaffinity>  (1) 
-5.58003

>  <filename>  (1) 
S=c1[nH]c(-c2c[nH]c3ccccc23)cn1-c1cccnc1

$$$$
