
     RDKit          3D

 35 37  0  0  0  0  0  0  0  0999 V2000
    8.6060    1.0877   21.6884 H   0  0  0  0  0  0  0  0  0  0  0  0
    7.9403    0.2930   21.9937 C   0  0  0  0  0  0  0  0  0  0  0  0
    7.3627    0.2582   23.2094 C   0  0  0  0  0  0  0  0  0  0  0  0
    7.3924    1.3702   24.2257 C   0  0  0  0  0  0  0  0  0  0  0  0
    8.4214    1.7367   24.2861 H   0  0  0  0  0  0  0  0  0  0  0  0
    7.1518    0.9668   25.2192 H   0  0  0  0  0  0  0  0  0  0  0  0
    6.4806    2.5385   23.8729 C   0  0  0  0  0  0  0  0  0  0  0  0
    5.2176    2.6685   24.4653 C   0  0  0  0  0  0  0  0  0  0  0  0
    4.9030    1.9387   25.2096 H   0  0  0  0  0  0  0  0  0  0  0  0
    4.3679    3.7291   24.1334 C   0  0  0  0  0  0  0  0  0  0  0  0
    3.4009    3.8434   24.6135 H   0  0  0  0  0  0  0  0  0  0  0  0
    4.7888    4.6658   23.1870 C   0  0  0  0  0  0  0  0  0  0  0  0
    3.7438    5.9983   22.7797 Cl  0  0  0  0  0  0  0  0  0  0  0  0
    6.0453    4.5645   22.5822 C   0  0  0  0  0  0  0  0  0  0  0  0
    6.3557    5.3144   21.8595 H   0  0  0  0  0  0  0  0  0  0  0  0
    6.8839    3.5031   22.9339 C   0  0  0  0  0  0  0  0  0  0  0  0
    7.8756    3.4411   22.4841 H   0  0  0  0  0  0  0  0  0  0  0  0
    6.6288   -0.8789   23.5398 N   0  0  0  0  0  0  0  0  0  0  0  0
    6.2088   -1.0308   24.4451 H   0  0  0  0  0  0  0  0  0  0  0  0
    6.4495   -1.9580   22.7348 C   0  0  0  0  0  0  0  0  0  0  0  0
    5.6390   -3.3104   23.2594 S   0  0  0  0  0  0  0  0  0  0  0  0
    6.9455   -1.8614   21.4906 N   0  0  0  0  0  0  0  0  0  0  0  0
    6.5820   -2.5736   20.8823 H   0  0  0  0  0  0  0  0  0  0  0  0
    7.5678   -0.6719   20.9211 C   0  0  1  0  0  0  0  0  0  0  0  0
    8.4855   -1.0121   20.4140 H   0  0  0  0  0  0  0  0  0  0  0  0
    6.6860   -0.0342   19.8390 C   0  0  0  0  0  0  0  0  0  0  0  0
    7.1637    0.0117   18.5256 C   0  0  0  0  0  0  0  0  0  0  0  0
    8.1035   -0.4828   18.2826 H   0  0  0  0  0  0  0  0  0  0  0  0
    6.5601    0.6494   17.5146 N   0  0  0  0  0  0  0  0  0  0  0  0
    5.4120    1.2797   17.7988 C   0  0  0  0  0  0  0  0  0  0  0  0
    4.9459    1.8160   16.9726 H   0  0  0  0  0  0  0  0  0  0  0  0
    4.8179    1.2660   19.0678 C   0  0  0  0  0  0  0  0  0  0  0  0
    3.8880    1.8005   19.2254 H   0  0  0  0  0  0  0  0  0  0  0  0
    5.4616    0.5932   20.1111 C   0  0  0  0  0  0  0  0  0  0  0  0
    5.0365    0.5828   21.1188 H   0  0  0  0  0  0  0  0  0  0  0  0
  1  2  1  0
  2  3  2  0
  3  4  1  0
  4  5  1  0
  4  6  1  0
  4  7  1  0
  7  8  2  0
  8  9  1  0
  8 10  1  0
 10 11  1  0
 10 12  2  0
 12 13  1  0
 12 14  1  0
 14 15  1  0
 14 16  2  0
 16 17  1  0
  3 18  1  0
 18 19  1  0
 18 20  1  0
 20 21  2  0
 20 22  1  0
 22 23  1  0
 22 24  1  0
 24 25  1  6
 24 26  1  0
 26 27  2  0
 27 28  1  0
 27 29  1  0
 29 30  2  0
 30 31  1  0
 30 32  1  0
 32 33  1  0
 32 34  2  0
 34 35  1  0
 24  2  1  0
 34 26  1  0
 16  7  1  0
M  END
>  <cnnaffinity>  (1) 
-4.89295

>  <filename>  (1) 
S=C1NC(Cc2ccc(Cl)cc2)=C[C@H](c2cccnc2)N1

$$$$
