
     RDKit          3D

 30 32  0  0  0  0  0  0  0  0999 V2000
   14.5073   -1.1156   22.3775 H   0  0  0  0  0  0  0  0  0  0  0  0
   13.5823   -0.5501   22.4686 C   0  0  0  0  0  0  0  0  0  0  0  0
   12.4636   -1.2760   22.5319 N   0  0  0  0  0  0  0  0  0  0  0  0
   11.3204   -0.6080   22.6828 C   0  0  0  0  0  0  0  0  0  0  0  0
   10.2595   -1.4808   22.8641 N   0  0  0  0  0  0  0  0  0  0  0  0
   10.7003   -2.3869   22.7512 H   0  0  0  0  0  0  0  0  0  0  0  0
    9.1002   -1.3007   22.1422 C   0  0  0  0  0  0  0  0  0  0  0  0
    8.7267   -0.4717   21.1536 C   0  0  0  0  0  0  0  0  0  0  0  0
    9.3002    0.2636   20.6258 H   0  0  0  0  0  0  0  0  0  0  0  0
    7.4050   -0.7813   20.8411 N   0  0  0  0  0  0  0  0  0  0  0  0
    6.6811   -0.0759   19.8413 C   0  0  0  0  0  0  0  0  0  0  0  0
    7.2050    0.0224   18.5373 C   0  0  0  0  0  0  0  0  0  0  0  0
    8.1476   -0.4673   18.2960 H   0  0  0  0  0  0  0  0  0  0  0  0
    6.5968    0.6774   17.5450 N   0  0  0  0  0  0  0  0  0  0  0  0
    5.4377    1.2885   17.8399 C   0  0  0  0  0  0  0  0  0  0  0  0
    4.9672    1.8240   17.0231 H   0  0  0  0  0  0  0  0  0  0  0  0
    4.8437    1.2603   19.1102 C   0  0  0  0  0  0  0  0  0  0  0  0
    3.9180    1.7994   19.2819 H   0  0  0  0  0  0  0  0  0  0  0  0
    5.4699    0.5550   20.1422 C   0  0  0  0  0  0  0  0  0  0  0  0
    5.0589    0.5026   21.1548 H   0  0  0  0  0  0  0  0  0  0  0  0
    6.9681   -1.8318   21.6242 C   0  0  0  0  0  0  0  0  0  0  0  0
    5.5421   -2.6834   21.5925 S   0  0  0  0  0  0  0  0  0  0  0  0
    8.0422   -2.1180   22.4121 N   0  0  0  0  0  0  0  0  0  0  0  0
    7.9865   -2.7187   23.2104 H   0  0  0  0  0  0  0  0  0  0  0  0
   11.2117    0.7885   22.6939 C   0  0  0  0  0  0  0  0  0  0  0  0
   10.2215    1.2269   22.7463 H   0  0  0  0  0  0  0  0  0  0  0  0
   12.3888    1.5315   22.6096 C   0  0  0  0  0  0  0  0  0  0  0  0
   12.3495    2.6225   22.5771 H   0  0  0  0  0  0  0  0  0  0  0  0
   13.6075    0.8446   22.5199 C   0  0  0  0  0  0  0  0  0  0  0  0
   14.5509    1.3734   22.4838 H   0  0  0  0  0  0  0  0  0  0  0  0
  1  2  1  0
  2  3  2  0
  3  4  1  0
  4  5  1  0
  5  6  1  0
  5  7  1  0
  7  8  2  0
  8  9  1  0
  8 10  1  0
 10 11  1  0
 11 12  2  0
 12 13  1  0
 12 14  1  0
 14 15  2  0
 15 16  1  0
 15 17  1  0
 17 18  1  0
 17 19  2  0
 19 20  1  0
 10 21  1  0
 21 22  2  0
 21 23  1  0
 23 24  1  0
  4 25  2  0
 25 26  1  0
 25 27  1  0
 27 28  1  0
 27 29  2  0
 29 30  1  0
 29  2  1  0
 23  7  1  0
 19 11  1  0
M  END
>  <cnnaffinity>  (1) 
-4.92238

>  <filename>  (1) 
S=c1[nH]c(Nc2ccccn2)cn1-c1cccnc1

$$$$
