
     RDKit          3D

 18 19  0  0  0  0  0  0  0  0999 V2000
    4.9304    1.7915   16.9928 H   0  0  0  0  0  0  0  0  0  0  0  0
    5.4027    1.2926   17.8387 C   0  0  0  0  0  0  0  0  0  0  0  0
    6.5627    0.6705   17.5783 N   0  0  0  0  0  0  0  0  0  0  0  0
    7.1880    0.0612   18.5884 C   0  0  0  0  0  0  0  0  0  0  0  0
    8.1280   -0.4305   18.3504 H   0  0  0  0  0  0  0  0  0  0  0  0
    6.6804    0.0273   19.9021 C   0  0  0  0  0  0  0  0  0  0  0  0
    7.3646   -0.6763   20.9511 N   0  0  0  0  0  0  0  0  0  0  0  0
    8.6663   -0.4805   21.3870 C   0  0  0  0  0  0  0  0  0  0  0  0
    9.7013    0.6762   20.7076 Cl  0  0  0  0  0  0  0  0  0  0  0  0
    9.0010   -1.2680   22.3540 N   0  0  0  0  0  0  0  0  0  0  0  0
    7.8687   -2.0024   22.5510 N   0  0  0  0  0  0  0  0  0  0  0  0
    7.7923   -2.7213   23.2514 H   0  0  0  0  0  0  0  0  0  0  0  0
    6.8632   -1.7368   21.6970 C   0  0  0  0  0  0  0  0  0  0  0  0
    5.4685   -2.6213   21.5817 S   0  0  0  0  0  0  0  0  0  0  0  0
    5.4604    0.6485   20.1671 C   0  0  0  0  0  0  0  0  0  0  0  0
    5.0366    0.6017   21.1725 H   0  0  0  0  0  0  0  0  0  0  0  0
    4.8197    1.3073   19.1097 C   0  0  0  0  0  0  0  0  0  0  0  0
    3.8857    1.8309   19.2569 H   0  0  0  0  0  0  0  0  0  0  0  0
  1  2  1  0
  2  3  2  0
  3  4  1  0
  4  5  1  0
  4  6  2  0
  6  7  1  0
  7  8  1  0
  8  9  1  0
  8 10  2  0
 10 11  1  0
 11 12  1  0
 11 13  1  0
 13 14  2  0
  6 15  1  0
 15 16  1  0
 15 17  2  0
 17 18  1  0
 17  2  1  0
 13  7  1  0
M  END
>  <cnnaffinity>  (1) 
-4.14156

>  <filename>  (1) 
S=c1[nH]nc(Cl)n1-c1cccnc1

$$$$
