
     RDKit          3D

 37 39  0  0  0  0  0  0  0  0999 V2000
    7.3236    1.0013   22.3359 H   0  0  0  0  0  0  0  0  0  0  0  0
    7.6036   -0.0253   22.1565 C   0  0  0  0  0  0  0  0  0  0  0  0
    7.3225   -0.6199   20.9816 C   0  0  0  0  0  0  0  0  0  0  0  0
    6.6441    0.0429   19.8712 C   0  0  0  0  0  0  0  0  0  0  0  0
    7.1753    0.0180   18.5708 C   0  0  0  0  0  0  0  0  0  0  0  0
    8.1174   -0.4936   18.3707 H   0  0  0  0  0  0  0  0  0  0  0  0
    6.6006    0.6238   17.5265 N   0  0  0  0  0  0  0  0  0  0  0  0
    5.4455    1.2734   17.7404 C   0  0  0  0  0  0  0  0  0  0  0  0
    4.9927    1.7535   16.8736 H   0  0  0  0  0  0  0  0  0  0  0  0
    4.8206    1.3350   18.9898 C   0  0  0  0  0  0  0  0  0  0  0  0
    3.8835    1.8620   19.0992 H   0  0  0  0  0  0  0  0  0  0  0  0
    5.4386    0.7294   20.0801 C   0  0  0  0  0  0  0  0  0  0  0  0
    5.0039    0.7584   21.0797 H   0  0  0  0  0  0  0  0  0  0  0  0
    7.6897   -1.9509   20.7900 N   0  0  0  0  0  0  0  0  0  0  0  0
    7.2619   -2.4919   20.0560 H   0  0  0  0  0  0  0  0  0  0  0  0
    8.0747   -2.7522   21.8232 C   0  0  0  0  0  0  0  0  0  0  0  0
    8.0289   -4.4051   21.6963 S   0  0  0  0  0  0  0  0  0  0  0  0
    8.5184   -2.1343   22.9419 N   0  0  0  0  0  0  0  0  0  0  0  0
    8.5203   -2.7848   23.7123 H   0  0  0  0  0  0  0  0  0  0  0  0
    8.4020   -0.6885   23.2182 C   0  0  1  0  0  0  0  0  0  0  0  0
    7.8835   -0.5616   24.1849 H   0  0  0  0  0  0  0  0  0  0  0  0
    9.8292   -0.0259   23.4235 C   0  0  0  0  0  0  0  0  0  0  0  0
   10.3817   -0.1191   22.4812 H   0  0  0  0  0  0  0  0  0  0  0  0
   10.3890   -0.6182   24.1541 H   0  0  0  0  0  0  0  0  0  0  0  0
    9.8358    1.3819   23.8190 N   0  0  0  0  0  0  0  0  0  0  0  0
    9.6694    2.0140   23.0455 H   0  0  0  0  0  0  0  0  0  0  0  0
    9.2092    1.8477   24.9740 C   0  0  0  0  0  0  0  0  0  0  0  0
    8.8977    1.0099   26.0584 C   0  0  0  0  0  0  0  0  0  0  0  0
    9.1669   -0.0389   26.0104 H   0  0  0  0  0  0  0  0  0  0  0  0
    8.2292    1.5201   27.1751 C   0  0  0  0  0  0  0  0  0  0  0  0
    7.9884    0.8504   27.9971 H   0  0  0  0  0  0  0  0  0  0  0  0
    7.9045    2.8774   27.2512 C   0  0  0  0  0  0  0  0  0  0  0  0
    7.4105    3.2704   28.1341 H   0  0  0  0  0  0  0  0  0  0  0  0
    8.2589    3.7276   26.1961 C   0  0  0  0  0  0  0  0  0  0  0  0
    8.0252    4.7889   26.2528 H   0  0  0  0  0  0  0  0  0  0  0  0
    8.9038    3.2181   25.0686 C   0  0  0  0  0  0  0  0  0  0  0  0
    9.1877    3.8730   24.2479 H   0  0  0  0  0  0  0  0  0  0  0  0
  1  2  1  0
  2  3  2  0
  3  4  1  0
  4  5  2  0
  5  6  1  0
  5  7  1  0
  7  8  2  0
  8  9  1  0
  8 10  1  0
 10 11  1  0
 10 12  2  0
 12 13  1  0
  3 14  1  0
 14 15  1  0
 14 16  1  0
 16 17  2  0
 16 18  1  0
 18 19  1  0
 18 20  1  0
 20 21  1  1
 20 22  1  0
 22 23  1  0
 22 24  1  0
 22 25  1  0
 25 26  1  0
 25 27  1  0
 27 28  2  0
 28 29  1  0
 28 30  1  0
 30 31  1  0
 30 32  2  0
 32 33  1  0
 32 34  1  0
 34 35  1  0
 34 36  2  0
 36 37  1  0
 20  2  1  0
 36 27  1  0
 12  4  1  0
M  END
>  <cnnaffinity>  (1) 
-5.03765

>  <filename>  (1) 
S=C1NC(c2cccnc2)=C[C@H](CNc2ccccc2)N1

$$$$
