
     RDKit          3D

 19 20  0  0  0  0  0  0  0  0999 V2000
    4.9327    1.7841   17.0011 H   0  0  0  0  0  0  0  0  0  0  0  0
    5.4069    1.2883   17.8450 C   0  0  0  0  0  0  0  0  0  0  0  0
    6.5688    0.6713   17.5823 N   0  0  0  0  0  0  0  0  0  0  0  0
    7.1895    0.0638   18.5968 C   0  0  0  0  0  0  0  0  0  0  0  0
    8.1262   -0.4404   18.3617 H   0  0  0  0  0  0  0  0  0  0  0  0
    6.6797    0.0171   19.9083 C   0  0  0  0  0  0  0  0  0  0  0  0
    7.3962   -0.6826   20.9284 N   0  0  0  0  0  0  0  0  0  0  0  0
    8.7531   -0.4951   21.2096 C   0  0  0  0  0  0  0  0  0  0  0  0
    9.3747    0.1740   20.6427 H   0  0  0  0  0  0  0  0  0  0  0  0
    9.0477   -1.2911   22.2555 C   0  0  0  0  0  0  0  0  0  0  0  0
   10.5202   -1.6112   23.0478 Cl  0  0  0  0  0  0  0  0  0  0  0  0
    7.8926   -1.9537   22.5999 N   0  0  0  0  0  0  0  0  0  0  0  0
    7.7574   -2.6637   23.3043 H   0  0  0  0  0  0  0  0  0  0  0  0
    6.8897   -1.6924   21.7231 C   0  0  0  0  0  0  0  0  0  0  0  0
    5.5012   -2.5981   21.6205 S   0  0  0  0  0  0  0  0  0  0  0  0
    5.4536    0.6405   20.1732 C   0  0  0  0  0  0  0  0  0  0  0  0
    5.0191    0.6093   21.1732 H   0  0  0  0  0  0  0  0  0  0  0  0
    4.8203    1.3023   19.1144 C   0  0  0  0  0  0  0  0  0  0  0  0
    3.8879    1.8286   19.2609 H   0  0  0  0  0  0  0  0  0  0  0  0
  1  2  1  0
  2  3  2  0
  3  4  1  0
  4  5  1  0
  4  6  2  0
  6  7  1  0
  7  8  1  0
  8  9  1  0
  8 10  2  0
 10 11  1  0
 10 12  1  0
 12 13  1  0
 12 14  1  0
 14 15  2  0
  6 16  1  0
 16 17  1  0
 16 18  2  0
 18 19  1  0
 18  2  1  0
 14  7  1  0
M  END
>  <cnnaffinity>  (1) 
-4.75731

>  <filename>  (1) 
S=c1[nH]c(Cl)cn1-c1cccnc1

$$$$
