
     RDKit          3D

 29 31  0  0  0  0  0  0  0  0999 V2000
    4.8836    1.8077   17.0111 H   0  0  0  0  0  0  0  0  0  0  0  0
    5.3991    1.2975   17.8207 C   0  0  0  0  0  0  0  0  0  0  0  0
    6.5681    0.6853   17.5682 N   0  0  0  0  0  0  0  0  0  0  0  0
    7.1844    0.0663   18.5928 C   0  0  0  0  0  0  0  0  0  0  0  0
    8.1308   -0.4311   18.4063 H   0  0  0  0  0  0  0  0  0  0  0  0
    6.6609   -0.0018   19.9015 C   0  0  0  0  0  0  0  0  0  0  0  0
    7.3308   -0.6838   20.9245 N   0  0  0  0  0  0  0  0  0  0  0  0
    6.7432   -1.5822   21.8219 C   0  0  0  0  0  0  0  0  0  0  0  0
    5.6966   -1.8837   21.8264 H   0  0  0  0  0  0  0  0  0  0  0  0
    7.7164   -2.0474   22.6758 C   0  0  0  0  0  0  0  0  0  0  0  0
    7.5499   -3.0037   23.7715 C   0  0  0  0  0  0  0  0  0  0  0  0
    6.2713   -3.2656   24.2827 C   0  0  0  0  0  0  0  0  0  0  0  0
    5.4153   -2.7394   23.8675 H   0  0  0  0  0  0  0  0  0  0  0  0
    6.1030   -4.1765   25.3271 C   0  0  0  0  0  0  0  0  0  0  0  0
    5.1078   -4.3651   25.7189 H   0  0  0  0  0  0  0  0  0  0  0  0
    7.2175   -4.8340   25.8613 C   0  0  0  0  0  0  0  0  0  0  0  0
    7.0915   -5.5426   26.6700 H   0  0  0  0  0  0  0  0  0  0  0  0
    8.4991   -4.5852   25.3608 C   0  0  0  0  0  0  0  0  0  0  0  0
   10.0191   -5.4889   26.0895 Br  0  0  0  0  0  0  0  0  0  0  0  0
    8.6603   -3.6688   24.3192 C   0  0  0  0  0  0  0  0  0  0  0  0
    9.6539   -3.4770   23.9253 H   0  0  0  0  0  0  0  0  0  0  0  0
    8.9072   -1.4448   22.2917 N   0  0  0  0  0  0  0  0  0  0  0  0
    9.7769   -1.4804   22.8073 H   0  0  0  0  0  0  0  0  0  0  0  0
    8.6764   -0.5636   21.2627 C   0  0  0  0  0  0  0  0  0  0  0  0
    9.7944    0.5145   20.6809 S   0  0  0  0  0  0  0  0  0  0  0  0
    5.4412    0.6323   20.1578 C   0  0  0  0  0  0  0  0  0  0  0  0
    5.0124    0.6239   21.1612 H   0  0  0  0  0  0  0  0  0  0  0  0
    4.8207    1.2981   19.0974 C   0  0  0  0  0  0  0  0  0  0  0  0
    3.8890    1.8276   19.2561 H   0  0  0  0  0  0  0  0  0  0  0  0
  1  2  1  0
  2  3  2  0
  3  4  1  0
  4  5  1  0
  4  6  2  0
  6  7  1  0
  7  8  1  0
  8  9  1  0
  8 10  2  0
 10 11  1  0
 11 12  2  0
 12 13  1  0
 12 14  1  0
 14 15  1  0
 14 16  2  0
 16 17  1  0
 16 18  1  0
 18 19  1  0
 18 20  2  0
 20 21  1  0
 10 22  1  0
 22 23  1  0
 22 24  1  0
 24 25  2  0
  6 26  1  0
 26 27  1  0
 26 28  2  0
 28 29  1  0
 28  2  1  0
 24  7  1  0
 20 11  1  0
M  END
>  <cnnaffinity>  (1) 
-5.51855

>  <filename>  (1) 
S=c1[nH]c(-c2cccc(Br)c2)cn1-c1cccnc1

$$$$
