
     RDKit          3D

 31 33  0  0  0  0  0  0  0  0999 V2000
    4.9768    1.8712   17.0150 H   0  0  0  0  0  0  0  0  0  0  0  0
    5.4361    1.3051   17.8187 C   0  0  0  0  0  0  0  0  0  0  0  0
    6.5926    0.6905   17.5146 N   0  0  0  0  0  0  0  0  0  0  0  0
    7.1917    0.0060   18.4950 C   0  0  0  0  0  0  0  0  0  0  0  0
    8.1385   -0.4812   18.2555 H   0  0  0  0  0  0  0  0  0  0  0  0
    6.6601   -0.1216   19.7937 C   0  0  0  0  0  0  0  0  0  0  0  0
    7.3848   -0.8351   20.7916 N   0  0  0  0  0  0  0  0  0  0  0  0
    8.6891   -0.4866   21.1402 C   0  0  0  0  0  0  0  0  0  0  0  0
    9.2167    0.3210   20.6709 H   0  0  0  0  0  0  0  0  0  0  0  0
    9.0783   -1.3285   22.1109 C   0  0  0  0  0  0  0  0  0  0  0  0
   10.2244   -1.4794   22.8520 N   0  0  0  0  0  0  0  0  0  0  0  0
   10.4459   -2.4556   22.9852 H   0  0  0  0  0  0  0  0  0  0  0  0
   11.3494   -0.6579   22.6364 C   0  0  0  0  0  0  0  0  0  0  0  0
   12.5914   -1.2590   22.4022 C   0  0  0  0  0  0  0  0  0  0  0  0
   12.6400   -2.3354   22.2570 H   0  0  0  0  0  0  0  0  0  0  0  0
   13.7517   -0.4832   22.3814 C   0  0  0  0  0  0  0  0  0  0  0  0
   14.7119   -0.9703   22.2568 H   0  0  0  0  0  0  0  0  0  0  0  0
   13.6741    0.9026   22.5379 C   0  0  0  0  0  0  0  0  0  0  0  0
   14.5781    1.5068   22.5644 H   0  0  0  0  0  0  0  0  0  0  0  0
   12.4218    1.5132   22.6664 C   0  0  0  0  0  0  0  0  0  0  0  0
   12.3418    2.5935   22.7199 H   0  0  0  0  0  0  0  0  0  0  0  0
   11.2553    0.7389   22.7096 C   0  0  0  0  0  0  0  0  0  0  0  0
   10.2689    1.1880   22.7949 H   0  0  0  0  0  0  0  0  0  0  0  0
    8.0399   -2.1988   22.3354 N   0  0  0  0  0  0  0  0  0  0  0  0
    7.9390   -2.7529   23.1644 H   0  0  0  0  0  0  0  0  0  0  0  0
    6.9557   -1.9018   21.5559 C   0  0  0  0  0  0  0  0  0  0  0  0
    5.5204   -2.7387   21.5183 S   0  0  0  0  0  0  0  0  0  0  0  0
    5.4497    0.5117   20.1002 C   0  0  0  0  0  0  0  0  0  0  0  0
    5.0325    0.4505   21.1076 H   0  0  0  0  0  0  0  0  0  0  0  0
    4.8321    1.2488   19.0826 C   0  0  0  0  0  0  0  0  0  0  0  0
    3.9148    1.8003   19.2700 H   0  0  0  0  0  0  0  0  0  0  0  0
  1  2  1  0
  2  3  2  0
  3  4  1  0
  4  5  1  0
  4  6  2  0
  6  7  1  0
  7  8  1  0
  8  9  1  0
  8 10  2  0
 10 11  1  0
 11 12  1  0
 11 13  1  0
 13 14  2  0
 14 15  1  0
 14 16  1  0
 16 17  1  0
 16 18  2  0
 18 19  1  0
 18 20  1  0
 20 21  1  0
 20 22  2  0
 22 23  1  0
 10 24  1  0
 24 25  1  0
 24 26  1  0
 26 27  2  0
  6 28  1  0
 28 29  1  0
 28 30  2  0
 30 31  1  0
 30  2  1  0
 26  7  1  0
 22 13  1  0
M  END
>  <cnnaffinity>  (1) 
-4.97158

>  <filename>  (1) 
S=c1[nH]c(Nc2ccccc2)cn1-c1cccnc1

$$$$
