
     RDKit          3D

 24 26  0  0  0  0  0  0  0  0999 V2000
    5.0235    1.8453   16.8435 H   0  0  0  0  0  0  0  0  0  0  0  0
    5.4487    1.2969   17.6789 C   0  0  0  0  0  0  0  0  0  0  0  0
    6.5835    0.6276   17.4216 N   0  0  0  0  0  0  0  0  0  0  0  0
    7.1599   -0.0297   18.4323 C   0  0  0  0  0  0  0  0  0  0  0  0
    8.0773   -0.5671   18.1936 H   0  0  0  0  0  0  0  0  0  0  0  0
    6.6540   -0.0358   19.7485 C   0  0  0  0  0  0  0  0  0  0  0  0
    7.4192   -0.6219   20.8695 C   0  0  0  0  0  0  0  0  0  0  0  0
    8.6103   -1.2208   20.6724 N   0  0  0  0  0  0  0  0  0  0  0  0
    9.0040   -1.5344   21.9234 N   0  0  0  0  0  0  0  0  0  0  0  0
   10.1164   -2.1448   22.4973 C   0  0  0  0  0  0  0  0  0  0  0  0
   10.8984   -2.5353   21.8651 H   0  0  0  0  0  0  0  0  0  0  0  0
    9.9166   -2.1089   23.8384 C   0  0  0  0  0  0  0  0  0  0  0  0
   10.4971   -2.4543   24.6778 H   0  0  0  0  0  0  0  0  0  0  0  0
    8.6924   -1.5157   24.0717 N   0  0  0  0  0  0  0  0  0  0  0  0
    8.2124   -1.2060   25.3364 N   0  0  0  0  0  0  0  0  0  0  0  0
    7.2634   -0.5261   25.7336 C   0  0  0  0  0  0  0  0  0  0  0  0
    6.2540    0.2057   26.7117 S   0  0  0  0  0  0  0  0  0  0  0  0
    8.1247   -1.1561   22.8727 C   0  0  0  0  0  0  0  0  0  0  0  0
    7.0438   -0.5672   22.2377 C   0  0  0  0  0  0  0  0  0  0  0  0
    6.1346   -0.2059   22.6900 H   0  0  0  0  0  0  0  0  0  0  0  0
    5.4189    0.6024   19.9720 C   0  0  0  0  0  0  0  0  0  0  0  0
    4.9358    0.5678   20.9494 H   0  0  0  0  0  0  0  0  0  0  0  0
    4.8206    1.2959   18.9269 C   0  0  0  0  0  0  0  0  0  0  0  0
    3.8932    1.8422   19.0637 H   0  0  0  0  0  0  0  0  0  0  0  0
  1  2  1  0
  2  3  2  0
  3  4  1  0
  4  5  1  0
  4  6  2  0
  6  7  1  0
  7  8  2  0
  8  9  1  0
  9 10  1  0
 10 11  1  0
 10 12  2  0
 12 13  1  0
 12 14  1  0
 14 15  1  0
 15 16  2  0
 16 17  2  0
 14 18  1  0
 18 19  2  0
 19 20  1  0
  6 21  1  0
 21 22  1  0
 21 23  2  0
 23 24  1  0
 23  2  1  0
 19  7  1  0
 18  9  1  0
M  END
>  <cnnaffinity>  (1) 
-5.40777

>  <filename>  (1) 
S=C=Nn1ccn2nc(-c3cccnc3)cc12

$$$$
