
     RDKit          3D

 32 33  0  0  0  0  0  0  0  0999 V2000
    4.9502    1.7652   17.0647 H   0  0  0  0  0  0  0  0  0  0  0  0
    5.4492    1.2696   17.8942 C   0  0  0  0  0  0  0  0  0  0  0  0
    6.6060    0.6452   17.6082 N   0  0  0  0  0  0  0  0  0  0  0  0
    7.2277    0.0187   18.6063 C   0  0  0  0  0  0  0  0  0  0  0  0
    8.1680   -0.4691   18.3594 H   0  0  0  0  0  0  0  0  0  0  0  0
    6.7349   -0.0478   19.9199 C   0  0  0  0  0  0  0  0  0  0  0  0
    7.4816   -0.8068   20.9491 C   0  0  0  0  0  0  0  0  0  0  0  0
    9.1076   -0.7901   21.0374 S   0  0  0  0  0  0  0  0  0  0  0  0
    6.6637   -1.6682   21.9131 C   0  0  0  0  0  0  0  0  0  0  0  0
    6.8941   -2.7093   21.6796 H   0  0  0  0  0  0  0  0  0  0  0  0
    5.5980   -1.5269   21.7180 H   0  0  0  0  0  0  0  0  0  0  0  0
    6.9415   -1.4780   23.3338 N   0  0  0  0  0  0  0  0  0  0  0  0
    7.8756   -1.7494   23.5984 H   0  0  0  0  0  0  0  0  0  0  0  0
    6.6327   -0.2766   23.9618 C   0  0  0  0  0  0  0  0  0  0  0  0
    5.9973    0.6354   23.4780 O   0  0  0  0  0  0  0  0  0  0  0  0
    7.1822   -0.3125   25.2272 N   0  0  0  0  0  0  0  0  0  0  0  0
    7.2241   -1.2484   25.5883 H   0  0  0  0  0  0  0  0  0  0  0  0
    7.1441    0.7463   26.1390 C   0  0  0  0  0  0  0  0  0  0  0  0
    6.9951    0.4945   27.5073 C   0  0  0  0  0  0  0  0  0  0  0  0
    6.9003   -0.5299   27.8607 H   0  0  0  0  0  0  0  0  0  0  0  0
    6.9514    1.5611   28.4122 C   0  0  0  0  0  0  0  0  0  0  0  0
    6.8014    1.3852   29.4753 H   0  0  0  0  0  0  0  0  0  0  0  0
    7.0929    2.8702   27.9369 C   0  0  0  0  0  0  0  0  0  0  0  0
    7.0208    4.2141   29.0415 Cl  0  0  0  0  0  0  0  0  0  0  0  0
    7.2727    3.1252   26.5722 C   0  0  0  0  0  0  0  0  0  0  0  0
    7.3738    4.1418   26.2041 H   0  0  0  0  0  0  0  0  0  0  0  0
    7.2906    2.0600   25.6732 C   0  0  0  0  0  0  0  0  0  0  0  0
    7.3866    2.2154   24.6062 H   0  0  0  0  0  0  0  0  0  0  0  0
    5.5247    0.6103   20.2053 C   0  0  0  0  0  0  0  0  0  0  0  0
    5.1500    0.6193   21.2321 H   0  0  0  0  0  0  0  0  0  0  0  0
    4.8677    1.2718   19.1676 C   0  0  0  0  0  0  0  0  0  0  0  0
    3.9248    1.7867   19.3375 H   0  0  0  0  0  0  0  0  0  0  0  0
  1  2  1  0
  2  3  2  0
  3  4  1  0
  4  5  1  0
  4  6  2  0
  6  7  1  0
  7  8  2  0
  7  9  1  0
  9 10  1  0
  9 11  1  0
  9 12  1  0
 12 13  1  0
 12 14  1  0
 14 15  2  0
 14 16  1  0
 16 17  1  0
 16 18  1  0
 18 19  2  0
 19 20  1  0
 19 21  1  0
 21 22  1  0
 21 23  2  0
 23 24  1  0
 23 25  1  0
 25 26  1  0
 25 27  2  0
 27 28  1  0
  6 29  1  0
 29 30  1  0
 29 31  2  0
 31 32  1  0
 31  2  1  0
 27 18  1  0
M  END
>  <cnnaffinity>  (1) 
-4.5067

>  <filename>  (1) 
[H]c1nc([H])c(C(=S)C([H])([H])N([H])C(=O)N([H])c2c([H])c([H])c(Cl)c([H])c2[H])c([H])c1[H]

$$$$
