
     RDKit          3D

 36 38  0  0  0  0  0  0  0  0999 V2000
    4.9451    1.8005   16.7497 H   0  0  0  0  0  0  0  0  0  0  0  0
    5.3225    1.3897   17.6831 C   0  0  0  0  0  0  0  0  0  0  0  0
    6.5128    0.7793   17.5992 N   0  0  0  0  0  0  0  0  0  0  0  0
    7.0171    0.2818   18.7357 C   0  0  0  0  0  0  0  0  0  0  0  0
    7.9855   -0.2025   18.6429 H   0  0  0  0  0  0  0  0  0  0  0  0
    6.3975    0.3502   20.0020 C   0  0  0  0  0  0  0  0  0  0  0  0
    7.0989   -0.2443   21.2261 C   0  0  2  0  0  0  0  0  0  0  0  0
    6.4958   -0.0234   22.1119 H   0  0  0  0  0  0  0  0  0  0  0  0
    8.5363    0.3222   21.4297 C   0  0  0  0  0  0  0  0  0  0  0  0
    8.7611    0.4634   22.5010 H   0  0  0  0  0  0  0  0  0  0  0  0
    8.6902    1.2933   20.9436 H   0  0  0  0  0  0  0  0  0  0  0  0
    9.3740   -0.6995   20.8246 N   0  0  0  0  0  0  0  0  0  0  0  0
   10.3724   -0.7432   20.9400 H   0  0  0  0  0  0  0  0  0  0  0  0
    8.8252   -1.9402   20.9348 C   0  0  0  0  0  0  0  0  0  0  0  0
    9.4788   -2.9567   20.9085 O   0  0  0  0  0  0  0  0  0  0  0  0
    7.3248   -1.7880   21.0633 C   0  0  1  0  0  0  0  0  0  0  0  0
    6.9395   -2.1041   20.0855 H   0  0  0  0  0  0  0  0  0  0  0  0
    6.7384   -2.7529   22.0896 C   0  0  0  0  0  0  0  0  0  0  0  0
    7.2685   -2.9068   23.3833 C   0  0  0  0  0  0  0  0  0  0  0  0
    8.1259   -2.3159   23.6956 H   0  0  0  0  0  0  0  0  0  0  0  0
    6.7237   -3.8505   24.2612 C   0  0  0  0  0  0  0  0  0  0  0  0
    7.1340   -3.9790   25.2633 H   0  0  0  0  0  0  0  0  0  0  0  0
    5.6482   -4.6561   23.8636 C   0  0  0  0  0  0  0  0  0  0  0  0
    5.1985   -5.3678   24.5486 H   0  0  0  0  0  0  0  0  0  0  0  0
    5.1376   -4.5364   22.5649 C   0  0  0  0  0  0  0  0  0  0  0  0
    4.1235   -5.2996   22.0665 O   0  0  0  0  0  0  0  0  0  0  0  0
    3.4010   -6.1435   22.9468 C   0  0  0  0  0  0  0  0  0  0  0  0
    2.5996   -6.5774   22.3488 H   0  0  0  0  0  0  0  0  0  0  0  0
    2.9630   -5.5808   23.7842 H   0  0  0  0  0  0  0  0  0  0  0  0
    4.0290   -6.9513   23.3500 H   0  0  0  0  0  0  0  0  0  0  0  0
    5.6922   -3.5894   21.6901 C   0  0  0  0  0  0  0  0  0  0  0  0
    5.3043   -3.5391   20.6803 H   0  0  0  0  0  0  0  0  0  0  0  0
    5.1499    0.9976   20.0567 C   0  0  0  0  0  0  0  0  0  0  0  0
    4.6067    1.1016   21.0007 H   0  0  0  0  0  0  0  0  0  0  0  0
    4.6018    1.5205   18.8757 C   0  0  0  0  0  0  0  0  0  0  0  0
    3.6430    2.0349   18.8579 H   0  0  0  0  0  0  0  0  0  0  0  0
  1  2  1  0
  2  3  2  0
  3  4  1  0
  4  5  1  0
  4  6  2  0
  6  7  1  0
  7  8  1  1
  7  9  1  0
  9 10  1  0
  9 11  1  0
  9 12  1  0
 12 13  1  0
 12 14  1  0
 14 15  2  0
 14 16  1  0
 16 17  1  6
 16 18  1  0
 18 19  2  0
 19 20  1  0
 19 21  1  0
 21 22  1  0
 21 23  2  0
 23 24  1  0
 23 25  1  0
 25 26  1  0
 26 27  1  0
 27 28  1  0
 27 29  1  0
 27 30  1  0
 25 31  2  0
 31 32  1  0
  6 33  1  0
 33 34  1  0
 33 35  2  0
 35 36  1  0
 35  2  1  0
 16  7  1  0
 31 18  1  0
M  END
>  <cnnaffinity>  (1) 
-5.15863

>  <filename>  (1) 
[H]c1nc([H])c([C@]2([H])C([H])([H])N([H])C(=O)[C@@]2([H])c2c([H])c([H])c([H])c(OC([H])([H])[H])c2[H])c([H])c1[H]

$$$$
