
     RDKit          3D

 29 31  0  0  0  0  0  0  0  0999 V2000
    4.9104    1.7864   16.9904 H   0  0  0  0  0  0  0  0  0  0  0  0
    5.3996    1.2972   17.8296 C   0  0  0  0  0  0  0  0  0  0  0  0
    6.5651    0.6819   17.5636 N   0  0  0  0  0  0  0  0  0  0  0  0
    7.1725    0.0599   18.5820 C   0  0  0  0  0  0  0  0  0  0  0  0
    8.1214   -0.4263   18.3606 H   0  0  0  0  0  0  0  0  0  0  0  0
    6.6702    0.0058   19.9050 C   0  0  0  0  0  0  0  0  0  0  0  0
    7.3449   -0.6750   20.9295 N   0  0  0  0  0  0  0  0  0  0  0  0
    8.0086   -1.3879   20.6698 H   0  0  0  0  0  0  0  0  0  0  0  0
    7.2724   -0.3810   22.3027 C   0  0  0  0  0  0  0  0  0  0  0  0
    7.3357    0.9313   22.7330 C   0  0  0  0  0  0  0  0  0  0  0  0
    7.4288    1.7204   21.9906 H   0  0  0  0  0  0  0  0  0  0  0  0
    7.2728    1.2509   24.1144 C   0  0  0  0  0  0  0  0  0  0  0  0
    7.3270    2.2938   24.4174 H   0  0  0  0  0  0  0  0  0  0  0  0
    7.1449    0.2558   25.0523 C   0  0  0  0  0  0  0  0  0  0  0  0
    7.1042    0.4884   26.1159 H   0  0  0  0  0  0  0  0  0  0  0  0
    7.0689   -1.1147   24.6507 C   0  0  0  0  0  0  0  0  0  0  0  0
    6.9411   -2.1619   25.6103 C   0  0  0  0  0  0  0  0  0  0  0  0
    6.9099   -1.8890   26.6646 H   0  0  0  0  0  0  0  0  0  0  0  0
    6.8563   -3.4759   25.2181 C   0  0  0  0  0  0  0  0  0  0  0  0
    6.7582   -4.2670   25.9603 H   0  0  0  0  0  0  0  0  0  0  0  0
    6.8897   -3.8161   23.8375 C   0  0  0  0  0  0  0  0  0  0  0  0
    6.8156   -4.8580   23.5352 H   0  0  0  0  0  0  0  0  0  0  0  0
    7.0163   -2.8335   22.8818 C   0  0  0  0  0  0  0  0  0  0  0  0
    7.0218   -3.0899   21.8230 H   0  0  0  0  0  0  0  0  0  0  0  0
    7.1261   -1.4555   23.2560 C   0  0  0  0  0  0  0  0  0  0  0  0
    5.4465    0.6456   20.1546 C   0  0  0  0  0  0  0  0  0  0  0  0
    5.0280    0.6205   21.1649 H   0  0  0  0  0  0  0  0  0  0  0  0
    4.8103    1.3054   19.1000 C   0  0  0  0  0  0  0  0  0  0  0  0
    3.8797    1.8385   19.2615 H   0  0  0  0  0  0  0  0  0  0  0  0
  1  2  1  0
  2  3  2  0
  3  4  1  0
  4  5  1  0
  4  6  2  0
  6  7  1  0
  7  8  1  0
  7  9  1  0
  9 10  2  0
 10 11  1  0
 10 12  1  0
 12 13  1  0
 12 14  2  0
 14 15  1  0
 14 16  1  0
 16 17  2  0
 17 18  1  0
 17 19  1  0
 19 20  1  0
 19 21  2  0
 21 22  1  0
 21 23  1  0
 23 24  1  0
 23 25  2  0
  6 26  1  0
 26 27  1  0
 26 28  2  0
 28 29  1  0
 28  2  1  0
 25  9  1  0
 25 16  1  0
M  END
>  <cnnaffinity>  (1) 
-4.52227

>  <filename>  (1) 
[H]c1nc([H])c(N([H])c2c([H])c([H])c([H])c3c([H])c([H])c([H])c([H])c23)c([H])c1[H]

$$$$
