
     RDKit          3D

 32 34  0  0  0  0  0  0  0  0999 V2000
    5.6541   -1.6706   21.7077 H   0  0  0  0  0  0  0  0  0  0  0  0
    6.7186   -1.5376   21.7939 C   0  0  0  0  0  0  0  0  0  0  0  0
    7.3849   -0.7169   20.9568 C   0  0  0  0  0  0  0  0  0  0  0  0
    6.7030    0.0435   19.9081 C   0  0  0  0  0  0  0  0  0  0  0  0
    7.2014    0.0831   18.5967 C   0  0  0  0  0  0  0  0  0  0  0  0
    8.1320   -0.4260   18.3429 H   0  0  0  0  0  0  0  0  0  0  0  0
    6.5715    0.6750   17.5773 N   0  0  0  0  0  0  0  0  0  0  0  0
    5.4075    1.2892   17.8414 C   0  0  0  0  0  0  0  0  0  0  0  0
    4.9256    1.7810   16.9987 H   0  0  0  0  0  0  0  0  0  0  0  0
    4.8195    1.3115   19.1101 C   0  0  0  0  0  0  0  0  0  0  0  0
    3.8809    1.8322   19.2574 H   0  0  0  0  0  0  0  0  0  0  0  0
    5.4640    0.6615   20.1594 C   0  0  0  0  0  0  0  0  0  0  0  0
    5.0285    0.6283   21.1614 H   0  0  0  0  0  0  0  0  0  0  0  0
    8.7663   -0.6065   21.0854 N   0  0  0  0  0  0  0  0  0  0  0  0
    9.3280    0.0471   20.5697 H   0  0  0  0  0  0  0  0  0  0  0  0
    9.5089   -1.3125   21.9709 C   0  0  0  0  0  0  0  0  0  0  0  0
   11.1560   -1.1438   22.0567 S   0  0  0  0  0  0  0  0  0  0  0  0
    8.8397   -2.1605   22.7687 N   0  0  0  0  0  0  0  0  0  0  0  0
    9.4471   -2.6017   23.4380 H   0  0  0  0  0  0  0  0  0  0  0  0
    7.3817   -2.1963   22.9457 C   0  0  1  0  0  0  0  0  0  0  0  0
    7.0910   -3.2561   22.9764 H   0  0  0  0  0  0  0  0  0  0  0  0
    6.9253   -1.5666   24.2809 C   0  0  0  0  0  0  0  0  0  0  0  0
    7.4895   -0.3514   24.6978 C   0  0  0  0  0  0  0  0  0  0  0  0
    8.2717    0.1021   24.0948 H   0  0  0  0  0  0  0  0  0  0  0  0
    7.0627    0.2772   25.8649 C   0  0  0  0  0  0  0  0  0  0  0  0
    7.5254    1.2102   26.1733 H   0  0  0  0  0  0  0  0  0  0  0  0
    6.0454   -0.2897   26.6331 C   0  0  0  0  0  0  0  0  0  0  0  0
    5.7008    0.1796   27.5493 H   0  0  0  0  0  0  0  0  0  0  0  0
    5.4477   -1.4844   26.2222 C   0  0  0  0  0  0  0  0  0  0  0  0
    4.1754   -2.1357   27.2029 Cl  0  0  0  0  0  0  0  0  0  0  0  0
    5.8782   -2.1217   25.0430 C   0  0  0  0  0  0  0  0  0  0  0  0
    5.0797   -3.5787   24.5247 Cl  0  0  0  0  0  0  0  0  0  0  0  0
  1  2  1  0
  2  3  2  0
  3  4  1  0
  4  5  2  0
  5  6  1  0
  5  7  1  0
  7  8  2  0
  8  9  1  0
  8 10  1  0
 10 11  1  0
 10 12  2  0
 12 13  1  0
  3 14  1  0
 14 15  1  0
 14 16  1  0
 16 17  2  0
 16 18  1  0
 18 19  1  0
 18 20  1  0
 20 21  1  1
 20 22  1  0
 22 23  2  0
 23 24  1  0
 23 25  1  0
 25 26  1  0
 25 27  2  0
 27 28  1  0
 27 29  1  0
 29 30  1  0
 29 31  2  0
 31 32  1  0
 20  2  1  0
 31 22  1  0
 12  4  1  0
M  END
>  <cnnaffinity>  (1) 
-5.32521

>  <filename>  (1) 
[H]C1=C(c2c([H])nc([H])c([H])c2[H])N([H])C(=S)N([H])[C@@]1([H])c1c([H])c([H])c([H])c(Cl)c1Cl

$$$$
