
     RDKit          3D

 43 46  0  0  0  0  0  0  0  0999 V2000
    5.9017   -0.2736   26.8329 O   0  0  0  0  0  0  0  0  0  0  0  0
    6.3416   -1.1801   26.1748 C   0  0  0  0  0  0  0  0  0  0  0  0
    6.9753   -0.8737   25.0101 O   0  0  0  0  0  0  0  0  0  0  0  0
    7.5783   -1.8386   24.1402 C   0  0  0  0  0  0  0  0  0  0  0  0
    7.5345   -1.3090   22.7083 C   0  0  0  0  0  0  0  0  0  0  0  0
    6.5843   -0.6077   22.1018 N   0  0  0  0  0  0  0  0  0  0  0  0
    6.9821   -0.5813   20.8124 C   0  0  0  0  0  0  0  0  0  0  0  0
    6.3258    0.1547   19.7407 C   0  0  0  0  0  0  0  0  0  0  0  0
    5.1459    0.8891   19.9117 C   0  0  0  0  0  0  0  0  0  0  0  0
    4.6270    1.5430   18.7955 C   0  0  0  0  0  0  0  0  0  0  0  0
    5.3134    1.4599   17.5772 C   0  0  0  0  0  0  0  0  0  0  0  0
    6.4616    0.7859   17.4176 N   0  0  0  0  0  0  0  0  0  0  0  0
    6.9580    0.1628   18.4874 C   0  0  0  0  0  0  0  0  0  0  0  0
    7.9150   -0.3386   18.3560 H   0  0  0  0  0  0  0  0  0  0  0  0
    4.9284    1.9557   16.6893 H   0  0  0  0  0  0  0  0  0  0  0  0
    3.7142    2.1236   18.8544 H   0  0  0  0  0  0  0  0  0  0  0  0
    4.6752    0.9625   20.8949 H   0  0  0  0  0  0  0  0  0  0  0  0
    8.1053   -1.2347   20.5795 N   0  0  0  0  0  0  0  0  0  0  0  0
    8.4578   -1.7043   21.7900 N   0  0  0  0  0  0  0  0  0  0  0  0
    9.8020   -2.2517   21.8844 C   0  0  0  0  0  0  0  0  0  0  0  0
   10.8554   -1.1303   21.9852 C   0  0  0  0  0  0  0  0  0  0  0  0
   12.2700   -1.6499   21.8719 C   0  0  0  0  0  0  0  0  0  0  0  0
   13.1771   -0.7771   22.3377 F   0  0  0  0  0  0  0  0  0  0  0  0
   12.6127   -1.9104   20.5986 F   0  0  0  0  0  0  0  0  0  0  0  0
   12.4041   -2.7877   22.5722 F   0  0  0  0  0  0  0  0  0  0  0  0
   10.7072   -0.4129   21.1725 H   0  0  0  0  0  0  0  0  0  0  0  0
   10.7571   -0.6072   22.9433 H   0  0  0  0  0  0  0  0  0  0  0  0
    9.8595   -2.9490   22.7254 H   0  0  0  0  0  0  0  0  0  0  0  0
    9.9330   -2.8178   20.9618 H   0  0  0  0  0  0  0  0  0  0  0  0
    6.9382   -3.2426   24.2557 C   0  0  0  0  0  0  0  0  0  0  0  0
    6.6706   -3.6317   25.6870 C   0  0  0  0  0  0  0  0  0  0  0  0
    6.7097   -4.9558   26.1480 C   0  0  0  0  0  0  0  0  0  0  0  0
    6.2092   -5.2849   27.4127 C   0  0  0  0  0  0  0  0  0  0  0  0
    5.6796   -4.2841   28.2383 C   0  0  0  0  0  0  0  0  0  0  0  0
    5.7011   -2.9572   27.8182 C   0  0  0  0  0  0  0  0  0  0  0  0
    6.2412   -2.6237   26.5636 C   0  0  0  0  0  0  0  0  0  0  0  0
    5.3126   -2.1661   28.4546 H   0  0  0  0  0  0  0  0  0  0  0  0
    5.2610   -4.5346   29.2103 H   0  0  0  0  0  0  0  0  0  0  0  0
    6.2067   -6.3204   27.7459 H   0  0  0  0  0  0  0  0  0  0  0  0
    7.1199   -5.7392   25.5168 H   0  0  0  0  0  0  0  0  0  0  0  0
    5.9851   -3.2317   23.7120 H   0  0  0  0  0  0  0  0  0  0  0  0
    7.5917   -3.9670   23.7627 H   0  0  0  0  0  0  0  0  0  0  0  0
    8.6306   -1.9079   24.4483 H   0  0  0  0  0  0  0  0  0  0  0  0
  1  2  2  0
  2  3  1  0
  3  4  1  0
  4  5  1  0
  5  6  2  0
  6  7  1  0
  7  8  1  0
  8  9  2  0
  9 10  1  0
 10 11  2  0
 11 12  1  0
 12 13  2  0
 13 14  1  0
 11 15  1  0
 10 16  1  0
  9 17  1  0
  7 18  2  0
 18 19  1  0
 19 20  1  0
 20 21  1  0
 21 22  1  0
 22 23  1  0
 22 24  1  0
 22 25  1  0
 21 26  1  0
 21 27  1  0
 20 28  1  0
 20 29  1  0
  4 30  1  0
 30 31  1  0
 31 32  2  0
 32 33  1  0
 33 34  2  0
 34 35  1  0
 35 36  2  0
 35 37  1  0
 34 38  1  0
 33 39  1  0
 32 40  1  0
 30 41  1  0
 30 42  1  0
  4 43  1  0
 36  2  1  0
 19  5  1  0
 36 31  1  0
 13  8  1  0
M  END
>  <cnnaffinity>  (1) 
-6.15227

>  <filename>  (1) 
[H]c1nc([H])c(-c2nc(C3([H])OC(=O)c4c([H])c([H])c([H])c([H])c4C3([H])[H])n(C([H])([H])C([H])([H])C(F)(F)F)n2)c([H])c1[H]

$$$$
