
     RDKit          3D

 38 41  0  0  0  0  0  0  0  0999 V2000
    5.0740    1.9703   17.0105 H   0  0  0  0  0  0  0  0  0  0  0  0
    5.3289    1.2842   17.8137 C   0  0  0  0  0  0  0  0  0  0  0  0
    6.3209    0.4158   17.5632 N   0  0  0  0  0  0  0  0  0  0  0  0
    6.6647   -0.4052   18.5568 C   0  0  0  0  0  0  0  0  0  0  0  0
    7.4731   -1.1002   18.3318 H   0  0  0  0  0  0  0  0  0  0  0  0
    6.1045   -0.3853   19.8467 C   0  0  0  0  0  0  0  0  0  0  0  0
    6.8296   -1.1299   20.8879 C   0  0  0  0  0  0  0  0  0  0  0  0
    6.2656   -1.8815   21.8331 N   0  0  0  0  0  0  0  0  0  0  0  0
    7.3150   -2.3207   22.5410 N   0  0  0  0  0  0  0  0  0  0  0  0
    8.5018   -1.8754   22.1085 C   0  0  0  0  0  0  0  0  0  0  0  0
    8.2496   -1.0790   21.0185 C   0  0  0  0  0  0  0  0  0  0  0  0
    9.2084   -0.1632   20.2958 C   0  0  0  0  0  0  0  0  0  0  0  0
    9.5903   -0.6434   19.3851 H   0  0  0  0  0  0  0  0  0  0  0  0
    8.6390    0.7138   19.9601 H   0  0  0  0  0  0  0  0  0  0  0  0
   10.3392    0.3288   21.1634 C   0  0  0  0  0  0  0  0  0  0  0  0
   10.1337    1.4879   21.9160 C   0  0  0  0  0  0  0  0  0  0  0  0
    9.1554    1.9527   21.8786 H   0  0  0  0  0  0  0  0  0  0  0  0
   11.1490    2.0430   22.6885 C   0  0  0  0  0  0  0  0  0  0  0  0
   11.0056    2.9989   23.1834 H   0  0  0  0  0  0  0  0  0  0  0  0
   12.3746    1.3815   22.7893 C   0  0  0  0  0  0  0  0  0  0  0  0
   13.5941    2.0737   23.7827 Cl  0  0  0  0  0  0  0  0  0  0  0  0
   12.5771    0.1709   22.1120 C   0  0  0  0  0  0  0  0  0  0  0  0
   14.0782   -0.6873   22.2325 Cl  0  0  0  0  0  0  0  0  0  0  0  0
   11.5664   -0.3315   21.2816 C   0  0  0  0  0  0  0  0  0  0  0  0
   11.7715   -1.2427   20.7295 H   0  0  0  0  0  0  0  0  0  0  0  0
    9.5776   -2.2339   23.0825 C   0  0  0  0  0  0  0  0  0  0  0  0
    9.9415   -1.3135   23.5444 H   0  0  0  0  0  0  0  0  0  0  0  0
   10.4356   -2.6987   22.5948 H   0  0  0  0  0  0  0  0  0  0  0  0
    8.8603   -3.1602   24.0926 C   0  0  0  0  0  0  0  0  0  0  0  0
    9.1963   -4.1900   23.9704 H   0  0  0  0  0  0  0  0  0  0  0  0
    9.0725   -2.8619   25.1193 H   0  0  0  0  0  0  0  0  0  0  0  0
    7.3362   -3.0653   23.7830 C   0  0  0  0  0  0  0  0  0  0  0  0
    6.8708   -4.0431   23.6368 H   0  0  0  0  0  0  0  0  0  0  0  0
    6.7777   -2.5256   24.5551 H   0  0  0  0  0  0  0  0  0  0  0  0
    5.0108    0.4717   20.0625 C   0  0  0  0  0  0  0  0  0  0  0  0
    4.5020    0.4919   21.0273 H   0  0  0  0  0  0  0  0  0  0  0  0
    4.6297    1.3261   19.0258 C   0  0  0  0  0  0  0  0  0  0  0  0
    3.8282    2.0496   19.1519 H   0  0  0  0  0  0  0  0  0  0  0  0
  1  2  1  0
  2  3  2  0
  3  4  1  0
  4  5  1  0
  4  6  2  0
  6  7  1  0
  7  8  2  0
  8  9  1  0
  9 10  1  0
 10 11  2  0
 11 12  1  0
 12 13  1  0
 12 14  1  0
 12 15  1  0
 15 16  2  0
 16 17  1  0
 16 18  1  0
 18 19  1  0
 18 20  2  0
 20 21  1  0
 20 22  1  0
 22 23  1  0
 22 24  2  0
 24 25  1  0
 10 26  1  0
 26 27  1  0
 26 28  1  0
 26 29  1  0
 29 30  1  0
 29 31  1  0
 29 32  1  0
 32 33  1  0
 32 34  1  0
  6 35  1  0
 35 36  1  0
 35 37  2  0
 37 38  1  0
 37  2  1  0
 11  7  1  0
 24 15  1  0
 32  9  1  0
M  END
>  <cnnaffinity>  (1) 
-6.45648

>  <filename>  (1) 
[H]c1nc([H])c(-c2nn3c(c2C([H])([H])c2c([H])c([H])c(Cl)c(Cl)c2[H])C([H])([H])C([H])([H])C3([H])[H])c([H])c1[H]

$$$$
