
     RDKit          3D

 24 25  0  0  0  0  0  0  0  0999 V2000
    7.0391    1.4617   22.4491 H   0  0  0  0  0  0  0  0  0  0  0  0
    6.8234    0.6484   23.1386 C   0  0  0  0  0  0  0  0  0  0  0  0
    6.4830    0.9025   24.4161 C   0  0  0  0  0  0  0  0  0  0  0  0
    6.0954   -0.2853   25.6602 S   0  0  0  0  0  0  0  0  0  0  0  0
    5.9910    0.9296   26.9389 C   0  0  0  0  0  0  0  0  0  0  0  0
    5.7381    0.5919   28.5127 S   0  0  0  0  0  0  0  0  0  0  0  0
    6.1660    2.1640   26.4056 N   0  0  0  0  0  0  0  0  0  0  0  0
    6.1582    2.9895   26.9867 H   0  0  0  0  0  0  0  0  0  0  0  0
    6.4655    2.2968   25.0646 C   0  0  0  0  0  0  0  0  0  0  0  0
    6.6925    3.3624   24.5555 O   0  0  0  0  0  0  0  0  0  0  0  0
    7.2184   -0.9246   22.3825 S   0  0  0  0  0  0  0  0  0  0  0  0
    6.0643   -1.7670   22.1925 O   0  0  0  0  0  0  0  0  0  0  0  0
    8.4344   -1.4465   22.9383 O   0  0  0  0  0  0  0  0  0  0  0  0
    7.6659   -0.2983   20.9398 O   0  0  0  0  0  0  0  0  0  0  0  0
    6.7733    0.1221   19.9558 C   0  0  0  0  0  0  0  0  0  0  0  0
    7.2426    0.0772   18.6260 C   0  0  0  0  0  0  0  0  0  0  0  0
    8.1859   -0.4362   18.4363 H   0  0  0  0  0  0  0  0  0  0  0  0
    6.5833    0.6238   17.5964 N   0  0  0  0  0  0  0  0  0  0  0  0
    5.4159    1.2443   17.8623 C   0  0  0  0  0  0  0  0  0  0  0  0
    4.9300    1.7432   17.0239 H   0  0  0  0  0  0  0  0  0  0  0  0
    4.8364    1.2654   19.1365 C   0  0  0  0  0  0  0  0  0  0  0  0
    3.8861    1.7694   19.2922 H   0  0  0  0  0  0  0  0  0  0  0  0
    5.5095    0.6575   20.2089 C   0  0  0  0  0  0  0  0  0  0  0  0
    5.0423    0.5892   21.1891 H   0  0  0  0  0  0  0  0  0  0  0  0
  1  2  1  0
  2  3  2  3
  3  4  1  0
  4  5  1  0
  5  6  2  0
  5  7  1  0
  7  8  1  0
  7  9  1  0
  9 10  2  0
  2 11  1  0
 11 12  2  0
 11 13  2  0
 11 14  1  0
 14 15  1  0
 15 16  2  0
 16 17  1  0
 16 18  1  0
 18 19  2  0
 19 20  1  0
 19 21  1  0
 21 22  1  0
 21 23  2  0
 23 24  1  0
  9  3  1  0
 23 15  1  0
M  END
>  <cnnaffinity>  (1) 
-4.16935

>  <filename>  (1) 
[H]C(=C1SC(=S)N([H])C1=O)S(=O)(=O)Oc1c([H])nc([H])c([H])c1[H]

$$$$
