
     RDKit          3D

 31 33  0  0  0  0  0  0  0  0999 V2000
    5.6033   -1.3434   21.8781 H   0  0  0  0  0  0  0  0  0  0  0  0
    6.6793   -1.4120   21.9270 C   0  0  0  0  0  0  0  0  0  0  0  0
    7.3935   -0.8088   20.9088 C   0  0  0  0  0  0  0  0  0  0  0  0
    9.3065   -0.8685   20.8968 Br  0  0  0  0  0  0  0  0  0  0  0  0
    6.6888   -0.0645   19.8566 C   0  0  0  0  0  0  0  0  0  0  0  0
    7.2479    0.0667   18.5740 C   0  0  0  0  0  0  0  0  0  0  0  0
    8.2056   -0.3976   18.3656 H   0  0  0  0  0  0  0  0  0  0  0  0
    6.6512    0.7303   17.5677 N   0  0  0  0  0  0  0  0  0  0  0  0
    5.4647    1.3102   17.8132 C   0  0  0  0  0  0  0  0  0  0  0  0
    4.9647    1.8334   17.0042 H   0  0  0  0  0  0  0  0  0  0  0  0
    4.8483    1.2488   19.0669 C   0  0  0  0  0  0  0  0  0  0  0  0
    3.9025    1.7568   19.2167 H   0  0  0  0  0  0  0  0  0  0  0  0
    5.4596    0.5544   20.1098 C   0  0  0  0  0  0  0  0  0  0  0  0
    5.0044    0.5197   21.0988 H   0  0  0  0  0  0  0  0  0  0  0  0
    7.2622   -2.1012   23.0829 C   0  0  0  0  0  0  0  0  0  0  0  0
    6.6177   -2.0507   24.3293 C   0  0  0  0  0  0  0  0  0  0  0  0
    5.7019   -1.4826   24.4680 H   0  0  0  0  0  0  0  0  0  0  0  0
    7.1503   -2.7158   25.4379 C   0  0  0  0  0  0  0  0  0  0  0  0
    6.6443   -2.6442   26.3951 H   0  0  0  0  0  0  0  0  0  0  0  0
    8.3288   -3.4658   25.3267 C   0  0  0  0  0  0  0  0  0  0  0  0
    8.9960   -3.5111   24.0828 C   0  0  0  0  0  0  0  0  0  0  0  0
    8.4534   -2.8349   22.9769 C   0  0  0  0  0  0  0  0  0  0  0  0
    8.9471   -2.9345   22.0169 H   0  0  0  0  0  0  0  0  0  0  0  0
   10.1571   -4.2241   23.9176 O   0  0  0  0  0  0  0  0  0  0  0  0
   10.3859   -5.2566   24.8943 C   0  0  0  0  0  0  0  0  0  0  0  0
    9.7607   -6.1271   24.6790 H   0  0  0  0  0  0  0  0  0  0  0  0
   11.4386   -5.5494   24.8268 H   0  0  0  0  0  0  0  0  0  0  0  0
   10.0846   -4.7519   26.2972 C   0  0  0  0  0  0  0  0  0  0  0  0
   10.8097   -3.9844   26.4752 H   0  0  0  0  0  0  0  0  0  0  0  0
   10.2338   -5.5280   27.0591 H   0  0  0  0  0  0  0  0  0  0  0  0
    8.7800   -4.1597   26.4274 O   0  0  0  0  0  0  0  0  0  0  0  0
  1  2  1  0
  2  3  2  3
  3  4  1  0
  3  5  1  0
  5  6  2  0
  6  7  1  0
  6  8  1  0
  8  9  2  0
  9 10  1  0
  9 11  1  0
 11 12  1  0
 11 13  2  0
 13 14  1  0
  2 15  1  0
 15 16  2  0
 16 17  1  0
 16 18  1  0
 18 19  1  0
 18 20  2  0
 20 21  1  0
 21 22  2  0
 22 23  1  0
 21 24  1  0
 24 25  1  0
 25 26  1  0
 25 27  1  0
 25 28  1  0
 28 29  1  0
 28 30  1  0
 28 31  1  0
 13  5  1  0
 22 15  1  0
 31 20  1  0
M  END
>  <cnnaffinity>  (1) 
-4.91848

>  <filename>  (1) 
[H]C(=C(Br)c1c([H])nc([H])c([H])c1[H])c1c([H])c([H])c2c(c1[H])OC([H])([H])C([H])([H])O2

$$$$
