
     RDKit          3D

 37 40  0  0  0  0  0  0  0  0999 V2000
    4.9384    1.7860   17.0085 H   0  0  0  0  0  0  0  0  0  0  0  0
    5.4109    1.2830   17.8450 C   0  0  0  0  0  0  0  0  0  0  0  0
    6.5723    0.6648   17.5832 N   0  0  0  0  0  0  0  0  0  0  0  0
    7.1890    0.0481   18.5999 C   0  0  0  0  0  0  0  0  0  0  0  0
    8.1332   -0.4274   18.3458 H   0  0  0  0  0  0  0  0  0  0  0  0
    6.6961   -0.0123   19.9431 C   0  0  0  0  0  0  0  0  0  0  0  0
    7.3729   -0.6572   20.9614 N   0  0  0  0  0  0  0  0  0  0  0  0
    8.6653   -1.3075   20.7774 C   0  0  0  0  0  0  0  0  0  0  0  0
    9.4312   -0.6047   20.4282 H   0  0  0  0  0  0  0  0  0  0  0  0
    8.5827   -2.0969   20.0432 H   0  0  0  0  0  0  0  0  0  0  0  0
    9.0147   -1.9180   22.1188 C   0  0  1  0  0  0  0  0  0  0  0  0
    9.5157   -2.8769   22.1147 H   0  0  0  0  0  0  0  0  0  0  0  0
    9.3016   -0.9484   23.2198 C   0  0  1  0  0  0  0  0  0  0  0  0
    9.9155   -1.3234   24.0425 H   0  0  0  0  0  0  0  0  0  0  0  0
    9.5548    0.3696   22.8410 O   0  0  0  0  0  0  0  0  0  0  0  0
    9.6656    1.2929   23.9169 C   0  0  0  0  0  0  0  0  0  0  0  0
   10.1523    2.1685   23.4784 H   0  0  0  0  0  0  0  0  0  0  0  0
   10.3316    0.8967   24.7002 H   0  0  0  0  0  0  0  0  0  0  0  0
    8.3124    1.6589   24.5128 C   0  0  0  0  0  0  0  0  0  0  0  0
    7.7893    0.9915   25.6309 C   0  0  0  0  0  0  0  0  0  0  0  0
    8.3440    0.2030   26.1294 H   0  0  0  0  0  0  0  0  0  0  0  0
    6.5261    1.3472   26.1205 C   0  0  0  0  0  0  0  0  0  0  0  0
    6.1036    0.8401   26.9907 H   0  0  0  0  0  0  0  0  0  0  0  0
    5.7673    2.3076   25.5787 N   0  0  0  0  0  0  0  0  0  0  0  0
    6.2620    2.9472   24.5097 C   0  0  0  0  0  0  0  0  0  0  0  0
    5.6265    3.7264   24.0839 H   0  0  0  0  0  0  0  0  0  0  0  0
    7.5113    2.6652   23.9481 C   0  0  0  0  0  0  0  0  0  0  0  0
    7.8360    3.2187   23.0712 H   0  0  0  0  0  0  0  0  0  0  0  0
    7.9194   -1.5535   23.0849 C   0  0  1  0  0  0  0  0  0  0  0  0
    7.5797   -2.2285   23.8628 H   0  0  0  0  0  0  0  0  0  0  0  0
    6.8641   -0.7708   22.3267 C   0  0  0  0  0  0  0  0  0  0  0  0
    6.6837    0.2124   22.7815 H   0  0  0  0  0  0  0  0  0  0  0  0
    5.9307   -1.3416   22.3381 H   0  0  0  0  0  0  0  0  0  0  0  0
    5.4594    0.6387   20.1736 C   0  0  0  0  0  0  0  0  0  0  0  0
    5.0177    0.6280   21.1677 H   0  0  0  0  0  0  0  0  0  0  0  0
    4.8250    1.2936   19.1149 C   0  0  0  0  0  0  0  0  0  0  0  0
    3.8899    1.8226   19.2698 H   0  0  0  0  0  0  0  0  0  0  0  0
  1  2  1  0
  2  3  2  0
  3  4  1  0
  4  5  1  0
  4  6  2  0
  6  7  1  0
  7  8  1  0
  8  9  1  0
  8 10  1  0
  8 11  1  0
 11 12  1  6
 11 13  1  0
 13 14  1  1
 13 15  1  0
 15 16  1  0
 16 17  1  0
 16 18  1  0
 16 19  1  0
 19 20  2  0
 20 21  1  0
 20 22  1  0
 22 23  1  0
 22 24  2  0
 24 25  1  0
 25 26  1  0
 25 27  2  0
 27 28  1  0
 13 29  1  0
 29 30  1  1
 29 31  1  0
 31 32  1  0
 31 33  1  0
  6 34  1  0
 34 35  1  0
 34 36  2  0
 36 37  1  0
 36  2  1  0
 31  7  1  0
 29 11  1  0
 27 19  1  0
M  END
>  <cnnaffinity>  (1) 
-4.92627

>  <filename>  (1) 
[H]c1nc([H])c(N2C([H])([H])[C@@]3([H])[C@@]([H])(OC([H])([H])c4c([H])c([H])nc([H])c4[H])[C@@]3([H])C2([H])[H])c([H])c1[H]

$$$$
