
     RDKit          3D

 29 31  0  0  0  0  0  0  0  0999 V2000
    4.8466    1.9420   16.8580 H   0  0  0  0  0  0  0  0  0  0  0  0
    5.2889    1.3785   17.6746 C   0  0  0  0  0  0  0  0  0  0  0  0
    6.4177    0.7094   17.3828 N   0  0  0  0  0  0  0  0  0  0  0  0
    7.0219    0.0463   18.3785 C   0  0  0  0  0  0  0  0  0  0  0  0
    7.9386   -0.4891   18.1280 H   0  0  0  0  0  0  0  0  0  0  0  0
    6.5381    0.0065   19.7113 C   0  0  0  0  0  0  0  0  0  0  0  0
    7.2494   -0.6447   20.7691 N   0  0  0  0  0  0  0  0  0  0  0  0
    8.5508   -0.3282   21.1090 C   0  0  0  0  0  0  0  0  0  0  0  0
    9.3207   -1.1404   21.7824 N   0  0  0  0  0  0  0  0  0  0  0  0
   10.5010   -0.4465   21.9459 C   0  0  0  0  0  0  0  0  0  0  0  0
   11.6663   -0.8349   22.6122 C   0  0  0  0  0  0  0  0  0  0  0  0
   11.7253   -1.8689   22.9335 H   0  0  0  0  0  0  0  0  0  0  0  0
   12.6869    0.1024   22.7859 C   0  0  0  0  0  0  0  0  0  0  0  0
   13.5650   -0.1514   23.3764 H   0  0  0  0  0  0  0  0  0  0  0  0
   12.5738    1.3888   22.2070 C   0  0  0  0  0  0  0  0  0  0  0  0
   13.3961    2.0896   22.3279 H   0  0  0  0  0  0  0  0  0  0  0  0
   11.4475    1.7699   21.4689 C   0  0  0  0  0  0  0  0  0  0  0  0
   11.3811    2.7426   20.9848 H   0  0  0  0  0  0  0  0  0  0  0  0
   10.4084    0.8380   21.3713 C   0  0  0  0  0  0  0  0  0  0  0  0
    9.1573    0.8634   20.7672 N   0  0  0  0  0  0  0  0  0  0  0  0
    8.6356    1.6949   20.5485 H   0  0  0  0  0  0  0  0  0  0  0  0
    6.6086   -1.6154   21.6564 C   0  0  0  0  0  0  0  0  0  0  0  0
    5.6581   -1.9501   21.2394 H   0  0  0  0  0  0  0  0  0  0  0  0
    7.2635   -2.4859   21.7982 H   0  0  0  0  0  0  0  0  0  0  0  0
    6.4342   -1.1796   22.6516 H   0  0  0  0  0  0  0  0  0  0  0  0
    5.3241    0.6565   19.9716 C   0  0  0  0  0  0  0  0  0  0  0  0
    4.9159    0.6186   20.9814 H   0  0  0  0  0  0  0  0  0  0  0  0
    4.6965    1.3688   18.9417 C   0  0  0  0  0  0  0  0  0  0  0  0
    3.7835    1.9312   19.1131 H   0  0  0  0  0  0  0  0  0  0  0  0
  1  2  1  0
  2  3  2  0
  3  4  1  0
  4  5  1  0
  4  6  2  0
  6  7  1  0
  7  8  1  0
  8  9  2  0
  9 10  1  0
 10 11  2  0
 11 12  1  0
 11 13  1  0
 13 14  1  0
 13 15  2  0
 15 16  1  0
 15 17  1  0
 17 18  1  0
 17 19  2  0
 19 20  1  0
 20 21  1  0
  7 22  1  0
 22 23  1  0
 22 24  1  0
 22 25  1  0
  6 26  1  0
 26 27  1  0
 26 28  2  0
 28 29  1  0
 28  2  1  0
 20  8  1  0
 19 10  1  0
M  END
>  <cnnaffinity>  (1) 
-4.62268

>  <filename>  (1) 
[H]c1nc([H])c(N(c2nc3c([H])c([H])c([H])c([H])c3n2[H])C([H])([H])[H])c([H])c1[H]

$$$$
