
     RDKit          3D

 30 32  0  0  0  0  0  0  0  0999 V2000
    6.8333    1.7928   22.1239 H   0  0  0  0  0  0  0  0  0  0  0  0
    7.6037    1.2176   22.6312 C   0  0  0  0  0  0  0  0  0  0  0  0
    8.3755    1.8024   23.5640 C   0  0  0  0  0  0  0  0  0  0  0  0
    8.0276    2.7399   24.0032 H   0  0  0  0  0  0  0  0  0  0  0  0
    9.6620    1.2699   24.0850 C   0  0  0  0  0  0  0  0  0  0  0  0
   10.7027    0.9172   23.2091 C   0  0  0  0  0  0  0  0  0  0  0  0
   10.5503    1.0233   22.1367 H   0  0  0  0  0  0  0  0  0  0  0  0
   11.8867    0.3641   23.7027 C   0  0  0  0  0  0  0  0  0  0  0  0
   12.7027    0.1355   23.0189 H   0  0  0  0  0  0  0  0  0  0  0  0
   12.0173    0.1172   25.0726 C   0  0  0  0  0  0  0  0  0  0  0  0
   12.9295   -0.3291   25.4555 H   0  0  0  0  0  0  0  0  0  0  0  0
   10.9865    0.4589   25.9568 C   0  0  0  0  0  0  0  0  0  0  0  0
   11.0891    0.2797   27.0268 H   0  0  0  0  0  0  0  0  0  0  0  0
    9.8249    1.0608   25.4644 C   0  0  0  0  0  0  0  0  0  0  0  0
    9.0256    1.3471   26.1460 H   0  0  0  0  0  0  0  0  0  0  0  0
    7.6879   -0.1902   22.2205 C   0  0  0  0  0  0  0  0  0  0  0  0
    8.2327   -1.1220   23.0705 N   0  0  0  0  0  0  0  0  0  0  0  0
    8.2940   -2.3044   22.6158 N   0  0  0  0  0  0  0  0  0  0  0  0
    7.6634   -2.3920   21.0484 S   0  0  0  0  0  0  0  0  0  0  0  0
    7.2807   -0.7345   20.9972 C   0  0  0  0  0  0  0  0  0  0  0  0
    6.6041   -0.0579   19.8670 C   0  0  0  0  0  0  0  0  0  0  0  0
    7.1473    0.0091   18.5609 C   0  0  0  0  0  0  0  0  0  0  0  0
    8.0931   -0.4827   18.3417 H   0  0  0  0  0  0  0  0  0  0  0  0
    6.5823    0.6723   17.5445 N   0  0  0  0  0  0  0  0  0  0  0  0
    5.4227    1.3083   17.7807 C   0  0  0  0  0  0  0  0  0  0  0  0
    4.9960    1.8620   16.9436 H   0  0  0  0  0  0  0  0  0  0  0  0
    4.7802    1.2900   19.0223 C   0  0  0  0  0  0  0  0  0  0  0  0
    3.8455    1.8241   19.1526 H   0  0  0  0  0  0  0  0  0  0  0  0
    5.3806    0.5982   20.0781 C   0  0  0  0  0  0  0  0  0  0  0  0
    4.9162    0.5683   21.0657 H   0  0  0  0  0  0  0  0  0  0  0  0
  1  2  1  0
  2  3  2  3
  3  4  1  0
  3  5  1  0
  5  6  2  0
  6  7  1  0
  6  8  1  0
  8  9  1  0
  8 10  2  0
 10 11  1  0
 10 12  1  0
 12 13  1  0
 12 14  2  0
 14 15  1  0
  2 16  1  0
 16 17  1  0
 17 18  2  0
 18 19  1  0
 19 20  1  0
 20 21  1  0
 21 22  2  0
 22 23  1  0
 22 24  1  0
 24 25  2  0
 25 26  1  0
 25 27  1  0
 27 28  1  0
 27 29  2  0
 29 30  1  0
 14  5  1  0
 20 16  2  0
 29 21  1  0
M  END
>  <cnnaffinity>  (1) 
-5.13588

>  <filename>  (1) 
[H]C(=C([H])c1c([H])c([H])c([H])c([H])c1[H])c1nnsc1-c1c([H])nc([H])c([H])c1[H]

$$$$
