
     RDKit          3D

 33 34  0  0  0  0  0  0  0  0999 V2000
    4.9921    1.8240   16.9741 H   0  0  0  0  0  0  0  0  0  0  0  0
    5.4596    1.2858   17.7956 C   0  0  0  0  0  0  0  0  0  0  0  0
    6.5633    0.5908   17.4833 N   0  0  0  0  0  0  0  0  0  0  0  0
    7.1618   -0.0820   18.4689 C   0  0  0  0  0  0  0  0  0  0  0  0
    8.0421   -0.6618   18.1963 H   0  0  0  0  0  0  0  0  0  0  0  0
    6.7203   -0.0676   19.8007 C   0  0  0  0  0  0  0  0  0  0  0  0
    7.5509   -0.7140   20.8983 C   0  0  0  0  0  0  0  0  0  0  0  0
    6.7587   -1.5335   21.6307 F   0  0  0  0  0  0  0  0  0  0  0  0
    8.5064   -1.5254   20.3233 F   0  0  0  0  0  0  0  0  0  0  0  0
    8.2966    0.3063   21.8633 C   0  0  0  0  0  0  0  0  0  0  0  0
    8.0668    0.4041   23.0512 O   0  0  0  0  0  0  0  0  0  0  0  0
    9.2374    1.0542   21.1849 N   0  0  0  0  0  0  0  0  0  0  0  0
    9.3429    0.9271   20.1895 H   0  0  0  0  0  0  0  0  0  0  0  0
    9.9816    2.1004   21.7029 N   0  0  0  0  0  0  0  0  0  0  0  0
   11.3093    1.8424   22.1295 C   0  0  0  0  0  0  0  0  0  0  0  0
   12.1567    2.9429   22.3703 C   0  0  0  0  0  0  0  0  0  0  0  0
   11.7887    3.9450   22.1740 H   0  0  0  0  0  0  0  0  0  0  0  0
   13.4727    2.7548   22.7934 C   0  0  0  0  0  0  0  0  0  0  0  0
   14.0919    3.6127   23.0418 H   0  0  0  0  0  0  0  0  0  0  0  0
   13.9937    1.4636   22.9137 C   0  0  0  0  0  0  0  0  0  0  0  0
   15.0379    1.3020   23.1488 H   0  0  0  0  0  0  0  0  0  0  0  0
   13.1660    0.3615   22.6954 C   0  0  0  0  0  0  0  0  0  0  0  0
   13.5512   -0.6445   22.8529 H   0  0  0  0  0  0  0  0  0  0  0  0
   11.8353    0.5405   22.3045 C   0  0  0  0  0  0  0  0  0  0  0  0
   11.1997   -0.3159   22.1091 H   0  0  0  0  0  0  0  0  0  0  0  0
    9.1581    3.1259   22.3552 C   0  0  0  0  0  0  0  0  0  0  0  0
    8.3211    3.3413   21.6868 H   0  0  0  0  0  0  0  0  0  0  0  0
    8.7624    2.7842   23.3185 H   0  0  0  0  0  0  0  0  0  0  0  0
    9.7125    4.0542   22.4992 H   0  0  0  0  0  0  0  0  0  0  0  0
    5.5497    0.6392   20.1142 C   0  0  0  0  0  0  0  0  0  0  0  0
    5.1560    0.6563   21.1330 H   0  0  0  0  0  0  0  0  0  0  0  0
    4.9103    1.3263   19.0818 C   0  0  0  0  0  0  0  0  0  0  0  0
    4.0029    1.8944   19.2543 H   0  0  0  0  0  0  0  0  0  0  0  0
  1  2  1  0
  2  3  2  0
  3  4  1  0
  4  5  1  0
  4  6  2  0
  6  7  1  0
  7  8  1  0
  7  9  1  0
  7 10  1  0
 10 11  2  0
 10 12  1  0
 12 13  1  0
 12 14  1  0
 14 15  1  0
 15 16  2  0
 16 17  1  0
 16 18  1  0
 18 19  1  0
 18 20  2  0
 20 21  1  0
 20 22  1  0
 22 23  1  0
 22 24  2  0
 24 25  1  0
 14 26  1  0
 26 27  1  0
 26 28  1  0
 26 29  1  0
  6 30  1  0
 30 31  1  0
 30 32  2  0
 32 33  1  0
 32  2  1  0
 24 15  1  0
M  END
>  <cnnaffinity>  (1) 
-4.9729

>  <filename>  (1) 
[H]c1nc([H])c(C(F)(F)C(=O)N([H])N(c2c([H])c([H])c([H])c([H])c2[H])C([H])([H])[H])c([H])c1[H]

$$$$
