
     RDKit          3D

 47 50  0  0  0  0  0  0  0  0999 V2000
    5.4682    4.0848   21.7929 C   0  0  0  0  0  0  0  0  0  0  0  0
    6.4822    3.9880   22.6487 C   0  0  0  0  0  0  0  0  0  0  0  0
    7.6828    4.8573   22.6852 C   0  0  0  0  0  0  0  0  0  0  0  0
    8.7364    4.5016   23.4372 C   0  0  0  0  0  0  0  0  0  0  0  0
    8.9442    3.1111   24.0434 C   0  0  0  0  0  0  0  0  0  0  0  0
    8.9122    1.9532   23.0620 C   0  0  0  0  0  0  0  0  0  0  0  0
    7.8675    1.2255   22.7121 N   0  0  0  0  0  0  0  0  0  0  0  0
    8.3759    0.3465   21.8086 C   0  0  0  0  0  0  0  0  0  0  0  0
    7.5123   -0.6023   21.0196 C   0  0  0  0  0  0  0  0  0  0  0  0
    6.7311    0.0406   19.8718 C   0  0  0  0  0  0  0  0  0  0  0  0
    5.5502    0.7447   20.1423 C   0  0  0  0  0  0  0  0  0  0  0  0
    4.8839    1.3894   19.0965 C   0  0  0  0  0  0  0  0  0  0  0  0
    5.4250    1.3147   17.8102 C   0  0  0  0  0  0  0  0  0  0  0  0
    6.5403    0.6274   17.5186 N   0  0  0  0  0  0  0  0  0  0  0  0
    7.1633    0.0099   18.5315 C   0  0  0  0  0  0  0  0  0  0  0  0
    8.0625   -0.5457   18.2621 H   0  0  0  0  0  0  0  0  0  0  0  0
    4.9465    1.8246   16.9753 H   0  0  0  0  0  0  0  0  0  0  0  0
    3.9703    1.9533   19.2633 H   0  0  0  0  0  0  0  0  0  0  0  0
    5.1642    0.7750   21.1635 H   0  0  0  0  0  0  0  0  0  0  0  0
    8.1587   -1.4075   20.6578 H   0  0  0  0  0  0  0  0  0  0  0  0
    6.8075   -1.0417   21.7330 H   0  0  0  0  0  0  0  0  0  0  0  0
    9.6819    0.4290   21.6395 N   0  0  0  0  0  0  0  0  0  0  0  0
   10.0166    1.4929   22.4175 N   0  0  0  0  0  0  0  0  0  0  0  0
   11.3142    2.0557   22.4383 C   0  0  0  0  0  0  0  0  0  0  0  0
   11.5154    3.4327   22.3632 C   0  0  0  0  0  0  0  0  0  0  0  0
   12.8076    3.9850   22.4895 C   0  0  0  0  0  0  0  0  0  0  0  0
   13.9211    3.1728   22.6625 C   0  0  0  0  0  0  0  0  0  0  0  0
   13.7361    1.7776   22.7258 C   0  0  0  0  0  0  0  0  0  0  0  0
   12.4427    1.2437   22.6099 C   0  0  0  0  0  0  0  0  0  0  0  0
   12.6172   -0.1162   22.6791 N   0  0  0  0  0  0  0  0  0  0  0  0
   13.9577   -0.3356   22.8161 C   0  0  0  0  0  0  0  0  0  0  0  0
   14.6597    0.7572   22.8492 N   0  0  0  0  0  0  0  0  0  0  0  0
   14.3902   -1.3262   22.8763 H   0  0  0  0  0  0  0  0  0  0  0  0
   11.8817   -0.7775   22.4921 H   0  0  0  0  0  0  0  0  0  0  0  0
   14.9218    3.5803   22.6662 H   0  0  0  0  0  0  0  0  0  0  0  0
   12.9341    5.0609   22.4654 H   0  0  0  0  0  0  0  0  0  0  0  0
   10.6603    4.0714   22.1927 H   0  0  0  0  0  0  0  0  0  0  0  0
    9.8873    3.0812   24.5991 H   0  0  0  0  0  0  0  0  0  0  0  0
    8.1614    2.9098   24.7872 H   0  0  0  0  0  0  0  0  0  0  0  0
    9.5142    5.2418   23.6476 H   0  0  0  0  0  0  0  0  0  0  0  0
    7.6732    6.1097   21.8363 C   0  0  0  0  0  0  0  0  0  0  0  0
    8.4753    6.8112   22.0906 H   0  0  0  0  0  0  0  0  0  0  0  0
    6.7182    6.6323   21.9390 H   0  0  0  0  0  0  0  0  0  0  0  0
    7.7716    5.8549   20.7746 H   0  0  0  0  0  0  0  0  0  0  0  0
    6.5109    3.1670   23.3578 H   0  0  0  0  0  0  0  0  0  0  0  0
    4.6927    3.3234   21.7140 H   0  0  0  0  0  0  0  0  0  0  0  0
    5.3986    4.9395   21.1285 H   0  0  0  0  0  0  0  0  0  0  0  0
  1  2  2  3
  2  3  1  0
  3  4  2  3
  4  5  1  0
  5  6  1  0
  6  7  2  0
  7  8  1  0
  8  9  1  0
  9 10  1  0
 10 11  2  0
 11 12  1  0
 12 13  2  0
 13 14  1  0
 14 15  2  0
 15 16  1  0
 13 17  1  0
 12 18  1  0
 11 19  1  0
  9 20  1  0
  9 21  1  0
  8 22  2  0
 22 23  1  0
 23 24  1  0
 24 25  2  0
 25 26  1  0
 26 27  2  0
 27 28  1  0
 28 29  2  0
 29 30  1  0
 30 31  1  0
 31 32  2  0
 31 33  1  0
 30 34  1  0
 27 35  1  0
 26 36  1  0
 25 37  1  0
  5 38  1  0
  5 39  1  0
  4 40  1  0
  3 41  1  0
 41 42  1  0
 41 43  1  0
 41 44  1  0
  2 45  1  0
  1 46  1  0
  1 47  1  0
 23  6  1  0
 29 24  1  0
 15 10  1  0
 32 28  1  0
M  END
>  <cnnaffinity>  (1) 
-6.62778

>  <filename>  (1) 
[H]C([H])=C([H])C(=C([H])C([H])([H])c1nc(C([H])([H])c2c([H])nc([H])c([H])c2[H])nn1-c1c([H])c([H])c([H])c2nc([H])n([H])c12)C([H])([H])[H]

$$$$
