
     RDKit          3D

 39 41  0  0  0  0  0  0  0  0999 V2000
    4.9465    1.7822   16.9926 H   0  0  0  0  0  0  0  0  0  0  0  0
    5.4157    1.2910   17.8452 C   0  0  0  0  0  0  0  0  0  0  0  0
    6.5874    0.6832   17.6045 N   0  0  0  0  0  0  0  0  0  0  0  0
    7.1893    0.0735   18.6370 C   0  0  0  0  0  0  0  0  0  0  0  0
    8.1444   -0.4031   18.4127 H   0  0  0  0  0  0  0  0  0  0  0  0
    6.6560    0.0131   19.9343 C   0  0  0  0  0  0  0  0  0  0  0  0
    7.3855   -0.6991   21.0234 C   0  0  0  0  0  0  0  0  0  0  0  0
    8.4594    0.0624   21.6539 N   0  0  0  0  0  0  0  0  0  0  0  0
    8.7727   -0.5264   22.4264 H   0  0  0  0  0  0  0  0  0  0  0  0
    7.8786    1.1922   22.3031 O   0  0  0  0  0  0  0  0  0  0  0  0
    8.3859    2.4438   21.7965 C   0  0  0  0  0  0  0  0  0  0  0  0
    8.5521    2.3330   20.7150 H   0  0  0  0  0  0  0  0  0  0  0  0
    9.6864    2.7814   22.5427 C   0  0  0  0  0  0  0  0  0  0  0  0
   10.1639    3.6580   22.0977 H   0  0  0  0  0  0  0  0  0  0  0  0
   10.3787    1.9349   22.4455 H   0  0  0  0  0  0  0  0  0  0  0  0
    9.4071    3.0678   24.0233 C   0  0  0  0  0  0  0  0  0  0  0  0
    9.0835    2.1347   24.5252 H   0  0  0  0  0  0  0  0  0  0  0  0
   10.3353    3.3989   24.5091 H   0  0  0  0  0  0  0  0  0  0  0  0
    8.4101    4.1342   24.1740 N   0  0  0  0  0  0  0  0  0  0  0  0
    8.2457    4.5278   25.5653 C   0  0  0  0  0  0  0  0  0  0  0  0
    9.2090    4.8520   25.9765 H   0  0  0  0  0  0  0  0  0  0  0  0
    7.5527    5.3756   25.6314 H   0  0  0  0  0  0  0  0  0  0  0  0
    7.8543    3.7079   26.2010 H   0  0  0  0  0  0  0  0  0  0  0  0
    7.1246    3.7753   23.5626 C   0  0  0  0  0  0  0  0  0  0  0  0
    6.6560    2.9080   24.0695 H   0  0  0  0  0  0  0  0  0  0  0  0
    6.4414    4.6283   23.6868 H   0  0  0  0  0  0  0  0  0  0  0  0
    7.2982    3.4871   22.0663 C   0  0  0  0  0  0  0  0  0  0  0  0
    7.5766    4.4275   21.5705 H   0  0  0  0  0  0  0  0  0  0  0  0
    6.3500    3.1512   21.6225 H   0  0  0  0  0  0  0  0  0  0  0  0
    7.6548   -2.1558   20.8663 C   0  0  0  0  0  0  0  0  0  0  0  0
    7.1580   -2.6191   20.0233 H   0  0  0  0  0  0  0  0  0  0  0  0
    8.6437   -2.5362   21.0928 H   0  0  0  0  0  0  0  0  0  0  0  0
    6.6793   -1.6910   21.9109 C   0  0  0  0  0  0  0  0  0  0  0  0
    6.9060   -1.7122   22.9754 H   0  0  0  0  0  0  0  0  0  0  0  0
    5.6388   -1.8901   21.6742 H   0  0  0  0  0  0  0  0  0  0  0  0
    5.4387    0.6695   20.1621 C   0  0  0  0  0  0  0  0  0  0  0  0
    5.0256    0.6695   21.1728 H   0  0  0  0  0  0  0  0  0  0  0  0
    4.7999    1.3146   19.1026 C   0  0  0  0  0  0  0  0  0  0  0  0
    3.8568    1.8402   19.2340 H   0  0  0  0  0  0  0  0  0  0  0  0
  1  2  1  0
  2  3  2  0
  3  4  1  0
  4  5  1  0
  4  6  2  0
  6  7  1  0
  7  8  1  0
  8  9  1  0
  8 10  1  0
 10 11  1  0
 11 12  1  0
 11 13  1  0
 13 14  1  0
 13 15  1  0
 13 16  1  0
 16 17  1  0
 16 18  1  0
 16 19  1  0
 19 20  1  0
 20 21  1  0
 20 22  1  0
 20 23  1  0
 19 24  1  0
 24 25  1  0
 24 26  1  0
 24 27  1  0
 27 28  1  0
 27 29  1  0
  7 30  1  0
 30 31  1  0
 30 32  1  0
 30 33  1  0
 33 34  1  0
 33 35  1  0
  6 36  1  0
 36 37  1  0
 36 38  2  0
 38 39  1  0
 38  2  1  0
 33  7  1  0
 27 11  1  0
M  END
>  <cnnaffinity>  (1) 
-4.28248

>  <filename>  (1) 
[H]c1nc([H])c(C2(N([H])OC3([H])C([H])([H])C([H])([H])N(C([H])([H])[H])C([H])([H])C3([H])[H])C([H])([H])C2([H])[H])c([H])c1[H]

$$$$
