
     RDKit          3D

 50 54  0  0  0  0  0  0  0  0999 V2000
   13.8288    0.9859   22.8618 C   0  0  0  0  0  0  0  0  0  0  0  0
   12.3489    1.2453   23.2088 C   0  0  0  0  0  0  0  0  0  0  0  0
   11.7256    0.0060   23.8276 C   0  0  0  0  0  0  0  0  0  0  0  0
   12.2396   -0.2212   24.7663 H   0  0  0  0  0  0  0  0  0  0  0  0
   11.8089   -0.8340   23.1287 H   0  0  0  0  0  0  0  0  0  0  0  0
   10.6644    0.1523   24.0410 H   0  0  0  0  0  0  0  0  0  0  0  0
   12.2754    2.3014   24.1684 O   0  0  0  0  0  0  0  0  0  0  0  0
   12.4670    3.5290   23.4836 C   0  0  0  0  0  0  0  0  0  0  0  0
   11.8800    3.3357   22.0718 C   0  0  0  0  0  0  0  0  0  0  0  0
   11.5774    1.8318   21.9755 C   0  0  0  0  0  0  0  0  0  0  0  0
   10.1328    1.5090   21.9304 N   0  0  0  0  0  0  0  0  0  0  0  0
    9.7377    0.4772   21.1362 N   0  0  0  0  0  0  0  0  0  0  0  0
    8.4760    0.2975   21.4637 C   0  0  0  0  0  0  0  0  0  0  0  0
    7.5538   -0.7065   20.8322 C   0  0  0  0  0  0  0  0  0  0  0  0
    6.7047   -0.1055   19.7161 C   0  0  0  0  0  0  0  0  0  0  0  0
    5.5132    0.5669   20.0205 C   0  0  0  0  0  0  0  0  0  0  0  0
    4.8604    1.2718   19.0073 C   0  0  0  0  0  0  0  0  0  0  0  0
    5.4163    1.2771   17.7251 C   0  0  0  0  0  0  0  0  0  0  0  0
    6.5319    0.6060   17.3994 N   0  0  0  0  0  0  0  0  0  0  0  0
    7.1439   -0.0699   18.3797 C   0  0  0  0  0  0  0  0  0  0  0  0
    8.0463   -0.6103   18.0899 H   0  0  0  0  0  0  0  0  0  0  0  0
    4.9488    1.8469   16.9243 H   0  0  0  0  0  0  0  0  0  0  0  0
    3.9519    1.8288   19.2019 H   0  0  0  0  0  0  0  0  0  0  0  0
    5.1247    0.5518   21.0427 H   0  0  0  0  0  0  0  0  0  0  0  0
    6.9136   -1.0666   21.6458 H   0  0  0  0  0  0  0  0  0  0  0  0
    8.1522   -1.5504   20.4786 H   0  0  0  0  0  0  0  0  0  0  0  0
    8.0360    1.1162   22.4439 N   0  0  0  0  0  0  0  0  0  0  0  0
    9.0778    1.8953   22.7024 C   0  0  0  0  0  0  0  0  0  0  0  0
    9.0638    2.9568   23.7772 C   0  0  0  0  0  0  0  0  0  0  0  0
    8.9578    2.5569   25.1359 C   0  0  0  0  0  0  0  0  0  0  0  0
    8.8641    3.5031   26.1510 C   0  0  0  0  0  0  0  0  0  0  0  0
    8.8629    4.8537   25.7812 C   0  0  0  0  0  0  0  0  0  0  0  0
    8.7648    6.1276   26.4379 C   0  0  0  0  0  0  0  0  0  0  0  0
    8.8033    7.0883   25.4725 C   0  0  0  0  0  0  0  0  0  0  0  0
    8.9224    6.4831   24.2330 N   0  0  0  0  0  0  0  0  0  0  0  0
    8.9505    5.1292   24.3956 C   0  0  0  0  0  0  0  0  0  0  0  0
    9.0818    4.2571   23.4043 N   0  0  0  0  0  0  0  0  0  0  0  0
    8.8489    6.8601   23.3069 H   0  0  0  0  0  0  0  0  0  0  0  0
    8.7816    8.1665   25.5840 H   0  0  0  0  0  0  0  0  0  0  0  0
    8.6382    6.2728   27.5026 H   0  0  0  0  0  0  0  0  0  0  0  0
    8.7477    3.2105   27.1926 H   0  0  0  0  0  0  0  0  0  0  0  0
    8.8958    1.4992   25.3713 H   0  0  0  0  0  0  0  0  0  0  0  0
   11.9475    1.3874   21.0543 H   0  0  0  0  0  0  0  0  0  0  0  0
   12.5593    3.6728   21.2800 H   0  0  0  0  0  0  0  0  0  0  0  0
   10.9655    3.9175   21.9950 H   0  0  0  0  0  0  0  0  0  0  0  0
   13.5365    3.7907   23.4434 H   0  0  0  0  0  0  0  0  0  0  0  0
   11.9470    4.3056   24.0570 H   0  0  0  0  0  0  0  0  0  0  0  0
   13.9333    0.3539   21.9733 H   0  0  0  0  0  0  0  0  0  0  0  0
   14.3144    0.4847   23.7011 H   0  0  0  0  0  0  0  0  0  0  0  0
   14.3735    1.9202   22.7003 H   0  0  0  0  0  0  0  0  0  0  0  0
  1  2  1  0
  2  3  1  0
  3  4  1  0
  3  5  1  0
  3  6  1  0
  2  7  1  0
  7  8  1  0
  8  9  1  0
  9 10  1  0
 10 11  1  0
 11 12  1  0
 12 13  2  0
 13 14  1  0
 14 15  1  0
 15 16  2  0
 16 17  1  0
 17 18  2  0
 18 19  1  0
 19 20  2  0
 20 21  1  0
 18 22  1  0
 17 23  1  0
 16 24  1  0
 14 25  1  0
 14 26  1  0
 13 27  1  0
 27 28  2  0
 28 29  1  0
 29 30  2  0
 30 31  1  0
 31 32  2  0
 32 33  1  0
 33 34  2  0
 34 35  1  0
 35 36  1  0
 36 37  2  0
 35 38  1  0
 34 39  1  0
 33 40  1  0
 31 41  1  0
 30 42  1  0
 10 43  1  0
  9 44  1  0
  9 45  1  0
  8 46  1  0
  8 47  1  0
  1 48  1  0
  1 49  1  0
  1 50  1  0
 10  2  1  0
 28 11  1  0
 37 29  1  0
 20 15  1  0
 36 32  1  0
M  END
>  <cnnaffinity>  (1) 
-6.00258

>  <filename>  (1) 
[H]c1nc([H])c(C([H])([H])c2nc(-c3nc4c(c([H])c3[H])c([H])c([H])n4[H])n(C3([H])C([H])([H])C([H])([H])OC3(C([H])([H])[H])C([H])([H])[H])n2)c([H])c1[H]

$$$$
