
     RDKit          3D

 41 44  0  0  0  0  0  0  0  0999 V2000
    5.0173    1.7281   16.8836 H   0  0  0  0  0  0  0  0  0  0  0  0
    5.4381    1.2548   17.7671 C   0  0  0  0  0  0  0  0  0  0  0  0
    6.6128    0.6311   17.5995 N   0  0  0  0  0  0  0  0  0  0  0  0
    7.1669    0.0687   18.6846 C   0  0  0  0  0  0  0  0  0  0  0  0
    8.1309   -0.4153   18.5221 H   0  0  0  0  0  0  0  0  0  0  0  0
    6.5872    0.0832   19.9623 C   0  0  0  0  0  0  0  0  0  0  0  0
    7.2608   -0.6503   21.1082 C   0  0  2  0  0  0  0  0  0  0  0  0
    6.8574   -0.2885   22.0699 H   0  0  0  0  0  0  0  0  0  0  0  0
    8.7260   -0.4746   21.0924 N   0  0  0  0  0  0  0  0  0  0  0  0
    9.2902    0.8466   21.0292 C   0  0  0  0  0  0  0  0  0  0  0  0
   10.3726    0.7571   20.8616 H   0  0  0  0  0  0  0  0  0  0  0  0
    8.8648    1.3978   20.1879 H   0  0  0  0  0  0  0  0  0  0  0  0
    9.0654    1.6370   22.2094 N   0  0  0  0  0  0  0  0  0  0  0  0
    9.7205    1.3750   23.4060 C   0  0  0  0  0  0  0  0  0  0  0  0
   10.7293    0.7121   23.4884 O   0  0  0  0  0  0  0  0  0  0  0  0
    8.9359    2.0579   24.4824 C   0  0  0  0  0  0  0  0  0  0  0  0
    9.1362    2.1606   25.8655 C   0  0  0  0  0  0  0  0  0  0  0  0
    9.9813    1.6726   26.3495 H   0  0  0  0  0  0  0  0  0  0  0  0
    8.2082    2.9093   26.6027 C   0  0  0  0  0  0  0  0  0  0  0  0
    8.3051    3.0223   27.6796 H   0  0  0  0  0  0  0  0  0  0  0  0
    7.1198    3.5474   25.9736 C   0  0  0  0  0  0  0  0  0  0  0  0
    6.4386    4.1389   26.5820 H   0  0  0  0  0  0  0  0  0  0  0  0
    6.9203    3.4257   24.5962 C   0  0  0  0  0  0  0  0  0  0  0  0
    6.0952    3.9270   24.1003 H   0  0  0  0  0  0  0  0  0  0  0  0
    7.8260    2.6471   23.8724 C   0  0  0  0  0  0  0  0  0  0  0  0
    7.8456    2.2607   22.4334 C   0  0  0  0  0  0  0  0  0  0  0  0
    6.9904    2.3902   21.5935 O   0  0  0  0  0  0  0  0  0  0  0  0
    9.4356   -1.4184   21.9640 C   0  0  0  0  0  0  0  0  0  0  0  0
    9.2373   -1.2365   23.0316 H   0  0  0  0  0  0  0  0  0  0  0  0
   10.5173   -1.3288   21.8101 H   0  0  0  0  0  0  0  0  0  0  0  0
    9.0204   -2.8478   21.6442 C   0  0  0  0  0  0  0  0  0  0  0  0
    9.5083   -3.5288   22.3434 H   0  0  0  0  0  0  0  0  0  0  0  0
    9.3435   -3.1087   20.6276 H   0  0  0  0  0  0  0  0  0  0  0  0
    7.6272   -3.0403   21.8112 O   0  0  0  0  0  0  0  0  0  0  0  0
    6.8662   -2.1596   21.0022 C   0  0  0  0  0  0  0  0  0  0  0  0
    5.8338   -2.2626   21.3386 H   0  0  0  0  0  0  0  0  0  0  0  0
    6.9002   -2.4768   19.9521 H   0  0  0  0  0  0  0  0  0  0  0  0
    5.3390    0.6995   20.1079 C   0  0  0  0  0  0  0  0  0  0  0  0
    4.8584    0.7708   21.0847 H   0  0  0  0  0  0  0  0  0  0  0  0
    4.7592    1.3046   18.9896 C   0  0  0  0  0  0  0  0  0  0  0  0
    3.8160    1.8361   19.0597 H   0  0  0  0  0  0  0  0  0  0  0  0
  1  2  1  0
  2  3  2  0
  3  4  1  0
  4  5  1  0
  4  6  2  0
  6  7  1  0
  7  8  1  1
  7  9  1  0
  9 10  1  0
 10 11  1  0
 10 12  1  0
 10 13  1  0
 13 14  1  0
 14 15  2  0
 14 16  1  0
 16 17  2  0
 17 18  1  0
 17 19  1  0
 19 20  1  0
 19 21  2  0
 21 22  1  0
 21 23  1  0
 23 24  1  0
 23 25  2  0
 25 26  1  0
 26 27  2  0
  9 28  1  0
 28 29  1  0
 28 30  1  0
 28 31  1  0
 31 32  1  0
 31 33  1  0
 31 34  1  0
 34 35  1  0
 35 36  1  0
 35 37  1  0
  6 38  1  0
 38 39  1  0
 38 40  2  0
 40 41  1  0
 40  2  1  0
 35  7  1  0
 26 13  1  0
 25 16  1  0
M  END
>  <cnnaffinity>  (1) 
-4.90878

>  <filename>  (1) 
[H]c1nc([H])c([C@]2([H])N(C([H])([H])N3C(=O)c4c([H])c([H])c([H])c([H])c4C3=O)C([H])([H])C([H])([H])OC2([H])[H])c([H])c1[H]

$$$$
