
     RDKit          3D

 31 34  0  0  0  0  0  0  0  0999 V2000
    4.8727    1.9541   16.8247 H   0  0  0  0  0  0  0  0  0  0  0  0
    5.3647    1.4064   17.6241 C   0  0  0  0  0  0  0  0  0  0  0  0
    6.5068    0.7875   17.2901 N   0  0  0  0  0  0  0  0  0  0  0  0
    7.1557    0.1261   18.2513 C   0  0  0  0  0  0  0  0  0  0  0  0
    8.0728   -0.3653   17.9257 H   0  0  0  0  0  0  0  0  0  0  0  0
    6.7127    0.0466   19.5812 C   0  0  0  0  0  0  0  0  0  0  0  0
    7.4815   -0.6802   20.5998 C   0  0  0  0  0  0  0  0  0  0  0  0
    6.9928   -0.7722   21.8878 N   0  0  0  0  0  0  0  0  0  0  0  0
    7.8642   -1.4694   22.5433 C   0  0  0  0  0  0  0  0  0  0  0  0
    7.8014   -1.8291   23.9622 C   0  0  0  0  0  0  0  0  0  0  0  0
    6.7708   -1.3153   24.7640 C   0  0  0  0  0  0  0  0  0  0  0  0
    5.9872   -0.7253   24.2984 H   0  0  0  0  0  0  0  0  0  0  0  0
    6.7521   -1.5345   26.1510 C   0  0  0  0  0  0  0  0  0  0  0  0
    5.9620   -1.0914   26.7543 H   0  0  0  0  0  0  0  0  0  0  0  0
    7.7252   -2.3122   26.7700 C   0  0  0  0  0  0  0  0  0  0  0  0
    7.7445   -2.4220   27.8436 H   0  0  0  0  0  0  0  0  0  0  0  0
    8.6933   -2.9211   25.9552 C   0  0  0  0  0  0  0  0  0  0  0  0
    8.7743   -2.6687   24.5620 C   0  0  0  0  0  0  0  0  0  0  0  0
    9.8900   -3.4253   24.0684 C   0  0  0  0  0  0  0  0  0  0  0  0
   10.2537   -3.3808   23.0552 H   0  0  0  0  0  0  0  0  0  0  0  0
   10.3992   -4.1255   25.1175 C   0  0  0  0  0  0  0  0  0  0  0  0
   11.2142   -4.8367   25.1426 H   0  0  0  0  0  0  0  0  0  0  0  0
    9.6907   -3.8200   26.2584 N   0  0  0  0  0  0  0  0  0  0  0  0
    9.8882   -4.2028   27.1657 H   0  0  0  0  0  0  0  0  0  0  0  0
    8.9233   -1.8563   21.7848 O   0  0  0  0  0  0  0  0  0  0  0  0
    8.6614   -1.3412   20.5518 C   0  0  0  0  0  0  0  0  0  0  0  0
    9.3799   -1.5371   19.7776 H   0  0  0  0  0  0  0  0  0  0  0  0
    5.4992    0.6785   19.9081 C   0  0  0  0  0  0  0  0  0  0  0  0
    5.1281    0.6200   20.9330 H   0  0  0  0  0  0  0  0  0  0  0  0
    4.8146    1.3675   18.9109 C   0  0  0  0  0  0  0  0  0  0  0  0
    3.8775    1.8767   19.1133 H   0  0  0  0  0  0  0  0  0  0  0  0
  1  2  1  0
  2  3  2  0
  3  4  1  0
  4  5  1  0
  4  6  2  0
  6  7  1  0
  7  8  1  0
  8  9  2  0
  9 10  1  0
 10 11  2  0
 11 12  1  0
 11 13  1  0
 13 14  1  0
 13 15  2  0
 15 16  1  0
 15 17  1  0
 17 18  2  0
 18 19  1  0
 19 20  1  0
 19 21  2  0
 21 22  1  0
 21 23  1  0
 23 24  1  0
  9 25  1  0
 25 26  1  0
 26 27  1  0
  6 28  1  0
 28 29  1  0
 28 30  2  0
 30 31  1  0
 30  2  1  0
 26  7  2  0
 18 10  1  0
 23 17  1  0
M  END
>  <cnnaffinity>  (1) 
-4.83038

>  <filename>  (1) 
[H]c1nc([H])c(-c2nc(-c3c([H])c([H])c([H])c4c3c([H])c([H])n4[H])oc2[H])c([H])c1[H]

$$$$
