
     RDKit          3D

 33 35  0  0  0  0  0  0  0  0999 V2000
   10.0896   -2.5984   21.7505 O   0  0  0  0  0  0  0  0  0  0  0  0
    8.9627   -2.1752   21.9483 C   0  0  0  0  0  0  0  0  0  0  0  0
    8.3205   -1.3755   20.8829 C   0  0  0  0  0  0  0  0  0  0  0  0
    7.2769   -0.5472   21.0247 C   0  0  0  0  0  0  0  0  0  0  0  0
    6.5895    0.1039   19.9068 C   0  0  0  0  0  0  0  0  0  0  0  0
    5.3653    0.7613   20.1138 C   0  0  0  0  0  0  0  0  0  0  0  0
    4.7478    1.3768   19.0266 C   0  0  0  0  0  0  0  0  0  0  0  0
    5.3729    1.3251   17.7749 C   0  0  0  0  0  0  0  0  0  0  0  0
    6.5311    0.6838   17.5519 N   0  0  0  0  0  0  0  0  0  0  0  0
    7.1078    0.0897   18.5991 C   0  0  0  0  0  0  0  0  0  0  0  0
    8.0468   -0.4227   18.3969 H   0  0  0  0  0  0  0  0  0  0  0  0
    4.9297    1.8201   16.9137 H   0  0  0  0  0  0  0  0  0  0  0  0
    3.8083    1.9066   19.1347 H   0  0  0  0  0  0  0  0  0  0  0  0
    4.9152    0.7899   21.1086 H   0  0  0  0  0  0  0  0  0  0  0  0
    6.8614   -0.3231   22.0096 H   0  0  0  0  0  0  0  0  0  0  0  0
    8.8230   -1.5152   19.9333 H   0  0  0  0  0  0  0  0  0  0  0  0
    8.2589   -2.4113   23.2725 C   0  0  0  0  0  0  0  0  0  0  0  0
    9.1341   -2.3988   24.4108 C   0  0  0  0  0  0  0  0  0  0  0  0
    8.6231   -2.3896   25.6761 C   0  0  0  0  0  0  0  0  0  0  0  0
    7.2102   -2.4626   25.8838 C   0  0  0  0  0  0  0  0  0  0  0  0
    6.6937   -2.3748   27.1974 C   0  0  0  0  0  0  0  0  0  0  0  0
    5.3566   -2.5621   27.4578 C   0  0  0  0  0  0  0  0  0  0  0  0
    4.4574   -2.7556   26.3672 C   0  0  0  0  0  0  0  0  0  0  0  0
    4.9189   -2.7617   25.0667 C   0  0  0  0  0  0  0  0  0  0  0  0
    6.3176   -2.6156   24.7766 C   0  0  0  0  0  0  0  0  0  0  0  0
    6.8845   -2.5714   23.4547 C   0  0  0  0  0  0  0  0  0  0  0  0
    6.1992   -2.6310   22.6072 H   0  0  0  0  0  0  0  0  0  0  0  0
    4.2191   -2.8834   24.2420 H   0  0  0  0  0  0  0  0  0  0  0  0
    3.3949   -2.8762   26.5799 H   0  0  0  0  0  0  0  0  0  0  0  0
    4.9908   -2.5696   28.4812 H   0  0  0  0  0  0  0  0  0  0  0  0
    7.4217   -2.0963   27.9487 H   0  0  0  0  0  0  0  0  0  0  0  0
    9.2747   -2.3120   26.5464 H   0  0  0  0  0  0  0  0  0  0  0  0
   10.2100   -2.3673   24.2397 H   0  0  0  0  0  0  0  0  0  0  0  0
  1  2  2  0
  2  3  1  0
  3  4  2  3
  4  5  1  0
  5  6  2  0
  6  7  1  0
  7  8  2  0
  8  9  1  0
  9 10  2  0
 10 11  1  0
  8 12  1  0
  7 13  1  0
  6 14  1  0
  4 15  1  0
  3 16  1  0
  2 17  1  0
 17 18  2  0
 18 19  1  0
 19 20  2  0
 20 21  1  0
 21 22  2  0
 22 23  1  0
 23 24  2  0
 24 25  1  0
 25 26  2  0
 26 27  1  0
 24 28  1  0
 23 29  1  0
 22 30  1  0
 21 31  1  0
 19 32  1  0
 18 33  1  0
 10  5  1  0
 26 17  1  0
 25 20  1  0
M  END
>  <cnnaffinity>  (1) 
-5.12683

>  <filename>  (1) 
[H]C(C(=O)c1c([H])c([H])c2c([H])c([H])c([H])c([H])c2c1[H])=C([H])c1c([H])nc([H])c([H])c1[H]

$$$$
