
     RDKit          3D

 48 52  0  0  0  0  0  0  0  0999 V2000
    6.6695    5.6131   26.6878 F   0  0  0  0  0  0  0  0  0  0  0  0
    7.0230    4.6264   25.8061 C   0  0  0  0  0  0  0  0  0  0  0  0
    8.3961    4.6980   25.7158 F   0  0  0  0  0  0  0  0  0  0  0  0
    6.6090    3.2597   26.3650 C   0  0  0  0  0  0  0  0  0  0  0  0
    6.5663    2.1199   25.2983 C   0  0  0  0  0  0  0  0  0  0  0  0
    7.2918    2.5357   24.0024 C   0  0  0  0  0  0  0  0  0  0  0  0
    7.4297    1.4513   23.0154 N   0  0  0  0  0  0  0  0  0  0  0  0
    6.3610    0.7744   22.5159 N   0  0  0  0  0  0  0  0  0  0  0  0
    6.9086   -0.0319   21.6217 C   0  0  0  0  0  0  0  0  0  0  0  0
    6.1454   -0.9158   20.6758 C   0  0  0  0  0  0  0  0  0  0  0  0
    5.8316   -0.1690   19.3809 C   0  0  0  0  0  0  0  0  0  0  0  0
    4.8849    0.8618   19.4325 C   0  0  0  0  0  0  0  0  0  0  0  0
    4.6191    1.5972   18.2811 C   0  0  0  0  0  0  0  0  0  0  0  0
    5.3333    1.3010   17.1198 C   0  0  0  0  0  0  0  0  0  0  0  0
    6.2787    0.3506   17.0548 N   0  0  0  0  0  0  0  0  0  0  0  0
    6.5181   -0.3589   18.1665 C   0  0  0  0  0  0  0  0  0  0  0  0
    7.2922   -1.1251   18.0780 H   0  0  0  0  0  0  0  0  0  0  0  0
    5.1227    1.8549   16.2079 H   0  0  0  0  0  0  0  0  0  0  0  0
    3.8925    2.4030   18.2764 H   0  0  0  0  0  0  0  0  0  0  0  0
    4.3849    1.0818   20.3761 H   0  0  0  0  0  0  0  0  0  0  0  0
    6.7603   -1.8018   20.4913 H   0  0  0  0  0  0  0  0  0  0  0  0
    5.2268   -1.2457   21.1714 H   0  0  0  0  0  0  0  0  0  0  0  0
    8.2534    0.0598   21.5284 N   0  0  0  0  0  0  0  0  0  0  0  0
    8.5596    1.0075   22.4013 C   0  0  0  0  0  0  0  0  0  0  0  0
    9.9424    1.4612   22.6819 C   0  0  0  0  0  0  0  0  0  0  0  0
   10.3126    2.8438   22.7401 C   0  0  0  0  0  0  0  0  0  0  0  0
   11.6181    3.2505   22.9573 C   0  0  0  0  0  0  0  0  0  0  0  0
   12.5860    2.2303   23.0189 C   0  0  0  0  0  0  0  0  0  0  0  0
   13.9379    2.2117   23.0748 N   0  0  0  0  0  0  0  0  0  0  0  0
   14.4079    0.9477   23.0781 N   0  0  0  0  0  0  0  0  0  0  0  0
   13.4189    0.1346   23.0418 N   0  0  0  0  0  0  0  0  0  0  0  0
   12.2519    0.8704   22.9864 C   0  0  0  0  0  0  0  0  0  0  0  0
   10.9159    0.4718   22.8179 C   0  0  0  0  0  0  0  0  0  0  0  0
   10.6553   -0.5800   22.8066 H   0  0  0  0  0  0  0  0  0  0  0  0
   14.6028    2.9665   23.0477 H   0  0  0  0  0  0  0  0  0  0  0  0
   11.8811    4.2890   23.1008 H   0  0  0  0  0  0  0  0  0  0  0  0
    9.5616    3.6117   22.5680 H   0  0  0  0  0  0  0  0  0  0  0  0
    6.6137    3.7884   23.4003 C   0  0  0  0  0  0  0  0  0  0  0  0
    6.4092    4.9237   24.4425 C   0  0  0  0  0  0  0  0  0  0  0  0
    6.8114    5.8802   24.0927 H   0  0  0  0  0  0  0  0  0  0  0  0
    5.3421    5.0771   24.6320 H   0  0  0  0  0  0  0  0  0  0  0  0
    7.2149    4.1517   22.5591 H   0  0  0  0  0  0  0  0  0  0  0  0
    5.6490    3.4824   22.9782 H   0  0  0  0  0  0  0  0  0  0  0  0
    8.3120    2.7880   24.2888 H   0  0  0  0  0  0  0  0  0  0  0  0
    5.5294    1.8626   25.0509 H   0  0  0  0  0  0  0  0  0  0  0  0
    7.0326    1.2125   25.6932 H   0  0  0  0  0  0  0  0  0  0  0  0
    7.3059    3.0262   27.1766 H   0  0  0  0  0  0  0  0  0  0  0  0
    5.6217    3.4021   26.8196 H   0  0  0  0  0  0  0  0  0  0  0  0
  1  2  1  0
  2  3  1  0
  2  4  1  0
  4  5  1  0
  5  6  1  0
  6  7  1  0
  7  8  1  0
  8  9  2  0
  9 10  1  0
 10 11  1  0
 11 12  2  0
 12 13  1  0
 13 14  2  0
 14 15  1  0
 15 16  2  0
 16 17  1  0
 14 18  1  0
 13 19  1  0
 12 20  1  0
 10 21  1  0
 10 22  1  0
  9 23  1  0
 23 24  2  0
 24 25  1  0
 25 26  2  0
 26 27  1  0
 27 28  2  0
 28 29  1  0
 29 30  1  0
 30 31  2  0
 31 32  1  0
 32 33  2  0
 33 34  1  0
 29 35  1  0
 27 36  1  0
 26 37  1  0
  6 38  1  0
 38 39  1  0
 39 40  1  0
 39 41  1  0
 38 42  1  0
 38 43  1  0
  6 44  1  0
  5 45  1  0
  5 46  1  0
  4 47  1  0
  4 48  1  0
 39  2  1  0
 24  7  1  0
 33 25  1  0
 16 11  1  0
 32 28  1  0
M  END
>  <cnnaffinity>  (1) 
-6.56617

>  <filename>  (1) 
[H]c1nc([H])c(C([H])([H])c2nc(-c3c([H])c([H])c4c(nnn4[H])c3[H])n(C3([H])C([H])([H])C([H])([H])C(F)(F)C([H])([H])C3([H])[H])n2)c([H])c1[H]

$$$$
