
     RDKit          3D

 49 55  0  0  0  0  0  0  0  0999 V2000
    4.8164    1.3118   19.0422 C   0  0  0  0  0  0  0  0  0  0  0  0
    5.4067    1.2971   17.7750 C   0  0  0  0  0  0  0  0  0  0  0  0
    6.5452    0.6430   17.4949 N   0  0  0  0  0  0  0  0  0  0  0  0
    7.1428   -0.0050   18.5030 C   0  0  0  0  0  0  0  0  0  0  0  0
    6.6601   -0.0322   19.8225 C   0  0  0  0  0  0  0  0  0  0  0  0
    7.4291   -0.6780   20.9704 C   0  0  0  0  0  0  0  0  0  0  0  0
    8.2827    0.2960   21.7380 C   0  0  0  0  0  0  0  0  0  0  0  0
    9.5392    0.5486   21.4105 N   0  0  0  0  0  0  0  0  0  0  0  0
    9.8640    1.5786   22.2403 N   0  0  0  0  0  0  0  0  0  0  0  0
   11.1414    2.2037   22.2543 C   0  0  0  0  0  0  0  0  0  0  0  0
   11.3120    3.5896   22.2871 C   0  0  0  0  0  0  0  0  0  0  0  0
   12.5957    4.1620   22.4493 C   0  0  0  0  0  0  0  0  0  0  0  0
   13.7187    3.3723   22.6749 C   0  0  0  0  0  0  0  0  0  0  0  0
   13.5591    1.9683   22.6548 C   0  0  0  0  0  0  0  0  0  0  0  0
   12.2974    1.4179   22.3624 C   0  0  0  0  0  0  0  0  0  0  0  0
   12.5048    0.0632   22.2940 N   0  0  0  0  0  0  0  0  0  0  0  0
   13.8247   -0.1503   22.5583 C   0  0  0  0  0  0  0  0  0  0  0  0
   14.4935    0.9450   22.7847 N   0  0  0  0  0  0  0  0  0  0  0  0
   14.2249   -1.1548   22.6010 H   0  0  0  0  0  0  0  0  0  0  0  0
   11.8077   -0.5779   21.9495 H   0  0  0  0  0  0  0  0  0  0  0  0
   14.7035    3.8103   22.8082 H   0  0  0  0  0  0  0  0  0  0  0  0
   12.6956    5.2408   22.4169 H   0  0  0  0  0  0  0  0  0  0  0  0
   10.4478    4.2406   22.2178 H   0  0  0  0  0  0  0  0  0  0  0  0
    8.8183    1.8222   23.0858 C   0  0  0  0  0  0  0  0  0  0  0  0
    8.8352    2.8227   24.1957 C   0  0  2  0  0  0  0  0  0  0  0  0
    8.1656    2.3629   25.5389 C   0  0  0  0  0  0  0  0  0  0  0  0
    7.0491    3.4266   25.6819 C   0  0  2  0  0  0  0  0  0  0  0  0
    6.6715    3.6273   24.3228 O   0  0  0  0  0  0  0  0  0  0  0  0
    7.9400    4.0514   23.8439 C   0  0  1  0  0  0  0  0  0  0  0  0
    8.3378    5.1884   24.7904 C   0  0  1  0  0  0  0  0  0  0  0  0
    7.2418    6.0179   25.4068 C   0  0  0  0  0  0  0  0  0  0  0  0
    7.7126    4.7556   26.0829 C   0  0  1  0  0  0  0  0  0  0  0  0
    8.2690    4.7984   27.0162 H   0  0  0  0  0  0  0  0  0  0  0  0
    6.2646    6.0339   24.9285 H   0  0  0  0  0  0  0  0  0  0  0  0
    7.5266    6.9640   25.8620 H   0  0  0  0  0  0  0  0  0  0  0  0
    9.3598    5.5611   24.7525 H   0  0  0  0  0  0  0  0  0  0  0  0
    7.8585    4.3132   22.7845 H   0  0  0  0  0  0  0  0  0  0  0  0
    6.1720    3.1255   26.2601 H   0  0  0  0  0  0  0  0  0  0  0  0
    8.8604    2.3617   26.3859 H   0  0  0  0  0  0  0  0  0  0  0  0
    7.7227    1.3639   25.4553 H   0  0  0  0  0  0  0  0  0  0  0  0
    9.8692    3.1255   24.3690 H   0  0  0  0  0  0  0  0  0  0  0  0
    7.8058    1.0394   22.7686 N   0  0  0  0  0  0  0  0  0  0  0  0
    8.0786   -1.4764   20.5976 H   0  0  0  0  0  0  0  0  0  0  0  0
    6.7193   -1.1228   21.6770 H   0  0  0  0  0  0  0  0  0  0  0  0
    5.4570    0.6355   20.0819 C   0  0  0  0  0  0  0  0  0  0  0  0
    5.0549    0.6282   21.0972 H   0  0  0  0  0  0  0  0  0  0  0  0
    8.0652   -0.5338   18.2567 H   0  0  0  0  0  0  0  0  0  0  0  0
    4.9461    1.8275   16.9440 H   0  0  0  0  0  0  0  0  0  0  0  0
    3.8914    1.8548   19.2041 H   0  0  0  0  0  0  0  0  0  0  0  0
  1  2  2  0
  2  3  1  0
  3  4  2  0
  4  5  1  0
  5  6  1  0
  6  7  1  0
  7  8  2  0
  8  9  1  0
  9 10  1  0
 10 11  2  0
 11 12  1  0
 12 13  2  0
 13 14  1  0
 14 15  2  0
 15 16  1  0
 16 17  1  0
 17 18  2  0
 17 19  1  0
 16 20  1  0
 13 21  1  0
 12 22  1  0
 11 23  1  0
  9 24  1  0
 24 25  1  0
 25 26  1  0
 26 27  1  0
 27 28  1  0
 28 29  1  0
 29 30  1  0
 30 31  1  0
 31 32  1  0
 32 33  1  1
 31 34  1  0
 31 35  1  0
 30 36  1  1
 29 37  1  6
 27 38  1  1
 26 39  1  0
 26 40  1  0
 25 41  1  1
 24 42  2  0
  6 43  1  0
  6 44  1  0
  5 45  2  0
 45 46  1  0
  4 47  1  0
  2 48  1  0
  1 49  1  0
 45  1  1  0
 42  7  1  0
 15 10  1  0
 29 25  1  0
 32 30  1  0
 18 14  1  0
 32 27  1  0
M  END
>  <cnnaffinity>  (1) 
-6.65593

>  <filename>  (1) 
[H]c1nc([H])c(C([H])([H])c2nc([C@]3([H])C([H])([H])[C@]4([H])O[C@@]3([H])[C@@]3([H])C([H])([H])[C@]34[H])n(-c3c([H])c([H])c([H])c4nc([H])n([H])c34)n2)c([H])c1[H]

$$$$
