
     RDKit          3D

 38 41  0  0  0  0  0  0  0  0999 V2000
    4.7225    1.9176   24.4698 F   0  0  0  0  0  0  0  0  0  0  0  0
    5.6319    2.8996   24.6353 C   0  0  0  0  0  0  0  0  0  0  0  0
    6.9754    2.6072   24.5348 C   0  0  0  0  0  0  0  0  0  0  0  0
    7.4296    1.2180   24.2016 C   0  0  0  0  0  0  0  0  0  0  0  0
    7.1443    0.9363   22.8068 N   0  0  0  0  0  0  0  0  0  0  0  0
    7.6170   -0.2226   22.2908 C   0  0  0  0  0  0  0  0  0  0  0  0
    8.2444   -1.1515   22.9581 N   0  0  0  0  0  0  0  0  0  0  0  0
    8.3568   -2.2442   22.1176 N   0  0  0  0  0  0  0  0  0  0  0  0
    7.8016   -1.9077   20.9978 C   0  0  0  0  0  0  0  0  0  0  0  0
    7.3587   -0.6089   20.9929 N   0  0  0  0  0  0  0  0  0  0  0  0
    6.6771    0.0635   19.9207 C   0  0  0  0  0  0  0  0  0  0  0  0
    5.4450    0.6850   20.1586 C   0  0  0  0  0  0  0  0  0  0  0  0
    4.7925    1.3155   19.0921 C   0  0  0  0  0  0  0  0  0  0  0  0
    5.3939    1.2981   17.8305 C   0  0  0  0  0  0  0  0  0  0  0  0
    6.5568    0.6770   17.5790 N   0  0  0  0  0  0  0  0  0  0  0  0
    7.1826    0.0820   18.6012 C   0  0  0  0  0  0  0  0  0  0  0  0
    8.1285   -0.4006   18.3571 H   0  0  0  0  0  0  0  0  0  0  0  0
    4.9345    1.8065   16.9858 H   0  0  0  0  0  0  0  0  0  0  0  0
    3.8523    1.8400   19.2326 H   0  0  0  0  0  0  0  0  0  0  0  0
    5.0024    0.6446   21.1528 H   0  0  0  0  0  0  0  0  0  0  0  0
    7.5586   -2.5676   20.1912 H   0  0  0  0  0  0  0  0  0  0  0  0
    7.0609    1.6865   22.1443 H   0  0  0  0  0  0  0  0  0  0  0  0
    6.9026    0.4805   24.8147 H   0  0  0  0  0  0  0  0  0  0  0  0
    8.4942    1.0766   24.4283 H   0  0  0  0  0  0  0  0  0  0  0  0
    7.9047    3.6799   24.6692 C   0  0  0  0  0  0  0  0  0  0  0  0
    7.4903    4.9653   24.9153 C   0  0  0  0  0  0  0  0  0  0  0  0
    6.0982    5.2605   25.0498 C   0  0  0  0  0  0  0  0  0  0  0  0
    5.6271    6.5761   25.3374 C   0  0  0  0  0  0  0  0  0  0  0  0
    4.2814    6.8338   25.4645 C   0  0  0  0  0  0  0  0  0  0  0  0
    3.3302    5.7850   25.3128 C   0  0  0  0  0  0  0  0  0  0  0  0
    3.7409    4.5034   25.0367 C   0  0  0  0  0  0  0  0  0  0  0  0
    5.1350    4.2064   24.9005 C   0  0  0  0  0  0  0  0  0  0  0  0
    3.0197    3.6972   24.9238 H   0  0  0  0  0  0  0  0  0  0  0  0
    2.2705    6.0097   25.4131 H   0  0  0  0  0  0  0  0  0  0  0  0
    3.9302    7.8402   25.6750 H   0  0  0  0  0  0  0  0  0  0  0  0
    6.3566    7.3738   25.4496 H   0  0  0  0  0  0  0  0  0  0  0  0
    8.2137    5.7726   25.0268 H   0  0  0  0  0  0  0  0  0  0  0  0
    8.9647    3.4634   24.5479 H   0  0  0  0  0  0  0  0  0  0  0  0
  1  2  1  0
  2  3  2  0
  3  4  1  0
  4  5  1  0
  5  6  1  0
  6  7  2  0
  7  8  1  0
  8  9  2  0
  9 10  1  0
 10 11  1  0
 11 12  2  0
 12 13  1  0
 13 14  2  0
 14 15  1  0
 15 16  2  0
 16 17  1  0
 14 18  1  0
 13 19  1  0
 12 20  1  0
  9 21  1  0
  5 22  1  0
  4 23  1  0
  4 24  1  0
  3 25  1  0
 25 26  2  0
 26 27  1  0
 27 28  2  0
 28 29  1  0
 29 30  2  0
 30 31  1  0
 31 32  2  0
 31 33  1  0
 30 34  1  0
 29 35  1  0
 28 36  1  0
 26 37  1  0
 25 38  1  0
 32  2  1  0
 10  6  1  0
 16 11  1  0
 32 27  1  0
M  END
>  <cnnaffinity>  (1) 
-5.38415

>  <filename>  (1) 
[H]c1nc([H])c(-n2c([H])nnc2N([H])C([H])([H])c2c([H])c([H])c3c([H])c([H])c([H])c([H])c3c2F)c([H])c1[H]

$$$$
