
     RDKit          3D

 40 43  0  0  0  0  0  0  0  0999 V2000
    9.5946   -1.7721   25.3812 O   0  0  0  0  0  0  0  0  0  0  0  0
    8.3966   -1.9884   25.3337 C   0  0  0  0  0  0  0  0  0  0  0  0
    7.5961   -1.5062   24.3373 N   0  0  0  0  0  0  0  0  0  0  0  0
    8.0842   -0.9385   23.0988 C   0  0  0  0  0  0  0  0  0  0  0  0
    8.6886   -1.9478   22.1164 C   0  0  0  0  0  0  0  0  0  0  0  0
    8.5778   -1.2546   20.7545 C   0  0  0  0  0  0  0  0  0  0  0  0
    7.5200   -0.2559   20.9200 N   0  0  0  0  0  0  0  0  0  0  0  0
    6.7621    0.2164   19.8536 C   0  0  0  0  0  0  0  0  0  0  0  0
    5.4971    0.8135   20.0638 C   0  0  0  0  0  0  0  0  0  0  0  0
    4.8033    1.3639   18.9840 C   0  0  0  0  0  0  0  0  0  0  0  0
    5.3654    1.3030   17.7048 C   0  0  0  0  0  0  0  0  0  0  0  0
    6.5369    0.6981   17.4544 N   0  0  0  0  0  0  0  0  0  0  0  0
    7.2022    0.1737   18.4952 C   0  0  0  0  0  0  0  0  0  0  0  0
    8.1449   -0.3086   18.2501 H   0  0  0  0  0  0  0  0  0  0  0  0
    4.8573    1.7473   16.8527 H   0  0  0  0  0  0  0  0  0  0  0  0
    3.8438    1.8515   19.1333 H   0  0  0  0  0  0  0  0  0  0  0  0
    5.0738    0.8417   21.0649 H   0  0  0  0  0  0  0  0  0  0  0  0
    6.9609   -0.3287   22.2634 C   0  0  0  0  0  0  0  0  0  0  0  0
    6.0874   -1.0055   22.2888 H   0  0  0  0  0  0  0  0  0  0  0  0
    6.6467    0.6543   22.6278 H   0  0  0  0  0  0  0  0  0  0  0  0
    8.2787   -1.9569   19.9813 H   0  0  0  0  0  0  0  0  0  0  0  0
    9.5148   -0.7901   20.4227 H   0  0  0  0  0  0  0  0  0  0  0  0
    9.7056   -2.2307   22.3894 H   0  0  0  0  0  0  0  0  0  0  0  0
    8.0827   -2.8626   22.1180 H   0  0  0  0  0  0  0  0  0  0  0  0
    8.8271   -0.1678   23.3310 H   0  0  0  0  0  0  0  0  0  0  0  0
    6.6689   -1.8944   24.3458 H   0  0  0  0  0  0  0  0  0  0  0  0
    7.6215   -2.8466   26.2966 C   0  0  0  0  0  0  0  0  0  0  0  0
    6.4174   -2.4109   26.8611 C   0  0  0  0  0  0  0  0  0  0  0  0
    5.7130   -3.2164   27.7715 C   0  0  0  0  0  0  0  0  0  0  0  0
    6.1599   -4.4981   28.0767 C   0  0  0  0  0  0  0  0  0  0  0  0
    7.3574   -4.9448   27.4943 C   0  0  0  0  0  0  0  0  0  0  0  0
    8.1099   -4.1408   26.6121 C   0  0  0  0  0  0  0  0  0  0  0  0
    9.2573   -4.8408   26.0970 C   0  0  0  0  0  0  0  0  0  0  0  0
    9.3396   -6.1072   26.5579 C   0  0  0  0  0  0  0  0  0  0  0  0
    8.0960   -6.4934   27.7104 S   0  0  0  0  0  0  0  0  0  0  0  0
   10.0430   -6.8807   26.2694 H   0  0  0  0  0  0  0  0  0  0  0  0
    9.9834   -4.3622   25.4465 H   0  0  0  0  0  0  0  0  0  0  0  0
    5.6054   -5.1349   28.7553 H   0  0  0  0  0  0  0  0  0  0  0  0
    4.8013   -2.8457   28.2276 H   0  0  0  0  0  0  0  0  0  0  0  0
    6.0209   -1.4305   26.6062 H   0  0  0  0  0  0  0  0  0  0  0  0
  1  2  2  0
  2  3  1  0
  3  4  1  0
  4  5  1  0
  5  6  1  0
  6  7  1  0
  7  8  1  0
  8  9  2  0
  9 10  1  0
 10 11  2  0
 11 12  1  0
 12 13  2  0
 13 14  1  0
 11 15  1  0
 10 16  1  0
  9 17  1  0
  7 18  1  0
 18 19  1  0
 18 20  1  0
  6 21  1  0
  6 22  1  0
  5 23  1  0
  5 24  1  0
  4 25  1  0
  3 26  1  0
  2 27  1  0
 27 28  2  0
 28 29  1  0
 29 30  2  0
 30 31  1  0
 31 32  2  0
 32 33  1  0
 33 34  2  0
 34 35  1  0
 34 36  1  0
 33 37  1  0
 30 38  1  0
 29 39  1  0
 28 40  1  0
 18  4  1  0
 32 27  1  0
 13  8  1  0
 35 31  1  0
M  END
>  <cnnaffinity>  (1) 
-4.95494

>  <filename>  (1) 
[H]c1nc([H])c(N2C([H])([H])C([H])([H])C([H])(N([H])C(=O)c3c([H])c([H])c([H])c4sc([H])c([H])c34)C2([H])[H])c([H])c1[H]

$$$$
