
     RDKit          3D

 30 32  0  0  0  0  0  0  0  0999 V2000
    7.7117   -2.7165   23.6081 H   0  0  0  0  0  0  0  0  0  0  0  0
    7.8300   -2.0928   22.7312 C   0  0  0  0  0  0  0  0  0  0  0  0
    8.9967   -1.7571   22.1812 C   0  0  0  0  0  0  0  0  0  0  0  0
   10.3580   -2.0861   22.7260 C   0  0  0  0  0  0  0  0  0  0  0  0
   11.0872   -2.1448   21.9098 H   0  0  0  0  0  0  0  0  0  0  0  0
   10.3405   -3.0684   23.2166 H   0  0  0  0  0  0  0  0  0  0  0  0
   10.8131   -1.0445   23.7096 C   0  0  0  0  0  0  0  0  0  0  0  0
   10.5113   -1.0863   25.0459 N   0  0  0  0  0  0  0  0  0  0  0  0
   11.0176    0.0035   25.5686 C   0  0  0  0  0  0  0  0  0  0  0  0
   10.9812    0.2798   26.6203 H   0  0  0  0  0  0  0  0  0  0  0  0
   11.6209    0.7633   24.6144 N   0  0  0  0  0  0  0  0  0  0  0  0
   12.0596    1.6550   24.7625 H   0  0  0  0  0  0  0  0  0  0  0  0
   11.4878    0.1041   23.4176 C   0  0  0  0  0  0  0  0  0  0  0  0
   11.8319    0.4726   22.4615 H   0  0  0  0  0  0  0  0  0  0  0  0
    8.7679   -0.8099   21.0608 C   0  0  0  0  0  0  0  0  0  0  0  0
    9.5924   -0.2324   20.3775 O   0  0  0  0  0  0  0  0  0  0  0  0
    7.3730   -0.6969   20.9496 N   0  0  0  0  0  0  0  0  0  0  0  0
    6.6836   -0.0006   19.9186 C   0  0  0  0  0  0  0  0  0  0  0  0
    7.1836    0.0608   18.5935 C   0  0  0  0  0  0  0  0  0  0  0  0
    8.1274   -0.4242   18.3726 H   0  0  0  0  0  0  0  0  0  0  0  0
    6.5635    0.6748   17.5789 N   0  0  0  0  0  0  0  0  0  0  0  0
    5.4005    1.2928   17.8428 C   0  0  0  0  0  0  0  0  0  0  0  0
    4.9107    1.7786   16.9994 H   0  0  0  0  0  0  0  0  0  0  0  0
    4.8142    1.3050   19.1144 C   0  0  0  0  0  0  0  0  0  0  0  0
    3.8782    1.8398   19.2669 H   0  0  0  0  0  0  0  0  0  0  0  0
    5.4546    0.6391   20.1681 C   0  0  0  0  0  0  0  0  0  0  0  0
    5.0152    0.6242   21.1661 H   0  0  0  0  0  0  0  0  0  0  0  0
    6.6955   -1.4545   22.0010 C   0  0  0  0  0  0  0  0  0  0  0  0
    6.0112   -2.2039   21.5857 H   0  0  0  0  0  0  0  0  0  0  0  0
    6.1246   -0.7970   22.6674 H   0  0  0  0  0  0  0  0  0  0  0  0
  1  2  1  0
  2  3  2  0
  3  4  1  0
  4  5  1  0
  4  6  1  0
  4  7  1  0
  7  8  1  0
  8  9  2  0
  9 10  1  0
  9 11  1  0
 11 12  1  0
 11 13  1  0
 13 14  1  0
  3 15  1  0
 15 16  2  0
 15 17  1  0
 17 18  1  0
 18 19  2  0
 19 20  1  0
 19 21  1  0
 21 22  2  0
 22 23  1  0
 22 24  1  0
 24 25  1  0
 24 26  2  0
 26 27  1  0
 17 28  1  0
 28 29  1  0
 28 30  1  0
 28  2  1  0
 13  7  2  0
 26 18  1  0
M  END
>  <cnnaffinity>  (1) 
-4.91926

>  <filename>  (1) 
[H]C1=C(C([H])([H])c2nc([H])n([H])c2[H])C(=O)N(c2c([H])nc([H])c([H])c2[H])C1([H])[H]

$$$$
