
     RDKit          3D

 32 34  0  0  0  0  0  0  0  0999 V2000
    4.9412    1.8413   16.9878 H   0  0  0  0  0  0  0  0  0  0  0  0
    5.4210    1.3305   17.8203 C   0  0  0  0  0  0  0  0  0  0  0  0
    6.5734    0.6992   17.5438 N   0  0  0  0  0  0  0  0  0  0  0  0
    7.1676    0.0371   18.5467 C   0  0  0  0  0  0  0  0  0  0  0  0
    8.0953   -0.4854   18.3086 H   0  0  0  0  0  0  0  0  0  0  0  0
    6.6641   -0.0365   19.8638 C   0  0  0  0  0  0  0  0  0  0  0  0
    7.3556   -0.7985   20.8429 N   0  0  0  0  0  0  0  0  0  0  0  0
    6.5862   -1.5495   21.7205 N   0  0  0  0  0  0  0  0  0  0  0  0
    6.6540   -1.3787   22.7197 H   0  0  0  0  0  0  0  0  0  0  0  0
    5.8470   -2.6297   21.3043 C   0  0  0  0  0  0  0  0  0  0  0  0
    5.7117   -2.9718   20.1471 O   0  0  0  0  0  0  0  0  0  0  0  0
    5.1263   -3.3524   22.4518 C   0  0  0  0  0  0  0  0  0  0  0  0
    5.2477   -3.2353   23.7378 N   0  0  0  0  0  0  0  0  0  0  0  0
    4.2378   -4.0470   24.2555 C   0  0  0  0  0  0  0  0  0  0  0  0
    3.7867   -4.2886   25.5686 C   0  0  0  0  0  0  0  0  0  0  0  0
    4.2661   -3.8032   26.4159 H   0  0  0  0  0  0  0  0  0  0  0  0
    2.6823   -5.1328   25.7287 C   0  0  0  0  0  0  0  0  0  0  0  0
    2.3262   -5.3430   26.7352 H   0  0  0  0  0  0  0  0  0  0  0  0
    2.0135   -5.6944   24.6157 C   0  0  0  0  0  0  0  0  0  0  0  0
    1.1512   -6.3367   24.7780 H   0  0  0  0  0  0  0  0  0  0  0  0
    2.4293   -5.4319   23.3065 C   0  0  0  0  0  0  0  0  0  0  0  0
    1.9110   -5.7888   22.4206 H   0  0  0  0  0  0  0  0  0  0  0  0
    3.5549   -4.6264   23.1784 C   0  0  0  0  0  0  0  0  0  0  0  0
    4.1384   -4.1976   22.0373 O   0  0  0  0  0  0  0  0  0  0  0  0
    8.6076   -0.2999   21.3893 C   0  0  0  0  0  0  0  0  0  0  0  0
    9.2235    0.0787   20.5705 H   0  0  0  0  0  0  0  0  0  0  0  0
    8.4874    0.5175   22.1222 H   0  0  0  0  0  0  0  0  0  0  0  0
    9.1475   -1.1362   21.8453 H   0  0  0  0  0  0  0  0  0  0  0  0
    5.4733    0.6559   20.1383 C   0  0  0  0  0  0  0  0  0  0  0  0
    5.0825    0.6606   21.1554 H   0  0  0  0  0  0  0  0  0  0  0  0
    4.8430    1.3395   19.0939 C   0  0  0  0  0  0  0  0  0  0  0  0
    3.9137    1.8713   19.2561 H   0  0  0  0  0  0  0  0  0  0  0  0
  1  2  1  0
  2  3  2  0
  3  4  1  0
  4  5  1  0
  4  6  2  0
  6  7  1  0
  7  8  1  0
  8  9  1  0
  8 10  1  0
 10 11  2  0
 10 12  1  0
 12 13  2  0
 13 14  1  0
 14 15  2  0
 15 16  1  0
 15 17  1  0
 17 18  1  0
 17 19  2  0
 19 20  1  0
 19 21  1  0
 21 22  1  0
 21 23  2  0
 23 24  1  0
  7 25  1  0
 25 26  1  0
 25 27  1  0
 25 28  1  0
  6 29  1  0
 29 30  1  0
 29 31  2  0
 31 32  1  0
 31  2  1  0
 24 12  1  0
 23 14  1  0
M  END
>  <cnnaffinity>  (1) 
-5.26224

>  <filename>  (1) 
[H]c1nc([H])c(N(N([H])C(=O)c2nc3c([H])c([H])c([H])c([H])c3o2)C([H])([H])[H])c([H])c1[H]

$$$$
