
     RDKit          3D

 40 43  0  0  0  0  0  0  0  0999 V2000
   12.1137    1.9977   24.8982 F   0  0  0  0  0  0  0  0  0  0  0  0
   10.8543    1.9037   24.4546 C   0  0  0  0  0  0  0  0  0  0  0  0
    9.8440    1.5747   25.3515 C   0  0  0  0  0  0  0  0  0  0  0  0
    8.5443    1.4250   24.8584 C   0  0  0  0  0  0  0  0  0  0  0  0
    8.2451    1.5963   23.5004 C   0  0  0  0  0  0  0  0  0  0  0  0
    6.9272    1.0827   22.9259 C   0  0  0  0  0  0  0  0  0  0  0  0
    7.1451   -0.2386   22.2454 C   0  0  0  0  0  0  0  0  0  0  0  0
    7.6599   -1.2749   22.8828 N   0  0  0  0  0  0  0  0  0  0  0  0
    7.8611   -2.1836   21.9013 C   0  0  0  0  0  0  0  0  0  0  0  0
    8.4966   -3.5002   22.1562 C   0  0  0  0  0  0  0  0  0  0  0  0
    7.6104   -4.4667   22.9186 C   0  0  0  0  0  0  0  0  0  0  0  0
    7.5356   -4.3372   24.4114 C   0  0  0  0  0  0  0  0  0  0  0  0
    8.2722   -5.4899   23.7873 C   0  0  0  0  0  0  0  0  0  0  0  0
    7.8285   -6.4760   23.8374 H   0  0  0  0  0  0  0  0  0  0  0  0
    9.3564   -5.4915   23.8422 H   0  0  0  0  0  0  0  0  0  0  0  0
    8.1170   -3.5307   24.8536 H   0  0  0  0  0  0  0  0  0  0  0  0
    6.5967   -4.5386   24.9197 H   0  0  0  0  0  0  0  0  0  0  0  0
    6.6974   -4.7669   22.4058 H   0  0  0  0  0  0  0  0  0  0  0  0
    9.4027   -3.3014   22.7394 H   0  0  0  0  0  0  0  0  0  0  0  0
    8.7785   -3.9160   21.1885 H   0  0  0  0  0  0  0  0  0  0  0  0
    7.4983   -1.7924   20.7008 N   0  0  0  0  0  0  0  0  0  0  0  0
    6.9945   -0.5489   20.9188 N   0  0  0  0  0  0  0  0  0  0  0  0
    6.4236    0.1606   19.8318 C   0  0  0  0  0  0  0  0  0  0  0  0
    5.2277    0.8779   19.9453 C   0  0  0  0  0  0  0  0  0  0  0  0
    4.7233    1.4983   18.7965 C   0  0  0  0  0  0  0  0  0  0  0  0
    5.4225    1.3804   17.5923 C   0  0  0  0  0  0  0  0  0  0  0  0
    6.5677    0.6846   17.4770 N   0  0  0  0  0  0  0  0  0  0  0  0
    7.0504    0.0938   18.5723 C   0  0  0  0  0  0  0  0  0  0  0  0
    7.9846   -0.4544   18.4694 H   0  0  0  0  0  0  0  0  0  0  0  0
    5.0515    1.8540   16.6857 H   0  0  0  0  0  0  0  0  0  0  0  0
    3.8066    2.0747   18.8317 H   0  0  0  0  0  0  0  0  0  0  0  0
    4.7003    0.9370   20.8979 H   0  0  0  0  0  0  0  0  0  0  0  0
    6.5038    1.8126   22.2331 H   0  0  0  0  0  0  0  0  0  0  0  0
    6.2125    0.9144   23.7398 H   0  0  0  0  0  0  0  0  0  0  0  0
    9.2857    2.0483   22.6693 C   0  0  0  0  0  0  0  0  0  0  0  0
    8.9419    2.4687   21.0279 Cl  0  0  0  0  0  0  0  0  0  0  0  0
   10.6057    2.1553   23.1111 C   0  0  0  0  0  0  0  0  0  0  0  0
   11.4196    2.3872   22.4326 H   0  0  0  0  0  0  0  0  0  0  0  0
    7.7415    1.1380   25.5334 H   0  0  0  0  0  0  0  0  0  0  0  0
   10.0918    1.4071   26.3915 H   0  0  0  0  0  0  0  0  0  0  0  0
  1  2  1  0
  2  3  2  0
  3  4  1  0
  4  5  2  0
  5  6  1  0
  6  7  1  0
  7  8  2  0
  8  9  1  0
  9 10  1  0
 10 11  1  0
 11 12  1  0
 12 13  1  0
 13 14  1  0
 13 15  1  0
 12 16  1  0
 12 17  1  0
 11 18  1  0
 10 19  1  0
 10 20  1  0
  9 21  2  0
 21 22  1  0
 22 23  1  0
 23 24  2  0
 24 25  1  0
 25 26  2  0
 26 27  1  0
 27 28  2  0
 28 29  1  0
 26 30  1  0
 25 31  1  0
 24 32  1  0
  6 33  1  0
  6 34  1  0
  5 35  1  0
 35 36  1  0
 35 37  2  0
 37 38  1  0
  4 39  1  0
  3 40  1  0
 37  2  1  0
 22  7  1  0
 28 23  1  0
 13 11  1  0
M  END
>  <cnnaffinity>  (1) 
-5.96467

>  <filename>  (1) 
[H]c1nc([H])c(-n2nc(C([H])([H])C3([H])C([H])([H])C3([H])[H])nc2C([H])([H])c2c([H])c([H])c(F)c([H])c2Cl)c([H])c1[H]

$$$$
