
     RDKit          3D

 37 39  0  0  0  0  0  0  0  0999 V2000
    5.0190    1.7743   16.9275 H   0  0  0  0  0  0  0  0  0  0  0  0
    5.4512    1.2956   17.8032 C   0  0  0  0  0  0  0  0  0  0  0  0
    6.5659    0.5791   17.5928 N   0  0  0  0  0  0  0  0  0  0  0  0
    7.1136   -0.0184   18.6601 C   0  0  0  0  0  0  0  0  0  0  0  0
    8.0300   -0.5763   18.4615 H   0  0  0  0  0  0  0  0  0  0  0  0
    6.6014    0.0447   19.9734 C   0  0  0  0  0  0  0  0  0  0  0  0
    7.3044   -0.5993   21.1570 C   0  0  0  0  0  0  0  0  0  0  0  0
    8.2964    0.3148   21.9248 C   0  0  0  0  0  0  0  0  0  0  0  0
    8.1284    0.7189   23.0583 O   0  0  0  0  0  0  0  0  0  0  0  0
    9.4089    0.6270   21.1761 N   0  0  0  0  0  0  0  0  0  0  0  0
    9.3943    0.4038   20.1950 H   0  0  0  0  0  0  0  0  0  0  0  0
   10.5309    1.2706   21.6536 N   0  0  0  0  0  0  0  0  0  0  0  0
   11.6889    0.5462   21.9434 C   0  0  0  0  0  0  0  0  0  0  0  0
   12.8517    1.2137   22.3902 C   0  0  0  0  0  0  0  0  0  0  0  0
   12.8086    2.2843   22.5713 H   0  0  0  0  0  0  0  0  0  0  0  0
   14.0392    0.5158   22.6084 C   0  0  0  0  0  0  0  0  0  0  0  0
   14.9171    1.0733   22.9266 H   0  0  0  0  0  0  0  0  0  0  0  0
   14.0912   -0.8677   22.4183 C   0  0  0  0  0  0  0  0  0  0  0  0
   15.0067   -1.4199   22.5893 H   0  0  0  0  0  0  0  0  0  0  0  0
   12.9403   -1.5462   22.0064 C   0  0  0  0  0  0  0  0  0  0  0  0
   12.9739   -2.6260   21.9056 H   0  0  0  0  0  0  0  0  0  0  0  0
   11.7585   -0.8557   21.7618 C   0  0  0  0  0  0  0  0  0  0  0  0
   10.8818   -1.3842   21.4111 H   0  0  0  0  0  0  0  0  0  0  0  0
   10.3951    2.6576   22.0682 C   0  0  0  0  0  0  0  0  0  0  0  0
    9.3624    2.9687   21.9159 H   0  0  0  0  0  0  0  0  0  0  0  0
   11.0685    3.2845   21.4721 H   0  0  0  0  0  0  0  0  0  0  0  0
   10.6331    2.7984   23.1315 H   0  0  0  0  0  0  0  0  0  0  0  0
    6.5201   -1.5730   22.0088 C   0  0  0  0  0  0  0  0  0  0  0  0
    5.4881   -1.7484   21.7214 H   0  0  0  0  0  0  0  0  0  0  0  0
    6.7040   -1.5896   23.0799 H   0  0  0  0  0  0  0  0  0  0  0  0
    7.5598   -2.0997   21.0800 C   0  0  0  0  0  0  0  0  0  0  0  0
    8.4859   -2.5314   21.4601 H   0  0  0  0  0  0  0  0  0  0  0  0
    7.1491   -2.5902   20.2034 H   0  0  0  0  0  0  0  0  0  0  0  0
    5.4363    0.8039   20.1611 C   0  0  0  0  0  0  0  0  0  0  0  0
    5.0107    0.9000   21.1620 H   0  0  0  0  0  0  0  0  0  0  0  0
    4.8512    1.4308   19.0591 C   0  0  0  0  0  0  0  0  0  0  0  0
    3.9517    2.0282   19.1533 H   0  0  0  0  0  0  0  0  0  0  0  0
  1  2  1  0
  2  3  2  0
  3  4  1  0
  4  5  1  0
  4  6  2  0
  6  7  1  0
  7  8  1  0
  8  9  2  0
  8 10  1  0
 10 11  1  0
 10 12  1  0
 12 13  1  0
 13 14  2  0
 14 15  1  0
 14 16  1  0
 16 17  1  0
 16 18  2  0
 18 19  1  0
 18 20  1  0
 20 21  1  0
 20 22  2  0
 22 23  1  0
 12 24  1  0
 24 25  1  0
 24 26  1  0
 24 27  1  0
  7 28  1  0
 28 29  1  0
 28 30  1  0
 28 31  1  0
 31 32  1  0
 31 33  1  0
  6 34  1  0
 34 35  1  0
 34 36  2  0
 36 37  1  0
 36  2  1  0
 31  7  1  0
 22 13  1  0
M  END
>  <cnnaffinity>  (1) 
-5.61436

>  <filename>  (1) 
[H]c1nc([H])c(C2(C(=O)N([H])N(c3c([H])c([H])c([H])c([H])c3[H])C([H])([H])[H])C([H])([H])C2([H])[H])c([H])c1[H]

$$$$
