
     RDKit          3D

 27 28  0  0  0  0  0  0  0  0999 V2000
    5.7353   -1.6752   21.6637 H   0  0  0  0  0  0  0  0  0  0  0  0
    6.7884   -1.5107   21.8515 C   0  0  0  0  0  0  0  0  0  0  0  0
    7.3912   -0.7011   20.9737 C   0  0  0  0  0  0  0  0  0  0  0  0
    9.1085   -0.4310   20.9402 Cl  0  0  0  0  0  0  0  0  0  0  0  0
    6.6645    0.0170   19.9058 C   0  0  0  0  0  0  0  0  0  0  0  0
    7.1835    0.0734   18.6010 C   0  0  0  0  0  0  0  0  0  0  0  0
    8.1223   -0.4234   18.3637 H   0  0  0  0  0  0  0  0  0  0  0  0
    6.5651    0.6733   17.5838 N   0  0  0  0  0  0  0  0  0  0  0  0
    5.3998    1.2912   17.8391 C   0  0  0  0  0  0  0  0  0  0  0  0
    4.9190    1.7796   16.9953 H   0  0  0  0  0  0  0  0  0  0  0  0
    4.8063    1.3121   19.1034 C   0  0  0  0  0  0  0  0  0  0  0  0
    3.8743    1.8415   19.2565 H   0  0  0  0  0  0  0  0  0  0  0  0
    5.4388    0.6525   20.1547 C   0  0  0  0  0  0  0  0  0  0  0  0
    5.0151    0.6361   21.1615 H   0  0  0  0  0  0  0  0  0  0  0  0
    7.3403   -2.2409   22.9867 C   0  0  0  0  0  0  0  0  0  0  0  0
    8.5309   -1.8650   23.4712 N   0  0  0  0  0  0  0  0  0  0  0  0
    9.0181   -2.5353   24.5097 C   0  0  0  0  0  0  0  0  0  0  0  0
    9.9835   -2.1978   24.8713 H   0  0  0  0  0  0  0  0  0  0  0  0
    8.3755   -3.6106   25.1091 C   0  0  0  0  0  0  0  0  0  0  0  0
    8.8330   -4.1238   25.9419 H   0  0  0  0  0  0  0  0  0  0  0  0
    7.1329   -4.0185   24.6090 C   0  0  0  0  0  0  0  0  0  0  0  0
    6.4052   -5.1830   25.2048 C   0  0  0  0  0  0  0  0  0  0  0  0
    6.6493   -5.2986   26.2637 H   0  0  0  0  0  0  0  0  0  0  0  0
    5.3219   -5.0656   25.1086 H   0  0  0  0  0  0  0  0  0  0  0  0
    6.6947   -6.1019   24.6888 H   0  0  0  0  0  0  0  0  0  0  0  0
    6.6146   -3.3140   23.5281 C   0  0  0  0  0  0  0  0  0  0  0  0
    5.6615   -3.5930   23.0952 H   0  0  0  0  0  0  0  0  0  0  0  0
  1  2  1  0
  2  3  2  3
  3  4  1  0
  3  5  1  0
  5  6  2  0
  6  7  1  0
  6  8  1  0
  8  9  2  0
  9 10  1  0
  9 11  1  0
 11 12  1  0
 11 13  2  0
 13 14  1  0
  2 15  1  0
 15 16  2  0
 16 17  1  0
 17 18  1  0
 17 19  2  0
 19 20  1  0
 19 21  1  0
 21 22  1  0
 22 23  1  0
 22 24  1  0
 22 25  1  0
 21 26  2  0
 26 27  1  0
 13  5  1  0
 26 15  1  0
M  END
>  <cnnaffinity>  (1) 
-5.00115

>  <filename>  (1) 
[H]C(=C(Cl)c1c([H])nc([H])c([H])c1[H])c1nc([H])c([H])c(C([H])([H])[H])c1[H]

$$$$
