
     RDKit          3D

 29 31  0  0  0  0  0  0  0  0999 V2000
    4.9304    1.7899   16.9941 H   0  0  0  0  0  0  0  0  0  0  0  0
    5.4031    1.2920   17.8384 C   0  0  0  0  0  0  0  0  0  0  0  0
    6.5676    0.6702   17.5831 N   0  0  0  0  0  0  0  0  0  0  0  0
    7.1764    0.0468   18.5948 C   0  0  0  0  0  0  0  0  0  0  0  0
    8.1212   -0.4478   18.3800 H   0  0  0  0  0  0  0  0  0  0  0  0
    6.6628    0.0150   19.9032 C   0  0  0  0  0  0  0  0  0  0  0  0
    7.3962   -0.6559   20.9289 N   0  0  0  0  0  0  0  0  0  0  0  0
    7.8065   -1.9349   20.7902 N   0  0  0  0  0  0  0  0  0  0  0  0
    8.4036   -2.2521   21.8786 N   0  0  0  0  0  0  0  0  0  0  0  0
    8.4185   -1.2193   22.7489 N   0  0  0  0  0  0  0  0  0  0  0  0
    7.8103   -0.2244   22.1519 C   0  0  0  0  0  0  0  0  0  0  0  0
    7.6880    1.1764   22.6415 C   0  0  0  0  0  0  0  0  0  0  0  0
    7.9086    1.1755   23.7113 H   0  0  0  0  0  0  0  0  0  0  0  0
    6.6634    1.5375   22.5048 H   0  0  0  0  0  0  0  0  0  0  0  0
    8.6568    2.1089   21.8975 C   0  0  2  0  0  0  0  0  0  0  0  0
    8.4339    2.0762   20.8244 H   0  0  0  0  0  0  0  0  0  0  0  0
   10.0415    1.7110   22.1035 N   0  0  0  0  0  0  0  0  0  0  0  0
   10.6035    2.7178   22.6336 C   0  0  0  0  0  0  0  0  0  0  0  0
   11.8732    2.7204   23.0293 N   0  0  0  0  0  0  0  0  0  0  0  0
   12.2686    3.5688   23.3677 H   0  0  0  0  0  0  0  0  0  0  0  0
   12.3332    1.8633   22.7950 H   0  0  0  0  0  0  0  0  0  0  0  0
    9.9275    3.8519   22.8615 O   0  0  0  0  0  0  0  0  0  0  0  0
    8.5870    3.5738   22.3937 C   0  0  0  0  0  0  0  0  0  0  0  0
    7.8965    3.7161   23.2338 H   0  0  0  0  0  0  0  0  0  0  0  0
    8.3372    4.2840   21.5984 H   0  0  0  0  0  0  0  0  0  0  0  0
    5.4449    0.6509   20.1653 C   0  0  0  0  0  0  0  0  0  0  0  0
    5.0041    0.6234   21.1626 H   0  0  0  0  0  0  0  0  0  0  0  0
    4.8085    1.3055   19.1036 C   0  0  0  0  0  0  0  0  0  0  0  0
    3.8756    1.8370   19.2553 H   0  0  0  0  0  0  0  0  0  0  0  0
  1  2  1  0
  2  3  2  0
  3  4  1  0
  4  5  1  0
  4  6  2  0
  6  7  1  0
  7  8  1  0
  8  9  2  0
  9 10  1  0
 10 11  2  0
 11 12  1  0
 12 13  1  0
 12 14  1  0
 12 15  1  0
 15 16  1  6
 15 17  1  0
 17 18  2  0
 18 19  1  0
 19 20  1  0
 19 21  1  0
 18 22  1  0
 22 23  1  0
 23 24  1  0
 23 25  1  0
  6 26  1  0
 26 27  1  0
 26 28  2  0
 28 29  1  0
 28  2  1  0
 11  7  1  0
 23 15  1  0
M  END
>  <cnnaffinity>  (1) 
-5.03541

>  <filename>  (1) 
[H]c1nc([H])c(-n2nnnc2C([H])([H])[C@]2([H])N=C(N([H])[H])OC2([H])[H])c([H])c1[H]

$$$$
