
     RDKit          3D

 32 34  0  0  0  0  0  0  0  0999 V2000
    4.8602    2.2918   16.5334 H   0  0  0  0  0  0  0  0  0  0  0  0
    5.2649    1.7003   17.3510 C   0  0  0  0  0  0  0  0  0  0  0  0
    6.4244    1.0693   17.0994 N   0  0  0  0  0  0  0  0  0  0  0  0
    6.9786    0.3701   18.0978 C   0  0  0  0  0  0  0  0  0  0  0  0
    7.9143   -0.1422   17.8728 H   0  0  0  0  0  0  0  0  0  0  0  0
    6.4276    0.2383   19.3981 C   0  0  0  0  0  0  0  0  0  0  0  0
    7.0863   -0.5332   20.3885 N   0  0  0  0  0  0  0  0  0  0  0  0
    6.2847   -1.2085   21.4121 C   0  0  0  0  0  0  0  0  0  0  0  0
    6.0491   -0.5384   22.2593 H   0  0  0  0  0  0  0  0  0  0  0  0
    5.3465   -1.5645   20.9707 H   0  0  0  0  0  0  0  0  0  0  0  0
    7.0791   -2.3937   21.9612 C   0  0  0  0  0  0  0  0  0  0  0  0
    6.4959   -2.9363   22.7072 H   0  0  0  0  0  0  0  0  0  0  0  0
    7.2937   -3.1043   21.1492 H   0  0  0  0  0  0  0  0  0  0  0  0
    8.3405   -1.9244   22.5474 N   0  0  0  0  0  0  0  0  0  0  0  0
    8.8213   -2.5868   23.6570 C   0  0  0  0  0  0  0  0  0  0  0  0
   10.3259   -3.4732   23.7112 S   0  0  0  0  0  0  0  0  0  0  0  0
    9.8066   -4.2741   25.1573 C   0  0  0  0  0  0  0  0  0  0  0  0
   10.7176   -5.5465   25.8509 Cl  0  0  0  0  0  0  0  0  0  0  0  0
    8.6158   -3.8233   25.6230 C   0  0  0  0  0  0  0  0  0  0  0  0
    8.1276   -4.2487   26.4940 H   0  0  0  0  0  0  0  0  0  0  0  0
    8.0694   -2.8385   24.7640 C   0  0  0  0  0  0  0  0  0  0  0  0
    7.1300   -2.3267   24.9103 H   0  0  0  0  0  0  0  0  0  0  0  0
    9.1647   -1.2186   21.5775 C   0  0  0  0  0  0  0  0  0  0  0  0
    9.4876   -1.9083   20.7805 H   0  0  0  0  0  0  0  0  0  0  0  0
   10.0562   -0.8289   22.0743 H   0  0  0  0  0  0  0  0  0  0  0  0
    8.3680   -0.0541   20.9512 C   0  0  0  0  0  0  0  0  0  0  0  0
    8.9540    0.4059   20.1441 H   0  0  0  0  0  0  0  0  0  0  0  0
    8.1967    0.7061   21.7372 H   0  0  0  0  0  0  0  0  0  0  0  0
    5.1928    0.8838   19.6199 C   0  0  0  0  0  0  0  0  0  0  0  0
    4.7181    0.7976   20.5965 H   0  0  0  0  0  0  0  0  0  0  0  0
    4.6102    1.6269   18.5863 C   0  0  0  0  0  0  0  0  0  0  0  0
    3.6690    2.1529   18.7259 H   0  0  0  0  0  0  0  0  0  0  0  0
  1  2  1  0
  2  3  2  0
  3  4  1  0
  4  5  1  0
  4  6  2  0
  6  7  1  0
  7  8  1  0
  8  9  1  0
  8 10  1  0
  8 11  1  0
 11 12  1  0
 11 13  1  0
 11 14  1  0
 14 15  1  0
 15 16  1  0
 16 17  1  0
 17 18  1  0
 17 19  2  0
 19 20  1  0
 19 21  1  0
 21 22  1  0
 14 23  1  0
 23 24  1  0
 23 25  1  0
 23 26  1  0
 26 27  1  0
 26 28  1  0
  6 29  1  0
 29 30  1  0
 29 31  2  0
 31 32  1  0
 31  2  1  0
 26  7  1  0
 21 15  2  0
M  END
>  <cnnaffinity>  (1) 
-4.75262

>  <filename>  (1) 
[H]c1nc([H])c(N2C([H])([H])C([H])([H])N(c3sc(Cl)c([H])c3[H])C([H])([H])C2([H])[H])c([H])c1[H]

$$$$
