
     RDKit          3D

 43 46  0  0  0  0  0  0  0  0999 V2000
    6.1108   -5.7042   22.4866 C   0  0  0  0  0  0  0  0  0  0  0  0
    7.0484   -4.7768   22.0005 O   0  0  0  0  0  0  0  0  0  0  0  0
    8.1182   -4.4762   22.8663 C   0  0  0  0  0  0  0  0  0  0  0  0
    8.9473   -3.4546   22.1115 C   0  0  0  0  0  0  0  0  0  0  0  0
    8.2625   -2.1656   21.9119 C   0  0  0  0  0  0  0  0  0  0  0  0
    7.9038   -1.7760   20.7164 N   0  0  0  0  0  0  0  0  0  0  0  0
    7.3595   -0.5590   20.9383 N   0  0  0  0  0  0  0  0  0  0  0  0
    6.6399    0.0796   19.9022 C   0  0  0  0  0  0  0  0  0  0  0  0
    5.4141    0.7079   20.1456 C   0  0  0  0  0  0  0  0  0  0  0  0
    4.7857    1.3199   19.0604 C   0  0  0  0  0  0  0  0  0  0  0  0
    5.4048    1.2811   17.8048 C   0  0  0  0  0  0  0  0  0  0  0  0
    6.5552    0.6243   17.5629 N   0  0  0  0  0  0  0  0  0  0  0  0
    7.1507    0.0230   18.5936 C   0  0  0  0  0  0  0  0  0  0  0  0
    8.0717   -0.5283   18.4003 H   0  0  0  0  0  0  0  0  0  0  0  0
    4.9723    1.8091   16.9607 H   0  0  0  0  0  0  0  0  0  0  0  0
    3.8448    1.8450   19.1852 H   0  0  0  0  0  0  0  0  0  0  0  0
    4.9896    0.7096   21.1554 H   0  0  0  0  0  0  0  0  0  0  0  0
    7.4791   -0.2623   22.2675 C   0  0  0  0  0  0  0  0  0  0  0  0
    7.1590    1.0522   22.8379 C   0  0  0  0  0  0  0  0  0  0  0  0
    7.6007    2.2153   22.2204 C   0  0  0  0  0  0  0  0  0  0  0  0
    7.2933    3.4828   22.7610 C   0  0  0  0  0  0  0  0  0  0  0  0
    6.5495    3.5876   23.9143 C   0  0  0  0  0  0  0  0  0  0  0  0
    6.0716    2.4188   24.5811 C   0  0  0  0  0  0  0  0  0  0  0  0
    5.2940    2.5057   25.7788 C   0  0  0  0  0  0  0  0  0  0  0  0
    4.8345    1.3600   26.3685 C   0  0  0  0  0  0  0  0  0  0  0  0
    4.1077    1.4315   27.4964 F   0  0  0  0  0  0  0  0  0  0  0  0
    5.0923    0.0732   25.8474 C   0  0  0  0  0  0  0  0  0  0  0  0
    5.8533   -0.0351   24.7092 C   0  0  0  0  0  0  0  0  0  0  0  0
    6.3756    1.1230   24.0388 C   0  0  0  0  0  0  0  0  0  0  0  0
    6.0765   -1.0140   24.2946 H   0  0  0  0  0  0  0  0  0  0  0  0
    4.6933   -0.7976   26.3580 H   0  0  0  0  0  0  0  0  0  0  0  0
    5.0695    3.4658   26.2307 H   0  0  0  0  0  0  0  0  0  0  0  0
    6.3131    4.5635   24.3321 H   0  0  0  0  0  0  0  0  0  0  0  0
    7.6514    4.3705   22.2458 H   0  0  0  0  0  0  0  0  0  0  0  0
    8.1810    2.1600   21.3027 H   0  0  0  0  0  0  0  0  0  0  0  0
    8.0192   -1.2896   22.9070 N   0  0  0  0  0  0  0  0  0  0  0  0
    9.9131   -3.2585   22.5855 H   0  0  0  0  0  0  0  0  0  0  0  0
    9.0623   -3.8218   21.0951 H   0  0  0  0  0  0  0  0  0  0  0  0
    8.7317   -5.3755   23.0546 H   0  0  0  0  0  0  0  0  0  0  0  0
    7.7581   -4.0937   23.8401 H   0  0  0  0  0  0  0  0  0  0  0  0
    5.5721   -5.3288   23.3701 H   0  0  0  0  0  0  0  0  0  0  0  0
    5.3822   -5.8698   21.6899 H   0  0  0  0  0  0  0  0  0  0  0  0
    6.5701   -6.6728   22.7383 H   0  0  0  0  0  0  0  0  0  0  0  0
  1  2  1  0
  2  3  1  0
  3  4  1  0
  4  5  1  0
  5  6  2  0
  6  7  1  0
  7  8  1  0
  8  9  2  0
  9 10  1  0
 10 11  2  0
 11 12  1  0
 12 13  2  0
 13 14  1  0
 11 15  1  0
 10 16  1  0
  9 17  1  0
  7 18  1  0
 18 19  1  0
 19 20  2  0
 20 21  1  0
 21 22  2  0
 22 23  1  0
 23 24  2  0
 24 25  1  0
 25 26  1  0
 25 27  2  0
 27 28  1  0
 28 29  2  0
 28 30  1  0
 27 31  1  0
 24 32  1  0
 22 33  1  0
 21 34  1  0
 20 35  1  0
 18 36  2  0
  4 37  1  0
  4 38  1  0
  3 39  1  0
  3 40  1  0
  1 41  1  0
  1 42  1  0
  1 43  1  0
 36  5  1  0
 13  8  1  0
 29 19  1  0
 29 23  1  0
M  END
>  <cnnaffinity>  (1) 
-5.73002

>  <filename>  (1) 
[H]c1nc([H])c(-n2nc(C([H])([H])C([H])([H])OC([H])([H])[H])nc2-c2c([H])c([H])c([H])c3c([H])c(F)c([H])c([H])c23)c([H])c1[H]

$$$$
