
     RDKit          3D

 40 42  0  0  0  0  0  0  0  0999 V2000
    4.9537    1.8045   16.9458 H   0  0  0  0  0  0  0  0  0  0  0  0
    5.3861    1.3131   17.8126 C   0  0  0  0  0  0  0  0  0  0  0  0
    6.5466    0.6788   17.6016 N   0  0  0  0  0  0  0  0  0  0  0  0
    7.1280    0.0947   18.6599 C   0  0  0  0  0  0  0  0  0  0  0  0
    8.0682   -0.4196   18.4451 H   0  0  0  0  0  0  0  0  0  0  0  0
    6.6079    0.1080   19.9714 C   0  0  0  0  0  0  0  0  0  0  0  0
    7.2987   -0.6191   21.1270 C   0  0  1  0  0  0  0  0  0  0  0  0
    6.8666   -0.2501   22.0703 H   0  0  0  0  0  0  0  0  0  0  0  0
    7.0040   -2.1224   21.0033 C   0  0  0  0  0  0  0  0  0  0  0  0
    5.9247   -2.2676   21.1048 H   0  0  0  0  0  0  0  0  0  0  0  0
    7.2410   -2.3895   19.9784 H   0  0  0  0  0  0  0  0  0  0  0  0
    7.7787   -3.0578   21.9417 C   0  0  0  0  0  0  0  0  0  0  0  0
    7.6546   -4.0919   21.5891 H   0  0  0  0  0  0  0  0  0  0  0  0
    7.3507   -3.0097   22.9529 H   0  0  0  0  0  0  0  0  0  0  0  0
    9.2733   -2.7087   22.0054 C   0  0  0  0  0  0  0  0  0  0  0  0
    9.7424   -2.9283   21.0354 H   0  0  0  0  0  0  0  0  0  0  0  0
    9.7837   -3.3370   22.7477 H   0  0  0  0  0  0  0  0  0  0  0  0
    9.4852   -1.2190   22.3077 C   0  0  0  0  0  0  0  0  0  0  0  0
    9.0665   -0.9955   23.3024 H   0  0  0  0  0  0  0  0  0  0  0  0
   10.5620   -1.0073   22.3713 H   0  0  0  0  0  0  0  0  0  0  0  0
    8.8240   -0.3580   21.1984 C   0  0  2  0  0  0  0  0  0  0  0  0
    9.2516   -0.7291   20.2544 H   0  0  0  0  0  0  0  0  0  0  0  0
    9.1175    1.1601   21.2764 C   0  0  0  0  0  0  0  0  0  0  0  0
    8.7593    1.6356   20.3622 H   0  0  0  0  0  0  0  0  0  0  0  0
   10.2019    1.3166   21.3059 H   0  0  0  0  0  0  0  0  0  0  0  0
    8.4965    1.8253   22.4761 C   0  0  0  0  0  0  0  0  0  0  0  0
    7.2387    2.4457   22.4946 C   0  0  0  0  0  0  0  0  0  0  0  0
    6.6732    2.5428   21.5769 H   0  0  0  0  0  0  0  0  0  0  0  0
    6.6745    2.9069   23.6893 C   0  0  0  0  0  0  0  0  0  0  0  0
    5.6962    3.3703   23.7013 H   0  0  0  0  0  0  0  0  0  0  0  0
    7.3657    2.7674   24.8958 C   0  0  0  0  0  0  0  0  0  0  0  0
    6.6722    3.3814   26.3601 Cl  0  0  0  0  0  0  0  0  0  0  0  0
    8.6089    2.1265   24.8798 C   0  0  0  0  0  0  0  0  0  0  0  0
    9.4920    1.7735   26.3015 Cl  0  0  0  0  0  0  0  0  0  0  0  0
    9.1702    1.6930   23.6851 C   0  0  0  0  0  0  0  0  0  0  0  0
   10.1239    1.1764   23.7127 H   0  0  0  0  0  0  0  0  0  0  0  0
    5.3634    0.7355   20.1478 C   0  0  0  0  0  0  0  0  0  0  0  0
    4.8985    0.7610   21.1350 H   0  0  0  0  0  0  0  0  0  0  0  0
    4.7466    1.3558   19.0548 C   0  0  0  0  0  0  0  0  0  0  0  0
    3.7990    1.8727   19.1526 H   0  0  0  0  0  0  0  0  0  0  0  0
  1  2  1  0
  2  3  2  0
  3  4  1  0
  4  5  1  0
  4  6  2  0
  6  7  1  0
  7  8  1  1
  7  9  1  0
  9 10  1  0
  9 11  1  0
  9 12  1  0
 12 13  1  0
 12 14  1  0
 12 15  1  0
 15 16  1  0
 15 17  1  0
 15 18  1  0
 18 19  1  0
 18 20  1  0
 18 21  1  0
 21 22  1  6
 21 23  1  0
 23 24  1  0
 23 25  1  0
 23 26  1  0
 26 27  2  0
 27 28  1  0
 27 29  1  0
 29 30  1  0
 29 31  2  0
 31 32  1  0
 31 33  1  0
 33 34  1  0
 33 35  2  0
 35 36  1  0
  6 37  1  0
 37 38  1  0
 37 39  2  0
 39 40  1  0
 39  2  1  0
 21  7  1  0
 35 26  1  0
M  END
>  <cnnaffinity>  (1) 
-5.42774

>  <filename>  (1) 
[H]c1nc([H])c([C@@]2([H])C([H])([H])C([H])([H])C([H])([H])C([H])([H])[C@]2([H])C([H])([H])c2c([H])c([H])c(Cl)c(Cl)c2[H])c([H])c1[H]

$$$$
