
     RDKit          3D

 42 45  0  0  0  0  0  0  0  0999 V2000
    4.9616    1.8122   16.9385 H   0  0  0  0  0  0  0  0  0  0  0  0
    5.3925    1.3406   17.8166 C   0  0  0  0  0  0  0  0  0  0  0  0
    6.5617    0.7156   17.6205 N   0  0  0  0  0  0  0  0  0  0  0  0
    7.1280    0.1369   18.6874 C   0  0  0  0  0  0  0  0  0  0  0  0
    8.0611   -0.4025   18.4997 H   0  0  0  0  0  0  0  0  0  0  0  0
    6.5911    0.1615   19.9876 C   0  0  0  0  0  0  0  0  0  0  0  0
    7.2861   -0.5561   21.1277 C   0  0  1  0  0  0  0  0  0  0  0  0
    6.7777   -0.2892   22.0658 H   0  0  0  0  0  0  0  0  0  0  0  0
    7.0651   -2.0739   20.9360 C   0  0  0  0  0  0  0  0  0  0  0  0
    7.1215   -2.3325   19.8812 H   0  0  0  0  0  0  0  0  0  0  0  0
    6.0299   -2.2790   21.2299 H   0  0  0  0  0  0  0  0  0  0  0  0
    8.0016   -2.9943   21.7240 C   0  0  1  0  0  0  0  0  0  0  0  0
    7.8179   -4.0315   21.4239 H   0  0  0  0  0  0  0  0  0  0  0  0
    9.7471   -2.6290   21.3586 S   0  0  0  0  0  0  0  0  0  0  0  0
    9.5423   -1.0650   22.2420 C   0  0  2  0  0  0  0  0  0  0  0  0
   10.5312   -0.6487   22.4667 H   0  0  0  0  0  0  0  0  0  0  0  0
    8.8110   -1.4998   23.5449 C   0  0  0  0  0  0  0  0  0  0  0  0
    9.5612   -1.7801   24.2922 H   0  0  0  0  0  0  0  0  0  0  0  0
    8.2302   -0.6777   23.9738 H   0  0  0  0  0  0  0  0  0  0  0  0
    7.9137   -2.7355   23.2371 C   0  0  0  0  0  0  0  0  0  0  0  0
    6.8715   -2.5687   23.5340 H   0  0  0  0  0  0  0  0  0  0  0  0
    8.2750   -3.6212   23.7725 H   0  0  0  0  0  0  0  0  0  0  0  0
    8.7777   -0.1426   21.2556 C   0  0  2  0  0  0  0  0  0  0  0  0
    9.2167   -0.3257   20.2641 H   0  0  0  0  0  0  0  0  0  0  0  0
    8.9941    1.3607   21.5380 C   0  0  0  0  0  0  0  0  0  0  0  0
    8.4319    1.9121   20.7752 H   0  0  0  0  0  0  0  0  0  0  0  0
   10.0533    1.5858   21.3586 H   0  0  0  0  0  0  0  0  0  0  0  0
    8.5844    1.7995   22.9243 C   0  0  0  0  0  0  0  0  0  0  0  0
    9.4967    1.7815   23.9947 C   0  0  0  0  0  0  0  0  0  0  0  0
   10.5256    1.4756   23.8104 H   0  0  0  0  0  0  0  0  0  0  0  0
    9.0912    2.0950   25.2942 C   0  0  0  0  0  0  0  0  0  0  0  0
    9.7709    2.0652   26.1397 H   0  0  0  0  0  0  0  0  0  0  0  0
    7.7606    2.4378   25.5080 C   0  0  0  0  0  0  0  0  0  0  0  0
    7.3653    2.7544   26.7532 F   0  0  0  0  0  0  0  0  0  0  0  0
    6.8215    2.4607   24.4818 C   0  0  0  0  0  0  0  0  0  0  0  0
    5.7907    2.7069   24.7103 H   0  0  0  0  0  0  0  0  0  0  0  0
    7.2477    2.1373   23.1902 C   0  0  0  0  0  0  0  0  0  0  0  0
    6.5313    2.1248   22.3710 H   0  0  0  0  0  0  0  0  0  0  0  0
    5.3445    0.7798   20.1558 C   0  0  0  0  0  0  0  0  0  0  0  0
    4.8488    0.7684   21.1275 H   0  0  0  0  0  0  0  0  0  0  0  0
    4.7376    1.3857   19.0510 C   0  0  0  0  0  0  0  0  0  0  0  0
    3.7820    1.8860   19.1335 H   0  0  0  0  0  0  0  0  0  0  0  0
  1  2  1  0
  2  3  2  0
  3  4  1  0
  4  5  1  0
  4  6  2  0
  6  7  1  0
  7  8  1  1
  7  9  1  0
  9 10  1  0
  9 11  1  0
  9 12  1  0
 12 13  1  1
 12 14  1  0
 14 15  1  0
 15 16  1  1
 15 17  1  0
 17 18  1  0
 17 19  1  0
 17 20  1  0
 20 21  1  0
 20 22  1  0
 15 23  1  0
 23 24  1  6
 23 25  1  0
 25 26  1  0
 25 27  1  0
 25 28  1  0
 28 29  2  0
 29 30  1  0
 29 31  1  0
 31 32  1  0
 31 33  2  0
 33 34  1  0
 33 35  1  0
 35 36  1  0
 35 37  2  0
 37 38  1  0
  6 39  1  0
 39 40  1  0
 39 41  2  0
 41 42  1  0
 41  2  1  0
 23  7  1  0
 37 28  1  0
 20 12  1  0
M  END
>  <cnnaffinity>  (1) 
-5.65557

>  <filename>  (1) 
[H]c1nc([H])c([C@@]2([H])C([H])([H])[C@@]3([H])S[C@]([H])(C([H])([H])C3([H])[H])[C@]2([H])C([H])([H])c2c([H])c([H])c(F)c([H])c2[H])c([H])c1[H]

$$$$
