
     RDKit          3D

 38 40  0  0  0  0  0  0  0  0999 V2000
    7.4602    1.0679   24.0067 H   0  0  0  0  0  0  0  0  0  0  0  0
    7.4613    0.9359   22.9263 C   0  0  0  0  0  0  0  0  0  0  0  0
    7.5414   -0.2895   22.3850 C   0  0  0  0  0  0  0  0  0  0  0  0
    7.3371   -0.7084   20.9907 C   0  0  0  0  0  0  0  0  0  0  0  0
    6.6216    0.0604   19.9333 C   0  0  0  0  0  0  0  0  0  0  0  0
    7.1529    0.0489   18.6367 C   0  0  0  0  0  0  0  0  0  0  0  0
    8.0753   -0.4869   18.4204 H   0  0  0  0  0  0  0  0  0  0  0  0
    6.5823    0.6705   17.6012 N   0  0  0  0  0  0  0  0  0  0  0  0
    5.4267    1.3144   17.8182 C   0  0  0  0  0  0  0  0  0  0  0  0
    4.9868    1.8191   16.9615 H   0  0  0  0  0  0  0  0  0  0  0  0
    4.7932    1.3532   19.0635 C   0  0  0  0  0  0  0  0  0  0  0  0
    3.8537    1.8796   19.1694 H   0  0  0  0  0  0  0  0  0  0  0  0
    5.3996    0.7188   20.1448 C   0  0  0  0  0  0  0  0  0  0  0  0
    4.9187    0.7104   21.1245 H   0  0  0  0  0  0  0  0  0  0  0  0
    7.7682   -1.8898   20.7386 N   0  0  0  0  0  0  0  0  0  0  0  0
    8.2448   -2.5135   21.9756 C   0  0  0  0  0  0  0  0  0  0  0  0
    9.3200   -2.6973   21.8807 H   0  0  0  0  0  0  0  0  0  0  0  0
    7.7665   -3.4896   22.0965 H   0  0  0  0  0  0  0  0  0  0  0  0
    7.9198   -1.5480   23.1449 C   0  0  0  0  0  0  0  0  0  0  0  0
    8.7680   -1.4317   23.8385 H   0  0  0  0  0  0  0  0  0  0  0  0
    7.0679   -1.9246   23.7302 H   0  0  0  0  0  0  0  0  0  0  0  0
    7.4068    2.1033   22.1887 N   0  0  0  0  0  0  0  0  0  0  0  0
    7.0791    1.9700   21.2416 H   0  0  0  0  0  0  0  0  0  0  0  0
    6.9788    3.3235   22.7373 C   0  0  0  0  0  0  0  0  0  0  0  0
    5.8882    3.9705   22.1489 C   0  0  0  0  0  0  0  0  0  0  0  0
    5.4382    3.5252   21.2617 H   0  0  0  0  0  0  0  0  0  0  0  0
    5.3702    5.1299   22.7310 C   0  0  0  0  0  0  0  0  0  0  0  0
    4.5069    5.6211   22.2924 H   0  0  0  0  0  0  0  0  0  0  0  0
    5.9483    5.6514   23.8944 C   0  0  0  0  0  0  0  0  0  0  0  0
    5.5450    6.5470   24.3571 H   0  0  0  0  0  0  0  0  0  0  0  0
    7.0588    5.0244   24.4547 C   0  0  0  0  0  0  0  0  0  0  0  0
    7.5225    5.4122   25.3610 H   0  0  0  0  0  0  0  0  0  0  0  0
    7.6087    3.8801   23.8579 C   0  0  0  0  0  0  0  0  0  0  0  0
    8.8497    3.2824   24.4315 C   0  0  0  0  0  0  0  0  0  0  0  0
    8.9718    3.0649   25.6245 O   0  0  0  0  0  0  0  0  0  0  0  0
    9.9034    3.0723   23.5947 N   0  0  0  0  0  0  0  0  0  0  0  0
   10.5875    2.4953   24.0620 H   0  0  0  0  0  0  0  0  0  0  0  0
    9.6892    2.8658   22.6306 H   0  0  0  0  0  0  0  0  0  0  0  0
  1  2  1  0
  2  3  2  3
  3  4  1  0
  4  5  1  0
  5  6  2  0
  6  7  1  0
  6  8  1  0
  8  9  2  0
  9 10  1  0
  9 11  1  0
 11 12  1  0
 11 13  2  0
 13 14  1  0
  4 15  2  0
 15 16  1  0
 16 17  1  0
 16 18  1  0
 16 19  1  0
 19 20  1  0
 19 21  1  0
  2 22  1  0
 22 23  1  0
 22 24  1  0
 24 25  2  0
 25 26  1  0
 25 27  1  0
 27 28  1  0
 27 29  2  0
 29 30  1  0
 29 31  1  0
 31 32  1  0
 31 33  2  0
 33 34  1  0
 34 35  2  0
 34 36  1  0
 36 37  1  0
 36 38  1  0
 19  3  1  0
 33 24  1  0
 13  5  1  0
M  END
>  <cnnaffinity>  (1) 
-4.96881

>  <filename>  (1) 
[H]C(=C1C(c2c([H])nc([H])c([H])c2[H])=NC([H])([H])C1([H])[H])N([H])c1c([H])c([H])c([H])c([H])c1C(=O)N([H])[H]

$$$$
