
     RDKit          3D

 49 51  0  0  0  0  0  0  0  0999 V2000
    4.2653   -4.5663   25.6850 C   0  0  0  0  0  0  0  0  0  0  0  0
    4.0223   -3.0605   25.7607 C   0  0  0  0  0  0  0  0  0  0  0  0
    4.6552   -2.2569   27.2951 S   0  0  0  0  0  0  0  0  0  0  0  0
    4.2151   -3.1497   28.4189 O   0  0  0  0  0  0  0  0  0  0  0  0
    6.4174   -2.5789   26.9939 C   0  0  0  0  0  0  0  0  0  0  0  0
    6.8985   -3.8156   27.4433 C   0  0  0  0  0  0  0  0  0  0  0  0
    8.1792   -4.2353   27.1009 C   0  0  0  0  0  0  0  0  0  0  0  0
    9.0278   -3.3818   26.3828 C   0  0  0  0  0  0  0  0  0  0  0  0
    8.5910   -2.0992   26.0520 C   0  0  0  0  0  0  0  0  0  0  0  0
    7.2786   -1.6671   26.3454 C   0  0  0  0  0  0  0  0  0  0  0  0
    6.8205   -0.2748   25.9915 C   0  0  0  0  0  0  0  0  0  0  0  0
    5.7868    0.2326   26.3632 O   0  0  0  0  0  0  0  0  0  0  0  0
    7.6922    0.3396   25.1724 O   0  0  0  0  0  0  0  0  0  0  0  0
    7.2612    1.5453   24.5166 C   0  0  0  0  0  0  0  0  0  0  0  0
    8.3009    1.8583   23.4766 C   0  0  0  0  0  0  0  0  0  0  0  0
    9.1993    2.9115   23.6494 C   0  0  0  0  0  0  0  0  0  0  0  0
   10.2113    3.1433   22.7151 C   0  0  0  0  0  0  0  0  0  0  0  0
   11.3265    4.4543   22.9779 Cl  0  0  0  0  0  0  0  0  0  0  0  0
   10.3214    2.3429   21.5799 C   0  0  0  0  0  0  0  0  0  0  0  0
    9.4134    1.2941   21.3786 C   0  0  0  0  0  0  0  0  0  0  0  0
    8.4070    1.0481   22.3216 C   0  0  0  0  0  0  0  0  0  0  0  0
    7.4813    0.0467   22.2192 O   0  0  0  0  0  0  0  0  0  0  0  0
    7.3482   -0.7228   21.0329 C   0  0  0  0  0  0  0  0  0  0  0  0
    6.6776    0.0195   19.8907 C   0  0  0  0  0  0  0  0  0  0  0  0
    5.4804    0.7280   20.0909 C   0  0  0  0  0  0  0  0  0  0  0  0
    4.8867    1.3668   19.0012 C   0  0  0  0  0  0  0  0  0  0  0  0
    5.5075    1.2848   17.7504 C   0  0  0  0  0  0  0  0  0  0  0  0
    6.6536    0.6217   17.5383 N   0  0  0  0  0  0  0  0  0  0  0  0
    7.2165    0.0200   18.5963 C   0  0  0  0  0  0  0  0  0  0  0  0
    8.1521   -0.5052   18.3913 H   0  0  0  0  0  0  0  0  0  0  0  0
    5.0603    1.7650   16.8808 H   0  0  0  0  0  0  0  0  0  0  0  0
    3.9674    1.9351   19.1063 H   0  0  0  0  0  0  0  0  0  0  0  0
    5.0283    0.7789   21.0848 H   0  0  0  0  0  0  0  0  0  0  0  0
    6.7298   -1.5686   21.3520 H   0  0  0  0  0  0  0  0  0  0  0  0
    8.3153   -1.1480   20.7304 H   0  0  0  0  0  0  0  0  0  0  0  0
    9.4812    0.6689   20.4950 H   0  0  0  0  0  0  0  0  0  0  0  0
   11.1008    2.5490   20.8535 H   0  0  0  0  0  0  0  0  0  0  0  0
    9.1300    3.5687   24.5126 H   0  0  0  0  0  0  0  0  0  0  0  0
    6.2803    1.3795   24.0568 H   0  0  0  0  0  0  0  0  0  0  0  0
    7.1723    2.3418   25.2605 H   0  0  0  0  0  0  0  0  0  0  0  0
    9.2649   -1.4151   25.5452 H   0  0  0  0  0  0  0  0  0  0  0  0
   10.0338   -3.6937   26.1114 H   0  0  0  0  0  0  0  0  0  0  0  0
    8.5018   -5.2187   27.4251 H   0  0  0  0  0  0  0  0  0  0  0  0
    6.2408   -4.4497   28.0361 H   0  0  0  0  0  0  0  0  0  0  0  0
    4.4358   -2.5071   24.9125 H   0  0  0  0  0  0  0  0  0  0  0  0
    2.9432   -2.8732   25.8070 H   0  0  0  0  0  0  0  0  0  0  0  0
    4.0373   -5.0219   26.6536 H   0  0  0  0  0  0  0  0  0  0  0  0
    3.6207   -5.0086   24.9208 H   0  0  0  0  0  0  0  0  0  0  0  0
    5.3014   -4.8179   25.4367 H   0  0  0  0  0  0  0  0  0  0  0  0
  1  2  1  0
  2  3  1  0
  3  4  2  0
  3  5  1  0
  5  6  2  0
  6  7  1  0
  7  8  2  0
  8  9  1  0
  9 10  2  0
 10 11  1  0
 11 12  2  0
 11 13  1  0
 13 14  1  0
 14 15  1  0
 15 16  2  0
 16 17  1  0
 17 18  1  0
 17 19  2  0
 19 20  1  0
 20 21  2  0
 21 22  1  0
 22 23  1  0
 23 24  1  0
 24 25  2  0
 25 26  1  0
 26 27  2  0
 27 28  1  0
 28 29  2  0
 29 30  1  0
 27 31  1  0
 26 32  1  0
 25 33  1  0
 23 34  1  0
 23 35  1  0
 20 36  1  0
 19 37  1  0
 16 38  1  0
 14 39  1  0
 14 40  1  0
  9 41  1  0
  8 42  1  0
  7 43  1  0
  6 44  1  0
  2 45  1  0
  2 46  1  0
  1 47  1  0
  1 48  1  0
  1 49  1  0
 10  5  1  0
 21 15  1  0
 29 24  1  0
M  END
>  <cnnaffinity>  (1) 
-5.36652

>  <filename>  (1) 
[H]c1nc([H])c(C([H])([H])Oc2c([H])c([H])c(Cl)c([H])c2C([H])([H])OC(=O)c2c([H])c([H])c([H])c([H])c2S(=O)C([H])([H])C([H])([H])[H])c([H])c1[H]

$$$$
