
     RDKit          3D

 40 42  0  0  0  0  0  0  0  0999 V2000
    4.9767    1.8331   16.9757 H   0  0  0  0  0  0  0  0  0  0  0  0
    5.4223    1.2988   17.8132 C   0  0  0  0  0  0  0  0  0  0  0  0
    6.5748    0.6584   17.5603 N   0  0  0  0  0  0  0  0  0  0  0  0
    7.1483    0.0092   18.5733 C   0  0  0  0  0  0  0  0  0  0  0  0
    8.0826   -0.5098   18.3669 H   0  0  0  0  0  0  0  0  0  0  0  0
    6.6287   -0.0285   19.8733 C   0  0  0  0  0  0  0  0  0  0  0  0
    7.4500   -0.7637   20.8716 C   0  0  0  0  0  0  0  0  0  0  0  0
    8.2933   -1.5729   20.5406 O   0  0  0  0  0  0  0  0  0  0  0  0
    7.2048   -0.4422   22.3149 C   0  0  0  0  0  0  0  0  0  0  0  0
    6.2538   -0.8765   22.6322 H   0  0  0  0  0  0  0  0  0  0  0  0
    7.3144    1.0285   22.7583 C   0  0  0  0  0  0  0  0  0  0  0  0
    7.7749    1.7010   22.0268 H   0  0  0  0  0  0  0  0  0  0  0  0
    6.3935    1.4749   23.1506 H   0  0  0  0  0  0  0  0  0  0  0  0
    8.2677    0.6185   23.8029 N   0  0  0  0  0  0  0  0  0  0  0  0
    7.9751    0.8114   25.1621 N   0  0  0  0  0  0  0  0  0  0  0  0
    8.2533    1.7044   25.5362 H   0  0  0  0  0  0  0  0  0  0  0  0
    6.5363    0.5485   26.0508 S   0  0  0  0  0  0  0  0  0  0  0  0
    7.0249    0.5208   27.4094 O   0  0  0  0  0  0  0  0  0  0  0  0
    5.7718   -0.5327   25.4589 O   0  0  0  0  0  0  0  0  0  0  0  0
    5.6539    2.0803   25.8027 C   0  0  0  0  0  0  0  0  0  0  0  0
    6.1552    3.2572   26.3795 C   0  0  0  0  0  0  0  0  0  0  0  0
    7.0916    3.2787   26.9401 H   0  0  0  0  0  0  0  0  0  0  0  0
    5.4077    4.4286   26.2852 C   0  0  0  0  0  0  0  0  0  0  0  0
    5.8003    5.3433   26.7190 H   0  0  0  0  0  0  0  0  0  0  0  0
    4.1633    4.4600   25.6360 C   0  0  0  0  0  0  0  0  0  0  0  0
    3.3440    5.7270   25.5851 C   0  0  0  0  0  0  0  0  0  0  0  0
    2.7242    5.7693   24.6837 H   0  0  0  0  0  0  0  0  0  0  0  0
    3.9774    6.6207   25.5944 H   0  0  0  0  0  0  0  0  0  0  0  0
    2.6696    5.7969   26.4466 H   0  0  0  0  0  0  0  0  0  0  0  0
    3.7051    3.2725   25.0432 C   0  0  0  0  0  0  0  0  0  0  0  0
    2.7538    3.2815   24.5209 H   0  0  0  0  0  0  0  0  0  0  0  0
    4.4394    2.0887   25.1057 C   0  0  0  0  0  0  0  0  0  0  0  0
    4.0510    1.1873   24.6303 H   0  0  0  0  0  0  0  0  0  0  0  0
    8.3031   -0.7747   23.3338 C   0  0  0  0  0  0  0  0  0  0  0  0
    7.9878   -1.4697   24.1172 H   0  0  0  0  0  0  0  0  0  0  0  0
    9.2794   -1.0687   22.9349 H   0  0  0  0  0  0  0  0  0  0  0  0
    5.4192    0.6428   20.1289 C   0  0  0  0  0  0  0  0  0  0  0  0
    4.9586    0.6686   21.1212 H   0  0  0  0  0  0  0  0  0  0  0  0
    4.8087    1.3097   19.0699 C   0  0  0  0  0  0  0  0  0  0  0  0
    3.8796    1.8509   19.2048 H   0  0  0  0  0  0  0  0  0  0  0  0
  1  2  1  0
  2  3  2  0
  3  4  1  0
  4  5  1  0
  4  6  2  0
  6  7  1  0
  7  8  2  0
  7  9  1  0
  9 10  1  0
  9 11  1  0
 11 12  1  0
 11 13  1  0
 11 14  1  0
 14 15  1  0
 15 16  1  0
 15 17  1  0
 17 18  2  0
 17 19  2  0
 17 20  1  0
 20 21  2  0
 21 22  1  0
 21 23  1  0
 23 24  1  0
 23 25  2  0
 25 26  1  0
 26 27  1  0
 26 28  1  0
 26 29  1  0
 25 30  1  0
 30 31  1  0
 30 32  2  0
 32 33  1  0
 14 34  1  0
 34 35  1  0
 34 36  1  0
  6 37  1  0
 37 38  1  0
 37 39  2  0
 39 40  1  0
 39  2  1  0
 34  9  1  0
 32 20  1  0
M  END
>  <cnnaffinity>  (1) 
-4.8328

>  <filename>  (1) 
[H]c1nc([H])c(C(=O)C2([H])C([H])([H])N(N([H])S(=O)(=O)c3c([H])c([H])c(C([H])([H])[H])c([H])c3[H])C2([H])[H])c([H])c1[H]

$$$$
