
     RDKit          3D

 33 35  0  0  0  0  0  0  0  0999 V2000
    4.9130    1.7835   16.9987 H   0  0  0  0  0  0  0  0  0  0  0  0
    5.3950    1.2959   17.8416 C   0  0  0  0  0  0  0  0  0  0  0  0
    6.5552    0.6780   17.5709 N   0  0  0  0  0  0  0  0  0  0  0  0
    7.1748    0.0603   18.5801 C   0  0  0  0  0  0  0  0  0  0  0  0
    8.1218   -0.4246   18.3684 H   0  0  0  0  0  0  0  0  0  0  0  0
    6.6660    0.0009   19.8956 C   0  0  0  0  0  0  0  0  0  0  0  0
    7.3617   -0.6833   20.9281 N   0  0  0  0  0  0  0  0  0  0  0  0
    6.7857   -1.1158   21.6370 H   0  0  0  0  0  0  0  0  0  0  0  0
    8.7275   -0.6122   21.1009 C   0  0  0  0  0  0  0  0  0  0  0  0
    9.4265    0.1086   20.4152 O   0  0  0  0  0  0  0  0  0  0  0  0
    9.3282   -1.5414   22.2499 C   0  0  0  0  0  0  0  0  0  0  0  0
   10.6790   -1.3904   22.2693 F   0  0  0  0  0  0  0  0  0  0  0  0
    9.1163   -2.8511   21.8861 F   0  0  0  0  0  0  0  0  0  0  0  0
    8.7543   -1.2686   23.6183 C   0  0  0  0  0  0  0  0  0  0  0  0
    7.9020   -2.1734   24.2101 C   0  0  0  0  0  0  0  0  0  0  0  0
    7.6649   -3.1088   23.7078 H   0  0  0  0  0  0  0  0  0  0  0  0
    7.2977   -1.9819   25.4074 N   0  0  0  0  0  0  0  0  0  0  0  0
    7.5503   -0.8561   26.0357 C   0  0  0  0  0  0  0  0  0  0  0  0
    7.0783   -0.7130   27.0043 H   0  0  0  0  0  0  0  0  0  0  0  0
    8.3906    0.1800   25.5387 C   0  0  0  0  0  0  0  0  0  0  0  0
    8.6120    1.3925   26.2589 C   0  0  0  0  0  0  0  0  0  0  0  0
    8.1442    1.5324   27.2338 H   0  0  0  0  0  0  0  0  0  0  0  0
    9.4092    2.3711   25.7268 C   0  0  0  0  0  0  0  0  0  0  0  0
    9.5505    3.3008   26.2729 H   0  0  0  0  0  0  0  0  0  0  0  0
   10.0326    2.1875   24.4602 C   0  0  0  0  0  0  0  0  0  0  0  0
   10.6664    2.9747   24.0573 H   0  0  0  0  0  0  0  0  0  0  0  0
    9.8391    1.0250   23.7413 C   0  0  0  0  0  0  0  0  0  0  0  0
   10.3061    0.9026   22.7678 H   0  0  0  0  0  0  0  0  0  0  0  0
    9.0163   -0.0191   24.2729 C   0  0  0  0  0  0  0  0  0  0  0  0
    5.4449    0.6325   20.1636 C   0  0  0  0  0  0  0  0  0  0  0  0
    5.0223    0.6223   21.1724 H   0  0  0  0  0  0  0  0  0  0  0  0
    4.8113    1.3056   19.1129 C   0  0  0  0  0  0  0  0  0  0  0  0
    3.8821    1.8381   19.2650 H   0  0  0  0  0  0  0  0  0  0  0  0
  1  2  1  0
  2  3  2  0
  3  4  1  0
  4  5  1  0
  4  6  2  0
  6  7  1  0
  7  8  1  0
  7  9  1  0
  9 10  2  0
  9 11  1  0
 11 12  1  0
 11 13  1  0
 11 14  1  0
 14 15  2  0
 15 16  1  0
 15 17  1  0
 17 18  2  0
 18 19  1  0
 18 20  1  0
 20 21  2  0
 21 22  1  0
 21 23  1  0
 23 24  1  0
 23 25  2  0
 25 26  1  0
 25 27  1  0
 27 28  1  0
 27 29  2  0
  6 30  1  0
 30 31  1  0
 30 32  2  0
 32 33  1  0
 32  2  1  0
 29 14  1  0
 29 20  1  0
M  END
>  <cnnaffinity>  (1) 
-5.62223

>  <filename>  (1) 
[H]c1nc([H])c(N([H])C(=O)C(F)(F)c2c([H])nc([H])c3c([H])c([H])c([H])c([H])c23)c([H])c1[H]

$$$$
