
     RDKit          3D

 39 42  0  0  0  0  0  0  0  0999 V2000
    5.0873    1.8870   16.9304 H   0  0  0  0  0  0  0  0  0  0  0  0
    5.5050    1.3538   17.7819 C   0  0  0  0  0  0  0  0  0  0  0  0
    6.6612    0.7057   17.5728 N   0  0  0  0  0  0  0  0  0  0  0  0
    7.1914    0.0463   18.6136 C   0  0  0  0  0  0  0  0  0  0  0  0
    8.1267   -0.4651   18.4109 H   0  0  0  0  0  0  0  0  0  0  0  0
    6.6290   -0.0245   19.9211 C   0  0  0  0  0  0  0  0  0  0  0  0
    7.1927   -0.7626   20.9577 N   0  0  0  0  0  0  0  0  0  0  0  0
    6.9660   -0.4413   22.3879 C   0  0  0  0  0  0  0  0  0  0  0  0
    6.0740   -0.9457   22.7592 H   0  0  0  0  0  0  0  0  0  0  0  0
    6.8762    0.6380   22.5744 H   0  0  0  0  0  0  0  0  0  0  0  0
    8.2385   -1.0271   23.0477 C   0  0  2  0  0  0  0  0  0  0  0  0
    8.1310   -1.2258   24.1195 H   0  0  0  0  0  0  0  0  0  0  0  0
    9.4338   -0.2131   22.7331 N   0  0  0  0  0  0  0  0  0  0  0  0
    9.5109    1.1495   23.2495 C   0  0  0  0  0  0  0  0  0  0  0  0
    8.8260    1.8373   22.7229 H   0  0  0  0  0  0  0  0  0  0  0  0
    9.2197    1.1490   24.3063 H   0  0  0  0  0  0  0  0  0  0  0  0
   10.9176    1.7093   23.1435 C   0  0  0  0  0  0  0  0  0  0  0  0
   11.1986    2.8201   22.3313 C   0  0  0  0  0  0  0  0  0  0  0  0
   10.3611    3.3608   21.8938 H   0  0  0  0  0  0  0  0  0  0  0  0
   12.5083    3.2580   22.1210 C   0  0  0  0  0  0  0  0  0  0  0  0
   12.7067    4.0812   21.4363 H   0  0  0  0  0  0  0  0  0  0  0  0
   13.5646    2.6110   22.7740 C   0  0  0  0  0  0  0  0  0  0  0  0
   14.5891    2.9362   22.6180 H   0  0  0  0  0  0  0  0  0  0  0  0
   13.3088    1.5378   23.6309 C   0  0  0  0  0  0  0  0  0  0  0  0
   14.1071    1.0128   24.1490 H   0  0  0  0  0  0  0  0  0  0  0  0
   11.9956    1.1055   23.8140 C   0  0  0  0  0  0  0  0  0  0  0  0
   11.7229   -0.1555   24.9831 Cl  0  0  0  0  0  0  0  0  0  0  0  0
    9.6283   -0.3793   21.2708 C   0  0  0  0  0  0  0  0  0  0  0  0
    9.4809    0.5552   20.7138 H   0  0  0  0  0  0  0  0  0  0  0  0
   10.6294   -0.7675   21.0372 H   0  0  0  0  0  0  0  0  0  0  0  0
    8.5254   -1.3974   20.9034 C   0  0  1  0  0  0  0  0  0  0  0  0
    8.7161   -1.9101   19.9674 H   0  0  0  0  0  0  0  0  0  0  0  0
    8.4745   -2.2554   22.1616 C   0  0  0  0  0  0  0  0  0  0  0  0
    9.4048   -2.7804   22.3787 H   0  0  0  0  0  0  0  0  0  0  0  0
    7.6475   -2.9697   22.1481 H   0  0  0  0  0  0  0  0  0  0  0  0
    5.4031    0.6585   20.0984 C   0  0  0  0  0  0  0  0  0  0  0  0
    4.9091    0.6343   21.0695 H   0  0  0  0  0  0  0  0  0  0  0  0
    4.8486    1.3517   19.0180 C   0  0  0  0  0  0  0  0  0  0  0  0
    3.9190    1.9017   19.1306 H   0  0  0  0  0  0  0  0  0  0  0  0
  1  2  1  0
  2  3  2  0
  3  4  1  0
  4  5  1  0
  4  6  2  0
  6  7  1  0
  7  8  1  0
  8  9  1  0
  8 10  1  0
  8 11  1  0
 11 12  1  1
 11 13  1  0
 13 14  1  0
 14 15  1  0
 14 16  1  0
 14 17  1  0
 17 18  2  0
 18 19  1  0
 18 20  1  0
 20 21  1  0
 20 22  2  0
 22 23  1  0
 22 24  1  0
 24 25  1  0
 24 26  2  0
 26 27  1  0
 13 28  1  0
 28 29  1  0
 28 30  1  0
 28 31  1  0
 31 32  1  6
 31 33  1  0
 33 34  1  0
 33 35  1  0
  6 36  1  0
 36 37  1  0
 36 38  2  0
 38 39  1  0
 38  2  1  0
 31  7  1  0
 33 11  1  0
 26 17  1  0
M  END
>  <cnnaffinity>  (1) 
-5.54614

>  <filename>  (1) 
[H]c1nc([H])c(N2C([H])([H])[C@]3([H])N(C([H])([H])c4c([H])c([H])c([H])c([H])c4Cl)C([H])([H])[C@@]2([H])C3([H])[H])c([H])c1[H]

$$$$
