
     RDKit          3D

 42 45  0  0  0  0  0  0  0  0999 V2000
    6.7641   -4.3765   22.6632 C   0  0  0  0  0  0  0  0  0  0  0  0
    7.0584   -4.2128   24.0758 N   0  0  0  0  0  0  0  0  0  0  0  0
    6.8686   -5.1365   25.0768 C   0  0  0  0  0  0  0  0  0  0  0  0
    7.1690   -4.7168   26.2703 N   0  0  0  0  0  0  0  0  0  0  0  0
    7.5880   -3.4099   26.0681 C   0  0  0  0  0  0  0  0  0  0  0  0
    8.0303   -2.4655   26.9988 C   0  0  0  0  0  0  0  0  0  0  0  0
    8.3468   -1.1796   26.5701 C   0  0  0  0  0  0  0  0  0  0  0  0
    8.2688   -0.8417   25.2046 C   0  0  0  0  0  0  0  0  0  0  0  0
    7.8557   -1.7801   24.2485 C   0  0  0  0  0  0  0  0  0  0  0  0
    7.8052   -1.4307   22.8244 C   0  0  0  0  0  0  0  0  0  0  0  0
    6.9254   -0.6733   22.2104 N   0  0  0  0  0  0  0  0  0  0  0  0
    7.3544   -0.6983   20.9230 C   0  0  0  0  0  0  0  0  0  0  0  0
    6.6464    0.0124   19.8791 C   0  0  0  0  0  0  0  0  0  0  0  0
    5.4328    0.6586   20.1459 C   0  0  0  0  0  0  0  0  0  0  0  0
    4.8056    1.3084   19.0919 C   0  0  0  0  0  0  0  0  0  0  0  0
    5.4127    1.2856   17.8303 C   0  0  0  0  0  0  0  0  0  0  0  0
    6.5752    0.6669   17.5715 N   0  0  0  0  0  0  0  0  0  0  0  0
    7.1829    0.0502   18.5876 C   0  0  0  0  0  0  0  0  0  0  0  0
    8.1370   -0.4322   18.3690 H   0  0  0  0  0  0  0  0  0  0  0  0
    4.9514    1.7914   16.9882 H   0  0  0  0  0  0  0  0  0  0  0  0
    3.8733    1.8409   19.2350 H   0  0  0  0  0  0  0  0  0  0  0  0
    5.0100    0.6458   21.1539 H   0  0  0  0  0  0  0  0  0  0  0  0
    8.4424   -1.4081   20.7166 N   0  0  0  0  0  0  0  0  0  0  0  0
    8.7404   -1.8699   21.9541 N   0  0  0  0  0  0  0  0  0  0  0  0
   10.0118   -2.5247   22.1959 C   0  0  0  0  0  0  0  0  0  0  0  0
   11.1124   -1.6710   22.8267 C   0  0  0  0  0  0  0  0  0  0  0  0
   11.5870   -0.4977   22.0075 C   0  0  0  0  0  0  0  0  0  0  0  0
   11.9887   -0.9370   20.7974 F   0  0  0  0  0  0  0  0  0  0  0  0
   12.6523    0.0678   22.6085 F   0  0  0  0  0  0  0  0  0  0  0  0
   10.6857    0.4719   21.8151 F   0  0  0  0  0  0  0  0  0  0  0  0
   10.8766   -1.3344   23.8405 H   0  0  0  0  0  0  0  0  0  0  0  0
   11.9884   -2.3207   22.8745 H   0  0  0  0  0  0  0  0  0  0  0  0
   10.3192   -2.8437   21.2020 H   0  0  0  0  0  0  0  0  0  0  0  0
    9.8319   -3.3862   22.8506 H   0  0  0  0  0  0  0  0  0  0  0  0
    7.5209   -3.0749   24.6992 C   0  0  0  0  0  0  0  0  0  0  0  0
    8.5455    0.1611   24.8780 H   0  0  0  0  0  0  0  0  0  0  0  0
    8.6455   -0.4249   27.2936 H   0  0  0  0  0  0  0  0  0  0  0  0
    8.1384   -2.8001   28.0153 H   0  0  0  0  0  0  0  0  0  0  0  0
    6.4909   -6.1292   24.8486 H   0  0  0  0  0  0  0  0  0  0  0  0
    6.2681   -5.3399   22.5184 H   0  0  0  0  0  0  0  0  0  0  0  0
    7.6861   -4.3561   22.0716 H   0  0  0  0  0  0  0  0  0  0  0  0
    6.1027   -3.5700   22.3305 H   0  0  0  0  0  0  0  0  0  0  0  0
  1  2  1  0
  2  3  1  0
  3  4  2  0
  4  5  1  0
  5  6  2  0
  6  7  1  0
  7  8  2  0
  8  9  1  0
  9 10  1  0
 10 11  2  0
 11 12  1  0
 12 13  1  0
 13 14  2  0
 14 15  1  0
 15 16  2  0
 16 17  1  0
 17 18  2  0
 18 19  1  0
 16 20  1  0
 15 21  1  0
 14 22  1  0
 12 23  2  0
 23 24  1  0
 24 25  1  0
 25 26  1  0
 26 27  1  0
 27 28  1  0
 27 29  1  0
 27 30  1  0
 26 31  1  0
 26 32  1  0
 25 33  1  0
 25 34  1  0
  9 35  2  0
  8 36  1  0
  7 37  1  0
  6 38  1  0
  3 39  1  0
  1 40  1  0
  1 41  1  0
  1 42  1  0
 35  2  1  0
 35  5  1  0
 24 10  1  0
 18 13  1  0
M  END
>  <cnnaffinity>  (1) 
-6.49332

>  <filename>  (1) 
[H]c1nc([H])c(-c2nc(-c3c([H])c([H])c([H])c4nc([H])n(C([H])([H])[H])c34)n(C([H])([H])C([H])([H])C(F)(F)F)n2)c([H])c1[H]

$$$$
