
     RDKit          3D

 26 28  0  0  0  0  0  0  0  0999 V2000
    4.9122    1.7783   16.9998 H   0  0  0  0  0  0  0  0  0  0  0  0
    5.4033    1.2917   17.8420 C   0  0  0  0  0  0  0  0  0  0  0  0
    6.5656    0.6734   17.5834 N   0  0  0  0  0  0  0  0  0  0  0  0
    7.1862    0.0554   18.5991 C   0  0  0  0  0  0  0  0  0  0  0  0
    8.1275   -0.4374   18.3705 H   0  0  0  0  0  0  0  0  0  0  0  0
    6.6836    0.0157   19.9131 C   0  0  0  0  0  0  0  0  0  0  0  0
    7.2744   -0.6863   20.9463 O   0  0  0  0  0  0  0  0  0  0  0  0
    8.6459   -0.7652   21.0948 C   0  0  0  0  0  0  0  0  0  0  0  0
    9.6688    0.0783   20.6259 C   0  0  0  0  0  0  0  0  0  0  0  0
    9.5554    0.9417   19.9922 H   0  0  0  0  0  0  0  0  0  0  0  0
   10.8572   -0.3088   21.0696 N   0  0  0  0  0  0  0  0  0  0  0  0
   10.6024   -1.3910   21.8194 N   0  0  0  0  0  0  0  0  0  0  0  0
   11.3793   -1.8576   22.2554 H   0  0  0  0  0  0  0  0  0  0  0  0
    9.2860   -1.7046   21.8798 C   0  0  0  0  0  0  0  0  0  0  0  0
    8.7858   -2.7821   22.6275 N   0  0  0  0  0  0  0  0  0  0  0  0
    7.4830   -3.2441   22.5973 C   0  0  0  0  0  0  0  0  0  0  0  0
    6.7248   -2.7927   21.9573 H   0  0  0  0  0  0  0  0  0  0  0  0
    7.3112   -4.2557   23.3988 N   0  0  0  0  0  0  0  0  0  0  0  0
    8.5367   -4.4645   23.9943 C   0  0  0  0  0  0  0  0  0  0  0  0
    8.6979   -5.2495   24.7204 H   0  0  0  0  0  0  0  0  0  0  0  0
    9.4568   -3.5775   23.5385 C   0  0  0  0  0  0  0  0  0  0  0  0
   10.5042   -3.4541   23.7930 H   0  0  0  0  0  0  0  0  0  0  0  0
    5.4573    0.6435   20.1699 C   0  0  0  0  0  0  0  0  0  0  0  0
    5.0252    0.6148   21.1710 H   0  0  0  0  0  0  0  0  0  0  0  0
    4.8170    1.3037   19.1144 C   0  0  0  0  0  0  0  0  0  0  0  0
    3.8814    1.8364   19.2675 H   0  0  0  0  0  0  0  0  0  0  0  0
  1  2  1  0
  2  3  2  0
  3  4  1  0
  4  5  1  0
  4  6  2  0
  6  7  1  0
  7  8  1  0
  8  9  1  0
  9 10  1  0
  9 11  2  0
 11 12  1  0
 12 13  1  0
 12 14  1  0
 14 15  1  0
 15 16  1  0
 16 17  1  0
 16 18  2  0
 18 19  1  0
 19 20  1  0
 19 21  2  0
 21 22  1  0
  6 23  1  0
 23 24  1  0
 23 25  2  0
 25 26  1  0
 25  2  1  0
 14  8  2  0
 21 15  1  0
M  END
>  <cnnaffinity>  (1) 
-5.18498

>  <filename>  (1) 
[H]c1nc([H])c(Oc2c([H])nn([H])c2-n2c([H])nc([H])c2[H])c([H])c1[H]

$$$$
