
     RDKit          3D

 38 39  0  0  0  0  0  0  0  0999 V2000
    4.9020    1.7680   17.0119 H   0  0  0  0  0  0  0  0  0  0  0  0
    5.3950    1.2903   17.8492 C   0  0  0  0  0  0  0  0  0  0  0  0
    6.5655    0.6848   17.6034 N   0  0  0  0  0  0  0  0  0  0  0  0
    7.1887    0.0559   18.5998 C   0  0  0  0  0  0  0  0  0  0  0  0
    8.1364   -0.4413   18.3852 H   0  0  0  0  0  0  0  0  0  0  0  0
    6.6767   -0.0040   19.9204 C   0  0  0  0  0  0  0  0  0  0  0  0
    7.3545   -0.6763   20.9380 N   0  0  0  0  0  0  0  0  0  0  0  0
    7.1058   -0.9177   22.3554 C   0  0  0  0  0  0  0  0  0  0  0  0
    7.1106    0.0095   22.9311 H   0  0  0  0  0  0  0  0  0  0  0  0
    6.2357   -1.5470   22.5220 H   0  0  0  0  0  0  0  0  0  0  0  0
    8.4098   -1.7261   22.5224 C   0  0  0  0  0  0  0  0  0  0  0  0
    8.2393   -2.7973   22.7468 H   0  0  0  0  0  0  0  0  0  0  0  0
    9.4690   -1.0956   23.4539 C   0  0  0  0  0  0  0  0  0  0  0  0
   10.6200   -1.0087   23.0716 O   0  0  0  0  0  0  0  0  0  0  0  0
    8.9700   -0.8085   24.7436 C   0  0  0  0  0  0  0  0  0  0  0  0
    8.0283   -1.2524   25.3567 O   0  0  0  0  0  0  0  0  0  0  0  0
    9.9698    0.1510   25.7178 N   0  0  0  0  0  0  0  0  0  0  0  0
    9.8318    0.1009   27.2740 C   0  0  0  0  0  0  0  0  0  0  0  0
    8.8896    0.0697   27.4289 H   0  0  0  0  0  0  0  0  0  0  0  0
    9.9699    0.1509   25.7177 H   0  0  0  0  0  0  0  0  0  0  0  0
   10.4065   -0.7330   27.1900 C   0  0  0  0  0  0  0  0  0  0  0  0
   11.2844   -0.8731   26.6840 H   0  0  0  0  0  0  0  0  0  0  0  0
   10.2041   -1.9176   27.1497 H   0  0  0  0  0  0  0  0  0  0  0  0
   10.1174   -0.9660   28.5203 H   0  0  0  0  0  0  0  0  0  0  0  0
   10.5796    1.5179   24.8320 C   0  0  0  0  0  0  0  0  0  0  0  0
   11.0244    2.0276   25.6283 H   0  0  0  0  0  0  0  0  0  0  0  0
   11.1630    1.0836   24.1516 H   0  0  0  0  0  0  0  0  0  0  0  0
    9.3831    2.3467   24.2532 C   0  0  0  0  0  0  0  0  0  0  0  0
    9.8598    3.2405   23.8377 H   0  0  0  0  0  0  0  0  0  0  0  0
    8.8586    1.8163   23.4284 H   0  0  0  0  0  0  0  0  0  0  0  0
    8.6333    2.6660   25.0112 H   0  0  0  0  0  0  0  0  0  0  0  0
    8.6090   -1.4276   21.0277 C   0  0  0  0  0  0  0  0  0  0  0  0
    8.5806   -2.3438   20.4474 H   0  0  0  0  0  0  0  0  0  0  0  0
    9.4740   -0.7958   20.8321 H   0  0  0  0  0  0  0  0  0  0  0  0
    5.4438    0.6519   20.1571 C   0  0  0  0  0  0  0  0  0  0  0  0
    5.0133    0.6256   21.1534 H   0  0  0  0  0  0  0  0  0  0  0  0
    4.8075    1.3134   19.1126 C   0  0  0  0  0  0  0  0  0  0  0  0
    3.8768    1.8428   19.2700 H   0  0  0  0  0  0  0  0  0  0  0  0
  1  2  1  0
  2  3  2  0
  3  4  1  0
  4  5  1  0
  4  6  2  0
  6  7  1  0
  7  8  1  0
  8  9  1  0
  8 10  1  0
  8 11  1  0
 11 12  1  0
 11 13  1  0
 13 14  2  0
 13 15  1  0
 15 16  2  0
 15 17  1  0
 17 18  1  0
 18 19  1  0
 18 20  1  0
 18 21  1  0
 21 22  1  0
 21 23  1  0
 21 24  1  0
 17 25  1  0
 25 26  1  0
 25 27  1  0
 25 28  1  0
 28 29  1  0
 28 30  1  0
 28 31  1  0
 11 32  1  0
 32 33  1  0
 32 34  1  0
  6 35  1  0
 35 36  1  0
 35 37  2  0
 37 38  1  0
 37  2  1  0
 32  7  1  0
M  END
>  <cnnaffinity>  (1) 
-4.70142

>  <filename>  (1) 
[H]c1nc([H])c(N2C([H])([H])C([H])(C(=O)C(=O)N(C([H])([H])C([H])([H])[H])C([H])([H])C([H])([H])[H])C2([H])[H])c([H])c1[H]

$$$$
