
     RDKit          3D

 29 31  0  0  0  0  0  0  0  0999 V2000
    5.2238   -1.8845   21.6834 H   0  0  0  0  0  0  0  0  0  0  0  0
    5.9504   -2.6864   21.6755 C   0  0  0  0  0  0  0  0  0  0  0  0
    7.3079   -2.3113   21.2541 C   0  0  0  0  0  0  0  0  0  0  0  0
    8.2078   -3.1302   21.2078 O   0  0  0  0  0  0  0  0  0  0  0  0
    7.5286   -0.7980   20.9823 C   0  0  0  0  0  0  0  0  0  0  0  0
    6.7293   -0.1292   19.8819 C   0  0  0  0  0  0  0  0  0  0  0  0
    7.2124   -0.0494   18.5590 C   0  0  0  0  0  0  0  0  0  0  0  0
    8.1536   -0.5379   18.3049 H   0  0  0  0  0  0  0  0  0  0  0  0
    6.6044    0.6096   17.5624 N   0  0  0  0  0  0  0  0  0  0  0  0
    5.4588    1.2423   17.8569 C   0  0  0  0  0  0  0  0  0  0  0  0
    4.9888    1.7850   17.0394 H   0  0  0  0  0  0  0  0  0  0  0  0
    4.8651    1.2145   19.1237 C   0  0  0  0  0  0  0  0  0  0  0  0
    3.9393    1.7544   19.3001 H   0  0  0  0  0  0  0  0  0  0  0  0
    5.5121    0.5166   20.1474 C   0  0  0  0  0  0  0  0  0  0  0  0
    5.1125    0.5123   21.1630 H   0  0  0  0  0  0  0  0  0  0  0  0
    8.9109   -0.2457   21.2517 C   0  0  0  0  0  0  0  0  0  0  0  0
    9.2565    0.5753   20.6209 H   0  0  0  0  0  0  0  0  0  0  0  0
    9.6813   -0.9533   21.5551 H   0  0  0  0  0  0  0  0  0  0  0  0
    7.8050    0.0471   22.2250 C   0  0  0  0  0  0  0  0  0  0  0  0
    7.3755    1.0511   22.2504 H   0  0  0  0  0  0  0  0  0  0  0  0
    7.8178   -0.4356   23.2016 H   0  0  0  0  0  0  0  0  0  0  0  0
    5.5869   -3.9124   22.1486 C   0  0  0  0  0  0  0  0  0  0  0  0
    6.3991   -5.4447   21.8271 S   0  0  0  0  0  0  0  0  0  0  0  0
    5.2476   -6.3370   22.8182 C   0  0  0  0  0  0  0  0  0  0  0  0
    5.3350   -7.8838   23.3085 S   0  0  0  0  0  0  0  0  0  0  0  0
    4.2459   -5.5036   23.2164 N   0  0  0  0  0  0  0  0  0  0  0  0
    3.5885   -5.7796   23.9301 H   0  0  0  0  0  0  0  0  0  0  0  0
    4.4452   -4.1482   23.0966 C   0  0  0  0  0  0  0  0  0  0  0  0
    3.7914   -3.3658   23.7375 O   0  0  0  0  0  0  0  0  0  0  0  0
  1  2  1  0
  2  3  1  0
  3  4  2  0
  3  5  1  0
  5  6  1  0
  6  7  2  0
  7  8  1  0
  7  9  1  0
  9 10  2  0
 10 11  1  0
 10 12  1  0
 12 13  1  0
 12 14  2  0
 14 15  1  0
  5 16  1  0
 16 17  1  0
 16 18  1  0
 16 19  1  0
 19 20  1  0
 19 21  1  0
  2 22  2  3
 22 23  1  0
 23 24  1  0
 24 25  2  0
 24 26  1  0
 26 27  1  0
 26 28  1  0
 28 29  2  0
 19  5  1  0
 28 22  1  0
 14  6  1  0
M  END
>  <cnnaffinity>  (1) 
-4.84223

>  <filename>  (1) 
[H]C(C(=O)C1(c2c([H])nc([H])c([H])c2[H])C([H])([H])C1([H])[H])=C1SC(=S)N([H])C1=O

$$$$
