
     RDKit          3D

 32 35  0  0  0  0  0  0  0  0999 V2000
    4.9547    1.8013   17.0136 H   0  0  0  0  0  0  0  0  0  0  0  0
    5.4288    1.2863   17.8445 C   0  0  0  0  0  0  0  0  0  0  0  0
    6.5803    0.6542   17.5668 N   0  0  0  0  0  0  0  0  0  0  0  0
    7.2053    0.0212   18.5681 C   0  0  0  0  0  0  0  0  0  0  0  0
    8.1475   -0.4783   18.3377 H   0  0  0  0  0  0  0  0  0  0  0  0
    6.7061   -0.0011   19.8810 C   0  0  0  0  0  0  0  0  0  0  0  0
    7.3098   -0.6680   20.9179 O   0  0  0  0  0  0  0  0  0  0  0  0
    8.6713   -0.6999   21.0621 C   0  0  0  0  0  0  0  0  0  0  0  0
    9.6965    0.1562   20.6294 C   0  0  0  0  0  0  0  0  0  0  0  0
    9.6332    1.0274   19.9978 H   0  0  0  0  0  0  0  0  0  0  0  0
   10.8762   -0.2535   21.0836 N   0  0  0  0  0  0  0  0  0  0  0  0
   10.6089   -1.3447   21.7892 N   0  0  0  0  0  0  0  0  0  0  0  0
   11.3520   -1.8657   22.2275 H   0  0  0  0  0  0  0  0  0  0  0  0
    9.2902   -1.6728   21.8230 C   0  0  0  0  0  0  0  0  0  0  0  0
    8.6935   -2.7712   22.5480 C   0  0  0  0  0  0  0  0  0  0  0  0
    9.4974   -3.5996   23.2971 O   0  0  0  0  0  0  0  0  0  0  0  0
    8.6540   -4.4582   23.9325 C   0  0  0  0  0  0  0  0  0  0  0  0
    9.0191   -5.4661   24.8295 C   0  0  0  0  0  0  0  0  0  0  0  0
   10.0551   -5.6755   25.0552 H   0  0  0  0  0  0  0  0  0  0  0  0
    7.9889   -6.2034   25.4098 C   0  0  0  0  0  0  0  0  0  0  0  0
    8.2339   -6.9813   26.1322 H   0  0  0  0  0  0  0  0  0  0  0  0
    6.6381   -5.9757   25.0635 C   0  0  0  0  0  0  0  0  0  0  0  0
    5.8703   -6.5976   25.5207 H   0  0  0  0  0  0  0  0  0  0  0  0
    6.2936   -5.0092   24.1244 C   0  0  0  0  0  0  0  0  0  0  0  0
    5.2601   -4.8767   23.8223 H   0  0  0  0  0  0  0  0  0  0  0  0
    7.3176   -4.2083   23.5711 C   0  0  0  0  0  0  0  0  0  0  0  0
    7.3806   -3.0971   22.6643 C   0  0  0  0  0  0  0  0  0  0  0  0
    6.5857   -2.5532   22.1766 H   0  0  0  0  0  0  0  0  0  0  0  0
    5.4890    0.6295   20.1591 C   0  0  0  0  0  0  0  0  0  0  0  0
    5.0959    0.5954   21.1759 H   0  0  0  0  0  0  0  0  0  0  0  0
    4.8375    1.2914   19.1158 C   0  0  0  0  0  0  0  0  0  0  0  0
    3.8957    1.8126   19.2762 H   0  0  0  0  0  0  0  0  0  0  0  0
  1  2  1  0
  2  3  2  0
  3  4  1  0
  4  5  1  0
  4  6  2  0
  6  7  1  0
  7  8  1  0
  8  9  1  0
  9 10  1  0
  9 11  2  0
 11 12  1  0
 12 13  1  0
 12 14  1  0
 14 15  1  0
 15 16  1  0
 16 17  1  0
 17 18  2  0
 18 19  1  0
 18 20  1  0
 20 21  1  0
 20 22  2  0
 22 23  1  0
 22 24  1  0
 24 25  1  0
 24 26  2  0
 26 27  1  0
 27 28  1  0
  6 29  1  0
 29 30  1  0
 29 31  2  0
 31 32  1  0
 31  2  1  0
 14  8  2  0
 27 15  2  0
 26 17  1  0
M  END
>  <cnnaffinity>  (1) 
-5.75856

>  <filename>  (1) 
[H]c1nc([H])c(Oc2c([H])nn([H])c2-c2oc3c([H])c([H])c([H])c([H])c3c2[H])c([H])c1[H]

$$$$
