
     RDKit          3D

 32 34  0  0  0  0  0  0  0  0999 V2000
    4.9306    1.8024   16.9846 H   0  0  0  0  0  0  0  0  0  0  0  0
    5.3944    1.2962   17.8299 C   0  0  0  0  0  0  0  0  0  0  0  0
    6.5579    0.6762   17.5846 N   0  0  0  0  0  0  0  0  0  0  0  0
    7.1760    0.0650   18.5990 C   0  0  0  0  0  0  0  0  0  0  0  0
    8.1321   -0.3850   18.3412 H   0  0  0  0  0  0  0  0  0  0  0  0
    6.6641    0.0191   19.9139 C   0  0  0  0  0  0  0  0  0  0  0  0
    7.3489   -0.6307   20.9727 N   0  0  0  0  0  0  0  0  0  0  0  0
    8.1994   -1.6975   20.8792 C   0  0  0  0  0  0  0  0  0  0  0  0
    8.5342   -2.0071   19.9112 H   0  0  0  0  0  0  0  0  0  0  0  0
    8.6215   -2.1173   22.0411 N   0  0  0  0  0  0  0  0  0  0  0  0
    8.0537   -1.2640   22.9542 C   0  0  0  0  0  0  0  0  0  0  0  0
    8.3473   -1.3749   24.4276 C   0  0  0  0  0  0  0  0  0  0  0  0
    9.0139   -0.5660   24.7511 H   0  0  0  0  0  0  0  0  0  0  0  0
    8.8383   -2.3433   24.6171 H   0  0  0  0  0  0  0  0  0  0  0  0
    7.2073   -1.1947   25.2592 O   0  0  0  0  0  0  0  0  0  0  0  0
    6.1849   -2.1024   25.2178 C   0  0  0  0  0  0  0  0  0  0  0  0
    5.0441   -1.7065   25.9266 C   0  0  0  0  0  0  0  0  0  0  0  0
    5.0660   -0.7222   26.3830 H   0  0  0  0  0  0  0  0  0  0  0  0
    3.9615   -2.5721   26.0345 C   0  0  0  0  0  0  0  0  0  0  0  0
    3.0909   -2.2654   26.6076 H   0  0  0  0  0  0  0  0  0  0  0  0
    4.0105   -3.8323   25.4247 C   0  0  0  0  0  0  0  0  0  0  0  0
    3.1698   -4.5096   25.5226 H   0  0  0  0  0  0  0  0  0  0  0  0
    5.1406   -4.2114   24.6998 C   0  0  0  0  0  0  0  0  0  0  0  0
    5.1815   -5.1911   24.2318 H   0  0  0  0  0  0  0  0  0  0  0  0
    6.2356   -3.3473   24.5787 C   0  0  0  0  0  0  0  0  0  0  0  0
    7.1139   -3.6294   24.0053 H   0  0  0  0  0  0  0  0  0  0  0  0
    7.2728   -0.3419   22.3247 C   0  0  0  0  0  0  0  0  0  0  0  0
    6.7390    0.5093   22.7123 H   0  0  0  0  0  0  0  0  0  0  0  0
    5.4390    0.6497   20.1525 C   0  0  0  0  0  0  0  0  0  0  0  0
    4.9995    0.6200   21.1488 H   0  0  0  0  0  0  0  0  0  0  0  0
    4.8042    1.3062   19.0965 C   0  0  0  0  0  0  0  0  0  0  0  0
    3.8737    1.8370   19.2500 H   0  0  0  0  0  0  0  0  0  0  0  0
  1  2  1  0
  2  3  2  0
  3  4  1  0
  4  5  1  0
  4  6  2  0
  6  7  1  0
  7  8  1  0
  8  9  1  0
  8 10  2  0
 10 11  1  0
 11 12  1  0
 12 13  1  0
 12 14  1  0
 12 15  1  0
 15 16  1  0
 16 17  2  0
 17 18  1  0
 17 19  1  0
 19 20  1  0
 19 21  2  0
 21 22  1  0
 21 23  1  0
 23 24  1  0
 23 25  2  0
 25 26  1  0
 11 27  2  0
 27 28  1  0
  6 29  1  0
 29 30  1  0
 29 31  2  0
 31 32  1  0
 31  2  1  0
 27  7  1  0
 25 16  1  0
M  END
>  <cnnaffinity>  (1) 
-5.09231

>  <filename>  (1) 
[H]c1nc([H])c(-n2c([H])nc(C([H])([H])Oc3c([H])c([H])c([H])c([H])c3[H])c2[H])c([H])c1[H]

$$$$
