
     RDKit          3D

 43 44  0  0  0  0  0  0  0  0999 V2000
    4.9304    1.7950   16.9962 H   0  0  0  0  0  0  0  0  0  0  0  0
    5.3965    1.2900   17.8366 C   0  0  0  0  0  0  0  0  0  0  0  0
    6.5516    0.6616   17.5687 N   0  0  0  0  0  0  0  0  0  0  0  0
    7.1718    0.0453   18.5801 C   0  0  0  0  0  0  0  0  0  0  0  0
    8.1258   -0.4305   18.3576 H   0  0  0  0  0  0  0  0  0  0  0  0
    6.6525    0.0014   19.8908 C   0  0  0  0  0  0  0  0  0  0  0  0
    7.3351   -0.6767   20.9384 N   0  0  0  0  0  0  0  0  0  0  0  0
    6.7383   -1.6080   21.7858 C   0  0  0  0  0  0  0  0  0  0  0  0
    5.6828   -1.8170   21.7237 H   0  0  0  0  0  0  0  0  0  0  0  0
    7.6804   -2.0653   22.6400 C   0  0  0  0  0  0  0  0  0  0  0  0
    7.5438   -2.9143   23.8519 C   0  0  0  0  0  0  0  0  0  0  0  0
    8.4638   -3.4845   24.0352 H   0  0  0  0  0  0  0  0  0  0  0  0
    6.7603   -3.6573   23.6645 H   0  0  0  0  0  0  0  0  0  0  0  0
    7.1857   -2.0859   25.1021 C   0  0  0  0  0  0  0  0  0  0  0  0
    6.2406   -1.5522   24.9238 H   0  0  0  0  0  0  0  0  0  0  0  0
    7.9450   -1.3091   25.2557 H   0  0  0  0  0  0  0  0  0  0  0  0
    7.0566   -2.9275   26.3729 C   0  0  0  0  0  0  0  0  0  0  0  0
    6.9907   -2.2633   27.2494 H   0  0  0  0  0  0  0  0  0  0  0  0
    7.9748   -3.5224   26.5107 H   0  0  0  0  0  0  0  0  0  0  0  0
    5.8486   -3.8691   26.3585 C   0  0  0  0  0  0  0  0  0  0  0  0
    4.9356   -3.2928   26.1386 H   0  0  0  0  0  0  0  0  0  0  0  0
    5.9424   -4.5933   25.5340 H   0  0  0  0  0  0  0  0  0  0  0  0
    5.6862   -4.6232   27.6801 C   0  0  0  0  0  0  0  0  0  0  0  0
    5.4934   -3.8966   28.4846 H   0  0  0  0  0  0  0  0  0  0  0  0
    6.6429   -5.1025   27.9364 H   0  0  0  0  0  0  0  0  0  0  0  0
    4.5852   -5.6912   27.6603 C   0  0  0  0  0  0  0  0  0  0  0  0
    4.5959   -6.2247   28.6218 H   0  0  0  0  0  0  0  0  0  0  0  0
    4.8396   -6.4414   26.8962 H   0  0  0  0  0  0  0  0  0  0  0  0
    3.1629   -5.1664   27.3998 C   0  0  0  0  0  0  0  0  0  0  0  0
    2.4838   -6.0279   27.3547 H   0  0  0  0  0  0  0  0  0  0  0  0
    3.1138   -4.7021   26.4040 H   0  0  0  0  0  0  0  0  0  0  0  0
    2.6672   -4.1753   28.4603 C   0  0  0  0  0  0  0  0  0  0  0  0
    2.7904   -4.5857   29.4705 H   0  0  0  0  0  0  0  0  0  0  0  0
    1.6072   -3.9344   28.3245 H   0  0  0  0  0  0  0  0  0  0  0  0
    3.2258   -3.2320   28.4272 H   0  0  0  0  0  0  0  0  0  0  0  0
    8.8430   -1.3920   22.3021 N   0  0  0  0  0  0  0  0  0  0  0  0
    9.7559   -1.3985   22.7302 H   0  0  0  0  0  0  0  0  0  0  0  0
    8.6546   -0.5040   21.2992 C   0  0  0  0  0  0  0  0  0  0  0  0
    9.8245    0.5465   20.7671 S   0  0  0  0  0  0  0  0  0  0  0  0
    5.4416    0.6455   20.1579 C   0  0  0  0  0  0  0  0  0  0  0  0
    5.0420    0.6290   21.1744 H   0  0  0  0  0  0  0  0  0  0  0  0
    4.8074    1.3099   19.1059 C   0  0  0  0  0  0  0  0  0  0  0  0
    3.8781    1.8424   19.2585 H   0  0  0  0  0  0  0  0  0  0  0  0
  1  2  1  0
  2  3  2  0
  3  4  1  0
  4  5  1  0
  4  6  2  0
  6  7  1  0
  7  8  1  0
  8  9  1  0
  8 10  2  0
 10 11  1  0
 11 12  1  0
 11 13  1  0
 11 14  1  0
 14 15  1  0
 14 16  1  0
 14 17  1  0
 17 18  1  0
 17 19  1  0
 17 20  1  0
 20 21  1  0
 20 22  1  0
 20 23  1  0
 23 24  1  0
 23 25  1  0
 23 26  1  0
 26 27  1  0
 26 28  1  0
 26 29  1  0
 29 30  1  0
 29 31  1  0
 29 32  1  0
 32 33  1  0
 32 34  1  0
 32 35  1  0
 10 36  1  0
 36 37  1  0
 36 38  1  0
 38 39  2  0
  6 40  1  0
 40 41  1  0
 40 42  2  0
 42 43  1  0
 42  2  1  0
 38  7  1  0
M  END
>  <cnnaffinity>  (1) 
-5.45424

>  <filename>  (1) 
[H]c1nc([H])c(-n2c([H])c(C([H])([H])C([H])([H])C([H])([H])C([H])([H])C([H])([H])C([H])([H])C([H])([H])C([H])([H])[H])n([H])c2=S)c([H])c1[H]

$$$$
