
     RDKit          3D

 33 35  0  0  0  0  0  0  0  0999 V2000
    4.9702    1.7761   16.9737 H   0  0  0  0  0  0  0  0  0  0  0  0
    5.4367    1.2662   17.8123 C   0  0  0  0  0  0  0  0  0  0  0  0
    6.5933    0.6312   17.5596 N   0  0  0  0  0  0  0  0  0  0  0  0
    7.2022    0.0247   18.5871 C   0  0  0  0  0  0  0  0  0  0  0  0
    8.1346   -0.4917   18.3626 H   0  0  0  0  0  0  0  0  0  0  0  0
    6.7034    0.0336   19.9124 C   0  0  0  0  0  0  0  0  0  0  0  0
    7.3922   -0.5823   20.9830 N   0  0  0  0  0  0  0  0  0  0  0  0
    7.9238   -1.4193   20.8106 H   0  0  0  0  0  0  0  0  0  0  0  0
    7.4022   -0.1631   22.2918 C   0  0  0  0  0  0  0  0  0  0  0  0
    6.9633    0.9070   22.6745 O   0  0  0  0  0  0  0  0  0  0  0  0
    8.0119   -1.1936   23.2496 C   0  0  0  0  0  0  0  0  0  0  0  0
    9.3946   -1.4614   23.0939 O   0  0  0  0  0  0  0  0  0  0  0  0
   10.2942   -0.4724   23.3953 C   0  0  0  0  0  0  0  0  0  0  0  0
   10.0024    0.6756   24.1403 C   0  0  0  0  0  0  0  0  0  0  0  0
    8.9780    0.9190   24.4079 H   0  0  0  0  0  0  0  0  0  0  0  0
   11.0567    1.5076   24.5352 C   0  0  0  0  0  0  0  0  0  0  0  0
   10.8354    2.3743   25.1472 H   0  0  0  0  0  0  0  0  0  0  0  0
   12.3720    1.2574   24.1302 C   0  0  0  0  0  0  0  0  0  0  0  0
   13.1912    1.8975   24.4378 H   0  0  0  0  0  0  0  0  0  0  0  0
   12.6163    0.1604   23.3002 C   0  0  0  0  0  0  0  0  0  0  0  0
   14.2151   -0.1692   22.7036 Cl  0  0  0  0  0  0  0  0  0  0  0  0
   11.5915   -0.6980   22.9166 C   0  0  0  0  0  0  0  0  0  0  0  0
   11.7867   -1.5474   22.2768 H   0  0  0  0  0  0  0  0  0  0  0  0
    7.4360   -1.3218   24.6276 C   0  0  0  0  0  0  0  0  0  0  0  0
    8.1458   -1.5234   25.4272 H   0  0  0  0  0  0  0  0  0  0  0  0
    6.5900   -0.6781   24.8695 H   0  0  0  0  0  0  0  0  0  0  0  0
    7.2260   -2.4136   23.6064 C   0  0  0  0  0  0  0  0  0  0  0  0
    6.2371   -2.5353   23.1725 H   0  0  0  0  0  0  0  0  0  0  0  0
    7.8007   -3.3276   23.7449 H   0  0  0  0  0  0  0  0  0  0  0  0
    5.4830    0.6748   20.1512 C   0  0  0  0  0  0  0  0  0  0  0  0
    5.0654    0.6852   21.1561 H   0  0  0  0  0  0  0  0  0  0  0  0
    4.8400    1.2932   19.0771 C   0  0  0  0  0  0  0  0  0  0  0  0
    3.8999    1.8101   19.2230 H   0  0  0  0  0  0  0  0  0  0  0  0
  1  2  1  0
  2  3  2  0
  3  4  1  0
  4  5  1  0
  4  6  2  0
  6  7  1  0
  7  8  1  0
  7  9  1  0
  9 10  2  0
  9 11  1  0
 11 12  1  0
 12 13  1  0
 13 14  2  0
 14 15  1  0
 14 16  1  0
 16 17  1  0
 16 18  2  0
 18 19  1  0
 18 20  1  0
 20 21  1  0
 20 22  2  0
 22 23  1  0
 11 24  1  0
 24 25  1  0
 24 26  1  0
 24 27  1  0
 27 28  1  0
 27 29  1  0
  6 30  1  0
 30 31  1  0
 30 32  2  0
 32 33  1  0
 32  2  1  0
 27 11  1  0
 22 13  1  0
M  END
>  <cnnaffinity>  (1) 
-5.32044

>  <filename>  (1) 
[H]c1nc([H])c(N([H])C(=O)C2(Oc3c([H])c([H])c([H])c(Cl)c3[H])C([H])([H])C2([H])[H])c([H])c1[H]

$$$$
