
     RDKit          3D

 29 31  0  0  0  0  0  0  0  0999 V2000
    4.9465    1.7867   16.9924 H   0  0  0  0  0  0  0  0  0  0  0  0
    5.4020    1.2838   17.8439 C   0  0  0  0  0  0  0  0  0  0  0  0
    6.5677    0.6574   17.6080 N   0  0  0  0  0  0  0  0  0  0  0  0
    7.1763    0.0558   18.6327 C   0  0  0  0  0  0  0  0  0  0  0  0
    8.1131   -0.4459   18.3998 H   0  0  0  0  0  0  0  0  0  0  0  0
    6.6531    0.0549   19.9422 C   0  0  0  0  0  0  0  0  0  0  0  0
    7.3445   -0.5937   21.0147 N   0  0  0  0  0  0  0  0  0  0  0  0
    8.0958   -1.7048   20.7814 N   0  0  0  0  0  0  0  0  0  0  0  0
    8.5802   -2.0736   21.9030 N   0  0  0  0  0  0  0  0  0  0  0  0
    8.1972   -1.2483   22.9074 N   0  0  0  0  0  0  0  0  0  0  0  0
    7.4306   -0.3479   22.3493 C   0  0  0  0  0  0  0  0  0  0  0  0
    6.7682    0.6575   22.9261 O   0  0  0  0  0  0  0  0  0  0  0  0
    7.0953    1.0772   24.1991 C   0  0  0  0  0  0  0  0  0  0  0  0
    6.0640    1.6263   24.8183 N   0  0  0  0  0  0  0  0  0  0  0  0
    6.2764    2.1225   26.0413 C   0  0  0  0  0  0  0  0  0  0  0  0
    5.1242    2.7691   26.7716 C   0  0  0  0  0  0  0  0  0  0  0  0
    5.3528    3.8264   26.9606 H   0  0  0  0  0  0  0  0  0  0  0  0
    4.9945    2.2840   27.7471 H   0  0  0  0  0  0  0  0  0  0  0  0
    4.1913    2.6994   26.2037 H   0  0  0  0  0  0  0  0  0  0  0  0
    7.5309    2.0734   26.6705 C   0  0  0  0  0  0  0  0  0  0  0  0
    7.6184    2.4689   27.6747 H   0  0  0  0  0  0  0  0  0  0  0  0
    8.6076    1.5041   25.9904 C   0  0  0  0  0  0  0  0  0  0  0  0
    9.5914    1.4459   26.4603 H   0  0  0  0  0  0  0  0  0  0  0  0
    8.3963    0.9970   24.7112 C   0  0  0  0  0  0  0  0  0  0  0  0
    9.1819    0.5390   24.1252 H   0  0  0  0  0  0  0  0  0  0  0  0
    5.4267    0.6790   20.1784 C   0  0  0  0  0  0  0  0  0  0  0  0
    4.9935    0.6698   21.1755 H   0  0  0  0  0  0  0  0  0  0  0  0
    4.7931    1.3091   19.1006 C   0  0  0  0  0  0  0  0  0  0  0  0
    3.8578    1.8419   19.2353 H   0  0  0  0  0  0  0  0  0  0  0  0
  1  2  1  0
  2  3  2  0
  3  4  1  0
  4  5  1  0
  4  6  2  0
  6  7  1  0
  7  8  1  0
  8  9  2  0
  9 10  1  0
 10 11  2  0
 11 12  1  0
 12 13  1  0
 13 14  2  0
 14 15  1  0
 15 16  1  0
 16 17  1  0
 16 18  1  0
 16 19  1  0
 15 20  2  0
 20 21  1  0
 20 22  1  0
 22 23  1  0
 22 24  2  0
 24 25  1  0
  6 26  1  0
 26 27  1  0
 26 28  2  0
 28 29  1  0
 28  2  1  0
 11  7  1  0
 24 13  1  0
M  END
>  <cnnaffinity>  (1) 
-4.96066

>  <filename>  (1) 
[H]c1nc([H])c(-n2nnnc2Oc2nc(C([H])([H])[H])c([H])c([H])c2[H])c([H])c1[H]

$$$$
