
     RDKit          3D

 45 48  0  0  0  0  0  0  0  0999 V2000
    9.8764   -2.0612   21.4420 O   0  0  0  0  0  0  0  0  0  0  0  0
    9.1859   -2.5479   22.3326 C   0  0  0  0  0  0  0  0  0  0  0  0
    9.8079   -2.8742   23.7074 C   0  0  0  0  0  0  0  0  0  0  0  0
    9.8749   -4.3781   24.1332 C   0  0  0  0  0  0  0  0  0  0  0  0
    9.2648   -4.5048   25.5478 C   0  0  0  0  0  0  0  0  0  0  0  0
    8.8187   -3.1030   25.8919 C   0  0  0  0  0  0  0  0  0  0  0  0
    8.1869   -2.6584   27.0507 C   0  0  0  0  0  0  0  0  0  0  0  0
    7.8316   -1.3097   27.1747 C   0  0  0  0  0  0  0  0  0  0  0  0
    8.1307   -0.4030   26.1461 C   0  0  0  0  0  0  0  0  0  0  0  0
    8.7680   -0.8502   24.9849 C   0  0  0  0  0  0  0  0  0  0  0  0
    9.1134   -2.2004   24.8717 C   0  0  0  0  0  0  0  0  0  0  0  0
    9.0039   -0.1547   24.1815 H   0  0  0  0  0  0  0  0  0  0  0  0
    7.8612    0.6458   26.2605 H   0  0  0  0  0  0  0  0  0  0  0  0
    7.3120   -0.9538   28.0599 H   0  0  0  0  0  0  0  0  0  0  0  0
    8.0024   -3.3714   27.8497 H   0  0  0  0  0  0  0  0  0  0  0  0
   10.0127   -4.8712   26.2616 H   0  0  0  0  0  0  0  0  0  0  0  0
    8.4346   -5.2219   25.5882 H   0  0  0  0  0  0  0  0  0  0  0  0
    9.3809   -5.0309   23.4162 H   0  0  0  0  0  0  0  0  0  0  0  0
   10.9141   -4.7068   24.1479 H   0  0  0  0  0  0  0  0  0  0  0  0
   10.8281   -2.4868   23.6051 H   0  0  0  0  0  0  0  0  0  0  0  0
    7.8481   -2.7901   22.1362 N   0  0  0  0  0  0  0  0  0  0  0  0
    7.0316   -3.7607   22.8629 C   0  0  0  0  0  0  0  0  0  0  0  0
    5.7993   -3.9513   21.9698 C   0  0  0  0  0  0  0  0  0  0  0  0
    5.6905   -2.6572   21.1626 C   0  0  0  0  0  0  0  0  0  0  0  0
    7.1132   -2.1084   21.0531 C   0  0  0  0  0  0  0  0  0  0  0  0
    7.2456   -0.5709   21.1056 C   0  0  0  0  0  0  0  0  0  0  0  0
    6.5616    0.1458   19.9606 C   0  0  0  0  0  0  0  0  0  0  0  0
    5.3347    0.8046   20.1151 C   0  0  0  0  0  0  0  0  0  0  0  0
    4.7342    1.4016   19.0004 C   0  0  0  0  0  0  0  0  0  0  0  0
    5.3931    1.3341   17.7684 C   0  0  0  0  0  0  0  0  0  0  0  0
    6.5758    0.7246   17.5949 N   0  0  0  0  0  0  0  0  0  0  0  0
    7.1339    0.1564   18.6714 C   0  0  0  0  0  0  0  0  0  0  0  0
    8.1034   -0.3196   18.5095 H   0  0  0  0  0  0  0  0  0  0  0  0
    4.9602    1.7933   16.8804 H   0  0  0  0  0  0  0  0  0  0  0  0
    3.7856    1.9250   19.0758 H   0  0  0  0  0  0  0  0  0  0  0  0
    4.8746    0.8705   21.1047 H   0  0  0  0  0  0  0  0  0  0  0  0
    6.8610   -0.2182   22.0713 H   0  0  0  0  0  0  0  0  0  0  0  0
    8.3176   -0.3522   21.0693 H   0  0  0  0  0  0  0  0  0  0  0  0
    7.5247   -2.4101   20.0961 H   0  0  0  0  0  0  0  0  0  0  0  0
    5.0610   -1.9263   21.6644 H   0  0  0  0  0  0  0  0  0  0  0  0
    5.2540   -2.8250   20.1745 H   0  0  0  0  0  0  0  0  0  0  0  0
    5.9490   -4.8038   21.2942 H   0  0  0  0  0  0  0  0  0  0  0  0
    4.9040   -4.1554   22.5671 H   0  0  0  0  0  0  0  0  0  0  0  0
    7.5546   -4.7115   22.9825 H   0  0  0  0  0  0  0  0  0  0  0  0
    6.7677   -3.3941   23.8646 H   0  0  0  0  0  0  0  0  0  0  0  0
  1  2  2  0
  2  3  1  0
  3  4  1  0
  4  5  1  0
  5  6  1  0
  6  7  2  0
  7  8  1  0
  8  9  2  0
  9 10  1  0
 10 11  2  0
 10 12  1  0
  9 13  1  0
  8 14  1  0
  7 15  1  0
  5 16  1  0
  5 17  1  0
  4 18  1  0
  4 19  1  0
  3 20  1  0
  2 21  1  0
 21 22  1  0
 22 23  1  0
 23 24  1  0
 24 25  1  0
 25 26  1  0
 26 27  1  0
 27 28  2  0
 28 29  1  0
 29 30  2  0
 30 31  1  0
 31 32  2  0
 32 33  1  0
 30 34  1  0
 29 35  1  0
 28 36  1  0
 26 37  1  0
 26 38  1  0
 25 39  1  0
 24 40  1  0
 24 41  1  0
 23 42  1  0
 23 43  1  0
 22 44  1  0
 22 45  1  0
 11  3  1  0
 25 21  1  0
 32 27  1  0
 11  6  1  0
M  END
>  <cnnaffinity>  (1) 
-5.57943

>  <filename>  (1) 
[H]c1nc([H])c(C([H])([H])C2([H])N(C(=O)C3([H])c4c([H])c([H])c([H])c([H])c4C([H])([H])C3([H])[H])C([H])([H])C([H])([H])C2([H])[H])c([H])c1[H]

$$$$
