
     RDKit          3D

 42 45  0  0  0  0  0  0  0  0999 V2000
   11.1323   -1.6422   22.8030 C   0  0  0  0  0  0  0  0  0  0  0  0
   10.0401   -2.5110   22.1919 C   0  0  0  0  0  0  0  0  0  0  0  0
    8.7703   -1.8410   21.9744 N   0  0  0  0  0  0  0  0  0  0  0  0
    8.4945   -1.3543   20.7458 N   0  0  0  0  0  0  0  0  0  0  0  0
    7.3710   -0.6950   20.9408 C   0  0  0  0  0  0  0  0  0  0  0  0
    6.6585    0.0100   19.8912 C   0  0  0  0  0  0  0  0  0  0  0  0
    5.4406    0.6541   20.1533 C   0  0  0  0  0  0  0  0  0  0  0  0
    4.8100    1.3039   19.0994 C   0  0  0  0  0  0  0  0  0  0  0  0
    5.4151    1.2824   17.8367 C   0  0  0  0  0  0  0  0  0  0  0  0
    6.5767    0.6622   17.5761 N   0  0  0  0  0  0  0  0  0  0  0  0
    7.1861    0.0462   18.5929 C   0  0  0  0  0  0  0  0  0  0  0  0
    8.1363   -0.4373   18.3658 H   0  0  0  0  0  0  0  0  0  0  0  0
    4.9505    1.7876   16.9948 H   0  0  0  0  0  0  0  0  0  0  0  0
    3.8763    1.8370   19.2425 H   0  0  0  0  0  0  0  0  0  0  0  0
    5.0125    0.6404   21.1583 H   0  0  0  0  0  0  0  0  0  0  0  0
    6.9095   -0.7271   22.2143 N   0  0  0  0  0  0  0  0  0  0  0  0
    7.7987   -1.4716   22.8376 C   0  0  0  0  0  0  0  0  0  0  0  0
    7.8183   -1.8430   24.3014 C   0  0  0  0  0  0  0  0  0  0  0  0
    6.5506   -2.0788   24.8901 O   0  0  0  0  0  0  0  0  0  0  0  0
    5.7440   -3.1002   24.4757 C   0  0  0  0  0  0  0  0  0  0  0  0
    6.1864   -4.1389   23.6791 C   0  0  0  0  0  0  0  0  0  0  0  0
    5.3280   -5.2194   23.3557 C   0  0  0  0  0  0  0  0  0  0  0  0
    4.0326   -5.2531   23.8067 C   0  0  0  0  0  0  0  0  0  0  0  0
    3.5247   -4.1896   24.6058 C   0  0  0  0  0  0  0  0  0  0  0  0
    2.1889   -4.1740   25.1043 C   0  0  0  0  0  0  0  0  0  0  0  0
    1.7697   -3.1137   25.8717 C   0  0  0  0  0  0  0  0  0  0  0  0
    2.6870   -2.0623   26.1458 C   0  0  0  0  0  0  0  0  0  0  0  0
    3.9233   -2.0402   25.7144 N   0  0  0  0  0  0  0  0  0  0  0  0
    4.3703   -3.0835   24.9518 C   0  0  0  0  0  0  0  0  0  0  0  0
    2.3750   -1.2130   26.7531 H   0  0  0  0  0  0  0  0  0  0  0  0
    0.7685   -3.0558   26.2770 H   0  0  0  0  0  0  0  0  0  0  0  0
    1.5355   -5.0116   24.8672 H   0  0  0  0  0  0  0  0  0  0  0  0
    3.3755   -6.0847   23.5731 H   0  0  0  0  0  0  0  0  0  0  0  0
    5.7176   -6.0322   22.7508 H   0  0  0  0  0  0  0  0  0  0  0  0
    7.2026   -4.1342   23.3008 H   0  0  0  0  0  0  0  0  0  0  0  0
    8.1982   -0.9927   24.8727 H   0  0  0  0  0  0  0  0  0  0  0  0
    8.4846   -2.6985   24.4811 H   0  0  0  0  0  0  0  0  0  0  0  0
   10.3372   -2.8106   21.1888 H   0  0  0  0  0  0  0  0  0  0  0  0
    9.8763   -3.4120   22.7996 H   0  0  0  0  0  0  0  0  0  0  0  0
   12.0378   -2.2543   22.8111 H   0  0  0  0  0  0  0  0  0  0  0  0
   10.9060   -1.3200   23.8271 H   0  0  0  0  0  0  0  0  0  0  0  0
   11.3163   -0.7530   22.1940 H   0  0  0  0  0  0  0  0  0  0  0  0
  1  2  1  0
  2  3  1  0
  3  4  1  0
  4  5  2  0
  5  6  1  0
  6  7  2  0
  7  8  1  0
  8  9  2  0
  9 10  1  0
 10 11  2  0
 11 12  1  0
  9 13  1  0
  8 14  1  0
  7 15  1  0
  5 16  1  0
 16 17  2  0
 17 18  1  0
 18 19  1  0
 19 20  1  0
 20 21  2  0
 21 22  1  0
 22 23  2  0
 23 24  1  0
 24 25  2  0
 25 26  1  0
 26 27  2  0
 27 28  1  0
 28 29  2  0
 27 30  1  0
 26 31  1  0
 25 32  1  0
 23 33  1  0
 22 34  1  0
 21 35  1  0
 18 36  1  0
 18 37  1  0
  2 38  1  0
  2 39  1  0
  1 40  1  0
  1 41  1  0
  1 42  1  0
 17  3  1  0
 29 20  1  0
 11  6  1  0
 29 24  1  0
M  END
>  <cnnaffinity>  (1) 
-5.80597

>  <filename>  (1) 
[H]c1nc([H])c(-c2nc(C([H])([H])Oc3c([H])c([H])c([H])c4c([H])c([H])c([H])nc34)n(C([H])([H])C([H])([H])[H])n2)c([H])c1[H]

$$$$
