
     RDKit          3D

 30 32  0  0  0  0  0  0  0  0999 V2000
    4.9582    1.7705   16.9926 H   0  0  0  0  0  0  0  0  0  0  0  0
    5.4112    1.2812   17.8503 C   0  0  0  0  0  0  0  0  0  0  0  0
    6.5787    0.6619   17.6183 N   0  0  0  0  0  0  0  0  0  0  0  0
    7.1802    0.0654   18.6549 C   0  0  0  0  0  0  0  0  0  0  0  0
    8.1231   -0.4405   18.4332 H   0  0  0  0  0  0  0  0  0  0  0  0
    6.6521    0.0514   19.9478 C   0  0  0  0  0  0  0  0  0  0  0  0
    7.3356   -0.6806   21.0342 C   0  0  0  0  0  0  0  0  0  0  0  0
    8.0325   -2.1560   20.9188 S   0  0  0  0  0  0  0  0  0  0  0  0
    7.2749   -0.1147   22.2785 N   0  0  0  0  0  0  0  0  0  0  0  0
    7.5338   -0.7753   22.9988 H   0  0  0  0  0  0  0  0  0  0  0  0
    7.4649    1.2447   22.5379 C   0  0  0  0  0  0  0  0  0  0  0  0
    7.8044    2.0046   21.6544 O   0  0  0  0  0  0  0  0  0  0  0  0
    7.1804    1.6332   23.9605 C   0  0  0  0  0  0  0  0  0  0  0  0
    6.3520    0.9673   24.8218 C   0  0  0  0  0  0  0  0  0  0  0  0
    5.7800    0.0519   24.6739 H   0  0  0  0  0  0  0  0  0  0  0  0
    6.1332    1.7781   26.3329 S   0  0  0  0  0  0  0  0  0  0  0  0
    7.1970    3.0691   25.8650 C   0  0  0  0  0  0  0  0  0  0  0  0
    7.5571    4.2008   26.6238 C   0  0  0  0  0  0  0  0  0  0  0  0
    7.1685    4.3538   27.6266 H   0  0  0  0  0  0  0  0  0  0  0  0
    8.4310    5.1183   26.0562 C   0  0  0  0  0  0  0  0  0  0  0  0
    8.7217    5.9957   26.6226 H   0  0  0  0  0  0  0  0  0  0  0  0
    8.9395    4.9256   24.7563 C   0  0  0  0  0  0  0  0  0  0  0  0
    9.6172    5.6604   24.3349 H   0  0  0  0  0  0  0  0  0  0  0  0
    8.5773    3.8124   24.0113 C   0  0  0  0  0  0  0  0  0  0  0  0
    8.9438    3.6605   23.0023 H   0  0  0  0  0  0  0  0  0  0  0  0
    7.6953    2.8603   24.5624 C   0  0  0  0  0  0  0  0  0  0  0  0
    5.4169    0.6879   20.1737 C   0  0  0  0  0  0  0  0  0  0  0  0
    4.9600    0.6744   21.1647 H   0  0  0  0  0  0  0  0  0  0  0  0
    4.7945    1.3173   19.1043 C   0  0  0  0  0  0  0  0  0  0  0  0
    3.8550    1.8451   19.2311 H   0  0  0  0  0  0  0  0  0  0  0  0
  1  2  1  0
  2  3  2  0
  3  4  1  0
  4  5  1  0
  4  6  2  0
  6  7  1  0
  7  8  2  0
  7  9  1  0
  9 10  1  0
  9 11  1  0
 11 12  2  0
 11 13  1  0
 13 14  2  0
 14 15  1  0
 14 16  1  0
 16 17  1  0
 17 18  2  0
 18 19  1  0
 18 20  1  0
 20 21  1  0
 20 22  2  0
 22 23  1  0
 22 24  1  0
 24 25  1  0
 24 26  2  0
  6 27  1  0
 27 28  1  0
 27 29  2  0
 29 30  1  0
 29  2  1  0
 26 13  1  0
 26 17  1  0
M  END
>  <cnnaffinity>  (1) 
-4.91783

>  <filename>  (1) 
[H]c1nc([H])c(C(=S)N([H])C(=O)c2c([H])sc3c([H])c([H])c([H])c([H])c23)c([H])c1[H]

$$$$
