
     RDKit          3D

 45 48  0  0  0  0  0  0  0  0999 V2000
    5.9813   -2.8517   26.9011 C   0  0  0  0  0  0  0  0  0  0  0  0
    6.4413   -3.4599   25.8100 C   0  0  0  0  0  0  0  0  0  0  0  0
    6.2193   -2.9447   24.4025 C   0  0  0  0  0  0  0  0  0  0  0  0
    7.0716   -1.6930   24.1019 C   0  0  0  0  0  0  0  0  0  0  0  0
    7.2518   -1.3971   22.6791 N   0  0  0  0  0  0  0  0  0  0  0  0
    6.3263   -0.6280   22.0547 N   0  0  0  0  0  0  0  0  0  0  0  0
    6.7918   -0.5188   20.8304 C   0  0  0  0  0  0  0  0  0  0  0  0
    6.1671    0.2315   19.7383 C   0  0  0  0  0  0  0  0  0  0  0  0
    4.9772    0.9741   19.8319 C   0  0  0  0  0  0  0  0  0  0  0  0
    4.5250    1.6197   18.6801 C   0  0  0  0  0  0  0  0  0  0  0  0
    5.2689    1.5153   17.4975 C   0  0  0  0  0  0  0  0  0  0  0  0
    6.4065    0.8113   17.4023 N   0  0  0  0  0  0  0  0  0  0  0  0
    6.8365    0.2003   18.5066 C   0  0  0  0  0  0  0  0  0  0  0  0
    7.7718   -0.3474   18.4297 H   0  0  0  0  0  0  0  0  0  0  0  0
    4.9514    2.0285   16.5926 H   0  0  0  0  0  0  0  0  0  0  0  0
    3.6277    2.2280   18.6879 H   0  0  0  0  0  0  0  0  0  0  0  0
    4.4431    1.0528   20.7815 H   0  0  0  0  0  0  0  0  0  0  0  0
    7.9641   -1.1727   20.6251 N   0  0  0  0  0  0  0  0  0  0  0  0
    8.2378   -1.7078   21.7973 C   0  0  0  0  0  0  0  0  0  0  0  0
    9.5148   -2.4939   22.0278 C   0  0  0  0  0  0  0  0  0  0  0  0
   10.7516   -1.6481   22.4324 C   0  0  0  0  0  0  0  0  0  0  0  0
   10.5485   -1.1571   23.8546 C   0  0  0  0  0  0  0  0  0  0  0  0
   10.4218   -2.2797   24.7460 O   0  0  0  0  0  0  0  0  0  0  0  0
    9.9028   -3.4596   24.3160 C   0  0  0  0  0  0  0  0  0  0  0  0
    9.3312   -3.6080   23.0404 C   0  0  0  0  0  0  0  0  0  0  0  0
    8.6028   -4.7607   22.7285 C   0  0  0  0  0  0  0  0  0  0  0  0
    8.6037   -5.8573   23.5953 C   0  0  0  0  0  0  0  0  0  0  0  0
    9.3168   -5.7813   24.7993 C   0  0  0  0  0  0  0  0  0  0  0  0
    9.9172   -4.5828   25.1723 C   0  0  0  0  0  0  0  0  0  0  0  0
   10.4761   -4.5019   26.3876 F   0  0  0  0  0  0  0  0  0  0  0  0
    9.3960   -6.6336   25.4688 H   0  0  0  0  0  0  0  0  0  0  0  0
    8.0727   -6.7611   23.3139 H   0  0  0  0  0  0  0  0  0  0  0  0
    8.0588   -4.7971   21.7913 H   0  0  0  0  0  0  0  0  0  0  0  0
    9.6548   -0.5217   23.9224 H   0  0  0  0  0  0  0  0  0  0  0  0
   11.3981   -0.5783   24.2266 H   0  0  0  0  0  0  0  0  0  0  0  0
   10.9414   -0.8420   21.7193 H   0  0  0  0  0  0  0  0  0  0  0  0
   11.6324   -2.3047   22.4458 H   0  0  0  0  0  0  0  0  0  0  0  0
    9.7011   -2.9156   21.0358 H   0  0  0  0  0  0  0  0  0  0  0  0
    8.0542   -1.7779   24.5670 H   0  0  0  0  0  0  0  0  0  0  0  0
    6.5786   -0.8190   24.5358 H   0  0  0  0  0  0  0  0  0  0  0  0
    6.4402   -3.7434   23.6922 H   0  0  0  0  0  0  0  0  0  0  0  0
    5.1652   -2.6758   24.2584 H   0  0  0  0  0  0  0  0  0  0  0  0
    7.0518   -4.3621   25.9086 H   0  0  0  0  0  0  0  0  0  0  0  0
    6.1494   -3.2467   27.8958 H   0  0  0  0  0  0  0  0  0  0  0  0
    5.4082   -1.9300   26.8316 H   0  0  0  0  0  0  0  0  0  0  0  0
  1  2  2  3
  2  3  1  0
  3  4  1  0
  4  5  1  0
  5  6  1  0
  6  7  2  0
  7  8  1  0
  8  9  2  0
  9 10  1  0
 10 11  2  0
 11 12  1  0
 12 13  2  0
 13 14  1  0
 11 15  1  0
 10 16  1  0
  9 17  1  0
  7 18  1  0
 18 19  2  0
 19 20  1  0
 20 21  1  0
 21 22  1  0
 22 23  1  0
 23 24  1  0
 24 25  2  0
 25 26  1  0
 26 27  2  0
 27 28  1  0
 28 29  2  0
 29 30  1  0
 28 31  1  0
 27 32  1  0
 26 33  1  0
 22 34  1  0
 22 35  1  0
 21 36  1  0
 21 37  1  0
 20 38  1  0
  4 39  1  0
  4 40  1  0
  3 41  1  0
  3 42  1  0
  2 43  1  0
  1 44  1  0
  1 45  1  0
 19  5  1  0
 25 20  1  0
 13  8  1  0
 29 24  1  0
M  END
>  <cnnaffinity>  (1) 
-6.3617

>  <filename>  (1) 
[H]C([H])=C([H])C([H])([H])C([H])([H])n1nc(-c2c([H])nc([H])c([H])c2[H])nc1C1([H])c2c([H])c([H])c([H])c(F)c2OC([H])([H])C1([H])[H]

$$$$
