
     RDKit          3D

 42 43  0  0  0  0  0  0  0  0999 V2000
    8.9954   -2.4548   21.1376 C   0  0  0  0  0  0  0  0  0  0  0  0
    7.5491   -2.0279   20.8793 C   0  0  0  0  0  0  0  0  0  0  0  0
    6.5650   -2.8317   21.7371 C   0  0  0  0  0  0  0  0  0  0  0  0
    5.5329   -2.5448   21.5126 H   0  0  0  0  0  0  0  0  0  0  0  0
    6.6804   -3.8888   21.4704 H   0  0  0  0  0  0  0  0  0  0  0  0
    6.7469   -2.7224   22.8103 H   0  0  0  0  0  0  0  0  0  0  0  0
    7.3945   -0.5677   20.9813 N   0  0  0  0  0  0  0  0  0  0  0  0
    7.7410    0.0519   22.1882 C   0  0  0  0  0  0  0  0  0  0  0  0
    7.8887   -0.5521   23.2408 O   0  0  0  0  0  0  0  0  0  0  0  0
    7.9694    1.3913   22.0767 N   0  0  0  0  0  0  0  0  0  0  0  0
    8.0249    2.2595   23.2442 C   0  0  0  0  0  0  0  0  0  0  0  0
    6.6686    2.4286   23.9395 C   0  0  0  0  0  0  0  0  0  0  0  0
    5.5750    2.8376   23.1554 C   0  0  0  0  0  0  0  0  0  0  0  0
    4.2913    2.9758   23.6895 C   0  0  0  0  0  0  0  0  0  0  0  0
    4.1052    2.7011   25.0374 C   0  0  0  0  0  0  0  0  0  0  0  0
    2.8728    2.8054   25.5613 F   0  0  0  0  0  0  0  0  0  0  0  0
    5.1591    2.3263   25.8625 C   0  0  0  0  0  0  0  0  0  0  0  0
    6.4531    2.2098   25.3206 C   0  0  0  0  0  0  0  0  0  0  0  0
    7.6196    1.8374   26.2389 C   0  0  0  0  0  0  0  0  0  0  0  0
    8.1630    0.6504   25.9133 F   0  0  0  0  0  0  0  0  0  0  0  0
    8.6182    2.7462   26.1736 F   0  0  0  0  0  0  0  0  0  0  0  0
    7.2589    1.7582   27.5298 F   0  0  0  0  0  0  0  0  0  0  0  0
    4.9498    2.1352   26.9108 H   0  0  0  0  0  0  0  0  0  0  0  0
    3.4411    3.2875   23.0914 H   0  0  0  0  0  0  0  0  0  0  0  0
    5.7400    3.0481   22.0983 H   0  0  0  0  0  0  0  0  0  0  0  0
    8.7625    1.8549   23.9408 H   0  0  0  0  0  0  0  0  0  0  0  0
    8.3834    3.2404   22.9075 H   0  0  0  0  0  0  0  0  0  0  0  0
    7.8967    1.7461   21.1421 H   0  0  0  0  0  0  0  0  0  0  0  0
    6.6913    0.0833   19.9099 C   0  0  0  0  0  0  0  0  0  0  0  0
    5.4541    0.6912   20.1488 C   0  0  0  0  0  0  0  0  0  0  0  0
    4.7950    1.3210   19.0876 C   0  0  0  0  0  0  0  0  0  0  0  0
    5.3825    1.3038   17.8192 C   0  0  0  0  0  0  0  0  0  0  0  0
    6.5469    0.6850   17.5598 N   0  0  0  0  0  0  0  0  0  0  0  0
    7.1711    0.0881   18.5804 C   0  0  0  0  0  0  0  0  0  0  0  0
    8.1104   -0.4113   18.3412 H   0  0  0  0  0  0  0  0  0  0  0  0
    4.9098    1.8084   16.9792 H   0  0  0  0  0  0  0  0  0  0  0  0
    3.8540    1.8430   19.2335 H   0  0  0  0  0  0  0  0  0  0  0  0
    5.0391    0.6472   21.1553 H   0  0  0  0  0  0  0  0  0  0  0  0
    7.2776   -2.2439   19.8397 H   0  0  0  0  0  0  0  0  0  0  0  0
    9.0943   -3.5120   20.8838 H   0  0  0  0  0  0  0  0  0  0  0  0
    9.6975   -1.8783   20.5262 H   0  0  0  0  0  0  0  0  0  0  0  0
    9.2635   -2.3201   22.1891 H   0  0  0  0  0  0  0  0  0  0  0  0
  1  2  1  0
  2  3  1  0
  3  4  1  0
  3  5  1  0
  3  6  1  0
  2  7  1  0
  7  8  1  0
  8  9  2  0
  8 10  1  0
 10 11  1  0
 11 12  1  0
 12 13  2  0
 13 14  1  0
 14 15  2  0
 15 16  1  0
 15 17  1  0
 17 18  2  0
 18 19  1  0
 19 20  1  0
 19 21  1  0
 19 22  1  0
 17 23  1  0
 14 24  1  0
 13 25  1  0
 11 26  1  0
 11 27  1  0
 10 28  1  0
  7 29  1  0
 29 30  2  0
 30 31  1  0
 31 32  2  0
 32 33  1  0
 33 34  2  0
 34 35  1  0
 32 36  1  0
 31 37  1  0
 30 38  1  0
  2 39  1  0
  1 40  1  0
  1 41  1  0
  1 42  1  0
 18 12  1  0
 34 29  1  0
M  END
>  <cnnaffinity>  (1) 
-5.08437

>  <filename>  (1) 
[H]c1nc([H])c(N(C(=O)N([H])C([H])([H])c2c([H])c([H])c(F)c([H])c2C(F)(F)F)C([H])(C([H])([H])[H])C([H])([H])[H])c([H])c1[H]

$$$$
