
     RDKit          3D

 29 31  0  0  0  0  0  0  0  0999 V2000
    9.3113   -4.1655   26.7293 F   0  0  0  0  0  0  0  0  0  0  0  0
    8.6189   -3.1749   26.1471 C   0  0  0  0  0  0  0  0  0  0  0  0
    7.9371   -2.3234   26.9968 C   0  0  0  0  0  0  0  0  0  0  0  0
    7.2065   -1.2554   26.4999 C   0  0  0  0  0  0  0  0  0  0  0  0
    7.1897   -1.0252   25.1319 C   0  0  0  0  0  0  0  0  0  0  0  0
    7.8920   -1.8643   24.2516 C   0  0  0  0  0  0  0  0  0  0  0  0
    7.8469   -1.4739   22.8126 C   0  0  0  0  0  0  0  0  0  0  0  0
    6.9287   -0.7711   22.2226 N   0  0  0  0  0  0  0  0  0  0  0  0
    7.3937   -0.7019   20.9409 C   0  0  0  0  0  0  0  0  0  0  0  0
    6.6556    0.0107   19.9002 C   0  0  0  0  0  0  0  0  0  0  0  0
    5.4370    0.6516   20.1673 C   0  0  0  0  0  0  0  0  0  0  0  0
    4.8088    1.3064   19.1123 C   0  0  0  0  0  0  0  0  0  0  0  0
    5.4086    1.2871   17.8450 C   0  0  0  0  0  0  0  0  0  0  0  0
    6.5706    0.6713   17.5867 N   0  0  0  0  0  0  0  0  0  0  0  0
    7.1786    0.0573   18.6028 C   0  0  0  0  0  0  0  0  0  0  0  0
    8.1238   -0.4274   18.3711 H   0  0  0  0  0  0  0  0  0  0  0  0
    4.9241    1.7748   17.0020 H   0  0  0  0  0  0  0  0  0  0  0  0
    3.8750    1.8424   19.2596 H   0  0  0  0  0  0  0  0  0  0  0  0
    5.0029    0.6325   21.1736 H   0  0  0  0  0  0  0  0  0  0  0  0
    8.5385   -1.3087   20.7518 N   0  0  0  0  0  0  0  0  0  0  0  0
    8.8415   -1.8341   21.9965 O   0  0  0  0  0  0  0  0  0  0  0  0
    8.5862   -3.0039   24.7641 C   0  0  0  0  0  0  0  0  0  0  0  0
    9.3020   -4.0011   23.8642 C   0  0  0  0  0  0  0  0  0  0  0  0
   10.4377   -3.4713   23.3899 F   0  0  0  0  0  0  0  0  0  0  0  0
    8.5315   -4.3295   22.8124 F   0  0  0  0  0  0  0  0  0  0  0  0
    9.6201   -5.1612   24.4590 F   0  0  0  0  0  0  0  0  0  0  0  0
    6.6361   -0.1821   24.7367 H   0  0  0  0  0  0  0  0  0  0  0  0
    6.6664   -0.6027   27.1797 H   0  0  0  0  0  0  0  0  0  0  0  0
    8.0292   -2.5186   28.0378 H   0  0  0  0  0  0  0  0  0  0  0  0
  1  2  1  0
  2  3  2  0
  3  4  1  0
  4  5  2  0
  5  6  1  0
  6  7  1  0
  7  8  2  0
  8  9  1  0
  9 10  1  0
 10 11  2  0
 11 12  1  0
 12 13  2  0
 13 14  1  0
 14 15  2  0
 15 16  1  0
 13 17  1  0
 12 18  1  0
 11 19  1  0
  9 20  2  0
 20 21  1  0
  6 22  2  0
 22 23  1  0
 23 24  1  0
 23 25  1  0
 23 26  1  0
  5 27  1  0
  4 28  1  0
  3 29  1  0
 22  2  1  0
 21  7  1  0
 15 10  1  0
M  END
>  <cnnaffinity>  (1) 
-5.44288

>  <filename>  (1) 
[H]c1nc([H])c(-c2noc(-c3c([H])c([H])c([H])c(F)c3C(F)(F)F)n2)c([H])c1[H]

$$$$
