
     RDKit          3D

 25 26  0  0  0  0  0  0  0  0999 V2000
   11.8490   -3.1487   23.5653 H   0  0  0  0  0  0  0  0  0  0  0  0
   10.8445   -3.0040   23.1962 C   0  0  0  0  0  0  0  0  0  0  0  0
    9.9948   -3.9548   23.5511 N   0  0  0  0  0  0  0  0  0  0  0  0
    8.8303   -3.8678   22.9385 C   0  0  0  0  0  0  0  0  0  0  0  0
    8.0144   -4.9167   23.1217 N   0  0  0  0  0  0  0  0  0  0  0  0
    7.0729   -4.5754   23.0592 H   0  0  0  0  0  0  0  0  0  0  0  0
    8.3121   -5.3373   23.9818 H   0  0  0  0  0  0  0  0  0  0  0  0
    8.3617   -2.8913   22.1858 N   0  0  0  0  0  0  0  0  0  0  0  0
    9.1942   -1.8673   21.9386 C   0  0  0  0  0  0  0  0  0  0  0  0
    8.6302   -0.6679   21.1321 C   0  0  0  0  0  0  0  0  0  0  0  0
    9.5258    0.6787   20.7905 S   0  0  0  0  0  0  0  0  0  0  0  0
    7.3314   -0.8080   20.7412 N   0  0  0  0  0  0  0  0  0  0  0  0
    6.8595   -1.6244   21.1211 H   0  0  0  0  0  0  0  0  0  0  0  0
    6.6405   -0.0430   19.7531 C   0  0  0  0  0  0  0  0  0  0  0  0
    7.1146    0.0634   18.4275 C   0  0  0  0  0  0  0  0  0  0  0  0
    8.0421   -0.4418   18.1623 H   0  0  0  0  0  0  0  0  0  0  0  0
    6.4793    0.7491   17.4713 N   0  0  0  0  0  0  0  0  0  0  0  0
    5.3394    1.3790   17.8007 C   0  0  0  0  0  0  0  0  0  0  0  0
    4.8543    1.9232   16.9963 H   0  0  0  0  0  0  0  0  0  0  0  0
    4.7842    1.3385   19.0852 C   0  0  0  0  0  0  0  0  0  0  0  0
    3.8605    1.8767   19.2840 H   0  0  0  0  0  0  0  0  0  0  0  0
    5.4452    0.6064   20.0811 C   0  0  0  0  0  0  0  0  0  0  0  0
    5.0687    0.5545   21.1021 H   0  0  0  0  0  0  0  0  0  0  0  0
   10.5195   -1.9151   22.3920 C   0  0  0  0  0  0  0  0  0  0  0  0
   11.2569   -1.1671   22.1474 H   0  0  0  0  0  0  0  0  0  0  0  0
  1  2  1  0
  2  3  2  0
  3  4  1  0
  4  5  1  0
  5  6  1  0
  5  7  1  0
  4  8  2  0
  8  9  1  0
  9 10  1  0
 10 11  2  0
 10 12  1  0
 12 13  1  0
 12 14  1  0
 14 15  2  0
 15 16  1  0
 15 17  1  0
 17 18  2  0
 18 19  1  0
 18 20  1  0
 20 21  1  0
 20 22  2  0
 22 23  1  0
  9 24  2  0
 24 25  1  0
 24  2  1  0
 22 14  1  0
M  END
>  <cnnaffinity>  (1) 
-4.9307

>  <filename>  (1) 
[H]c1nc(N([H])[H])nc(C(=S)N([H])c2c([H])nc([H])c([H])c2[H])c1[H]

$$$$
