
     RDKit          3D

 33 35  0  0  0  0  0  0  0  0999 V2000
    5.0035    1.8098   16.9686 H   0  0  0  0  0  0  0  0  0  0  0  0
    5.4439    1.2995   17.8236 C   0  0  0  0  0  0  0  0  0  0  0  0
    6.6159    0.6814   17.6064 N   0  0  0  0  0  0  0  0  0  0  0  0
    7.1839    0.0678   18.6530 C   0  0  0  0  0  0  0  0  0  0  0  0
    8.1373   -0.4214   18.4690 H   0  0  0  0  0  0  0  0  0  0  0  0
    6.6094    0.0126   19.9282 C   0  0  0  0  0  0  0  0  0  0  0  0
    7.3704   -0.6953   21.0075 C   0  0  1  0  0  0  0  0  0  0  0  0
    6.7875   -0.7001   21.9495 H   0  0  0  0  0  0  0  0  0  0  0  0
    7.5172   -2.0277   20.6475 F   0  0  0  0  0  0  0  0  0  0  0  0
    8.6764   -0.0944   21.1944 N   0  0  0  0  0  0  0  0  0  0  0  0
    9.6073   -0.9510   21.9567 C   0  0  0  0  0  0  0  0  0  0  0  0
    9.7438   -1.8928   21.4160 H   0  0  0  0  0  0  0  0  0  0  0  0
    9.1919   -1.2202   22.9496 H   0  0  0  0  0  0  0  0  0  0  0  0
   10.9723   -0.3213   22.1601 C   0  0  0  0  0  0  0  0  0  0  0  0
   12.1126   -1.1206   22.3567 C   0  0  0  0  0  0  0  0  0  0  0  0
   12.0572   -2.2063   22.2860 H   0  0  0  0  0  0  0  0  0  0  0  0
   13.3488   -0.5373   22.6362 C   0  0  0  0  0  0  0  0  0  0  0  0
   14.2193   -1.1770   22.7456 H   0  0  0  0  0  0  0  0  0  0  0  0
   13.4514    0.8513   22.7715 C   0  0  0  0  0  0  0  0  0  0  0  0
   14.4019    1.3168   23.0104 H   0  0  0  0  0  0  0  0  0  0  0  0
   12.3267    1.6516   22.5595 C   0  0  0  0  0  0  0  0  0  0  0  0
   12.4060    2.7332   22.6656 H   0  0  0  0  0  0  0  0  0  0  0  0
   11.0970    1.0805   22.1966 C   0  0  0  0  0  0  0  0  0  0  0  0
    9.9343    1.9463   21.7486 C   0  0  0  0  0  0  0  0  0  0  0  0
   10.1268    2.2492   20.7161 H   0  0  0  0  0  0  0  0  0  0  0  0
    9.8889    2.8772   22.3214 H   0  0  0  0  0  0  0  0  0  0  0  0
    8.5786    1.2430   21.8036 C   0  0  0  0  0  0  0  0  0  0  0  0
    7.8560    1.8445   21.2372 H   0  0  0  0  0  0  0  0  0  0  0  0
    8.2178    1.2029   22.8536 H   0  0  0  0  0  0  0  0  0  0  0  0
    5.3874    0.6549   20.1436 C   0  0  0  0  0  0  0  0  0  0  0  0
    4.9223    0.6673   21.1326 H   0  0  0  0  0  0  0  0  0  0  0  0
    4.7943    1.3108   19.0626 C   0  0  0  0  0  0  0  0  0  0  0  0
    3.8561    1.8445   19.1719 H   0  0  0  0  0  0  0  0  0  0  0  0
  1  2  1  0
  2  3  2  0
  3  4  1  0
  4  5  1  0
  4  6  2  0
  6  7  1  0
  7  8  1  1
  7  9  1  0
  7 10  1  0
 10 11  1  0
 11 12  1  0
 11 13  1  0
 11 14  1  0
 14 15  2  0
 15 16  1  0
 15 17  1  0
 17 18  1  0
 17 19  2  0
 19 20  1  0
 19 21  1  0
 21 22  1  0
 21 23  2  0
 23 24  1  0
 24 25  1  0
 24 26  1  0
 24 27  1  0
 27 28  1  0
 27 29  1  0
  6 30  1  0
 30 31  1  0
 30 32  2  0
 32 33  1  0
 32  2  1  0
 27 10  1  0
 23 14  1  0
M  END
>  <cnnaffinity>  (1) 
-4.95399

>  <filename>  (1) 
[H]c1nc([H])c([C@@]([H])(F)N2C([H])([H])c3c([H])c([H])c([H])c([H])c3C([H])([H])C2([H])[H])c([H])c1[H]

$$$$
