
     RDKit          3D

 34 35  0  0  0  0  0  0  0  0999 V2000
    4.9153    1.7886   16.9926 H   0  0  0  0  0  0  0  0  0  0  0  0
    5.3965    1.2978   17.8350 C   0  0  0  0  0  0  0  0  0  0  0  0
    6.5600    0.6824   17.5695 N   0  0  0  0  0  0  0  0  0  0  0  0
    7.1720    0.0606   18.5891 C   0  0  0  0  0  0  0  0  0  0  0  0
    8.1193   -0.4306   18.3767 H   0  0  0  0  0  0  0  0  0  0  0  0
    6.6618   -0.0072   19.9087 C   0  0  0  0  0  0  0  0  0  0  0  0
    7.3091   -0.7120   20.9274 N   0  0  0  0  0  0  0  0  0  0  0  0
    6.7439   -1.0151   21.7097 H   0  0  0  0  0  0  0  0  0  0  0  0
    8.7008   -0.8050   21.1062 C   0  0  0  0  0  0  0  0  0  0  0  0
    9.6969    0.1093   20.6969 C   0  0  0  0  0  0  0  0  0  0  0  0
    9.5417    1.0072   20.1166 H   0  0  0  0  0  0  0  0  0  0  0  0
   10.9110   -0.2321   21.1004 N   0  0  0  0  0  0  0  0  0  0  0  0
   10.7054   -1.3832   21.7688 N   0  0  0  0  0  0  0  0  0  0  0  0
   11.4831   -1.8660   22.1774 H   0  0  0  0  0  0  0  0  0  0  0  0
    9.4038   -1.7877   21.8019 C   0  0  0  0  0  0  0  0  0  0  0  0
    9.0022   -2.9804   22.3756 N   0  0  0  0  0  0  0  0  0  0  0  0
    9.5944   -3.4284   23.6238 C   0  0  0  0  0  0  0  0  0  0  0  0
   10.6754   -3.5515   23.4788 H   0  0  0  0  0  0  0  0  0  0  0  0
    9.2010   -4.4264   23.8495 H   0  0  0  0  0  0  0  0  0  0  0  0
    9.3379   -2.4908   24.8035 C   0  0  0  0  0  0  0  0  0  0  0  0
    9.7663   -1.5008   24.6149 H   0  0  0  0  0  0  0  0  0  0  0  0
    8.2638   -2.3666   24.9830 H   0  0  0  0  0  0  0  0  0  0  0  0
    9.7820   -2.9011   25.7166 H   0  0  0  0  0  0  0  0  0  0  0  0
    7.9187   -3.7511   21.7755 C   0  0  0  0  0  0  0  0  0  0  0  0
    7.6586   -3.2823   20.8251 H   0  0  0  0  0  0  0  0  0  0  0  0
    8.2995   -4.7553   21.5286 H   0  0  0  0  0  0  0  0  0  0  0  0
    6.6701   -3.8948   22.6466 C   0  0  0  0  0  0  0  0  0  0  0  0
    6.3048   -2.9257   23.0027 H   0  0  0  0  0  0  0  0  0  0  0  0
    6.8708   -4.5224   23.5213 H   0  0  0  0  0  0  0  0  0  0  0  0
    5.8605   -4.3702   22.0796 H   0  0  0  0  0  0  0  0  0  0  0  0
    5.4399    0.6336   20.1620 C   0  0  0  0  0  0  0  0  0  0  0  0
    5.0172    0.6229   21.1680 H   0  0  0  0  0  0  0  0  0  0  0  0
    4.8117    1.3053   19.1070 C   0  0  0  0  0  0  0  0  0  0  0  0
    3.8819    1.8371   19.2619 H   0  0  0  0  0  0  0  0  0  0  0  0
  1  2  1  0
  2  3  2  0
  3  4  1  0
  4  5  1  0
  4  6  2  0
  6  7  1  0
  7  8  1  0
  7  9  1  0
  9 10  1  0
 10 11  1  0
 10 12  2  0
 12 13  1  0
 13 14  1  0
 13 15  1  0
 15 16  1  0
 16 17  1  0
 17 18  1  0
 17 19  1  0
 17 20  1  0
 20 21  1  0
 20 22  1  0
 20 23  1  0
 16 24  1  0
 24 25  1  0
 24 26  1  0
 24 27  1  0
 27 28  1  0
 27 29  1  0
 27 30  1  0
  6 31  1  0
 31 32  1  0
 31 33  2  0
 33 34  1  0
 33  2  1  0
 15  9  2  0
M  END
>  <cnnaffinity>  (1) 
-5.26781

>  <filename>  (1) 
[H]c1nc([H])c(N([H])c2c([H])nn([H])c2N(C([H])([H])C([H])([H])[H])C([H])([H])C([H])([H])[H])c([H])c1[H]

$$$$
