
     RDKit          3D

 30 32  0  0  0  0  0  0  0  0999 V2000
    8.5624   -6.2687   27.9075 H   0  0  0  0  0  0  0  0  0  0  0  0
    7.7465   -6.0500   27.2214 C   0  0  0  0  0  0  0  0  0  0  0  0
    8.0391   -5.2206   26.2142 N   0  0  0  0  0  0  0  0  0  0  0  0
    7.0515   -4.9224   25.3515 C   0  0  0  0  0  0  0  0  0  0  0  0
    7.3845   -4.0137   24.2769 C   0  0  0  0  0  0  0  0  0  0  0  0
    7.6178   -3.2245   23.3975 C   0  0  0  0  0  0  0  0  0  0  0  0
    7.8559   -2.2583   22.4653 N   0  0  0  0  0  0  0  0  0  0  0  0
    9.0675   -1.5728   22.2901 C   0  0  0  0  0  0  0  0  0  0  0  0
   10.0755   -1.7361   22.9123 O   0  0  0  0  0  0  0  0  0  0  0  0
    8.8084   -0.5966   21.1383 C   0  0  0  0  0  0  0  0  0  0  0  0
    9.5687    0.1886   20.6348 O   0  0  0  0  0  0  0  0  0  0  0  0
    7.4880   -0.8062   20.7662 N   0  0  0  0  0  0  0  0  0  0  0  0
    6.7767   -0.0546   19.7551 C   0  0  0  0  0  0  0  0  0  0  0  0
    7.2322    0.0620   18.4210 C   0  0  0  0  0  0  0  0  0  0  0  0
    8.1728   -0.3979   18.1297 H   0  0  0  0  0  0  0  0  0  0  0  0
    6.5633    0.7197   17.4667 N   0  0  0  0  0  0  0  0  0  0  0  0
    5.4149    1.3240   17.8102 C   0  0  0  0  0  0  0  0  0  0  0  0
    4.8969    1.8611   17.0177 H   0  0  0  0  0  0  0  0  0  0  0  0
    4.8858    1.2788   19.1027 C   0  0  0  0  0  0  0  0  0  0  0  0
    3.9578    1.7928   19.3215 H   0  0  0  0  0  0  0  0  0  0  0  0
    5.5728    0.5675   20.0930 C   0  0  0  0  0  0  0  0  0  0  0  0
    5.1936    0.4757   21.1090 H   0  0  0  0  0  0  0  0  0  0  0  0
    6.9105   -1.8230   21.5269 C   0  0  0  0  0  0  0  0  0  0  0  0
    5.8151   -2.2774   21.3708 O   0  0  0  0  0  0  0  0  0  0  0  0
    5.7491   -5.4513   25.4667 C   0  0  0  0  0  0  0  0  0  0  0  0
    5.0028   -5.1903   24.7259 H   0  0  0  0  0  0  0  0  0  0  0  0
    5.4522   -6.2970   26.5378 C   0  0  0  0  0  0  0  0  0  0  0  0
    4.4523   -6.7132   26.6784 H   0  0  0  0  0  0  0  0  0  0  0  0
    6.4822   -6.6137   27.4279 C   0  0  0  0  0  0  0  0  0  0  0  0
    6.3383   -7.3105   28.2480 H   0  0  0  0  0  0  0  0  0  0  0  0
  1  2  1  0
  2  3  2  0
  3  4  1  0
  4  5  1  0
  5  6  3  0
  6  7  1  0
  7  8  1  0
  8  9  2  0
  8 10  1  0
 10 11  2  0
 10 12  1  0
 12 13  1  0
 13 14  2  0
 14 15  1  0
 14 16  1  0
 16 17  2  0
 17 18  1  0
 17 19  1  0
 19 20  1  0
 19 21  2  0
 21 22  1  0
 12 23  1  0
 23 24  2  0
  4 25  2  0
 25 26  1  0
 25 27  1  0
 27 28  1  0
 27 29  2  0
 29 30  1  0
 29  2  1  0
 23  7  1  0
 21 13  1  0
M  END
>  <cnnaffinity>  (1) 
-4.91959

>  <filename>  (1) 
[H]c1nc(C#CN2C(=O)C(=O)N(c3c([H])nc([H])c([H])c3[H])C2=O)c([H])c([H])c1[H]

$$$$
