
     RDKit          3D

 36 38  0  0  0  0  0  0  0  0999 V2000
    4.9326    1.8187   16.9864 H   0  0  0  0  0  0  0  0  0  0  0  0
    5.3956    1.3061   17.8251 C   0  0  0  0  0  0  0  0  0  0  0  0
    6.5238    0.6282   17.5475 N   0  0  0  0  0  0  0  0  0  0  0  0
    7.1366   -0.0031   18.5499 C   0  0  0  0  0  0  0  0  0  0  0  0
    8.0413   -0.5600   18.3071 H   0  0  0  0  0  0  0  0  0  0  0  0
    6.6692    0.0424   19.8796 C   0  0  0  0  0  0  0  0  0  0  0  0
    7.4047   -0.5995   20.9212 N   0  0  0  0  0  0  0  0  0  0  0  0
    8.0787   -1.7555   20.7191 N   0  0  0  0  0  0  0  0  0  0  0  0
    8.5114   -2.1494   21.8550 N   0  0  0  0  0  0  0  0  0  0  0  0
    8.1640   -1.3081   22.8543 N   0  0  0  0  0  0  0  0  0  0  0  0
    7.4970   -0.3484   22.2609 C   0  0  0  0  0  0  0  0  0  0  0  0
    6.9584    0.8160   22.8821 O   0  0  0  0  0  0  0  0  0  0  0  0
    7.3725    2.0246   22.1164 O   0  0  0  0  0  0  0  0  0  0  0  0
    7.1503    3.1388   23.0309 C   0  0  0  0  0  0  0  0  0  0  0  0
    7.9192    3.0484   23.8145 H   0  0  0  0  0  0  0  0  0  0  0  0
    5.7138    3.0523   23.6186 C   0  0  0  0  0  0  0  0  0  0  0  0
    5.7393    2.4232   24.5103 H   0  0  0  0  0  0  0  0  0  0  0  0
    5.0853    2.5168   22.8918 H   0  0  0  0  0  0  0  0  0  0  0  0
    5.0879    4.4217   23.8517 C   0  0  0  0  0  0  0  0  0  0  0  0
    5.6506    4.9953   24.6144 H   0  0  0  0  0  0  0  0  0  0  0  0
    4.0789    4.2975   24.2705 H   0  0  0  0  0  0  0  0  0  0  0  0
    4.9943    5.1393   22.5807 N   0  0  0  0  0  0  0  0  0  0  0  0
    4.6237    6.5311   22.7262 C   0  0  0  0  0  0  0  0  0  0  0  0
    4.2786    6.9276   21.7650 H   0  0  0  0  0  0  0  0  0  0  0  0
    3.7870    6.6188   23.4301 H   0  0  0  0  0  0  0  0  0  0  0  0
    5.4414    7.1828   23.0880 H   0  0  0  0  0  0  0  0  0  0  0  0
    6.0366    4.8525   21.5788 C   0  0  0  0  0  0  0  0  0  0  0  0
    6.1641    5.7223   20.9213 H   0  0  0  0  0  0  0  0  0  0  0  0
    5.6966    4.0208   20.9446 H   0  0  0  0  0  0  0  0  0  0  0  0
    7.3668    4.4291   22.2256 C   0  0  0  0  0  0  0  0  0  0  0  0
    7.6794    5.2510   22.8848 H   0  0  0  0  0  0  0  0  0  0  0  0
    8.1613    4.2741   21.4898 H   0  0  0  0  0  0  0  0  0  0  0  0
    5.4883    0.7308   20.1669 C   0  0  0  0  0  0  0  0  0  0  0  0
    5.1228    0.8095   21.1944 H   0  0  0  0  0  0  0  0  0  0  0  0
    4.8349    1.3678   19.1050 C   0  0  0  0  0  0  0  0  0  0  0  0
    3.9279    1.9444   19.2617 H   0  0  0  0  0  0  0  0  0  0  0  0
  1  2  1  0
  2  3  2  0
  3  4  1  0
  4  5  1  0
  4  6  2  0
  6  7  1  0
  7  8  1  0
  8  9  2  0
  9 10  1  0
 10 11  2  0
 11 12  1  0
 12 13  1  0
 13 14  1  0
 14 15  1  0
 14 16  1  0
 16 17  1  0
 16 18  1  0
 16 19  1  0
 19 20  1  0
 19 21  1  0
 19 22  1  0
 22 23  1  0
 23 24  1  0
 23 25  1  0
 23 26  1  0
 22 27  1  0
 27 28  1  0
 27 29  1  0
 27 30  1  0
 30 31  1  0
 30 32  1  0
  6 33  1  0
 33 34  1  0
 33 35  2  0
 35 36  1  0
 35  2  1  0
 11  7  1  0
 30 14  1  0
M  END
>  <cnnaffinity>  (1) 
-4.70273

>  <filename>  (1) 
[H]c1nc([H])c(-n2nnnc2OOC2([H])C([H])([H])C([H])([H])N(C([H])([H])[H])C([H])([H])C2([H])[H])c([H])c1[H]

$$$$
