
     RDKit          3D

 44 46  0  0  0  0  0  0  0  0999 V2000
    4.8932    2.1626   16.3341 H   0  0  0  0  0  0  0  0  0  0  0  0
    5.3036    1.6454   17.1987 C   0  0  0  0  0  0  0  0  0  0  0  0
    6.5320    1.1297   17.0406 N   0  0  0  0  0  0  0  0  0  0  0  0
    7.0911    0.5307   18.1020 C   0  0  0  0  0  0  0  0  0  0  0  0
    8.0893    0.1231   17.9405 H   0  0  0  0  0  0  0  0  0  0  0  0
    6.4703    0.3771   19.3760 C   0  0  0  0  0  0  0  0  0  0  0  0
    7.1120   -0.2243   20.4631 N   0  0  0  0  0  0  0  0  0  0  0  0
    6.3966   -1.0257   21.4563 C   0  0  0  0  0  0  0  0  0  0  0  0
    5.4151   -1.3027   21.0601 H   0  0  0  0  0  0  0  0  0  0  0  0
    6.2297   -0.4483   22.3746 H   0  0  0  0  0  0  0  0  0  0  0  0
    7.1933   -2.3032   21.7890 C   0  0  0  0  0  0  0  0  0  0  0  0
    6.6435   -2.8862   22.5328 H   0  0  0  0  0  0  0  0  0  0  0  0
    7.2216   -2.9133   20.8781 H   0  0  0  0  0  0  0  0  0  0  0  0
    8.6620   -2.0296   22.2683 C   0  0  0  0  0  0  0  0  0  0  0  0
    9.3258   -2.6325   21.6286 H   0  0  0  0  0  0  0  0  0  0  0  0
    8.9574   -2.4803   23.6983 C   0  0  0  0  0  0  0  0  0  0  0  0
   10.0643   -3.2896   23.9904 C   0  0  0  0  0  0  0  0  0  0  0  0
   10.7737   -3.5400   23.2028 H   0  0  0  0  0  0  0  0  0  0  0  0
   10.2724   -3.8419   25.2630 C   0  0  0  0  0  0  0  0  0  0  0  0
   11.1321   -4.4584   25.4868 H   0  0  0  0  0  0  0  0  0  0  0  0
    9.3366   -3.5881   26.2696 C   0  0  0  0  0  0  0  0  0  0  0  0
    9.3508   -4.1043   27.5231 O   0  0  0  0  0  0  0  0  0  0  0  0
   10.1642   -5.2003   27.8629 C   0  0  0  0  0  0  0  0  0  0  0  0
   10.3454   -5.8648   27.0144 H   0  0  0  0  0  0  0  0  0  0  0  0
   11.1281   -4.8904   28.2832 H   0  0  0  0  0  0  0  0  0  0  0  0
    9.6030   -5.7511   28.6192 H   0  0  0  0  0  0  0  0  0  0  0  0
    8.2657   -2.7309   26.0360 C   0  0  0  0  0  0  0  0  0  0  0  0
    7.5324   -2.5841   26.8186 H   0  0  0  0  0  0  0  0  0  0  0  0
    8.1183   -2.1379   24.7833 C   0  0  0  0  0  0  0  0  0  0  0  0
    7.1329   -1.2265   24.5440 O   0  0  0  0  0  0  0  0  0  0  0  0
    6.4134   -0.6910   25.6353 C   0  0  0  0  0  0  0  0  0  0  0  0
    5.6911   -1.4070   26.0481 H   0  0  0  0  0  0  0  0  0  0  0  0
    5.8849    0.1789   25.2471 H   0  0  0  0  0  0  0  0  0  0  0  0
    7.0855   -0.3761   26.4421 H   0  0  0  0  0  0  0  0  0  0  0  0
    9.0335   -0.5498   22.0017 C   0  0  0  0  0  0  0  0  0  0  0  0
   10.1179   -0.4113   22.0750 H   0  0  0  0  0  0  0  0  0  0  0  0
    8.5706    0.0958   22.7564 H   0  0  0  0  0  0  0  0  0  0  0  0
    8.5685   -0.1494   20.5972 C   0  0  0  0  0  0  0  0  0  0  0  0
    9.0592   -0.8170   19.8673 H   0  0  0  0  0  0  0  0  0  0  0  0
    8.8971    0.8671   20.3493 H   0  0  0  0  0  0  0  0  0  0  0  0
    5.1518    0.8786   19.4845 C   0  0  0  0  0  0  0  0  0  0  0  0
    4.6177    0.7842   20.4293 H   0  0  0  0  0  0  0  0  0  0  0  0
    4.5748    1.5302   18.3875 C   0  0  0  0  0  0  0  0  0  0  0  0
    3.5732    1.9476   18.4422 H   0  0  0  0  0  0  0  0  0  0  0  0
  1  2  1  0
  2  3  2  0
  3  4  1  0
  4  5  1  0
  4  6  2  0
  6  7  1  0
  7  8  1  0
  8  9  1  0
  8 10  1  0
  8 11  1  0
 11 12  1  0
 11 13  1  0
 11 14  1  0
 14 15  1  0
 14 16  1  0
 16 17  2  0
 17 18  1  0
 17 19  1  0
 19 20  1  0
 19 21  2  0
 21 22  1  0
 22 23  1  0
 23 24  1  0
 23 25  1  0
 23 26  1  0
 21 27  1  0
 27 28  1  0
 27 29  2  0
 29 30  1  0
 30 31  1  0
 31 32  1  0
 31 33  1  0
 31 34  1  0
 14 35  1  0
 35 36  1  0
 35 37  1  0
 35 38  1  0
 38 39  1  0
 38 40  1  0
  6 41  1  0
 41 42  1  0
 41 43  2  0
 43 44  1  0
 43  2  1  0
 38  7  1  0
 29 16  1  0
M  END
>  <cnnaffinity>  (1) 
-5.37599

>  <filename>  (1) 
[H]c1nc([H])c(N2C([H])([H])C([H])([H])C([H])(c3c([H])c([H])c(OC([H])([H])[H])c([H])c3OC([H])([H])[H])C([H])([H])C2([H])[H])c([H])c1[H]

$$$$
