
     RDKit          3D

 36 38  0  0  0  0  0  0  0  0999 V2000
    4.9344    1.7940   16.9844 H   0  0  0  0  0  0  0  0  0  0  0  0
    5.4004    1.2961   17.8321 C   0  0  0  0  0  0  0  0  0  0  0  0
    6.5628    0.6724   17.5825 N   0  0  0  0  0  0  0  0  0  0  0  0
    7.1591    0.0521   18.6091 C   0  0  0  0  0  0  0  0  0  0  0  0
    8.1070   -0.4319   18.3750 H   0  0  0  0  0  0  0  0  0  0  0  0
    6.6340   -0.0147   19.9118 C   0  0  0  0  0  0  0  0  0  0  0  0
    7.3493   -0.7493   20.9898 C   0  0  0  0  0  0  0  0  0  0  0  0
    8.7355   -0.6041   21.1586 C   0  0  0  0  0  0  0  0  0  0  0  0
    9.3021    0.0467   20.5104 H   0  0  0  0  0  0  0  0  0  0  0  0
    9.3604   -1.2727   22.2020 C   0  0  0  0  0  0  0  0  0  0  0  0
   10.4340   -1.1813   22.3596 H   0  0  0  0  0  0  0  0  0  0  0  0
    8.7105   -2.0608   23.0674 N   0  0  0  0  0  0  0  0  0  0  0  0
    7.4106   -2.2012   22.8981 C   0  0  0  0  0  0  0  0  0  0  0  0
    6.7476   -2.9666   23.8347 N   0  0  0  0  0  0  0  0  0  0  0  0
    5.7545   -2.8657   23.8725 H   0  0  0  0  0  0  0  0  0  0  0  0
    7.2591   -3.9135   24.6613 C   0  0  0  0  0  0  0  0  0  0  0  0
    8.5522   -4.8932   24.4325 S   0  0  0  0  0  0  0  0  0  0  0  0
    6.4622   -4.1732   25.7546 N   0  0  0  0  0  0  0  0  0  0  0  0
    6.8791   -4.9639   26.2228 H   0  0  0  0  0  0  0  0  0  0  0  0
    5.6343   -3.3238   26.5340 C   0  0  0  0  0  0  0  0  0  0  0  0
    4.6661   -3.8996   27.3723 C   0  0  0  0  0  0  0  0  0  0  0  0
    4.6232   -4.9806   27.4682 H   0  0  0  0  0  0  0  0  0  0  0  0
    3.7550   -3.0897   28.0608 C   0  0  0  0  0  0  0  0  0  0  0  0
    2.9746   -3.5449   28.6703 H   0  0  0  0  0  0  0  0  0  0  0  0
    3.8296   -1.6938   27.9532 C   0  0  0  0  0  0  0  0  0  0  0  0
    3.1064   -1.0642   28.4670 H   0  0  0  0  0  0  0  0  0  0  0  0
    4.8460   -1.1187   27.1825 C   0  0  0  0  0  0  0  0  0  0  0  0
    4.9205   -0.0348   27.0976 H   0  0  0  0  0  0  0  0  0  0  0  0
    5.7558   -1.9260   26.4910 C   0  0  0  0  0  0  0  0  0  0  0  0
    6.5726   -1.4895   25.9286 H   0  0  0  0  0  0  0  0  0  0  0  0
    6.6749   -1.5811   21.8801 C   0  0  0  0  0  0  0  0  0  0  0  0
    5.6109   -1.7478   21.7935 H   0  0  0  0  0  0  0  0  0  0  0  0
    5.4195    0.6503   20.1478 C   0  0  0  0  0  0  0  0  0  0  0  0
    4.9948    0.6529   21.1530 H   0  0  0  0  0  0  0  0  0  0  0  0
    4.7954    1.3189   19.0947 C   0  0  0  0  0  0  0  0  0  0  0  0
    3.8624    1.8564   19.2369 H   0  0  0  0  0  0  0  0  0  0  0  0
  1  2  1  0
  2  3  2  0
  3  4  1  0
  4  5  1  0
  4  6  2  0
  6  7  1  0
  7  8  2  0
  8  9  1  0
  8 10  1  0
 10 11  1  0
 10 12  2  0
 12 13  1  0
 13 14  1  0
 14 15  1  0
 14 16  1  0
 16 17  2  0
 16 18  1  0
 18 19  1  0
 18 20  1  0
 20 21  2  0
 21 22  1  0
 21 23  1  0
 23 24  1  0
 23 25  2  0
 25 26  1  0
 25 27  1  0
 27 28  1  0
 27 29  2  0
 29 30  1  0
 13 31  2  0
 31 32  1  0
  6 33  1  0
 33 34  1  0
 33 35  2  0
 35 36  1  0
 35  2  1  0
 31  7  1  0
 29 20  1  0
M  END
>  <cnnaffinity>  (1) 
-5.24521

>  <filename>  (1) 
[H]c1nc([H])c(-c2c([H])c([H])nc(N([H])C(=S)N([H])c3c([H])c([H])c([H])c([H])c3[H])c2[H])c([H])c1[H]

$$$$
