
     RDKit          3D

 29 30  0  0  0  0  0  0  0  0999 V2000
    6.9581    0.5795   22.5021 H   0  0  0  0  0  0  0  0  0  0  0  0
    7.4424   -0.3533   22.2313 C   0  0  0  0  0  0  0  0  0  0  0  0
    7.3906   -0.6797   20.9357 C   0  0  0  0  0  0  0  0  0  0  0  0
    8.1680   -1.6858   20.4678 F   0  0  0  0  0  0  0  0  0  0  0  0
    6.6276   -0.0033   19.8663 C   0  0  0  0  0  0  0  0  0  0  0  0
    7.1414    0.0296   18.5518 C   0  0  0  0  0  0  0  0  0  0  0  0
    8.0837   -0.4641   18.3283 H   0  0  0  0  0  0  0  0  0  0  0  0
    6.5475    0.6654   17.5391 N   0  0  0  0  0  0  0  0  0  0  0  0
    5.3969    1.3048   17.7995 C   0  0  0  0  0  0  0  0  0  0  0  0
    4.9541    1.8368   16.9615 H   0  0  0  0  0  0  0  0  0  0  0  0
    4.7867    1.3213   19.0596 C   0  0  0  0  0  0  0  0  0  0  0  0
    3.8577    1.8646   19.1973 H   0  0  0  0  0  0  0  0  0  0  0  0
    5.4163    0.6616   20.1159 C   0  0  0  0  0  0  0  0  0  0  0  0
    4.9729    0.6430   21.1143 H   0  0  0  0  0  0  0  0  0  0  0  0
    8.1247   -1.0694   23.3311 C   0  0  0  0  0  0  0  0  0  0  0  0
    8.6821   -0.3186   24.3821 C   0  0  0  0  0  0  0  0  0  0  0  0
    8.6167    0.7649   24.3573 H   0  0  0  0  0  0  0  0  0  0  0  0
    9.2948   -0.9552   25.4622 C   0  0  0  0  0  0  0  0  0  0  0  0
    9.7683   -0.3822   26.2532 H   0  0  0  0  0  0  0  0  0  0  0  0
    9.3181   -2.3487   25.5223 C   0  0  0  0  0  0  0  0  0  0  0  0
    9.7025   -2.8422   26.4134 H   0  0  0  0  0  0  0  0  0  0  0  0
    8.8175   -3.1139   24.4545 C   0  0  0  0  0  0  0  0  0  0  0  0
    8.9091   -4.6093   24.4469 C   0  0  0  0  0  0  0  0  0  0  0  0
    8.1978   -5.3440   23.7848 O   0  0  0  0  0  0  0  0  0  0  0  0
    9.8500   -5.1727   25.2679 N   0  0  0  0  0  0  0  0  0  0  0  0
    9.9039   -6.1517   25.0381 H   0  0  0  0  0  0  0  0  0  0  0  0
   10.7217   -4.6893   25.4016 H   0  0  0  0  0  0  0  0  0  0  0  0
    8.2075   -2.4671   23.3677 C   0  0  0  0  0  0  0  0  0  0  0  0
    7.7629   -3.0435   22.5591 H   0  0  0  0  0  0  0  0  0  0  0  0
  1  2  1  0
  2  3  2  3
  3  4  1  0
  3  5  1  0
  5  6  2  0
  6  7  1  0
  6  8  1  0
  8  9  2  0
  9 10  1  0
  9 11  1  0
 11 12  1  0
 11 13  2  0
 13 14  1  0
  2 15  1  0
 15 16  2  0
 16 17  1  0
 16 18  1  0
 18 19  1  0
 18 20  2  0
 20 21  1  0
 20 22  1  0
 22 23  1  0
 23 24  2  0
 23 25  1  0
 25 26  1  0
 25 27  1  0
 22 28  2  0
 28 29  1  0
 13  5  1  0
 28 15  1  0
M  END
>  <cnnaffinity>  (1) 
-4.77483

>  <filename>  (1) 
[H]C(=C(F)c1c([H])nc([H])c([H])c1[H])c1c([H])c([H])c([H])c(C(=O)N([H])[H])c1[H]

$$$$
