
     RDKit          3D

 34 36  0  0  0  0  0  0  0  0999 V2000
    5.5464   -8.5583   24.1096 H   0  0  0  0  0  0  0  0  0  0  0  0
    4.9229   -7.6725   24.1624 C   0  0  0  0  0  0  0  0  0  0  0  0
    5.4616   -6.5558   23.6564 N   0  0  0  0  0  0  0  0  0  0  0  0
    4.6998   -5.4430   23.6322 C   0  0  0  0  0  0  0  0  0  0  0  0
    5.2200   -4.2022   22.8710 C   0  0  0  0  0  0  0  0  0  0  0  0
    4.4517   -3.4992   22.2312 O   0  0  0  0  0  0  0  0  0  0  0  0
    6.5662   -3.9352   22.9936 N   0  0  0  0  0  0  0  0  0  0  0  0
    7.1153   -4.6393   23.4600 H   0  0  0  0  0  0  0  0  0  0  0  0
    7.2544   -2.8207   22.4716 C   0  0  0  0  0  0  0  0  0  0  0  0
    8.5640   -2.5010   22.9529 C   0  0  0  0  0  0  0  0  0  0  0  0
    9.0201   -3.1406   23.7104 H   0  0  0  0  0  0  0  0  0  0  0  0
    9.2366   -1.4141   22.4733 C   0  0  0  0  0  0  0  0  0  0  0  0
   10.2234   -1.1339   22.8129 H   0  0  0  0  0  0  0  0  0  0  0  0
    8.7054   -0.5595   21.4111 C   0  0  0  0  0  0  0  0  0  0  0  0
    9.3031    0.3743   20.9110 O   0  0  0  0  0  0  0  0  0  0  0  0
    7.3839   -0.9536   20.9755 N   0  0  0  0  0  0  0  0  0  0  0  0
    6.6958   -0.2452   19.9298 C   0  0  0  0  0  0  0  0  0  0  0  0
    7.1709   -0.2241   18.6048 C   0  0  0  0  0  0  0  0  0  0  0  0
    8.0598   -0.7999   18.3483 H   0  0  0  0  0  0  0  0  0  0  0  0
    6.5776    0.4707   17.6254 N   0  0  0  0  0  0  0  0  0  0  0  0
    5.4707    1.1677   17.9356 C   0  0  0  0  0  0  0  0  0  0  0  0
    5.0224    1.7375   17.1237 H   0  0  0  0  0  0  0  0  0  0  0  0
    4.8825    1.1546   19.2077 C   0  0  0  0  0  0  0  0  0  0  0  0
    3.9706    1.7132   19.3952 H   0  0  0  0  0  0  0  0  0  0  0  0
    5.4893    0.4030   20.2174 C   0  0  0  0  0  0  0  0  0  0  0  0
    5.0557    0.3009   21.2157 H   0  0  0  0  0  0  0  0  0  0  0  0
    6.6984   -2.0193   21.5182 C   0  0  0  0  0  0  0  0  0  0  0  0
    5.6970   -2.2044   21.1621 H   0  0  0  0  0  0  0  0  0  0  0  0
    3.4312   -5.3881   24.2343 C   0  0  0  0  0  0  0  0  0  0  0  0
    2.8806   -4.4532   24.2150 H   0  0  0  0  0  0  0  0  0  0  0  0
    2.8990   -6.5518   24.7899 C   0  0  0  0  0  0  0  0  0  0  0  0
    1.9056   -6.5438   25.2325 H   0  0  0  0  0  0  0  0  0  0  0  0
    3.6493   -7.7279   24.7361 C   0  0  0  0  0  0  0  0  0  0  0  0
    3.2420   -8.6522   25.1337 H   0  0  0  0  0  0  0  0  0  0  0  0
  1  2  1  0
  2  3  2  0
  3  4  1  0
  4  5  1  0
  5  6  2  0
  5  7  1  0
  7  8  1  0
  7  9  1  0
  9 10  1  0
 10 11  1  0
 10 12  2  0
 12 13  1  0
 12 14  1  0
 14 15  2  0
 14 16  1  0
 16 17  1  0
 17 18  2  0
 18 19  1  0
 18 20  1  0
 20 21  2  0
 21 22  1  0
 21 23  1  0
 23 24  1  0
 23 25  2  0
 25 26  1  0
 16 27  1  0
 27 28  1  0
  4 29  2  0
 29 30  1  0
 29 31  1  0
 31 32  1  0
 31 33  2  0
 33 34  1  0
 33  2  1  0
 27  9  2  0
 25 17  1  0
M  END
>  <cnnaffinity>  (1) 
-5.61725

>  <filename>  (1) 
[H]c1nc(C(=O)N([H])c2c([H])c([H])c(=O)n(-c3c([H])nc([H])c([H])c3[H])c2[H])c([H])c([H])c1[H]

$$$$
