
     RDKit          3D

 35 37  0  0  0  0  0  0  0  0999 V2000
    7.3600   -3.2048   25.1551 H   0  0  0  0  0  0  0  0  0  0  0  0
    6.6721   -3.8040   24.5566 C   0  0  0  0  0  0  0  0  0  0  0  0
    6.5745   -3.5245   23.2476 C   0  0  0  0  0  0  0  0  0  0  0  0
    5.9101   -4.1213   22.6089 H   0  0  0  0  0  0  0  0  0  0  0  0
    7.3175   -2.4434   22.5771 C   0  0  0  0  0  0  0  0  0  0  0  0
    6.7288   -1.7367   21.5807 C   0  0  0  0  0  0  0  0  0  0  0  0
    5.7148   -1.9518   21.2492 H   0  0  0  0  0  0  0  0  0  0  0  0
    7.3513   -0.6807   20.9331 N   0  0  0  0  0  0  0  0  0  0  0  0
    6.6521    0.0147   19.8806 C   0  0  0  0  0  0  0  0  0  0  0  0
    7.1649    0.0608   18.5710 C   0  0  0  0  0  0  0  0  0  0  0  0
    8.1201   -0.4168   18.3559 H   0  0  0  0  0  0  0  0  0  0  0  0
    6.5446    0.6766   17.5581 N   0  0  0  0  0  0  0  0  0  0  0  0
    5.3865    1.3015   17.8274 C   0  0  0  0  0  0  0  0  0  0  0  0
    4.9123    1.7976   16.9848 H   0  0  0  0  0  0  0  0  0  0  0  0
    4.8016    1.3196   19.0973 C   0  0  0  0  0  0  0  0  0  0  0  0
    3.8719    1.8478   19.2535 H   0  0  0  0  0  0  0  0  0  0  0  0
    5.4370    0.6498   20.1470 C   0  0  0  0  0  0  0  0  0  0  0  0
    5.0278    0.6263   21.1580 H   0  0  0  0  0  0  0  0  0  0  0  0
    8.6602   -0.2883   21.2940 C   0  0  0  0  0  0  0  0  0  0  0  0
    9.2879    0.6082   20.7819 O   0  0  0  0  0  0  0  0  0  0  0  0
    9.2173   -1.0197   22.2782 N   0  0  0  0  0  0  0  0  0  0  0  0
   10.1587   -0.7682   22.5047 H   0  0  0  0  0  0  0  0  0  0  0  0
    8.7042   -2.0788   22.9756 C   0  0  0  0  0  0  0  0  0  0  0  0
    9.4328   -2.5893   23.7998 O   0  0  0  0  0  0  0  0  0  0  0  0
    5.9435   -4.8738   25.2542 C   0  0  0  0  0  0  0  0  0  0  0  0
    4.8013   -5.4844   24.7033 C   0  0  0  0  0  0  0  0  0  0  0  0
    4.4155   -5.1377   23.7475 H   0  0  0  0  0  0  0  0  0  0  0  0
    4.1473   -6.5100   25.3853 C   0  0  0  0  0  0  0  0  0  0  0  0
    3.2640   -6.9648   24.9456 H   0  0  0  0  0  0  0  0  0  0  0  0
    4.6257   -6.9430   26.6270 C   0  0  0  0  0  0  0  0  0  0  0  0
    4.1149   -7.7415   27.1590 H   0  0  0  0  0  0  0  0  0  0  0  0
    5.7589   -6.3420   27.1881 C   0  0  0  0  0  0  0  0  0  0  0  0
    6.1343   -6.6719   28.1532 H   0  0  0  0  0  0  0  0  0  0  0  0
    6.4093   -5.3112   26.5071 C   0  0  0  0  0  0  0  0  0  0  0  0
    7.2946   -4.8444   26.9348 H   0  0  0  0  0  0  0  0  0  0  0  0
  1  2  1  0
  2  3  2  3
  3  4  1  0
  3  5  1  0
  5  6  2  0
  6  7  1  0
  6  8  1  0
  8  9  1  0
  9 10  2  0
 10 11  1  0
 10 12  1  0
 12 13  2  0
 13 14  1  0
 13 15  1  0
 15 16  1  0
 15 17  2  0
 17 18  1  0
  8 19  1  0
 19 20  2  0
 19 21  1  0
 21 22  1  0
 21 23  1  0
 23 24  2  0
  2 25  1  0
 25 26  2  0
 26 27  1  0
 26 28  1  0
 28 29  1  0
 28 30  2  0
 30 31  1  0
 30 32  1  0
 32 33  1  0
 32 34  2  0
 34 35  1  0
 23  5  1  0
 34 25  1  0
 17  9  1  0
M  END
>  <cnnaffinity>  (1) 
-5.41057

>  <filename>  (1) 
[H]C(=C([H])c1c([H])n(-c2c([H])nc([H])c([H])c2[H])c(=O)n([H])c1=O)c1c([H])c([H])c([H])c([H])c1[H]

$$$$
