
     RDKit          3D

 34 36  0  0  0  0  0  0  0  0999 V2000
    4.9378    1.7827   17.0032 H   0  0  0  0  0  0  0  0  0  0  0  0
    5.4124    1.2842   17.8446 C   0  0  0  0  0  0  0  0  0  0  0  0
    6.5727    0.6619   17.5873 N   0  0  0  0  0  0  0  0  0  0  0  0
    7.1905    0.0428   18.6033 C   0  0  0  0  0  0  0  0  0  0  0  0
    8.1337   -0.4468   18.3650 H   0  0  0  0  0  0  0  0  0  0  0  0
    6.6762    0.0101   19.9125 C   0  0  0  0  0  0  0  0  0  0  0  0
    7.2393   -0.6869   20.9595 O   0  0  0  0  0  0  0  0  0  0  0  0
    8.6066   -0.7832   21.1164 C   0  0  0  0  0  0  0  0  0  0  0  0
    9.6466    0.0429   20.6374 C   0  0  0  0  0  0  0  0  0  0  0  0
    9.5890    0.9127   19.9904 H   0  0  0  0  0  0  0  0  0  0  0  0
   10.8306   -0.3559   21.0812 N   0  0  0  0  0  0  0  0  0  0  0  0
   10.5573   -1.4238   21.8557 N   0  0  0  0  0  0  0  0  0  0  0  0
   11.3133   -1.9760   22.2334 H   0  0  0  0  0  0  0  0  0  0  0  0
    9.2273   -1.7336   21.9186 C   0  0  0  0  0  0  0  0  0  0  0  0
    8.7520   -2.8352   22.6208 N   0  0  0  0  0  0  0  0  0  0  0  0
    7.5545   -3.5001   22.1475 C   0  0  0  0  0  0  0  0  0  0  0  0
    7.3985   -3.2275   21.0983 H   0  0  0  0  0  0  0  0  0  0  0  0
    7.7013   -4.5909   22.1954 H   0  0  0  0  0  0  0  0  0  0  0  0
    6.3520   -3.0642   22.9652 C   0  0  0  0  0  0  0  0  0  0  0  0
    5.4594   -3.6661   22.7884 H   0  0  0  0  0  0  0  0  0  0  0  0
    6.1366   -2.0001   22.8661 H   0  0  0  0  0  0  0  0  0  0  0  0
    6.6690   -3.3576   24.6767 S   0  0  0  0  0  0  0  0  0  0  0  0
    5.7112   -2.5852   25.4478 O   0  0  0  0  0  0  0  0  0  0  0  0
    6.7984   -4.8077   24.8027 O   0  0  0  0  0  0  0  0  0  0  0  0
    8.2724   -2.7011   25.0041 C   0  0  0  0  0  0  0  0  0  0  0  0
    8.1409   -1.6191   25.0230 H   0  0  0  0  0  0  0  0  0  0  0  0
    8.4925   -3.0858   25.9998 H   0  0  0  0  0  0  0  0  0  0  0  0
    9.2503   -3.1723   23.9407 C   0  0  0  0  0  0  0  0  0  0  0  0
   10.2123   -2.6755   24.1070 H   0  0  0  0  0  0  0  0  0  0  0  0
    9.4172   -4.2570   23.9988 H   0  0  0  0  0  0  0  0  0  0  0  0
    5.4587    0.6475   20.1690 C   0  0  0  0  0  0  0  0  0  0  0  0
    5.0414    0.6121   21.1736 H   0  0  0  0  0  0  0  0  0  0  0  0
    4.8232    1.3035   19.1141 C   0  0  0  0  0  0  0  0  0  0  0  0
    3.8863    1.8285   19.2635 H   0  0  0  0  0  0  0  0  0  0  0  0
  1  2  1  0
  2  3  2  0
  3  4  1  0
  4  5  1  0
  4  6  2  0
  6  7  1  0
  7  8  1  0
  8  9  1  0
  9 10  1  0
  9 11  2  0
 11 12  1  0
 12 13  1  0
 12 14  1  0
 14 15  1  0
 15 16  1  0
 16 17  1  0
 16 18  1  0
 16 19  1  0
 19 20  1  0
 19 21  1  0
 19 22  1  0
 22 23  2  0
 22 24  2  0
 22 25  1  0
 25 26  1  0
 25 27  1  0
 25 28  1  0
 28 29  1  0
 28 30  1  0
  6 31  1  0
 31 32  1  0
 31 33  2  0
 33 34  1  0
 33  2  1  0
 14  8  2  0
 28 15  1  0
M  END
>  <cnnaffinity>  (1) 
-5.00607

>  <filename>  (1) 
[H]c1nc([H])c(Oc2c([H])nn([H])c2N2C([H])([H])C([H])([H])S(=O)(=O)C([H])([H])C2([H])[H])c([H])c1[H]

$$$$
