
     RDKit          3D

 47 51  0  0  0  0  0  0  0  0999 V2000
   12.7284   -0.6521   22.1012 F   0  0  0  0  0  0  0  0  0  0  0  0
   12.1566   -0.0569   23.1889 C   0  0  0  0  0  0  0  0  0  0  0  0
   10.9136   -0.5978   23.3180 F   0  0  0  0  0  0  0  0  0  0  0  0
   12.1146    1.4492   23.0031 C   0  0  0  0  0  0  0  0  0  0  0  0
   11.2854    1.9632   21.8250 C   0  0  0  0  0  0  0  0  0  0  0  0
    9.8413    1.5605   21.8729 C   0  0  0  0  0  0  0  0  0  0  0  0
    9.3317    0.7023   21.0134 N   0  0  0  0  0  0  0  0  0  0  0  0
    8.1307    0.3885   21.5571 C   0  0  0  0  0  0  0  0  0  0  0  0
    7.2386   -0.6362   20.9272 C   0  0  0  0  0  0  0  0  0  0  0  0
    6.4713   -0.0641   19.7493 C   0  0  0  0  0  0  0  0  0  0  0  0
    5.2905    0.6553   19.9595 C   0  0  0  0  0  0  0  0  0  0  0  0
    4.7351    1.3558   18.8871 C   0  0  0  0  0  0  0  0  0  0  0  0
    5.3696    1.3065   17.6434 C   0  0  0  0  0  0  0  0  0  0  0  0
    6.4824    0.5964   17.4118 N   0  0  0  0  0  0  0  0  0  0  0  0
    7.0045   -0.0692   18.4486 C   0  0  0  0  0  0  0  0  0  0  0  0
    7.9157   -0.6293   18.2410 H   0  0  0  0  0  0  0  0  0  0  0  0
    4.9697    1.8586   16.7936 H   0  0  0  0  0  0  0  0  0  0  0  0
    3.8431    1.9553   19.0067 H   0  0  0  0  0  0  0  0  0  0  0  0
    4.8326    0.6791   20.9515 H   0  0  0  0  0  0  0  0  0  0  0  0
    6.5676   -1.0027   21.7062 H   0  0  0  0  0  0  0  0  0  0  0  0
    7.8695   -1.4755   20.6204 H   0  0  0  0  0  0  0  0  0  0  0  0
    7.8393    1.0308   22.6645 N   0  0  0  0  0  0  0  0  0  0  0  0
    8.9278    1.8282   22.8580 N   0  0  0  0  0  0  0  0  0  0  0  0
    8.9200    2.7273   23.9754 C   0  0  0  0  0  0  0  0  0  0  0  0
    8.7241    2.2367   25.2582 C   0  0  0  0  0  0  0  0  0  0  0  0
    8.7822    3.1225   26.3537 C   0  0  0  0  0  0  0  0  0  0  0  0
    9.0462    4.4162   26.2518 N   0  0  0  0  0  0  0  0  0  0  0  0
    9.1700    4.9249   24.9863 C   0  0  0  0  0  0  0  0  0  0  0  0
    9.4120    6.3250   24.8134 C   0  0  0  0  0  0  0  0  0  0  0  0
    9.3806    6.8625   23.5416 C   0  0  0  0  0  0  0  0  0  0  0  0
    9.1506    6.0116   22.4295 C   0  0  0  0  0  0  0  0  0  0  0  0
    9.0052    4.7000   22.5217 N   0  0  0  0  0  0  0  0  0  0  0  0
    9.0395    4.1455   23.7734 C   0  0  0  0  0  0  0  0  0  0  0  0
    9.0943    6.4273   21.4281 H   0  0  0  0  0  0  0  0  0  0  0  0
    9.5055    7.9269   23.3646 H   0  0  0  0  0  0  0  0  0  0  0  0
    9.5888    6.9109   25.7145 H   0  0  0  0  0  0  0  0  0  0  0  0
    8.5912    2.7364   27.3574 H   0  0  0  0  0  0  0  0  0  0  0  0
    8.5003    1.1852   25.4135 H   0  0  0  0  0  0  0  0  0  0  0  0
   11.3355    3.0527   21.7479 H   0  0  0  0  0  0  0  0  0  0  0  0
   11.6855    1.5440   20.8960 H   0  0  0  0  0  0  0  0  0  0  0  0
   13.3836    2.1660   23.3483 C   0  0  0  0  0  0  0  0  0  0  0  0
   12.1720    2.3331   24.2171 C   0  0  0  0  0  0  0  0  0  0  0  0
   11.5966    3.2532   24.1205 H   0  0  0  0  0  0  0  0  0  0  0  0
   12.1514    1.8855   25.2059 H   0  0  0  0  0  0  0  0  0  0  0  0
   13.7016    2.9761   22.6974 H   0  0  0  0  0  0  0  0  0  0  0  0
   14.2028    1.5593   23.7220 H   0  0  0  0  0  0  0  0  0  0  0  0
   12.7370   -0.3404   24.0728 H   0  0  0  0  0  0  0  0  0  0  0  0
  1  2  1  0
  2  3  1  0
  2  4  1  0
  4  5  1  0
  5  6  1  0
  6  7  2  0
  7  8  1  0
  8  9  1  0
  9 10  1  0
 10 11  2  0
 11 12  1  0
 12 13  2  0
 13 14  1  0
 14 15  2  0
 15 16  1  0
 13 17  1  0
 12 18  1  0
 11 19  1  0
  9 20  1  0
  9 21  1  0
  8 22  2  0
 22 23  1  0
 23 24  1  0
 24 25  2  0
 25 26  1  0
 26 27  2  0
 27 28  1  0
 28 29  2  0
 29 30  1  0
 30 31  2  0
 31 32  1  0
 32 33  2  0
 31 34  1  0
 30 35  1  0
 29 36  1  0
 26 37  1  0
 25 38  1  0
  5 39  1  0
  5 40  1  0
  4 41  1  0
 41 42  1  0
 42 43  1  0
 42 44  1  0
 41 45  1  0
 41 46  1  0
  2 47  1  0
 42  4  1  0
 23  6  1  0
 33 24  1  0
 15 10  1  0
 33 28  1  0
M  END
>  <cnnaffinity>  (1) 
-6.04521

>  <filename>  (1) 
[H]c1nc([H])c(C([H])([H])c2nc(C([H])([H])C3(C([H])(F)F)C([H])([H])C3([H])[H])n(-c3c([H])c([H])nc4c([H])c([H])c([H])nc34)n2)c([H])c1[H]

$$$$
