
     RDKit          3D

 30 32  0  0  0  0  0  0  0  0999 V2000
    4.9793    1.8298   16.7390 H   0  0  0  0  0  0  0  0  0  0  0  0
    5.3939    1.3484   17.6207 C   0  0  0  0  0  0  0  0  0  0  0  0
    6.5608    0.7089   17.4475 N   0  0  0  0  0  0  0  0  0  0  0  0
    7.1162    0.1425   18.5286 C   0  0  0  0  0  0  0  0  0  0  0  0
    8.0671   -0.3584   18.3573 H   0  0  0  0  0  0  0  0  0  0  0  0
    6.5616    0.1745   19.8266 C   0  0  0  0  0  0  0  0  0  0  0  0
    7.2841   -0.3992   20.9931 C   0  0  0  0  0  0  0  0  0  0  0  0
    6.7440   -0.0680   22.6206 S   0  0  0  0  0  0  0  0  0  0  0  0
    8.0009   -1.0078   23.3089 C   0  0  0  0  0  0  0  0  0  0  0  0
    8.1494   -1.1212   24.3749 H   0  0  0  0  0  0  0  0  0  0  0  0
    8.7878   -1.5638   22.3503 C   0  0  0  0  0  0  0  0  0  0  0  0
    9.8609   -2.3957   22.6649 N   0  0  0  0  0  0  0  0  0  0  0  0
   10.5060   -2.5509   21.9087 H   0  0  0  0  0  0  0  0  0  0  0  0
    9.7599   -3.4873   23.5479 C   0  0  0  0  0  0  0  0  0  0  0  0
    8.5423   -4.1218   23.8132 C   0  0  0  0  0  0  0  0  0  0  0  0
    7.6354   -3.6822   23.4145 H   0  0  0  0  0  0  0  0  0  0  0  0
    8.5019   -5.2887   24.5742 C   0  0  0  0  0  0  0  0  0  0  0  0
    7.5645   -5.8056   24.7491 H   0  0  0  0  0  0  0  0  0  0  0  0
    9.6881   -5.8054   25.0942 C   0  0  0  0  0  0  0  0  0  0  0  0
    9.6524   -7.3101   25.9457 Cl  0  0  0  0  0  0  0  0  0  0  0  0
   10.9092   -5.1567   24.8945 C   0  0  0  0  0  0  0  0  0  0  0  0
   11.8187   -5.5867   25.3000 H   0  0  0  0  0  0  0  0  0  0  0  0
   10.9344   -4.0017   24.1069 C   0  0  0  0  0  0  0  0  0  0  0  0
   11.8655   -3.5209   23.8458 H   0  0  0  0  0  0  0  0  0  0  0  0
    8.4075   -1.1838   21.0237 C   0  0  0  0  0  0  0  0  0  0  0  0
    8.9889   -1.4602   20.1494 H   0  0  0  0  0  0  0  0  0  0  0  0
    5.3105    0.8139   19.9664 C   0  0  0  0  0  0  0  0  0  0  0  0
    4.8113    0.8499   20.9365 H   0  0  0  0  0  0  0  0  0  0  0  0
    4.7279    1.4124   18.8502 C   0  0  0  0  0  0  0  0  0  0  0  0
    3.7862    1.9436   18.9285 H   0  0  0  0  0  0  0  0  0  0  0  0
  1  2  1  0
  2  3  2  0
  3  4  1  0
  4  5  1  0
  4  6  2  0
  6  7  1  0
  7  8  1  0
  8  9  1  0
  9 10  1  0
  9 11  2  0
 11 12  1  0
 12 13  1  0
 12 14  1  0
 14 15  2  0
 15 16  1  0
 15 17  1  0
 17 18  1  0
 17 19  2  0
 19 20  1  0
 19 21  1  0
 21 22  1  0
 21 23  2  0
 23 24  1  0
 11 25  1  0
 25 26  1  0
  6 27  1  0
 27 28  1  0
 27 29  2  0
 29 30  1  0
 29  2  1  0
 25  7  2  0
 23 14  1  0
M  END
>  <cnnaffinity>  (1) 
-5.43794

>  <filename>  (1) 
[H]c1nc([H])c(-c2sc([H])c(N([H])c3c([H])c([H])c(Cl)c([H])c3[H])c2[H])c([H])c1[H]

$$$$
