
     RDKit          3D

 32 34  0  0  0  0  0  0  0  0999 V2000
    5.0403    1.8976   16.8758 H   0  0  0  0  0  0  0  0  0  0  0  0
    5.4320    1.3176   17.7104 C   0  0  0  0  0  0  0  0  0  0  0  0
    6.5288    0.5861   17.4661 N   0  0  0  0  0  0  0  0  0  0  0  0
    7.0308   -0.1161   18.4889 C   0  0  0  0  0  0  0  0  0  0  0  0
    7.9203   -0.6991   18.2578 H   0  0  0  0  0  0  0  0  0  0  0  0
    6.5047   -0.1294   19.7878 C   0  0  0  0  0  0  0  0  0  0  0  0
    7.2299   -0.8693   20.8920 C   0  0  2  0  0  0  0  0  0  0  0  0
    7.9087   -1.6159   20.4387 H   0  0  0  0  0  0  0  0  0  0  0  0
    6.3199   -1.4931   21.8213 N   0  0  0  0  0  0  0  0  0  0  0  0
    5.8023   -2.3306   21.6214 H   0  0  0  0  0  0  0  0  0  0  0  0
    6.8128   -1.4879   23.0920 C   0  0  0  0  0  0  0  0  0  0  0  0
    6.4577   -2.1956   23.9915 O   0  0  0  0  0  0  0  0  0  0  0  0
    7.8095   -0.5734   23.1693 O   0  0  0  0  0  0  0  0  0  0  0  0
    8.0475    0.0302   21.8873 C   0  0  1  0  0  0  0  0  0  0  0  0
    7.6131    1.0403   21.9139 H   0  0  0  0  0  0  0  0  0  0  0  0
    9.5686    0.1267   21.6640 C   0  0  0  0  0  0  0  0  0  0  0  0
    9.7620    0.3335   20.6053 H   0  0  0  0  0  0  0  0  0  0  0  0
   10.0217   -0.8367   21.9182 H   0  0  0  0  0  0  0  0  0  0  0  0
   10.2219    1.2015   22.5122 C   0  0  0  0  0  0  0  0  0  0  0  0
   10.4713    2.4810   22.0064 C   0  0  0  0  0  0  0  0  0  0  0  0
   10.2572    2.7241   20.9741 H   0  0  0  0  0  0  0  0  0  0  0  0
   10.9821    3.4711   22.8539 C   0  0  0  0  0  0  0  0  0  0  0  0
   11.1543    4.4802   22.4784 H   0  0  0  0  0  0  0  0  0  0  0  0
   11.2782    3.2578   24.1436 N   0  0  0  0  0  0  0  0  0  0  0  0
   11.0379    2.0280   24.6233 C   0  0  0  0  0  0  0  0  0  0  0  0
   11.2616    1.8733   25.6749 H   0  0  0  0  0  0  0  0  0  0  0  0
   10.5214    0.9755   23.8622 C   0  0  0  0  0  0  0  0  0  0  0  0
   10.3226    0.0147   24.3270 H   0  0  0  0  0  0  0  0  0  0  0  0
    5.3280    0.6038   20.0082 C   0  0  0  0  0  0  0  0  0  0  0  0
    4.8433    0.5830   20.9854 H   0  0  0  0  0  0  0  0  0  0  0  0
    4.7944    1.3430   18.9542 C   0  0  0  0  0  0  0  0  0  0  0  0
    3.8973    1.9358   19.0826 H   0  0  0  0  0  0  0  0  0  0  0  0
  1  2  1  0
  2  3  2  0
  3  4  1  0
  4  5  1  0
  4  6  2  0
  6  7  1  0
  7  8  1  6
  7  9  1  0
  9 10  1  0
  9 11  1  0
 11 12  2  0
 11 13  1  0
 13 14  1  0
 14 15  1  1
 14 16  1  0
 16 17  1  0
 16 18  1  0
 16 19  1  0
 19 20  2  0
 20 21  1  0
 20 22  1  0
 22 23  1  0
 22 24  2  0
 24 25  1  0
 25 26  1  0
 25 27  2  0
 27 28  1  0
  6 29  1  0
 29 30  1  0
 29 31  2  0
 31 32  1  0
 31  2  1  0
 14  7  1  0
 27 19  1  0
M  END
>  <cnnaffinity>  (1) 
-4.74799

>  <filename>  (1) 
[H]c1nc([H])c([C@]2([H])N([H])C(=O)O[C@@]2([H])C([H])([H])c2c([H])c([H])nc([H])c2[H])c([H])c1[H]

$$$$
