
     RDKit          3D

 42 45  0  0  0  0  0  0  0  0999 V2000
   12.5353    3.7677   21.0745 C   0  0  0  0  0  0  0  0  0  0  0  0
   11.7504    2.6944   21.0323 C   0  0  0  0  0  0  0  0  0  0  0  0
   11.4859    1.7745   22.2083 C   0  0  0  0  0  0  0  0  0  0  0  0
   12.3362    0.4944   22.2627 C   0  0  0  0  0  0  0  0  0  0  0  0
   12.0222   -0.2261   21.4954 H   0  0  0  0  0  0  0  0  0  0  0  0
   13.3992    0.7163   22.1498 H   0  0  0  0  0  0  0  0  0  0  0  0
   12.1934    0.0307   23.2431 H   0  0  0  0  0  0  0  0  0  0  0  0
   10.0511    1.4215   22.2261 N   0  0  0  0  0  0  0  0  0  0  0  0
    9.5698    0.5056   21.3455 N   0  0  0  0  0  0  0  0  0  0  0  0
    8.3164    0.3494   21.7243 C   0  0  0  0  0  0  0  0  0  0  0  0
    7.4176   -0.6118   20.9954 C   0  0  0  0  0  0  0  0  0  0  0  0
    6.6539    0.0004   19.8262 C   0  0  0  0  0  0  0  0  0  0  0  0
    5.4426    0.6628   20.0586 C   0  0  0  0  0  0  0  0  0  0  0  0
    4.8168    1.3244   19.0013 C   0  0  0  0  0  0  0  0  0  0  0  0
    5.4181    1.2916   17.7393 C   0  0  0  0  0  0  0  0  0  0  0  0
    6.5522    0.6202   17.4802 N   0  0  0  0  0  0  0  0  0  0  0  0
    7.1393   -0.0103   18.5050 C   0  0  0  0  0  0  0  0  0  0  0  0
    8.0429   -0.5739   18.2647 H   0  0  0  0  0  0  0  0  0  0  0  0
    4.9717    1.8196   16.8981 H   0  0  0  0  0  0  0  0  0  0  0  0
    3.8924    1.8727   19.1456 H   0  0  0  0  0  0  0  0  0  0  0  0
    5.0024    0.6404   21.0583 H   0  0  0  0  0  0  0  0  0  0  0  0
    8.0554   -1.4281   20.6422 H   0  0  0  0  0  0  0  0  0  0  0  0
    6.7162   -1.0269   21.7288 H   0  0  0  0  0  0  0  0  0  0  0  0
    7.9526    1.1044   22.7922 N   0  0  0  0  0  0  0  0  0  0  0  0
    9.0411    1.8198   23.0400 C   0  0  0  0  0  0  0  0  0  0  0  0
    9.1316    2.9315   23.9979 C   0  0  0  0  0  0  0  0  0  0  0  0
    8.5981    2.7243   25.3044 C   0  0  0  0  0  0  0  0  0  0  0  0
    8.6388    3.6119   26.2844 N   0  0  0  0  0  0  0  0  0  0  0  0
    9.2075    4.8139   25.9740 C   0  0  0  0  0  0  0  0  0  0  0  0
    9.4320    6.0013   26.7397 C   0  0  0  0  0  0  0  0  0  0  0  0
    9.9954    6.9426   26.0078 N   0  0  0  0  0  0  0  0  0  0  0  0
   10.1684    6.4149   24.7716 N   0  0  0  0  0  0  0  0  0  0  0  0
    9.7170    5.1346   24.6856 C   0  0  0  0  0  0  0  0  0  0  0  0
    9.6860    4.1724   23.6625 C   0  0  0  0  0  0  0  0  0  0  0  0
   10.0611    4.3815   22.6648 H   0  0  0  0  0  0  0  0  0  0  0  0
   10.5420    6.9917   24.0286 H   0  0  0  0  0  0  0  0  0  0  0  0
    9.2112    6.1747   27.7878 H   0  0  0  0  0  0  0  0  0  0  0  0
    8.1365    1.7644   25.5351 H   0  0  0  0  0  0  0  0  0  0  0  0
   11.6940    2.3620   23.1130 H   0  0  0  0  0  0  0  0  0  0  0  0
   11.2182    2.4375   20.1203 H   0  0  0  0  0  0  0  0  0  0  0  0
   13.1301    4.0222   21.9509 H   0  0  0  0  0  0  0  0  0  0  0  0
   12.6244    4.4351   20.2222 H   0  0  0  0  0  0  0  0  0  0  0  0
  1  2  2  3
  2  3  1  0
  3  4  1  0
  4  5  1  0
  4  6  1  0
  4  7  1  0
  3  8  1  0
  8  9  1  0
  9 10  2  0
 10 11  1  0
 11 12  1  0
 12 13  2  0
 13 14  1  0
 14 15  2  0
 15 16  1  0
 16 17  2  0
 17 18  1  0
 15 19  1  0
 14 20  1  0
 13 21  1  0
 11 22  1  0
 11 23  1  0
 10 24  1  0
 24 25  2  0
 25 26  1  0
 26 27  2  0
 27 28  1  0
 28 29  2  0
 29 30  1  0
 30 31  2  0
 31 32  1  0
 32 33  1  0
 33 34  2  0
 34 35  1  0
 32 36  1  0
 30 37  1  0
 27 38  1  0
  3 39  1  0
  2 40  1  0
  1 41  1  0
  1 42  1  0
 25  8  1  0
 34 26  1  0
 17 12  1  0
 33 29  1  0
M  END
>  <cnnaffinity>  (1) 
-6.10881

>  <filename>  (1) 
[H]C([H])=C([H])C([H])(n1nc(C([H])([H])c2c([H])nc([H])c([H])c2[H])nc1-c1c([H])nc2c([H])nn([H])c2c1[H])C([H])([H])[H]

$$$$
