
     RDKit          3D

 30 33  0  0  0  0  0  0  0  0999 V2000
    4.9206    1.8162   16.9433 H   0  0  0  0  0  0  0  0  0  0  0  0
    5.3915    1.3287   17.7983 C   0  0  0  0  0  0  0  0  0  0  0  0
    6.5640    0.7143   17.5671 N   0  0  0  0  0  0  0  0  0  0  0  0
    7.1470    0.0964   18.6037 C   0  0  0  0  0  0  0  0  0  0  0  0
    8.1049   -0.3793   18.3951 H   0  0  0  0  0  0  0  0  0  0  0  0
    6.6231    0.0470   19.9162 C   0  0  0  0  0  0  0  0  0  0  0  0
    7.3055   -0.6750   21.0293 C   0  0  0  0  0  0  0  0  0  0  0  0
    7.6374   -2.0756   20.9942 C   0  0  0  0  0  0  0  0  0  0  0  0
    7.3317   -2.7489   20.2029 H   0  0  0  0  0  0  0  0  0  0  0  0
    8.2624   -2.5811   22.0181 N   0  0  0  0  0  0  0  0  0  0  0  0
    8.4674   -1.3871   23.1558 S   0  0  0  0  0  0  0  0  0  0  0  0
    7.6422   -0.1570   22.2709 C   0  0  0  0  0  0  0  0  0  0  0  0
    7.3625    1.1683   22.8629 C   0  0  0  0  0  0  0  0  0  0  0  0
    7.5422    2.3379   22.0597 C   0  0  0  0  0  0  0  0  0  0  0  0
    7.8749    2.2103   21.0348 H   0  0  0  0  0  0  0  0  0  0  0  0
    7.2830    3.6071   22.5405 C   0  0  0  0  0  0  0  0  0  0  0  0
    7.3985    4.4861   21.9196 H   0  0  0  0  0  0  0  0  0  0  0  0
    6.8349    3.7071   23.8752 C   0  0  0  0  0  0  0  0  0  0  0  0
    6.6485    2.5748   24.6987 C   0  0  0  0  0  0  0  0  0  0  0  0
    6.1888    3.1212   25.9390 C   0  0  0  0  0  0  0  0  0  0  0  0
    5.9206    2.5915   26.8476 H   0  0  0  0  0  0  0  0  0  0  0  0
    6.1005    4.4342   25.8815 N   0  0  0  0  0  0  0  0  0  0  0  0
    6.4910    4.7797   24.6324 N   0  0  0  0  0  0  0  0  0  0  0  0
    6.5111    5.7465   24.3451 H   0  0  0  0  0  0  0  0  0  0  0  0
    6.9138    1.2870   24.1826 C   0  0  0  0  0  0  0  0  0  0  0  0
    6.7604    0.3934   24.7833 H   0  0  0  0  0  0  0  0  0  0  0  0
    5.4016    0.7053   20.1268 C   0  0  0  0  0  0  0  0  0  0  0  0
    4.9811    0.7325   21.1342 H   0  0  0  0  0  0  0  0  0  0  0  0
    4.7741    1.3448   19.0535 C   0  0  0  0  0  0  0  0  0  0  0  0
    3.8212    1.8479   19.1725 H   0  0  0  0  0  0  0  0  0  0  0  0
  1  2  1  0
  2  3  2  0
  3  4  1  0
  4  5  1  0
  4  6  2  0
  6  7  1  0
  7  8  1  0
  8  9  1  0
  8 10  2  0
 10 11  1  0
 11 12  1  0
 12 13  1  0
 13 14  2  0
 14 15  1  0
 14 16  1  0
 16 17  1  0
 16 18  2  0
 18 19  1  0
 19 20  1  0
 20 21  1  0
 20 22  2  0
 22 23  1  0
 23 24  1  0
 19 25  2  0
 25 26  1  0
  6 27  1  0
 27 28  1  0
 27 29  2  0
 29 30  1  0
 29  2  1  0
 12  7  2  0
 25 13  1  0
 23 18  1  0
M  END
>  <cnnaffinity>  (1) 
-5.06576

>  <filename>  (1) 
[H]c1nc([H])c(-c2c([H])nsc2-c2c([H])c([H])c3c(c([H])nn3[H])c2[H])c([H])c1[H]

$$$$
