
     RDKit          3D

 35 37  0  0  0  0  0  0  0  0999 V2000
    4.8872    1.8187   17.1355 H   0  0  0  0  0  0  0  0  0  0  0  0
    5.3614    1.3066   17.9717 C   0  0  0  0  0  0  0  0  0  0  0  0
    6.5596    0.7633   17.7192 N   0  0  0  0  0  0  0  0  0  0  0  0
    7.1624    0.1219   18.7276 C   0  0  0  0  0  0  0  0  0  0  0  0
    8.1462   -0.2685   18.4690 H   0  0  0  0  0  0  0  0  0  0  0  0
    6.6330   -0.0389   20.0302 C   0  0  0  0  0  0  0  0  0  0  0  0
    7.4928   -0.6115   21.1889 C   0  0  0  0  0  0  0  0  0  0  0  0
    6.6598   -1.3940   22.2370 C   0  0  0  0  0  0  0  0  0  0  0  0
    6.7229   -1.1384   23.6191 C   0  0  0  0  0  0  0  0  0  0  0  0
    7.2065   -0.2433   23.9794 H   0  0  0  0  0  0  0  0  0  0  0  0
    6.1677   -1.9982   24.5632 C   0  0  0  0  0  0  0  0  0  0  0  0
    6.2462   -1.7570   25.6186 H   0  0  0  0  0  0  0  0  0  0  0  0
    5.5137   -3.1628   24.1513 C   0  0  0  0  0  0  0  0  0  0  0  0
    5.1119   -3.8454   24.8948 H   0  0  0  0  0  0  0  0  0  0  0  0
    5.3620   -3.4110   22.7921 C   0  0  0  0  0  0  0  0  0  0  0  0
    4.8062   -4.2775   22.4467 H   0  0  0  0  0  0  0  0  0  0  0  0
    5.9241   -2.5418   21.8404 C   0  0  0  0  0  0  0  0  0  0  0  0
    5.7675   -2.9458   20.4586 C   0  0  0  0  0  0  0  0  0  0  0  0
    5.5703   -3.3917   19.4081 N   0  0  0  0  0  0  0  0  0  0  0  0
    8.6163   -1.5908   20.6849 C   0  0  0  0  0  0  0  0  0  0  0  0
    8.5105   -1.7317   19.6183 H   0  0  0  0  0  0  0  0  0  0  0  0
    8.5453   -2.5756   21.1604 H   0  0  0  0  0  0  0  0  0  0  0  0
    9.9668   -0.9478   21.0006 C   0  0  0  0  0  0  0  0  0  0  0  0
   10.7655   -1.6737   21.1821 H   0  0  0  0  0  0  0  0  0  0  0  0
   10.2611   -0.3650   20.1296 H   0  0  0  0  0  0  0  0  0  0  0  0
    9.6652   -0.0428   22.1913 C   0  0  0  0  0  0  0  0  0  0  0  0
   10.4375    0.7016   22.4091 H   0  0  0  0  0  0  0  0  0  0  0  0
    9.5500   -0.6722   23.0830 H   0  0  0  0  0  0  0  0  0  0  0  0
    8.3129    0.5661   21.8082 C   0  0  0  0  0  0  0  0  0  0  0  0
    7.7830    1.0491   22.6330 H   0  0  0  0  0  0  0  0  0  0  0  0
    8.4564    1.3552   21.0593 H   0  0  0  0  0  0  0  0  0  0  0  0
    5.3723    0.5365   20.2596 C   0  0  0  0  0  0  0  0  0  0  0  0
    4.9056    0.4504   21.2450 H   0  0  0  0  0  0  0  0  0  0  0  0
    4.7320    1.2221   19.2183 C   0  0  0  0  0  0  0  0  0  0  0  0
    3.7751    1.7129   19.3636 H   0  0  0  0  0  0  0  0  0  0  0  0
  1  2  1  0
  2  3  2  0
  3  4  1  0
  4  5  1  0
  4  6  2  0
  6  7  1  0
  7  8  1  0
  8  9  2  0
  9 10  1  0
  9 11  1  0
 11 12  1  0
 11 13  2  0
 13 14  1  0
 13 15  1  0
 15 16  1  0
 15 17  2  0
 17 18  1  0
 18 19  3  0
  7 20  1  0
 20 21  1  0
 20 22  1  0
 20 23  1  0
 23 24  1  0
 23 25  1  0
 23 26  1  0
 26 27  1  0
 26 28  1  0
 26 29  1  0
 29 30  1  0
 29 31  1  0
  6 32  1  0
 32 33  1  0
 32 34  2  0
 34 35  1  0
 34  2  1  0
 29  7  1  0
 17  8  1  0
M  END
>  <cnnaffinity>  (1) 
-5.10268

>  <filename>  (1) 
[H]c1nc([H])c(C2(c3c([H])c([H])c([H])c([H])c3C#N)C([H])([H])C([H])([H])C([H])([H])C2([H])[H])c([H])c1[H]

$$$$
