
     RDKit          3D

 49 53  0  0  0  0  0  0  0  0999 V2000
   11.6248    2.7381   21.1848 C   0  0  0  0  0  0  0  0  0  0  0  0
   11.6783    2.7504   21.5557 C   0  0  0  0  0  0  0  0  0  0  0  0
   12.2959    4.1138   22.7302 N   0  0  0  0  0  0  0  0  0  0  0  0
   13.0456    3.4886   23.5413 C   0  0  0  0  0  0  0  0  0  0  0  0
   12.9686    2.0297   23.8047 C   0  0  0  0  0  0  0  0  0  0  0  0
   11.9266    1.2950   23.3551 C   0  0  0  0  0  0  0  0  0  0  0  0
   11.0604    1.7751   22.3010 C   0  0  0  0  0  0  0  0  0  0  0  0
    9.6833    1.3724   22.3706 N   0  0  0  0  0  0  0  0  0  0  0  0
    9.2825    0.4362   21.4728 N   0  0  0  0  0  0  0  0  0  0  0  0
    8.0518    0.1715   21.8556 C   0  0  0  0  0  0  0  0  0  0  0  0
    7.1933   -0.8096   21.0992 C   0  0  0  0  0  0  0  0  0  0  0  0
    6.6136   -0.1945   19.8319 C   0  0  0  0  0  0  0  0  0  0  0  0
    5.6154    0.7814   19.9481 C   0  0  0  0  0  0  0  0  0  0  0  0
    5.1673    1.4332   18.7995 C   0  0  0  0  0  0  0  0  0  0  0  0
    5.7397    1.0926   17.5703 C   0  0  0  0  0  0  0  0  0  0  0  0
    6.6922    0.1592   17.4343 N   0  0  0  0  0  0  0  0  0  0  0  0
    7.1095   -0.4622   18.5453 C   0  0  0  0  0  0  0  0  0  0  0  0
    7.8956   -1.2041   18.4078 H   0  0  0  0  0  0  0  0  0  0  0  0
    5.4268    1.5969   16.6564 H   0  0  0  0  0  0  0  0  0  0  0  0
    4.4095    2.2088   18.8449 H   0  0  0  0  0  0  0  0  0  0  0  0
    5.2171    1.0343   20.9327 H   0  0  0  0  0  0  0  0  0  0  0  0
    7.8143   -1.6822   20.8696 H   0  0  0  0  0  0  0  0  0  0  0  0
    6.3968   -1.1364   21.7752 H   0  0  0  0  0  0  0  0  0  0  0  0
    7.6270    0.8779   22.9347 N   0  0  0  0  0  0  0  0  0  0  0  0
    8.6764    1.6345   23.2406 C   0  0  0  0  0  0  0  0  0  0  0  0
    8.7726    2.6509   24.3590 C   0  0  0  0  0  0  0  0  0  0  0  0
    9.0245    2.0022   25.7368 C   0  0  0  0  0  0  0  0  0  0  0  0
    8.0511    0.9854   26.2685 C   0  0  0  0  0  0  0  0  0  0  0  0
    9.4625    0.5757   25.9539 C   0  0  0  0  0  0  0  0  0  0  0  0
    9.6075   -0.0694   25.0859 H   0  0  0  0  0  0  0  0  0  0  0  0
   10.1356    0.3620   26.7818 H   0  0  0  0  0  0  0  0  0  0  0  0
    7.2809    0.6372   25.5829 H   0  0  0  0  0  0  0  0  0  0  0  0
    7.7362    1.0532   27.3084 H   0  0  0  0  0  0  0  0  0  0  0  0
    9.3807    2.7224   26.4749 H   0  0  0  0  0  0  0  0  0  0  0  0
    7.5623    3.6490   24.4550 C   0  0  0  0  0  0  0  0  0  0  0  0
    8.5273    4.8549   24.4045 C   0  0  0  0  0  0  0  0  0  0  0  0
    9.6826    3.8968   24.0361 C   0  0  0  0  0  0  0  0  0  0  0  0
   10.5868    3.9704   24.6498 H   0  0  0  0  0  0  0  0  0  0  0  0
    9.9829    3.9515   22.9833 H   0  0  0  0  0  0  0  0  0  0  0  0
    8.6863    5.3486   25.3693 H   0  0  0  0  0  0  0  0  0  0  0  0
    8.2821    5.6351   23.6759 H   0  0  0  0  0  0  0  0  0  0  0  0
    6.9658    3.5498   25.3669 H   0  0  0  0  0  0  0  0  0  0  0  0
    6.8970    3.5824   23.5910 H   0  0  0  0  0  0  0  0  0  0  0  0
   11.6532    0.3524   23.8342 H   0  0  0  0  0  0  0  0  0  0  0  0
   13.7290    1.5918   24.4326 H   0  0  0  0  0  0  0  0  0  0  0  0
   13.8085    4.0880   24.0745 H   0  0  0  0  0  0  0  0  0  0  0  0
   11.7741    3.6332   20.3696 H   0  0  0  0  0  0  0  0  0  0  0  0
   11.2040    2.0800   19.9351 H   0  0  0  0  0  0  0  0  0  0  0  0
   12.8227    2.5129   21.2587 H   0  0  0  0  0  0  0  0  0  0  0  0
  1  2  1  0
  2  3  2  0
  3  4  1  0
  4  5  2  0
  5  6  1  0
  6  7  2  0
  7  8  1  0
  8  9  1  0
  9 10  2  0
 10 11  1  0
 11 12  1  0
 12 13  2  0
 13 14  1  0
 14 15  2  0
 15 16  1  0
 16 17  2  0
 17 18  1  0
 15 19  1  0
 14 20  1  0
 13 21  1  0
 11 22  1  0
 11 23  1  0
 10 24  1  0
 24 25  2  0
 25 26  1  0
 26 27  1  0
 27 28  1  0
 28 29  1  0
 29 30  1  0
 29 31  1  0
 28 32  1  0
 28 33  1  0
 27 34  1  0
 26 35  1  0
 35 36  1  0
 36 37  1  0
 37 38  1  0
 37 39  1  0
 36 40  1  0
 36 41  1  0
 35 42  1  0
 35 43  1  0
  6 44  1  0
  5 45  1  0
  4 46  1  0
  1 47  1  0
  1 48  1  0
  1 49  1  0
  7  2  1  0
 25  8  1  0
 37 26  1  0
 17 12  1  0
 29 27  1  0
M  END
>  <cnnaffinity>  (1) 
-6.22968

>  <filename>  (1) 
[H]c1nc(C([H])([H])[H])c(-n2nc(C([H])([H])c3c([H])nc([H])c([H])c3[H])nc2C2(C3([H])C([H])([H])C3([H])[H])C([H])([H])C([H])([H])C2([H])[H])c([H])c1[H]

$$$$
