
     RDKit          3D

 51 55  0  0  0  0  0  0  0  0999 V2000
   11.6491    0.7047   24.3334 C   0  0  0  0  0  0  0  0  0  0  0  0
   12.1676    0.9373   22.9025 C   0  0  0  0  0  0  0  0  0  0  0  0
   11.2962    1.9270   22.0794 C   0  0  0  0  0  0  0  0  0  0  0  0
    9.8820    1.5923   22.0191 N   0  0  0  0  0  0  0  0  0  0  0  0
    9.4512    0.6378   21.1536 N   0  0  0  0  0  0  0  0  0  0  0  0
    8.2731    0.3015   21.6446 C   0  0  0  0  0  0  0  0  0  0  0  0
    7.3997   -0.6990   20.9446 C   0  0  0  0  0  0  0  0  0  0  0  0
    6.6255   -0.0588   19.8016 C   0  0  0  0  0  0  0  0  0  0  0  0
    5.4324    0.6227   20.0690 C   0  0  0  0  0  0  0  0  0  0  0  0
    4.7991    1.3130   19.0347 C   0  0  0  0  0  0  0  0  0  0  0  0
    5.3926    1.3027   17.7684 C   0  0  0  0  0  0  0  0  0  0  0  0
    6.5309    0.6510   17.4857 N   0  0  0  0  0  0  0  0  0  0  0  0
    7.1233   -0.0094   18.4886 C   0  0  0  0  0  0  0  0  0  0  0  0
    8.0558   -0.5218   18.2449 H   0  0  0  0  0  0  0  0  0  0  0  0
    4.9374    1.8411   16.9409 H   0  0  0  0  0  0  0  0  0  0  0  0
    3.8811    1.8670   19.1993 H   0  0  0  0  0  0  0  0  0  0  0  0
    5.0275    0.6187   21.0834 H   0  0  0  0  0  0  0  0  0  0  0  0
    8.0405   -1.5113   20.5854 H   0  0  0  0  0  0  0  0  0  0  0  0
    6.7084   -1.1183   21.6836 H   0  0  0  0  0  0  0  0  0  0  0  0
    7.9197    0.9589   22.7752 N   0  0  0  0  0  0  0  0  0  0  0  0
    8.9346    1.7864   22.9673 C   0  0  0  0  0  0  0  0  0  0  0  0
    9.0601    2.8162   24.0232 C   0  0  0  0  0  0  0  0  0  0  0  0
    8.7123    2.4512   25.3533 C   0  0  0  0  0  0  0  0  0  0  0  0
    8.7761    3.3468   26.4045 C   0  0  0  0  0  0  0  0  0  0  0  0
    9.2230    4.6477   26.1015 C   0  0  0  0  0  0  0  0  0  0  0  0
    9.4451    5.7700   26.8287 N   0  0  0  0  0  0  0  0  0  0  0  0
    9.9109    6.7688   26.0487 N   0  0  0  0  0  0  0  0  0  0  0  0
   10.0079    6.3464   24.8426 N   0  0  0  0  0  0  0  0  0  0  0  0
    9.5866    5.0327   24.8038 C   0  0  0  0  0  0  0  0  0  0  0  0
    9.4942    4.1132   23.7407 C   0  0  0  0  0  0  0  0  0  0  0  0
    9.7402    4.4416   22.7394 H   0  0  0  0  0  0  0  0  0  0  0  0
    9.2579    5.9529   27.7996 H   0  0  0  0  0  0  0  0  0  0  0  0
    8.4893    3.0550   27.4060 H   0  0  0  0  0  0  0  0  0  0  0  0
    8.3842    1.4314   25.5470 H   0  0  0  0  0  0  0  0  0  0  0  0
   11.6580    1.9472   21.0472 H   0  0  0  0  0  0  0  0  0  0  0  0
   11.3958    2.9335   22.4847 H   0  0  0  0  0  0  0  0  0  0  0  0
   12.3127   -0.4190   22.1461 C   0  0  0  0  0  0  0  0  0  0  0  0
   13.8189   -0.7352   22.0098 C   0  0  0  0  0  0  0  0  0  0  0  0
   14.5700    0.3670   22.7689 C   0  0  0  0  0  0  0  0  0  0  0  0
   13.5938    1.5177   23.0009 C   0  0  0  0  0  0  0  0  0  0  0  0
   13.7738    2.0054   23.9642 H   0  0  0  0  0  0  0  0  0  0  0  0
   13.7330    2.3218   22.2785 H   0  0  0  0  0  0  0  0  0  0  0  0
   14.9281   -0.0279   23.7239 H   0  0  0  0  0  0  0  0  0  0  0  0
   15.4276    0.7431   22.2090 H   0  0  0  0  0  0  0  0  0  0  0  0
   14.1144   -0.7572   20.9588 H   0  0  0  0  0  0  0  0  0  0  0  0
   14.0786   -1.7287   22.3834 H   0  0  0  0  0  0  0  0  0  0  0  0
   11.8467   -0.3678   21.1588 H   0  0  0  0  0  0  0  0  0  0  0  0
   11.7412   -1.2028   22.6606 H   0  0  0  0  0  0  0  0  0  0  0  0
   10.6638    0.2259   24.3416 H   0  0  0  0  0  0  0  0  0  0  0  0
   11.5797    1.6479   24.8895 H   0  0  0  0  0  0  0  0  0  0  0  0
   12.3504    0.0536   24.8714 H   0  0  0  0  0  0  0  0  0  0  0  0
  1  2  1  0
  2  3  1  0
  3  4  1  0
  4  5  1  0
  5  6  2  0
  6  7  1  0
  7  8  1  0
  8  9  2  0
  9 10  1  0
 10 11  2  0
 11 12  1  0
 12 13  2  0
 13 14  1  0
 11 15  1  0
 10 16  1  0
  9 17  1  0
  7 18  1  0
  7 19  1  0
  6 20  1  0
 20 21  2  0
 21 22  1  0
 22 23  2  0
 23 24  1  0
 24 25  2  0
 25 26  1  0
 26 27  1  0
 27 28  2  0
 28 29  1  0
 29 30  2  0
 30 31  1  0
 26 32  1  0
 24 33  1  0
 23 34  1  0
  3 35  1  0
  3 36  1  0
  2 37  1  0
 37 38  1  0
 38 39  1  0
 39 40  1  0
 40 41  1  0
 40 42  1  0
 39 43  1  0
 39 44  1  0
 38 45  1  0
 38 46  1  0
 37 47  1  0
 37 48  1  0
  1 49  1  0
  1 50  1  0
  1 51  1  0
 40  2  1  0
 21  4  1  0
 30 22  1  0
 13  8  1  0
 29 25  1  0
M  END
>  <cnnaffinity>  (1) 
-6.72019

>  <filename>  (1) 
[H]c1nc([H])c(C([H])([H])c2nc(-c3c([H])c([H])c4c(nnn4[H])c3[H])n(C([H])([H])C3(C([H])([H])[H])C([H])([H])C([H])([H])C([H])([H])C3([H])[H])n2)c([H])c1[H]

$$$$
