
     RDKit          3D

 40 43  0  0  0  0  0  0  0  0999 V2000
   12.4257   -0.1352   22.2101 F   0  0  0  0  0  0  0  0  0  0  0  0
   12.3462    1.1026   22.7125 C   0  0  0  0  0  0  0  0  0  0  0  0
   12.0544    1.0082   24.0231 F   0  0  0  0  0  0  0  0  0  0  0  0
   13.5698    1.6544   22.6207 F   0  0  0  0  0  0  0  0  0  0  0  0
   11.3520    1.9815   21.9477 C   0  0  0  0  0  0  0  0  0  0  0  0
    9.9595    1.5666   22.0921 N   0  0  0  0  0  0  0  0  0  0  0  0
    9.5635    0.5344   21.3131 N   0  0  0  0  0  0  0  0  0  0  0  0
    8.3066    0.3450   21.6611 C   0  0  0  0  0  0  0  0  0  0  0  0
    7.4565   -0.6624   20.9318 C   0  0  0  0  0  0  0  0  0  0  0  0
    6.6751   -0.0448   19.7775 C   0  0  0  0  0  0  0  0  0  0  0  0
    5.4765    0.6235   20.0545 C   0  0  0  0  0  0  0  0  0  0  0  0
    4.8255    1.3074   19.0274 C   0  0  0  0  0  0  0  0  0  0  0  0
    5.4035    1.2953   17.7546 C   0  0  0  0  0  0  0  0  0  0  0  0
    6.5302    0.6305   17.4557 N   0  0  0  0  0  0  0  0  0  0  0  0
    7.1372   -0.0289   18.4512 C   0  0  0  0  0  0  0  0  0  0  0  0
    8.0420   -0.5785   18.1830 H   0  0  0  0  0  0  0  0  0  0  0  0
    4.9388    1.8342   16.9319 H   0  0  0  0  0  0  0  0  0  0  0  0
    3.9015    1.8483   19.2012 H   0  0  0  0  0  0  0  0  0  0  0  0
    5.0802    0.6029   21.0717 H   0  0  0  0  0  0  0  0  0  0  0  0
    8.1229   -1.4574   20.5805 H   0  0  0  0  0  0  0  0  0  0  0  0
    6.7508   -1.1029   21.6436 H   0  0  0  0  0  0  0  0  0  0  0  0
    7.8589    1.1807   22.6267 N   0  0  0  0  0  0  0  0  0  0  0  0
    8.9084    1.9521   22.8850 C   0  0  0  0  0  0  0  0  0  0  0  0
    8.9572    3.0519   23.8588 C   0  0  0  0  0  0  0  0  0  0  0  0
    7.8372    3.6297   24.4280 C   0  0  0  0  0  0  0  0  0  0  0  0
    8.2221    4.5715   25.3391 N   0  0  0  0  0  0  0  0  0  0  0  0
    7.4366    5.3222   26.2030 C   0  0  0  0  0  0  0  0  0  0  0  0
    8.0289    6.1677   27.1014 C   0  0  0  0  0  0  0  0  0  0  0  0
    9.4603    6.3276   27.0995 C   0  0  0  0  0  0  0  0  0  0  0  0
   10.2344    5.5814   26.2413 C   0  0  0  0  0  0  0  0  0  0  0  0
    9.6271    4.6466   25.3488 C   0  0  0  0  0  0  0  0  0  0  0  0
   10.0834    3.6936   24.4492 C   0  0  0  0  0  0  0  0  0  0  0  0
   11.1227    3.4028   24.3558 H   0  0  0  0  0  0  0  0  0  0  0  0
   11.3163    5.6452   26.2371 H   0  0  0  0  0  0  0  0  0  0  0  0
    9.9294    7.0577   27.7573 H   0  0  0  0  0  0  0  0  0  0  0  0
    7.4140    6.7046   27.8196 H   0  0  0  0  0  0  0  0  0  0  0  0
    6.3700    5.1602   26.0995 H   0  0  0  0  0  0  0  0  0  0  0  0
    6.7860    3.4341   24.2433 H   0  0  0  0  0  0  0  0  0  0  0  0
   11.6062    1.8862   20.8906 H   0  0  0  0  0  0  0  0  0  0  0  0
   11.4788    3.0270   22.2312 H   0  0  0  0  0  0  0  0  0  0  0  0
  1  2  1  0
  2  3  1  0
  2  4  1  0
  2  5  1  0
  5  6  1  0
  6  7  1  0
  7  8  2  0
  8  9  1  0
  9 10  1  0
 10 11  2  0
 11 12  1  0
 12 13  2  0
 13 14  1  0
 14 15  2  0
 15 16  1  0
 13 17  1  0
 12 18  1  0
 11 19  1  0
  9 20  1  0
  9 21  1  0
  8 22  1  0
 22 23  2  0
 23 24  1  0
 24 25  2  0
 25 26  1  0
 26 27  1  0
 27 28  2  0
 28 29  1  0
 29 30  2  0
 30 31  1  0
 31 32  2  0
 32 33  1  0
 30 34  1  0
 29 35  1  0
 28 36  1  0
 27 37  1  0
 25 38  1  0
  5 39  1  0
  5 40  1  0
 23  6  1  0
 32 24  1  0
 15 10  1  0
 31 26  1  0
M  END
>  <cnnaffinity>  (1) 
-5.77955

>  <filename>  (1) 
[H]c1nc([H])c(C([H])([H])c2nc(-c3c([H])c4c([H])c([H])c([H])c([H])n4c3[H])n(C([H])([H])C(F)(F)F)n2)c([H])c1[H]

$$$$
