
     RDKit          3D

 39 42  0  0  0  0  0  0  0  0999 V2000
   12.5087    3.8621   21.0062 C   0  0  0  0  0  0  0  0  0  0  0  0
   11.7912    2.7434   20.9845 C   0  0  0  0  0  0  0  0  0  0  0  0
   11.5116    1.7873   22.1129 C   0  0  0  0  0  0  0  0  0  0  0  0
   10.0975    1.4002   22.1495 N   0  0  0  0  0  0  0  0  0  0  0  0
    9.6422    0.4588   21.2905 N   0  0  0  0  0  0  0  0  0  0  0  0
    8.3973    0.2607   21.6953 C   0  0  0  0  0  0  0  0  0  0  0  0
    7.4568   -0.6694   20.9744 C   0  0  0  0  0  0  0  0  0  0  0  0
    6.6820   -0.0114   19.8348 C   0  0  0  0  0  0  0  0  0  0  0  0
    5.4728    0.6496   20.0917 C   0  0  0  0  0  0  0  0  0  0  0  0
    4.8253    1.3186   19.0516 C   0  0  0  0  0  0  0  0  0  0  0  0
    5.4131    1.2986   17.7842 C   0  0  0  0  0  0  0  0  0  0  0  0
    6.5546    0.6502   17.5044 N   0  0  0  0  0  0  0  0  0  0  0  0
    7.1578    0.0074   18.5122 C   0  0  0  0  0  0  0  0  0  0  0  0
    8.0745   -0.5299   18.2614 H   0  0  0  0  0  0  0  0  0  0  0  0
    4.9483    1.8187   16.9510 H   0  0  0  0  0  0  0  0  0  0  0  0
    3.8916    1.8486   19.2104 H   0  0  0  0  0  0  0  0  0  0  0  0
    5.0540    0.6315   21.0991 H   0  0  0  0  0  0  0  0  0  0  0  0
    8.0442   -1.5188   20.6074 H   0  0  0  0  0  0  0  0  0  0  0  0
    6.7460   -1.0480   21.7178 H   0  0  0  0  0  0  0  0  0  0  0  0
    8.0322    0.9943   22.7690 N   0  0  0  0  0  0  0  0  0  0  0  0
    9.0971    1.7531   22.9893 C   0  0  0  0  0  0  0  0  0  0  0  0
    9.1699    2.8352   23.9717 C   0  0  0  0  0  0  0  0  0  0  0  0
    9.7405    4.0853   23.7119 C   0  0  0  0  0  0  0  0  0  0  0  0
    9.7385    5.0923   24.6967 C   0  0  0  0  0  0  0  0  0  0  0  0
    9.1606    4.8818   25.9445 C   0  0  0  0  0  0  0  0  0  0  0  0
    8.5576    3.6403   26.2194 C   0  0  0  0  0  0  0  0  0  0  0  0
    8.5700    2.6296   25.2347 C   0  0  0  0  0  0  0  0  0  0  0  0
    7.7706    1.2222   25.8570 S   0  0  0  0  0  0  0  0  0  0  0  0
    7.4079    1.9391   27.3386 N   0  0  0  0  0  0  0  0  0  0  0  0
    7.8462    3.1543   27.3915 C   0  0  0  0  0  0  0  0  0  0  0  0
    7.6482    3.7471   28.2865 H   0  0  0  0  0  0  0  0  0  0  0  0
    9.1661    5.6773   26.6889 H   0  0  0  0  0  0  0  0  0  0  0  0
   10.1872    6.0516   24.4623 H   0  0  0  0  0  0  0  0  0  0  0  0
   10.1539    4.2922   22.7245 H   0  0  0  0  0  0  0  0  0  0  0  0
   12.0881    0.8635   21.9741 H   0  0  0  0  0  0  0  0  0  0  0  0
   11.7816    2.2212   23.0788 H   0  0  0  0  0  0  0  0  0  0  0  0
   11.3821    2.3921   20.0440 H   0  0  0  0  0  0  0  0  0  0  0  0
   12.5824    4.4713   20.1093 H   0  0  0  0  0  0  0  0  0  0  0  0
   13.0419    4.2620   21.8672 H   0  0  0  0  0  0  0  0  0  0  0  0
  1  2  2  3
  2  3  1  0
  3  4  1  0
  4  5  1  0
  5  6  2  0
  6  7  1  0
  7  8  1  0
  8  9  2  0
  9 10  1  0
 10 11  2  0
 11 12  1  0
 12 13  2  0
 13 14  1  0
 11 15  1  0
 10 16  1  0
  9 17  1  0
  7 18  1  0
  7 19  1  0
  6 20  1  0
 20 21  2  0
 21 22  1  0
 22 23  2  0
 23 24  1  0
 24 25  2  0
 25 26  1  0
 26 27  2  0
 27 28  1  0
 28 29  1  0
 29 30  2  0
 30 31  1  0
 25 32  1  0
 24 33  1  0
 23 34  1  0
  3 35  1  0
  3 36  1  0
  2 37  1  0
  1 38  1  0
  1 39  1  0
 21  4  1  0
 27 22  1  0
 13  8  1  0
 30 26  1  0
M  END
>  <cnnaffinity>  (1) 
-5.83509

>  <filename>  (1) 
[H]C([H])=C([H])C([H])([H])n1nc(C([H])([H])c2c([H])nc([H])c([H])c2[H])nc1-c1c([H])c([H])c([H])c2c([H])nsc12

$$$$
