
     RDKit          3D

 29 31  0  0  0  0  0  0  0  0999 V2000
    9.6984   -3.5106   22.9550 H   0  0  0  0  0  0  0  0  0  0  0  0
    9.0283   -2.6442   22.9630 C   0  0  0  0  0  0  0  0  0  0  0  0
    7.9878   -2.6050   23.8180 C   0  0  0  0  0  0  0  0  0  0  0  0
    7.3093   -3.9771   24.7063 S   0  0  0  0  0  0  0  0  0  0  0  0
    6.2862   -2.8709   25.7097 C   0  0  0  0  0  0  0  0  0  0  0  0
    5.5026   -3.1633   26.5611 O   0  0  0  0  0  0  0  0  0  0  0  0
    6.5355   -1.5833   25.3394 N   0  0  0  0  0  0  0  0  0  0  0  0
    6.0215   -0.8215   25.7432 H   0  0  0  0  0  0  0  0  0  0  0  0
    7.3396   -1.3365   24.2794 C   0  0  0  0  0  0  0  0  0  0  0  0
    7.4776   -0.2184   23.8401 O   0  0  0  0  0  0  0  0  0  0  0  0
    9.4018   -1.5688   22.0598 C   0  0  0  0  0  0  0  0  0  0  0  0
    8.7038   -0.6858   21.2250 C   0  0  0  0  0  0  0  0  0  0  0  0
    7.3242   -0.7057   20.9505 N   0  0  0  0  0  0  0  0  0  0  0  0
    6.7716   -0.7063   21.8030 H   0  0  0  0  0  0  0  0  0  0  0  0
    6.6906   -0.0366   19.8801 C   0  0  0  0  0  0  0  0  0  0  0  0
    7.1773    0.0178   18.5451 C   0  0  0  0  0  0  0  0  0  0  0  0
    8.0952   -0.5009   18.2809 H   0  0  0  0  0  0  0  0  0  0  0  0
    6.5648    0.6673   17.5402 N   0  0  0  0  0  0  0  0  0  0  0  0
    5.4127    1.2964   17.8214 C   0  0  0  0  0  0  0  0  0  0  0  0
    4.9441    1.8386   17.0038 H   0  0  0  0  0  0  0  0  0  0  0  0
    4.8195    1.2719   19.0897 C   0  0  0  0  0  0  0  0  0  0  0  0
    3.8810    1.7925   19.2561 H   0  0  0  0  0  0  0  0  0  0  0  0
    5.4615    0.5938   20.1324 C   0  0  0  0  0  0  0  0  0  0  0  0
    5.0341    0.5570   21.1395 H   0  0  0  0  0  0  0  0  0  0  0  0
    9.6931    0.1996   20.7390 C   0  0  0  0  0  0  0  0  0  0  0  0
    9.5362    1.0743   20.1246 H   0  0  0  0  0  0  0  0  0  0  0  0
   10.9085   -0.1328   21.1582 N   0  0  0  0  0  0  0  0  0  0  0  0
   10.7132   -1.2132   21.9144 N   0  0  0  0  0  0  0  0  0  0  0  0
   11.5073   -1.6253   22.3828 H   0  0  0  0  0  0  0  0  0  0  0  0
  1  2  1  0
  2  3  2  3
  3  4  1  0
  4  5  1  0
  5  6  2  0
  5  7  1  0
  7  8  1  0
  7  9  1  0
  9 10  2  0
  2 11  1  0
 11 12  2  0
 12 13  1  0
 13 14  1  0
 13 15  1  0
 15 16  2  0
 16 17  1  0
 16 18  1  0
 18 19  2  0
 19 20  1  0
 19 21  1  0
 21 22  1  0
 21 23  2  0
 23 24  1  0
 12 25  1  0
 25 26  1  0
 25 27  2  0
 27 28  1  0
 28 29  1  0
  9  3  1  0
 28 11  1  0
 23 15  1  0
M  END
>  <cnnaffinity>  (1) 
-5.31642

>  <filename>  (1) 
[H]C(=C1SC(=O)N([H])C1=O)c1c(N([H])c2c([H])nc([H])c([H])c2[H])c([H])nn1[H]

$$$$
