
     RDKit          3D

 39 40  0  0  0  0  0  0  0  0999 V2000
   10.7712   -3.3020   23.8990 C   0  0  0  0  0  0  0  0  0  0  0  0
    9.4414   -2.8060   23.6498 O   0  0  0  0  0  0  0  0  0  0  0  0
    9.0818   -2.4462   22.4041 C   0  0  0  0  0  0  0  0  0  0  0  0
    9.8406   -2.3062   21.4736 O   0  0  0  0  0  0  0  0  0  0  0  0
    7.5198   -2.3291   22.3248 C   0  0  0  0  0  0  0  0  0  0  0  0
    6.9560   -1.5081   21.1529 N   0  0  0  0  0  4  0  0  0  0  0  0
    6.9705   -0.0130   21.1960 C   0  0  1  0  0  0  0  0  0  0  0  0
    8.3587    0.6042   21.3335 C   0  0  0  0  0  0  0  0  0  0  0  0
    8.2538    1.6920   21.3062 H   0  0  0  0  0  0  0  0  0  0  0  0
    9.0068    0.3115   20.5045 H   0  0  0  0  0  0  0  0  0  0  0  0
    8.8520    0.3116   22.2635 H   0  0  0  0  0  0  0  0  0  0  0  0
    6.3214    0.3886   19.9007 C   0  0  0  0  0  0  0  0  0  0  0  0
    5.0990    1.0631   19.8591 C   0  0  0  0  0  0  0  0  0  0  0  0
    4.6129    1.5031   18.6253 C   0  0  0  0  0  0  0  0  0  0  0  0
    5.3662    1.2347   17.4787 C   0  0  0  0  0  0  0  0  0  0  0  0
    6.5208    0.5550   17.4933 N   0  0  0  0  0  0  0  0  0  0  0  0
    6.9723    0.1426   18.6824 C   0  0  0  0  0  0  0  0  0  0  0  0
    7.9281   -0.3886   18.6556 H   0  0  0  0  0  0  0  0  0  0  0  0
    5.0285    1.5720   16.5017 H   0  0  0  0  0  0  0  0  0  0  0  0
    3.6885    2.0628   18.5382 H   0  0  0  0  0  0  0  0  0  0  0  0
    4.5503    1.2482   20.7863 H   0  0  0  0  0  0  0  0  0  0  0  0
    6.3606    0.3318   22.0385 H   0  0  0  0  0  0  0  0  0  0  0  0
    5.9592   -1.8003   20.9841 H   0  0  0  0  0  0  0  0  0  0  0  0
    7.4855   -1.7695   20.2869 H   0  0  0  0  0  0  0  0  0  0  0  0
    6.9508   -3.7482   22.2263 C   0  0  0  0  0  0  0  0  0  0  0  0
    7.4818   -4.6681   21.3038 C   0  0  0  0  0  0  0  0  0  0  0  0
    7.0552   -5.9937   21.2987 C   0  0  0  0  0  0  0  0  0  0  0  0
    6.1474   -6.4475   22.2632 C   0  0  0  0  0  0  0  0  0  0  0  0
    5.6414   -5.5528   23.2181 C   0  0  0  0  0  0  0  0  0  0  0  0
    6.0173   -4.1982   23.1717 C   0  0  0  0  0  0  0  0  0  0  0  0
    5.5929   -3.4787   23.8724 H   0  0  0  0  0  0  0  0  0  0  0  0
    4.9819   -5.9067   24.0075 H   0  0  0  0  0  0  0  0  0  0  0  0
    5.8569   -7.4993   22.2847 H   0  0  0  0  0  0  0  0  0  0  0  0
    7.4608   -6.6693   20.5555 H   0  0  0  0  0  0  0  0  0  0  0  0
    8.2695   -4.3323   20.6278 H   0  0  0  0  0  0  0  0  0  0  0  0
    7.2160   -1.8865   23.2758 H   0  0  0  0  0  0  0  0  0  0  0  0
   10.7525   -4.3937   23.9038 H   0  0  0  0  0  0  0  0  0  0  0  0
   11.0427   -2.9629   24.8973 H   0  0  0  0  0  0  0  0  0  0  0  0
   11.4974   -2.9518   23.1594 H   0  0  0  0  0  0  0  0  0  0  0  0
  1  2  1  0
  2  3  1  0
  3  4  2  0
  3  5  1  0
  5  6  1  0
  6  7  1  0
  7  8  1  0
  8  9  1  0
  8 10  1  0
  8 11  1  0
  7 12  1  0
 12 13  2  0
 13 14  1  0
 14 15  2  0
 15 16  1  0
 16 17  2  0
 17 18  1  0
 15 19  1  0
 14 20  1  0
 13 21  1  0
  7 22  1  1
  6 23  1  0
  6 24  1  0
  5 25  1  0
 25 26  2  0
 26 27  1  0
 27 28  2  0
 28 29  1  0
 29 30  2  0
 30 31  1  0
 29 32  1  0
 28 33  1  0
 27 34  1  0
 26 35  1  0
  5 36  1  0
  1 37  1  0
  1 38  1  0
  1 39  1  0
 17 12  1  0
 30 25  1  0
M  CHG  1   6   1
M  END
>  <cnnaffinity>  (1) 
-5.01316

>  <filename>  (1) 
[H]c1nc([H])c([C@]([H])(C([H])([H])[H])[N+]([H])([H])C([H])(C(=O)OC([H])([H])[H])c2c([H])c([H])c([H])c([H])c2[H])c([H])c1[H]

$$$$
