
     RDKit          3D

 24 25  0  0  0  0  0  0  0  0999 V2000
    6.9069   -0.7025   21.9539 H   0  0  0  0  0  0  0  0  0  0  0  0
    7.3793   -0.7031   20.9608 C   0  0  0  0  0  0  0  0  0  0  0  0
    8.5144   -1.2547   20.7438 N   0  0  0  0  0  0  0  0  0  0  0  0
    9.2010   -1.9729   21.7481 C   0  0  0  0  0  0  0  0  0  0  0  0
   10.6168   -1.9658   21.7575 C   0  0  0  0  0  0  0  0  0  0  0  0
   11.2821   -1.1897   20.9022 F   0  0  0  0  0  0  0  0  0  0  0  0
   11.3884   -2.6859   22.6569 C   0  0  0  0  0  0  0  0  0  0  0  0
   12.4617   -2.6345   22.5111 H   0  0  0  0  0  0  0  0  0  0  0  0
   10.7673   -3.4223   23.6614 C   0  0  0  0  0  0  0  0  0  0  0  0
   11.3740   -3.9635   24.3782 H   0  0  0  0  0  0  0  0  0  0  0  0
    9.3730   -3.4650   23.7229 C   0  0  0  0  0  0  0  0  0  0  0  0
    8.8488   -4.0271   24.4882 H   0  0  0  0  0  0  0  0  0  0  0  0
    8.6300   -2.7637   22.7765 C   0  0  0  0  0  0  0  0  0  0  0  0
    7.2830   -2.8495   22.8545 F   0  0  0  0  0  0  0  0  0  0  0  0
    6.6560    0.0075   19.9119 C   0  0  0  0  0  0  0  0  0  0  0  0
    7.1761    0.0568   18.6054 C   0  0  0  0  0  0  0  0  0  0  0  0
    8.1208   -0.4256   18.3797 H   0  0  0  0  0  0  0  0  0  0  0  0
    6.5677    0.6687   17.5908 N   0  0  0  0  0  0  0  0  0  0  0  0
    5.4066    1.2859   17.8487 C   0  0  0  0  0  0  0  0  0  0  0  0
    4.9321    1.7776   17.0029 H   0  0  0  0  0  0  0  0  0  0  0  0
    4.8086    1.3054   19.1131 C   0  0  0  0  0  0  0  0  0  0  0  0
    3.8781    1.8397   19.2540 H   0  0  0  0  0  0  0  0  0  0  0  0
    5.4350    0.6512   20.1701 C   0  0  0  0  0  0  0  0  0  0  0  0
    4.9915    0.6441   21.1692 H   0  0  0  0  0  0  0  0  0  0  0  0
  1  2  1  0
  2  3  2  3
  3  4  1  0
  4  5  2  0
  5  6  1  0
  5  7  1  0
  7  8  1  0
  7  9  2  0
  9 10  1  0
  9 11  1  0
 11 12  1  0
 11 13  2  0
 13 14  1  0
  2 15  1  0
 15 16  2  0
 16 17  1  0
 16 18  1  0
 18 19  2  0
 19 20  1  0
 19 21  1  0
 21 22  1  0
 21 23  2  0
 23 24  1  0
 13  4  1  0
 23 15  1  0
M  END
>  <cnnaffinity>  (1) 
-4.9328

>  <filename>  (1) 
[H]C(=Nc1c(F)c([H])c([H])c([H])c1F)c1c([H])nc([H])c([H])c1[H]

$$$$
