
     RDKit          3D

 48 51  0  0  0  0  0  0  0  0999 V2000
   12.1154    0.0905   25.0552 C   0  0  0  0  0  0  0  0  0  0  0  0
   12.4747   -0.0505   23.5712 C   0  0  0  0  0  0  0  0  0  0  0  0
   12.5029    1.3062   22.9068 C   0  0  0  0  0  0  0  0  0  0  0  0
   13.7077    2.0341   22.8408 C   0  0  0  0  0  0  0  0  0  0  0  0
   13.7203    3.4104   22.5946 C   0  0  0  0  0  0  0  0  0  0  0  0
   12.5203    4.0662   22.3195 C   0  0  0  0  0  0  0  0  0  0  0  0
   11.3395    3.3374   22.2498 C   0  0  0  0  0  0  0  0  0  0  0  0
   11.3218    1.9718   22.5225 C   0  0  0  0  0  0  0  0  0  0  0  0
   10.0353    1.3466   22.4758 N   0  0  0  0  0  0  0  0  0  0  0  0
    9.7024    0.3420   21.6160 N   0  0  0  0  0  0  0  0  0  0  0  0
    8.3986    0.2315   21.7851 C   0  0  0  0  0  0  0  0  0  0  0  0
    7.5462   -0.7156   20.9811 C   0  0  0  0  0  0  0  0  0  0  0  0
    6.7620   -0.0675   19.8352 C   0  0  0  0  0  0  0  0  0  0  0  0
    5.5851    0.6510   20.0977 C   0  0  0  0  0  0  0  0  0  0  0  0
    4.9363    1.3037   19.0450 C   0  0  0  0  0  0  0  0  0  0  0  0
    5.4908    1.2277   17.7648 C   0  0  0  0  0  0  0  0  0  0  0  0
    6.6114    0.5431   17.4866 N   0  0  0  0  0  0  0  0  0  0  0  0
    7.2151   -0.0851   18.5037 C   0  0  0  0  0  0  0  0  0  0  0  0
    8.1348   -0.6182   18.2576 H   0  0  0  0  0  0  0  0  0  0  0  0
    5.0267    1.7427   16.9243 H   0  0  0  0  0  0  0  0  0  0  0  0
    4.0396    1.8928   19.2069 H   0  0  0  0  0  0  0  0  0  0  0  0
    5.2072    0.7203   21.1199 H   0  0  0  0  0  0  0  0  0  0  0  0
    6.8430   -1.1613   21.6917 H   0  0  0  0  0  0  0  0  0  0  0  0
    8.1955   -1.5192   20.6153 H   0  0  0  0  0  0  0  0  0  0  0  0
    7.8759    1.0716   22.7163 N   0  0  0  0  0  0  0  0  0  0  0  0
    8.9073    1.7933   23.0983 C   0  0  0  0  0  0  0  0  0  0  0  0
    8.8081    2.9325   24.0691 C   0  0  0  0  0  0  0  0  0  0  0  0
    8.4773    4.2656   23.3992 C   0  0  0  0  0  0  0  0  0  0  0  0
    7.3586    4.3222   22.6779 N   0  0  0  0  0  0  0  0  0  0  0  0
    7.0704    5.4516   22.0019 C   0  0  0  0  0  0  0  0  0  0  0  0
    7.8823    6.5857   22.0433 C   0  0  0  0  0  0  0  0  0  0  0  0
    9.0391    6.5710   22.8330 C   0  0  0  0  0  0  0  0  0  0  0  0
    9.3100    5.4002   23.5318 C   0  0  0  0  0  0  0  0  0  0  0  0
   10.4058    5.3524   24.3183 F   0  0  0  0  0  0  0  0  0  0  0  0
    9.7257    7.4118   22.8942 H   0  0  0  0  0  0  0  0  0  0  0  0
    7.6055    7.4656   21.4733 H   0  0  0  0  0  0  0  0  0  0  0  0
    6.1608    5.4414   21.4027 H   0  0  0  0  0  0  0  0  0  0  0  0
    9.7274    3.0223   24.6524 H   0  0  0  0  0  0  0  0  0  0  0  0
    7.9776    2.6902   24.7342 H   0  0  0  0  0  0  0  0  0  0  0  0
   10.4033    3.8247   22.0365 H   0  0  0  0  0  0  0  0  0  0  0  0
   12.4698    5.1383   22.1532 H   0  0  0  0  0  0  0  0  0  0  0  0
   14.6502    3.9691   22.6153 H   0  0  0  0  0  0  0  0  0  0  0  0
   14.6513    1.5138   23.0010 H   0  0  0  0  0  0  0  0  0  0  0  0
   11.7575   -0.6961   23.0560 H   0  0  0  0  0  0  0  0  0  0  0  0
   13.4621   -0.5190   23.4828 H   0  0  0  0  0  0  0  0  0  0  0  0
   12.0532   -0.8639   25.5763 H   0  0  0  0  0  0  0  0  0  0  0  0
   11.1552    0.5951   25.1927 H   0  0  0  0  0  0  0  0  0  0  0  0
   12.8814    0.6810   25.5578 H   0  0  0  0  0  0  0  0  0  0  0  0
  1  2  1  0
  2  3  1  0
  3  4  2  0
  4  5  1  0
  5  6  2  0
  6  7  1  0
  7  8  2  0
  8  9  1  0
  9 10  1  0
 10 11  2  0
 11 12  1  0
 12 13  1  0
 13 14  2  0
 14 15  1  0
 15 16  2  0
 16 17  1  0
 17 18  2  0
 18 19  1  0
 16 20  1  0
 15 21  1  0
 14 22  1  0
 12 23  1  0
 12 24  1  0
 11 25  1  0
 25 26  2  0
 26 27  1  0
 27 28  1  0
 28 29  2  0
 29 30  1  0
 30 31  2  0
 31 32  1  0
 32 33  2  0
 33 34  1  0
 32 35  1  0
 31 36  1  0
 30 37  1  0
 27 38  1  0
 27 39  1  0
  7 40  1  0
  6 41  1  0
  5 42  1  0
  4 43  1  0
  2 44  1  0
  2 45  1  0
  1 46  1  0
  1 47  1  0
  1 48  1  0
  8  3  1  0
 26  9  1  0
 33 28  1  0
 18 13  1  0
M  END
>  <cnnaffinity>  (1) 
-6.45912

>  <filename>  (1) 
[H]c1nc(C([H])([H])c2nc(C([H])([H])c3c([H])nc([H])c([H])c3[H])nn2-c2c([H])c([H])c([H])c([H])c2C([H])([H])C([H])([H])[H])c(F)c([H])c1[H]

$$$$
