
     RDKit          3D

 35 38  0  0  0  0  0  0  0  0999 V2000
    6.7776   -1.5513   21.4234 H   0  0  0  0  0  0  0  0  0  0  0  0
    7.3326   -0.7180   20.9861 C   0  0  0  0  0  0  0  0  0  0  0  0
    8.5523   -0.3841   21.4322 C   0  0  0  0  0  0  0  0  0  0  0  0
    9.3170   -1.0016   22.5331 C   0  0  0  0  0  0  0  0  0  0  0  0
    8.7544   -2.0789   23.3722 C   0  0  0  0  0  0  0  0  0  0  0  0
    9.8458   -3.2983   23.9741 S   0  0  0  0  0  0  0  0  0  0  0  0
    8.5645   -4.0489   24.9018 C   0  0  0  0  0  0  0  0  0  0  0  0
    8.6340   -5.1809   25.7362 C   0  0  0  0  0  0  0  0  0  0  0  0
    9.5699   -5.7188   25.8608 H   0  0  0  0  0  0  0  0  0  0  0  0
    7.4772   -5.5913   26.4028 C   0  0  0  0  0  0  0  0  0  0  0  0
    7.5098   -6.4636   27.0520 H   0  0  0  0  0  0  0  0  0  0  0  0
    6.2584   -4.8875   26.2509 C   0  0  0  0  0  0  0  0  0  0  0  0
    5.3690   -5.2192   26.7797 H   0  0  0  0  0  0  0  0  0  0  0  0
    6.1884   -3.7693   25.4312 C   0  0  0  0  0  0  0  0  0  0  0  0
    5.2674   -3.2049   25.2993 H   0  0  0  0  0  0  0  0  0  0  0  0
    7.3491   -3.3433   24.7478 C   0  0  0  0  0  0  0  0  0  0  0  0
    7.4943   -2.2210   23.8711 C   0  0  0  0  0  0  0  0  0  0  0  0
    6.6696   -1.5336   23.6825 H   0  0  0  0  0  0  0  0  0  0  0  0
   10.4922   -0.5130   22.7018 N   0  0  0  0  0  0  0  0  0  0  0  0
   10.6864    0.5906   21.7634 C   0  0  0  0  0  0  0  0  0  0  0  0
   11.5500    0.3587   21.1392 H   0  0  0  0  0  0  0  0  0  0  0  0
   10.9162    1.5001   22.3222 H   0  0  0  0  0  0  0  0  0  0  0  0
    9.4042    0.7523   20.9190 C   0  0  0  0  0  0  0  0  0  0  0  0
    8.9196    1.7221   21.0753 H   0  0  0  0  0  0  0  0  0  0  0  0
    9.5948    0.6507   19.8493 H   0  0  0  0  0  0  0  0  0  0  0  0
    6.6451   -0.0003   19.8936 C   0  0  0  0  0  0  0  0  0  0  0  0
    7.1685    0.0692   18.5880 C   0  0  0  0  0  0  0  0  0  0  0  0
    8.1141   -0.4303   18.3789 H   0  0  0  0  0  0  0  0  0  0  0  0
    6.5627    0.6846   17.5657 N   0  0  0  0  0  0  0  0  0  0  0  0
    5.4001    1.2974   17.8364 C   0  0  0  0  0  0  0  0  0  0  0  0
    4.9101    1.7809   16.9967 H   0  0  0  0  0  0  0  0  0  0  0  0
    4.8009    1.3147   19.1037 C   0  0  0  0  0  0  0  0  0  0  0  0
    3.8683    1.8483   19.2603 H   0  0  0  0  0  0  0  0  0  0  0  0
    5.4282    0.6408   20.1493 C   0  0  0  0  0  0  0  0  0  0  0  0
    5.0111    0.6232   21.1604 H   0  0  0  0  0  0  0  0  0  0  0  0
  1  2  1  0
  2  3  2  3
  3  4  1  0
  4  5  1  0
  5  6  1  0
  6  7  1  0
  7  8  2  0
  8  9  1  0
  8 10  1  0
 10 11  1  0
 10 12  2  0
 12 13  1  0
 12 14  1  0
 14 15  1  0
 14 16  2  0
 16 17  1  0
 17 18  1  0
  4 19  2  0
 19 20  1  0
 20 21  1  0
 20 22  1  0
 20 23  1  0
 23 24  1  0
 23 25  1  0
  2 26  1  0
 26 27  2  0
 27 28  1  0
 27 29  1  0
 29 30  2  0
 30 31  1  0
 30 32  1  0
 32 33  1  0
 32 34  2  0
 34 35  1  0
 23  3  1  0
 34 26  1  0
 17  5  2  0
 16  7  1  0
M  END
>  <cnnaffinity>  (1) 
-5.78195

>  <filename>  (1) 
[H]C(=C1C(c2sc3c([H])c([H])c([H])c([H])c3c2[H])=NC([H])([H])C1([H])[H])c1c([H])nc([H])c([H])c1[H]

$$$$
