
     RDKit          3D

 31 33  0  0  0  0  0  0  0  0999 V2000
    4.8062    1.3115   19.1039 C   0  0  0  0  0  0  0  0  0  0  0  0
    5.4022    1.2903   17.8383 C   0  0  0  0  0  0  0  0  0  0  0  0
    6.5629    0.6712   17.5784 N   0  0  0  0  0  0  0  0  0  0  0  0
    7.1626    0.0481   18.6021 C   0  0  0  0  0  0  0  0  0  0  0  0
    6.6528   -0.0067   19.9016 C   0  0  0  0  0  0  0  0  0  0  0  0
    7.3711   -0.7688   20.9835 C   0  0  0  0  0  0  0  0  0  0  0  0
    6.7571   -2.0750   21.1521 N   0  0  0  0  0  0  0  0  0  0  0  0
    6.8779   -2.8381   22.3029 C   0  0  0  0  0  0  0  0  0  0  0  0
    7.9459   -2.6669   23.1667 C   0  0  0  0  0  0  0  0  0  0  0  0
    8.0641   -3.4323   24.3557 C   0  0  0  0  0  0  0  0  0  0  0  0
    7.1105   -4.3664   24.6883 C   0  0  0  0  0  0  0  0  0  0  0  0
    5.9931   -4.5616   23.8396 C   0  0  0  0  0  0  0  0  0  0  0  0
    4.9753   -5.5018   24.1384 C   0  0  0  0  0  0  0  0  0  0  0  0
    3.9029   -5.6237   23.2941 C   0  0  0  0  0  0  0  0  0  0  0  0
    3.7393   -4.8781   22.1731 N   0  0  0  0  0  0  0  0  0  0  0  0
    4.6830   -4.0029   21.8845 C   0  0  0  0  0  0  0  0  0  0  0  0
    5.8564   -3.7975   22.6435 C   0  0  0  0  0  0  0  0  0  0  0  0
    4.5302   -3.4026   20.9947 H   0  0  0  0  0  0  0  0  0  0  0  0
    3.1117   -6.3405   23.5028 H   0  0  0  0  0  0  0  0  0  0  0  0
    5.0521   -6.1044   25.0323 H   0  0  0  0  0  0  0  0  0  0  0  0
    7.1784   -4.9672   25.5885 H   0  0  0  0  0  0  0  0  0  0  0  0
    8.9169   -3.2754   25.0060 H   0  0  0  0  0  0  0  0  0  0  0  0
    8.7116   -1.9370   22.9217 H   0  0  0  0  0  0  0  0  0  0  0  0
    6.4611   -2.5278   20.3070 H   0  0  0  0  0  0  0  0  0  0  0  0
    7.2647   -0.2284   21.9337 H   0  0  0  0  0  0  0  0  0  0  0  0
    8.4536   -0.8197   20.7625 H   0  0  0  0  0  0  0  0  0  0  0  0
    5.4400    0.6486   20.1555 C   0  0  0  0  0  0  0  0  0  0  0  0
    5.0065    0.6311   21.1597 H   0  0  0  0  0  0  0  0  0  0  0  0
    8.1172   -0.4226   18.3691 H   0  0  0  0  0  0  0  0  0  0  0  0
    4.9207    1.7816   16.9943 H   0  0  0  0  0  0  0  0  0  0  0  0
    3.8743    1.8443   19.2563 H   0  0  0  0  0  0  0  0  0  0  0  0
  1  2  2  0
  2  3  1  0
  3  4  2  0
  4  5  1  0
  5  6  1  0
  6  7  1  0
  7  8  1  0
  8  9  2  0
  9 10  1  0
 10 11  2  0
 11 12  1  0
 12 13  2  0
 13 14  1  0
 14 15  2  0
 15 16  1  0
 16 17  2  0
 16 18  1  0
 14 19  1  0
 13 20  1  0
 11 21  1  0
 10 22  1  0
  9 23  1  0
  7 24  1  0
  6 25  1  0
  6 26  1  0
  5 27  2  0
 27 28  1  0
  4 29  1  0
  2 30  1  0
  1 31  1  0
 27  1  1  0
 17  8  1  0
 17 12  1  0
M  END
>  <cnnaffinity>  (1) 
-4.85305

>  <filename>  (1) 
[H]c1nc([H])c(C([H])([H])N([H])c2c([H])c([H])c([H])c3c([H])c([H])nc([H])c23)c([H])c1[H]

$$$$
