
     RDKit          3D

 33 34  0  0  0  0  0  0  0  0999 V2000
    7.5266    1.1394   23.0127 C   0  0  0  0  0  0  0  0  0  0  0  0
    8.1373   -0.2420   23.2629 C   0  0  0  0  0  0  0  0  0  0  0  0
    7.1659   -1.2992   22.9454 N   0  0  0  0  0  0  0  0  0  0  0  0
    6.6686   -1.4744   21.6697 C   0  0  0  0  0  0  0  0  0  0  0  0
    5.5247   -2.6498   21.4279 S   0  0  0  0  0  0  0  0  0  0  0  0
    7.3275   -0.8644   20.6053 N   0  0  0  0  0  0  0  0  0  0  0  0
    6.6563   -0.1660   19.5778 C   0  0  0  0  0  0  0  0  0  0  0  0
    5.4192    0.4130   19.8566 C   0  0  0  0  0  0  0  0  0  0  0  0
    4.8192    1.2237   18.8886 C   0  0  0  0  0  0  0  0  0  0  0  0
    5.4427    1.4047   17.6463 C   0  0  0  0  0  0  0  0  0  0  0  0
    6.6184    0.8216   17.3426 N   0  0  0  0  0  0  0  0  0  0  0  0
    7.2174    0.0719   18.2953 C   0  0  0  0  0  0  0  0  0  0  0  0
    8.1870   -0.3591   18.0595 H   0  0  0  0  0  0  0  0  0  0  0  0
    4.9764    2.0635   16.9185 H   0  0  0  0  0  0  0  0  0  0  0  0
    3.8880    1.7387   19.0970 H   0  0  0  0  0  0  0  0  0  0  0  0
    4.9731    0.2559   20.8364 H   0  0  0  0  0  0  0  0  0  0  0  0
    8.1950   -0.4404   20.9115 H   0  0  0  0  0  0  0  0  0  0  0  0
    6.5636   -1.6284   23.6982 H   0  0  0  0  0  0  0  0  0  0  0  0
    8.5893   -0.3405   24.6976 C   0  0  0  0  0  0  0  0  0  0  0  0
    9.9269   -0.0454   24.9951 C   0  0  0  0  0  0  0  0  0  0  0  0
   10.3756   -0.0476   26.3120 C   0  0  0  0  0  0  0  0  0  0  0  0
    9.5061   -0.3563   27.3540 C   0  0  0  0  0  0  0  0  0  0  0  0
    8.1709   -0.6470   27.0701 C   0  0  0  0  0  0  0  0  0  0  0  0
    7.7056   -0.6561   25.7507 C   0  0  0  0  0  0  0  0  0  0  0  0
    5.8727   -1.0939   25.4086 Br  0  0  0  0  0  0  0  0  0  0  0  0
    7.4774   -0.8345   27.8795 H   0  0  0  0  0  0  0  0  0  0  0  0
    9.8589   -0.3382   28.3814 H   0  0  0  0  0  0  0  0  0  0  0  0
   11.4063    0.1882   26.5259 H   0  0  0  0  0  0  0  0  0  0  0  0
   10.6359    0.2007   24.2114 H   0  0  0  0  0  0  0  0  0  0  0  0
    9.0213   -0.3564   22.6206 H   0  0  0  0  0  0  0  0  0  0  0  0
    6.6496    1.2908   23.6522 H   0  0  0  0  0  0  0  0  0  0  0  0
    7.2145    1.2400   21.9704 H   0  0  0  0  0  0  0  0  0  0  0  0
    8.2645    1.9221   23.2219 H   0  0  0  0  0  0  0  0  0  0  0  0
  1  2  1  0
  2  3  1  0
  3  4  1  0
  4  5  2  0
  4  6  1  0
  6  7  1  0
  7  8  2  0
  8  9  1  0
  9 10  2  0
 10 11  1  0
 11 12  2  0
 12 13  1  0
 10 14  1  0
  9 15  1  0
  8 16  1  0
  6 17  1  0
  3 18  1  0
  2 19  1  0
 19 20  2  0
 20 21  1  0
 21 22  2  0
 22 23  1  0
 23 24  2  0
 24 25  1  0
 23 26  1  0
 22 27  1  0
 21 28  1  0
 20 29  1  0
  2 30  1  0
  1 31  1  0
  1 32  1  0
  1 33  1  0
 12  7  1  0
 24 19  1  0
M  END
>  <cnnaffinity>  (1) 
-5.04718

>  <filename>  (1) 
[H]c1nc([H])c(N([H])C(=S)N([H])C([H])(c2c([H])c([H])c([H])c([H])c2Br)C([H])([H])[H])c([H])c1[H]

$$$$
