
     RDKit          3D

 48 51  0  0  0  0  0  0  0  0999 V2000
    5.3231    1.4687   17.1694 H   0  0  0  0  0  0  0  0  0  0  0  0
    5.6703    1.0522   18.1129 C   0  0  0  0  0  0  0  0  0  0  0  0
    6.6972    0.1934   18.0420 N   0  0  0  0  0  0  0  0  0  0  0  0
    7.1487   -0.3144   19.2003 C   0  0  0  0  0  0  0  0  0  0  0  0
    7.9513   -1.0476   19.1005 H   0  0  0  0  0  0  0  0  0  0  0  0
    6.6681    0.0376   20.4669 C   0  0  0  0  0  0  0  0  0  0  0  0
    7.3689   -0.6101   21.6665 C   0  0  2  0  0  0  0  0  0  0  0  0
    7.0364   -2.0583   21.6082 N   0  0  0  0  0  0  0  0  0  0  0  0
    8.0207   -3.1432   21.5011 C   0  0  0  0  0  0  0  0  0  0  0  0
    8.8438   -2.8717   20.8328 H   0  0  0  0  0  0  0  0  0  0  0  0
    8.4977   -3.3584   22.4679 H   0  0  0  0  0  0  0  0  0  0  0  0
    7.4322   -4.4800   20.9766 C   0  0  0  0  0  0  0  0  0  0  0  0
    8.2519   -5.1174   20.6253 H   0  0  0  0  0  0  0  0  0  0  0  0
    6.8438   -4.2494   20.0718 H   0  0  0  0  0  0  0  0  0  0  0  0
    6.6328   -5.2656   21.9378 N   0  0  0  0  0  0  0  0  0  0  0  0
    5.6672   -6.1693   21.3304 C   0  0  0  0  0  0  0  0  0  0  0  0
    6.0307   -6.4909   20.3489 H   0  0  0  0  0  0  0  0  0  0  0  0
    5.5366   -7.0684   21.9500 H   0  0  0  0  0  0  0  0  0  0  0  0
    4.6660   -5.7244   21.1906 H   0  0  0  0  0  0  0  0  0  0  0  0
    6.1237   -4.5324   23.0953 C   0  0  0  0  0  0  0  0  0  0  0  0
    7.0012   -4.1956   23.6620 H   0  0  0  0  0  0  0  0  0  0  0  0
    5.6022   -5.2434   23.7503 H   0  0  0  0  0  0  0  0  0  0  0  0
    5.2024   -3.3293   22.8072 C   0  0  0  0  0  0  0  0  0  0  0  0
    5.1842   -2.7232   23.7212 H   0  0  0  0  0  0  0  0  0  0  0  0
    4.1779   -3.6801   22.6204 H   0  0  0  0  0  0  0  0  0  0  0  0
    5.6327   -2.4644   21.6071 C   0  0  0  0  0  0  0  0  0  0  0  0
    5.3994   -3.0256   20.6880 H   0  0  0  0  0  0  0  0  0  0  0  0
    5.0137   -1.5716   21.5172 H   0  0  0  0  0  0  0  0  0  0  0  0
    7.0003    0.0497   23.0569 C   0  0  0  0  0  0  0  0  0  0  0  0
    6.2870    0.8728   22.9714 H   0  0  0  0  0  0  0  0  0  0  0  0
    6.5382   -0.7091   23.6941 H   0  0  0  0  0  0  0  0  0  0  0  0
    8.3463    0.5305   23.6556 C   0  0  2  0  0  0  0  0  0  0  0  0
    8.3039    0.6981   24.7377 H   0  0  0  0  0  0  0  0  0  0  0  0
    8.8887    1.7491   22.8758 C   0  0  0  0  0  0  0  0  0  0  0  0
    8.1735    2.5760   22.8014 H   0  0  0  0  0  0  0  0  0  0  0  0
    9.7867    2.1481   23.3643 H   0  0  0  0  0  0  0  0  0  0  0  0
    9.2493    1.1386   21.4921 C   0  0  0  0  0  0  0  0  0  0  0  0
    8.6656    1.5915   20.6808 H   0  0  0  0  0  0  0  0  0  0  0  0
   10.3087    1.2800   21.2462 H   0  0  0  0  0  0  0  0  0  0  0  0
    8.9277   -0.3655   21.6834 C   0  0  1  0  0  0  0  0  0  0  0  0
    9.4671   -0.9977   20.9770 H   0  0  0  0  0  0  0  0  0  0  0  0
    9.2846   -0.5816   23.1682 C   0  0  0  0  0  0  0  0  0  0  0  0
    8.9953   -1.5688   23.5543 H   0  0  0  0  0  0  0  0  0  0  0  0
   10.3453   -0.4159   23.4066 H   0  0  0  0  0  0  0  0  0  0  0  0
    5.5293    0.8634   20.5097 C   0  0  0  0  0  0  0  0  0  0  0  0
    5.0151    1.0769   21.4495 H   0  0  0  0  0  0  0  0  0  0  0  0
    5.0409    1.3978   19.3118 C   0  0  0  0  0  0  0  0  0  0  0  0
    4.1813    2.0606   19.2969 H   0  0  0  0  0  0  0  0  0  0  0  0
  1  2  1  0
  2  3  2  0
  3  4  1  0
  4  5  1  0
  4  6  2  0
  6  7  1  0
  7  8  1  1
  8  9  1  0
  9 10  1  0
  9 11  1  0
  9 12  1  0
 12 13  1  0
 12 14  1  0
 12 15  1  0
 15 16  1  0
 16 17  1  0
 16 18  1  0
 16 19  1  0
 15 20  1  0
 20 21  1  0
 20 22  1  0
 20 23  1  0
 23 24  1  0
 23 25  1  0
 23 26  1  0
 26 27  1  0
 26 28  1  0
  7 29  1  0
 29 30  1  0
 29 31  1  0
 29 32  1  0
 32 33  1  1
 32 34  1  0
 34 35  1  0
 34 36  1  0
 34 37  1  0
 37 38  1  0
 37 39  1  0
 37 40  1  0
 40 41  1  6
 40 42  1  0
 42 43  1  0
 42 44  1  0
  6 45  1  0
 45 46  1  0
 45 47  2  0
 47 48  1  0
 47  2  1  0
 40  7  1  0
 26  8  1  0
 42 32  1  0
M  END
>  <cnnaffinity>  (1) 
-5.21127

>  <filename>  (1) 
[H]c1nc([H])c([C@]2(N3C([H])([H])C([H])([H])N(C([H])([H])[H])C([H])([H])C([H])([H])C3([H])[H])C([H])([H])[C@]3([H])C([H])([H])C([H])([H])[C@@]2([H])C3([H])[H])c([H])c1[H]

$$$$
