
     RDKit          3D

 41 44  0  0  0  0  0  0  0  0999 V2000
    4.9915    1.8444   16.9155 H   0  0  0  0  0  0  0  0  0  0  0  0
    5.3860    1.3104   17.7818 C   0  0  0  0  0  0  0  0  0  0  0  0
    6.5395    0.6493   17.5918 N   0  0  0  0  0  0  0  0  0  0  0  0
    7.0667    0.0235   18.6528 C   0  0  0  0  0  0  0  0  0  0  0  0
    8.0070   -0.4948   18.4658 H   0  0  0  0  0  0  0  0  0  0  0  0
    6.4871   -0.0167   19.9391 C   0  0  0  0  0  0  0  0  0  0  0  0
    7.2344   -0.6357   21.0533 C   0  0  0  0  0  0  0  0  0  0  0  0
    8.5881   -0.5648   21.2902 C   0  0  0  0  0  0  0  0  0  0  0  0
    8.8022   -1.1454   22.5314 C   0  0  0  0  0  0  0  0  0  0  0  0
    7.6918   -1.6000   23.0791 N   0  0  0  0  0  0  0  0  0  0  0  0
    6.7386   -1.2756   22.1603 N   0  0  0  0  0  0  0  0  0  0  0  0
    5.7733   -1.5099   22.3691 H   0  0  0  0  0  0  0  0  0  0  0  0
   10.2364   -1.0524   22.9658 C   0  0  0  0  0  0  0  0  0  0  0  0
   10.3489   -0.6782   23.9875 H   0  0  0  0  0  0  0  0  0  0  0  0
   10.7077   -2.0424   22.9266 H   0  0  0  0  0  0  0  0  0  0  0  0
   10.8596   -0.0691   21.9117 C   0  0  2  0  0  0  0  0  0  0  0  0
   11.8083   -0.4862   21.5663 H   0  0  0  0  0  0  0  0  0  0  0  0
   11.1149    1.3193   22.4736 C   0  0  0  0  0  0  0  0  0  0  0  0
   12.4081    1.8642   22.5239 C   0  0  0  0  0  0  0  0  0  0  0  0
   13.2507    1.2867   22.1501 H   0  0  0  0  0  0  0  0  0  0  0  0
   12.6158    3.1406   23.0521 C   0  0  0  0  0  0  0  0  0  0  0  0
   13.6161    3.5552   23.0811 H   0  0  0  0  0  0  0  0  0  0  0  0
   11.5479    3.9022   23.5203 C   0  0  0  0  0  0  0  0  0  0  0  0
   11.7129    4.9048   23.9140 H   0  0  0  0  0  0  0  0  0  0  0  0
   10.2545    3.3679   23.4481 C   0  0  0  0  0  0  0  0  0  0  0  0
    8.8612    4.3396   24.0051 S   0  0  0  0  0  0  0  0  0  0  0  0
    9.3139    5.7114   24.2049 O   0  0  0  0  0  0  0  0  0  0  0  0
    7.6960    4.0251   23.1897 O   0  0  0  0  0  0  0  0  0  0  0  0
    8.4880    3.7188   25.6164 C   0  0  0  0  0  0  0  0  0  0  0  0
    7.6352    4.3139   25.9397 H   0  0  0  0  0  0  0  0  0  0  0  0
    8.2195    2.6686   25.5386 H   0  0  0  0  0  0  0  0  0  0  0  0
    9.3369    3.8638   26.2762 H   0  0  0  0  0  0  0  0  0  0  0  0
   10.0347    2.0881   22.9265 C   0  0  0  0  0  0  0  0  0  0  0  0
    9.0271    1.6792   22.8273 H   0  0  0  0  0  0  0  0  0  0  0  0
    9.8502   -0.0247   20.7183 C   0  0  0  0  0  0  0  0  0  0  0  0
   10.1974   -0.6718   19.9114 H   0  0  0  0  0  0  0  0  0  0  0  0
    9.7199    0.9831   20.3111 H   0  0  0  0  0  0  0  0  0  0  0  0
    5.2661    0.6639   20.1076 C   0  0  0  0  0  0  0  0  0  0  0  0
    4.7755    0.7015   21.0827 H   0  0  0  0  0  0  0  0  0  0  0  0
    4.7225    1.3364   19.0132 C   0  0  0  0  0  0  0  0  0  0  0  0
    3.8072    1.9101   19.0995 H   0  0  0  0  0  0  0  0  0  0  0  0
  1  2  1  0
  2  3  2  0
  3  4  1  0
  4  5  1  0
  4  6  2  0
  6  7  1  0
  7  8  2  0
  8  9  1  0
  9 10  2  0
 10 11  1  0
 11 12  1  0
  9 13  1  0
 13 14  1  0
 13 15  1  0
 13 16  1  0
 16 17  1  6
 16 18  1  0
 18 19  2  0
 19 20  1  0
 19 21  1  0
 21 22  1  0
 21 23  2  0
 23 24  1  0
 23 25  1  0
 25 26  1  0
 26 27  2  0
 26 28  2  0
 26 29  1  0
 29 30  1  0
 29 31  1  0
 29 32  1  0
 25 33  2  0
 33 34  1  0
 16 35  1  0
 35 36  1  0
 35 37  1  0
  6 38  1  0
 38 39  1  0
 38 40  2  0
 40 41  1  0
 40  2  1  0
 11  7  1  0
 33 18  1  0
 35  8  1  0
M  END
>  <cnnaffinity>  (1) 
-5.89557

>  <filename>  (1) 
[H]c1nc([H])c(-c2c3c(nn2[H])C([H])([H])[C@]([H])(c2c([H])c([H])c([H])c(S(=O)(=O)C([H])([H])[H])c2[H])C3([H])[H])c([H])c1[H]

$$$$
