
     RDKit          3D

 33 35  0  0  0  0  0  0  0  0999 V2000
    5.0946    1.7843   17.0981 H   0  0  0  0  0  0  0  0  0  0  0  0
    5.5181    1.1588   17.8827 C   0  0  0  0  0  0  0  0  0  0  0  0
    6.6825    0.5529   17.5928 N   0  0  0  0  0  0  0  0  0  0  0  0
    7.2477   -0.1753   18.5631 C   0  0  0  0  0  0  0  0  0  0  0  0
    8.1877   -0.6625   18.3015 H   0  0  0  0  0  0  0  0  0  0  0  0
    6.7059   -0.3454   19.8530 C   0  0  0  0  0  0  0  0  0  0  0  0
    7.5712   -0.9705   20.9488 C   0  0  2  0  0  0  0  0  0  0  0  0
    8.2026   -1.7265   20.4637 H   0  0  0  0  0  0  0  0  0  0  0  0
    6.7153   -1.8238   21.9862 C   0  0  0  0  0  0  0  0  0  0  0  0
    6.4020   -1.4702   23.1093 O   0  0  0  0  0  0  0  0  0  0  0  0
    6.3044   -3.0407   21.5108 N   0  0  0  0  0  0  0  0  0  0  0  0
    6.5763   -3.3673   20.6034 H   0  0  0  0  0  0  0  0  0  0  0  0
    5.3309   -3.8562   22.0561 C   0  0  0  0  0  0  0  0  0  0  0  0
    4.9993   -4.9710   21.4845 N   0  0  0  0  0  0  0  0  0  0  0  0
    3.9172   -5.4186   22.2484 C   0  0  0  0  0  0  0  0  0  0  0  0
    3.1099   -6.5625   22.1087 C   0  0  0  0  0  0  0  0  0  0  0  0
    3.3805   -7.3110   21.3770 H   0  0  0  0  0  0  0  0  0  0  0  0
    2.0111   -6.7315   22.9531 C   0  0  0  0  0  0  0  0  0  0  0  0
    1.3770   -7.6128   22.8295 H   0  0  0  0  0  0  0  0  0  0  0  0
    1.7207   -5.7738   23.9487 C   0  0  0  0  0  0  0  0  0  0  0  0
    0.8582   -5.9318   24.5931 H   0  0  0  0  0  0  0  0  0  0  0  0
    2.5389   -4.6542   24.1368 C   0  0  0  0  0  0  0  0  0  0  0  0
    2.3269   -3.9391   24.9253 H   0  0  0  0  0  0  0  0  0  0  0  0
    3.6292   -4.4921   23.2787 C   0  0  0  0  0  0  0  0  0  0  0  0
    4.6002   -3.5097   23.1395 N   0  0  0  0  0  0  0  0  0  0  0  0
    4.6894   -2.5904   23.5447 H   0  0  0  0  0  0  0  0  0  0  0  0
    8.4995    0.0665   21.4758 N   0  0  0  0  0  0  0  0  0  0  0  0
    8.1447    0.4658   22.3436 H   0  0  0  0  0  0  0  0  0  0  0  0
    8.5340    0.8479   20.8210 H   0  0  0  0  0  0  0  0  0  0  0  0
    5.4563    0.2373   20.1085 C   0  0  0  0  0  0  0  0  0  0  0  0
    4.9701    0.1008   21.0792 H   0  0  0  0  0  0  0  0  0  0  0  0
    4.8588    1.0080   19.1067 C   0  0  0  0  0  0  0  0  0  0  0  0
    3.9044    1.5001   19.2604 H   0  0  0  0  0  0  0  0  0  0  0  0
  1  2  1  0
  2  3  2  0
  3  4  1  0
  4  5  1  0
  4  6  2  0
  6  7  1  0
  7  8  1  6
  7  9  1  0
  9 10  2  0
  9 11  1  0
 11 12  1  0
 11 13  1  0
 13 14  2  0
 14 15  1  0
 15 16  2  0
 16 17  1  0
 16 18  1  0
 18 19  1  0
 18 20  2  0
 20 21  1  0
 20 22  1  0
 22 23  1  0
 22 24  2  0
 24 25  1  0
 25 26  1  0
  7 27  1  0
 27 28  1  0
 27 29  1  0
  6 30  1  0
 30 31  1  0
 30 32  2  0
 32 33  1  0
 32  2  1  0
 25 13  1  0
 24 15  1  0
M  END
>  <cnnaffinity>  (1) 
-5.07447

>  <filename>  (1) 
[H]c1nc([H])c([C@]([H])(C(=O)N([H])c2nc3c([H])c([H])c([H])c([H])c3n2[H])N([H])[H])c([H])c1[H]

$$$$
