
     RDKit          3D

 28 30  0  0  0  0  0  0  0  0999 V2000
   13.6953    0.8765   21.9924 H   0  0  0  0  0  0  0  0  0  0  0  0
   12.9853    0.0663   22.0620 C   0  0  0  0  0  0  0  0  0  0  0  0
   13.1494   -1.2067   22.3887 C   0  0  0  0  0  0  0  0  0  0  0  0
   14.0273   -1.7768   22.6514 H   0  0  0  0  0  0  0  0  0  0  0  0
   11.8117   -1.8559   22.4041 C   0  0  0  0  0  0  0  0  0  0  0  0
   11.5566   -2.9707   22.7817 O   0  0  0  0  0  0  0  0  0  0  0  0
   10.8846   -0.8969   21.9875 N   0  0  0  0  0  0  0  0  0  0  0  0
    9.4968   -1.0913   21.9854 C   0  0  0  0  0  0  0  0  0  0  0  0
    8.8137   -0.4843   20.9811 N   0  0  0  0  0  0  0  0  0  0  0  0
    7.5089   -0.6867   20.9039 C   0  0  0  0  0  0  0  0  0  0  0  0
    6.7432    0.0481   19.8862 C   0  0  0  0  0  0  0  0  0  0  0  0
    7.2497    0.1128   18.5760 C   0  0  0  0  0  0  0  0  0  0  0  0
    8.1991   -0.3623   18.3351 H   0  0  0  0  0  0  0  0  0  0  0  0
    6.6061    0.6967   17.5626 N   0  0  0  0  0  0  0  0  0  0  0  0
    5.4345    1.2922   17.8353 C   0  0  0  0  0  0  0  0  0  0  0  0
    4.9353    1.7696   16.9951 H   0  0  0  0  0  0  0  0  0  0  0  0
    4.8487    1.3092   19.1057 C   0  0  0  0  0  0  0  0  0  0  0  0
    3.8969    1.8128   19.2532 H   0  0  0  0  0  0  0  0  0  0  0  0
    5.5042    0.6603   20.1516 C   0  0  0  0  0  0  0  0  0  0  0  0
    5.0513    0.6052   21.1442 H   0  0  0  0  0  0  0  0  0  0  0  0
    6.7699   -1.6815   21.7981 C   0  0  0  0  0  0  0  0  0  0  0  0
    5.6597   -2.1793   21.6850 O   0  0  0  0  0  0  0  0  0  0  0  0
    7.5570   -2.1049   22.8695 N   0  0  0  0  0  0  0  0  0  0  0  0
    7.0334   -2.7634   23.4371 H   0  0  0  0  0  0  0  0  0  0  0  0
    8.9105   -1.8928   22.9412 C   0  0  0  0  0  0  0  0  0  0  0  0
    9.4974   -2.3954   23.7017 H   0  0  0  0  0  0  0  0  0  0  0  0
   11.5548    0.3014   21.6965 C   0  0  0  0  0  0  0  0  0  0  0  0
   11.0981    1.3089   21.2372 O   0  0  0  0  0  0  0  0  0  0  0  0
  1  2  1  0
  2  3  2  0
  3  4  1  0
  3  5  1  0
  5  6  2  0
  5  7  1  0
  7  8  1  0
  8  9  1  0
  9 10  2  0
 10 11  1  0
 11 12  2  0
 12 13  1  0
 12 14  1  0
 14 15  2  0
 15 16  1  0
 15 17  1  0
 17 18  1  0
 17 19  2  0
 19 20  1  0
 10 21  1  0
 21 22  2  0
 21 23  1  0
 23 24  1  0
 23 25  1  0
 25 26  1  0
  7 27  1  0
 27 28  2  0
 27  2  1  0
 25  8  2  0
 19 11  1  0
M  END
>  <cnnaffinity>  (1) 
-5.48105

>  <filename>  (1) 
[H]C1=C([H])C(=O)N(c2nc(-c3c([H])nc([H])c([H])c3[H])c(=O)n([H])c2[H])C1=O

$$$$
