
     RDKit          3D

 29 31  0  0  0  0  0  0  0  0999 V2000
    4.9427    1.7949   16.9859 H   0  0  0  0  0  0  0  0  0  0  0  0
    5.3986    1.2887   17.8345 C   0  0  0  0  0  0  0  0  0  0  0  0
    6.5620    0.6663   17.5861 N   0  0  0  0  0  0  0  0  0  0  0  0
    7.1729    0.0634   18.6120 C   0  0  0  0  0  0  0  0  0  0  0  0
    8.1177   -0.4265   18.3844 H   0  0  0  0  0  0  0  0  0  0  0  0
    6.6546    0.0299   19.9148 C   0  0  0  0  0  0  0  0  0  0  0  0
    7.6548   -0.7066   21.1854 S   0  0  0  0  0  0  0  0  0  0  0  0
    8.5086    0.6231   21.7417 N   0  0  0  0  0  0  0  0  0  0  0  0
    9.2973    1.0372   21.2748 H   0  0  0  0  0  0  0  0  0  0  0  0
    8.0496    1.5620   22.6336 C   0  0  0  0  0  0  0  0  0  0  0  0
    8.8007    2.6377   22.6931 N   0  0  0  0  0  0  0  0  0  0  0  0
    8.4422    3.5868   23.6139 C   0  0  0  0  0  0  0  0  0  0  0  0
    9.2226    4.7785   23.7279 C   0  0  0  0  0  0  0  0  0  0  0  0
   10.0654    4.8769   23.0508 H   0  0  0  0  0  0  0  0  0  0  0  0
    8.8952    5.7463   24.6588 C   0  0  0  0  0  0  0  0  0  0  0  0
    9.4848    6.6547   24.7439 H   0  0  0  0  0  0  0  0  0  0  0  0
    7.7778    5.5768   25.5203 C   0  0  0  0  0  0  0  0  0  0  0  0
    7.5289    6.3460   26.2414 H   0  0  0  0  0  0  0  0  0  0  0  0
    7.0064    4.4443   25.4381 C   0  0  0  0  0  0  0  0  0  0  0  0
    6.1459    4.2907   26.0833 H   0  0  0  0  0  0  0  0  0  0  0  0
    7.3169    3.4332   24.4915 C   0  0  0  0  0  0  0  0  0  0  0  0
    6.5470    2.2407   24.3670 C   0  0  0  0  0  0  0  0  0  0  0  0
    5.6923    2.0845   25.0256 H   0  0  0  0  0  0  0  0  0  0  0  0
    6.9074    1.3115   23.4357 C   0  0  0  0  0  0  0  0  0  0  0  0
    6.4033    0.3712   23.2841 H   0  0  0  0  0  0  0  0  0  0  0  0
    5.4208    0.6450   20.1559 C   0  0  0  0  0  0  0  0  0  0  0  0
    4.9723    0.6304   21.1493 H   0  0  0  0  0  0  0  0  0  0  0  0
    4.7903    1.3007   19.0950 C   0  0  0  0  0  0  0  0  0  0  0  0
    3.8641    1.8442   19.2375 H   0  0  0  0  0  0  0  0  0  0  0  0
  1  2  1  0
  2  3  2  0
  3  4  1  0
  4  5  1  0
  4  6  2  0
  6  7  1  0
  7  8  1  0
  8  9  1  0
  8 10  1  0
 10 11  2  0
 11 12  1  0
 12 13  2  0
 13 14  1  0
 13 15  1  0
 15 16  1  0
 15 17  2  0
 17 18  1  0
 17 19  1  0
 19 20  1  0
 19 21  2  0
 21 22  1  0
 22 23  1  0
 22 24  2  0
 24 25  1  0
  6 26  1  0
 26 27  1  0
 26 28  2  0
 28 29  1  0
 28  2  1  0
 24 10  1  0
 21 12  1  0
M  END
>  <cnnaffinity>  (1) 
-4.64792

>  <filename>  (1) 
[H]c1nc([H])c(SN([H])c2nc3c([H])c([H])c([H])c([H])c3c([H])c2[H])c([H])c1[H]

$$$$
