
     RDKit          3D

 41 43  0  0  0  0  0  0  0  0999 V2000
    8.5180    1.5160   21.9261 C   0  0  0  0  0  0  0  0  0  0  0  0
    8.7199    0.0906   21.4195 C   0  0  0  0  0  0  0  0  0  0  0  0
    7.4238   -0.6821   21.1061 C   0  0  0  0  0  0  0  0  0  0  0  0
    7.7619   -2.1012   20.6973 N   0  0  0  0  0  4  0  0  0  0  0  0
    7.9984   -3.0698   21.7808 C   0  0  0  0  0  0  0  0  0  0  0  0
    6.6748   -3.4722   22.3906 C   0  0  0  0  0  0  0  0  0  0  0  0
    5.4690   -3.1349   21.7904 C   0  0  0  0  0  0  0  0  0  0  0  0
    4.2461   -3.4783   22.2548 N   0  0  0  0  0  0  0  0  0  0  0  0
    4.1730   -4.0950   23.4100 C   0  0  0  0  0  0  0  0  0  0  0  0
    5.3061   -4.4828   24.1746 C   0  0  0  0  0  0  0  0  0  0  0  0
    5.1575   -5.1467   25.4285 C   0  0  0  0  0  0  0  0  0  0  0  0
    6.2607   -5.6458   26.0744 C   0  0  0  0  0  0  0  0  0  0  0  0
    7.5529   -5.4631   25.5106 C   0  0  0  0  0  0  0  0  0  0  0  0
    7.7257   -4.7506   24.3363 C   0  0  0  0  0  0  0  0  0  0  0  0
    6.6046   -4.2214   23.6241 C   0  0  0  0  0  0  0  0  0  0  0  0
    8.7299   -4.5975   23.9532 H   0  0  0  0  0  0  0  0  0  0  0  0
    8.4149   -5.8664   26.0375 H   0  0  0  0  0  0  0  0  0  0  0  0
    6.1462   -6.1796   27.0156 H   0  0  0  0  0  0  0  0  0  0  0  0
    4.1550   -5.2509   25.8549 H   0  0  0  0  0  0  0  0  0  0  0  0
    3.1817   -4.3460   23.7914 H   0  0  0  0  0  0  0  0  0  0  0  0
    5.3969   -2.5522   20.8739 H   0  0  0  0  0  0  0  0  0  0  0  0
    8.6556   -2.6442   22.5571 H   0  0  0  0  0  0  0  0  0  0  0  0
    8.5329   -3.9522   21.3990 H   0  0  0  0  0  0  0  0  0  0  0  0
    8.5342   -2.0399   20.0117 H   0  0  0  0  0  0  0  0  0  0  0  0
    6.9479   -2.4719   20.1638 H   0  0  0  0  0  0  0  0  0  0  0  0
    6.6246   -0.0824   19.9706 C   0  0  0  0  0  0  0  0  0  0  0  0
    5.4183    0.6142   20.1672 C   0  0  0  0  0  0  0  0  0  0  0  0
    4.8275    1.2770   19.0850 C   0  0  0  0  0  0  0  0  0  0  0  0
    5.4633    1.2229   17.8398 C   0  0  0  0  0  0  0  0  0  0  0  0
    6.5973    0.5412   17.6231 N   0  0  0  0  0  0  0  0  0  0  0  0
    7.1459   -0.0946   18.6668 C   0  0  0  0  0  0  0  0  0  0  0  0
    8.0686   -0.6321   18.4474 H   0  0  0  0  0  0  0  0  0  0  0  0
    5.0402    1.7454   16.9810 H   0  0  0  0  0  0  0  0  0  0  0  0
    3.9052    1.8425   19.1910 H   0  0  0  0  0  0  0  0  0  0  0  0
    4.9417    0.6466   21.1504 H   0  0  0  0  0  0  0  0  0  0  0  0
    6.7947   -0.7119   22.0073 H   0  0  0  0  0  0  0  0  0  0  0  0
    9.3395    0.0884   20.5125 H   0  0  0  0  0  0  0  0  0  0  0  0
    9.2677   -0.4946   22.1657 H   0  0  0  0  0  0  0  0  0  0  0  0
    9.4839    1.9800   22.1533 H   0  0  0  0  0  0  0  0  0  0  0  0
    8.0153    2.1450   21.1830 H   0  0  0  0  0  0  0  0  0  0  0  0
    7.9189    1.5420   22.8444 H   0  0  0  0  0  0  0  0  0  0  0  0
  1  2  1  0
  2  3  1  0
  3  4  1  0
  4  5  1  0
  5  6  1  0
  6  7  2  0
  7  8  1  0
  8  9  2  0
  9 10  1  0
 10 11  2  0
 11 12  1  0
 12 13  2  0
 13 14  1  0
 14 15  2  0
 14 16  1  0
 13 17  1  0
 12 18  1  0
 11 19  1  0
  9 20  1  0
  7 21  1  0
  5 22  1  0
  5 23  1  0
  4 24  1  0
  4 25  1  0
  3 26  1  0
 26 27  2  0
 27 28  1  0
 28 29  2  0
 29 30  1  0
 30 31  2  0
 31 32  1  0
 29 33  1  0
 28 34  1  0
 27 35  1  0
  3 36  1  0
  2 37  1  0
  2 38  1  0
  1 39  1  0
  1 40  1  0
  1 41  1  0
 15  6  1  0
 31 26  1  0
 15 10  1  0
M  CHG  1   4   1
M  END
>  <cnnaffinity>  (1) 
-5.21831

>  <filename>  (1) 
[H]c1nc([H])c(C([H])(C([H])([H])C([H])([H])[H])[N+]([H])([H])C([H])([H])c2c([H])nc([H])c3c([H])c([H])c([H])c([H])c23)c([H])c1[H]

$$$$
