
     RDKit          3D

 30 32  0  0  0  0  0  0  0  0999 V2000
    4.9167    1.7919   16.9890 H   0  0  0  0  0  0  0  0  0  0  0  0
    5.3955    1.2974   17.8306 C   0  0  0  0  0  0  0  0  0  0  0  0
    6.5548    0.6773   17.5680 N   0  0  0  0  0  0  0  0  0  0  0  0
    7.1542    0.0428   18.5799 C   0  0  0  0  0  0  0  0  0  0  0  0
    8.1171   -0.4196   18.3700 H   0  0  0  0  0  0  0  0  0  0  0  0
    6.6253   -0.0311   19.8848 C   0  0  0  0  0  0  0  0  0  0  0  0
    7.5520   -0.8384   21.2068 S   0  0  0  0  0  0  0  0  0  0  0  0
    8.6229    0.5131   21.5839 C   0  0  0  0  0  0  0  0  0  0  0  0
    9.7758    0.7381   20.9999 N   0  0  0  0  0  0  0  0  0  0  0  0
   10.1852    1.9440   21.4612 N   0  0  0  0  0  0  0  0  0  0  0  0
    9.3347    2.4529   22.2621 N   0  0  0  0  0  0  0  0  0  0  0  0
    8.3144    1.5701   22.3649 N   0  0  0  0  0  0  0  0  0  0  0  0
    7.1135    1.8550   23.0986 C   0  0  0  0  0  0  0  0  0  0  0  0
    6.2506    2.8442   22.6123 C   0  0  0  0  0  0  0  0  0  0  0  0
    6.5284    3.3887   21.7130 H   0  0  0  0  0  0  0  0  0  0  0  0
    5.0294    3.0802   23.2460 C   0  0  0  0  0  0  0  0  0  0  0  0
    4.3637    3.8487   22.8620 H   0  0  0  0  0  0  0  0  0  0  0  0
    4.6631    2.3389   24.3754 C   0  0  0  0  0  0  0  0  0  0  0  0
    3.7194    2.5250   24.8810 H   0  0  0  0  0  0  0  0  0  0  0  0
    5.5317    1.3678   24.8746 C   0  0  0  0  0  0  0  0  0  0  0  0
    5.2533    0.8006   25.7608 H   0  0  0  0  0  0  0  0  0  0  0  0
    6.7739    1.1318   24.2577 C   0  0  0  0  0  0  0  0  0  0  0  0
    7.7034    0.0714   24.8395 C   0  0  0  0  0  0  0  0  0  0  0  0
    7.5177   -0.0718   26.1694 F   0  0  0  0  0  0  0  0  0  0  0  0
    9.0013    0.3539   24.6490 F   0  0  0  0  0  0  0  0  0  0  0  0
    7.4819   -1.1379   24.2914 F   0  0  0  0  0  0  0  0  0  0  0  0
    5.4188    0.6255   20.1479 C   0  0  0  0  0  0  0  0  0  0  0  0
    5.0128    0.6311   21.1663 H   0  0  0  0  0  0  0  0  0  0  0  0
    4.7967    1.3091   19.0977 C   0  0  0  0  0  0  0  0  0  0  0  0
    3.8671    1.8505   19.2492 H   0  0  0  0  0  0  0  0  0  0  0  0
  1  2  1  0
  2  3  2  0
  3  4  1  0
  4  5  1  0
  4  6  2  0
  6  7  1  0
  7  8  1  0
  8  9  2  0
  9 10  1  0
 10 11  2  0
 11 12  1  0
 12 13  1  0
 13 14  2  0
 14 15  1  0
 14 16  1  0
 16 17  1  0
 16 18  2  0
 18 19  1  0
 18 20  1  0
 20 21  1  0
 20 22  2  0
 22 23  1  0
 23 24  1  0
 23 25  1  0
 23 26  1  0
  6 27  1  0
 27 28  1  0
 27 29  2  0
 29 30  1  0
 29  2  1  0
 12  8  1  0
 22 13  1  0
M  END
>  <cnnaffinity>  (1) 
-5.30879

>  <filename>  (1) 
[H]c1nc([H])c(Sc2nnnn2-c2c([H])c([H])c([H])c([H])c2C(F)(F)F)c([H])c1[H]

$$$$
