
     RDKit          3D

 34 36  0  0  0  0  0  0  0  0999 V2000
    9.0041   -3.2520   22.3637 H   0  0  0  0  0  0  0  0  0  0  0  0
    8.4487   -2.3465   22.1530 C   0  0  0  0  0  0  0  0  0  0  0  0
    8.0814   -1.4231   23.0550 C   0  0  0  0  0  0  0  0  0  0  0  0
    8.3239   -1.4644   24.5081 C   0  0  0  0  0  0  0  0  0  0  0  0
    8.5267   -0.2773   25.2246 C   0  0  0  0  0  0  0  0  0  0  0  0
    8.4878    0.6751   24.7054 H   0  0  0  0  0  0  0  0  0  0  0  0
    8.7701   -0.3423   26.5944 C   0  0  0  0  0  0  0  0  0  0  0  0
    8.9231    0.5714   27.1630 H   0  0  0  0  0  0  0  0  0  0  0  0
    8.8126   -1.5664   27.2515 C   0  0  0  0  0  0  0  0  0  0  0  0
    9.0036   -1.5720   28.3105 H   0  0  0  0  0  0  0  0  0  0  0  0
    8.6150   -2.7697   26.5475 C   0  0  0  0  0  0  0  0  0  0  0  0
    8.6813   -3.9149   27.2905 O   0  0  0  0  0  0  0  0  0  0  0  0
    8.5046   -5.1814   26.6788 C   0  0  0  0  0  0  0  0  0  0  0  0
    9.2650   -5.3981   25.9177 H   0  0  0  0  0  0  0  0  0  0  0  0
    8.6064   -5.9153   27.4763 H   0  0  0  0  0  0  0  0  0  0  0  0
    7.5105   -5.3028   26.2293 H   0  0  0  0  0  0  0  0  0  0  0  0
    8.3733   -2.7099   25.1727 C   0  0  0  0  0  0  0  0  0  0  0  0
    8.2093   -3.6243   24.6094 H   0  0  0  0  0  0  0  0  0  0  0  0
    7.3637   -0.3147   22.3385 C   0  0  0  0  0  0  0  0  0  0  0  0
    6.8822    0.7124   22.7763 O   0  0  0  0  0  0  0  0  0  0  0  0
    7.3539   -0.6882   20.9823 N   0  0  0  0  0  0  0  0  0  0  0  0
    6.6747   -0.0006   19.9348 C   0  0  0  0  0  0  0  0  0  0  0  0
    7.1768    0.0504   18.6083 C   0  0  0  0  0  0  0  0  0  0  0  0
    8.1221   -0.4277   18.3670 H   0  0  0  0  0  0  0  0  0  0  0  0
    6.5687    0.6698   17.5874 N   0  0  0  0  0  0  0  0  0  0  0  0
    5.4051    1.2889   17.8400 C   0  0  0  0  0  0  0  0  0  0  0  0
    4.9212    1.7816   16.9972 H   0  0  0  0  0  0  0  0  0  0  0  0
    4.8180    1.2976   19.1106 C   0  0  0  0  0  0  0  0  0  0  0  0
    3.8864    1.8330   19.2622 H   0  0  0  0  0  0  0  0  0  0  0  0
    5.4506    0.6447   20.1755 C   0  0  0  0  0  0  0  0  0  0  0  0
    5.0303    0.6352   21.1799 H   0  0  0  0  0  0  0  0  0  0  0  0
    8.0467   -1.9488   20.7769 C   0  0  0  0  0  0  0  0  0  0  0  0
    7.3741   -2.6900   20.3311 H   0  0  0  0  0  0  0  0  0  0  0  0
    8.9226   -1.8405   20.1182 H   0  0  0  0  0  0  0  0  0  0  0  0
  1  2  1  0
  2  3  2  0
  3  4  1  0
  4  5  2  0
  5  6  1  0
  5  7  1  0
  7  8  1  0
  7  9  2  0
  9 10  1  0
  9 11  1  0
 11 12  1  0
 12 13  1  0
 13 14  1  0
 13 15  1  0
 13 16  1  0
 11 17  2  0
 17 18  1  0
  3 19  1  0
 19 20  2  0
 19 21  1  0
 21 22  1  0
 22 23  2  0
 23 24  1  0
 23 25  1  0
 25 26  2  0
 26 27  1  0
 26 28  1  0
 28 29  1  0
 28 30  2  0
 30 31  1  0
 21 32  1  0
 32 33  1  0
 32 34  1  0
 32  2  1  0
 17  4  1  0
 30 22  1  0
M  END
>  <cnnaffinity>  (1) 
-5.00757

>  <filename>  (1) 
[H]C1=C(c2c([H])c([H])c([H])c(OC([H])([H])[H])c2[H])C(=O)N(c2c([H])nc([H])c([H])c2[H])C1([H])[H]

$$$$
