
     RDKit          3D

 36 39  0  0  0  0  0  0  0  0999 V2000
   12.7751    2.8514   23.1218 H   0  0  0  0  0  0  0  0  0  0  0  0
   11.9045    2.2738   23.4347 C   0  0  0  0  0  0  0  0  0  0  0  0
   11.3912    2.6144   24.6182 N   0  0  0  0  0  0  0  0  0  0  0  0
   10.3088    1.9311   24.9334 C   0  0  0  0  0  0  0  0  0  0  0  0
    9.5863    2.3430   25.9866 N   0  0  0  0  0  0  0  0  0  0  0  0
    9.2169    1.4949   26.3751 H   0  0  0  0  0  0  0  0  0  0  0  0
   10.1813    2.8767   26.5823 H   0  0  0  0  0  0  0  0  0  0  0  0
    9.7987    0.8619   24.3885 N   0  0  0  0  0  0  0  0  0  0  0  0
   10.2876    0.6086   23.1888 C   0  0  0  0  0  0  0  0  0  0  0  0
    9.6845   -0.3882   22.5296 N   0  0  0  0  0  0  0  0  0  0  0  0
    9.7811   -0.6022   21.0788 C   0  0  0  0  0  0  0  0  0  0  0  0
   10.7018   -1.1414   20.8257 H   0  0  0  0  0  0  0  0  0  0  0  0
    9.7232    0.3306   20.5048 H   0  0  0  0  0  0  0  0  0  0  0  0
    8.5386   -1.4779   20.8356 C   0  0  2  0  0  0  0  0  0  0  0  0
    8.5958   -1.9774   19.8887 H   0  0  0  0  0  0  0  0  0  0  0  0
    7.3013   -0.6985   20.9683 N   0  0  0  0  0  0  0  0  0  0  0  0
    6.6866   -0.0005   19.9360 C   0  0  0  0  0  0  0  0  0  0  0  0
    7.1880    0.0532   18.6018 C   0  0  0  0  0  0  0  0  0  0  0  0
    8.1329   -0.4295   18.3581 H   0  0  0  0  0  0  0  0  0  0  0  0
    6.5773    0.6730   17.5805 N   0  0  0  0  0  0  0  0  0  0  0  0
    5.4148    1.2924   17.8362 C   0  0  0  0  0  0  0  0  0  0  0  0
    4.9413    1.7932   16.9957 H   0  0  0  0  0  0  0  0  0  0  0  0
    4.8198    1.3043   19.1027 C   0  0  0  0  0  0  0  0  0  0  0  0
    3.8832    1.8326   19.2539 H   0  0  0  0  0  0  0  0  0  0  0  0
    5.4554    0.6532   20.1629 C   0  0  0  0  0  0  0  0  0  0  0  0
    5.0211    0.6389   21.1616 H   0  0  0  0  0  0  0  0  0  0  0  0
    7.2067   -0.3264   22.4024 C   0  0  0  0  0  0  0  0  0  0  0  0
    7.2664    0.7555   22.5763 H   0  0  0  0  0  0  0  0  0  0  0  0
    6.2869   -0.7073   22.8643 H   0  0  0  0  0  0  0  0  0  0  0  0
    8.4463   -1.0534   22.9855 C   0  0  1  0  0  0  0  0  0  0  0  0
    8.4291   -1.1682   24.0664 H   0  0  0  0  0  0  0  0  0  0  0  0
    8.4852   -2.3114   22.1201 C   0  0  0  0  0  0  0  0  0  0  0  0
    9.3781   -2.9116   22.3017 H   0  0  0  0  0  0  0  0  0  0  0  0
    7.5888   -2.9318   22.2050 H   0  0  0  0  0  0  0  0  0  0  0  0
   11.3859    1.2916   22.6313 C   0  0  0  0  0  0  0  0  0  0  0  0
   11.7685    1.0462   21.6553 H   0  0  0  0  0  0  0  0  0  0  0  0
  1  2  1  0
  2  3  2  0
  3  4  1  0
  4  5  1  0
  5  6  1  0
  5  7  1  0
  4  8  2  0
  8  9  1  0
  9 10  1  0
 10 11  1  0
 11 12  1  0
 11 13  1  0
 11 14  1  0
 14 15  1  6
 14 16  1  0
 16 17  1  0
 17 18  2  0
 18 19  1  0
 18 20  1  0
 20 21  2  0
 21 22  1  0
 21 23  1  0
 23 24  1  0
 23 25  2  0
 25 26  1  0
 16 27  1  0
 27 28  1  0
 27 29  1  0
 27 30  1  0
 30 31  1  1
 30 32  1  0
 32 33  1  0
 32 34  1  0
  9 35  2  0
 35 36  1  0
 35  2  1  0
 30 10  1  0
 32 14  1  0
 25 17  1  0
M  END
>  <cnnaffinity>  (1) 
-5.27797

>  <filename>  (1) 
[H]c1nc(N([H])[H])nc(N2C([H])([H])[C@]3([H])N(c4c([H])nc([H])c([H])c4[H])C([H])([H])[C@@]2([H])C3([H])[H])c1[H]

$$$$
