
     RDKit          3D

 37 40  0  0  0  0  0  0  0  0999 V2000
    4.9287    1.8374   16.9495 H   0  0  0  0  0  0  0  0  0  0  0  0
    5.3988    1.3220   17.7836 C   0  0  0  0  0  0  0  0  0  0  0  0
    6.5535    0.6919   17.5197 N   0  0  0  0  0  0  0  0  0  0  0  0
    7.1570    0.0732   18.5450 C   0  0  0  0  0  0  0  0  0  0  0  0
    8.0894   -0.4344   18.3025 H   0  0  0  0  0  0  0  0  0  0  0  0
    6.6553    0.0255   19.8661 C   0  0  0  0  0  0  0  0  0  0  0  0
    7.3883   -0.6777   20.9608 C   0  0  0  0  0  0  0  0  0  0  0  0
    8.8054   -0.5564   21.1284 C   0  0  0  0  0  0  0  0  0  0  0  0
    9.3764    0.0734   20.4449 H   0  0  0  0  0  0  0  0  0  0  0  0
    9.4563   -1.1948   22.1433 C   0  0  0  0  0  0  0  0  0  0  0  0
   10.5214   -1.1334   22.3007 H   0  0  0  0  0  0  0  0  0  0  0  0
    8.7686   -2.0430   23.1025 C   0  0  0  0  0  0  0  0  0  0  0  0
    9.3338   -2.6378   24.0040 O   0  0  0  0  0  0  0  0  0  0  0  0
    7.3599   -2.1416   22.8770 N   0  0  0  0  0  0  0  0  0  0  0  0
    6.5743   -2.9792   23.7481 C   0  0  0  0  0  0  0  0  0  0  0  0
    5.9251   -2.4140   24.8196 C   0  0  0  0  0  0  0  0  0  0  0  0
    6.0080   -1.3422   24.9919 H   0  0  0  0  0  0  0  0  0  0  0  0
    5.1710   -3.2280   25.7122 C   0  0  0  0  0  0  0  0  0  0  0  0
    4.6980   -2.7673   26.5751 H   0  0  0  0  0  0  0  0  0  0  0  0
    5.0446   -4.5790   25.4913 C   0  0  0  0  0  0  0  0  0  0  0  0
    4.4831   -5.2095   26.1784 H   0  0  0  0  0  0  0  0  0  0  0  0
    5.6382   -5.1841   24.3369 C   0  0  0  0  0  0  0  0  0  0  0  0
    5.4094   -6.5543   23.9960 C   0  0  0  0  0  0  0  0  0  0  0  0
    4.7958   -7.1624   24.6581 H   0  0  0  0  0  0  0  0  0  0  0  0
    5.9950   -7.0987   22.8751 C   0  0  0  0  0  0  0  0  0  0  0  0
    5.8096   -8.1390   22.6203 H   0  0  0  0  0  0  0  0  0  0  0  0
    6.8710   -6.3334   22.0606 C   0  0  0  0  0  0  0  0  0  0  0  0
    7.3428   -6.7807   21.1902 H   0  0  0  0  0  0  0  0  0  0  0  0
    7.1148   -5.0161   22.3661 C   0  0  0  0  0  0  0  0  0  0  0  0
    7.7719   -4.4063   21.7505 H   0  0  0  0  0  0  0  0  0  0  0  0
    6.4636   -4.3890   23.4783 C   0  0  0  0  0  0  0  0  0  0  0  0
    6.7198   -1.4750   21.8514 C   0  0  0  0  0  0  0  0  0  0  0  0
    5.6549   -1.6674   21.7777 H   0  0  0  0  0  0  0  0  0  0  0  0
    5.4256    0.6683   20.1012 C   0  0  0  0  0  0  0  0  0  0  0  0
    4.9888    0.6807   21.1021 H   0  0  0  0  0  0  0  0  0  0  0  0
    4.7979    1.3338   19.0463 C   0  0  0  0  0  0  0  0  0  0  0  0
    3.8622    1.8599   19.1903 H   0  0  0  0  0  0  0  0  0  0  0  0
  1  2  1  0
  2  3  2  0
  3  4  1  0
  4  5  1  0
  4  6  2  0
  6  7  1  0
  7  8  1  0
  8  9  1  0
  8 10  2  0
 10 11  1  0
 10 12  1  0
 12 13  2  0
 12 14  1  0
 14 15  1  0
 15 16  2  0
 16 17  1  0
 16 18  1  0
 18 19  1  0
 18 20  2  0
 20 21  1  0
 20 22  1  0
 22 23  2  0
 23 24  1  0
 23 25  1  0
 25 26  1  0
 25 27  2  0
 27 28  1  0
 27 29  1  0
 29 30  1  0
 29 31  2  0
 14 32  1  0
 32 33  1  0
  6 34  1  0
 34 35  1  0
 34 36  2  0
 36 37  1  0
 36  2  1  0
 32  7  2  0
 31 15  1  0
 31 22  1  0
M  END
>  <cnnaffinity>  (1) 
-5.59479

>  <filename>  (1) 
[H]c1nc([H])c(-c2c([H])c([H])c(=O)n(-c3c([H])c([H])c([H])c4c([H])c([H])c([H])c([H])c34)c2[H])c([H])c1[H]

$$$$
