
     RDKit          3D

 44 46  0  0  0  0  0  0  0  0999 V2000
    5.1329    1.8378   16.9983 H   0  0  0  0  0  0  0  0  0  0  0  0
    5.5068    1.2824   17.8544 C   0  0  0  0  0  0  0  0  0  0  0  0
    6.6480    0.6041   17.6641 N   0  0  0  0  0  0  0  0  0  0  0  0
    7.1545   -0.0689   18.6922 C   0  0  0  0  0  0  0  0  0  0  0  0
    8.0713   -0.6263   18.5203 H   0  0  0  0  0  0  0  0  0  0  0  0
    6.5393   -0.0789   19.9365 C   0  0  0  0  0  0  0  0  0  0  0  0
    7.3395   -1.0524   21.1585 S   0  0  0  0  0  0  0  0  0  0  0  0
    8.4312   -1.7495   20.4813 O   0  0  0  0  0  0  0  0  0  0  0  0
    6.2810   -1.8157   21.8233 O   0  0  0  0  0  0  0  0  0  0  0  0
    8.2427    0.2168   22.6193 C   0  0  0  0  0  0  0  0  0  0  0  0
    9.4803    0.8590   22.2029 N   0  0  0  0  0  0  0  0  0  0  0  0
    9.6080    1.3748   20.8468 C   0  0  0  0  0  0  0  0  0  0  0  0
    8.7967    2.0920   20.6093 H   0  0  0  0  0  0  0  0  0  0  0  0
    9.5542    0.5501   20.1225 H   0  0  0  0  0  0  0  0  0  0  0  0
   10.9659    2.0781   20.8746 C   0  0  0  0  0  0  0  0  0  0  0  0
   11.7589    1.3183   20.8293 H   0  0  0  0  0  0  0  0  0  0  0  0
   11.1654    2.7857   20.0664 H   0  0  0  0  0  0  0  0  0  0  0  0
   10.9453    2.7307   22.2591 C   0  0  2  0  0  0  0  0  0  0  0  0
   10.2772    3.5999   22.2627 H   0  0  0  0  0  0  0  0  0  0  0  0
   12.3095    3.0565   22.8499 C   0  0  0  0  0  0  0  0  0  0  0  0
   12.2244    3.8294   23.6294 H   0  0  0  0  0  0  0  0  0  0  0  0
   12.9935    3.4652   22.0851 H   0  0  0  0  0  0  0  0  0  0  0  0
   12.7916    1.7990   23.4322 N   0  0  0  0  0  0  0  0  0  0  0  0
   14.0738    1.3047   22.9823 C   0  0  0  0  0  0  0  0  0  0  0  0
   14.7145    2.1427   22.6896 H   0  0  0  0  0  0  0  0  0  0  0  0
   14.0213    0.6425   22.1008 H   0  0  0  0  0  0  0  0  0  0  0  0
   14.5787    0.7560   23.7848 H   0  0  0  0  0  0  0  0  0  0  0  0
   11.6932    0.8144   23.4824 C   0  0  0  0  0  0  0  0  0  0  0  0
   11.6277    0.3407   24.4711 H   0  0  0  0  0  0  0  0  0  0  0  0
   11.8300   -0.0071   22.7560 H   0  0  0  0  0  0  0  0  0  0  0  0
   10.3927    1.5782   23.1126 C   0  0  2  0  0  0  0  0  0  0  0  0
    9.8960    1.9302   24.0295 H   0  0  0  0  0  0  0  0  0  0  0  0
    7.1308    1.2090   23.0031 C   0  0  0  0  0  0  0  0  0  0  0  0
    6.8732    1.8970   22.1880 H   0  0  0  0  0  0  0  0  0  0  0  0
    6.2296    0.6627   23.3037 H   0  0  0  0  0  0  0  0  0  0  0  0
    7.4642    1.8032   23.8631 H   0  0  0  0  0  0  0  0  0  0  0  0
    8.5406   -0.7779   23.7428 C   0  0  0  0  0  0  0  0  0  0  0  0
    8.8717   -0.2316   24.6351 H   0  0  0  0  0  0  0  0  0  0  0  0
    9.3342   -1.4669   23.4333 H   0  0  0  0  0  0  0  0  0  0  0  0
    7.6393   -1.3467   23.9945 H   0  0  0  0  0  0  0  0  0  0  0  0
    5.3404    0.5925   20.1563 C   0  0  0  0  0  0  0  0  0  0  0  0
    4.8070    0.5619   21.1103 H   0  0  0  0  0  0  0  0  0  0  0  0
    4.8280    1.3006   19.0759 C   0  0  0  0  0  0  0  0  0  0  0  0
    3.9157    1.8748   19.1621 H   0  0  0  0  0  0  0  0  0  0  0  0
  1  2  1  0
  2  3  2  0
  3  4  1  0
  4  5  1  0
  4  6  2  0
  6  7  1  0
  7  8  2  0
  7  9  2  0
  7 10  1  0
 10 11  1  0
 11 12  1  0
 12 13  1  0
 12 14  1  0
 12 15  1  0
 15 16  1  0
 15 17  1  0
 15 18  1  0
 18 19  1  6
 18 20  1  0
 20 21  1  0
 20 22  1  0
 20 23  1  0
 23 24  1  0
 24 25  1  0
 24 26  1  0
 24 27  1  0
 23 28  1  0
 28 29  1  0
 28 30  1  0
 28 31  1  0
 31 32  1  1
 10 33  1  0
 33 34  1  0
 33 35  1  0
 33 36  1  0
 10 37  1  0
 37 38  1  0
 37 39  1  0
 37 40  1  0
  6 41  1  0
 41 42  1  0
 41 43  2  0
 43 44  1  0
 43  2  1  0
 31 11  1  0
 31 18  1  0
M  END
>  <cnnaffinity>  (1) 
-5.17538

>  <filename>  (1) 
[H]c1nc([H])c(S(=O)(=O)C(N2C([H])([H])C([H])([H])[C@]3([H])C([H])([H])N(C([H])([H])[H])C([H])([H])[C@]23[H])(C([H])([H])[H])C([H])([H])[H])c([H])c1[H]

$$$$
