
     RDKit          3D

 39 41  0  0  0  0  0  0  0  0999 V2000
    9.9789    1.9674   22.1032 O   0  0  0  0  0  0  0  0  0  0  0  0
    8.5999    1.7539   21.7127 S   0  0  0  0  0  0  0  0  0  0  0  0
    8.1008    2.3109   20.4841 O   0  0  0  0  0  0  0  0  0  0  0  0
    8.6022    0.1217   21.4974 N   0  0  0  0  0  0  0  0  0  0  0  0
    7.4167   -0.6217   21.0772 C   0  0  0  0  0  0  0  0  0  0  0  0
    6.6340    0.0537   19.9671 C   0  0  0  0  0  0  0  0  0  0  0  0
    5.4005    0.6880   20.1615 C   0  0  0  0  0  0  0  0  0  0  0  0
    4.7784    1.3104   19.0754 C   0  0  0  0  0  0  0  0  0  0  0  0
    5.3993    1.2610   17.8249 C   0  0  0  0  0  0  0  0  0  0  0  0
    6.5558    0.6235   17.6090 N   0  0  0  0  0  0  0  0  0  0  0  0
    7.1543    0.0521   18.6638 C   0  0  0  0  0  0  0  0  0  0  0  0
    8.0900   -0.4591   18.4221 H   0  0  0  0  0  0  0  0  0  0  0  0
    4.9565    1.7644   16.9693 H   0  0  0  0  0  0  0  0  0  0  0  0
    3.8415    1.8418   19.1906 H   0  0  0  0  0  0  0  0  0  0  0  0
    4.9390    0.7117   21.1512 H   0  0  0  0  0  0  0  0  0  0  0  0
    6.5910   -1.0541   22.3033 C   0  0  0  0  0  0  0  0  0  0  0  0
    7.3881   -2.1661   23.0060 C   0  0  0  0  0  0  0  0  0  0  0  0
    8.1501   -2.8870   21.8695 C   0  0  0  0  0  0  0  0  0  0  0  0
    7.9474   -1.9969   20.6247 C   0  0  0  0  0  0  0  0  0  0  0  0
    7.1627   -2.4248   19.9941 H   0  0  0  0  0  0  0  0  0  0  0  0
    8.8587   -1.8929   20.0214 H   0  0  0  0  0  0  0  0  0  0  0  0
    9.2109   -3.0003   22.1239 H   0  0  0  0  0  0  0  0  0  0  0  0
    7.7482   -3.8862   21.6657 H   0  0  0  0  0  0  0  0  0  0  0  0
    6.7283   -2.8265   23.5819 H   0  0  0  0  0  0  0  0  0  0  0  0
    8.0989   -1.7345   23.7218 H   0  0  0  0  0  0  0  0  0  0  0  0
    6.3275   -0.2286   22.9708 H   0  0  0  0  0  0  0  0  0  0  0  0
    5.6650   -1.4775   21.9011 H   0  0  0  0  0  0  0  0  0  0  0  0
    9.3022    0.1518   20.7670 H   0  0  0  0  0  0  0  0  0  0  0  0
    7.4769    2.0582   23.0327 C   0  0  0  0  0  0  0  0  0  0  0  0
    7.8771    1.6954   24.3231 C   0  0  0  0  0  0  0  0  0  0  0  0
    7.0483    1.9691   25.4103 C   0  0  0  0  0  0  0  0  0  0  0  0
    5.8211    2.6045   25.1997 C   0  0  0  0  0  0  0  0  0  0  0  0
    4.7991    2.9572   26.5634 Cl  0  0  0  0  0  0  0  0  0  0  0  0
    5.4192    2.9805   23.9138 C   0  0  0  0  0  0  0  0  0  0  0  0
    6.2475    2.7038   22.8227 C   0  0  0  0  0  0  0  0  0  0  0  0
    5.9304    3.0195   21.8277 H   0  0  0  0  0  0  0  0  0  0  0  0
    4.4782    3.5056   23.7807 H   0  0  0  0  0  0  0  0  0  0  0  0
    7.3574    1.7102   26.4174 H   0  0  0  0  0  0  0  0  0  0  0  0
    8.8413    1.2162   24.4928 H   0  0  0  0  0  0  0  0  0  0  0  0
  1  2  2  0
  2  3  2  0
  2  4  1  0
  4  5  1  0
  5  6  1  0
  6  7  2  0
  7  8  1  0
  8  9  2  0
  9 10  1  0
 10 11  2  0
 11 12  1  0
  9 13  1  0
  8 14  1  0
  7 15  1  0
  5 16  1  0
 16 17  1  0
 17 18  1  0
 18 19  1  0
 19 20  1  0
 19 21  1  0
 18 22  1  0
 18 23  1  0
 17 24  1  0
 17 25  1  0
 16 26  1  0
 16 27  1  0
  4 28  1  0
  2 29  1  0
 29 30  2  0
 30 31  1  0
 31 32  2  0
 32 33  1  0
 32 34  1  0
 34 35  2  0
 35 36  1  0
 34 37  1  0
 31 38  1  0
 30 39  1  0
 19  5  1  0
 35 29  1  0
 11  6  1  0
M  END
>  <cnnaffinity>  (1) 
-5.12611

>  <filename>  (1) 
[H]c1nc([H])c(C2(N([H])S(=O)(=O)c3c([H])c([H])c(Cl)c([H])c3[H])C([H])([H])C([H])([H])C([H])([H])C2([H])[H])c([H])c1[H]

$$$$
