
     RDKit          3D

 27 29  0  0  0  0  0  0  0  0999 V2000
    9.3219    1.6384   26.7805 H   0  0  0  0  0  0  0  0  0  0  0  0
    9.1143    1.6491   25.7228 C   0  0  0  0  0  0  0  0  0  0  0  0
    9.9592    2.1787   24.7965 N   0  0  0  0  0  0  0  0  0  0  0  0
    9.2980    1.9882   23.6752 C   0  0  0  0  0  0  0  0  0  0  0  0
    9.6321    2.2591   22.6784 H   0  0  0  0  0  0  0  0  0  0  0  0
    8.1134    1.3989   23.9178 N   0  0  0  0  0  0  0  0  0  0  0  0
    7.1326    0.9474   22.9450 C   0  0  0  0  0  0  0  0  0  0  0  0
    6.1755    0.8082   23.4609 H   0  0  0  0  0  0  0  0  0  0  0  0
    6.9937    1.7364   22.1986 H   0  0  0  0  0  0  0  0  0  0  0  0
    7.5540   -0.3051   22.2433 C   0  0  0  0  0  0  0  0  0  0  0  0
    7.3809   -0.7200   20.9461 C   0  0  0  0  0  0  0  0  0  0  0  0
    6.6554   -0.0001   19.9041 C   0  0  0  0  0  0  0  0  0  0  0  0
    7.1721    0.0457   18.6020 C   0  0  0  0  0  0  0  0  0  0  0  0
    8.1194   -0.4362   18.3786 H   0  0  0  0  0  0  0  0  0  0  0  0
    6.5721    0.6747   17.5881 N   0  0  0  0  0  0  0  0  0  0  0  0
    5.4067    1.2905   17.8431 C   0  0  0  0  0  0  0  0  0  0  0  0
    4.9205    1.7772   17.0005 H   0  0  0  0  0  0  0  0  0  0  0  0
    4.8051    1.3096   19.1068 C   0  0  0  0  0  0  0  0  0  0  0  0
    3.8726    1.8426   19.2618 H   0  0  0  0  0  0  0  0  0  0  0  0
    5.4391    0.6575   20.1594 C   0  0  0  0  0  0  0  0  0  0  0  0
    4.9915    0.6342   21.1571 H   0  0  0  0  0  0  0  0  0  0  0  0
    8.0017   -1.9249   20.7519 N   0  0  0  0  0  0  0  0  0  0  0  0
    8.4963   -2.2652   21.9153 C   0  0  0  0  0  0  0  0  0  0  0  0
    9.0420   -3.1789   22.1202 H   0  0  0  0  0  0  0  0  0  0  0  0
    8.2562   -1.3100   22.8495 N   0  0  0  0  0  0  0  0  0  0  0  0
    8.5445   -1.3251   23.8103 H   0  0  0  0  0  0  0  0  0  0  0  0
    7.9947    1.1501   25.2356 N   0  0  0  0  0  0  0  0  0  0  0  0
  1  2  1  0
  2  3  1  0
  3  4  2  0
  4  5  1  0
  4  6  1  0
  6  7  1  0
  7  8  1  0
  7  9  1  0
  7 10  1  0
 10 11  2  0
 11 12  1  0
 12 13  2  0
 13 14  1  0
 13 15  1  0
 15 16  2  0
 16 17  1  0
 16 18  1  0
 18 19  1  0
 18 20  2  0
 20 21  1  0
 11 22  1  0
 22 23  2  0
 23 24  1  0
 23 25  1  0
 25 26  1  0
  6 27  1  0
 27  2  2  0
 25 10  1  0
 20 12  1  0
M  END
>  <cnnaffinity>  (1) 
-4.87952

>  <filename>  (1) 
[H]c1nc([H])n(C([H])([H])c2c(-c3c([H])nc([H])c([H])c3[H])nc([H])n2[H])n1

$$$$
