
     RDKit          3D

 35 36  0  0  0  0  0  0  0  0999 V2000
    5.9864    0.4640   22.3734 H   0  0  0  0  0  0  0  0  0  0  0  0
    6.9288   -0.0321   22.1722 C   0  0  0  0  0  0  0  0  0  0  0  0
    7.2759   -0.3303   20.8611 C   0  0  0  0  0  0  0  0  0  0  0  0
    8.8179   -1.4123   20.5112 Br  0  0  0  0  0  0  0  0  0  0  0  0
    6.5277    0.1578   19.6885 C   0  0  0  0  0  0  0  0  0  0  0  0
    7.0192   -0.1010   18.3888 C   0  0  0  0  0  0  0  0  0  0  0  0
    7.9164   -0.6996   18.2670 H   0  0  0  0  0  0  0  0  0  0  0  0
    6.4655    0.3939   17.2677 N   0  0  0  0  0  0  0  0  0  0  0  0
    5.3947    1.1892   17.4072 C   0  0  0  0  0  0  0  0  0  0  0  0
    4.9669    1.6402   16.5187 H   0  0  0  0  0  0  0  0  0  0  0  0
    4.8250    1.4768   18.6518 C   0  0  0  0  0  0  0  0  0  0  0  0
    3.9696    2.1391   18.6925 H   0  0  0  0  0  0  0  0  0  0  0  0
    5.3849    0.9496   19.8166 C   0  0  0  0  0  0  0  0  0  0  0  0
    4.9619    1.1783   20.7944 H   0  0  0  0  0  0  0  0  0  0  0  0
    7.7629   -0.3231   23.2648 N   0  0  0  0  0  0  0  0  0  0  0  0
    7.1506   -0.9381   24.4736 C   0  0  0  0  0  0  0  0  0  0  0  0
    6.6503   -0.1727   25.0775 H   0  0  0  0  0  0  0  0  0  0  0  0
    6.3873   -1.6617   24.1591 H   0  0  0  0  0  0  0  0  0  0  0  0
    8.1467   -1.6849   25.3774 C   0  0  0  0  0  0  0  0  0  0  0  0
    8.6781   -2.4474   24.7935 H   0  0  0  0  0  0  0  0  0  0  0  0
    7.5669   -2.2104   26.1441 H   0  0  0  0  0  0  0  0  0  0  0  0
    9.1057   -0.7570   26.0285 N   0  0  0  0  0  0  0  0  0  0  0  0
    9.3607   -0.9932   27.4561 C   0  0  0  0  0  0  0  0  0  0  0  0
    9.9746   -1.8857   27.5946 H   0  0  0  0  0  0  0  0  0  0  0  0
    9.8884   -0.1416   27.8866 H   0  0  0  0  0  0  0  0  0  0  0  0
    8.4202   -1.1215   27.9924 H   0  0  0  0  0  0  0  0  0  0  0  0
   10.3320   -0.4303   25.2799 C   0  0  0  0  0  0  0  0  0  0  0  0
   10.8549   -1.3461   24.9901 H   0  0  0  0  0  0  0  0  0  0  0  0
   11.0053    0.1456   25.9260 H   0  0  0  0  0  0  0  0  0  0  0  0
   10.0651    0.3768   24.0251 C   0  0  0  0  0  0  0  0  0  0  0  0
   11.0394    0.5941   23.5725 H   0  0  0  0  0  0  0  0  0  0  0  0
    9.5856    1.3263   24.2718 H   0  0  0  0  0  0  0  0  0  0  0  0
    9.2214   -0.3900   23.0131 C   0  0  0  0  0  0  0  0  0  0  0  0
    9.5318   -1.4368   22.9799 H   0  0  0  0  0  0  0  0  0  0  0  0
    9.4368    0.0536   22.0340 H   0  0  0  0  0  0  0  0  0  0  0  0
  1  2  1  0
  2  3  2  3
  3  4  1  0
  3  5  1  0
  5  6  2  0
  6  7  1  0
  6  8  1  0
  8  9  2  0
  9 10  1  0
  9 11  1  0
 11 12  1  0
 11 13  2  0
 13 14  1  0
  2 15  1  0
 15 16  1  0
 16 17  1  0
 16 18  1  0
 16 19  1  0
 19 20  1  0
 19 21  1  0
 19 22  1  0
 22 23  1  0
 23 24  1  0
 23 25  1  0
 23 26  1  0
 22 27  1  0
 27 28  1  0
 27 29  1  0
 27 30  1  0
 30 31  1  0
 30 32  1  0
 30 33  1  0
 33 34  1  0
 33 35  1  0
 13  5  1  0
 33 15  1  0
M  END
>  <cnnaffinity>  (1) 
-4.16073

>  <filename>  (1) 
[H]C(=C(Br)c1c([H])nc([H])c([H])c1[H])N1C([H])([H])C([H])([H])N(C([H])([H])[H])C([H])([H])C([H])([H])C1([H])[H]

$$$$
