
     RDKit          3D

 43 46  0  0  0  0  0  0  0  0999 V2000
   13.0175   -0.9970   22.1143 C   0  0  0  0  0  0  0  0  0  0  0  0
   12.1761   -0.3257   22.8950 C   0  0  0  0  0  0  0  0  0  0  0  0
   12.2493    1.1675   23.1302 C   0  0  0  0  0  0  0  0  0  0  0  0
   11.3999    1.9367   22.0922 C   0  0  0  0  0  0  0  0  0  0  0  0
    9.9863    1.5451   22.0982 N   0  0  0  0  0  0  0  0  0  0  0  0
    9.5362    0.6417   21.1876 N   0  0  0  0  0  0  0  0  0  0  0  0
    8.3597    0.2995   21.6673 C   0  0  0  0  0  0  0  0  0  0  0  0
    7.4488   -0.6736   20.9714 C   0  0  0  0  0  0  0  0  0  0  0  0
    6.6507   -0.0368   19.8342 C   0  0  0  0  0  0  0  0  0  0  0  0
    5.4445    0.6280   20.0984 C   0  0  0  0  0  0  0  0  0  0  0  0
    4.7980    1.3020   19.0606 C   0  0  0  0  0  0  0  0  0  0  0  0
    5.3846    1.3004   17.7934 C   0  0  0  0  0  0  0  0  0  0  0  0
    6.5312    0.6644   17.5093 N   0  0  0  0  0  0  0  0  0  0  0  0
    7.1395    0.0218   18.5145 C   0  0  0  0  0  0  0  0  0  0  0  0
    8.0879   -0.4555   18.2607 H   0  0  0  0  0  0  0  0  0  0  0  0
    4.9236    1.8454   16.9731 H   0  0  0  0  0  0  0  0  0  0  0  0
    3.8759    1.8482   19.2244 H   0  0  0  0  0  0  0  0  0  0  0  0
    5.0284    0.6388   21.1078 H   0  0  0  0  0  0  0  0  0  0  0  0
    6.7898   -1.0595   21.7570 H   0  0  0  0  0  0  0  0  0  0  0  0
    8.0530   -1.5152   20.6142 H   0  0  0  0  0  0  0  0  0  0  0  0
    8.0213    0.8995   22.8325 N   0  0  0  0  0  0  0  0  0  0  0  0
    9.0467    1.7070   23.0710 C   0  0  0  0  0  0  0  0  0  0  0  0
    9.1434    2.6807   24.1559 C   0  0  0  0  0  0  0  0  0  0  0  0
    9.4052    4.0544   23.9829 C   0  0  0  0  0  0  0  0  0  0  0  0
    9.4991    4.9411   22.8854 C   0  0  0  0  0  0  0  0  0  0  0  0
    9.7817    6.2656   23.1299 C   0  0  0  0  0  0  0  0  0  0  0  0
    9.8388    6.7007   24.5033 C   0  0  0  0  0  0  0  0  0  0  0  0
    9.6498    5.9264   25.5414 N   0  0  0  0  0  0  0  0  0  0  0  0
    9.4111    4.6267   25.2493 N   0  0  0  0  0  0  0  0  0  0  0  0
    9.0757    3.6863   26.1791 C   0  0  0  0  0  0  0  0  0  0  0  0
    8.9203    2.4817   25.5475 C   0  0  0  0  0  0  0  0  0  0  0  0
    8.6628    1.5407   26.0188 H   0  0  0  0  0  0  0  0  0  0  0  0
    8.9415    4.0553   27.1805 H   0  0  0  0  0  0  0  0  0  0  0  0
   10.0129    7.7437   24.7487 H   0  0  0  0  0  0  0  0  0  0  0  0
    9.9531    6.9787   22.3331 H   0  0  0  0  0  0  0  0  0  0  0  0
    9.2498    4.5280   21.9229 H   0  0  0  0  0  0  0  0  0  0  0  0
   11.4651    3.0182   22.2548 H   0  0  0  0  0  0  0  0  0  0  0  0
   11.7564    1.7234   21.0804 H   0  0  0  0  0  0  0  0  0  0  0  0
   13.2881    1.5146   23.0372 H   0  0  0  0  0  0  0  0  0  0  0  0
   11.9052    1.4421   24.1367 H   0  0  0  0  0  0  0  0  0  0  0  0
   11.3195   -0.8603   23.3213 H   0  0  0  0  0  0  0  0  0  0  0  0
   12.8572   -2.0528   21.9216 H   0  0  0  0  0  0  0  0  0  0  0  0
   13.8992   -0.5345   21.6752 H   0  0  0  0  0  0  0  0  0  0  0  0
  1  2  2  3
  2  3  1  0
  3  4  1  0
  4  5  1  0
  5  6  1  0
  6  7  2  0
  7  8  1  0
  8  9  1  0
  9 10  2  0
 10 11  1  0
 11 12  2  0
 12 13  1  0
 13 14  2  0
 14 15  1  0
 12 16  1  0
 11 17  1  0
 10 18  1  0
  8 19  1  0
  8 20  1  0
  7 21  1  0
 21 22  2  0
 22 23  1  0
 23 24  2  0
 24 25  1  0
 25 26  2  0
 26 27  1  0
 27 28  2  0
 28 29  1  0
 29 30  1  0
 30 31  2  0
 31 32  1  0
 30 33  1  0
 27 34  1  0
 26 35  1  0
 25 36  1  0
  4 37  1  0
  4 38  1  0
  3 39  1  0
  3 40  1  0
  2 41  1  0
  1 42  1  0
  1 43  1  0
 22  5  1  0
 31 23  1  0
 14  9  1  0
 29 24  1  0
M  END
>  <cnnaffinity>  (1) 
-5.38225

>  <filename>  (1) 
[H]C([H])=C([H])C([H])([H])C([H])([H])n1nc(C([H])([H])c2c([H])nc([H])c([H])c2[H])nc1-c1c([H])c([H])n2nc([H])c([H])c([H])c12

$$$$
