
     RDKit          3D

 49 51  0  0  0  0  0  0  0  0999 V2000
    9.4178   -0.8650   27.5215 C   0  0  0  0  0  0  0  0  0  0  0  0
    7.9313   -0.8680   27.1503 C   0  0  0  0  0  0  0  0  0  0  0  0
    7.4520    0.5463   26.8259 C   0  0  0  0  0  0  0  0  0  0  0  0
    8.0138    0.9771   25.9899 H   0  0  0  0  0  0  0  0  0  0  0  0
    6.3878    0.5620   26.5706 H   0  0  0  0  0  0  0  0  0  0  0  0
    7.6255    1.2036   27.6837 H   0  0  0  0  0  0  0  0  0  0  0  0
    7.6278   -1.7955   26.0406 N   0  0  0  0  0  0  0  0  0  0  0  0
    8.1281   -1.4705   24.7130 C   0  0  0  0  0  0  0  0  0  0  0  0
    7.1991   -2.0537   23.6470 C   0  0  0  0  0  0  0  0  0  0  0  0
    7.4810   -1.4820   22.2900 C   0  0  0  0  0  0  0  0  0  0  0  0
    6.6039   -0.7395   21.6428 N   0  0  0  0  0  0  0  0  0  0  0  0
    7.2044   -0.4759   20.4637 C   0  0  0  0  0  0  0  0  0  0  0  0
    6.5648    0.2991   19.4023 C   0  0  0  0  0  0  0  0  0  0  0  0
    5.3469    0.9804   19.5583 C   0  0  0  0  0  0  0  0  0  0  0  0
    4.8121    1.6244   18.4445 C   0  0  0  0  0  0  0  0  0  0  0  0
    5.5077    1.5637   17.2311 C   0  0  0  0  0  0  0  0  0  0  0  0
    6.6790    0.9337   17.0798 N   0  0  0  0  0  0  0  0  0  0  0  0
    7.1981    0.3303   18.1517 C   0  0  0  0  0  0  0  0  0  0  0  0
    8.1615   -0.1557   18.0170 H   0  0  0  0  0  0  0  0  0  0  0  0
    5.1062    2.0483   16.3458 H   0  0  0  0  0  0  0  0  0  0  0  0
    3.8866    2.1849   18.5014 H   0  0  0  0  0  0  0  0  0  0  0  0
    4.8375    1.0059   20.5247 H   0  0  0  0  0  0  0  0  0  0  0  0
    8.4039   -1.0135   20.3414 N   0  0  0  0  0  0  0  0  0  0  0  0
    8.6067   -1.6318   21.5344 N   0  0  0  0  0  0  0  0  0  0  0  0
    9.8384   -2.4067   21.7054 C   0  0  0  0  0  0  0  0  0  0  0  0
   10.9703   -1.8631   22.6007 C   0  0  0  0  0  0  0  0  0  0  0  0
   11.9149   -0.8476   21.9946 C   0  0  0  0  0  0  0  0  0  0  0  0
   12.4799   -1.3342   20.8721 F   0  0  0  0  0  0  0  0  0  0  0  0
   12.9121   -0.5768   22.8616 F   0  0  0  0  0  0  0  0  0  0  0  0
   11.3286    0.3199   21.6910 F   0  0  0  0  0  0  0  0  0  0  0  0
   10.6077   -1.4396   23.5355 H   0  0  0  0  0  0  0  0  0  0  0  0
   11.6132   -2.7148   22.8464 H   0  0  0  0  0  0  0  0  0  0  0  0
   10.2172   -2.5550   20.6943 H   0  0  0  0  0  0  0  0  0  0  0  0
    9.5566   -3.3890   22.0891 H   0  0  0  0  0  0  0  0  0  0  0  0
    7.2086   -3.5904   23.7690 C   0  0  0  0  0  0  0  0  0  0  0  0
    6.8238   -3.9852   25.2073 C   0  0  0  0  0  0  0  0  0  0  0  0
    7.4268   -3.1316   26.3306 C   0  0  0  0  0  0  0  0  0  0  0  0
    7.6448   -3.6157   27.4295 O   0  0  0  0  0  0  0  0  0  0  0  0
    7.0800   -5.0227   25.4363 H   0  0  0  0  0  0  0  0  0  0  0  0
    5.7365   -3.9053   25.3428 H   0  0  0  0  0  0  0  0  0  0  0  0
    8.2095   -3.9810   23.5275 H   0  0  0  0  0  0  0  0  0  0  0  0
    6.4989   -4.0322   23.0571 H   0  0  0  0  0  0  0  0  0  0  0  0
    6.1874   -1.6995   23.8781 H   0  0  0  0  0  0  0  0  0  0  0  0
    9.1430   -1.8787   24.5960 H   0  0  0  0  0  0  0  0  0  0  0  0
    8.1999   -0.3905   24.5961 H   0  0  0  0  0  0  0  0  0  0  0  0
    7.3470   -1.2426   27.9971 H   0  0  0  0  0  0  0  0  0  0  0  0
    9.8064   -1.8842   27.5886 H   0  0  0  0  0  0  0  0  0  0  0  0
   10.0031   -0.3140   26.7719 H   0  0  0  0  0  0  0  0  0  0  0  0
    9.5561   -0.3646   28.4872 H   0  0  0  0  0  0  0  0  0  0  0  0
  1  2  1  0
  2  3  1  0
  3  4  1  0
  3  5  1  0
  3  6  1  0
  2  7  1  0
  7  8  1  0
  8  9  1  0
  9 10  1  0
 10 11  2  0
 11 12  1  0
 12 13  1  0
 13 14  2  0
 14 15  1  0
 15 16  2  0
 16 17  1  0
 17 18  2  0
 18 19  1  0
 16 20  1  0
 15 21  1  0
 14 22  1  0
 12 23  2  0
 23 24  1  0
 24 25  1  0
 25 26  1  0
 26 27  1  0
 27 28  1  0
 27 29  1  0
 27 30  1  0
 26 31  1  0
 26 32  1  0
 25 33  1  0
 25 34  1  0
  9 35  1  0
 35 36  1  0
 36 37  1  0
 37 38  2  0
 36 39  1  0
 36 40  1  0
 35 41  1  0
 35 42  1  0
  9 43  1  0
  8 44  1  0
  8 45  1  0
  2 46  1  0
  1 47  1  0
  1 48  1  0
  1 49  1  0
 37  7  1  0
 24 10  1  0
 18 13  1  0
M  END
>  <cnnaffinity>  (1) 
-6.51761

>  <filename>  (1) 
[H]c1nc([H])c(-c2nc(C3([H])C([H])([H])N(C([H])(C([H])([H])[H])C([H])([H])[H])C(=O)C([H])([H])C3([H])[H])n(C([H])([H])C([H])([H])C(F)(F)F)n2)c([H])c1[H]

$$$$
