
     RDKit          3D

 25 26  0  0  0  0  0  0  0  0999 V2000
    4.9508    1.9133   16.9019 H   0  0  0  0  0  0  0  0  0  0  0  0
    5.3659    1.3312   17.7205 C   0  0  0  0  0  0  0  0  0  0  0  0
    6.4982    0.6591   17.4554 N   0  0  0  0  0  0  0  0  0  0  0  0
    7.0611   -0.0189   18.4652 C   0  0  0  0  0  0  0  0  0  0  0  0
    7.9836   -0.5501   18.2310 H   0  0  0  0  0  0  0  0  0  0  0  0
    6.5416   -0.0564   19.7749 C   0  0  0  0  0  0  0  0  0  0  0  0
    7.4550   -0.8166   21.0993 S   0  0  0  0  0  0  0  0  0  0  0  0
    8.3443    0.6816   21.6922 C   0  0  0  0  0  0  0  0  0  0  0  0
    8.8619    1.1177   20.8324 H   0  0  0  0  0  0  0  0  0  0  0  0
    7.5955    1.4109   22.0221 H   0  0  0  0  0  0  0  0  0  0  0  0
    9.3342    0.3605   22.7959 C   0  0  0  0  0  0  0  0  0  0  0  0
   10.6814    0.1205   22.4730 C   0  0  0  0  0  0  0  0  0  0  0  0
   11.0353    0.0636   21.4483 H   0  0  0  0  0  0  0  0  0  0  0  0
   11.6060   -0.0877   23.4965 C   0  0  0  0  0  0  0  0  0  0  0  0
   12.8974   -0.2724   23.1765 F   0  0  0  0  0  0  0  0  0  0  0  0
   11.2398   -0.1175   24.8382 C   0  0  0  0  0  0  0  0  0  0  0  0
   11.9738   -0.2951   25.6122 H   0  0  0  0  0  0  0  0  0  0  0  0
    9.8909    0.0624   25.1285 C   0  0  0  0  0  0  0  0  0  0  0  0
    9.4819   -0.0289   26.4008 F   0  0  0  0  0  0  0  0  0  0  0  0
    8.9381    0.3133   24.1423 C   0  0  0  0  0  0  0  0  0  0  0  0
    7.9198    0.5101   24.4629 H   0  0  0  0  0  0  0  0  0  0  0  0
    5.3261    0.6018   20.0175 C   0  0  0  0  0  0  0  0  0  0  0  0
    4.8676    0.5736   21.0063 H   0  0  0  0  0  0  0  0  0  0  0  0
    4.7346    1.3154   18.9711 C   0  0  0  0  0  0  0  0  0  0  0  0
    3.8191    1.8750   19.1217 H   0  0  0  0  0  0  0  0  0  0  0  0
  1  2  1  0
  2  3  2  0
  3  4  1  0
  4  5  1  0
  4  6  2  0
  6  7  1  0
  7  8  1  0
  8  9  1  0
  8 10  1  0
  8 11  1  0
 11 12  2  0
 12 13  1  0
 12 14  1  0
 14 15  1  0
 14 16  2  0
 16 17  1  0
 16 18  1  0
 18 19  1  0
 18 20  2  0
 20 21  1  0
  6 22  1  0
 22 23  1  0
 22 24  2  0
 24 25  1  0
 24  2  1  0
 20 11  1  0
M  END
>  <cnnaffinity>  (1) 
-4.64715

>  <filename>  (1) 
[H]c1nc([H])c(SC([H])([H])c2c([H])c(F)c([H])c(F)c2[H])c([H])c1[H]

$$$$
