
     RDKit          3D

 32 34  0  0  0  0  0  0  0  0999 V2000
    5.1591    2.0016   16.3395 H   0  0  0  0  0  0  0  0  0  0  0  0
    5.4179    1.4610   17.2477 C   0  0  0  0  0  0  0  0  0  0  0  0
    6.4307    0.5878   17.1346 N   0  0  0  0  0  0  0  0  0  0  0  0
    6.7715   -0.1099   18.2231 C   0  0  0  0  0  0  0  0  0  0  0  0
    7.5405   -0.8703   18.1043 H   0  0  0  0  0  0  0  0  0  0  0  0
    6.1701    0.0766   19.4775 C   0  0  0  0  0  0  0  0  0  0  0  0
    6.6187   -0.6529   20.6255 N   0  0  0  0  0  0  0  0  0  0  0  0
    6.9121    0.1062   21.7149 N   0  0  0  0  0  0  0  0  0  0  0  0
    7.4929   -0.4723   22.7412 C   0  0  0  0  0  0  0  0  0  0  0  0
    7.6595    0.3629   23.9895 C   0  0  0  0  0  0  0  0  0  0  0  0
    8.1311   -0.2516   25.0843 N   0  0  0  0  0  0  0  0  0  0  0  0
    8.2022    0.4221   26.2420 C   0  0  0  0  0  0  0  0  0  0  0  0
    8.6466   -0.4075   27.4644 C   0  0  0  0  0  0  0  0  0  0  0  0
    8.4769    0.2775   28.6130 F   0  0  0  0  0  0  0  0  0  0  0  0
    9.9425   -0.7542   27.3948 F   0  0  0  0  0  0  0  0  0  0  0  0
    7.9424   -1.5467   27.5818 F   0  0  0  0  0  0  0  0  0  0  0  0
    7.8722    1.7803   26.3443 C   0  0  0  0  0  0  0  0  0  0  0  0
    7.9864    2.3042   27.2870 H   0  0  0  0  0  0  0  0  0  0  0  0
    7.3796    2.4232   25.2046 C   0  0  0  0  0  0  0  0  0  0  0  0
    7.0695    3.4635   25.2342 H   0  0  0  0  0  0  0  0  0  0  0  0
    7.2612    1.7105   24.0131 C   0  0  0  0  0  0  0  0  0  0  0  0
    6.8703    2.1392   23.1010 H   0  0  0  0  0  0  0  0  0  0  0  0
    7.8953   -1.8622   22.7047 C   0  0  0  0  0  0  0  0  0  0  0  0
    8.4885   -2.2607   23.5264 H   0  0  0  0  0  0  0  0  0  0  0  0
    7.4710   -2.6392   21.6710 C   0  0  0  0  0  0  0  0  0  0  0  0
    7.6643   -3.6989   21.5699 H   0  0  0  0  0  0  0  0  0  0  0  0
    6.6167   -2.0941   20.6196 C   0  0  0  0  0  0  0  0  0  0  0  0
    5.9950   -2.7497   19.8081 O   0  0  0  0  0  0  0  0  0  0  0  0
    5.1354    1.0081   19.5978 C   0  0  0  0  0  0  0  0  0  0  0  0
    4.7112    1.2055   20.5812 H   0  0  0  0  0  0  0  0  0  0  0  0
    4.7235    1.6791   18.4426 C   0  0  0  0  0  0  0  0  0  0  0  0
    3.8801    2.3617   18.4536 H   0  0  0  0  0  0  0  0  0  0  0  0
  1  2  1  0
  2  3  2  0
  3  4  1  0
  4  5  1  0
  4  6  2  0
  6  7  1  0
  7  8  1  0
  8  9  2  0
  9 10  1  0
 10 11  2  0
 11 12  1  0
 12 13  1  0
 13 14  1  0
 13 15  1  0
 13 16  1  0
 12 17  2  0
 17 18  1  0
 17 19  1  0
 19 20  1  0
 19 21  2  0
 21 22  1  0
  9 23  1  0
 23 24  1  0
 23 25  2  0
 25 26  1  0
 25 27  1  0
 27 28  2  0
  6 29  1  0
 29 30  1  0
 29 31  2  0
 31 32  1  0
 31  2  1  0
 27  7  1  0
 21 10  1  0
M  END
>  <cnnaffinity>  (1) 
-5.42384

>  <filename>  (1) 
[H]c1nc([H])c(-n2nc(-c3nc(C(F)(F)F)c([H])c([H])c3[H])c([H])c([H])c2=O)c([H])c1[H]

$$$$
