
     RDKit          3D

 29 31  0  0  0  0  0  0  0  0999 V2000
   12.0625    1.9339   22.8873 Cl  0  0  0  0  0  0  0  0  0  0  0  0
   10.3679    2.1082   23.1261 C   0  0  0  0  0  0  0  0  0  0  0  0
    9.3944    1.8361   22.2107 C   0  0  0  0  0  0  0  0  0  0  0  0
    9.6204    1.2596   20.8307 C   0  0  0  0  0  0  0  0  0  0  0  0
    9.7031   -0.2053   20.8009 N   0  0  0  0  0  0  0  0  0  0  0  0
   10.7914   -1.0052   21.0837 C   0  0  0  0  0  0  0  0  0  0  0  0
   10.4268   -2.1968   21.4299 N   0  0  0  0  0  0  0  0  0  0  0  0
    9.0432   -2.2199   21.4375 N   0  0  0  0  0  0  0  0  0  0  0  0
    8.6486   -1.0398   21.0676 C   0  0  0  0  0  0  0  0  0  0  0  0
    7.3364   -0.6281   20.9839 N   0  0  0  0  0  0  0  0  0  0  0  0
    6.6931   -0.0188   19.8767 C   0  0  0  0  0  0  0  0  0  0  0  0
    5.4737    0.6218   20.1299 C   0  0  0  0  0  0  0  0  0  0  0  0
    4.8140    1.2877   19.0914 C   0  0  0  0  0  0  0  0  0  0  0  0
    5.3924    1.2897   17.8187 C   0  0  0  0  0  0  0  0  0  0  0  0
    6.5424    0.6568   17.5328 N   0  0  0  0  0  0  0  0  0  0  0  0
    7.1778    0.0280   18.5394 C   0  0  0  0  0  0  0  0  0  0  0  0
    8.1188   -0.4650   18.2910 H   0  0  0  0  0  0  0  0  0  0  0  0
    4.9257    1.8320   17.0003 H   0  0  0  0  0  0  0  0  0  0  0  0
    3.8814    1.8170   19.2594 H   0  0  0  0  0  0  0  0  0  0  0  0
    5.0756    0.6016   21.1435 H   0  0  0  0  0  0  0  0  0  0  0  0
    6.7631   -1.2148   21.5776 H   0  0  0  0  0  0  0  0  0  0  0  0
   11.8212   -0.6861   20.9662 H   0  0  0  0  0  0  0  0  0  0  0  0
    8.7673    1.5434   20.2088 H   0  0  0  0  0  0  0  0  0  0  0  0
   10.5313    1.6747   20.3820 H   0  0  0  0  0  0  0  0  0  0  0  0
    8.1089    2.2285   22.7104 C   0  0  0  0  0  0  0  0  0  0  0  0
    8.1536    2.7322   23.9736 C   0  0  0  0  0  0  0  0  0  0  0  0
    9.7611    2.7993   24.5925 S   0  0  0  0  0  0  0  0  0  0  0  0
    7.3369    3.0894   24.5845 H   0  0  0  0  0  0  0  0  0  0  0  0
    7.2126    2.1325   22.1012 H   0  0  0  0  0  0  0  0  0  0  0  0
  1  2  1  0
  2  3  2  0
  3  4  1  0
  4  5  1  0
  5  6  1  0
  6  7  2  0
  7  8  1  0
  8  9  2  0
  9 10  1  0
 10 11  1  0
 11 12  2  0
 12 13  1  0
 13 14  2  0
 14 15  1  0
 15 16  2  0
 16 17  1  0
 14 18  1  0
 13 19  1  0
 12 20  1  0
 10 21  1  0
  6 22  1  0
  4 23  1  0
  4 24  1  0
  3 25  1  0
 25 26  2  0
 26 27  1  0
 26 28  1  0
 25 29  1  0
 27  2  1  0
  9  5  1  0
 16 11  1  0
M  END
>  <cnnaffinity>  (1) 
-5.64584

>  <filename>  (1) 
[H]c1nc([H])c(N([H])c2nnc([H])n2C([H])([H])c2c(Cl)sc([H])c2[H])c([H])c1[H]

$$$$
