
     RDKit          3D

 25 26  0  0  0  0  0  0  0  0999 V2000
    5.6512   -1.6492   21.7851 H   0  0  0  0  0  0  0  0  0  0  0  0
    6.7203   -1.4830   21.8522 C   0  0  0  0  0  0  0  0  0  0  0  0
    7.2435   -1.9810   22.6666 H   0  0  0  0  0  0  0  0  0  0  0  0
    7.3649   -0.7029   20.9751 C   0  0  0  0  0  0  0  0  0  0  0  0
    6.6317    0.0153   19.8891 C   0  0  0  0  0  0  0  0  0  0  0  0
    7.1558    0.0649   18.5867 C   0  0  0  0  0  0  0  0  0  0  0  0
    8.1043   -0.4281   18.3670 H   0  0  0  0  0  0  0  0  0  0  0  0
    6.5620    0.6825   17.5558 N   0  0  0  0  0  0  0  0  0  0  0  0
    5.4043    1.3130   17.8021 C   0  0  0  0  0  0  0  0  0  0  0  0
    4.9532    1.8274   16.9561 H   0  0  0  0  0  0  0  0  0  0  0  0
    4.7869    1.3310   19.0560 C   0  0  0  0  0  0  0  0  0  0  0  0
    3.8544    1.8670   19.1842 H   0  0  0  0  0  0  0  0  0  0  0  0
    5.4077    0.6702   20.1157 C   0  0  0  0  0  0  0  0  0  0  0  0
    4.9769    0.6997   21.1188 H   0  0  0  0  0  0  0  0  0  0  0  0
    8.8579   -0.5595   21.0929 C   0  0  0  0  0  0  0  0  0  0  0  0
    9.6595   -1.7173   21.1762 C   0  0  0  0  0  0  0  0  0  0  0  0
    9.1761   -2.6711   21.0043 H   0  0  0  0  0  0  0  0  0  0  0  0
   11.0267   -1.6446   21.4349 C   0  0  0  0  0  0  0  0  0  0  0  0
   11.6072   -2.5479   21.5755 H   0  0  0  0  0  0  0  0  0  0  0  0
   11.6526   -0.4062   21.5464 C   0  0  0  0  0  0  0  0  0  0  0  0
   12.7115   -0.2971   21.7643 H   0  0  0  0  0  0  0  0  0  0  0  0
   10.9003    0.7569   21.3719 C   0  0  0  0  0  0  0  0  0  0  0  0
   11.7673    2.2605   21.3260 Cl  0  0  0  0  0  0  0  0  0  0  0  0
    9.5061    0.6887   21.1964 C   0  0  0  0  0  0  0  0  0  0  0  0
    8.5972    2.1571   21.1229 Cl  0  0  0  0  0  0  0  0  0  0  0  0
  1  2  1  0
  2  3  1  0
  2  4  2  3
  4  5  1  0
  5  6  2  0
  6  7  1  0
  6  8  1  0
  8  9  2  0
  9 10  1  0
  9 11  1  0
 11 12  1  0
 11 13  2  0
 13 14  1  0
  4 15  1  0
 15 16  2  0
 16 17  1  0
 16 18  1  0
 18 19  1  0
 18 20  2  0
 20 21  1  0
 20 22  1  0
 22 23  1  0
 22 24  2  0
 24 25  1  0
 13  5  1  0
 24 15  1  0
M  END
>  <cnnaffinity>  (1) 
-5.01921

>  <filename>  (1) 
[H]C([H])=C(c1c([H])nc([H])c([H])c1[H])c1c([H])c([H])c([H])c(Cl)c1Cl

$$$$
