
     RDKit          3D

 29 31  0  0  0  0  0  0  0  0999 V2000
    6.8643    4.1126   21.9298 H   0  0  0  0  0  0  0  0  0  0  0  0
    7.0549    3.2805   22.6062 C   0  0  0  0  0  0  0  0  0  0  0  0
    7.2351    2.0829   22.0479 N   0  0  0  0  0  0  0  0  0  0  0  0
    7.4561    1.0384   22.8796 C   0  0  0  0  0  0  0  0  0  0  0  0
    7.6747   -0.3176   22.2821 C   0  0  0  0  0  0  0  0  0  0  0  0
    8.2692   -1.3976   22.9231 N   0  0  0  0  0  0  0  0  0  0  0  0
    8.3411   -2.3437   22.0326 C   0  0  0  0  0  0  0  0  0  0  0  0
    8.7494   -3.3350   22.1887 H   0  0  0  0  0  0  0  0  0  0  0  0
    7.8331   -1.9478   20.8365 N   0  0  0  0  0  0  0  0  0  0  0  0
    7.7026   -2.5119   20.0113 H   0  0  0  0  0  0  0  0  0  0  0  0
    7.3615   -0.6714   20.9738 C   0  0  0  0  0  0  0  0  0  0  0  0
    6.6387    0.0017   19.8839 C   0  0  0  0  0  0  0  0  0  0  0  0
    7.1473    0.0542   18.5687 C   0  0  0  0  0  0  0  0  0  0  0  0
    8.1092   -0.3997   18.3290 H   0  0  0  0  0  0  0  0  0  0  0  0
    6.5461    0.6804   17.5512 N   0  0  0  0  0  0  0  0  0  0  0  0
    5.3811    1.3012   17.8025 C   0  0  0  0  0  0  0  0  0  0  0  0
    4.9238    1.8193   16.9606 H   0  0  0  0  0  0  0  0  0  0  0  0
    4.7769    1.3022   19.0620 C   0  0  0  0  0  0  0  0  0  0  0  0
    3.8577    1.8514   19.2247 H   0  0  0  0  0  0  0  0  0  0  0  0
    5.4071    0.6370   20.1135 C   0  0  0  0  0  0  0  0  0  0  0  0
    4.9899    0.6576   21.1190 H   0  0  0  0  0  0  0  0  0  0  0  0
    7.4982    1.1519   24.2136 N   0  0  0  0  0  0  0  0  0  0  0  0
    7.3375    2.3497   24.7741 C   0  0  0  0  0  0  0  0  0  0  0  0
    7.4359    2.4646   26.3241 C   0  0  0  0  0  0  0  0  0  0  0  0
    7.6618    1.3065   26.9445 F   0  0  0  0  0  0  0  0  0  0  0  0
    8.4296    3.3087   26.6740 F   0  0  0  0  0  0  0  0  0  0  0  0
    6.2984    2.9794   26.8368 F   0  0  0  0  0  0  0  0  0  0  0  0
    7.0999    3.4812   23.9860 C   0  0  0  0  0  0  0  0  0  0  0  0
    6.9648    4.4620   24.4150 H   0  0  0  0  0  0  0  0  0  0  0  0
  1  2  1  0
  2  3  2  0
  3  4  1  0
  4  5  1  0
  5  6  1  0
  6  7  2  0
  7  8  1  0
  7  9  1  0
  9 10  1  0
  9 11  1  0
 11 12  1  0
 12 13  2  0
 13 14  1  0
 13 15  1  0
 15 16  2  0
 16 17  1  0
 16 18  1  0
 18 19  1  0
 18 20  2  0
 20 21  1  0
  4 22  2  0
 22 23  1  0
 23 24  1  0
 24 25  1  0
 24 26  1  0
 24 27  1  0
 23 28  2  0
 28 29  1  0
 28  2  1  0
 11  5  2  0
 20 12  1  0
M  END
>  <cnnaffinity>  (1) 
-5.23765

>  <filename>  (1) 
[H]c1nc(-c2nc([H])n([H])c2-c2c([H])nc([H])c([H])c2[H])nc(C(F)(F)F)c1[H]

$$$$
