
     RDKit          3D

 42 46  0  0  0  0  0  0  0  0999 V2000
   11.8390    1.6040   24.3455 F   0  0  0  0  0  0  0  0  0  0  0  0
   12.0878    2.3035   23.2311 C   0  0  0  0  0  0  0  0  0  0  0  0
   13.1619    3.2075   23.1845 C   0  0  0  0  0  0  0  0  0  0  0  0
   13.4398    3.9715   22.1198 N   0  0  0  0  0  0  0  0  0  0  0  0
   12.7096    3.7562   21.0180 C   0  0  0  0  0  0  0  0  0  0  0  0
   11.6800    2.8133   20.9536 C   0  0  0  0  0  0  0  0  0  0  0  0
   11.2490    2.1526   22.1183 C   0  0  0  0  0  0  0  0  0  0  0  0
    9.9262    1.4625   22.1855 C   0  0  0  0  0  0  0  0  0  0  0  0
    9.5171    0.5264   21.3546 N   0  0  0  0  0  0  0  0  0  0  0  0
    8.2569    0.2454   21.7904 C   0  0  0  0  0  0  0  0  0  0  0  0
    7.3607   -0.7026   21.0283 C   0  0  0  0  0  0  0  0  0  0  0  0
    6.6087   -0.0413   19.8627 C   0  0  0  0  0  0  0  0  0  0  0  0
    5.4032    0.6351   20.0983 C   0  0  0  0  0  0  0  0  0  0  0  0
    4.7802    1.3150   19.0478 C   0  0  0  0  0  0  0  0  0  0  0  0
    5.3878    1.3060   17.7901 C   0  0  0  0  0  0  0  0  0  0  0  0
    6.5355    0.6607   17.5324 N   0  0  0  0  0  0  0  0  0  0  0  0
    7.1199    0.0137   18.5503 C   0  0  0  0  0  0  0  0  0  0  0  0
    8.0622   -0.4784   18.3063 H   0  0  0  0  0  0  0  0  0  0  0  0
    4.9440    1.8494   16.9560 H   0  0  0  0  0  0  0  0  0  0  0  0
    3.8584    1.8684   19.1942 H   0  0  0  0  0  0  0  0  0  0  0  0
    4.9720    0.6489   21.1013 H   0  0  0  0  0  0  0  0  0  0  0  0
    6.6376   -1.1427   21.7257 H   0  0  0  0  0  0  0  0  0  0  0  0
    7.9965   -1.5191   20.6669 H   0  0  0  0  0  0  0  0  0  0  0  0
    7.8758    0.9352   22.8487 N   0  0  0  0  0  0  0  0  0  0  0  0
    8.9379    1.7519   23.0836 N   0  0  0  0  0  0  0  0  0  0  0  0
    8.9060    2.7867   24.0641 C   0  0  0  0  0  0  0  0  0  0  0  0
    8.5430    2.5311   25.3835 C   0  0  0  0  0  0  0  0  0  0  0  0
    8.6022    3.5593   26.3530 C   0  0  0  0  0  0  0  0  0  0  0  0
    8.9951    4.8565   26.0230 C   0  0  0  0  0  0  0  0  0  0  0  0
    9.3337    5.1347   24.6889 C   0  0  0  0  0  0  0  0  0  0  0  0
    9.2745    4.1073   23.7346 C   0  0  0  0  0  0  0  0  0  0  0  0
    9.6203    4.7171   22.5607 N   0  0  0  0  0  0  0  0  0  0  0  0
    9.8847    6.0221   22.8353 C   0  0  0  0  0  0  0  0  0  0  0  0
    9.7287    6.3249   24.0937 N   0  0  0  0  0  0  0  0  0  0  0  0
   10.1821    6.7139   22.0560 H   0  0  0  0  0  0  0  0  0  0  0  0
    9.7064    4.2719   21.6639 H   0  0  0  0  0  0  0  0  0  0  0  0
    9.0402    5.6658   26.7424 H   0  0  0  0  0  0  0  0  0  0  0  0
    8.3210    3.3281   27.3761 H   0  0  0  0  0  0  0  0  0  0  0  0
    8.2207    1.5265   25.6521 H   0  0  0  0  0  0  0  0  0  0  0  0
   11.2191    2.6164   19.9991 H   0  0  0  0  0  0  0  0  0  0  0  0
   12.9768    4.3505   20.1526 H   0  0  0  0  0  0  0  0  0  0  0  0
   13.8351    3.3013   24.0226 H   0  0  0  0  0  0  0  0  0  0  0  0
  1  2  1  0
  2  3  2  0
  3  4  1  0
  4  5  2  0
  5  6  1  0
  6  7  2  0
  7  8  1  0
  8  9  2  0
  9 10  1  0
 10 11  1  0
 11 12  1  0
 12 13  2  0
 13 14  1  0
 14 15  2  0
 15 16  1  0
 16 17  2  0
 17 18  1  0
 15 19  1  0
 14 20  1  0
 13 21  1  0
 11 22  1  0
 11 23  1  0
 10 24  2  0
 24 25  1  0
 25 26  1  0
 26 27  2  0
 27 28  1  0
 28 29  2  0
 29 30  1  0
 30 31  2  0
 31 32  1  0
 32 33  1  0
 33 34  2  0
 33 35  1  0
 32 36  1  0
 29 37  1  0
 28 38  1  0
 27 39  1  0
  6 40  1  0
  5 41  1  0
  3 42  1  0
  7  2  1  0
 25  8  1  0
 31 26  1  0
 17 12  1  0
 34 30  1  0
M  END
>  <cnnaffinity>  (1) 
-6.54399

>  <filename>  (1) 
[H]c1nc([H])c(C([H])([H])c2nc(-c3c([H])c([H])nc([H])c3F)n(-c3c([H])c([H])c([H])c4nc([H])n([H])c34)n2)c([H])c1[H]

$$$$
