
     RDKit          3D

 41 43  0  0  0  0  0  0  0  0999 V2000
    4.9233    1.7875   16.9872 H   0  0  0  0  0  0  0  0  0  0  0  0
    5.4014    1.2945   17.8304 C   0  0  0  0  0  0  0  0  0  0  0  0
    6.5600    0.6733   17.5717 N   0  0  0  0  0  0  0  0  0  0  0  0
    7.1540    0.0465   18.5957 C   0  0  0  0  0  0  0  0  0  0  0  0
    8.1130   -0.4155   18.3658 H   0  0  0  0  0  0  0  0  0  0  0  0
    6.6432   -0.0131   19.9021 C   0  0  0  0  0  0  0  0  0  0  0  0
    7.3501   -0.7917   20.9834 C   0  0  0  0  0  0  0  0  0  0  0  0
    6.8242   -2.1687   20.9422 N   0  0  0  0  0  0  0  0  0  0  0  0
    7.1167   -2.5597   20.0466 H   0  0  0  0  0  0  0  0  0  0  0  0
    7.2284   -2.9976   22.0353 N   0  0  0  0  0  0  0  0  0  0  0  0
    8.0041   -4.1622   21.6255 C   0  0  0  0  0  0  0  0  0  0  0  0
    8.8499   -3.8135   21.0278 H   0  0  0  0  0  0  0  0  0  0  0  0
    7.4017   -4.8397   20.9876 H   0  0  0  0  0  0  0  0  0  0  0  0
    8.4916   -4.9097   22.8636 C   0  0  0  0  0  0  0  0  0  0  0  0
    9.0370   -5.8054   22.5545 H   0  0  0  0  0  0  0  0  0  0  0  0
    9.1926   -4.2708   23.4176 H   0  0  0  0  0  0  0  0  0  0  0  0
    7.3266   -5.3172   23.7792 C   0  0  0  0  0  0  0  0  0  0  0  0
    6.7180   -6.0484   23.2216 H   0  0  0  0  0  0  0  0  0  0  0  0
    7.8201   -5.9565   25.0691 C   0  0  0  0  0  0  0  0  0  0  0  0
    6.9883   -6.3008   25.6964 H   0  0  0  0  0  0  0  0  0  0  0  0
    8.4808   -6.7912   24.8546 H   0  0  0  0  0  0  0  0  0  0  0  0
    8.4311   -5.2623   25.6542 H   0  0  0  0  0  0  0  0  0  0  0  0
    6.4438   -4.1046   24.0776 C   0  0  0  0  0  0  0  0  0  0  0  0
    6.9954   -3.4062   24.7223 H   0  0  0  0  0  0  0  0  0  0  0  0
    5.5511   -4.4083   24.6354 H   0  0  0  0  0  0  0  0  0  0  0  0
    6.0424   -3.3980   22.7930 C   0  0  0  0  0  0  0  0  0  0  0  0
    5.4785   -2.5009   23.0194 H   0  0  0  0  0  0  0  0  0  0  0  0
    5.3862   -4.0349   22.1730 H   0  0  0  0  0  0  0  0  0  0  0  0
    8.9083   -0.7063   20.9867 C   0  0  0  0  0  0  0  0  0  0  0  0
    9.3031   -0.0141   20.2425 H   0  0  0  0  0  0  0  0  0  0  0  0
    9.4168   -1.6678   20.8603 H   0  0  0  0  0  0  0  0  0  0  0  0
    8.8833   -0.1376   22.4251 C   0  0  0  0  0  0  0  0  0  0  0  0
    9.2917   -0.8208   23.1751 H   0  0  0  0  0  0  0  0  0  0  0  0
    9.3537    0.8429   22.5513 H   0  0  0  0  0  0  0  0  0  0  0  0
    7.3384   -0.1210   22.3878 C   0  0  0  0  0  0  0  0  0  0  0  0
    6.8308   -0.6970   23.1655 H   0  0  0  0  0  0  0  0  0  0  0  0
    6.9058    0.8798   22.3664 H   0  0  0  0  0  0  0  0  0  0  0  0
    5.4293    0.6467   20.1473 C   0  0  0  0  0  0  0  0  0  0  0  0
    5.0020    0.6366   21.1552 H   0  0  0  0  0  0  0  0  0  0  0  0
    4.8013    1.3119   19.0951 C   0  0  0  0  0  0  0  0  0  0  0  0
    3.8737    1.8476   19.2524 H   0  0  0  0  0  0  0  0  0  0  0  0
  1  2  1  0
  2  3  2  0
  3  4  1  0
  4  5  1  0
  4  6  2  0
  6  7  1  0
  7  8  1  0
  8  9  1  0
  8 10  1  0
 10 11  1  0
 11 12  1  0
 11 13  1  0
 11 14  1  0
 14 15  1  0
 14 16  1  0
 14 17  1  0
 17 18  1  0
 17 19  1  0
 19 20  1  0
 19 21  1  0
 19 22  1  0
 17 23  1  0
 23 24  1  0
 23 25  1  0
 23 26  1  0
 26 27  1  0
 26 28  1  0
  7 29  1  0
 29 30  1  0
 29 31  1  0
 29 32  1  0
 32 33  1  0
 32 34  1  0
 32 35  1  0
 35 36  1  0
 35 37  1  0
  6 38  1  0
 38 39  1  0
 38 40  2  0
 40 41  1  0
 40  2  1  0
 35  7  1  0
 26 10  1  0
M  END
>  <cnnaffinity>  (1) 
-4.82821

>  <filename>  (1) 
[H]c1nc([H])c(C2(N([H])N3C([H])([H])C([H])([H])C([H])(C([H])([H])[H])C([H])([H])C3([H])[H])C([H])([H])C([H])([H])C2([H])[H])c([H])c1[H]

$$$$
