
     RDKit          3D

 37 38  0  0  0  0  0  0  0  0999 V2000
    5.0046    1.7422   17.0721 H   0  0  0  0  0  0  0  0  0  0  0  0
    5.4340    1.2137   17.9221 C   0  0  0  0  0  0  0  0  0  0  0  0
    6.5709    0.5456   17.6825 N   0  0  0  0  0  0  0  0  0  0  0  0
    7.1407   -0.1048   18.6959 C   0  0  0  0  0  0  0  0  0  0  0  0
    8.0586   -0.6463   18.4615 H   0  0  0  0  0  0  0  0  0  0  0  0
    6.6232   -0.1207   19.9974 C   0  0  0  0  0  0  0  0  0  0  0  0
    7.4530   -0.7599   21.0483 C   0  0  0  0  0  0  0  0  0  0  0  0
    9.0831   -0.7404   21.0494 S   0  0  0  0  0  0  0  0  0  0  0  0
    6.6915   -1.4205   21.9581 N   0  0  0  0  0  0  0  0  0  0  0  0
    5.8590   -1.9010   21.6579 H   0  0  0  0  0  0  0  0  0  0  0  0
    7.0481   -1.6817   23.2449 C   0  0  0  0  0  0  0  0  0  0  0  0
    7.9294   -1.1977   23.8998 O   0  0  0  0  0  0  0  0  0  0  0  0
    6.1797   -2.5522   23.8688 N   0  0  0  0  0  0  0  0  0  0  0  0
    6.4248   -2.5747   24.8393 H   0  0  0  0  0  0  0  0  0  0  0  0
    5.5430   -3.6156   23.2993 C   0  0  0  0  0  0  0  0  0  0  0  0
    5.5098   -3.7841   22.0911 O   0  0  0  0  0  0  0  0  0  0  0  0
    4.8595   -4.5494   24.2769 C   0  0  0  0  0  0  0  0  0  0  0  0
    4.7284   -4.0043   25.2239 H   0  0  0  0  0  0  0  0  0  0  0  0
    5.7262   -5.7939   24.5804 C   0  0  0  0  0  0  0  0  0  0  0  0
    6.6931   -5.4904   25.0039 H   0  0  0  0  0  0  0  0  0  0  0  0
    5.9413   -6.3353   23.6455 H   0  0  0  0  0  0  0  0  0  0  0  0
    4.9787   -6.7018   25.5631 C   0  0  0  0  0  0  0  0  0  0  0  0
    4.8127   -6.1455   26.4964 H   0  0  0  0  0  0  0  0  0  0  0  0
    5.6002   -7.5597   25.8363 H   0  0  0  0  0  0  0  0  0  0  0  0
    3.6201   -7.1269   24.9900 C   0  0  0  0  0  0  0  0  0  0  0  0
    3.0985   -7.8059   25.6711 H   0  0  0  0  0  0  0  0  0  0  0  0
    3.7936   -7.6849   24.0599 H   0  0  0  0  0  0  0  0  0  0  0  0
    2.7444   -5.9035   24.6878 C   0  0  0  0  0  0  0  0  0  0  0  0
    2.4983   -5.3876   25.6286 H   0  0  0  0  0  0  0  0  0  0  0  0
    1.7814   -6.1952   24.2517 H   0  0  0  0  0  0  0  0  0  0  0  0
    3.4542   -4.9183   23.7580 C   0  0  0  0  0  0  0  0  0  0  0  0
    3.5423   -5.3148   22.7364 H   0  0  0  0  0  0  0  0  0  0  0  0
    2.8583   -4.0060   23.6882 H   0  0  0  0  0  0  0  0  0  0  0  0
    5.4062    0.5511   20.2331 C   0  0  0  0  0  0  0  0  0  0  0  0
    4.9418    0.5522   21.2208 H   0  0  0  0  0  0  0  0  0  0  0  0
    4.8149    1.2445   19.1762 C   0  0  0  0  0  0  0  0  0  0  0  0
    3.8916    1.8006   19.3009 H   0  0  0  0  0  0  0  0  0  0  0  0
  1  2  1  0
  2  3  2  0
  3  4  1  0
  4  5  1  0
  4  6  2  0
  6  7  1  0
  7  8  2  0
  7  9  1  0
  9 10  1  0
  9 11  1  0
 11 12  2  0
 11 13  1  0
 13 14  1  0
 13 15  1  0
 15 16  2  0
 15 17  1  0
 17 18  1  0
 17 19  1  0
 19 20  1  0
 19 21  1  0
 19 22  1  0
 22 23  1  0
 22 24  1  0
 22 25  1  0
 25 26  1  0
 25 27  1  0
 25 28  1  0
 28 29  1  0
 28 30  1  0
 28 31  1  0
 31 32  1  0
 31 33  1  0
  6 34  1  0
 34 35  1  0
 34 36  2  0
 36 37  1  0
 36  2  1  0
 31 17  1  0
M  END
>  <cnnaffinity>  (1) 
-5.2592

>  <filename>  (1) 
[H]c1nc([H])c(C(=S)N([H])C(=O)N([H])C(=O)C2([H])C([H])([H])C([H])([H])C([H])([H])C([H])([H])C2([H])[H])c([H])c1[H]

$$$$
