
     RDKit          3D

 28 30  0  0  0  0  0  0  0  0999 V2000
    5.0879    1.8049   17.0137 H   0  0  0  0  0  0  0  0  0  0  0  0
    5.4836    1.2542   17.8679 C   0  0  0  0  0  0  0  0  0  0  0  0
    6.6420    0.6002   17.6818 N   0  0  0  0  0  0  0  0  0  0  0  0
    7.1631   -0.0410   18.7366 C   0  0  0  0  0  0  0  0  0  0  0  0
    8.0966   -0.5780   18.5705 H   0  0  0  0  0  0  0  0  0  0  0  0
    6.5755   -0.0802   20.0124 C   0  0  0  0  0  0  0  0  0  0  0  0
    7.2255   -0.8362   21.1062 C   0  0  0  0  0  0  0  0  0  0  0  0
    6.3346   -1.8717   22.1552 S   0  0  0  0  0  0  0  0  0  0  0  0
    7.6556   -2.3853   23.0156 N   0  0  0  0  0  0  0  0  0  0  0  0
    8.7270   -1.7964   22.5622 C   0  0  0  0  0  0  0  0  0  0  0  0
    9.6838   -2.0199   23.0266 H   0  0  0  0  0  0  0  0  0  0  0  0
    8.5501   -0.8751   21.4784 C   0  0  0  0  0  0  0  0  0  0  0  0
    9.8673    0.1389   20.8821 S   0  0  0  0  0  0  0  0  0  0  0  0
    9.5393    1.6772   21.7632 C   0  0  0  0  0  0  0  0  0  0  0  0
   10.3316    2.0328   22.8696 C   0  0  0  0  0  0  0  0  0  0  0  0
   11.1512    1.3878   23.1760 H   0  0  0  0  0  0  0  0  0  0  0  0
   10.0708    3.2239   23.5623 C   0  0  0  0  0  0  0  0  0  0  0  0
   10.6734    3.4845   24.4336 H   0  0  0  0  0  0  0  0  0  0  0  0
    9.0567    4.0835   23.1261 C   0  0  0  0  0  0  0  0  0  0  0  0
    8.8848    5.0251   23.6443 H   0  0  0  0  0  0  0  0  0  0  0  0
    8.2875    3.7447   22.0036 C   0  0  0  0  0  0  0  0  0  0  0  0
    7.5274    4.4276   21.6238 H   0  0  0  0  0  0  0  0  0  0  0  0
    8.5114    2.5327   21.3408 C   0  0  0  0  0  0  0  0  0  0  0  0
    7.8837    2.2541   20.4963 H   0  0  0  0  0  0  0  0  0  0  0  0
    5.3537    0.5980   20.1832 C   0  0  0  0  0  0  0  0  0  0  0  0
    4.8593    0.5958   21.1553 H   0  0  0  0  0  0  0  0  0  0  0  0
    4.8067    1.2747   19.0926 C   0  0  0  0  0  0  0  0  0  0  0  0
    3.8837    1.8412   19.1851 H   0  0  0  0  0  0  0  0  0  0  0  0
  1  2  1  0
  2  3  2  0
  3  4  1  0
  4  5  1  0
  4  6  2  0
  6  7  1  0
  7  8  1  0
  8  9  1  0
  9 10  2  0
 10 11  1  0
 10 12  1  0
 12 13  1  0
 13 14  1  0
 14 15  2  0
 15 16  1  0
 15 17  1  0
 17 18  1  0
 17 19  2  0
 19 20  1  0
 19 21  1  0
 21 22  1  0
 21 23  2  0
 23 24  1  0
  6 25  1  0
 25 26  1  0
 25 27  2  0
 27 28  1  0
 27  2  1  0
 12  7  2  0
 23 14  1  0
M  END
>  <cnnaffinity>  (1) 
-5.16

>  <filename>  (1) 
[H]c1nc([H])c(-c2snc([H])c2Sc2c([H])c([H])c([H])c([H])c2[H])c([H])c1[H]

$$$$
