
     RDKit          3D

 35 38  0  0  0  0  0  0  0  0999 V2000
    4.9329    1.7935   16.9974 H   0  0  0  0  0  0  0  0  0  0  0  0
    5.3987    1.2887   17.8390 C   0  0  0  0  0  0  0  0  0  0  0  0
    6.5543    0.6592   17.5763 N   0  0  0  0  0  0  0  0  0  0  0  0
    7.1719    0.0402   18.5890 C   0  0  0  0  0  0  0  0  0  0  0  0
    8.1252   -0.4329   18.3601 H   0  0  0  0  0  0  0  0  0  0  0  0
    6.6519   -0.0071   19.9007 C   0  0  0  0  0  0  0  0  0  0  0  0
    7.3309   -0.6915   20.9571 N   0  0  0  0  0  0  0  0  0  0  0  0
    6.7398   -1.6174   21.8075 C   0  0  0  0  0  0  0  0  0  0  0  0
    5.6851   -1.8212   21.7301 H   0  0  0  0  0  0  0  0  0  0  0  0
    7.6808   -2.0703   22.6728 C   0  0  0  0  0  0  0  0  0  0  0  0
    7.5762   -3.0239   23.7800 C   0  0  0  0  0  0  0  0  0  0  0  0
    6.4725   -3.8947   23.8128 C   0  0  0  0  0  0  0  0  0  0  0  0
    5.7586   -3.8594   23.0033 H   0  0  0  0  0  0  0  0  0  0  0  0
    6.2774   -4.8034   24.8512 C   0  0  0  0  0  0  0  0  0  0  0  0
    5.4305   -5.4836   24.8937 H   0  0  0  0  0  0  0  0  0  0  0  0
    7.1953   -4.8531   25.8959 C   0  0  0  0  0  0  0  0  0  0  0  0
    8.3178   -3.9873   25.8736 C   0  0  0  0  0  0  0  0  0  0  0  0
    8.5010   -3.0845   24.8366 C   0  0  0  0  0  0  0  0  0  0  0  0
    9.3659   -2.4341   24.9151 H   0  0  0  0  0  0  0  0  0  0  0  0
    9.2346   -3.9861   26.8893 O   0  0  0  0  0  0  0  0  0  0  0  0
    9.2250   -5.1716   27.6831 C   0  0  0  0  0  0  0  0  0  0  0  0
    9.8470   -4.9234   28.5375 H   0  0  0  0  0  0  0  0  0  0  0  0
    9.6811   -5.9893   27.1085 H   0  0  0  0  0  0  0  0  0  0  0  0
    7.7934   -5.5538   28.0713 C   0  0  0  0  0  0  0  0  0  0  0  0
    7.7644   -6.5094   28.5967 H   0  0  0  0  0  0  0  0  0  0  0  0
    7.3264   -4.7705   28.6850 H   0  0  0  0  0  0  0  0  0  0  0  0
    6.9957   -5.7592   26.8996 O   0  0  0  0  0  0  0  0  0  0  0  0
    8.8410   -1.3942   22.3328 N   0  0  0  0  0  0  0  0  0  0  0  0
    9.7739   -1.4542   22.7108 H   0  0  0  0  0  0  0  0  0  0  0  0
    8.6508   -0.5201   21.3197 C   0  0  0  0  0  0  0  0  0  0  0  0
    9.8100    0.5229   20.7676 S   0  0  0  0  0  0  0  0  0  0  0  0
    5.4421    0.6442   20.1602 C   0  0  0  0  0  0  0  0  0  0  0  0
    5.0357    0.6319   21.1729 H   0  0  0  0  0  0  0  0  0  0  0  0
    4.8083    1.3096   19.1073 C   0  0  0  0  0  0  0  0  0  0  0  0
    3.8782    1.8430   19.2584 H   0  0  0  0  0  0  0  0  0  0  0  0
  1  2  1  0
  2  3  2  0
  3  4  1  0
  4  5  1  0
  4  6  2  0
  6  7  1  0
  7  8  1  0
  8  9  1  0
  8 10  2  0
 10 11  1  0
 11 12  2  0
 12 13  1  0
 12 14  1  0
 14 15  1  0
 14 16  2  0
 16 17  1  0
 17 18  2  0
 18 19  1  0
 17 20  1  0
 20 21  1  0
 21 22  1  0
 21 23  1  0
 21 24  1  0
 24 25  1  0
 24 26  1  0
 24 27  1  0
 10 28  1  0
 28 29  1  0
 28 30  1  0
 30 31  2  0
  6 32  1  0
 32 33  1  0
 32 34  2  0
 34 35  1  0
 34  2  1  0
 30  7  1  0
 18 11  1  0
 27 16  1  0
M  END
>  <cnnaffinity>  (1) 
-5.63146

>  <filename>  (1) 
[H]c1nc([H])c(-n2c([H])c(-c3c([H])c([H])c4c(c3[H])OC([H])([H])C([H])([H])O4)n([H])c2=S)c([H])c1[H]

$$$$
