
     RDKit          3D

 43 46  0  0  0  0  0  0  0  0999 V2000
   11.8306    0.1382   24.1413 C   0  0  0  0  0  0  0  0  0  0  0  0
   10.9228   -0.8784   23.7708 O   0  0  0  0  0  0  0  0  0  0  0  0
   11.2354   -1.5111   22.5465 C   0  0  0  0  0  0  0  0  0  0  0  0
   10.0915   -2.4226   22.1456 C   0  0  0  0  0  0  0  0  0  0  0  0
    8.8169   -1.7665   21.9533 N   0  0  0  0  0  0  0  0  0  0  0  0
    8.5252   -1.2618   20.7384 N   0  0  0  0  0  0  0  0  0  0  0  0
    7.3313   -0.7331   20.9180 C   0  0  0  0  0  0  0  0  0  0  0  0
    6.6277   -0.0221   19.8655 C   0  0  0  0  0  0  0  0  0  0  0  0
    5.4268    0.6463   20.1231 C   0  0  0  0  0  0  0  0  0  0  0  0
    4.8140    1.3102   19.0674 C   0  0  0  0  0  0  0  0  0  0  0  0
    5.4309    1.2919   17.8114 C   0  0  0  0  0  0  0  0  0  0  0  0
    6.5911    0.6640   17.5622 N   0  0  0  0  0  0  0  0  0  0  0  0
    7.1817    0.0267   18.5781 C   0  0  0  0  0  0  0  0  0  0  0  0
    8.1367   -0.4543   18.3602 H   0  0  0  0  0  0  0  0  0  0  0  0
    4.9669    1.8063   16.9735 H   0  0  0  0  0  0  0  0  0  0  0  0
    3.8832    1.8403   19.2183 H   0  0  0  0  0  0  0  0  0  0  0  0
    5.0252    0.6415   21.1384 H   0  0  0  0  0  0  0  0  0  0  0  0
    6.8406   -0.8685   22.1744 N   0  0  0  0  0  0  0  0  0  0  0  0
    7.8102   -1.4914   22.8132 C   0  0  0  0  0  0  0  0  0  0  0  0
    7.8210   -1.8478   24.2672 C   0  0  0  0  0  0  0  0  0  0  0  0
    7.6981   -0.6627   25.1952 C   0  0  0  0  0  0  0  0  0  0  0  0
    8.2892    0.5489   25.0844 C   0  0  0  0  0  0  0  0  0  0  0  0
    7.9216    1.4127   26.0738 O   0  0  0  0  0  0  0  0  0  0  0  0
    7.0461    0.7392   26.8662 C   0  0  0  0  0  0  0  0  0  0  0  0
    6.3735    1.2023   28.0112 C   0  0  0  0  0  0  0  0  0  0  0  0
    6.5176    2.4409   28.4997 F   0  0  0  0  0  0  0  0  0  0  0  0
    5.5205    0.2965   28.6437 C   0  0  0  0  0  0  0  0  0  0  0  0
    4.8720    0.6866   29.7480 F   0  0  0  0  0  0  0  0  0  0  0  0
    5.3202   -1.0117   28.1643 C   0  0  0  0  0  0  0  0  0  0  0  0
    5.9841   -1.4459   27.0245 C   0  0  0  0  0  0  0  0  0  0  0  0
    6.8647   -0.5682   26.3725 C   0  0  0  0  0  0  0  0  0  0  0  0
    5.8227   -2.4481   26.6310 H   0  0  0  0  0  0  0  0  0  0  0  0
    4.6393   -1.6557   28.7137 H   0  0  0  0  0  0  0  0  0  0  0  0
    8.9833    0.9520   24.3584 H   0  0  0  0  0  0  0  0  0  0  0  0
    6.9867   -2.5366   24.4430 H   0  0  0  0  0  0  0  0  0  0  0  0
    8.7386   -2.4065   24.4784 H   0  0  0  0  0  0  0  0  0  0  0  0
   10.3198   -2.8510   21.1793 H   0  0  0  0  0  0  0  0  0  0  0  0
    9.9782   -3.2467   22.8518 H   0  0  0  0  0  0  0  0  0  0  0  0
   11.4017   -0.7781   21.7420 H   0  0  0  0  0  0  0  0  0  0  0  0
   12.1376   -2.1461   22.6182 H   0  0  0  0  0  0  0  0  0  0  0  0
   11.5925    0.4584   25.1571 H   0  0  0  0  0  0  0  0  0  0  0  0
   11.7709    1.0176   23.4836 H   0  0  0  0  0  0  0  0  0  0  0  0
   12.8804   -0.1935   24.1413 H   0  0  0  0  0  0  0  0  0  0  0  0
  1  2  1  0
  2  3  1  0
  3  4  1  0
  4  5  1  0
  5  6  1  0
  6  7  2  0
  7  8  1  0
  8  9  2  0
  9 10  1  0
 10 11  2  0
 11 12  1  0
 12 13  2  0
 13 14  1  0
 11 15  1  0
 10 16  1  0
  9 17  1  0
  7 18  1  0
 18 19  2  0
 19 20  1  0
 20 21  1  0
 21 22  2  0
 22 23  1  0
 23 24  1  0
 24 25  2  0
 25 26  1  0
 25 27  1  0
 27 28  1  0
 27 29  2  0
 29 30  1  0
 30 31  2  0
 30 32  1  0
 29 33  1  0
 22 34  1  0
 20 35  1  0
 20 36  1  0
  4 37  1  0
  4 38  1  0
  3 39  1  0
  3 40  1  0
  1 41  1  0
  1 42  1  0
  1 43  1  0
 19  5  1  0
 31 21  1  0
 13  8  1  0
 31 24  1  0
M  END
>  <cnnaffinity>  (1) 
-6.00156

>  <filename>  (1) 
[H]c1nc([H])c(-c2nc(C([H])([H])c3c([H])oc4c(F)c(F)c([H])c([H])c34)n(C([H])([H])C([H])([H])OC([H])([H])[H])n2)c([H])c1[H]

$$$$
