
     RDKit          3D

 29 31  0  0  0  0  0  0  0  0999 V2000
    7.4574   -1.6460   24.1819 O   0  0  0  0  0  0  0  0  0  0  0  0
    7.6162   -1.4114   23.0157 C   0  0  0  0  0  0  0  0  0  0  0  0
    6.7077   -0.7892   22.1907 O   0  0  0  0  0  0  0  0  0  0  0  0
    7.2920   -0.6978   20.9749 C   0  0  0  0  0  0  0  0  0  0  0  0
    6.5869    0.0057   19.9099 C   0  0  0  0  0  0  0  0  0  0  0  0
    5.3735    0.6943   20.1018 C   0  0  0  0  0  0  0  0  0  0  0  0
    4.8113    1.3497   19.0093 C   0  0  0  0  0  0  0  0  0  0  0  0
    5.4697    1.2972   17.7757 C   0  0  0  0  0  0  0  0  0  0  0  0
    6.6226    0.6407   17.5833 N   0  0  0  0  0  0  0  0  0  0  0  0
    7.1676    0.0185   18.6327 C   0  0  0  0  0  0  0  0  0  0  0  0
    8.1073   -0.5013   18.4494 H   0  0  0  0  0  0  0  0  0  0  0  0
    5.0526    1.8037   16.9061 H   0  0  0  0  0  0  0  0  0  0  0  0
    3.8880    1.9117   19.0978 H   0  0  0  0  0  0  0  0  0  0  0  0
    4.8821    0.7242   21.0755 H   0  0  0  0  0  0  0  0  0  0  0  0
    8.4642   -1.2348   20.9138 N   0  0  0  0  0  0  0  0  0  0  0  0
    8.6700   -1.7042   22.1964 N   0  0  0  0  0  0  0  0  0  0  0  0
    9.9388   -2.2580   22.6491 C   0  0  0  0  0  0  0  0  0  0  0  0
   10.8696   -1.2011   23.2036 C   0  0  0  0  0  0  0  0  0  0  0  0
   10.6125   -0.6612   24.4732 C   0  0  0  0  0  0  0  0  0  0  0  0
   11.4067    0.2079   25.1020 N   0  0  0  0  0  0  0  0  0  0  0  0
   12.4919    0.6312   24.4485 C   0  0  0  0  0  0  0  0  0  0  0  0
   12.8205    0.2358   23.1551 C   0  0  0  0  0  0  0  0  0  0  0  0
   12.0164   -0.7313   22.5520 C   0  0  0  0  0  0  0  0  0  0  0  0
   12.4805   -1.3704   21.0099 Cl  0  0  0  0  0  0  0  0  0  0  0  0
   13.6733    0.6641   22.6432 H   0  0  0  0  0  0  0  0  0  0  0  0
   13.1253    1.3186   25.0000 H   0  0  0  0  0  0  0  0  0  0  0  0
    9.7094   -0.9590   25.0032 H   0  0  0  0  0  0  0  0  0  0  0  0
   10.3971   -2.7952   21.8171 H   0  0  0  0  0  0  0  0  0  0  0  0
    9.7221   -3.0015   23.4274 H   0  0  0  0  0  0  0  0  0  0  0  0
  1  2  2  0
  2  3  1  0
  3  4  1  0
  4  5  1  0
  5  6  2  0
  6  7  1  0
  7  8  2  0
  8  9  1  0
  9 10  2  0
 10 11  1  0
  8 12  1  0
  7 13  1  0
  6 14  1  0
  4 15  2  0
 15 16  1  0
 16 17  1  0
 17 18  1  0
 18 19  2  0
 19 20  1  0
 20 21  2  0
 21 22  1  0
 22 23  2  0
 23 24  1  0
 22 25  1  0
 21 26  1  0
 19 27  1  0
 17 28  1  0
 17 29  1  0
 16  2  1  0
 23 18  1  0
 10  5  1  0
M  END
>  <cnnaffinity>  (1) 
-5.42454

>  <filename>  (1) 
[H]c1nc([H])c(-c2nn(C([H])([H])c3c([H])nc([H])c([H])c3Cl)c(=O)o2)c([H])c1[H]

$$$$
