
     RDKit          3D

 30 32  0  0  0  0  0  0  0  0999 V2000
    5.6716   -2.1404   21.4753 O   0  0  0  0  0  0  0  0  0  0  0  0
    6.7535   -1.6241   21.7403 C   0  0  0  0  0  0  0  0  0  0  0  0
    7.6532   -2.1704   22.7498 C   0  0  0  0  0  0  0  0  0  0  0  0
    7.2717   -2.8712   23.8718 C   0  0  0  0  0  0  0  0  0  0  0  0
    8.2001   -3.4233   24.8530 C   0  0  0  0  0  0  0  0  0  0  0  0
    9.3338   -4.1493   24.4507 C   0  0  0  0  0  0  0  0  0  0  0  0
   10.1791   -4.7192   25.4118 C   0  0  0  0  0  0  0  0  0  0  0  0
    9.8791   -4.5879   26.7734 C   0  0  0  0  0  0  0  0  0  0  0  0
    8.7340   -3.8945   27.1687 C   0  0  0  0  0  0  0  0  0  0  0  0
    7.9111   -3.2874   26.2195 C   0  0  0  0  0  0  0  0  0  0  0  0
    6.4330   -2.2191   26.8072 Br  0  0  0  0  0  0  0  0  0  0  0  0
    8.4707   -3.8197   28.2178 H   0  0  0  0  0  0  0  0  0  0  0  0
   10.5332   -5.0196   27.5250 H   0  0  0  0  0  0  0  0  0  0  0  0
   11.0602   -5.2781   25.1122 H   0  0  0  0  0  0  0  0  0  0  0  0
    9.5446   -4.2990   23.3945 H   0  0  0  0  0  0  0  0  0  0  0  0
    6.2162   -3.0196   24.0838 H   0  0  0  0  0  0  0  0  0  0  0  0
    9.2918   -1.6175   22.4660 S   0  0  0  0  0  0  0  0  0  0  0  0
    8.6981   -0.4818   21.2656 C   0  0  0  0  0  0  0  0  0  0  0  0
    9.6285    0.7860   20.7208 S   0  0  0  0  0  0  0  0  0  0  0  0
    7.3532   -0.6519   20.9492 N   0  0  0  0  0  0  0  0  0  0  0  0
    6.7032    0.0139   19.8860 C   0  0  0  0  0  0  0  0  0  0  0  0
    5.4708    0.6124   20.1322 C   0  0  0  0  0  0  0  0  0  0  0  0
    4.8250    1.2817   19.0877 C   0  0  0  0  0  0  0  0  0  0  0  0
    5.4165    1.3082   17.8215 C   0  0  0  0  0  0  0  0  0  0  0  0
    6.5948    0.7089   17.5564 N   0  0  0  0  0  0  0  0  0  0  0  0
    7.2305    0.0909   18.5759 C   0  0  0  0  0  0  0  0  0  0  0  0
    8.1789   -0.3957   18.3677 H   0  0  0  0  0  0  0  0  0  0  0  0
    4.8995    1.8340   17.0243 H   0  0  0  0  0  0  0  0  0  0  0  0
    3.8775    1.7921   19.2507 H   0  0  0  0  0  0  0  0  0  0  0  0
    5.0502    0.5773   21.1319 H   0  0  0  0  0  0  0  0  0  0  0  0
  1  2  2  0
  2  3  1  0
  3  4  2  3
  4  5  1  0
  5  6  2  0
  6  7  1  0
  7  8  2  0
  8  9  1  0
  9 10  2  0
 10 11  1  0
  9 12  1  0
  8 13  1  0
  7 14  1  0
  6 15  1  0
  4 16  1  0
  3 17  1  0
 17 18  1  0
 18 19  2  0
 18 20  1  0
 20 21  1  0
 21 22  2  0
 22 23  1  0
 23 24  2  0
 24 25  1  0
 25 26  2  0
 26 27  1  0
 24 28  1  0
 23 29  1  0
 22 30  1  0
 20  2  1  0
 26 21  1  0
 10  5  1  0
M  END
>  <cnnaffinity>  (1) 
-5.21068

>  <filename>  (1) 
[H]C(=C1SC(=S)N(c2c([H])nc([H])c([H])c2[H])C1=O)c1c([H])c([H])c([H])c([H])c1Br

$$$$
