
     RDKit          3D

 32 35  0  0  0  0  0  0  0  0999 V2000
    4.9225    1.8043   16.9763 H   0  0  0  0  0  0  0  0  0  0  0  0
    5.3808    1.3013   17.8243 C   0  0  0  0  0  0  0  0  0  0  0  0
    6.5376    0.6728   17.5606 N   0  0  0  0  0  0  0  0  0  0  0  0
    7.1456    0.0545   18.5746 C   0  0  0  0  0  0  0  0  0  0  0  0
    8.1108   -0.4078   18.3847 H   0  0  0  0  0  0  0  0  0  0  0  0
    6.6277    0.0036   19.8801 C   0  0  0  0  0  0  0  0  0  0  0  0
    7.3692   -0.6646   20.8772 N   0  0  0  0  0  0  0  0  0  0  0  0
    8.7737   -0.6354   21.1049 C   0  0  0  0  0  0  0  0  0  0  0  0
    9.5889   -0.0314   20.4318 O   0  0  0  0  0  0  0  0  0  0  0  0
    8.9291   -1.4653   22.2806 C   0  0  0  0  0  0  0  0  0  0  0  0
    9.8733   -1.6910   22.7409 H   0  0  0  0  0  0  0  0  0  0  0  0
    7.7133   -1.9072   22.6971 C   0  0  0  0  0  0  0  0  0  0  0  0
    7.4402   -2.7762   23.8527 C   0  0  0  0  0  0  0  0  0  0  0  0
    8.3666   -3.2577   24.6453 N   0  0  0  0  0  0  0  0  0  0  0  0
    7.6838   -4.0056   25.5807 C   0  0  0  0  0  0  0  0  0  0  0  0
    8.1829   -4.7407   26.6701 C   0  0  0  0  0  0  0  0  0  0  0  0
    9.2586   -4.7526   26.8379 H   0  0  0  0  0  0  0  0  0  0  0  0
    7.2693   -5.4178   27.4732 C   0  0  0  0  0  0  0  0  0  0  0  0
    7.6401   -5.9947   28.3132 H   0  0  0  0  0  0  0  0  0  0  0  0
    5.8758   -5.3701   27.2063 C   0  0  0  0  0  0  0  0  0  0  0  0
    5.1938   -5.9124   27.8548 H   0  0  0  0  0  0  0  0  0  0  0  0
    5.3667   -4.6439   26.1299 C   0  0  0  0  0  0  0  0  0  0  0  0
    4.3000   -4.5990   25.9172 H   0  0  0  0  0  0  0  0  0  0  0  0
    6.2938   -3.9681   25.3284 C   0  0  0  0  0  0  0  0  0  0  0  0
    6.1728   -3.1732   24.2081 N   0  0  0  0  0  0  0  0  0  0  0  0
    5.3141   -2.8952   23.7678 H   0  0  0  0  0  0  0  0  0  0  0  0
    6.7556   -1.3983   21.8643 N   0  0  0  0  0  0  0  0  0  0  0  0
    5.7554   -1.5209   21.8334 H   0  0  0  0  0  0  0  0  0  0  0  0
    5.4140    0.6514   20.1505 C   0  0  0  0  0  0  0  0  0  0  0  0
    5.0118    0.6563   21.1640 H   0  0  0  0  0  0  0  0  0  0  0  0
    4.7914    1.3183   19.0946 C   0  0  0  0  0  0  0  0  0  0  0  0
    3.8644    1.8538   19.2437 H   0  0  0  0  0  0  0  0  0  0  0  0
  1  2  1  0
  2  3  2  0
  3  4  1  0
  4  5  1  0
  4  6  2  0
  6  7  1  0
  7  8  1  0
  8  9  2  0
  8 10  1  0
 10 11  1  0
 10 12  2  0
 12 13  1  0
 13 14  2  0
 14 15  1  0
 15 16  2  0
 16 17  1  0
 16 18  1  0
 18 19  1  0
 18 20  2  0
 20 21  1  0
 20 22  1  0
 22 23  1  0
 22 24  2  0
 24 25  1  0
 25 26  1  0
 12 27  1  0
 27 28  1  0
  6 29  1  0
 29 30  1  0
 29 31  2  0
 31 32  1  0
 31  2  1  0
 27  7  1  0
 25 13  1  0
 24 15  1  0
M  END
>  <cnnaffinity>  (1) 
-5.28868

>  <filename>  (1) 
[H]c1nc([H])c(-n2c(=O)c([H])c(-c3nc4c([H])c([H])c([H])c([H])c4n3[H])n2[H])c([H])c1[H]

$$$$
