
     RDKit          3D

 34 36  0  0  0  0  0  0  0  0999 V2000
    6.7678   -1.5276   21.4544 H   0  0  0  0  0  0  0  0  0  0  0  0
    7.3324   -0.7129   20.9882 C   0  0  0  0  0  0  0  0  0  0  0  0
    8.5605   -0.3966   21.4218 C   0  0  0  0  0  0  0  0  0  0  0  0
    9.3229   -1.0208   22.5247 C   0  0  0  0  0  0  0  0  0  0  0  0
    8.7775   -2.1288   23.3671 C   0  0  0  0  0  0  0  0  0  0  0  0
    9.5925   -3.2433   23.6327 C   0  0  0  0  0  0  0  0  0  0  0  0
   10.5887   -3.2858   23.2024 H   0  0  0  0  0  0  0  0  0  0  0  0
    9.1557   -4.2766   24.4533 C   0  0  0  0  0  0  0  0  0  0  0  0
    9.7998   -5.1266   24.6638 H   0  0  0  0  0  0  0  0  0  0  0  0
    7.8782   -4.2001   25.0288 C   0  0  0  0  0  0  0  0  0  0  0  0
    7.4111   -5.3076   25.9101 N   0  0  0  0  0  4  0  0  0  0  0  0
    6.2964   -5.2221   26.3965 O   0  0  0  0  0  0  0  0  0  0  0  0
    8.1703   -6.2458   26.0960 O   0  0  0  0  0  1  0  0  0  0  0  0
    7.0474   -3.0951   24.7910 C   0  0  0  0  0  0  0  0  0  0  0  0
    6.0637   -3.0366   25.2430 H   0  0  0  0  0  0  0  0  0  0  0  0
    7.5010   -2.0701   23.9623 C   0  0  0  0  0  0  0  0  0  0  0  0
    6.8617   -1.2058   23.7979 H   0  0  0  0  0  0  0  0  0  0  0  0
   10.4941   -0.5257   22.6925 N   0  0  0  0  0  0  0  0  0  0  0  0
   10.6994    0.5784   21.7537 C   0  0  0  0  0  0  0  0  0  0  0  0
   11.5752    0.3441   21.1463 H   0  0  0  0  0  0  0  0  0  0  0  0
   10.9173    1.4884   22.3181 H   0  0  0  0  0  0  0  0  0  0  0  0
    9.4248    0.7269   20.8938 C   0  0  0  0  0  0  0  0  0  0  0  0
    9.6179    0.6019   19.8273 H   0  0  0  0  0  0  0  0  0  0  0  0
    8.9424    1.7007   21.0245 H   0  0  0  0  0  0  0  0  0  0  0  0
    6.6436   -0.0034   19.8938 C   0  0  0  0  0  0  0  0  0  0  0  0
    7.1656    0.0679   18.5877 C   0  0  0  0  0  0  0  0  0  0  0  0
    8.1109   -0.4295   18.3761 H   0  0  0  0  0  0  0  0  0  0  0  0
    6.5610    0.6854   17.5664 N   0  0  0  0  0  0  0  0  0  0  0  0
    5.3979    1.2992   17.8343 C   0  0  0  0  0  0  0  0  0  0  0  0
    4.9116    1.7845   16.9934 H   0  0  0  0  0  0  0  0  0  0  0  0
    4.7995    1.3151   19.1004 C   0  0  0  0  0  0  0  0  0  0  0  0
    3.8689    1.8485   19.2568 H   0  0  0  0  0  0  0  0  0  0  0  0
    5.4241    0.6395   20.1470 C   0  0  0  0  0  0  0  0  0  0  0  0
    5.0089    0.6238   21.1586 H   0  0  0  0  0  0  0  0  0  0  0  0
  1  2  1  0
  2  3  2  3
  3  4  1  0
  4  5  1  0
  5  6  2  0
  6  7  1  0
  6  8  1  0
  8  9  1  0
  8 10  2  0
 10 11  1  0
 11 12  2  0
 11 13  1  0
 10 14  1  0
 14 15  1  0
 14 16  2  0
 16 17  1  0
  4 18  2  0
 18 19  1  0
 19 20  1  0
 19 21  1  0
 19 22  1  0
 22 23  1  0
 22 24  1  0
  2 25  1  0
 25 26  2  0
 26 27  1  0
 26 28  1  0
 28 29  2  0
 29 30  1  0
 29 31  1  0
 31 32  1  0
 31 33  2  0
 33 34  1  0
 22  3  1  0
 33 25  1  0
 16  5  1  0
M  CHG  2  11   1  13  -1
M  END
>  <cnnaffinity>  (1) 
-5.34165

>  <filename>  (1) 
[H]C(=C1C(c2c([H])c([H])c([N+](=O)[O-])c([H])c2[H])=NC([H])([H])C1([H])[H])c1c([H])nc([H])c([H])c1[H]

$$$$
