
     RDKit          3D

 32 33  0  0  0  0  0  0  0  0999 V2000
   11.0684   -2.2046   21.4174 O   0  0  0  0  0  0  0  0  0  0  0  0
   10.7140   -1.4130   22.2728 C   0  0  0  0  0  0  0  0  0  0  0  0
    9.4561   -1.5490   22.8287 N   0  0  0  0  0  0  0  0  0  0  0  0
    8.4170   -2.3541   22.2106 C   0  0  0  0  0  0  0  0  0  0  0  0
    7.9064   -1.5891   21.0203 C   0  0  0  0  0  0  0  0  0  0  0  0
    6.7356   -0.8543   21.0216 C   0  0  0  0  0  0  0  0  0  0  0  0
    6.2859   -0.0673   19.8605 C   0  0  0  0  0  0  0  0  0  0  0  0
    5.1612    0.7563   19.9659 C   0  0  0  0  0  0  0  0  0  0  0  0
    4.7891    1.5182   18.8549 C   0  0  0  0  0  0  0  0  0  0  0  0
    5.5221    1.4330   17.6693 C   0  0  0  0  0  0  0  0  0  0  0  0
    6.5952    0.6274   17.5549 N   0  0  0  0  0  0  0  0  0  0  0  0
    6.9691   -0.0963   18.6305 C   0  0  0  0  0  0  0  0  0  0  0  0
    7.8385   -0.7386   18.5292 H   0  0  0  0  0  0  0  0  0  0  0  0
    5.2213    2.0426   16.8196 H   0  0  0  0  0  0  0  0  0  0  0  0
    3.9413    2.1922   18.8984 H   0  0  0  0  0  0  0  0  0  0  0  0
    4.5968    0.8105   20.8945 H   0  0  0  0  0  0  0  0  0  0  0  0
    6.1419   -0.7991   21.9321 H   0  0  0  0  0  0  0  0  0  0  0  0
    8.5259   -1.6137   20.1293 H   0  0  0  0  0  0  0  0  0  0  0  0
    7.6165   -2.5555   22.9309 H   0  0  0  0  0  0  0  0  0  0  0  0
    8.8067   -3.3257   21.8911 H   0  0  0  0  0  0  0  0  0  0  0  0
    9.1677   -0.8181   23.4694 H   0  0  0  0  0  0  0  0  0  0  0  0
   11.5174   -0.2279   22.5371 C   0  0  0  0  0  0  0  0  0  0  0  0
   12.9135   -0.3191   22.6416 C   0  0  0  0  0  0  0  0  0  0  0  0
   13.6757    0.8371   22.8145 C   0  0  0  0  0  0  0  0  0  0  0  0
   13.0665    2.0860   22.9351 C   0  0  0  0  0  0  0  0  0  0  0  0
   13.8006    3.1971   23.1818 F   0  0  0  0  0  0  0  0  0  0  0  0
   11.6817    2.1727   22.8033 C   0  0  0  0  0  0  0  0  0  0  0  0
   10.9011    1.0337   22.5963 C   0  0  0  0  0  0  0  0  0  0  0  0
    8.6817    1.2857   22.2764 I   0  0  0  0  0  0  0  0  0  0  0  0
   11.2083    3.1456   22.8491 H   0  0  0  0  0  0  0  0  0  0  0  0
   14.7524    0.7600   22.8546 H   0  0  0  0  0  0  0  0  0  0  0  0
   13.4059   -1.2879   22.5769 H   0  0  0  0  0  0  0  0  0  0  0  0
  1  2  2  0
  2  3  1  0
  3  4  1  0
  4  5  1  0
  5  6  2  3
  6  7  1  0
  7  8  2  0
  8  9  1  0
  9 10  2  0
 10 11  1  0
 11 12  2  0
 12 13  1  0
 10 14  1  0
  9 15  1  0
  8 16  1  0
  6 17  1  0
  5 18  1  0
  4 19  1  0
  4 20  1  0
  3 21  1  0
  2 22  1  0
 22 23  2  0
 23 24  1  0
 24 25  2  0
 25 26  1  0
 25 27  1  0
 27 28  2  0
 28 29  1  0
 27 30  1  0
 24 31  1  0
 23 32  1  0
 12  7  1  0
 28 22  1  0
M  END
>  <cnnaffinity>  (1) 
-5.60898

>  <filename>  (1) 
[H]C(=C([H])C([H])([H])N([H])C(=O)c1c([H])c([H])c(F)c([H])c1I)c1c([H])nc([H])c([H])c1[H]

$$$$
