
     RDKit          3D

 41 44  0  0  0  0  0  0  0  0999 V2000
    4.9058    1.6706   17.0316 H   0  0  0  0  0  0  0  0  0  0  0  0
    5.4129    1.2582   17.9008 C   0  0  0  0  0  0  0  0  0  0  0  0
    6.5885    0.6660   17.6614 N   0  0  0  0  0  0  0  0  0  0  0  0
    7.2306    0.1454   18.7126 C   0  0  0  0  0  0  0  0  0  0  0  0
    8.1887   -0.3147   18.4833 H   0  0  0  0  0  0  0  0  0  0  0  0
    6.7699    0.1550   20.0563 C   0  0  0  0  0  0  0  0  0  0  0  0
    7.5619   -0.5040   21.2128 C   0  0  2  0  0  0  0  0  0  0  0  0
    8.6830    0.7818   22.0565 S   0  0  0  0  0  0  0  0  0  0  0  0
    9.4711    0.1425   23.1138 O   0  0  0  0  0  0  0  0  0  0  0  0
    9.3855    1.5036   20.9950 O   0  0  0  0  0  0  0  0  0  0  0  0
    7.5681    1.9136   22.8547 C   0  0  0  0  0  0  0  0  0  0  0  0
    7.3957    1.8833   24.2414 C   0  0  0  0  0  0  0  0  0  0  0  0
    7.8683    1.1129   24.8557 H   0  0  0  0  0  0  0  0  0  0  0  0
    6.6283    2.8787   24.8487 C   0  0  0  0  0  0  0  0  0  0  0  0
    6.5056    2.9058   25.9234 H   0  0  0  0  0  0  0  0  0  0  0  0
    6.0295    3.8713   24.0658 C   0  0  0  0  0  0  0  0  0  0  0  0
    5.1425    5.1569   24.8350 Cl  0  0  0  0  0  0  0  0  0  0  0  0
    6.1454    3.8539   22.6770 C   0  0  0  0  0  0  0  0  0  0  0  0
    5.6323    4.5989   22.0791 H   0  0  0  0  0  0  0  0  0  0  0  0
    6.9372    2.8835   22.0683 C   0  0  0  0  0  0  0  0  0  0  0  0
    7.0498    2.8944   20.9882 H   0  0  0  0  0  0  0  0  0  0  0  0
    8.5130   -1.6594   20.7549 C   0  0  0  0  0  0  0  0  0  0  0  0
    8.3323   -1.8069   19.6964 H   0  0  0  0  0  0  0  0  0  0  0  0
    9.5733   -1.4109   20.8586 H   0  0  0  0  0  0  0  0  0  0  0  0
    8.0980   -2.8803   21.6067 C   0  0  2  0  0  0  0  0  0  0  0  0
    8.8976   -3.6173   21.6835 H   0  0  0  0  0  0  0  0  0  0  0  0
    6.7527   -3.4460   21.1129 C   0  0  0  0  0  0  0  0  0  0  0  0
    6.7204   -3.7228   20.0578 H   0  0  0  0  0  0  0  0  0  0  0  0
    6.5101   -4.3579   21.6705 H   0  0  0  0  0  0  0  0  0  0  0  0
    5.7724   -2.2937   21.4632 C   0  0  0  0  0  0  0  0  0  0  0  0
    4.9508   -2.6527   22.0837 H   0  0  0  0  0  0  0  0  0  0  0  0
    5.3429   -1.8421   20.5666 H   0  0  0  0  0  0  0  0  0  0  0  0
    6.6607   -1.2749   22.2369 C   0  0  1  0  0  0  0  0  0  0  0  0
    6.1072   -0.6067   22.9001 H   0  0  0  0  0  0  0  0  0  0  0  0
    7.6439   -2.2328   22.9232 C   0  0  0  0  0  0  0  0  0  0  0  0
    8.4440   -1.7390   23.4711 H   0  0  0  0  0  0  0  0  0  0  0  0
    7.1347   -2.9340   23.5940 H   0  0  0  0  0  0  0  0  0  0  0  0
    5.5337    0.7899   20.2646 C   0  0  0  0  0  0  0  0  0  0  0  0
    5.1211    0.8904   21.2719 H   0  0  0  0  0  0  0  0  0  0  0  0
    4.8417    1.3386   19.1735 C   0  0  0  0  0  0  0  0  0  0  0  0
    3.8829    1.8294   19.2931 H   0  0  0  0  0  0  0  0  0  0  0  0
  1  2  1  0
  2  3  2  0
  3  4  1  0
  4  5  1  0
  4  6  2  0
  7  6  1  6
  7  8  1  0
  8  9  2  0
  8 10  2  0
  8 11  1  0
 11 12  2  0
 12 13  1  0
 12 14  1  0
 14 15  1  0
 14 16  2  0
 16 17  1  0
 16 18  1  0
 18 19  1  0
 18 20  2  0
 20 21  1  0
  7 22  1  0
 22 23  1  0
 22 24  1  0
 22 25  1  0
 25 26  1  1
 25 27  1  0
 27 28  1  0
 27 29  1  0
 27 30  1  0
 30 31  1  0
 30 32  1  0
 30 33  1  0
 33 34  1  1
 33 35  1  0
 35 36  1  0
 35 37  1  0
  6 38  1  0
 38 39  1  0
 38 40  2  0
 40 41  1  0
 40  2  1  0
 33  7  1  0
 20 11  1  0
 35 25  1  0
M  END
>  <cnnaffinity>  (1) 
-5.92565

>  <filename>  (1) 
[H]c1nc([H])c([C@]2(S(=O)(=O)c3c([H])c([H])c(Cl)c([H])c3[H])C([H])([H])[C@]3([H])C([H])([H])C([H])([H])[C@@]2([H])C3([H])[H])c([H])c1[H]

$$$$
