
     RDKit          3D

 25 27  0  0  0  0  0  0  0  0999 V2000
    4.9181    1.8784   16.9239 H   0  0  0  0  0  0  0  0  0  0  0  0
    5.3625    1.3423   17.7585 C   0  0  0  0  0  0  0  0  0  0  0  0
    6.5039    0.6914   17.4982 N   0  0  0  0  0  0  0  0  0  0  0  0
    7.0944    0.0577   18.5153 C   0  0  0  0  0  0  0  0  0  0  0  0
    8.0243   -0.4612   18.2830 H   0  0  0  0  0  0  0  0  0  0  0  0
    6.5770    0.0218   19.8241 C   0  0  0  0  0  0  0  0  0  0  0  0
    7.2670   -0.7400   20.9030 C   0  0  0  0  0  0  0  0  0  0  0  0
    6.4741   -1.8599   21.7748 S   0  0  0  0  0  0  0  0  0  0  0  0
    8.7135   -0.4372   21.1812 C   0  0  0  0  0  0  0  0  0  0  0  0
    9.3516    0.6734   20.9851 N   0  0  0  0  0  0  0  0  0  0  0  0
   10.6338    0.4223   21.4698 C   0  0  0  0  0  0  0  0  0  0  0  0
   11.7577    1.2570   21.6193 C   0  0  0  0  0  0  0  0  0  0  0  0
   11.7399    2.2793   21.2502 H   0  0  0  0  0  0  0  0  0  0  0  0
   12.8862    0.7155   22.2526 C   0  0  0  0  0  0  0  0  0  0  0  0
   13.7694    1.3218   22.4435 H   0  0  0  0  0  0  0  0  0  0  0  0
   12.9155   -0.6308   22.6627 C   0  0  0  0  0  0  0  0  0  0  0  0
   13.8410   -0.9973   23.1004 H   0  0  0  0  0  0  0  0  0  0  0  0
   11.8076   -1.4722   22.4968 C   0  0  0  0  0  0  0  0  0  0  0  0
   11.7691   -2.5138   22.8081 H   0  0  0  0  0  0  0  0  0  0  0  0
   10.6805   -0.8976   21.9242 C   0  0  0  0  0  0  0  0  0  0  0  0
    9.4504   -1.4541   21.7317 O   0  0  0  0  0  0  0  0  0  0  0  0
    5.3534    0.6704   20.0659 C   0  0  0  0  0  0  0  0  0  0  0  0
    4.8926    0.6379   21.0552 H   0  0  0  0  0  0  0  0  0  0  0  0
    4.7481    1.3524   19.0148 C   0  0  0  0  0  0  0  0  0  0  0  0
    3.8281    1.9062   19.1602 H   0  0  0  0  0  0  0  0  0  0  0  0
  1  2  1  0
  2  3  2  0
  3  4  1  0
  4  5  1  0
  4  6  2  0
  6  7  1  0
  7  8  2  0
  7  9  1  0
  9 10  2  0
 10 11  1  0
 11 12  2  0
 12 13  1  0
 12 14  1  0
 14 15  1  0
 14 16  2  0
 16 17  1  0
 16 18  1  0
 18 19  1  0
 18 20  2  0
 20 21  1  0
  6 22  1  0
 22 23  1  0
 22 24  2  0
 24 25  1  0
 24  2  1  0
 21  9  1  0
 20 11  1  0
M  END
>  <cnnaffinity>  (1) 
-4.61512

>  <filename>  (1) 
[H]c1nc([H])c(C(=S)c2nc3c([H])c([H])c([H])c([H])c3o2)c([H])c1[H]

$$$$
