
     RDKit          3D

 38 38  0  0  0  0  0  0  0  0999 V2000
    4.9311    1.7836   16.9909 H   0  0  0  0  0  0  0  0  0  0  0  0
    5.4041    1.2942   17.8399 C   0  0  0  0  0  0  0  0  0  0  0  0
    6.5605    0.6662   17.5957 N   0  0  0  0  0  0  0  0  0  0  0  0
    7.1627    0.0545   18.6205 C   0  0  0  0  0  0  0  0  0  0  0  0
    8.1072   -0.4297   18.3748 H   0  0  0  0  0  0  0  0  0  0  0  0
    6.6407    0.0253   19.9208 C   0  0  0  0  0  0  0  0  0  0  0  0
    7.3253   -0.7217   21.0193 C   0  0  0  0  0  0  0  0  0  0  0  0
    6.7545   -1.6223   21.5951 O   0  0  0  0  0  0  0  0  0  0  0  0
    8.7860   -0.4386   21.4098 C   0  0  0  0  0  0  0  0  0  0  0  0
    8.8562   -0.4591   22.9636 C   0  0  0  0  0  0  0  0  0  0  0  0
    9.8831   -0.8451   23.4945 O   0  0  0  0  0  0  0  0  0  0  0  0
    7.7880   -0.0154   23.7384 N   0  0  0  0  0  0  0  0  0  0  0  0
    7.1636    1.2898   23.5374 C   0  0  0  0  0  0  0  0  0  0  0  0
    6.9312    1.4291   22.4759 H   0  0  0  0  0  0  0  0  0  0  0  0
    6.2019    1.2762   24.0678 H   0  0  0  0  0  0  0  0  0  0  0  0
    8.0247    2.4446   24.0619 C   0  0  0  0  0  0  0  0  0  0  0  0
    8.2193    2.3379   25.1380 H   0  0  0  0  0  0  0  0  0  0  0  0
    7.5320    3.4123   23.9045 H   0  0  0  0  0  0  0  0  0  0  0  0
    8.9952    2.4745   23.5512 H   0  0  0  0  0  0  0  0  0  0  0  0
    7.5825   -0.7129   25.0156 C   0  0  0  0  0  0  0  0  0  0  0  0
    8.5416   -0.8392   25.5418 H   0  0  0  0  0  0  0  0  0  0  0  0
    6.9447   -0.0851   25.6519 H   0  0  0  0  0  0  0  0  0  0  0  0
    6.9178   -2.0682   24.7850 C   0  0  0  0  0  0  0  0  0  0  0  0
    6.7331   -2.5917   25.7300 H   0  0  0  0  0  0  0  0  0  0  0  0
    5.9603   -1.9419   24.2689 H   0  0  0  0  0  0  0  0  0  0  0  0
    7.5527   -2.7031   24.1580 H   0  0  0  0  0  0  0  0  0  0  0  0
    9.6326   -1.6202   20.8514 C   0  0  0  0  0  0  0  0  0  0  0  0
    9.4833   -1.6837   19.7692 H   0  0  0  0  0  0  0  0  0  0  0  0
    9.3304   -2.5828   21.2795 H   0  0  0  0  0  0  0  0  0  0  0  0
   10.6973   -1.4752   21.0673 H   0  0  0  0  0  0  0  0  0  0  0  0
    9.3539    0.8934   20.8772 C   0  0  0  0  0  0  0  0  0  0  0  0
   10.3299    1.1085   21.3299 H   0  0  0  0  0  0  0  0  0  0  0  0
    8.6831    1.7448   21.0469 H   0  0  0  0  0  0  0  0  0  0  0  0
    9.5102    0.8242   19.7979 H   0  0  0  0  0  0  0  0  0  0  0  0
    5.4188    0.6635   20.1611 C   0  0  0  0  0  0  0  0  0  0  0  0
    4.9778    0.6371   21.1635 H   0  0  0  0  0  0  0  0  0  0  0  0
    4.8012    1.3189   19.1014 C   0  0  0  0  0  0  0  0  0  0  0  0
    3.8691    1.8484   19.2464 H   0  0  0  0  0  0  0  0  0  0  0  0
  1  2  1  0
  2  3  2  0
  3  4  1  0
  4  5  1  0
  4  6  2  0
  6  7  1  0
  7  8  2  0
  7  9  1  0
  9 10  1  0
 10 11  2  0
 10 12  1  0
 12 13  1  0
 13 14  1  0
 13 15  1  0
 13 16  1  0
 16 17  1  0
 16 18  1  0
 16 19  1  0
 12 20  1  0
 20 21  1  0
 20 22  1  0
 20 23  1  0
 23 24  1  0
 23 25  1  0
 23 26  1  0
  9 27  1  0
 27 28  1  0
 27 29  1  0
 27 30  1  0
  9 31  1  0
 31 32  1  0
 31 33  1  0
 31 34  1  0
  6 35  1  0
 35 36  1  0
 35 37  2  0
 37 38  1  0
 37  2  1  0
M  END
>  <cnnaffinity>  (1) 
-4.65695

>  <filename>  (1) 
[H]c1nc([H])c(C(=O)C(C(=O)N(C([H])([H])C([H])([H])[H])C([H])([H])C([H])([H])[H])(C([H])([H])[H])C([H])([H])[H])c([H])c1[H]

$$$$
