
     RDKit          3D

 39 42  0  0  0  0  0  0  0  0999 V2000
    9.6557    1.8617   22.8483 H   0  0  0  0  0  0  0  0  0  0  0  0
   10.7346    2.0133   22.8017 C   0  0  0  0  0  0  0  0  0  0  0  0
   11.4973    1.0447   22.2827 C   0  0  0  0  0  0  0  0  0  0  0  0
   12.5685    1.2179   22.1467 H   0  0  0  0  0  0  0  0  0  0  0  0
   10.9296   -0.2803   21.8096 C   0  0  1  0  0  0  0  0  0  0  0  0
   11.7603   -0.8653   21.4139 H   0  0  0  0  0  0  0  0  0  0  0  0
   10.2434   -1.1162   22.9536 C   0  0  0  0  0  0  0  0  0  0  0  0
   10.6626   -2.1264   23.0194 H   0  0  0  0  0  0  0  0  0  0  0  0
   10.3863   -0.6571   23.9355 H   0  0  0  0  0  0  0  0  0  0  0  0
    8.8025   -1.1475   22.5356 C   0  0  0  0  0  0  0  0  0  0  0  0
    7.6934   -1.6106   23.0786 N   0  0  0  0  0  0  0  0  0  0  0  0
    6.7420   -1.2717   22.1684 N   0  0  0  0  0  0  0  0  0  0  0  0
    5.7826   -1.5267   22.3739 H   0  0  0  0  0  0  0  0  0  0  0  0
    7.2328   -0.6219   21.0655 C   0  0  0  0  0  0  0  0  0  0  0  0
    6.4790   -0.0073   19.9480 C   0  0  0  0  0  0  0  0  0  0  0  0
    7.0621    0.0261   18.6620 C   0  0  0  0  0  0  0  0  0  0  0  0
    7.9995   -0.4977   18.4831 H   0  0  0  0  0  0  0  0  0  0  0  0
    6.5418    0.6455   17.5939 N   0  0  0  0  0  0  0  0  0  0  0  0
    5.3891    1.3088   17.7800 C   0  0  0  0  0  0  0  0  0  0  0  0
    4.9991    1.8429   16.9122 H   0  0  0  0  0  0  0  0  0  0  0  0
    4.7171    1.3361   19.0080 C   0  0  0  0  0  0  0  0  0  0  0  0
    3.7998    1.9083   19.0888 H   0  0  0  0  0  0  0  0  0  0  0  0
    5.2534    0.6671   20.1105 C   0  0  0  0  0  0  0  0  0  0  0  0
    4.7531    0.7037   21.0825 H   0  0  0  0  0  0  0  0  0  0  0  0
    8.5874   -0.5548   21.3032 C   0  0  0  0  0  0  0  0  0  0  0  0
    9.8529   -0.0792   20.6858 C   0  0  0  0  0  0  0  0  0  0  0  0
   10.1098   -0.6737   19.8097 H   0  0  0  0  0  0  0  0  0  0  0  0
    9.7862    0.9569   20.3390 H   0  0  0  0  0  0  0  0  0  0  0  0
   11.1915    3.3257   23.3085 C   0  0  0  0  0  0  0  0  0  0  0  0
   10.2574    4.3637   23.4849 C   0  0  0  0  0  0  0  0  0  0  0  0
    9.2120    4.1941   23.2337 H   0  0  0  0  0  0  0  0  0  0  0  0
   10.6558    5.6182   23.9538 C   0  0  0  0  0  0  0  0  0  0  0  0
    9.9231    6.4117   24.0759 H   0  0  0  0  0  0  0  0  0  0  0  0
   12.0007    5.8549   24.2635 C   0  0  0  0  0  0  0  0  0  0  0  0
   12.3154    6.8234   24.6431 H   0  0  0  0  0  0  0  0  0  0  0  0
   12.9387    4.8334   24.0888 C   0  0  0  0  0  0  0  0  0  0  0  0
   13.9844    5.0065   24.3269 H   0  0  0  0  0  0  0  0  0  0  0  0
   12.5387    3.5799   23.6165 C   0  0  0  0  0  0  0  0  0  0  0  0
   13.2758    2.7850   23.5132 H   0  0  0  0  0  0  0  0  0  0  0  0
  1  2  1  0
  2  3  2  3
  3  4  1  0
  3  5  1  0
  5  6  1  6
  5  7  1  0
  7  8  1  0
  7  9  1  0
  7 10  1  0
 10 11  2  0
 11 12  1  0
 12 13  1  0
 12 14  1  0
 14 15  1  0
 15 16  2  0
 16 17  1  0
 16 18  1  0
 18 19  2  0
 19 20  1  0
 19 21  1  0
 21 22  1  0
 21 23  2  0
 23 24  1  0
 14 25  2  0
 25 26  1  0
 26 27  1  0
 26 28  1  0
  2 29  1  0
 29 30  2  0
 30 31  1  0
 30 32  1  0
 32 33  1  0
 32 34  2  0
 34 35  1  0
 34 36  1  0
 36 37  1  0
 36 38  2  0
 38 39  1  0
 26  5  1  0
 38 29  1  0
 25 10  1  0
 23 15  1  0
M  END
>  <cnnaffinity>  (1) 
-5.96705

>  <filename>  (1) 
[H]C(=C([H])[C@@]1([H])C([H])([H])c2nn([H])c(-c3c([H])nc([H])c([H])c3[H])c2C1([H])[H])c1c([H])c([H])c([H])c([H])c1[H]

$$$$
