
     RDKit          3D

 36 39  0  0  0  0  0  0  0  0999 V2000
   10.0919    4.0708   22.6917 H   0  0  0  0  0  0  0  0  0  0  0  0
    9.9521    3.0947   22.2391 C   0  0  0  0  0  0  0  0  0  0  0  0
    8.8034    2.3909   22.5083 N   0  0  0  0  0  0  0  0  0  0  0  0
    8.8643    1.2225   21.9435 C   0  0  0  0  0  0  0  0  0  0  0  0
    7.8625    0.3408   22.1726 N   0  0  0  0  0  0  0  0  0  0  0  0
    7.1133    0.9199   22.5339 H   0  0  0  0  0  0  0  0  0  0  0  0
    7.3818   -0.6939   21.2534 C   0  0  1  0  0  0  0  0  0  0  0  0
    6.6995    0.0264   20.0800 C   0  0  0  0  0  0  0  0  0  0  0  0
    7.2840    0.0793   18.8025 C   0  0  0  0  0  0  0  0  0  0  0  0
    8.2625   -0.3616   18.6188 H   0  0  0  0  0  0  0  0  0  0  0  0
    6.7350    0.6549   17.7249 N   0  0  0  0  0  0  0  0  0  0  0  0
    5.5512    1.2582   17.8853 C   0  0  0  0  0  0  0  0  0  0  0  0
    5.1063    1.6967   16.9931 H   0  0  0  0  0  0  0  0  0  0  0  0
    4.8959    1.3277   19.1181 C   0  0  0  0  0  0  0  0  0  0  0  0
    3.9540    1.8610   19.1914 H   0  0  0  0  0  0  0  0  0  0  0  0
    5.4834    0.7260   20.2338 C   0  0  0  0  0  0  0  0  0  0  0  0
    4.9954    0.8089   21.2069 H   0  0  0  0  0  0  0  0  0  0  0  0
    8.4550   -1.7680   20.8566 C   0  0  0  0  0  0  0  0  0  0  0  0
    9.4027   -1.4943   21.3219 H   0  0  0  0  0  0  0  0  0  0  0  0
    8.6390   -1.7970   19.7867 H   0  0  0  0  0  0  0  0  0  0  0  0
    7.9780   -3.1078   21.4959 C   0  0  2  0  0  0  0  0  0  0  0  0
    8.7717   -3.8593   21.5454 H   0  0  0  0  0  0  0  0  0  0  0  0
    6.6459   -3.6559   20.9280 C   0  0  0  0  0  0  0  0  0  0  0  0
    6.3732   -4.5605   21.4908 H   0  0  0  0  0  0  0  0  0  0  0  0
    6.6452   -3.9357   19.8700 H   0  0  0  0  0  0  0  0  0  0  0  0
    5.6405   -2.5193   21.2531 C   0  0  0  0  0  0  0  0  0  0  0  0
    5.3629   -2.0026   20.3265 H   0  0  0  0  0  0  0  0  0  0  0  0
    4.7232   -2.8781   21.7262 H   0  0  0  0  0  0  0  0  0  0  0  0
    6.4789   -1.5903   22.1599 C   0  0  1  0  0  0  0  0  0  0  0  0
    5.9966   -0.9579   22.8980 H   0  0  0  0  0  0  0  0  0  0  0  0
    7.4737   -2.5579   22.8351 C   0  0  0  0  0  0  0  0  0  0  0  0
    6.9997   -3.3060   23.4856 H   0  0  0  0  0  0  0  0  0  0  0  0
    8.2463   -2.0384   23.4155 H   0  0  0  0  0  0  0  0  0  0  0  0
   10.2997    0.9180   21.0220 S   0  0  0  0  0  0  0  0  0  0  0  0
   10.8704    2.4932   21.4474 C   0  0  0  0  0  0  0  0  0  0  0  0
   11.7960    2.8939   21.0585 H   0  0  0  0  0  0  0  0  0  0  0  0
  1  2  1  0
  2  3  1  0
  3  4  2  0
  4  5  1  0
  5  6  1  0
  7  5  1  1
  7  8  1  0
  8  9  2  0
  9 10  1  0
  9 11  1  0
 11 12  2  0
 12 13  1  0
 12 14  1  0
 14 15  1  0
 14 16  2  0
 16 17  1  0
  7 18  1  0
 18 19  1  0
 18 20  1  0
 18 21  1  0
 21 22  1  1
 21 23  1  0
 23 24  1  0
 23 25  1  0
 23 26  1  0
 26 27  1  0
 26 28  1  0
 26 29  1  0
 29 30  1  1
 29 31  1  0
 31 32  1  0
 31 33  1  0
  4 34  1  0
 34 35  1  0
 35 36  1  0
 35  2  2  0
 29  7  1  0
 16  8  1  0
 31 21  1  0
M  END
>  <cnnaffinity>  (1) 
-4.83106

>  <filename>  (1) 
[H]c1nc(N([H])[C@@]2(c3c([H])nc([H])c([H])c3[H])C([H])([H])[C@]3([H])C([H])([H])C([H])([H])[C@@]2([H])C3([H])[H])sc1[H]

$$$$
