
     RDKit          3D

 31 33  0  0  0  0  0  0  0  0999 V2000
    4.9282    1.7800   17.0017 H   0  0  0  0  0  0  0  0  0  0  0  0
    5.4094    1.2844   17.8458 C   0  0  0  0  0  0  0  0  0  0  0  0
    6.5716    0.6631   17.5974 N   0  0  0  0  0  0  0  0  0  0  0  0
    7.1783    0.0414   18.6180 C   0  0  0  0  0  0  0  0  0  0  0  0
    8.1236   -0.4309   18.3709 H   0  0  0  0  0  0  0  0  0  0  0  0
    6.6770   -0.0092   19.9457 C   0  0  0  0  0  0  0  0  0  0  0  0
    7.3496   -0.6901   20.9951 N   0  0  0  0  0  0  0  0  0  0  0  0
    7.3820   -0.2873   22.3325 C   0  0  0  0  0  0  0  0  0  0  0  0
    6.9444    0.7463   22.7907 O   0  0  0  0  0  0  0  0  0  0  0  0
    8.0354   -1.2998   23.0373 N   0  0  0  0  0  0  0  0  0  0  0  0
    8.5151   -1.1278   24.3624 C   0  0  0  0  0  0  0  0  0  0  0  0
    9.3150   -0.0121   24.6658 C   0  0  0  0  0  0  0  0  0  0  0  0
    9.4988    0.7044   23.8739 H   0  0  0  0  0  0  0  0  0  0  0  0
    9.8454    0.1792   25.9440 C   0  0  0  0  0  0  0  0  0  0  0  0
   10.4495    1.0557   26.1542 H   0  0  0  0  0  0  0  0  0  0  0  0
    9.5837   -0.7412   26.9610 C   0  0  0  0  0  0  0  0  0  0  0  0
    9.9877   -0.5860   27.9619 H   0  0  0  0  0  0  0  0  0  0  0  0
    8.7941   -1.8573   26.6858 C   0  0  0  0  0  0  0  0  0  0  0  0
    8.5782   -2.5880   27.4599 H   0  0  0  0  0  0  0  0  0  0  0  0
    8.2629   -2.0503   25.4026 C   0  0  0  0  0  0  0  0  0  0  0  0
    7.2645   -3.4551   25.1663 Cl  0  0  0  0  0  0  0  0  0  0  0  0
    8.4865   -2.3913   22.1813 C   0  0  0  0  0  0  0  0  0  0  0  0
    9.5751   -2.5059   22.2449 H   0  0  0  0  0  0  0  0  0  0  0  0
    8.0450   -3.3543   22.4631 H   0  0  0  0  0  0  0  0  0  0  0  0
    8.0520   -1.9446   20.7827 C   0  0  0  0  0  0  0  0  0  0  0  0
    8.9111   -1.8155   20.1107 H   0  0  0  0  0  0  0  0  0  0  0  0
    7.3667   -2.6629   20.3273 H   0  0  0  0  0  0  0  0  0  0  0  0
    5.4561    0.6413   20.1863 C   0  0  0  0  0  0  0  0  0  0  0  0
    5.0313    0.6382   21.1882 H   0  0  0  0  0  0  0  0  0  0  0  0
    4.8246    1.2917   19.1175 C   0  0  0  0  0  0  0  0  0  0  0  0
    3.8939    1.8260   19.2662 H   0  0  0  0  0  0  0  0  0  0  0  0
  1  2  1  0
  2  3  2  0
  3  4  1  0
  4  5  1  0
  4  6  2  0
  6  7  1  0
  7  8  1  0
  8  9  2  0
  8 10  1  0
 10 11  1  0
 11 12  2  0
 12 13  1  0
 12 14  1  0
 14 15  1  0
 14 16  2  0
 16 17  1  0
 16 18  1  0
 18 19  1  0
 18 20  2  0
 20 21  1  0
 10 22  1  0
 22 23  1  0
 22 24  1  0
 22 25  1  0
 25 26  1  0
 25 27  1  0
  6 28  1  0
 28 29  1  0
 28 30  2  0
 30 31  1  0
 30  2  1  0
 25  7  1  0
 20 11  1  0
M  END
>  <cnnaffinity>  (1) 
-5.14427

>  <filename>  (1) 
[H]c1nc([H])c(N2C(=O)N(c3c([H])c([H])c([H])c([H])c3Cl)C([H])([H])C2([H])[H])c([H])c1[H]

$$$$
