
     RDKit          3D

 40 42  0  0  0  0  0  0  0  0999 V2000
    7.1952    1.7616   22.0868 H   0  0  0  0  0  0  0  0  0  0  0  0
    7.3751    0.9464   22.7914 C   0  0  0  0  0  0  0  0  0  0  0  0
    7.5546   -0.3066   22.3353 C   0  0  0  0  0  0  0  0  0  0  0  0
    7.3723   -0.7649   20.9461 C   0  0  0  0  0  0  0  0  0  0  0  0
    6.6283    0.0002   19.9150 C   0  0  0  0  0  0  0  0  0  0  0  0
    7.1489    0.0166   18.6135 C   0  0  0  0  0  0  0  0  0  0  0  0
    8.0831   -0.4980   18.3922 H   0  0  0  0  0  0  0  0  0  0  0  0
    6.5746    0.6552   17.5915 N   0  0  0  0  0  0  0  0  0  0  0  0
    5.4211    1.2995   17.8304 C   0  0  0  0  0  0  0  0  0  0  0  0
    4.9714    1.8214   16.9871 H   0  0  0  0  0  0  0  0  0  0  0  0
    4.7936    1.3172   19.0811 C   0  0  0  0  0  0  0  0  0  0  0  0
    3.8571    1.8532   19.2094 H   0  0  0  0  0  0  0  0  0  0  0  0
    5.4167    0.6706   20.1487 C   0  0  0  0  0  0  0  0  0  0  0  0
    4.9821    0.6984   21.1501 H   0  0  0  0  0  0  0  0  0  0  0  0
    7.9395   -1.8850   20.6909 N   0  0  0  0  0  0  0  0  0  0  0  0
    8.5464   -2.4195   21.9102 C   0  0  0  0  0  0  0  0  0  0  0  0
    9.6241   -2.5114   21.7513 H   0  0  0  0  0  0  0  0  0  0  0  0
    8.1589   -3.4266   22.0785 H   0  0  0  0  0  0  0  0  0  0  0  0
    8.2071   -1.4558   23.0736 C   0  0  0  0  0  0  0  0  0  0  0  0
    9.0856   -1.1262   23.6413 H   0  0  0  0  0  0  0  0  0  0  0  0
    7.4978   -1.9231   23.7652 H   0  0  0  0  0  0  0  0  0  0  0  0
    7.5286    1.3467   24.2000 C   0  0  0  0  0  0  0  0  0  0  0  0
    7.0124    0.5800   25.2483 C   0  0  0  0  0  0  0  0  0  0  0  0
    6.4435   -0.3138   25.0039 H   0  0  0  0  0  0  0  0  0  0  0  0
    7.1792    0.9581   26.5793 C   0  0  0  0  0  0  0  0  0  0  0  0
    6.8083    0.3404   27.3880 H   0  0  0  0  0  0  0  0  0  0  0  0
    7.8598    2.1474   26.8702 C   0  0  0  0  0  0  0  0  0  0  0  0
    7.9791    2.6814   28.1088 O   0  0  0  0  0  0  0  0  0  0  0  0
    7.7210    1.8757   29.2421 C   0  0  0  0  0  0  0  0  0  0  0  0
    6.6458    1.7145   29.3826 H   0  0  0  0  0  0  0  0  0  0  0  0
    8.1057    2.4134   30.1135 H   0  0  0  0  0  0  0  0  0  0  0  0
    8.2204    0.9040   29.1519 H   0  0  0  0  0  0  0  0  0  0  0  0
    8.4411    2.9118   25.8461 C   0  0  0  0  0  0  0  0  0  0  0  0
    9.0364    3.7729   26.1283 H   0  0  0  0  0  0  0  0  0  0  0  0
    8.2452    2.5353   24.5225 C   0  0  0  0  0  0  0  0  0  0  0  0
    8.6984    3.2401   23.4594 O   0  0  0  0  0  0  0  0  0  0  0  0
    9.4904    4.3932   23.6302 C   0  0  0  0  0  0  0  0  0  0  0  0
    8.9482    5.1878   24.1543 H   0  0  0  0  0  0  0  0  0  0  0  0
   10.4193    4.1780   24.1701 H   0  0  0  0  0  0  0  0  0  0  0  0
    9.7294    4.7263   22.6189 H   0  0  0  0  0  0  0  0  0  0  0  0
  1  2  1  0
  2  3  2  3
  3  4  1  0
  4  5  1  0
  5  6  2  0
  6  7  1  0
  6  8  1  0
  8  9  2  0
  9 10  1  0
  9 11  1  0
 11 12  1  0
 11 13  2  0
 13 14  1  0
  4 15  2  0
 15 16  1  0
 16 17  1  0
 16 18  1  0
 16 19  1  0
 19 20  1  0
 19 21  1  0
  2 22  1  0
 22 23  2  0
 23 24  1  0
 23 25  1  0
 25 26  1  0
 25 27  2  0
 27 28  1  0
 28 29  1  0
 29 30  1  0
 29 31  1  0
 29 32  1  0
 27 33  1  0
 33 34  1  0
 33 35  2  0
 35 36  1  0
 36 37  1  0
 37 38  1  0
 37 39  1  0
 37 40  1  0
 19  3  1  0
 35 22  1  0
 13  5  1  0
M  END
>  <cnnaffinity>  (1) 
-5.18102

>  <filename>  (1) 
[H]C(=C1C(c2c([H])nc([H])c([H])c2[H])=NC([H])([H])C1([H])[H])c1c([H])c([H])c(OC([H])([H])[H])c([H])c1OC([H])([H])[H]

$$$$
