
     RDKit          3D

 34 37  0  0  0  0  0  0  0  0999 V2000
    6.6621   -1.2979   21.6532 H   0  0  0  0  0  0  0  0  0  0  0  0
    7.2805   -0.6542   21.0268 C   0  0  0  0  0  0  0  0  0  0  0  0
    8.5693   -0.4452   21.3599 C   0  0  0  0  0  0  0  0  0  0  0  0
    9.3858   -1.1245   22.3737 C   0  0  0  0  0  0  0  0  0  0  0  0
    8.9292   -2.3438   23.0908 C   0  0  0  0  0  0  0  0  0  0  0  0
    7.9042   -3.0657   22.7815 N   0  0  0  0  0  0  0  0  0  0  0  0
    7.7259   -4.0720   23.7034 C   0  0  0  0  0  0  0  0  0  0  0  0
    6.6399   -4.9544   23.6752 C   0  0  0  0  0  0  0  0  0  0  0  0
    5.9459   -4.8380   22.8508 H   0  0  0  0  0  0  0  0  0  0  0  0
    6.4950   -5.8679   24.7083 C   0  0  0  0  0  0  0  0  0  0  0  0
    5.6328   -6.5278   24.7237 H   0  0  0  0  0  0  0  0  0  0  0  0
    7.4569   -5.9402   25.7426 C   0  0  0  0  0  0  0  0  0  0  0  0
    7.3076   -6.6575   26.5419 H   0  0  0  0  0  0  0  0  0  0  0  0
    8.5727   -5.0985   25.7535 C   0  0  0  0  0  0  0  0  0  0  0  0
    9.3412   -5.1866   26.5190 H   0  0  0  0  0  0  0  0  0  0  0  0
    8.6865   -4.1343   24.7391 C   0  0  0  0  0  0  0  0  0  0  0  0
    9.8385   -2.8490   24.5069 S   0  0  0  0  0  0  0  0  0  0  0  0
   10.5299   -0.5837   22.6050 N   0  0  0  0  0  0  0  0  0  0  0  0
   10.6867    0.5824   21.7353 C   0  0  0  0  0  0  0  0  0  0  0  0
   10.7612    1.4791   22.3615 H   0  0  0  0  0  0  0  0  0  0  0  0
   11.6209    0.4929   21.1750 H   0  0  0  0  0  0  0  0  0  0  0  0
    9.4557    0.6371   20.7994 C   0  0  0  0  0  0  0  0  0  0  0  0
    9.6976    0.3712   19.7721 H   0  0  0  0  0  0  0  0  0  0  0  0
    8.9684    1.6134   20.7704 H   0  0  0  0  0  0  0  0  0  0  0  0
    6.5820   -0.0117   19.8972 C   0  0  0  0  0  0  0  0  0  0  0  0
    7.1173    0.0316   18.5946 C   0  0  0  0  0  0  0  0  0  0  0  0
    8.0416   -0.5040   18.3866 H   0  0  0  0  0  0  0  0  0  0  0  0
    6.5563    0.6765   17.5619 N   0  0  0  0  0  0  0  0  0  0  0  0
    5.4053    1.3235   17.7964 C   0  0  0  0  0  0  0  0  0  0  0  0
    4.9791    1.8740   16.9570 H   0  0  0  0  0  0  0  0  0  0  0  0
    4.7542    1.3067   19.0360 C   0  0  0  0  0  0  0  0  0  0  0  0
    3.8256    1.8519   19.1593 H   0  0  0  0  0  0  0  0  0  0  0  0
    5.3391    0.6131   20.0955 C   0  0  0  0  0  0  0  0  0  0  0  0
    4.8640    0.5825   21.0777 H   0  0  0  0  0  0  0  0  0  0  0  0
  1  2  1  0
  2  3  2  3
  3  4  1  0
  4  5  1  0
  5  6  2  0
  6  7  1  0
  7  8  2  0
  8  9  1  0
  8 10  1  0
 10 11  1  0
 10 12  2  0
 12 13  1  0
 12 14  1  0
 14 15  1  0
 14 16  2  0
 16 17  1  0
  4 18  2  0
 18 19  1  0
 19 20  1  0
 19 21  1  0
 19 22  1  0
 22 23  1  0
 22 24  1  0
  2 25  1  0
 25 26  2  0
 26 27  1  0
 26 28  1  0
 28 29  2  0
 29 30  1  0
 29 31  1  0
 31 32  1  0
 31 33  2  0
 33 34  1  0
 22  3  1  0
 33 25  1  0
 17  5  1  0
 16  7  1  0
M  END
>  <cnnaffinity>  (1) 
-5.71253

>  <filename>  (1) 
[H]C(=C1C(c2nc3c([H])c([H])c([H])c([H])c3s2)=NC([H])([H])C1([H])[H])c1c([H])nc([H])c([H])c1[H]

$$$$
