
     RDKit          3D

 31 32  0  0  0  0  0  0  0  0999 V2000
    4.5794   -5.0669   23.7584 H   0  0  0  0  0  0  0  0  0  0  0  0
    5.4319   -4.5161   24.1598 C   0  0  0  0  0  0  0  0  0  0  0  0
    5.8108   -3.4475   23.4789 N   0  0  0  0  0  0  0  0  0  0  0  0
    6.8660   -2.7798   23.9765 C   0  0  0  0  0  0  0  0  0  0  0  0
    7.3061   -1.6500   23.3041 N   0  0  0  0  0  0  0  0  0  0  0  0
    6.7539   -1.2034   22.0719 N   0  0  0  0  0  0  0  0  0  0  0  0
    5.7541   -1.3353   21.9639 H   0  0  0  0  0  0  0  0  0  0  0  0
    7.4474   -0.7500   20.9676 C   0  0  0  0  0  0  0  0  0  0  0  0
    8.6540   -0.8670   20.8225 O   0  0  0  0  0  0  0  0  0  0  0  0
    6.6007   -0.0618   19.9428 C   0  0  0  0  0  0  0  0  0  0  0  0
    7.1541    0.0132   18.6563 C   0  0  0  0  0  0  0  0  0  0  0  0
    8.1190   -0.4395   18.4435 H   0  0  0  0  0  0  0  0  0  0  0  0
    6.5717    0.6438   17.6328 N   0  0  0  0  0  0  0  0  0  0  0  0
    5.4110    1.2713   17.8671 C   0  0  0  0  0  0  0  0  0  0  0  0
    4.9654    1.7759   17.0122 H   0  0  0  0  0  0  0  0  0  0  0  0
    4.7926    1.2925   19.1210 C   0  0  0  0  0  0  0  0  0  0  0  0
    3.8716    1.8512   19.2462 H   0  0  0  0  0  0  0  0  0  0  0  0
    5.3928    0.6160   20.1837 C   0  0  0  0  0  0  0  0  0  0  0  0
    4.9456    0.6765   21.1788 H   0  0  0  0  0  0  0  0  0  0  0  0
    8.4487   -0.8884   23.8072 C   0  0  0  0  0  0  0  0  0  0  0  0
    8.3764   -0.7718   24.8954 H   0  0  0  0  0  0  0  0  0  0  0  0
    9.3978   -1.3757   23.5448 H   0  0  0  0  0  0  0  0  0  0  0  0
    8.4186    0.0946   23.3266 H   0  0  0  0  0  0  0  0  0  0  0  0
    7.5376   -3.1058   25.0942 N   0  0  0  0  0  0  0  0  0  0  0  0
    7.1433   -4.1849   25.7699 C   0  0  0  0  0  0  0  0  0  0  0  0
    7.8893   -4.6197   27.0804 C   0  0  0  0  0  0  0  0  0  0  0  0
    7.0382   -4.6553   28.1277 F   0  0  0  0  0  0  0  0  0  0  0  0
    8.3838   -5.8687   26.9586 F   0  0  0  0  0  0  0  0  0  0  0  0
    8.9033   -3.8245   27.4204 F   0  0  0  0  0  0  0  0  0  0  0  0
    6.0604   -4.9441   25.3258 C   0  0  0  0  0  0  0  0  0  0  0  0
    5.7224   -5.8194   25.8595 H   0  0  0  0  0  0  0  0  0  0  0  0
  1  2  1  0
  2  3  2  0
  3  4  1  0
  4  5  1  0
  5  6  1  0
  6  7  1  0
  6  8  1  0
  8  9  2  0
  8 10  1  0
 10 11  2  0
 11 12  1  0
 11 13  1  0
 13 14  2  0
 14 15  1  0
 14 16  1  0
 16 17  1  0
 16 18  2  0
 18 19  1  0
  5 20  1  0
 20 21  1  0
 20 22  1  0
 20 23  1  0
  4 24  2  0
 24 25  1  0
 25 26  1  0
 26 27  1  0
 26 28  1  0
 26 29  1  0
 25 30  2  0
 30 31  1  0
 30  2  1  0
 18 10  1  0
M  END
>  <cnnaffinity>  (1) 
-4.94853

>  <filename>  (1) 
[H]c1nc(N(N([H])C(=O)c2c([H])nc([H])c([H])c2[H])C([H])([H])[H])nc(C(F)(F)F)c1[H]

$$$$
