
     RDKit          3D

 45 47  0  0  0  0  0  0  0  0999 V2000
    3.9314   -7.3799   26.2113 C   0  0  0  0  0  0  0  0  0  0  0  0
    4.4344   -6.4988   25.1122 C   0  0  0  0  0  0  0  0  0  0  0  0
    4.7330   -5.2307   25.3439 N   0  0  0  0  0  0  0  0  0  0  0  0
    5.1786   -4.7465   24.1691 N   0  0  0  0  0  0  0  0  0  0  0  0
    5.7165   -3.3997   24.1238 C   0  0  0  0  0  0  0  0  0  0  0  0
    7.2076   -3.3195   24.4807 C   0  0  0  0  0  0  0  0  0  0  0  0
    7.7650   -1.8930   24.3082 C   0  0  0  0  0  0  0  0  0  0  0  0
    7.7753   -1.4229   22.8873 C   0  0  0  0  0  0  0  0  0  0  0  0
    6.8586   -0.7167   22.2580 N   0  0  0  0  0  0  0  0  0  0  0  0
    7.3199   -0.6693   20.9803 C   0  0  0  0  0  0  0  0  0  0  0  0
    6.6288    0.0156   19.9032 C   0  0  0  0  0  0  0  0  0  0  0  0
    5.4158    0.6655   20.1403 C   0  0  0  0  0  0  0  0  0  0  0  0
    4.8026    1.3114   19.0772 C   0  0  0  0  0  0  0  0  0  0  0  0
    5.4269    1.2839   17.8242 C   0  0  0  0  0  0  0  0  0  0  0  0
    6.5895    0.6532   17.5858 N   0  0  0  0  0  0  0  0  0  0  0  0
    7.1821    0.0370   18.6121 C   0  0  0  0  0  0  0  0  0  0  0  0
    8.1341   -0.4510   18.3910 H   0  0  0  0  0  0  0  0  0  0  0  0
    4.9668    1.7921   16.9813 H   0  0  0  0  0  0  0  0  0  0  0  0
    3.8693    1.8440   19.2214 H   0  0  0  0  0  0  0  0  0  0  0  0
    5.0019    0.6535   21.1516 H   0  0  0  0  0  0  0  0  0  0  0  0
    8.4563   -1.2978   20.7870 N   0  0  0  0  0  0  0  0  0  0  0  0
    8.7424   -1.7939   22.0073 N   0  0  0  0  0  0  0  0  0  0  0  0
   10.0111   -2.4637   22.1389 C   0  0  0  0  0  0  0  0  0  0  0  0
   11.2241   -1.5734   22.3521 C   0  0  0  0  0  0  0  0  0  0  0  0
   12.2995   -2.3787   22.4366 F   0  0  0  0  0  0  0  0  0  0  0  0
   11.1317   -0.8672   23.4976 F   0  0  0  0  0  0  0  0  0  0  0  0
   11.4509   -0.7194   21.3516 F   0  0  0  0  0  0  0  0  0  0  0  0
   10.1646   -2.9566   21.1881 H   0  0  0  0  0  0  0  0  0  0  0  0
    9.9980   -3.2121   22.9276 H   0  0  0  0  0  0  0  0  0  0  0  0
    7.1714   -1.1853   24.8957 H   0  0  0  0  0  0  0  0  0  0  0  0
    8.7919   -1.8257   24.6871 H   0  0  0  0  0  0  0  0  0  0  0  0
    7.3524   -3.6616   25.5108 H   0  0  0  0  0  0  0  0  0  0  0  0
    7.7781   -4.0101   23.8469 H   0  0  0  0  0  0  0  0  0  0  0  0
    5.1255   -2.8005   24.8201 H   0  0  0  0  0  0  0  0  0  0  0  0
    5.5483   -2.9917   23.1245 H   0  0  0  0  0  0  0  0  0  0  0  0
    5.1731   -5.6885   23.1853 C   0  0  0  0  0  0  0  0  0  0  0  0
    5.6159   -5.4275   21.7768 C   0  0  0  0  0  0  0  0  0  0  0  0
    5.5812   -6.3521   21.1956 H   0  0  0  0  0  0  0  0  0  0  0  0
    4.9818   -4.6911   21.2699 H   0  0  0  0  0  0  0  0  0  0  0  0
    6.6451   -5.0473   21.7363 H   0  0  0  0  0  0  0  0  0  0  0  0
    4.6891   -6.8390   23.7695 C   0  0  0  0  0  0  0  0  0  0  0  0
    4.5423   -7.7991   23.2946 H   0  0  0  0  0  0  0  0  0  0  0  0
    4.7594   -7.8384   26.7625 H   0  0  0  0  0  0  0  0  0  0  0  0
    3.3383   -6.8064   26.9261 H   0  0  0  0  0  0  0  0  0  0  0  0
    3.3112   -8.1884   25.8194 H   0  0  0  0  0  0  0  0  0  0  0  0
  1  2  1  0
  2  3  2  0
  3  4  1  0
  4  5  1  0
  5  6  1  0
  6  7  1  0
  7  8  1  0
  8  9  2  0
  9 10  1  0
 10 11  1  0
 11 12  2  0
 12 13  1  0
 13 14  2  0
 14 15  1  0
 15 16  2  0
 16 17  1  0
 14 18  1  0
 13 19  1  0
 12 20  1  0
 10 21  2  0
 21 22  1  0
 22 23  1  0
 23 24  1  0
 24 25  1  0
 24 26  1  0
 24 27  1  0
 23 28  1  0
 23 29  1  0
  7 30  1  0
  7 31  1  0
  6 32  1  0
  6 33  1  0
  5 34  1  0
  5 35  1  0
  4 36  1  0
 36 37  1  0
 37 38  1  0
 37 39  1  0
 37 40  1  0
 36 41  2  0
 41 42  1  0
  1 43  1  0
  1 44  1  0
  1 45  1  0
 41  2  1  0
 22  8  1  0
 16 11  1  0
M  END
>  <cnnaffinity>  (1) 
-6.41639

>  <filename>  (1) 
[H]c1nc([H])c(-c2nc(C([H])([H])C([H])([H])C([H])([H])n3nc(C([H])([H])[H])c([H])c3C([H])([H])[H])n(C([H])([H])C(F)(F)F)n2)c([H])c1[H]

$$$$
