
     RDKit          3D

 30 33  0  0  0  0  0  0  0  0999 V2000
    4.9613    1.8329   16.9794 H   0  0  0  0  0  0  0  0  0  0  0  0
    5.4030    1.2883   17.8068 C   0  0  0  0  0  0  0  0  0  0  0  0
    6.5718    0.6777   17.5552 N   0  0  0  0  0  0  0  0  0  0  0  0
    7.1757    0.0407   18.5639 C   0  0  0  0  0  0  0  0  0  0  0  0
    8.1461   -0.4059   18.3399 H   0  0  0  0  0  0  0  0  0  0  0  0
    6.6245   -0.0427   19.8612 C   0  0  0  0  0  0  0  0  0  0  0  0
    7.2868   -0.7413   20.9318 N   0  0  0  0  0  0  0  0  0  0  0  0
    7.5577   -2.0843   21.0117 C   0  0  0  0  0  0  0  0  0  0  0  0
    7.2404   -2.7912   20.2632 H   0  0  0  0  0  0  0  0  0  0  0  0
    8.1507   -2.3866   22.1302 N   0  0  0  0  0  0  0  0  0  0  0  0
    8.2557   -1.2370   22.8566 N   0  0  0  0  0  0  0  0  0  0  0  0
    7.7312   -0.2602   22.1560 C   0  0  0  0  0  0  0  0  0  0  0  0
    7.5926    1.1097   22.6861 C   0  0  0  0  0  0  0  0  0  0  0  0
    7.3524    2.1970   22.0009 N   0  0  0  0  0  0  0  0  0  0  0  0
    7.3244    3.2100   22.9318 C   0  0  0  0  0  0  0  0  0  0  0  0
    7.0957    4.5773   22.7072 C   0  0  0  0  0  0  0  0  0  0  0  0
    6.8968    4.9067   21.6929 H   0  0  0  0  0  0  0  0  0  0  0  0
    7.1287    5.4436   23.7905 C   0  0  0  0  0  0  0  0  0  0  0  0
    6.9575    6.5078   23.6403 H   0  0  0  0  0  0  0  0  0  0  0  0
    7.3820    4.9443   25.0942 C   0  0  0  0  0  0  0  0  0  0  0  0
    7.4045    5.6437   25.9240 H   0  0  0  0  0  0  0  0  0  0  0  0
    7.5966    3.5838   25.3320 C   0  0  0  0  0  0  0  0  0  0  0  0
    7.7861    3.2229   26.3398 H   0  0  0  0  0  0  0  0  0  0  0  0
    7.5609    2.7115   24.2300 C   0  0  0  0  0  0  0  0  0  0  0  0
    7.7207    1.3531   24.0317 N   0  0  0  0  0  0  0  0  0  0  0  0
    7.9589    0.6271   24.6910 H   0  0  0  0  0  0  0  0  0  0  0  0
    5.3916    0.5759   20.0992 C   0  0  0  0  0  0  0  0  0  0  0  0
    4.9713    0.5889   21.1054 H   0  0  0  0  0  0  0  0  0  0  0  0
    4.7747    1.2624   19.0531 C   0  0  0  0  0  0  0  0  0  0  0  0
    3.8503    1.8076   19.2137 H   0  0  0  0  0  0  0  0  0  0  0  0
  1  2  1  0
  2  3  2  0
  3  4  1  0
  4  5  1  0
  4  6  2  0
  6  7  1  0
  7  8  1  0
  8  9  1  0
  8 10  2  0
 10 11  1  0
 11 12  2  0
 12 13  1  0
 13 14  2  0
 14 15  1  0
 15 16  2  0
 16 17  1  0
 16 18  1  0
 18 19  1  0
 18 20  2  0
 20 21  1  0
 20 22  1  0
 22 23  1  0
 22 24  2  0
 24 25  1  0
 25 26  1  0
  6 27  1  0
 27 28  1  0
 27 29  2  0
 29 30  1  0
 29  2  1  0
 12  7  1  0
 25 13  1  0
 24 15  1  0
M  END
>  <cnnaffinity>  (1) 
-5.1107

>  <filename>  (1) 
[H]c1nc([H])c(-n2c([H])nnc2-c2nc3c([H])c([H])c([H])c([H])c3n2[H])c([H])c1[H]

$$$$
