
     RDKit          3D

 36 38  0  0  0  0  0  0  0  0999 V2000
    5.0455    1.9032   16.4935 H   0  0  0  0  0  0  0  0  0  0  0  0
    5.4180    1.4843   17.4258 C   0  0  0  0  0  0  0  0  0  0  0  0
    6.5814    0.8151   17.3485 N   0  0  0  0  0  0  0  0  0  0  0  0
    7.0374    0.2621   18.4776 C   0  0  0  0  0  0  0  0  0  0  0  0
    8.0112   -0.2227   18.4063 H   0  0  0  0  0  0  0  0  0  0  0  0
    6.3635    0.3135   19.7124 C   0  0  0  0  0  0  0  0  0  0  0  0
    6.8632   -0.4554   20.8644 C   0  0  0  0  0  0  0  0  0  0  0  0
    7.0915    0.0625   22.1105 C   0  0  0  0  0  0  0  0  0  0  0  0
    6.9570    1.1204   22.2785 H   0  0  0  0  0  0  0  0  0  0  0  0
    7.5228   -0.7890   23.1571 C   0  0  0  0  0  0  0  0  0  0  0  0
    7.6552   -0.3799   24.1603 H   0  0  0  0  0  0  0  0  0  0  0  0
    7.7636   -2.1347   22.9552 C   0  0  0  0  0  0  0  0  0  0  0  0
    8.4213   -2.9865   24.0112 C   0  0  0  0  0  0  0  0  0  0  0  0
    8.4786   -2.4040   24.9482 H   0  0  0  0  0  0  0  0  0  0  0  0
    7.6635   -4.3038   24.3335 C   0  0  0  0  0  0  0  0  0  0  0  0
    6.8516   -4.0640   25.0304 H   0  0  0  0  0  0  0  0  0  0  0  0
    7.2134   -4.6919   23.4156 H   0  0  0  0  0  0  0  0  0  0  0  0
    8.5636   -5.4326   24.9067 C   0  0  0  0  0  0  0  0  0  0  0  0
    8.0109   -5.9940   25.6708 H   0  0  0  0  0  0  0  0  0  0  0  0
    8.7952   -6.1486   24.0957 H   0  0  0  0  0  0  0  0  0  0  0  0
    9.7753   -4.9102   25.5264 N   0  0  0  0  0  0  0  0  0  0  0  0
   10.3234   -5.6895   25.8850 H   0  0  0  0  0  0  0  0  0  0  0  0
   10.6252   -4.0914   24.6574 C   0  0  0  0  0  0  0  0  0  0  0  0
   11.4245   -4.6702   24.1756 H   0  0  0  0  0  0  0  0  0  0  0  0
   11.1323   -3.3644   25.2869 H   0  0  0  0  0  0  0  0  0  0  0  0
    9.8542   -3.3257   23.5757 C   0  0  0  0  0  0  0  0  0  0  0  0
   10.4049   -2.4181   23.3031 H   0  0  0  0  0  0  0  0  0  0  0  0
    9.7771   -3.9108   22.6601 H   0  0  0  0  0  0  0  0  0  0  0  0
    7.4992   -2.7044   21.6253 C   0  0  0  0  0  0  0  0  0  0  0  0
    7.6055   -3.8693   21.2664 O   0  0  0  0  0  0  0  0  0  0  0  0
    7.0972   -1.7891   20.6596 N   0  0  0  0  0  0  0  0  0  0  0  0
    6.8816   -2.2483   19.7916 H   0  0  0  0  0  0  0  0  0  0  0  0
    5.1877    1.0819   19.7892 C   0  0  0  0  0  0  0  0  0  0  0  0
    4.6712    1.2176   20.7447 H   0  0  0  0  0  0  0  0  0  0  0  0
    4.6962    1.6539   18.6137 C   0  0  0  0  0  0  0  0  0  0  0  0
    3.7817    2.2426   18.6087 H   0  0  0  0  0  0  0  0  0  0  0  0
  1  2  1  0
  2  3  2  0
  3  4  1  0
  4  5  1  0
  4  6  2  0
  6  7  1  0
  7  8  2  0
  8  9  1  0
  8 10  1  0
 10 11  1  0
 10 12  2  0
 12 13  1  0
 13 14  1  0
 13 15  1  0
 15 16  1  0
 15 17  1  0
 15 18  1  0
 18 19  1  0
 18 20  1  0
 18 21  1  0
 21 22  1  0
 21 23  1  0
 23 24  1  0
 23 25  1  0
 23 26  1  0
 26 27  1  0
 26 28  1  0
 12 29  1  0
 29 30  2  0
 29 31  1  0
 31 32  1  0
  6 33  1  0
 33 34  1  0
 33 35  2  0
 35 36  1  0
 35  2  1  0
 31  7  1  0
 26 13  1  0
M  END
>  <cnnaffinity>  (1) 
-5.01771

>  <filename>  (1) 
[H]c1nc([H])c(-c2c([H])c([H])c(C3([H])C([H])([H])C([H])([H])N([H])C([H])([H])C3([H])[H])c(=O)n2[H])c([H])c1[H]

$$$$
