
     RDKit          3D

 41 43  0  0  0  0  0  0  0  0999 V2000
    4.9770    1.8055   16.8583 H   0  0  0  0  0  0  0  0  0  0  0  0
    5.3604    1.2956   17.7401 C   0  0  0  0  0  0  0  0  0  0  0  0
    6.4465    0.5295   17.5570 N   0  0  0  0  0  0  0  0  0  0  0  0
    6.9471   -0.0921   18.6343 C   0  0  0  0  0  0  0  0  0  0  0  0
    7.8429   -0.6872   18.4543 H   0  0  0  0  0  0  0  0  0  0  0  0
    6.4168    0.0078   19.9393 C   0  0  0  0  0  0  0  0  0  0  0  0
    7.0489   -0.6602   21.1507 C   0  0  0  0  0  0  0  0  0  0  0  0
    7.8125    0.2980   22.0731 C   0  0  0  0  0  0  0  0  0  0  0  0
    7.3315    1.0609   22.8638 O   0  0  0  0  0  0  0  0  0  0  0  0
    9.1797    0.1146   21.8398 O   0  0  0  0  0  0  0  0  0  0  0  0
   10.0478    0.8976   22.6171 N   0  0  0  0  0  0  0  0  0  0  0  0
   10.6827   -0.0855   23.5377 C   0  0  0  0  0  0  0  0  0  0  0  0
    9.8489   -0.6337   23.9957 H   0  0  0  0  0  0  0  0  0  0  0  0
   11.2896   -0.8200   22.9762 H   0  0  0  0  0  0  0  0  0  0  0  0
   11.4701    0.5606   24.6988 C   0  0  0  0  0  0  0  0  0  0  0  0
   10.7722    1.2398   25.2121 H   0  0  0  0  0  0  0  0  0  0  0  0
   11.7286   -0.2353   25.4150 H   0  0  0  0  0  0  0  0  0  0  0  0
   12.6742    1.3347   24.3916 N   0  0  0  0  0  0  0  0  0  0  0  0
   13.8031    0.5336   23.9338 C   0  0  0  0  0  0  0  0  0  0  0  0
   14.5461    1.1729   23.4465 H   0  0  0  0  0  0  0  0  0  0  0  0
   13.5374   -0.2550   23.2042 H   0  0  0  0  0  0  0  0  0  0  0  0
   14.3002    0.0708   24.7931 H   0  0  0  0  0  0  0  0  0  0  0  0
   12.4078    2.5304   23.5878 C   0  0  0  0  0  0  0  0  0  0  0  0
   13.2684    3.2079   23.7003 H   0  0  0  0  0  0  0  0  0  0  0  0
   11.5366    3.0348   24.0222 H   0  0  0  0  0  0  0  0  0  0  0  0
   12.1919    2.2849   22.0907 C   0  0  0  0  0  0  0  0  0  0  0  0
   12.2006    3.2544   21.5817 H   0  0  0  0  0  0  0  0  0  0  0  0
   13.0761    1.7445   21.7499 H   0  0  0  0  0  0  0  0  0  0  0  0
   10.9653    1.4832   21.6067 C   0  0  0  0  0  0  0  0  0  0  0  0
   10.3247    2.1141   20.9802 H   0  0  0  0  0  0  0  0  0  0  0  0
   11.3175    0.6670   20.9625 H   0  0  0  0  0  0  0  0  0  0  0  0
    7.3723   -2.1401   21.0643 C   0  0  0  0  0  0  0  0  0  0  0  0
    7.0878   -2.6299   20.1378 H   0  0  0  0  0  0  0  0  0  0  0  0
    8.2722   -2.5258   21.5362 H   0  0  0  0  0  0  0  0  0  0  0  0
    6.2073   -1.7056   21.8865 C   0  0  0  0  0  0  0  0  0  0  0  0
    6.2562   -1.7440   22.9744 H   0  0  0  0  0  0  0  0  0  0  0  0
    5.2251   -1.9131   21.4692 H   0  0  0  0  0  0  0  0  0  0  0  0
    5.2814    0.8206   20.0974 C   0  0  0  0  0  0  0  0  0  0  0  0
    4.8493    0.9521   21.0915 H   0  0  0  0  0  0  0  0  0  0  0  0
    4.7393    1.4646   18.9821 C   0  0  0  0  0  0  0  0  0  0  0  0
    3.8724    2.1133   19.0587 H   0  0  0  0  0  0  0  0  0  0  0  0
  1  2  1  0
  2  3  2  0
  3  4  1  0
  4  5  1  0
  4  6  2  0
  6  7  1  0
  7  8  1  0
  8  9  2  0
  8 10  1  0
 10 11  1  0
 11 12  1  0
 12 13  1  0
 12 14  1  0
 12 15  1  0
 15 16  1  0
 15 17  1  0
 15 18  1  0
 18 19  1  0
 19 20  1  0
 19 21  1  0
 19 22  1  0
 18 23  1  0
 23 24  1  0
 23 25  1  0
 23 26  1  0
 26 27  1  0
 26 28  1  0
 26 29  1  0
 29 30  1  0
 29 31  1  0
  7 32  1  0
 32 33  1  0
 32 34  1  0
 32 35  1  0
 35 36  1  0
 35 37  1  0
  6 38  1  0
 38 39  1  0
 38 40  2  0
 40 41  1  0
 40  2  1  0
 35  7  1  0
 29 11  1  0
M  END
>  <cnnaffinity>  (1) 
-4.88691

>  <filename>  (1) 
[H]c1nc([H])c(C2(C(=O)ON3C([H])([H])C([H])([H])N(C([H])([H])[H])C([H])([H])C([H])([H])C3([H])[H])C([H])([H])C2([H])[H])c([H])c1[H]

$$$$
