
     RDKit          3D

 32 34  0  0  0  0  0  0  0  0999 V2000
    4.9885    1.6463   16.6261 H   0  0  0  0  0  0  0  0  0  0  0  0
    5.5017    1.3060   17.5204 C   0  0  0  0  0  0  0  0  0  0  0  0
    6.6883    0.7092   17.3372 N   0  0  0  0  0  0  0  0  0  0  0  0
    7.3584    0.2728   18.4188 C   0  0  0  0  0  0  0  0  0  0  0  0
    8.3105   -0.2202   18.2235 H   0  0  0  0  0  0  0  0  0  0  0  0
    6.8674    0.4212   19.7296 C   0  0  0  0  0  0  0  0  0  0  0  0
    7.4547   -0.0570   20.8853 O   0  0  0  0  0  0  0  0  0  0  0  0
    8.8061   -0.3093   21.0637 C   0  0  0  0  0  0  0  0  0  0  0  0
    9.9369    0.5378   20.9076 C   0  0  0  0  0  0  0  0  0  0  0  0
   10.0273    1.5474   20.5196 H   0  0  0  0  0  0  0  0  0  0  0  0
   11.0427   -0.0558   21.3434 N   0  0  0  0  0  0  0  0  0  0  0  0
   10.6359   -1.2543   21.8025 N   0  0  0  0  0  0  0  0  0  0  0  0
   11.2827   -1.9024   22.2241 H   0  0  0  0  0  0  0  0  0  0  0  0
    9.3038   -1.4361   21.7083 C   0  0  0  0  0  0  0  0  0  0  0  0
    8.7800   -2.5616   22.2619 O   0  0  0  0  0  0  0  0  0  0  0  0
    7.4629   -2.3741   22.8147 C   0  0  0  0  0  0  0  0  0  0  0  0
    6.7547   -2.1525   22.0104 H   0  0  0  0  0  0  0  0  0  0  0  0
    7.4854   -1.5176   23.4949 H   0  0  0  0  0  0  0  0  0  0  0  0
    7.0239   -3.5929   23.5880 C   0  0  0  0  0  0  0  0  0  0  0  0
    6.7549   -4.8001   22.9322 C   0  0  0  0  0  0  0  0  0  0  0  0
    6.8615   -4.8948   21.8610 H   0  0  0  0  0  0  0  0  0  0  0  0
    6.3211   -5.8946   23.6820 C   0  0  0  0  0  0  0  0  0  0  0  0
    6.1198   -6.8416   23.1891 H   0  0  0  0  0  0  0  0  0  0  0  0
    6.1274   -5.8671   25.0047 N   0  0  0  0  0  0  0  0  0  0  0  0
    6.3692   -4.7079   25.6290 C   0  0  0  0  0  0  0  0  0  0  0  0
    6.2115   -4.6954   26.7055 H   0  0  0  0  0  0  0  0  0  0  0  0
    6.8008   -3.5555   24.9686 C   0  0  0  0  0  0  0  0  0  0  0  0
    6.9484   -2.6488   25.5448 H   0  0  0  0  0  0  0  0  0  0  0  0
    5.6142    1.0363   19.9059 C   0  0  0  0  0  0  0  0  0  0  0  0
    5.2101    1.1596   20.9107 H   0  0  0  0  0  0  0  0  0  0  0  0
    4.9201    1.4804   18.7826 C   0  0  0  0  0  0  0  0  0  0  0  0
    3.9441    1.9528   18.8681 H   0  0  0  0  0  0  0  0  0  0  0  0
  1  2  1  0
  2  3  2  0
  3  4  1  0
  4  5  1  0
  4  6  2  0
  6  7  1  0
  7  8  1  0
  8  9  1  0
  9 10  1  0
  9 11  2  0
 11 12  1  0
 12 13  1  0
 12 14  1  0
 14 15  1  0
 15 16  1  0
 16 17  1  0
 16 18  1  0
 16 19  1  0
 19 20  2  0
 20 21  1  0
 20 22  1  0
 22 23  1  0
 22 24  2  0
 24 25  1  0
 25 26  1  0
 25 27  2  0
 27 28  1  0
  6 29  1  0
 29 30  1  0
 29 31  2  0
 31 32  1  0
 31  2  1  0
 14  8  2  0
 27 19  1  0
M  END
>  <cnnaffinity>  (1) 
-5.04629

>  <filename>  (1) 
[H]c1nc([H])c(Oc2c([H])nn([H])c2OC([H])([H])c2c([H])c([H])nc([H])c2[H])c([H])c1[H]

$$$$
