
     RDKit          3D

 28 29  0  0  0  0  0  0  0  0999 V2000
    5.0107    1.7552   16.9484 H   0  0  0  0  0  0  0  0  0  0  0  0
    5.4594    1.2531   17.7989 C   0  0  0  0  0  0  0  0  0  0  0  0
    6.6044    0.5902   17.5590 N   0  0  0  0  0  0  0  0  0  0  0  0
    7.1842   -0.0485   18.5835 C   0  0  0  0  0  0  0  0  0  0  0  0
    8.1226   -0.5718   18.3720 H   0  0  0  0  0  0  0  0  0  0  0  0
    6.6646   -0.0499   19.8998 C   0  0  0  0  0  0  0  0  0  0  0  0
    7.2905   -0.7161   20.9852 N   0  0  0  0  0  0  0  0  0  0  0  0
    8.0840   -1.3194   20.8605 H   0  0  0  0  0  0  0  0  0  0  0  0
    7.4578   -0.2102   22.2509 C   0  0  0  0  0  0  0  0  0  0  0  0
    7.0263    0.9127   22.6448 N   0  0  0  0  0  0  0  0  0  0  0  0
    7.2578    1.4961   23.8946 C   0  0  0  0  0  0  0  0  0  0  0  0
    8.4989    1.6158   24.5672 C   0  0  0  0  0  0  0  0  0  0  0  0
    9.6064    1.0828   24.0125 F   0  0  0  0  0  0  0  0  0  0  0  0
    8.6634    2.2683   25.7877 C   0  0  0  0  0  0  0  0  0  0  0  0
    9.6468    2.2561   26.2434 H   0  0  0  0  0  0  0  0  0  0  0  0
    7.5667    2.8871   26.3845 C   0  0  0  0  0  0  0  0  0  0  0  0
    7.6746    3.3887   27.3412 H   0  0  0  0  0  0  0  0  0  0  0  0
    6.3233    2.8581   25.7496 C   0  0  0  0  0  0  0  0  0  0  0  0
    5.4439    3.3391   26.1657 H   0  0  0  0  0  0  0  0  0  0  0  0
    6.1966    2.1848   24.5368 C   0  0  0  0  0  0  0  0  0  0  0  0
    4.9883    2.2017   23.9515 F   0  0  0  0  0  0  0  0  0  0  0  0
    8.1548   -1.1735   22.9443 N   0  0  0  0  0  0  0  0  0  0  0  0
    8.0675   -0.9778   23.9299 H   0  0  0  0  0  0  0  0  0  0  0  0
    7.6873   -2.0300   22.7020 H   0  0  0  0  0  0  0  0  0  0  0  0
    5.4570    0.6331   20.1248 C   0  0  0  0  0  0  0  0  0  0  0  0
    5.0509    0.6545   21.1336 H   0  0  0  0  0  0  0  0  0  0  0  0
    4.8434    1.2861   19.0533 C   0  0  0  0  0  0  0  0  0  0  0  0
    3.9159    1.8323   19.1867 H   0  0  0  0  0  0  0  0  0  0  0  0
  1  2  1  0
  2  3  2  0
  3  4  1  0
  4  5  1  0
  4  6  2  0
  6  7  1  0
  7  8  1  0
  7  9  1  0
  9 10  2  3
 10 11  1  0
 11 12  2  0
 12 13  1  0
 12 14  1  0
 14 15  1  0
 14 16  2  0
 16 17  1  0
 16 18  1  0
 18 19  1  0
 18 20  2  0
 20 21  1  0
  9 22  1  0
 22 23  1  0
 22 24  1  0
  6 25  1  0
 25 26  1  0
 25 27  2  0
 27 28  1  0
 27  2  1  0
 20 11  1  0
M  END
>  <cnnaffinity>  (1) 
-4.83744

>  <filename>  (1) 
[H]c1nc([H])c(N([H])C(=Nc2c(F)c([H])c([H])c([H])c2F)N([H])[H])c([H])c1[H]

$$$$
