
     RDKit          3D

 33 36  0  0  0  0  0  0  0  0999 V2000
    4.9094    1.7822   16.9948 H   0  0  0  0  0  0  0  0  0  0  0  0
    5.3964    1.2974   17.8371 C   0  0  0  0  0  0  0  0  0  0  0  0
    6.5580    0.6774   17.5701 N   0  0  0  0  0  0  0  0  0  0  0  0
    7.1730    0.0600   18.5843 C   0  0  0  0  0  0  0  0  0  0  0  0
    8.1228   -0.4254   18.3740 H   0  0  0  0  0  0  0  0  0  0  0  0
    6.6507    0.0037   19.8888 C   0  0  0  0  0  0  0  0  0  0  0  0
    7.3436   -0.6920   20.9443 N   0  0  0  0  0  0  0  0  0  0  0  0
    6.7088   -1.7370   21.5854 C   0  0  0  0  0  0  0  0  0  0  0  0
    5.6956   -1.9647   21.2412 H   0  0  0  0  0  0  0  0  0  0  0  0
    7.3219   -2.4386   22.5723 C   0  0  0  0  0  0  0  0  0  0  0  0
    6.6374   -3.5189   23.2255 C   0  0  0  0  0  0  0  0  0  0  0  0
    5.4339   -3.8874   22.9093 N   0  0  0  0  0  0  0  0  0  0  0  0
    5.1666   -4.9479   23.7680 C   0  0  0  0  0  0  0  0  0  0  0  0
    4.0335   -5.7656   23.9229 C   0  0  0  0  0  0  0  0  0  0  0  0
    3.1623   -5.5972   23.2957 H   0  0  0  0  0  0  0  0  0  0  0  0
    4.0707   -6.7731   24.8926 C   0  0  0  0  0  0  0  0  0  0  0  0
    3.2020   -7.4183   25.0321 H   0  0  0  0  0  0  0  0  0  0  0  0
    5.2187   -6.9536   25.6997 C   0  0  0  0  0  0  0  0  0  0  0  0
    5.2228   -7.7264   26.4657 H   0  0  0  0  0  0  0  0  0  0  0  0
    6.3516   -6.1414   25.5547 C   0  0  0  0  0  0  0  0  0  0  0  0
    7.2467   -6.2817   26.1545 H   0  0  0  0  0  0  0  0  0  0  0  0
    6.2909   -5.1546   24.5760 C   0  0  0  0  0  0  0  0  0  0  0  0
    7.2321   -4.2359   24.2170 O   0  0  0  0  0  0  0  0  0  0  0  0
    8.6720   -2.0929   22.9860 C   0  0  0  0  0  0  0  0  0  0  0  0
    9.3425   -2.6161   23.8383 O   0  0  0  0  0  0  0  0  0  0  0  0
    9.2107   -1.0325   22.2827 N   0  0  0  0  0  0  0  0  0  0  0  0
   10.1379   -0.7524   22.5299 H   0  0  0  0  0  0  0  0  0  0  0  0
    8.6549   -0.2890   21.2989 C   0  0  0  0  0  0  0  0  0  0  0  0
    9.2572    0.6169   20.7721 O   0  0  0  0  0  0  0  0  0  0  0  0
    5.4384    0.6445   20.1560 C   0  0  0  0  0  0  0  0  0  0  0  0
    5.0220    0.6206   21.1671 H   0  0  0  0  0  0  0  0  0  0  0  0
    4.8039    1.3175   19.1062 C   0  0  0  0  0  0  0  0  0  0  0  0
    3.8693    1.8477   19.2625 H   0  0  0  0  0  0  0  0  0  0  0  0
  1  2  1  0
  2  3  2  0
  3  4  1  0
  4  5  1  0
  4  6  2  0
  6  7  1  0
  7  8  1  0
  8  9  1  0
  8 10  2  0
 10 11  1  0
 11 12  2  0
 12 13  1  0
 13 14  2  0
 14 15  1  0
 14 16  1  0
 16 17  1  0
 16 18  2  0
 18 19  1  0
 18 20  1  0
 20 21  1  0
 20 22  2  0
 22 23  1  0
 10 24  1  0
 24 25  2  0
 24 26  1  0
 26 27  1  0
 26 28  1  0
 28 29  2  0
  6 30  1  0
 30 31  1  0
 30 32  2  0
 32 33  1  0
 32  2  1  0
 28  7  1  0
 23 11  1  0
 22 13  1  0
M  END
>  <cnnaffinity>  (1) 
-5.54892

>  <filename>  (1) 
[H]c1nc([H])c(-n2c([H])c(-c3nc4c([H])c([H])c([H])c([H])c4o3)c(=O)n([H])c2=O)c([H])c1[H]

$$$$
