
     RDKit          3D

 34 36  0  0  0  0  0  0  0  0999 V2000
    4.9318    1.7800   16.9993 H   0  0  0  0  0  0  0  0  0  0  0  0
    5.4066    1.2838   17.8463 C   0  0  0  0  0  0  0  0  0  0  0  0
    6.5731    0.6631   17.6045 N   0  0  0  0  0  0  0  0  0  0  0  0
    7.1855    0.0460   18.6259 C   0  0  0  0  0  0  0  0  0  0  0  0
    8.1278   -0.4433   18.3940 H   0  0  0  0  0  0  0  0  0  0  0  0
    6.6631    0.0172   19.9395 C   0  0  0  0  0  0  0  0  0  0  0  0
    7.3447   -0.7189   20.9199 O   0  0  0  0  0  0  0  0  0  0  0  0
    7.3160   -0.3465   22.2439 C   0  0  0  0  0  0  0  0  0  0  0  0
    6.9642    0.7426   22.6213 O   0  0  0  0  0  0  0  0  0  0  0  0
    7.8574   -1.4184   23.1999 C   0  0  0  0  0  0  0  0  0  0  0  0
    6.8680   -1.8439   24.2706 C   0  0  0  0  0  0  0  0  0  0  0  0
    6.8050   -1.0900   25.4581 C   0  0  0  0  0  0  0  0  0  0  0  0
    7.4542   -0.2233   25.5423 H   0  0  0  0  0  0  0  0  0  0  0  0
    5.9660   -1.4510   26.5172 C   0  0  0  0  0  0  0  0  0  0  0  0
    5.9487   -0.8602   27.4281 H   0  0  0  0  0  0  0  0  0  0  0  0
    5.1544   -2.5808   26.3999 C   0  0  0  0  0  0  0  0  0  0  0  0
    4.4938   -2.8771   27.2139 H   0  0  0  0  0  0  0  0  0  0  0  0
    5.1749   -3.3232   25.2200 C   0  0  0  0  0  0  0  0  0  0  0  0
    4.5300   -4.1944   25.1283 H   0  0  0  0  0  0  0  0  0  0  0  0
    5.9992   -2.9478   24.1422 C   0  0  0  0  0  0  0  0  0  0  0  0
    5.9810   -3.7895   22.8814 C   0  0  0  0  0  0  0  0  0  0  0  0
    6.1337   -3.0560   21.7626 F   0  0  0  0  0  0  0  0  0  0  0  0
    4.8298   -4.4786   22.7455 F   0  0  0  0  0  0  0  0  0  0  0  0
    6.9732   -4.7082   22.8811 F   0  0  0  0  0  0  0  0  0  0  0  0
    8.9695   -2.3568   22.7822 C   0  0  0  0  0  0  0  0  0  0  0  0
    9.2879   -2.3316   21.7415 H   0  0  0  0  0  0  0  0  0  0  0  0
    8.9945   -3.3455   23.2386 H   0  0  0  0  0  0  0  0  0  0  0  0
    9.3044   -1.1856   23.6504 C   0  0  0  0  0  0  0  0  0  0  0  0
    9.8574   -0.3429   23.2390 H   0  0  0  0  0  0  0  0  0  0  0  0
    9.5468   -1.3701   24.6993 H   0  0  0  0  0  0  0  0  0  0  0  0
    5.4427    0.6503   20.1824 C   0  0  0  0  0  0  0  0  0  0  0  0
    5.0072    0.6394   21.1785 H   0  0  0  0  0  0  0  0  0  0  0  0
    4.8138    1.2955   19.1114 C   0  0  0  0  0  0  0  0  0  0  0  0
    3.8840    1.8295   19.2585 H   0  0  0  0  0  0  0  0  0  0  0  0
  1  2  1  0
  2  3  2  0
  3  4  1  0
  4  5  1  0
  4  6  2  0
  6  7  1  0
  7  8  1  0
  8  9  2  0
  8 10  1  0
 10 11  1  0
 11 12  2  0
 12 13  1  0
 12 14  1  0
 14 15  1  0
 14 16  2  0
 16 17  1  0
 16 18  1  0
 18 19  1  0
 18 20  2  0
 20 21  1  0
 21 22  1  0
 21 23  1  0
 21 24  1  0
 10 25  1  0
 25 26  1  0
 25 27  1  0
 25 28  1  0
 28 29  1  0
 28 30  1  0
  6 31  1  0
 31 32  1  0
 31 33  2  0
 33 34  1  0
 33  2  1  0
 28 10  1  0
 20 11  1  0
M  END
>  <cnnaffinity>  (1) 
-4.98293

>  <filename>  (1) 
[H]c1nc([H])c(OC(=O)C2(c3c([H])c([H])c([H])c([H])c3C(F)(F)F)C([H])([H])C2([H])[H])c([H])c1[H]

$$$$
