
     RDKit          3D

 35 36  0  0  0  0  0  0  0  0999 V2000
    4.9270    1.8133   16.9649 H   0  0  0  0  0  0  0  0  0  0  0  0
    5.3868    1.3045   17.8108 C   0  0  0  0  0  0  0  0  0  0  0  0
    6.5471    0.6769   17.5577 N   0  0  0  0  0  0  0  0  0  0  0  0
    7.1499    0.0585   18.5837 C   0  0  0  0  0  0  0  0  0  0  0  0
    8.1062   -0.4077   18.3461 H   0  0  0  0  0  0  0  0  0  0  0  0
    6.6486    0.0179   19.8971 C   0  0  0  0  0  0  0  0  0  0  0  0
    7.3824   -0.6861   20.9801 C   0  0  0  0  0  0  0  0  0  0  0  0
    7.6530   -2.0220   20.9335 C   0  0  0  0  0  0  0  0  0  0  0  0
    7.2497   -2.7066   20.2016 H   0  0  0  0  0  0  0  0  0  0  0  0
    8.5483   -2.5685   22.2914 S   0  0  0  0  0  0  0  0  0  0  0  0
    8.5282   -0.9895   22.9782 C   0  0  0  0  0  0  0  0  0  0  0  0
    9.0150   -0.8068   23.9295 H   0  0  0  0  0  0  0  0  0  0  0  0
    7.8793   -0.0775   22.1976 C   0  0  0  0  0  0  0  0  0  0  0  0
    7.7990    1.3977   22.4847 C   0  0  0  0  0  0  0  0  0  0  0  0
    8.0339    1.5702   23.5413 H   0  0  0  0  0  0  0  0  0  0  0  0
    6.7770    1.7575   22.3241 H   0  0  0  0  0  0  0  0  0  0  0  0
    8.7522    2.2159   21.5940 C   0  0  0  0  0  0  0  0  0  0  0  0
    8.4493    2.0983   20.5454 H   0  0  0  0  0  0  0  0  0  0  0  0
    8.6466    3.2826   21.8273 H   0  0  0  0  0  0  0  0  0  0  0  0
   10.2193    1.7829   21.7115 C   0  0  0  0  0  0  0  0  0  0  0  0
   10.8549    2.4313   21.0734 H   0  0  0  0  0  0  0  0  0  0  0  0
   10.2929    0.7660   21.3011 H   0  0  0  0  0  0  0  0  0  0  0  0
   10.7014    1.7547   23.0908 N   0  0  0  0  0  0  0  0  0  0  0  0
   11.8530    0.8834   23.2605 C   0  0  0  0  0  0  0  0  0  0  0  0
   11.5938   -0.1415   22.9718 H   0  0  0  0  0  0  0  0  0  0  0  0
   12.7357    1.1952   22.6677 H   0  0  0  0  0  0  0  0  0  0  0  0
   12.1419    0.8711   24.3170 H   0  0  0  0  0  0  0  0  0  0  0  0
   10.9762    3.0897   23.5996 C   0  0  0  0  0  0  0  0  0  0  0  0
   11.7827    3.6026   23.0369 H   0  0  0  0  0  0  0  0  0  0  0  0
   11.2831    3.0184   24.6480 H   0  0  0  0  0  0  0  0  0  0  0  0
   10.0807    3.7198   23.5520 H   0  0  0  0  0  0  0  0  0  0  0  0
    5.4283    0.6700   20.1308 C   0  0  0  0  0  0  0  0  0  0  0  0
    5.0045    0.6453   21.1360 H   0  0  0  0  0  0  0  0  0  0  0  0
    4.7879    1.3208   19.0748 C   0  0  0  0  0  0  0  0  0  0  0  0
    3.8547    1.8538   19.2211 H   0  0  0  0  0  0  0  0  0  0  0  0
  1  2  1  0
  2  3  2  0
  3  4  1  0
  4  5  1  0
  4  6  2  0
  6  7  1  0
  7  8  2  0
  8  9  1  0
  8 10  1  0
 10 11  1  0
 11 12  1  0
 11 13  2  0
 13 14  1  0
 14 15  1  0
 14 16  1  0
 14 17  1  0
 17 18  1  0
 17 19  1  0
 17 20  1  0
 20 21  1  0
 20 22  1  0
 20 23  1  0
 23 24  1  0
 24 25  1  0
 24 26  1  0
 24 27  1  0
 23 28  1  0
 28 29  1  0
 28 30  1  0
 28 31  1  0
  6 32  1  0
 32 33  1  0
 32 34  2  0
 34 35  1  0
 34  2  1  0
 13  7  1  0
M  END
>  <cnnaffinity>  (1) 
-4.96808

>  <filename>  (1) 
[H]c1nc([H])c(-c2c([H])sc([H])c2C([H])([H])C([H])([H])C([H])([H])N(C([H])([H])[H])C([H])([H])[H])c([H])c1[H]

$$$$
