
     RDKit          3D

 32 35  0  0  0  0  0  0  0  0999 V2000
    4.8033    1.3166   19.1033 C   0  0  0  0  0  0  0  0  0  0  0  0
    5.3997    1.2948   17.8361 C   0  0  0  0  0  0  0  0  0  0  0  0
    6.5631    0.6777   17.5713 N   0  0  0  0  0  0  0  0  0  0  0  0
    7.1713    0.0703   18.5968 C   0  0  0  0  0  0  0  0  0  0  0  0
    6.6570    0.0099   19.9035 C   0  0  0  0  0  0  0  0  0  0  0  0
    7.3827   -0.7085   20.9765 C   0  0  0  0  0  0  0  0  0  0  0  0
    8.7671   -0.5419   21.1258 C   0  0  0  0  0  0  0  0  0  0  0  0
    9.4431   -1.2074   22.1489 C   0  0  0  0  0  0  0  0  0  0  0  0
    8.7478   -2.0476   23.0179 C   0  0  0  0  0  0  0  0  0  0  0  0
    7.3581   -2.2325   22.8800 C   0  0  0  0  0  0  0  0  0  0  0  0
    6.6501   -3.1282   23.8245 C   0  0  0  0  0  0  0  0  0  0  0  0
    7.2410   -3.7764   24.7766 N   0  0  0  0  0  0  0  0  0  0  0  0
    6.3390   -4.5364   25.4971 C   0  0  0  0  0  0  0  0  0  0  0  0
    6.5971   -5.3759   26.6067 C   0  0  0  0  0  0  0  0  0  0  0  0
    5.6436   -6.0682   27.2315 N   0  0  0  0  0  0  0  0  0  0  0  0
    4.3734   -5.9605   26.7792 C   0  0  0  0  0  0  0  0  0  0  0  0
    3.9945   -5.1697   25.6985 C   0  0  0  0  0  0  0  0  0  0  0  0
    4.9996   -4.4514   25.0528 C   0  0  0  0  0  0  0  0  0  0  0  0
    4.9069   -3.3962   23.6925 S   0  0  0  0  0  0  0  0  0  0  0  0
    2.9614   -5.1144   25.3732 H   0  0  0  0  0  0  0  0  0  0  0  0
    3.6271   -6.5412   27.3153 H   0  0  0  0  0  0  0  0  0  0  0  0
    7.6196   -5.4620   26.9705 H   0  0  0  0  0  0  0  0  0  0  0  0
    6.6851   -1.5527   21.8517 C   0  0  0  0  0  0  0  0  0  0  0  0
    5.6156   -1.6704   21.6920 H   0  0  0  0  0  0  0  0  0  0  0  0
    9.2730   -2.5679   23.8118 H   0  0  0  0  0  0  0  0  0  0  0  0
   10.5139   -1.0751   22.2627 H   0  0  0  0  0  0  0  0  0  0  0  0
    9.3021    0.1276   20.4561 H   0  0  0  0  0  0  0  0  0  0  0  0
    5.4338    0.6499   20.1520 C   0  0  0  0  0  0  0  0  0  0  0  0
    5.0125    0.6313   21.1608 H   0  0  0  0  0  0  0  0  0  0  0  0
    8.1140   -0.4284   18.3727 H   0  0  0  0  0  0  0  0  0  0  0  0
    4.9127    1.7804   16.9952 H   0  0  0  0  0  0  0  0  0  0  0  0
    3.8696    1.8467   19.2587 H   0  0  0  0  0  0  0  0  0  0  0  0
  1  2  2  0
  2  3  1  0
  3  4  2  0
  4  5  1  0
  5  6  1  0
  6  7  2  0
  7  8  1  0
  8  9  2  0
  9 10  1  0
 10 11  1  0
 11 12  2  0
 12 13  1  0
 13 14  2  0
 14 15  1  0
 15 16  2  0
 16 17  1  0
 17 18  2  0
 18 19  1  0
 17 20  1  0
 16 21  1  0
 14 22  1  0
 10 23  2  0
 23 24  1  0
  9 25  1  0
  8 26  1  0
  7 27  1  0
  5 28  2  0
 28 29  1  0
  4 30  1  0
  2 31  1  0
  1 32  1  0
 28  1  1  0
 23  6  1  0
 19 11  1  0
 18 13  1  0
M  END
>  <cnnaffinity>  (1) 
-5.30336

>  <filename>  (1) 
[H]c1nc([H])c(-c2c([H])c([H])c([H])c(-c3nc4c([H])nc([H])c([H])c4s3)c2[H])c([H])c1[H]

$$$$
