
     RDKit          3D

 30 32  0  0  0  0  0  0  0  0999 V2000
    4.9779    1.7816   16.9741 H   0  0  0  0  0  0  0  0  0  0  0  0
    5.4079    1.2670   17.8295 C   0  0  0  0  0  0  0  0  0  0  0  0
    6.5721    0.6350   17.6060 N   0  0  0  0  0  0  0  0  0  0  0  0
    7.1633    0.0526   18.6510 C   0  0  0  0  0  0  0  0  0  0  0  0
    8.1226   -0.4327   18.4745 H   0  0  0  0  0  0  0  0  0  0  0  0
    6.6077    0.0677   19.9333 C   0  0  0  0  0  0  0  0  0  0  0  0
    7.6048   -0.7434   21.1768 S   0  0  0  0  0  4  0  0  0  0  0  0
    9.0150   -0.6167   20.7059 O   0  0  0  0  0  0  0  0  0  0  0  0
    7.3107   -2.3027   20.5757 N   0  0  0  0  0  0  0  0  0  0  0  0
    8.1871   -2.4887   20.0881 H   0  0  0  0  0  0  0  0  0  0  0  0
    6.6789   -3.4237   21.1965 C   0  0  0  0  0  0  0  0  0  0  0  0
    6.2625   -4.4081   20.3189 C   0  0  0  0  0  0  0  0  0  0  0  0
    6.4827   -4.2720   19.2659 H   0  0  0  0  0  0  0  0  0  0  0  0
    5.5231   -5.5327   20.7518 C   0  0  0  0  0  0  0  0  0  0  0  0
    5.2288   -6.2789   20.0157 H   0  0  0  0  0  0  0  0  0  0  0  0
    5.1815   -5.6721   22.0777 C   0  0  0  0  0  0  0  0  0  0  0  0
    4.5660   -6.5110   22.4016 H   0  0  0  0  0  0  0  0  0  0  0  0
    5.6382   -4.7202   23.0374 C   0  0  0  0  0  0  0  0  0  0  0  0
    5.3460   -4.8302   24.4320 C   0  0  0  0  0  0  0  0  0  0  0  0
    4.7091   -5.6422   24.7910 H   0  0  0  0  0  0  0  0  0  0  0  0
    5.8797   -3.9163   25.3060 C   0  0  0  0  0  0  0  0  0  0  0  0
    5.6827   -3.9493   26.3705 H   0  0  0  0  0  0  0  0  0  0  0  0
    6.7207   -2.8865   24.8020 C   0  0  0  0  0  0  0  0  0  0  0  0
    7.1630   -2.1599   25.4836 H   0  0  0  0  0  0  0  0  0  0  0  0
    7.0005   -2.7290   23.5334 N   0  0  0  0  0  0  0  0  0  0  0  0
    6.4467   -3.5959   22.6206 C   0  0  0  0  0  0  0  0  0  0  0  0
    5.3785    0.6806   20.1735 C   0  0  0  0  0  0  0  0  0  0  0  0
    4.9013    0.6601   21.1584 H   0  0  0  0  0  0  0  0  0  0  0  0
    4.7789    1.3111   19.0802 C   0  0  0  0  0  0  0  0  0  0  0  0
    3.8455    1.8483   19.1938 H   0  0  0  0  0  0  0  0  0  0  0  0
  1  2  1  0
  2  3  2  0
  3  4  1  0
  4  5  1  0
  4  6  2  0
  6  7  1  0
  7  8  2  0
  7  9  1  6
  9 10  1  0
  9 11  1  0
 11 12  2  0
 12 13  1  0
 12 14  1  0
 14 15  1  0
 14 16  2  0
 16 17  1  0
 16 18  1  0
 18 19  2  0
 19 20  1  0
 19 21  1  0
 21 22  1  0
 21 23  2  0
 23 24  1  0
 23 25  1  0
 25 26  2  0
  6 27  1  0
 27 28  1  0
 27 29  2  0
 29 30  1  0
 29  2  1  0
 26 11  1  0
 26 18  1  0
M  END
>  <cnnaffinity>  (1) 
-4.44399

>  <filename>  (1) 
[H]c1nc([H])c([S@](=O)N([H])c2c([H])c([H])c([H])c3c([H])c([H])c([H])nc23)c([H])c1[H]

$$$$
