
     RDKit          3D

 24 25  0  0  0  0  0  0  0  0999 V2000
    3.9353   -3.6364   24.5530 H   0  0  0  0  0  0  0  0  0  0  0  0
    4.7746   -3.6727   23.8712 C   0  0  0  0  0  0  0  0  0  0  0  0
    6.0539   -3.9844   24.2396 N   0  0  0  0  0  0  0  0  0  0  0  0
    6.7261   -3.8362   23.1203 C   0  0  0  0  0  0  0  0  0  0  0  0
    7.7883   -4.0128   22.9874 H   0  0  0  0  0  0  0  0  0  0  0  0
    5.8941   -3.4493   22.1282 N   0  0  0  0  0  0  0  0  0  0  0  0
    6.1909   -3.1115   20.7532 C   0  0  0  0  0  0  0  0  0  0  0  0
    6.2977   -4.0171   20.1580 H   0  0  0  0  0  0  0  0  0  0  0  0
    5.3400   -2.5476   20.3684 H   0  0  0  0  0  0  0  0  0  0  0  0
    7.4285   -2.4198   20.6301 O   0  0  0  0  0  0  0  0  0  0  0  0
    7.5163   -0.8955   21.2249 S   0  0  0  0  0  0  0  0  0  0  0  0
    8.8988   -0.5516   21.0444 O   0  0  0  0  0  0  0  0  0  0  0  0
    6.8475   -0.7946   22.4932 O   0  0  0  0  0  0  0  0  0  0  0  0
    6.5641   -0.0808   20.0244 C   0  0  0  0  0  0  0  0  0  0  0  0
    7.1869   -0.0862   18.7849 C   0  0  0  0  0  0  0  0  0  0  0  0
    8.1417   -0.5756   18.6100 H   0  0  0  0  0  0  0  0  0  0  0  0
    6.6555    0.5285   17.7345 N   0  0  0  0  0  0  0  0  0  0  0  0
    5.5033    1.1892   17.9107 C   0  0  0  0  0  0  0  0  0  0  0  0
    5.1052    1.6952   17.0327 H   0  0  0  0  0  0  0  0  0  0  0  0
    4.8232    1.2456   19.1320 C   0  0  0  0  0  0  0  0  0  0  0  0
    3.9040    1.8173   19.1927 H   0  0  0  0  0  0  0  0  0  0  0  0
    5.3600    0.5979   20.2439 C   0  0  0  0  0  0  0  0  0  0  0  0
    4.8604    0.6486   21.2188 H   0  0  0  0  0  0  0  0  0  0  0  0
    4.6272   -3.3902   22.5963 N   0  0  0  0  0  0  0  0  0  0  0  0
  1  2  1  0
  2  3  1  0
  3  4  2  0
  4  5  1  0
  4  6  1  0
  6  7  1  0
  7  8  1  0
  7  9  1  0
  7 10  1  0
 10 11  1  0
 11 12  2  0
 11 13  2  0
 11 14  1  0
 14 15  2  0
 15 16  1  0
 15 17  1  0
 17 18  2  0
 18 19  1  0
 18 20  1  0
 20 21  1  0
 20 22  2  0
 22 23  1  0
  6 24  1  0
 24  2  2  0
 22 14  1  0
M  END
>  <cnnaffinity>  (1) 
-3.82675

>  <filename>  (1) 
[H]c1nc([H])n(C([H])([H])OS(=O)(=O)c2c([H])nc([H])c([H])c2[H])n1

$$$$
