
     RDKit          3D

 41 43  0  0  0  0  0  0  0  0999 V2000
    8.6675    1.1853   23.5402 H   0  0  0  0  0  0  0  0  0  0  0  0
    8.2526    1.0550   22.5331 C   0  0  0  0  0  0  0  0  0  0  0  0
    7.9782   -0.2057   22.1699 C   0  0  0  0  0  0  0  0  0  0  0  0
    7.3435   -0.7726   20.9623 C   0  0  0  0  0  0  0  0  0  0  0  0
    6.6226   -0.0037   19.9173 C   0  0  0  0  0  0  0  0  0  0  0  0
    7.1414   -0.0532   18.6234 C   0  0  0  0  0  0  0  0  0  0  0  0
    8.0259   -0.6535   18.4150 H   0  0  0  0  0  0  0  0  0  0  0  0
    6.6093    0.5990   17.5876 N   0  0  0  0  0  0  0  0  0  0  0  0
    5.4843    1.2977   17.8130 C   0  0  0  0  0  0  0  0  0  0  0  0
    5.0643    1.8090   16.9507 H   0  0  0  0  0  0  0  0  0  0  0  0
    4.8445    1.3507   19.0568 C   0  0  0  0  0  0  0  0  0  0  0  0
    3.9184    1.9043   19.1630 H   0  0  0  0  0  0  0  0  0  0  0  0
    5.4244    0.6871   20.1408 C   0  0  0  0  0  0  0  0  0  0  0  0
    4.9565    0.6947   21.1288 H   0  0  0  0  0  0  0  0  0  0  0  0
    7.4373   -2.0474   20.8567 N   0  0  0  0  0  0  0  0  0  0  0  0
    8.0725   -2.5894   22.0623 C   0  0  0  0  0  0  0  0  0  0  0  0
    8.9702   -3.1350   21.7605 H   0  0  0  0  0  0  0  0  0  0  0  0
    7.3889   -3.3001   22.5362 H   0  0  0  0  0  0  0  0  0  0  0  0
    8.3985   -1.4062   22.9945 C   0  0  0  0  0  0  0  0  0  0  0  0
    7.8284   -1.4577   23.9283 H   0  0  0  0  0  0  0  0  0  0  0  0
    9.4628   -1.3535   23.2480 H   0  0  0  0  0  0  0  0  0  0  0  0
    8.0955    2.2907   21.6927 C   0  0  0  0  0  0  0  0  0  0  0  0
    7.0262    2.4966   21.5468 H   0  0  0  0  0  0  0  0  0  0  0  0
    8.4668    2.0855   20.6770 H   0  0  0  0  0  0  0  0  0  0  0  0
    8.7686    3.5694   22.2544 C   0  0  0  0  0  0  0  0  0  0  0  0
    8.6144    4.3341   21.4816 H   0  0  0  0  0  0  0  0  0  0  0  0
   10.2838    3.4050   22.5416 C   0  0  0  0  0  0  0  0  0  0  0  0
   10.3991    2.6753   23.3555 H   0  0  0  0  0  0  0  0  0  0  0  0
   10.8043    2.9673   21.6786 H   0  0  0  0  0  0  0  0  0  0  0  0
   10.9572    4.7220   22.9709 C   0  0  0  0  0  0  0  0  0  0  0  0
   10.9579    5.4345   22.1382 H   0  0  0  0  0  0  0  0  0  0  0  0
   12.0162    4.5562   23.2136 H   0  0  0  0  0  0  0  0  0  0  0  0
   10.2257    5.3652   24.1573 C   0  0  0  0  0  0  0  0  0  0  0  0
   10.4048    4.7477   25.0449 H   0  0  0  0  0  0  0  0  0  0  0  0
   10.6470    6.3538   24.3754 H   0  0  0  0  0  0  0  0  0  0  0  0
    8.7143    5.4914   23.9090 C   0  0  0  0  0  0  0  0  0  0  0  0
    8.2061    5.9088   24.7858 H   0  0  0  0  0  0  0  0  0  0  0  0
    8.5461    6.2201   23.1026 H   0  0  0  0  0  0  0  0  0  0  0  0
    8.0765    4.1525   23.5037 C   0  0  0  0  0  0  0  0  0  0  0  0
    8.1498    3.4329   24.3314 H   0  0  0  0  0  0  0  0  0  0  0  0
    7.0065    4.2998   23.3083 H   0  0  0  0  0  0  0  0  0  0  0  0
  1  2  1  0
  2  3  2  3
  3  4  1  0
  4  5  1  0
  5  6  2  0
  6  7  1  0
  6  8  1  0
  8  9  2  0
  9 10  1  0
  9 11  1  0
 11 12  1  0
 11 13  2  0
 13 14  1  0
  4 15  2  0
 15 16  1  0
 16 17  1  0
 16 18  1  0
 16 19  1  0
 19 20  1  0
 19 21  1  0
  2 22  1  0
 22 23  1  0
 22 24  1  0
 22 25  1  0
 25 26  1  0
 25 27  1  0
 27 28  1  0
 27 29  1  0
 27 30  1  0
 30 31  1  0
 30 32  1  0
 30 33  1  0
 33 34  1  0
 33 35  1  0
 33 36  1  0
 36 37  1  0
 36 38  1  0
 36 39  1  0
 39 40  1  0
 39 41  1  0
 19  3  1  0
 39 25  1  0
 13  5  1  0
M  END
>  <cnnaffinity>  (1) 
-5.47135

>  <filename>  (1) 
[H]C(=C1C(c2c([H])nc([H])c([H])c2[H])=NC([H])([H])C1([H])[H])C([H])([H])C1([H])C([H])([H])C([H])([H])C([H])([H])C([H])([H])C1([H])[H]

$$$$
