
     RDKit          3D

 37 39  0  0  0  0  0  0  0  0999 V2000
    5.0879    1.7266   17.0677 H   0  0  0  0  0  0  0  0  0  0  0  0
    5.5136    1.2309   17.9415 C   0  0  0  0  0  0  0  0  0  0  0  0
    6.6758    0.5905   17.7507 N   0  0  0  0  0  0  0  0  0  0  0  0
    7.2111   -0.0388   18.7991 C   0  0  0  0  0  0  0  0  0  0  0  0
    8.1474   -0.5652   18.6375 H   0  0  0  0  0  0  0  0  0  0  0  0
    6.6368   -0.0689   20.0723 C   0  0  0  0  0  0  0  0  0  0  0  0
    7.3499   -0.9049   21.0520 C   0  0  0  0  0  0  0  0  0  0  0  0
    8.1890   -1.7265   20.7666 O   0  0  0  0  0  0  0  0  0  0  0  0
    6.9395   -0.6756   22.3438 N   0  0  0  0  0  0  0  0  0  0  0  0
    6.7944    0.2736   22.6222 H   0  0  0  0  0  0  0  0  0  0  0  0
    7.8860   -1.3169   23.5107 S   0  0  0  0  0  0  0  0  0  0  0  0
    7.3821   -0.6476   24.6857 O   0  0  0  0  0  0  0  0  0  0  0  0
    9.2895   -1.2763   23.1938 O   0  0  0  0  0  0  0  0  0  0  0  0
    7.3571   -2.8994   23.3531 N   0  0  0  0  0  0  0  0  0  0  0  0
    5.9092   -3.1288   23.5442 C   0  0  0  0  0  0  0  0  0  0  0  0
    5.7105   -4.1466   23.1698 H   0  0  0  0  0  0  0  0  0  0  0  0
    5.3490   -2.4950   22.8633 H   0  0  0  0  0  0  0  0  0  0  0  0
    5.4467   -3.0473   24.9995 C   0  0  0  0  0  0  0  0  0  0  0  0
    4.1343   -2.6993   25.3628 C   0  0  0  0  0  0  0  0  0  0  0  0
    3.4190   -2.3858   24.6014 H   0  0  0  0  0  0  0  0  0  0  0  0
    3.7268   -2.7681   26.7006 C   0  0  0  0  0  0  0  0  0  0  0  0
    2.7072   -2.5063   26.9720 H   0  0  0  0  0  0  0  0  0  0  0  0
    4.6199   -3.2007   27.6845 C   0  0  0  0  0  0  0  0  0  0  0  0
    4.3040   -3.2728   28.7226 H   0  0  0  0  0  0  0  0  0  0  0  0
    5.9228   -3.5525   27.3271 C   0  0  0  0  0  0  0  0  0  0  0  0
    6.6086   -3.9444   28.0720 H   0  0  0  0  0  0  0  0  0  0  0  0
    6.3643   -3.4351   26.0028 C   0  0  0  0  0  0  0  0  0  0  0  0
    7.8346   -3.6952   25.6849 C   0  0  0  0  0  0  0  0  0  0  0  0
    8.4296   -2.8642   26.0888 H   0  0  0  0  0  0  0  0  0  0  0  0
    8.1640   -4.6015   26.2112 H   0  0  0  0  0  0  0  0  0  0  0  0
    8.1198   -3.8503   24.1836 C   0  0  0  0  0  0  0  0  0  0  0  0
    7.8000   -4.8562   23.8687 H   0  0  0  0  0  0  0  0  0  0  0  0
    9.1905   -3.7746   23.9594 H   0  0  0  0  0  0  0  0  0  0  0  0
    5.4331    0.6303   20.2742 C   0  0  0  0  0  0  0  0  0  0  0  0
    4.9460    0.6670   21.2521 H   0  0  0  0  0  0  0  0  0  0  0  0
    4.8588    1.2775   19.1806 C   0  0  0  0  0  0  0  0  0  0  0  0
    3.9293    1.8281   19.2715 H   0  0  0  0  0  0  0  0  0  0  0  0
  1  2  1  0
  2  3  2  0
  3  4  1  0
  4  5  1  0
  4  6  2  0
  6  7  1  0
  7  8  2  0
  7  9  1  0
  9 10  1  0
  9 11  1  0
 11 12  2  0
 11 13  2  0
 11 14  1  0
 14 15  1  0
 15 16  1  0
 15 17  1  0
 15 18  1  0
 18 19  2  0
 19 20  1  0
 19 21  1  0
 21 22  1  0
 21 23  2  0
 23 24  1  0
 23 25  1  0
 25 26  1  0
 25 27  2  0
 27 28  1  0
 28 29  1  0
 28 30  1  0
 28 31  1  0
 31 32  1  0
 31 33  1  0
  6 34  1  0
 34 35  1  0
 34 36  2  0
 36 37  1  0
 36  2  1  0
 31 14  1  0
 27 18  1  0
M  END
>  <cnnaffinity>  (1) 
-5.39712

>  <filename>  (1) 
[H]c1nc([H])c(C(=O)N([H])S(=O)(=O)N2C([H])([H])c3c([H])c([H])c([H])c([H])c3C([H])([H])C2([H])[H])c([H])c1[H]

$$$$
