
     RDKit          3D

 40 43  0  0  0  0  0  0  0  0999 V2000
    5.3679   -3.2409   23.1345 O   0  0  0  0  0  0  0  0  0  0  0  0
    6.1488   -2.6533   23.8592 C   0  0  0  0  0  0  0  0  0  0  0  0
    5.7504   -1.9589   25.1024 C   0  0  0  0  0  0  0  0  0  0  0  0
    4.4702   -1.6276   25.5640 C   0  0  0  0  0  0  0  0  0  0  0  0
    4.3159   -0.9387   26.7701 C   0  0  0  0  0  0  0  0  0  0  0  0
    5.4355   -0.5837   27.5341 C   0  0  0  0  0  0  0  0  0  0  0  0
    5.1976    0.3866   29.1697 Br  0  0  0  0  0  0  0  0  0  0  0  0
    6.7177   -0.9196   27.0815 C   0  0  0  0  0  0  0  0  0  0  0  0
    6.8588   -1.6005   25.8590 C   0  0  0  0  0  0  0  0  0  0  0  0
    8.3097   -2.1602   24.9426 S   0  0  0  0  0  0  0  0  0  0  0  0
    8.9107   -3.3453   25.5680 O   0  0  0  0  0  0  0  0  0  0  0  0
    9.2520   -1.0735   24.6407 O   0  0  0  0  0  0  0  0  0  0  0  0
    7.4855   -2.6400   23.5463 N   0  0  0  0  0  0  0  0  0  0  0  0
    8.1528   -3.1271   22.3420 C   0  0  0  0  0  0  0  0  0  0  0  0
    9.0967   -2.0386   21.8768 C   0  0  0  0  0  0  0  0  0  0  0  0
   10.4796   -2.1395   22.1106 C   0  0  0  0  0  0  0  0  0  0  0  0
   11.3222   -1.0559   21.8388 C   0  0  0  0  0  0  0  0  0  0  0  0
   10.8052    0.1277   21.3131 C   0  0  0  0  0  0  0  0  0  0  0  0
    9.4431    0.2108   21.0141 C   0  0  0  0  0  0  0  0  0  0  0  0
    8.5817   -0.8710   21.2750 C   0  0  0  0  0  0  0  0  0  0  0  0
    7.2303   -0.7963   21.0490 O   0  0  0  0  0  0  0  0  0  0  0  0
    6.7466   -0.0647   19.9831 C   0  0  0  0  0  0  0  0  0  0  0  0
    5.5272    0.5790   20.1720 C   0  0  0  0  0  0  0  0  0  0  0  0
    4.9571    1.2633   19.0985 C   0  0  0  0  0  0  0  0  0  0  0  0
    5.6114    1.2846   17.8609 C   0  0  0  0  0  0  0  0  0  0  0  0
    6.7947    0.6703   17.6606 N   0  0  0  0  0  0  0  0  0  0  0  0
    7.3495    0.0150   18.7055 C   0  0  0  0  0  0  0  0  0  0  0  0
    8.2915   -0.4984   18.5386 H   0  0  0  0  0  0  0  0  0  0  0  0
    5.1409    1.8077   17.0349 H   0  0  0  0  0  0  0  0  0  0  0  0
    4.0086    1.7768   19.2151 H   0  0  0  0  0  0  0  0  0  0  0  0
    5.0463    0.5353   21.1476 H   0  0  0  0  0  0  0  0  0  0  0  0
    9.0315    1.1325   20.6181 H   0  0  0  0  0  0  0  0  0  0  0  0
   11.4691    0.9738   21.1470 H   0  0  0  0  0  0  0  0  0  0  0  0
   12.3799   -1.1200   22.0607 H   0  0  0  0  0  0  0  0  0  0  0  0
   10.9104   -3.0421   22.5384 H   0  0  0  0  0  0  0  0  0  0  0  0
    7.4263   -3.3545   21.5513 H   0  0  0  0  0  0  0  0  0  0  0  0
    8.6998   -4.0537   22.5560 H   0  0  0  0  0  0  0  0  0  0  0  0
    7.5682   -0.6157   27.6911 H   0  0  0  0  0  0  0  0  0  0  0  0
    3.3168   -0.6856   27.1104 H   0  0  0  0  0  0  0  0  0  0  0  0
    3.5938   -1.8991   24.9876 H   0  0  0  0  0  0  0  0  0  0  0  0
  1  2  2  0
  2  3  1  0
  3  4  2  0
  4  5  1  0
  5  6  2  0
  6  7  1  0
  6  8  1  0
  8  9  2  0
  9 10  1  0
 10 11  2  0
 10 12  2  0
 10 13  1  0
 13 14  1  0
 14 15  1  0
 15 16  2  0
 16 17  1  0
 17 18  2  0
 18 19  1  0
 19 20  2  0
 20 21  1  0
 21 22  1  0
 22 23  2  0
 23 24  1  0
 24 25  2  0
 25 26  1  0
 26 27  2  0
 27 28  1  0
 25 29  1  0
 24 30  1  0
 23 31  1  0
 19 32  1  0
 18 33  1  0
 17 34  1  0
 16 35  1  0
 14 36  1  0
 14 37  1  0
  8 38  1  0
  5 39  1  0
  4 40  1  0
 13  2  1  0
 20 15  1  0
 27 22  1  0
  9  3  1  0
M  END
>  <cnnaffinity>  (1) 
-5.92296

>  <filename>  (1) 
[H]c1nc([H])c(Oc2c([H])c([H])c([H])c([H])c2C([H])([H])N2C(=O)c3c([H])c([H])c(Br)c([H])c3S2(=O)=O)c([H])c1[H]

$$$$
