
     RDKit          3D

 29 31  0  0  0  0  0  0  0  0999 V2000
    2.6961   -4.4163   23.7612 H   0  0  0  0  0  0  0  0  0  0  0  0
    3.7394   -4.4918   23.4613 C   0  0  0  0  0  0  0  0  0  0  0  0
    4.2166   -3.4857   22.7247 N   0  0  0  0  0  0  0  0  0  0  0  0
    5.4883   -3.5413   22.3574 C   0  0  0  0  0  0  0  0  0  0  0  0
    5.7956   -2.4562   21.5533 N   0  0  0  0  0  0  0  0  0  0  0  0
    4.9544   -1.9057   21.6249 H   0  0  0  0  0  0  0  0  0  0  0  0
    6.9527   -1.7674   21.7733 C   0  0  0  0  0  0  0  0  0  0  0  0
    7.8447   -2.0815   22.6624 N   0  0  0  0  0  0  0  0  0  0  0  0
    8.8759   -1.2172   22.3728 N   0  0  0  0  0  0  0  0  0  0  0  0
    9.7715   -1.2592   22.8219 H   0  0  0  0  0  0  0  0  0  0  0  0
    8.6471   -0.4027   21.3197 C   0  0  0  0  0  0  0  0  0  0  0  0
    9.4087    0.4047   20.8226 O   0  0  0  0  0  0  0  0  0  0  0  0
    7.3342   -0.7331   20.9408 N   0  0  0  0  0  0  0  0  0  0  0  0
    6.6225   -0.0621   19.8881 C   0  0  0  0  0  0  0  0  0  0  0  0
    7.1446    0.0148   18.5766 C   0  0  0  0  0  0  0  0  0  0  0  0
    8.1103   -0.4405   18.3598 H   0  0  0  0  0  0  0  0  0  0  0  0
    6.5320    0.6489   17.5711 N   0  0  0  0  0  0  0  0  0  0  0  0
    5.3790    1.2825   17.8406 C   0  0  0  0  0  0  0  0  0  0  0  0
    4.9228    1.8168   17.0078 H   0  0  0  0  0  0  0  0  0  0  0  0
    4.7902    1.2845   19.1069 C   0  0  0  0  0  0  0  0  0  0  0  0
    3.8762    1.8437   19.2637 H   0  0  0  0  0  0  0  0  0  0  0  0
    5.4194    0.5964   20.1542 C   0  0  0  0  0  0  0  0  0  0  0  0
    5.0205    0.6199   21.1667 H   0  0  0  0  0  0  0  0  0  0  0  0
    6.3561   -4.5876   22.6816 C   0  0  0  0  0  0  0  0  0  0  0  0
    7.3908   -4.5031   22.3885 H   0  0  0  0  0  0  0  0  0  0  0  0
    5.8316   -5.6473   23.4117 C   0  0  0  0  0  0  0  0  0  0  0  0
    6.4607   -6.4964   23.6542 H   0  0  0  0  0  0  0  0  0  0  0  0
    4.4942   -5.6052   23.8212 C   0  0  0  0  0  0  0  0  0  0  0  0
    4.0419   -6.4062   24.3930 H   0  0  0  0  0  0  0  0  0  0  0  0
  1  2  1  0
  2  3  2  0
  3  4  1  0
  4  5  1  0
  5  6  1  0
  5  7  1  0
  7  8  2  0
  8  9  1  0
  9 10  1  0
  9 11  1  0
 11 12  2  0
 11 13  1  0
 13 14  1  0
 14 15  2  0
 15 16  1  0
 15 17  1  0
 17 18  2  0
 18 19  1  0
 18 20  1  0
 20 21  1  0
 20 22  2  0
 22 23  1  0
  4 24  2  0
 24 25  1  0
 24 26  1  0
 26 27  1  0
 26 28  2  0
 28 29  1  0
 28  2  1  0
 13  7  1  0
 22 14  1  0
M  END
>  <cnnaffinity>  (1) 
-5.11371

>  <filename>  (1) 
[H]c1nc(N([H])c2nn([H])c(=O)n2-c2c([H])nc([H])c([H])c2[H])c([H])c([H])c1[H]

$$$$
