
     RDKit          3D

 36 38  0  0  0  0  0  0  0  0999 V2000
    4.9268    1.7789   16.9974 H   0  0  0  0  0  0  0  0  0  0  0  0
    5.4079    1.2898   17.8417 C   0  0  0  0  0  0  0  0  0  0  0  0
    6.5656    0.6676   17.5933 N   0  0  0  0  0  0  0  0  0  0  0  0
    7.1654    0.0540   18.6238 C   0  0  0  0  0  0  0  0  0  0  0  0
    8.1007   -0.4454   18.3749 H   0  0  0  0  0  0  0  0  0  0  0  0
    6.6698    0.0328   19.9401 C   0  0  0  0  0  0  0  0  0  0  0  0
    7.4543   -0.7690   20.9797 C   0  0  0  0  0  0  0  0  0  0  0  0
    7.4620   -2.1602   20.5134 N   0  0  0  0  0  0  0  0  0  0  0  0
    8.0614   -2.6982   21.1246 H   0  0  0  0  0  0  0  0  0  0  0  0
    6.2035   -2.8653   20.4162 C   0  0  0  0  0  0  0  0  0  0  0  0
    5.4351   -2.2960   19.9021 H   0  0  0  0  0  0  0  0  0  0  0  0
    5.7881   -3.8352   21.4867 C   0  0  0  0  0  0  0  0  0  0  0  0
    6.4829   -3.9645   22.3139 H   0  0  0  0  0  0  0  0  0  0  0  0
    4.7414   -3.9244   21.7639 H   0  0  0  0  0  0  0  0  0  0  0  0
    6.2306   -4.3332   20.1377 C   0  0  0  0  0  0  0  0  0  0  0  0
    7.2003   -4.8122   20.0530 H   0  0  0  0  0  0  0  0  0  0  0  0
    5.4849   -4.7560   19.4667 H   0  0  0  0  0  0  0  0  0  0  0  0
    8.9144   -0.2764   21.0749 C   0  0  0  0  0  0  0  0  0  0  0  0
    9.4666   -0.9923   21.7030 H   0  0  0  0  0  0  0  0  0  0  0  0
    9.3854   -0.2988   20.0889 H   0  0  0  0  0  0  0  0  0  0  0  0
    9.0141    1.1251   21.7021 C   0  0  0  0  0  0  0  0  0  0  0  0
    8.4576    1.8433   21.0809 H   0  0  0  0  0  0  0  0  0  0  0  0
   10.0555    1.4617   21.7122 H   0  0  0  0  0  0  0  0  0  0  0  0
    8.4391    1.1260   23.1242 C   0  0  0  0  0  0  0  0  0  0  0  0
    8.5092    2.1217   23.5781 H   0  0  0  0  0  0  0  0  0  0  0  0
    9.0431    0.4518   23.7481 H   0  0  0  0  0  0  0  0  0  0  0  0
    6.9874    0.6380   23.1331 C   0  0  0  0  0  0  0  0  0  0  0  0
    6.3531    1.3938   22.6521 H   0  0  0  0  0  0  0  0  0  0  0  0
    6.6168    0.5414   24.1627 H   0  0  0  0  0  0  0  0  0  0  0  0
    6.8664   -0.7127   22.4103 C   0  0  0  0  0  0  0  0  0  0  0  0
    5.8461   -1.0461   22.2975 H   0  0  0  0  0  0  0  0  0  0  0  0
    7.3641   -1.4818   23.0233 H   0  0  0  0  0  0  0  0  0  0  0  0
    5.4417    0.6619   20.1673 C   0  0  0  0  0  0  0  0  0  0  0  0
    4.9872    0.6478   21.1562 H   0  0  0  0  0  0  0  0  0  0  0  0
    4.8090    1.3101   19.1046 C   0  0  0  0  0  0  0  0  0  0  0  0
    3.8773    1.8385   19.2566 H   0  0  0  0  0  0  0  0  0  0  0  0
  1  2  1  0
  2  3  2  0
  3  4  1  0
  4  5  1  0
  4  6  2  0
  6  7  1  0
  7  8  1  0
  8  9  1  0
  8 10  1  0
 10 11  1  0
 10 12  1  0
 12 13  1  0
 12 14  1  0
 12 15  1  0
 15 16  1  0
 15 17  1  0
  7 18  1  0
 18 19  1  0
 18 20  1  0
 18 21  1  0
 21 22  1  0
 21 23  1  0
 21 24  1  0
 24 25  1  0
 24 26  1  0
 24 27  1  0
 27 28  1  0
 27 29  1  0
 27 30  1  0
 30 31  1  0
 30 32  1  0
  6 33  1  0
 33 34  1  0
 33 35  2  0
 35 36  1  0
 35  2  1  0
 30  7  1  0
 15 10  1  0
M  END
>  <cnnaffinity>  (1) 
-4.67547

>  <filename>  (1) 
[H]c1nc([H])c(C2(N([H])C3([H])C([H])([H])C3([H])[H])C([H])([H])C([H])([H])C([H])([H])C([H])([H])C2([H])[H])c([H])c1[H]

$$$$
