
     RDKit          3D

 27 29  0  0  0  0  0  0  0  0999 V2000
    4.9196    1.8142   16.9671 H   0  0  0  0  0  0  0  0  0  0  0  0
    5.3839    1.3033   17.8103 C   0  0  0  0  0  0  0  0  0  0  0  0
    6.5458    0.6828   17.5514 N   0  0  0  0  0  0  0  0  0  0  0  0
    7.1506    0.0693   18.5755 C   0  0  0  0  0  0  0  0  0  0  0  0
    8.1036   -0.4074   18.3431 H   0  0  0  0  0  0  0  0  0  0  0  0
    6.6491    0.0350   19.8939 C   0  0  0  0  0  0  0  0  0  0  0  0
    7.3699   -0.6613   21.0133 C   0  0  0  0  0  0  0  0  0  0  0  0
    7.6312   -2.0287   20.9029 C   0  0  0  0  0  0  0  0  0  0  0  0
    7.2517   -2.5265   20.0167 H   0  0  0  0  0  0  0  0  0  0  0  0
    8.2404   -2.7846   21.8194 N   0  0  0  0  0  0  0  0  0  0  0  0
    8.5659   -2.1874   22.9747 C   0  0  0  0  0  0  0  0  0  0  0  0
    9.0309   -2.8303   23.7233 H   0  0  0  0  0  0  0  0  0  0  0  0
    8.3091   -0.8450   23.2433 C   0  0  0  0  0  0  0  0  0  0  0  0
    8.5725   -0.4119   24.2014 H   0  0  0  0  0  0  0  0  0  0  0  0
    7.7356   -0.0578   22.2359 C   0  0  0  0  0  0  0  0  0  0  0  0
    7.5420    1.3273   22.4483 N   0  0  0  0  0  0  0  0  0  0  0  0
    6.9846    1.9068   23.5535 C   0  0  0  0  0  0  0  0  0  0  0  0
    6.6143    1.3148   24.3773 H   0  0  0  0  0  0  0  0  0  0  0  0
    6.9334    3.2096   23.4562 N   0  0  0  0  0  0  0  0  0  0  0  0
    7.4746    3.5078   22.2289 C   0  0  0  0  0  0  0  0  0  0  0  0
    7.5605    4.5371   21.9053 H   0  0  0  0  0  0  0  0  0  0  0  0
    7.8515    2.3632   21.5843 C   0  0  0  0  0  0  0  0  0  0  0  0
    8.2228    2.1519   20.5946 H   0  0  0  0  0  0  0  0  0  0  0  0
    5.4249    0.6705   20.1339 C   0  0  0  0  0  0  0  0  0  0  0  0
    5.0265    0.6666   21.1496 H   0  0  0  0  0  0  0  0  0  0  0  0
    4.7843    1.3155   19.0746 C   0  0  0  0  0  0  0  0  0  0  0  0
    3.8548    1.8510   19.2217 H   0  0  0  0  0  0  0  0  0  0  0  0
  1  2  1  0
  2  3  2  0
  3  4  1  0
  4  5  1  0
  4  6  2  0
  6  7  1  0
  7  8  2  0
  8  9  1  0
  8 10  1  0
 10 11  2  0
 11 12  1  0
 11 13  1  0
 13 14  1  0
 13 15  2  0
 15 16  1  0
 16 17  1  0
 17 18  1  0
 17 19  2  0
 19 20  1  0
 20 21  1  0
 20 22  2  0
 22 23  1  0
  6 24  1  0
 24 25  1  0
 24 26  2  0
 26 27  1  0
 26  2  1  0
 15  7  1  0
 22 16  1  0
M  END
>  <cnnaffinity>  (1) 
-4.81203

>  <filename>  (1) 
[H]c1nc([H])c(-c2c([H])nc([H])c([H])c2-n2c([H])nc([H])c2[H])c([H])c1[H]

$$$$
