
     RDKit          3D

 51 55  0  0  0  0  0  0  0  0999 V2000
    4.7792    1.3446   18.9189 C   0  0  0  0  0  0  0  0  0  0  0  0
    5.4236    1.2981   17.6801 C   0  0  0  0  0  0  0  0  0  0  0  0
    6.5233    0.5666   17.4442 N   0  0  0  0  0  0  0  0  0  0  0  0
    7.0277   -0.1262   18.4745 C   0  0  0  0  0  0  0  0  0  0  0  0
    6.4840   -0.1312   19.7729 C   0  0  0  0  0  0  0  0  0  0  0  0
    7.1860   -0.8002   20.9558 C   0  0  0  0  0  0  0  0  0  0  0  0
    7.9732    0.1752   21.7801 C   0  0  0  0  0  0  0  0  0  0  0  0
    7.4692    0.8575   22.7905 N   0  0  0  0  0  0  0  0  0  0  0  0
    8.4878    1.6825   23.1428 N   0  0  0  0  0  0  0  0  0  0  0  0
    8.3543    2.5637   24.2965 C   0  0  0  0  0  0  0  0  0  0  0  0
    7.4465    3.7857   24.0701 C   0  0  0  0  0  0  0  0  0  0  0  0
    7.6861    4.6357   22.8056 C   0  0  0  0  0  0  0  0  0  0  0  0
    6.5632    5.6794   22.6639 C   0  0  0  0  0  0  0  0  0  0  0  0
    6.4766    6.5853   23.9079 C   0  0  0  0  0  0  0  0  0  0  0  0
    6.3920    5.7761   25.2145 C   0  0  0  0  0  0  0  0  0  0  0  0
    7.5025    4.7199   25.2903 C   0  0  0  0  0  0  0  0  0  0  0  0
    8.4882    5.2159   25.2954 H   0  0  0  0  0  0  0  0  0  0  0  0
    7.4406    4.1451   26.2227 H   0  0  0  0  0  0  0  0  0  0  0  0
    5.4220    5.2581   25.2617 H   0  0  0  0  0  0  0  0  0  0  0  0
    6.4284    6.4437   26.0839 H   0  0  0  0  0  0  0  0  0  0  0  0
    5.6180    7.2641   23.8280 H   0  0  0  0  0  0  0  0  0  0  0  0
    7.3738    7.2215   23.9426 H   0  0  0  0  0  0  0  0  0  0  0  0
    6.7084    6.2875   21.7620 H   0  0  0  0  0  0  0  0  0  0  0  0
    5.6093    5.1486   22.5276 H   0  0  0  0  0  0  0  0  0  0  0  0
    8.6368    5.1837   22.8980 H   0  0  0  0  0  0  0  0  0  0  0  0
    7.7542    4.0076   21.9076 H   0  0  0  0  0  0  0  0  0  0  0  0
    6.4261    3.3788   23.9825 H   0  0  0  0  0  0  0  0  0  0  0  0
    7.9296    1.9615   25.1079 H   0  0  0  0  0  0  0  0  0  0  0  0
    9.3561    2.8728   24.6034 H   0  0  0  0  0  0  0  0  0  0  0  0
    9.5523    1.4199   22.3501 C   0  0  0  0  0  0  0  0  0  0  0  0
   10.8475    2.0674   22.5027 C   0  0  0  0  0  0  0  0  0  0  0  0
   11.9628    1.1950   22.6556 C   0  0  0  0  0  0  0  0  0  0  0  0
   13.2176    1.5861   22.7219 N   0  0  0  0  0  0  0  0  0  0  0  0
   13.3995    2.9316   22.5998 C   0  0  0  0  0  0  0  0  0  0  0  0
   14.5845    3.6937   22.4604 C   0  0  0  0  0  0  0  0  0  0  0  0
   14.3249    4.9830   22.3593 N   0  0  0  0  0  0  0  0  0  0  0  0
   12.9768    5.0985   22.4169 N   0  0  0  0  0  0  0  0  0  0  0  0
   12.3556    3.8889   22.5192 C   0  0  0  0  0  0  0  0  0  0  0  0
   11.0267    3.4490   22.4755 C   0  0  0  0  0  0  0  0  0  0  0  0
   10.1965    4.1413   22.4030 H   0  0  0  0  0  0  0  0  0  0  0  0
   12.5511    6.0034   22.2643 H   0  0  0  0  0  0  0  0  0  0  0  0
   15.5748    3.2679   22.3829 H   0  0  0  0  0  0  0  0  0  0  0  0
   11.7818    0.1283   22.7418 H   0  0  0  0  0  0  0  0  0  0  0  0
    9.2643    0.4694   21.4810 N   0  0  0  0  0  0  0  0  0  0  0  0
    7.8853   -1.5707   20.6114 H   0  0  0  0  0  0  0  0  0  0  0  0
    6.4587   -1.2758   21.6215 H   0  0  0  0  0  0  0  0  0  0  0  0
    5.3159    0.6154   19.9826 C   0  0  0  0  0  0  0  0  0  0  0  0
    4.8460    0.6331   20.9685 H   0  0  0  0  0  0  0  0  0  0  0  0
    7.9250   -0.7076   18.2560 H   0  0  0  0  0  0  0  0  0  0  0  0
    5.0441    1.8791   16.8415 H   0  0  0  0  0  0  0  0  0  0  0  0
    3.8941    1.9602   19.0387 H   0  0  0  0  0  0  0  0  0  0  0  0
  1  2  2  0
  2  3  1  0
  3  4  2  0
  4  5  1  0
  5  6  1  0
  6  7  1  0
  7  8  2  0
  8  9  1  0
  9 10  1  0
 10 11  1  0
 11 12  1  0
 12 13  1  0
 13 14  1  0
 14 15  1  0
 15 16  1  0
 16 17  1  0
 16 18  1  0
 15 19  1  0
 15 20  1  0
 14 21  1  0
 14 22  1  0
 13 23  1  0
 13 24  1  0
 12 25  1  0
 12 26  1  0
 11 27  1  0
 10 28  1  0
 10 29  1  0
  9 30  1  0
 30 31  1  0
 31 32  2  0
 32 33  1  0
 33 34  2  0
 34 35  1  0
 35 36  2  0
 36 37  1  0
 37 38  1  0
 38 39  2  0
 39 40  1  0
 37 41  1  0
 35 42  1  0
 32 43  1  0
 30 44  2  0
  6 45  1  0
  6 46  1  0
  5 47  2  0
 47 48  1  0
  4 49  1  0
  2 50  1  0
  1 51  1  0
 47  1  1  0
 44  7  1  0
 16 11  1  0
 39 31  1  0
 38 34  1  0
M  END
>  <cnnaffinity>  (1) 
-6.7235

>  <filename>  (1) 
[H]c1nc([H])c(C([H])([H])c2nc(-c3c([H])nc4c([H])nn([H])c4c3[H])n(C([H])([H])C3([H])C([H])([H])C([H])([H])C([H])([H])C([H])([H])C3([H])[H])n2)c([H])c1[H]

$$$$
