
     RDKit          3D

 39 41  0  0  0  0  0  0  0  0999 V2000
    4.9295    1.8208   16.9757 H   0  0  0  0  0  0  0  0  0  0  0  0
    5.4034    1.3069   17.8044 C   0  0  0  0  0  0  0  0  0  0  0  0
    6.5449    0.6602   17.5206 N   0  0  0  0  0  0  0  0  0  0  0  0
    7.1581    0.0391   18.5307 C   0  0  0  0  0  0  0  0  0  0  0  0
    8.0660   -0.5112   18.2897 H   0  0  0  0  0  0  0  0  0  0  0  0
    6.6831    0.0343   19.8438 C   0  0  0  0  0  0  0  0  0  0  0  0
    7.4777   -0.6396   20.8583 C   0  0  0  0  0  0  0  0  0  0  0  0
    8.8047   -0.9038   20.9444 C   0  0  0  0  0  0  0  0  0  0  0  0
    9.6087   -0.6057   20.2968 H   0  0  0  0  0  0  0  0  0  0  0  0
    9.0536   -1.6697   22.1423 C   0  0  0  0  0  0  0  0  0  0  0  0
   10.1053   -2.0882   22.6130 O   0  0  0  0  0  0  0  0  0  0  0  0
    7.7410   -1.8352   22.6790 N   0  0  0  0  0  0  0  0  0  0  0  0
    7.0817   -2.6522   23.6137 N   0  0  0  0  0  0  0  0  0  0  0  0
    8.0084   -3.7058   24.0687 C   0  0  0  0  0  0  0  0  0  0  0  0
    8.3025   -4.2602   23.1713 H   0  0  0  0  0  0  0  0  0  0  0  0
    8.9229   -3.2582   24.4834 H   0  0  0  0  0  0  0  0  0  0  0  0
    7.4632   -4.6991   25.1022 C   0  0  0  0  0  0  0  0  0  0  0  0
    6.4282   -4.9985   24.8406 H   0  0  0  0  0  0  0  0  0  0  0  0
    8.0916   -5.5973   25.0279 H   0  0  0  0  0  0  0  0  0  0  0  0
    7.5749   -4.1935   26.4716 N   0  0  0  0  0  0  0  0  0  0  0  0
    7.6347   -5.2276   27.4862 C   0  0  0  0  0  0  0  0  0  0  0  0
    7.8614   -4.7656   28.4545 H   0  0  0  0  0  0  0  0  0  0  0  0
    6.6982   -5.8105   27.5827 H   0  0  0  0  0  0  0  0  0  0  0  0
    8.4527   -5.9226   27.2628 H   0  0  0  0  0  0  0  0  0  0  0  0
    6.6047   -3.1577   26.7823 C   0  0  0  0  0  0  0  0  0  0  0  0
    6.6608   -2.9398   27.8408 H   0  0  0  0  0  0  0  0  0  0  0  0
    5.5627   -3.5020   26.6205 H   0  0  0  0  0  0  0  0  0  0  0  0
    6.8621   -1.8578   26.0351 C   0  0  0  0  0  0  0  0  0  0  0  0
    6.3669   -1.0347   26.5687 H   0  0  0  0  0  0  0  0  0  0  0  0
    7.9416   -1.6528   26.0165 H   0  0  0  0  0  0  0  0  0  0  0  0
    6.3218   -1.8523   24.6118 C   0  0  0  0  0  0  0  0  0  0  0  0
    5.2762   -2.1941   24.6073 H   0  0  0  0  0  0  0  0  0  0  0  0
    6.2992   -0.8150   24.2610 H   0  0  0  0  0  0  0  0  0  0  0  0
    6.8283   -1.1121   21.9488 N   0  0  0  0  0  0  0  0  0  0  0  0
    5.8942   -1.5065   21.9390 H   0  0  0  0  0  0  0  0  0  0  0  0
    5.4603    0.6655   20.1171 C   0  0  0  0  0  0  0  0  0  0  0  0
    5.0543    0.6356   21.1317 H   0  0  0  0  0  0  0  0  0  0  0  0
    4.8153    1.3253   19.0776 C   0  0  0  0  0  0  0  0  0  0  0  0
    3.8813    1.8516   19.2400 H   0  0  0  0  0  0  0  0  0  0  0  0
  1  2  1  0
  2  3  2  0
  3  4  1  0
  4  5  1  0
  4  6  2  0
  6  7  1  0
  7  8  2  0
  8  9  1  0
  8 10  1  0
 10 11  2  0
 10 12  1  0
 12 13  1  0
 13 14  1  0
 14 15  1  0
 14 16  1  0
 14 17  1  0
 17 18  1  0
 17 19  1  0
 17 20  1  0
 20 21  1  0
 21 22  1  0
 21 23  1  0
 21 24  1  0
 20 25  1  0
 25 26  1  0
 25 27  1  0
 25 28  1  0
 28 29  1  0
 28 30  1  0
 28 31  1  0
 31 32  1  0
 31 33  1  0
 12 34  1  0
 34 35  1  0
  6 36  1  0
 36 37  1  0
 36 38  2  0
 38 39  1  0
 38  2  1  0
 34  7  1  0
 31 13  1  0
M  END
>  <cnnaffinity>  (1) 
-4.98068

>  <filename>  (1) 
[H]c1nc([H])c(-c2c([H])c(=O)n(N3C([H])([H])C([H])([H])N(C([H])([H])[H])C([H])([H])C([H])([H])C3([H])[H])n2[H])c([H])c1[H]

$$$$
