
     RDKit          3D

 25 27  0  0  0  0  0  0  0  0999 V2000
    4.9246    1.7805   16.9945 H   0  0  0  0  0  0  0  0  0  0  0  0
    5.4013    1.2916   17.8392 C   0  0  0  0  0  0  0  0  0  0  0  0
    6.5634    0.6748   17.5828 N   0  0  0  0  0  0  0  0  0  0  0  0
    7.1643    0.0640   18.6037 C   0  0  0  0  0  0  0  0  0  0  0  0
    8.1081   -0.4146   18.3592 H   0  0  0  0  0  0  0  0  0  0  0  0
    6.6519    0.0116   19.9109 C   0  0  0  0  0  0  0  0  0  0  0  0
    7.3814   -0.6996   20.9645 C   0  0  0  0  0  0  0  0  0  0  0  0
    6.8957   -0.7687   22.2622 N   0  0  0  0  0  0  0  0  0  0  0  0
    7.7779   -1.4616   22.9080 C   0  0  0  0  0  0  0  0  0  0  0  0
    7.7566   -1.8159   24.2572 N   0  0  0  0  0  0  0  0  0  0  0  0
    8.7064   -2.5643   24.9665 C   0  0  0  0  0  0  0  0  0  0  0  0
    9.5989   -2.9568   24.4875 H   0  0  0  0  0  0  0  0  0  0  0  0
    8.2789   -2.6643   26.2574 C   0  0  0  0  0  0  0  0  0  0  0  0
    8.7920   -3.1837   27.0581 H   0  0  0  0  0  0  0  0  0  0  0  0
    7.0327   -1.9644   26.3671 C   0  0  0  0  0  0  0  0  0  0  0  0
    6.4311   -1.8547   27.2632 H   0  0  0  0  0  0  0  0  0  0  0  0
    6.7341   -1.4571   25.1405 C   0  0  0  0  0  0  0  0  0  0  0  0
    5.8839   -0.8689   24.7972 H   0  0  0  0  0  0  0  0  0  0  0  0
    8.8238   -1.8744   22.1563 O   0  0  0  0  0  0  0  0  0  0  0  0
    8.5550   -1.3712   20.9026 C   0  0  0  0  0  0  0  0  0  0  0  0
    9.2540   -1.5610   20.1005 H   0  0  0  0  0  0  0  0  0  0  0  0
    5.4279    0.6570   20.1644 C   0  0  0  0  0  0  0  0  0  0  0  0
    5.0025    0.6341   21.1731 H   0  0  0  0  0  0  0  0  0  0  0  0
    4.8039    1.3108   19.1048 C   0  0  0  0  0  0  0  0  0  0  0  0
    3.8737    1.8432   19.2540 H   0  0  0  0  0  0  0  0  0  0  0  0
  1  2  1  0
  2  3  2  0
  3  4  1  0
  4  5  1  0
  4  6  2  0
  6  7  1  0
  7  8  1  0
  8  9  2  0
  9 10  1  0
 10 11  1  0
 11 12  1  0
 11 13  2  0
 13 14  1  0
 13 15  1  0
 15 16  1  0
 15 17  2  0
 17 18  1  0
  9 19  1  0
 19 20  1  0
 20 21  1  0
  6 22  1  0
 22 23  1  0
 22 24  2  0
 24 25  1  0
 24  2  1  0
 20  7  2  0
 17 10  1  0
M  END
>  <cnnaffinity>  (1) 
-4.59001

>  <filename>  (1) 
[H]c1nc([H])c(-c2nc(-n3c([H])c([H])c([H])c3[H])oc2[H])c([H])c1[H]

$$$$
