
     RDKit          3D

 45 49  0  0  0  0  0  0  0  0999 V2000
   10.6285    4.4356   24.7929 F   0  0  0  0  0  0  0  0  0  0  0  0
    9.7237    4.6864   23.8293 C   0  0  0  0  0  0  0  0  0  0  0  0
    9.8294    5.8674   23.1031 C   0  0  0  0  0  0  0  0  0  0  0  0
    8.8637    6.1001   22.1146 C   0  0  0  0  0  0  0  0  0  0  0  0
    7.8626    5.1523   21.9139 C   0  0  0  0  0  0  0  0  0  0  0  0
    7.7732    4.0213   22.6314 N   0  0  0  0  0  0  0  0  0  0  0  0
    8.6745    3.7770   23.5816 C   0  0  0  0  0  0  0  0  0  0  0  0
    8.5183    2.4612   24.3373 C   0  0  0  0  0  0  0  0  0  0  0  0
    8.5268    1.2902   23.3993 C   0  0  0  0  0  0  0  0  0  0  0  0
    7.4682    0.6407   22.9585 N   0  0  0  0  0  0  0  0  0  0  0  0
    7.9752   -0.1360   21.9604 C   0  0  0  0  0  0  0  0  0  0  0  0
    7.1589   -0.9398   20.9840 C   0  0  0  0  0  0  0  0  0  0  0  0
    6.5777   -0.1360   19.8160 C   0  0  0  0  0  0  0  0  0  0  0  0
    5.4637    0.6904   20.0211 C   0  0  0  0  0  0  0  0  0  0  0  0
    4.9232    1.3838   18.9353 C   0  0  0  0  0  0  0  0  0  0  0  0
    5.5288    1.2504   17.6833 C   0  0  0  0  0  0  0  0  0  0  0  0
    6.6137    0.4911   17.4674 N   0  0  0  0  0  0  0  0  0  0  0  0
    7.1150   -0.1768   18.5154 C   0  0  0  0  0  0  0  0  0  0  0  0
    8.0031   -0.7783   18.3145 H   0  0  0  0  0  0  0  0  0  0  0  0
    5.1307    1.7755   16.8156 H   0  0  0  0  0  0  0  0  0  0  0  0
    4.0551    2.0246   19.0431 H   0  0  0  0  0  0  0  0  0  0  0  0
    5.0399    0.7863   21.0233 H   0  0  0  0  0  0  0  0  0  0  0  0
    7.8117   -1.7359   20.6118 H   0  0  0  0  0  0  0  0  0  0  0  0
    6.3540   -1.4117   21.5546 H   0  0  0  0  0  0  0  0  0  0  0  0
    9.2744   -0.0430   21.7966 N   0  0  0  0  0  0  0  0  0  0  0  0
    9.6472    0.8458   22.7563 N   0  0  0  0  0  0  0  0  0  0  0  0
   10.8927    1.5509   22.6427 C   0  0  0  0  0  0  0  0  0  0  0  0
   11.9087    1.3812   23.6209 C   0  0  0  0  0  0  0  0  0  0  0  0
   13.0279    2.1954   23.6021 C   0  0  0  0  0  0  0  0  0  0  0  0
   13.0842    3.2130   22.6244 C   0  0  0  0  0  0  0  0  0  0  0  0
   13.9803    4.2181   22.4269 N   0  0  0  0  0  0  0  0  0  0  0  0
   13.6633    5.0121   21.3781 N   0  0  0  0  0  0  0  0  0  0  0  0
   12.5460    4.5054   20.8817 C   0  0  0  0  0  0  0  0  0  0  0  0
   12.1135    3.3473   21.6159 C   0  0  0  0  0  0  0  0  0  0  0  0
   11.0157    2.4499   21.5951 C   0  0  0  0  0  0  0  0  0  0  0  0
   10.2385    2.4729   20.8405 H   0  0  0  0  0  0  0  0  0  0  0  0
   12.1005    4.9473   20.0057 H   0  0  0  0  0  0  0  0  0  0  0  0
   14.7849    4.4133   22.9979 H   0  0  0  0  0  0  0  0  0  0  0  0
   13.8354    2.0557   24.3033 H   0  0  0  0  0  0  0  0  0  0  0  0
   11.7926    0.6186   24.3882 H   0  0  0  0  0  0  0  0  0  0  0  0
    9.3088    2.3674   25.0873 H   0  0  0  0  0  0  0  0  0  0  0  0
    7.5454    2.4623   24.8340 H   0  0  0  0  0  0  0  0  0  0  0  0
    7.0974    5.3024   21.1548 H   0  0  0  0  0  0  0  0  0  0  0  0
    8.8729    6.9915   21.4991 H   0  0  0  0  0  0  0  0  0  0  0  0
   10.6371    6.5654   23.3156 H   0  0  0  0  0  0  0  0  0  0  0  0
  1  2  1  0
  2  3  2  0
  3  4  1  0
  4  5  2  0
  5  6  1  0
  6  7  2  0
  7  8  1  0
  8  9  1  0
  9 10  2  0
 10 11  1  0
 11 12  1  0
 12 13  1  0
 13 14  2  0
 14 15  1  0
 15 16  2  0
 16 17  1  0
 17 18  2  0
 18 19  1  0
 16 20  1  0
 15 21  1  0
 14 22  1  0
 12 23  1  0
 12 24  1  0
 11 25  2  0
 25 26  1  0
 26 27  1  0
 27 28  2  0
 28 29  1  0
 29 30  2  0
 30 31  1  0
 31 32  1  0
 32 33  2  0
 33 34  1  0
 34 35  2  0
 35 36  1  0
 33 37  1  0
 31 38  1  0
 29 39  1  0
 28 40  1  0
  8 41  1  0
  8 42  1  0
  5 43  1  0
  4 44  1  0
  3 45  1  0
  7  2  1  0
 26  9  1  0
 35 27  1  0
 18 13  1  0
 34 30  1  0
M  END
>  <cnnaffinity>  (1) 
-6.78541

>  <filename>  (1) 
[H]c1nc(C([H])([H])c2nc(C([H])([H])c3c([H])nc([H])c([H])c3[H])nn2-c2c([H])c([H])c3c(c([H])nn3[H])c2[H])c(F)c([H])c1[H]

$$$$
