
     RDKit          3D

 53 57  0  0  0  0  0  0  0  0999 V2000
   12.2449    5.8002   22.0595 C   0  0  0  0  0  0  0  0  0  0  0  0
   13.0256    4.6355   22.2733 N   0  0  0  0  0  0  0  0  0  0  0  0
   14.4000    4.7064   22.3151 C   0  0  0  0  0  0  0  0  0  0  0  0
   15.0705    5.7165   22.2486 O   0  0  0  0  0  0  0  0  0  0  0  0
   14.8161    3.4006   22.4488 N   0  0  0  0  0  0  0  0  0  0  0  0
   13.7297    2.5503   22.6600 C   0  0  0  0  0  0  0  0  0  0  0  0
   13.5936    1.1841   22.8752 C   0  0  0  0  0  0  0  0  0  0  0  0
   12.3026    0.6376   22.8678 C   0  0  0  0  0  0  0  0  0  0  0  0
   11.1654    1.4449   22.6289 C   0  0  0  0  0  0  0  0  0  0  0  0
    9.7861    0.9067   22.5396 C   0  0  0  0  0  0  0  0  0  0  0  0
    9.3622   -0.1248   21.8283 N   0  0  0  0  0  0  0  0  0  0  0  0
    8.0123    0.0222   21.8455 C   0  0  0  0  0  0  0  0  0  0  0  0
    7.0958   -0.8188   20.9871 C   0  0  0  0  0  0  0  0  0  0  0  0
    6.4471   -0.0790   19.8082 C   0  0  0  0  0  0  0  0  0  0  0  0
    5.2778    0.6710   19.9973 C   0  0  0  0  0  0  0  0  0  0  0  0
    4.7448    1.3851   18.9193 C   0  0  0  0  0  0  0  0  0  0  0  0
    5.3941    1.3204   17.6848 C   0  0  0  0  0  0  0  0  0  0  0  0
    6.5051    0.5989   17.4706 N   0  0  0  0  0  0  0  0  0  0  0  0
    7.0041   -0.0773   18.5132 C   0  0  0  0  0  0  0  0  0  0  0  0
    7.9124   -0.6470   18.3129 H   0  0  0  0  0  0  0  0  0  0  0  0
    5.0073    1.8675   16.8267 H   0  0  0  0  0  0  0  0  0  0  0  0
    3.8505    1.9909   19.0217 H   0  0  0  0  0  0  0  0  0  0  0  0
    4.7990    0.6956   20.9785 H   0  0  0  0  0  0  0  0  0  0  0  0
    7.6903   -1.6674   20.6322 H   0  0  0  0  0  0  0  0  0  0  0  0
    6.3135   -1.2275   21.6374 H   0  0  0  0  0  0  0  0  0  0  0  0
    7.5777    1.0169   22.5957 N   0  0  0  0  0  0  0  0  0  0  0  0
    8.7191    1.5979   23.0334 N   0  0  0  0  0  0  0  0  0  0  0  0
    8.6527    2.6402   24.0645 C   0  0  0  0  0  0  0  0  0  0  0  0
    7.7095    3.8208   23.7644 C   0  0  0  0  0  0  0  0  0  0  0  0
    7.9604    4.5042   22.4229 C   0  0  0  0  0  0  0  0  0  0  0  0
    7.1942    5.2671   22.2365 H   0  0  0  0  0  0  0  0  0  0  0  0
    8.9226    5.0313   22.4097 H   0  0  0  0  0  0  0  0  0  0  0  0
    7.9269    3.7930   21.5949 H   0  0  0  0  0  0  0  0  0  0  0  0
    6.2151    3.4829   24.0572 C   0  0  0  0  0  0  0  0  0  0  0  0
    6.2102    4.4621   25.2526 C   0  0  0  0  0  0  0  0  0  0  0  0
    7.6760    4.8385   24.9438 C   0  0  0  0  0  0  0  0  0  0  0  0
    7.8157    5.8784   24.6305 H   0  0  0  0  0  0  0  0  0  0  0  0
    8.3926    4.6443   25.7478 H   0  0  0  0  0  0  0  0  0  0  0  0
    6.0677    3.9802   26.2239 H   0  0  0  0  0  0  0  0  0  0  0  0
    5.4944    5.2852   25.1714 H   0  0  0  0  0  0  0  0  0  0  0  0
    6.0386    2.4369   24.3223 H   0  0  0  0  0  0  0  0  0  0  0  0
    5.5324    3.7294   23.2378 H   0  0  0  0  0  0  0  0  0  0  0  0
    8.3212    2.1620   24.9950 H   0  0  0  0  0  0  0  0  0  0  0  0
    9.6607    3.0171   24.2409 H   0  0  0  0  0  0  0  0  0  0  0  0
   11.3321    2.8139   22.3750 C   0  0  0  0  0  0  0  0  0  0  0  0
   12.5983    3.3456   22.4426 C   0  0  0  0  0  0  0  0  0  0  0  0
   10.4928    3.4427   22.0918 H   0  0  0  0  0  0  0  0  0  0  0  0
   12.1600   -0.4222   23.0587 H   0  0  0  0  0  0  0  0  0  0  0  0
   14.4667    0.5537   23.0044 H   0  0  0  0  0  0  0  0  0  0  0  0
   15.7664    3.2288   22.7067 H   0  0  0  0  0  0  0  0  0  0  0  0
   12.1830    6.4109   22.9713 H   0  0  0  0  0  0  0  0  0  0  0  0
   12.7514    6.3604   21.2697 H   0  0  0  0  0  0  0  0  0  0  0  0
   11.2355    5.5380   21.7462 H   0  0  0  0  0  0  0  0  0  0  0  0
  1  2  1  0
  2  3  1  0
  3  4  2  0
  3  5  1  0
  5  6  1  0
  6  7  2  0
  7  8  1  0
  8  9  2  0
  9 10  1  0
 10 11  2  0
 11 12  1  0
 12 13  1  0
 13 14  1  0
 14 15  2  0
 15 16  1  0
 16 17  2  0
 17 18  1  0
 18 19  2  0
 19 20  1  0
 17 21  1  0
 16 22  1  0
 15 23  1  0
 13 24  1  0
 13 25  1  0
 12 26  2  0
 26 27  1  0
 27 28  1  0
 28 29  1  0
 29 30  1  0
 30 31  1  0
 30 32  1  0
 30 33  1  0
 29 34  1  0
 34 35  1  0
 35 36  1  0
 36 37  1  0
 36 38  1  0
 35 39  1  0
 35 40  1  0
 34 41  1  0
 34 42  1  0
 28 43  1  0
 28 44  1  0
  9 45  1  0
 45 46  2  0
 45 47  1  0
  8 48  1  0
  7 49  1  0
  5 50  1  0
  1 51  1  0
  1 52  1  0
  1 53  1  0
 46  2  1  0
 46  6  1  0
 27 10  1  0
 36 29  1  0
 19 14  1  0
M  END
>  <cnnaffinity>  (1) 
-6.82387

>  <filename>  (1) 
[H]c1nc([H])c(C([H])([H])c2nc(-c3c([H])c([H])c4c(c3[H])n(C([H])([H])[H])c(=O)n4[H])n(C([H])([H])C3(C([H])([H])[H])C([H])([H])C([H])([H])C3([H])[H])n2)c([H])c1[H]

$$$$
