
     RDKit          3D

 33 35  0  0  0  0  0  0  0  0999 V2000
    4.9824    1.8344   16.9186 H   0  0  0  0  0  0  0  0  0  0  0  0
    5.4206    1.2936   17.7554 C   0  0  0  0  0  0  0  0  0  0  0  0
    6.5701    0.6453   17.5119 N   0  0  0  0  0  0  0  0  0  0  0  0
    7.1481    0.0057   18.5331 C   0  0  0  0  0  0  0  0  0  0  0  0
    8.0839   -0.5034   18.3177 H   0  0  0  0  0  0  0  0  0  0  0  0
    6.6149   -0.0282   19.8353 C   0  0  0  0  0  0  0  0  0  0  0  0
    7.3712   -0.6419   20.9369 C   0  0  0  0  0  0  0  0  0  0  0  0
    8.5001   -1.3282   20.7018 N   0  0  0  0  0  0  0  0  0  0  0  0
    8.9350   -1.6109   21.9465 N   0  0  0  0  0  0  0  0  0  0  0  0
   10.0758   -2.1967   22.4696 C   0  0  0  0  0  0  0  0  0  0  0  0
   10.8202   -2.6235   21.8211 H   0  0  0  0  0  0  0  0  0  0  0  0
    9.9713   -2.0680   23.8180 C   0  0  0  0  0  0  0  0  0  0  0  0
   10.6422   -2.3414   24.6199 H   0  0  0  0  0  0  0  0  0  0  0  0
    8.7992   -1.3982   24.1155 N   0  0  0  0  0  0  0  0  0  0  0  0
    8.2604   -1.1583   25.3798 N   0  0  0  0  0  0  0  0  0  0  0  0
    7.6586   -0.3473   25.2806 H   0  0  0  0  0  0  0  0  0  0  0  0
    9.1701   -0.8390   26.4869 C   0  0  0  0  0  0  0  0  0  0  0  0
    9.7258   -1.7530   26.7493 H   0  0  0  0  0  0  0  0  0  0  0  0
   10.1375    0.2929   26.1508 C   0  0  0  0  0  0  0  0  0  0  0  0
    9.6387    1.2742   26.1457 H   0  0  0  0  0  0  0  0  0  0  0  0
   10.5949    0.1396   25.1687 H   0  0  0  0  0  0  0  0  0  0  0  0
   10.9269    0.3043   26.9055 H   0  0  0  0  0  0  0  0  0  0  0  0
    8.2625   -0.4817   27.6576 C   0  0  0  0  0  0  0  0  0  0  0  0
    8.8416   -0.3119   28.5680 H   0  0  0  0  0  0  0  0  0  0  0  0
    7.7151    0.4492   27.4578 H   0  0  0  0  0  0  0  0  0  0  0  0
    7.5334   -1.2776   27.8422 H   0  0  0  0  0  0  0  0  0  0  0  0
    8.1448   -1.1269   22.9321 C   0  0  0  0  0  0  0  0  0  0  0  0
    7.0772   -0.4976   22.3106 C   0  0  0  0  0  0  0  0  0  0  0  0
    6.2112   -0.0211   22.7360 H   0  0  0  0  0  0  0  0  0  0  0  0
    5.3941    0.6245   20.0651 C   0  0  0  0  0  0  0  0  0  0  0  0
    4.9271    0.6198   21.0516 H   0  0  0  0  0  0  0  0  0  0  0  0
    4.7915    1.2998   19.0079 C   0  0  0  0  0  0  0  0  0  0  0  0
    3.8721    1.8559   19.1489 H   0  0  0  0  0  0  0  0  0  0  0  0
  1  2  1  0
  2  3  2  0
  3  4  1  0
  4  5  1  0
  4  6  2  0
  6  7  1  0
  7  8  2  0
  8  9  1  0
  9 10  1  0
 10 11  1  0
 10 12  2  0
 12 13  1  0
 12 14  1  0
 14 15  1  0
 15 16  1  0
 15 17  1  0
 17 18  1  0
 17 19  1  0
 19 20  1  0
 19 21  1  0
 19 22  1  0
 17 23  1  0
 23 24  1  0
 23 25  1  0
 23 26  1  0
 14 27  1  0
 27 28  2  0
 28 29  1  0
  6 30  1  0
 30 31  1  0
 30 32  2  0
 32 33  1  0
 32  2  1  0
 28  7  1  0
 27  9  1  0
M  END
>  <cnnaffinity>  (1) 
-4.92896

>  <filename>  (1) 
[H]c1nc([H])c(-c2nn3c([H])c([H])n(N([H])C([H])(C([H])([H])[H])C([H])([H])[H])c3c2[H])c([H])c1[H]

$$$$
