
     RDKit          3D

 41 44  0  0  0  0  0  0  0  0999 V2000
    4.9740    1.8768   16.9708 H   0  0  0  0  0  0  0  0  0  0  0  0
    5.4295    1.3265   17.7929 C   0  0  0  0  0  0  0  0  0  0  0  0
    6.5826    0.6965   17.5220 N   0  0  0  0  0  0  0  0  0  0  0  0
    7.1610    0.0104   18.5208 C   0  0  0  0  0  0  0  0  0  0  0  0
    8.0926   -0.4878   18.2529 H   0  0  0  0  0  0  0  0  0  0  0  0
    6.6410   -0.1175   19.8311 C   0  0  0  0  0  0  0  0  0  0  0  0
    7.3392   -0.9241   20.8858 C   0  0  0  0  0  0  0  0  0  0  0  0
    8.5525   -0.6404   21.4147 C   0  0  0  0  0  0  0  0  0  0  0  0
    9.2771    0.6625   21.2524 C   0  0  0  0  0  0  0  0  0  0  0  0
    9.1913    0.9767   20.1968 H   0  0  0  0  0  0  0  0  0  0  0  0
   10.7896    0.6777   21.5803 C   0  0  0  0  0  0  0  0  0  0  0  0
   11.3464   -0.0533   20.9825 H   0  0  0  0  0  0  0  0  0  0  0  0
   10.9479    0.4284   22.6393 H   0  0  0  0  0  0  0  0  0  0  0  0
   11.3455    2.0795   21.3213 C   0  0  0  0  0  0  0  0  0  0  0  0
   12.4045    2.1313   21.6002 H   0  0  0  0  0  0  0  0  0  0  0  0
   11.3080    2.2825   20.2337 H   0  0  0  0  0  0  0  0  0  0  0  0
   10.6090    3.0708   22.1120 N   0  0  0  0  0  0  0  0  0  0  0  0
   10.9574    3.9873   21.8381 H   0  0  0  0  0  0  0  0  0  0  0  0
    9.1605    3.0803   21.8697 C   0  0  0  0  0  0  0  0  0  0  0  0
    8.9051    3.3017   20.8183 H   0  0  0  0  0  0  0  0  0  0  0  0
    8.7080    3.8627   22.4943 H   0  0  0  0  0  0  0  0  0  0  0  0
    8.5802    1.7129   22.1648 C   0  0  0  0  0  0  0  0  0  0  0  0
    7.4919    1.7045   22.0077 H   0  0  0  0  0  0  0  0  0  0  0  0
    8.7700    1.4567   23.2174 H   0  0  0  0  0  0  0  0  0  0  0  0
    8.9105   -1.5439   22.5677 C   0  0  0  0  0  0  0  0  0  0  0  0
    8.9927   -0.9474   23.4920 H   0  0  0  0  0  0  0  0  0  0  0  0
    9.8844   -2.0270   22.4162 H   0  0  0  0  0  0  0  0  0  0  0  0
    7.7529   -2.5336   22.6608 C   0  0  0  0  0  0  0  0  0  0  0  0
    6.7248   -2.1236   21.5893 C   0  0  0  0  0  0  0  0  0  0  0  0
    5.7646   -1.8488   22.0399 H   0  0  0  0  0  0  0  0  0  0  0  0
    6.5207   -2.9444   20.8896 H   0  0  0  0  0  0  0  0  0  0  0  0
    7.3420   -3.0630   24.0081 C   0  0  0  0  0  0  0  0  0  0  0  0
    7.9100   -2.7422   24.8792 H   0  0  0  0  0  0  0  0  0  0  0  0
    6.2867   -3.2313   24.2017 H   0  0  0  0  0  0  0  0  0  0  0  0
    8.0293   -3.9638   23.0254 C   0  0  0  0  0  0  0  0  0  0  0  0
    9.0600   -4.2384   23.2387 H   0  0  0  0  0  0  0  0  0  0  0  0
    7.4421   -4.7458   22.5548 H   0  0  0  0  0  0  0  0  0  0  0  0
    5.4297    0.5622   20.0771 C   0  0  0  0  0  0  0  0  0  0  0  0
    4.9873    0.5487   21.0767 H   0  0  0  0  0  0  0  0  0  0  0  0
    4.8185    1.2877   19.0515 C   0  0  0  0  0  0  0  0  0  0  0  0
    3.8927    1.8323   19.2061 H   0  0  0  0  0  0  0  0  0  0  0  0
  1  2  1  0
  2  3  2  0
  3  4  1  0
  4  5  1  0
  4  6  2  0
  6  7  1  0
  7  8  2  0
  8  9  1  0
  9 10  1  0
  9 11  1  0
 11 12  1  0
 11 13  1  0
 11 14  1  0
 14 15  1  0
 14 16  1  0
 14 17  1  0
 17 18  1  0
 17 19  1  0
 19 20  1  0
 19 21  1  0
 19 22  1  0
 22 23  1  0
 22 24  1  0
  8 25  1  0
 25 26  1  0
 25 27  1  0
 25 28  1  0
 28 29  1  0
 29 30  1  0
 29 31  1  0
 28 32  1  0
 32 33  1  0
 32 34  1  0
 32 35  1  0
 35 36  1  0
 35 37  1  0
  6 38  1  0
 38 39  1  0
 38 40  2  0
 40 41  1  0
 40  2  1  0
 29  7  1  0
 22  9  1  0
 35 28  1  0
M  END
>  <cnnaffinity>  (1) 
-5.55955

>  <filename>  (1) 
[H]c1nc([H])c(C2=C(C3([H])C([H])([H])C([H])([H])N([H])C([H])([H])C3([H])[H])C([H])([H])C3(C2([H])[H])C([H])([H])C3([H])[H])c([H])c1[H]

$$$$
