
     RDKit          3D

 41 43  0  0  0  0  0  0  0  0999 V2000
    5.0171    1.7539   17.0334 H   0  0  0  0  0  0  0  0  0  0  0  0
    5.4468    1.2403   17.8903 C   0  0  0  0  0  0  0  0  0  0  0  0
    6.6077    0.6003   17.6807 N   0  0  0  0  0  0  0  0  0  0  0  0
    7.1716    0.0018   18.7310 C   0  0  0  0  0  0  0  0  0  0  0  0
    8.1284   -0.4906   18.5624 H   0  0  0  0  0  0  0  0  0  0  0  0
    6.6110   -0.0180   20.0110 C   0  0  0  0  0  0  0  0  0  0  0  0
    7.4307   -0.7247   21.0157 C   0  0  0  0  0  0  0  0  0  0  0  0
    8.6498   -0.7700   20.9521 O   0  0  0  0  0  0  0  0  0  0  0  0
    6.7124   -1.3986   21.9581 N   0  0  0  0  0  0  0  0  0  0  0  0
    5.7886   -1.0321   22.0837 H   0  0  0  0  0  0  0  0  0  0  0  0
    7.3327   -1.7185   23.1988 C   0  0  0  0  0  0  0  0  0  0  0  0
    7.4495   -0.6967   24.1735 N   0  0  0  0  0  0  0  0  0  0  0  0
    6.1975   -0.1592   24.7078 C   0  0  0  0  0  0  0  0  0  0  0  0
    5.6568    0.4687   23.9745 H   0  0  0  0  0  0  0  0  0  0  0  0
    5.5353   -0.9933   24.9754 H   0  0  0  0  0  0  0  0  0  0  0  0
    6.4421    0.6882   25.9723 C   0  0  0  0  0  0  0  0  0  0  0  0
    5.4960    1.1652   26.2398 H   0  0  0  0  0  0  0  0  0  0  0  0
    6.7215    0.0266   26.8059 H   0  0  0  0  0  0  0  0  0  0  0  0
    7.4683    1.7180   25.7462 N   0  0  0  0  0  0  0  0  0  0  0  0
    7.5243    2.9327   26.4083 C   0  0  0  0  0  0  0  0  0  0  0  0
    8.4639    3.7000   26.2781 O   0  0  0  0  0  0  0  0  0  0  0  0
    6.3546    3.2871   27.3030 C   0  0  0  0  0  0  0  0  0  0  0  0
    6.6045    4.2155   27.8129 H   0  0  0  0  0  0  0  0  0  0  0  0
    6.1656    2.5053   28.0455 H   0  0  0  0  0  0  0  0  0  0  0  0
    5.4446    3.4396   26.7135 H   0  0  0  0  0  0  0  0  0  0  0  0
    8.7101    1.1768   25.1660 C   0  0  0  0  0  0  0  0  0  0  0  0
    9.3565    2.0207   24.9234 H   0  0  0  0  0  0  0  0  0  0  0  0
    9.2406    0.5698   25.9136 H   0  0  0  0  0  0  0  0  0  0  0  0
    8.4418    0.3462   23.9076 C   0  0  0  0  0  0  0  0  0  0  0  0
    8.1332    1.0233   23.0952 H   0  0  0  0  0  0  0  0  0  0  0  0
    9.3790   -0.1265   23.5903 H   0  0  0  0  0  0  0  0  0  0  0  0
    7.0052   -3.0872   23.6986 C   0  0  0  0  0  0  0  0  0  0  0  0
    6.3474   -3.6831   23.0770 H   0  0  0  0  0  0  0  0  0  0  0  0
    6.8878   -3.1913   24.7711 H   0  0  0  0  0  0  0  0  0  0  0  0
    8.3802   -2.7795   23.1651 C   0  0  0  0  0  0  0  0  0  0  0  0
    8.6320   -3.1323   22.1717 H   0  0  0  0  0  0  0  0  0  0  0  0
    9.1996   -2.6973   23.8731 H   0  0  0  0  0  0  0  0  0  0  0  0
    5.3822    0.6319   20.2194 C   0  0  0  0  0  0  0  0  0  0  0  0
    4.8964    0.6738   21.2006 H   0  0  0  0  0  0  0  0  0  0  0  0
    4.8022    1.2836   19.1332 C   0  0  0  0  0  0  0  0  0  0  0  0
    3.8708    1.8298   19.2381 H   0  0  0  0  0  0  0  0  0  0  0  0
  1  2  1  0
  2  3  2  0
  3  4  1  0
  4  5  1  0
  4  6  2  0
  6  7  1  0
  7  8  2  0
  7  9  1  0
  9 10  1  0
  9 11  1  0
 11 12  1  0
 12 13  1  0
 13 14  1  0
 13 15  1  0
 13 16  1  0
 16 17  1  0
 16 18  1  0
 16 19  1  0
 19 20  1  0
 20 21  2  0
 20 22  1  0
 22 23  1  0
 22 24  1  0
 22 25  1  0
 19 26  1  0
 26 27  1  0
 26 28  1  0
 26 29  1  0
 29 30  1  0
 29 31  1  0
 11 32  1  0
 32 33  1  0
 32 34  1  0
 32 35  1  0
 35 36  1  0
 35 37  1  0
  6 38  1  0
 38 39  1  0
 38 40  2  0
 40 41  1  0
 40  2  1  0
 35 11  1  0
 29 12  1  0
M  END
>  <cnnaffinity>  (1) 
-4.75433

>  <filename>  (1) 
[H]c1nc([H])c(C(=O)N([H])C2(N3C([H])([H])C([H])([H])N(C(=O)C([H])([H])[H])C([H])([H])C3([H])[H])C([H])([H])C2([H])[H])c([H])c1[H]

$$$$
