
     RDKit          3D

 34 36  0  0  0  0  0  0  0  0999 V2000
    4.9119    1.7846   16.9908 H   0  0  0  0  0  0  0  0  0  0  0  0
    5.3929    1.2971   17.8344 C   0  0  0  0  0  0  0  0  0  0  0  0
    6.5556    0.6765   17.5770 N   0  0  0  0  0  0  0  0  0  0  0  0
    7.1640    0.0563   18.5905 C   0  0  0  0  0  0  0  0  0  0  0  0
    8.1176   -0.4204   18.3885 H   0  0  0  0  0  0  0  0  0  0  0  0
    6.6395   -0.0022   19.8935 C   0  0  0  0  0  0  0  0  0  0  0  0
    7.3567   -0.6753   20.8998 N   0  0  0  0  0  0  0  0  0  0  0  0
    8.7530   -0.6562   21.1354 C   0  0  0  0  0  0  0  0  0  0  0  0
    9.5718   -0.0550   20.4622 O   0  0  0  0  0  0  0  0  0  0  0  0
    8.9167   -1.4863   22.3019 C   0  0  0  0  0  0  0  0  0  0  0  0
    9.8748   -1.6896   22.7369 H   0  0  0  0  0  0  0  0  0  0  0  0
    7.7043   -1.9193   22.7118 C   0  0  0  0  0  0  0  0  0  0  0  0
    7.3699   -2.7946   23.8768 C   0  0  0  0  0  0  0  0  0  0  0  0
    8.3292   -3.0333   24.3577 H   0  0  0  0  0  0  0  0  0  0  0  0
    6.7237   -4.1231   23.4336 C   0  0  0  0  0  0  0  0  0  0  0  0
    5.8186   -3.8997   22.8508 H   0  0  0  0  0  0  0  0  0  0  0  0
    7.4041   -4.6707   22.7718 H   0  0  0  0  0  0  0  0  0  0  0  0
    6.3418   -4.9685   24.6482 C   0  0  0  0  0  0  0  0  0  0  0  0
    5.8300   -5.8830   24.3307 H   0  0  0  0  0  0  0  0  0  0  0  0
    7.2544   -5.2843   25.1731 H   0  0  0  0  0  0  0  0  0  0  0  0
    5.4948   -4.2455   25.6028 N   0  0  0  0  0  0  0  0  0  0  0  0
    4.6459   -3.9798   25.1065 H   0  0  0  0  0  0  0  0  0  0  0  0
    6.1232   -3.0023   26.0645 C   0  0  0  0  0  0  0  0  0  0  0  0
    5.4515   -2.4961   26.7658 H   0  0  0  0  0  0  0  0  0  0  0  0
    7.0291   -3.2649   26.6278 H   0  0  0  0  0  0  0  0  0  0  0  0
    6.4977   -2.0648   24.9182 C   0  0  0  0  0  0  0  0  0  0  0  0
    7.0151   -1.1728   25.2896 H   0  0  0  0  0  0  0  0  0  0  0  0
    5.5795   -1.7168   24.4306 H   0  0  0  0  0  0  0  0  0  0  0  0
    6.7453   -1.4275   21.8865 N   0  0  0  0  0  0  0  0  0  0  0  0
    5.7437   -1.5575   21.9098 H   0  0  0  0  0  0  0  0  0  0  0  0
    5.4269    0.6512   20.1585 C   0  0  0  0  0  0  0  0  0  0  0  0
    5.0113    0.6381   21.1704 H   0  0  0  0  0  0  0  0  0  0  0  0
    4.8011    1.3174   19.1034 C   0  0  0  0  0  0  0  0  0  0  0  0
    3.8691    1.8477   19.2594 H   0  0  0  0  0  0  0  0  0  0  0  0
  1  2  1  0
  2  3  2  0
  3  4  1  0
  4  5  1  0
  4  6  2  0
  6  7  1  0
  7  8  1  0
  8  9  2  0
  8 10  1  0
 10 11  1  0
 10 12  2  0
 12 13  1  0
 13 14  1  0
 13 15  1  0
 15 16  1  0
 15 17  1  0
 15 18  1  0
 18 19  1  0
 18 20  1  0
 18 21  1  0
 21 22  1  0
 21 23  1  0
 23 24  1  0
 23 25  1  0
 23 26  1  0
 26 27  1  0
 26 28  1  0
 12 29  1  0
 29 30  1  0
  6 31  1  0
 31 32  1  0
 31 33  2  0
 33 34  1  0
 33  2  1  0
 29  7  1  0
 26 13  1  0
M  END
>  <cnnaffinity>  (1) 
-4.99735

>  <filename>  (1) 
[H]c1nc([H])c(-n2c(=O)c([H])c(C3([H])C([H])([H])C([H])([H])N([H])C([H])([H])C3([H])[H])n2[H])c([H])c1[H]

$$$$
