
     RDKit          3D

 44 46  0  0  0  0  0  0  0  0999 V2000
    8.1205    5.7740   27.3354 H   0  0  0  0  0  0  0  0  0  0  0  0
    7.2695    5.1645   27.0354 C   0  0  0  0  0  0  0  0  0  0  0  0
    7.5790    3.9992   26.4623 N   0  0  0  0  0  0  0  0  0  0  0  0
    6.5581    3.2103   26.1107 C   0  0  0  0  0  0  0  0  0  0  0  0
    6.8583    2.0023   25.5014 N   0  0  0  0  0  0  0  0  0  0  0  0
    8.1316    1.8079   24.7975 C   0  0  0  0  0  0  0  0  0  0  0  0
    8.4333    2.7542   24.3342 H   0  0  0  0  0  0  0  0  0  0  0  0
    8.9334    1.5093   25.4941 H   0  0  0  0  0  0  0  0  0  0  0  0
    7.9941    0.7445   23.6900 C   0  0  0  0  0  0  0  0  0  0  0  0
    7.2890    1.1289   22.9302 H   0  0  0  0  0  0  0  0  0  0  0  0
    8.9776    0.6295   23.2190 H   0  0  0  0  0  0  0  0  0  0  0  0
    7.5195   -0.5534   24.2247 N   0  0  0  0  0  0  0  0  0  0  0  0
    7.4937   -1.6774   23.2409 C   0  0  1  0  0  0  0  0  0  0  0  0
    6.8915   -2.4707   23.6961 H   0  0  0  0  0  0  0  0  0  0  0  0
    6.7372   -1.4832   21.8653 C   0  0  0  0  0  0  0  0  0  0  0  0
    5.6924   -2.0566   21.6114 O   0  0  0  0  0  0  0  0  0  0  0  0
    7.3558   -0.6664   20.9317 N   0  0  0  0  0  0  0  0  0  0  0  0
    8.3601   -0.6638   20.9420 H   0  0  0  0  0  0  0  0  0  0  0  0
    6.6871    0.0065   19.8755 C   0  0  0  0  0  0  0  0  0  0  0  0
    7.1978    0.0726   18.5600 C   0  0  0  0  0  0  0  0  0  0  0  0
    8.1421   -0.4159   18.3208 H   0  0  0  0  0  0  0  0  0  0  0  0
    6.5689    0.6869   17.5480 N   0  0  0  0  0  0  0  0  0  0  0  0
    5.4041    1.3015   17.8181 C   0  0  0  0  0  0  0  0  0  0  0  0
    4.9238    1.8030   16.9812 H   0  0  0  0  0  0  0  0  0  0  0  0
    4.8167    1.3087   19.0887 C   0  0  0  0  0  0  0  0  0  0  0  0
    3.8797    1.8364   19.2493 H   0  0  0  0  0  0  0  0  0  0  0  0
    5.4633    0.6388   20.1316 C   0  0  0  0  0  0  0  0  0  0  0  0
    5.0361    0.5908   21.1332 H   0  0  0  0  0  0  0  0  0  0  0  0
    8.9217   -2.2136   23.0462 C   0  0  0  0  0  0  0  0  0  0  0  0
    9.6076   -1.4717   22.6266 H   0  0  0  0  0  0  0  0  0  0  0  0
    9.3358   -2.5177   24.0102 H   0  0  0  0  0  0  0  0  0  0  0  0
    8.9275   -3.0849   22.3840 H   0  0  0  0  0  0  0  0  0  0  0  0
    6.2099   -0.3069   24.8697 C   0  0  0  0  0  0  0  0  0  0  0  0
    5.4730    0.0643   24.1352 H   0  0  0  0  0  0  0  0  0  0  0  0
    5.8359   -1.2482   25.2952 H   0  0  0  0  0  0  0  0  0  0  0  0
    6.3054    0.7363   26.0007 C   0  0  0  0  0  0  0  0  0  0  0  0
    6.9188    0.3187   26.8185 H   0  0  0  0  0  0  0  0  0  0  0  0
    5.2982    0.8985   26.4013 H   0  0  0  0  0  0  0  0  0  0  0  0
    5.2037    3.5689   26.2801 C   0  0  0  0  0  0  0  0  0  0  0  0
    4.4603    2.8723   25.9067 H   0  0  0  0  0  0  0  0  0  0  0  0
    4.9054    4.8075   26.8376 C   0  0  0  0  0  0  0  0  0  0  0  0
    3.8680    5.1285   26.9538 H   0  0  0  0  0  0  0  0  0  0  0  0
    5.9712    5.6253   27.2399 C   0  0  0  0  0  0  0  0  0  0  0  0
    5.8152    6.6002   27.6875 H   0  0  0  0  0  0  0  0  0  0  0  0
  1  2  1  0
  2  3  2  0
  3  4  1  0
  4  5  1  0
  5  6  1  0
  6  7  1  0
  6  8  1  0
  6  9  1  0
  9 10  1  0
  9 11  1  0
  9 12  1  0
 12 13  1  0
 13 14  1  1
 13 15  1  0
 15 16  2  0
 15 17  1  0
 17 18  1  0
 17 19  1  0
 19 20  2  0
 20 21  1  0
 20 22  1  0
 22 23  2  0
 23 24  1  0
 23 25  1  0
 25 26  1  0
 25 27  2  0
 27 28  1  0
 13 29  1  0
 29 30  1  0
 29 31  1  0
 29 32  1  0
 12 33  1  0
 33 34  1  0
 33 35  1  0
 33 36  1  0
 36 37  1  0
 36 38  1  0
  4 39  2  0
 39 40  1  0
 39 41  1  0
 41 42  1  0
 41 43  2  0
 43 44  1  0
 43  2  1  0
 36  5  1  0
 27 19  1  0
M  END
>  <cnnaffinity>  (1) 
-5.04766

>  <filename>  (1) 
[H]c1nc(N2C([H])([H])C([H])([H])N([C@@]([H])(C(=O)N([H])c3c([H])nc([H])c([H])c3[H])C([H])([H])[H])C([H])([H])C2([H])[H])c([H])c([H])c1[H]

$$$$
