
     RDKit          3D

 37 41  0  0  0  0  0  0  0  0999 V2000
    4.7379    1.4044   19.0153 C   0  0  0  0  0  0  0  0  0  0  0  0
    5.4092    1.2835   17.7934 C   0  0  0  0  0  0  0  0  0  0  0  0
    6.6103    0.7003   17.6730 N   0  0  0  0  0  0  0  0  0  0  0  0
    7.1880    0.2436   18.7897 C   0  0  0  0  0  0  0  0  0  0  0  0
    6.6211    0.3298   20.0779 C   0  0  0  0  0  0  0  0  0  0  0  0
    7.3241   -0.2229   21.2685 C   0  0  2  0  0  0  0  0  0  0  0  0
    8.8306   -0.2494   21.3828 C   0  0  0  0  0  0  0  0  0  0  0  0
    8.0825   -1.5119   21.0865 C   0  0  1  0  0  0  0  0  0  0  0  0
    7.9469   -2.6259   22.0397 C   0  0  0  0  0  0  0  0  0  0  0  0
    6.8824   -3.0884   22.6163 N   0  0  0  0  0  0  0  0  0  0  0  0
    7.3984   -4.1009   23.4029 C   0  0  0  0  0  0  0  0  0  0  0  0
    6.5770   -4.9142   24.3176 C   0  0  0  0  0  0  0  0  0  0  0  0
    7.1496   -5.5849   25.4113 C   0  0  0  0  0  0  0  0  0  0  0  0
    6.3600   -6.3517   26.2888 C   0  0  0  0  0  0  0  0  0  0  0  0
    4.9819   -6.4550   26.1161 C   0  0  0  0  0  0  0  0  0  0  0  0
    4.4095   -5.7990   25.0146 C   0  0  0  0  0  0  0  0  0  0  0  0
    5.1751   -5.0212   24.1071 C   0  0  0  0  0  0  0  0  0  0  0  0
    4.2444   -4.4969   23.1336 C   0  0  0  0  0  0  0  0  0  0  0  0
    3.0016   -4.9473   23.4785 C   0  0  0  0  0  0  0  0  0  0  0  0
    3.1000   -5.7358   24.6065 N   0  0  0  0  0  0  0  0  0  0  0  0
    2.3386   -6.2126   25.0640 H   0  0  0  0  0  0  0  0  0  0  0  0
    2.0366   -4.7604   23.0216 H   0  0  0  0  0  0  0  0  0  0  0  0
    4.5088   -3.8491   22.3111 H   0  0  0  0  0  0  0  0  0  0  0  0
    4.3617   -7.0021   26.8191 H   0  0  0  0  0  0  0  0  0  0  0  0
    6.8379   -6.8695   27.1167 H   0  0  0  0  0  0  0  0  0  0  0  0
    8.2156   -5.4914   25.5990 H   0  0  0  0  0  0  0  0  0  0  0  0
    8.6896   -4.2743   23.2620 N   0  0  0  0  0  0  0  0  0  0  0  0
    9.0538   -3.3038   22.3519 O   0  0  0  0  0  0  0  0  0  0  0  0
    8.1378   -1.8518   20.0619 H   0  0  0  0  0  0  0  0  0  0  0  0
    9.4200    0.1748   20.5736 H   0  0  0  0  0  0  0  0  0  0  0  0
    9.2653   -0.1344   22.3722 H   0  0  0  0  0  0  0  0  0  0  0  0
    6.7848   -0.1064   22.2100 H   0  0  0  0  0  0  0  0  0  0  0  0
    5.3522    0.9226   20.1735 C   0  0  0  0  0  0  0  0  0  0  0  0
    4.8527    1.0076   21.1419 H   0  0  0  0  0  0  0  0  0  0  0  0
    8.1644   -0.2214   18.6494 H   0  0  0  0  0  0  0  0  0  0  0  0
    4.9710    1.6641   16.8732 H   0  0  0  0  0  0  0  0  0  0  0  0
    3.7636    1.8784   19.0425 H   0  0  0  0  0  0  0  0  0  0  0  0
  1  2  2  0
  2  3  1  0
  3  4  2  0
  4  5  1  0
  5  6  1  0
  6  7  1  0
  7  8  1  0
  8  9  1  0
  9 10  2  0
 10 11  1  0
 11 12  1  0
 12 13  2  0
 13 14  1  0
 14 15  2  0
 15 16  1  0
 16 17  2  0
 17 18  1  0
 18 19  2  0
 19 20  1  0
 20 21  1  0
 19 22  1  0
 18 23  1  0
 15 24  1  0
 14 25  1  0
 13 26  1  0
 11 27  2  0
 27 28  1  0
  8 29  1  6
  7 30  1  0
  7 31  1  0
  6 32  1  1
  5 33  2  0
 33 34  1  0
  4 35  1  0
  2 36  1  0
  1 37  1  0
 33  1  1  0
  8  6  1  0
 28  9  1  0
 17 12  1  0
 20 16  1  0
M  END
>  <cnnaffinity>  (1) 
-5.82865

>  <filename>  (1) 
[H]c1nc([H])c([C@]2([H])C([H])([H])[C@@]2([H])c2nc(-c3c([H])c([H])c([H])c4c3c([H])c([H])n4[H])no2)c([H])c1[H]

$$$$
