
     RDKit          3D

 32 33  0  0  0  0  0  0  0  0999 V2000
    8.1369   -2.3720   21.8213 H   0  0  0  0  0  0  0  0  0  0  0  0
    7.5250   -1.8670   21.0723 C   0  0  0  0  0  0  0  0  0  0  0  0
    7.2229   -2.4685   20.2254 H   0  0  0  0  0  0  0  0  0  0  0  0
    7.1359   -0.5950   21.1886 C   0  0  0  0  0  0  0  0  0  0  0  0
    6.4530    0.0966   20.0575 C   0  0  0  0  0  0  0  0  0  0  0  0
    7.0528    0.0418   18.7838 C   0  0  0  0  0  0  0  0  0  0  0  0
    7.9903   -0.5059   18.6578 H   0  0  0  0  0  0  0  0  0  0  0  0
    6.5751    0.6430   17.6898 N   0  0  0  0  0  0  0  0  0  0  0  0
    5.4240    1.3175   17.8302 C   0  0  0  0  0  0  0  0  0  0  0  0
    5.0381    1.7771   16.9259 H   0  0  0  0  0  0  0  0  0  0  0  0
    4.7325    1.4351   19.0390 C   0  0  0  0  0  0  0  0  0  0  0  0
    3.8060    1.9952   19.0702 H   0  0  0  0  0  0  0  0  0  0  0  0
    5.2670    0.8398   20.1842 C   0  0  0  0  0  0  0  0  0  0  0  0
    4.7839    0.9538   21.1564 H   0  0  0  0  0  0  0  0  0  0  0  0
    7.4142    0.1596   22.4875 C   0  0  0  0  0  0  0  0  0  0  0  0
    6.4815    0.1613   23.0647 H   0  0  0  0  0  0  0  0  0  0  0  0
    8.1389   -0.4415   23.0499 H   0  0  0  0  0  0  0  0  0  0  0  0
    7.9198    1.5821   22.3485 C   0  0  0  0  0  0  0  0  0  0  0  0
    7.1427    2.3284   22.1699 H   0  0  0  0  0  0  0  0  0  0  0  0
    9.1981    1.9727   22.4230 C   0  0  0  0  0  0  0  0  0  0  0  0
    9.4359    3.0402   22.4329 H   0  0  0  0  0  0  0  0  0  0  0  0
   10.3756    1.0636   22.4764 C   0  0  0  0  0  0  0  0  0  0  0  0
   11.2779    1.1307   23.5527 C   0  0  0  0  0  0  0  0  0  0  0  0
   11.0678    1.8193   24.3696 H   0  0  0  0  0  0  0  0  0  0  0  0
   12.4121    0.3116   23.5782 C   0  0  0  0  0  0  0  0  0  0  0  0
   13.0950    0.3598   24.4218 H   0  0  0  0  0  0  0  0  0  0  0  0
   12.6763   -0.5574   22.5120 C   0  0  0  0  0  0  0  0  0  0  0  0
   13.5876   -1.1517   22.4918 H   0  0  0  0  0  0  0  0  0  0  0  0
   11.7726   -0.6530   21.4516 C   0  0  0  0  0  0  0  0  0  0  0  0
   11.9959   -1.3237   20.6266 H   0  0  0  0  0  0  0  0  0  0  0  0
   10.6206    0.1390   21.4485 C   0  0  0  0  0  0  0  0  0  0  0  0
    9.8939    0.0561   20.6456 H   0  0  0  0  0  0  0  0  0  0  0  0
  1  2  1  0
  2  3  1  0
  2  4  2  3
  4  5  1  0
  5  6  2  0
  6  7  1  0
  6  8  1  0
  8  9  2  0
  9 10  1  0
  9 11  1  0
 11 12  1  0
 11 13  2  0
 13 14  1  0
  4 15  1  0
 15 16  1  0
 15 17  1  0
 15 18  1  0
 18 19  1  0
 18 20  2  3
 20 21  1  0
 20 22  1  0
 22 23  2  0
 23 24  1  0
 23 25  1  0
 25 26  1  0
 25 27  2  0
 27 28  1  0
 27 29  1  0
 29 30  1  0
 29 31  2  0
 31 32  1  0
 13  5  1  0
 31 22  1  0
M  END
>  <cnnaffinity>  (1) 
-4.78509

>  <filename>  (1) 
[H]C([H])=C(c1c([H])nc([H])c([H])c1[H])C([H])([H])C([H])=C([H])c1c([H])c([H])c([H])c([H])c1[H]

$$$$
