
     RDKit          3D

 49 53  0  0  0  0  0  0  0  0999 V2000
   11.7139    0.6263   24.4418 C   0  0  0  0  0  0  0  0  0  0  0  0
   12.2698    0.8376   23.0322 C   0  0  0  0  0  0  0  0  0  0  0  0
   11.4425    1.8572   22.2089 C   0  0  0  0  0  0  0  0  0  0  0  0
   10.0060    1.5565   22.1273 N   0  0  0  0  0  0  0  0  0  0  0  0
    9.5809    0.6544   21.2000 N   0  0  0  0  0  0  0  0  0  0  0  0
    8.3841    0.3065   21.6368 C   0  0  0  0  0  0  0  0  0  0  0  0
    7.4871   -0.6538   20.9053 C   0  0  0  0  0  0  0  0  0  0  0  0
    6.6850   -0.0144   19.7766 C   0  0  0  0  0  0  0  0  0  0  0  0
    5.4782    0.6462   20.0484 C   0  0  0  0  0  0  0  0  0  0  0  0
    4.8246    1.3184   19.0141 C   0  0  0  0  0  0  0  0  0  0  0  0
    5.3974    1.3002   17.7392 C   0  0  0  0  0  0  0  0  0  0  0  0
    6.5293    0.6409   17.4453 N   0  0  0  0  0  0  0  0  0  0  0  0
    7.1415   -0.0013   18.4468 C   0  0  0  0  0  0  0  0  0  0  0  0
    8.0467   -0.5508   18.1808 H   0  0  0  0  0  0  0  0  0  0  0  0
    4.9281    1.8260   16.9111 H   0  0  0  0  0  0  0  0  0  0  0  0
    3.8973    1.8568   19.1808 H   0  0  0  0  0  0  0  0  0  0  0  0
    5.0600    0.6176   21.0572 H   0  0  0  0  0  0  0  0  0  0  0  0
    8.1006   -1.4788   20.5293 H   0  0  0  0  0  0  0  0  0  0  0  0
    6.8088   -1.0741   21.6561 H   0  0  0  0  0  0  0  0  0  0  0  0
    8.0179    0.8876   22.8008 N   0  0  0  0  0  0  0  0  0  0  0  0
    9.0171    1.7146   23.0587 C   0  0  0  0  0  0  0  0  0  0  0  0
    8.9720    2.7042   24.1457 C   0  0  0  0  0  0  0  0  0  0  0  0
    8.6720    2.3939   25.4512 C   0  0  0  0  0  0  0  0  0  0  0  0
    8.7773    3.3932   26.4637 C   0  0  0  0  0  0  0  0  0  0  0  0
    9.1910    4.6714   26.1729 C   0  0  0  0  0  0  0  0  0  0  0  0
    9.4244    5.0201   24.8079 C   0  0  0  0  0  0  0  0  0  0  0  0
    9.7201    6.1878   24.2646 N   0  0  0  0  0  0  0  0  0  0  0  0
    9.6079    5.9942   22.9204 C   0  0  0  0  0  0  0  0  0  0  0  0
    9.2394    4.7036   22.6269 C   0  0  0  0  0  0  0  0  0  0  0  0
    9.2008    4.0481   23.8339 N   0  0  0  0  0  0  0  0  0  0  0  0
    8.8955    4.1991   21.7370 H   0  0  0  0  0  0  0  0  0  0  0  0
    9.7892    6.8165   22.2364 H   0  0  0  0  0  0  0  0  0  0  0  0
    9.2979    5.4645   26.9024 H   0  0  0  0  0  0  0  0  0  0  0  0
    8.5277    3.1012   27.4802 H   0  0  0  0  0  0  0  0  0  0  0  0
    8.3622    1.3917   25.7216 H   0  0  0  0  0  0  0  0  0  0  0  0
   11.7907    1.8578   21.1720 H   0  0  0  0  0  0  0  0  0  0  0  0
   11.5609    2.8722   22.6013 H   0  0  0  0  0  0  0  0  0  0  0  0
   13.8001    1.1291   23.0348 C   0  0  0  0  0  0  0  0  0  0  0  0
   14.0840   -0.1939   22.2863 C   0  0  0  0  0  0  0  0  0  0  0  0
   12.5669   -0.4870   22.2630 C   0  0  0  0  0  0  0  0  0  0  0  0
   12.1126   -0.5709   21.2720 H   0  0  0  0  0  0  0  0  0  0  0  0
   12.2803   -1.3922   22.7997 H   0  0  0  0  0  0  0  0  0  0  0  0
   14.6564   -0.9386   22.8570 H   0  0  0  0  0  0  0  0  0  0  0  0
   14.5493   -0.0554   21.3060 H   0  0  0  0  0  0  0  0  0  0  0  0
   14.0939    2.0459   22.5195 H   0  0  0  0  0  0  0  0  0  0  0  0
   14.2451    1.1964   24.0272 H   0  0  0  0  0  0  0  0  0  0  0  0
   12.3577   -0.0628   24.9984 H   0  0  0  0  0  0  0  0  0  0  0  0
   11.6756    1.5747   24.9896 H   0  0  0  0  0  0  0  0  0  0  0  0
   10.7124    0.1834   24.4127 H   0  0  0  0  0  0  0  0  0  0  0  0
  1  2  1  0
  2  3  1  0
  3  4  1  0
  4  5  1  0
  5  6  2  0
  6  7  1  0
  7  8  1  0
  8  9  2  0
  9 10  1  0
 10 11  2  0
 11 12  1  0
 12 13  2  0
 13 14  1  0
 11 15  1  0
 10 16  1  0
  9 17  1  0
  7 18  1  0
  7 19  1  0
  6 20  1  0
 20 21  2  0
 21 22  1  0
 22 23  2  0
 23 24  1  0
 24 25  2  0
 25 26  1  0
 26 27  2  0
 27 28  1  0
 28 29  2  0
 29 30  1  0
 29 31  1  0
 28 32  1  0
 25 33  1  0
 24 34  1  0
 23 35  1  0
  3 36  1  0
  3 37  1  0
  2 38  1  0
 38 39  1  0
 39 40  1  0
 40 41  1  0
 40 42  1  0
 39 43  1  0
 39 44  1  0
 38 45  1  0
 38 46  1  0
  1 47  1  0
  1 48  1  0
  1 49  1  0
 40  2  1  0
 21  4  1  0
 30 22  1  0
 13  8  1  0
 30 26  1  0
M  END
>  <cnnaffinity>  (1) 
-6.66421

>  <filename>  (1) 
[H]c1nc([H])c(C([H])([H])c2nc(-c3c([H])c([H])c([H])c4nc([H])c([H])n34)n(C([H])([H])C3(C([H])([H])[H])C([H])([H])C([H])([H])C3([H])[H])n2)c([H])c1[H]

$$$$
