
     RDKit          3D

 39 42  0  0  0  0  0  0  0  0999 V2000
   11.2329   -1.4583   22.5984 C   0  0  0  0  0  0  0  0  0  0  0  0
   10.0821   -2.3655   22.1653 C   0  0  0  0  0  0  0  0  0  0  0  0
    8.8142   -1.6819   21.9715 N   0  0  0  0  0  0  0  0  0  0  0  0
    8.4975   -1.2169   20.7468 N   0  0  0  0  0  0  0  0  0  0  0  0
    7.3294   -0.6411   20.9463 C   0  0  0  0  0  0  0  0  0  0  0  0
    6.6110    0.0293   19.8737 C   0  0  0  0  0  0  0  0  0  0  0  0
    5.3959    0.6833   20.1014 C   0  0  0  0  0  0  0  0  0  0  0  0
    4.7919    1.3273   19.0266 C   0  0  0  0  0  0  0  0  0  0  0  0
    5.4229    1.3008   17.7758 C   0  0  0  0  0  0  0  0  0  0  0  0
    6.5810    0.6609   17.5481 N   0  0  0  0  0  0  0  0  0  0  0  0
    7.1586    0.0427   18.5821 C   0  0  0  0  0  0  0  0  0  0  0  0
    8.0983   -0.4660   18.3781 H   0  0  0  0  0  0  0  0  0  0  0  0
    4.9852    1.8161   16.9229 H   0  0  0  0  0  0  0  0  0  0  0  0
    3.8589    1.8636   19.1489 H   0  0  0  0  0  0  0  0  0  0  0  0
    4.9656    0.6838   21.1048 H   0  0  0  0  0  0  0  0  0  0  0  0
    6.8666   -0.7239   22.2178 N   0  0  0  0  0  0  0  0  0  0  0  0
    7.8187   -1.3990   22.8382 C   0  0  0  0  0  0  0  0  0  0  0  0
    7.8664   -1.8750   24.2424 C   0  0  2  0  0  0  0  0  0  0  0  0
    7.6062   -3.3203   24.6218 C   0  0  0  0  0  0  0  0  0  0  0  0
    6.5866   -2.2614   24.9259 C   0  0  1  0  0  0  0  0  0  0  0  0
    6.2701   -1.8299   26.3232 C   0  0  0  0  0  0  0  0  0  0  0  0
    5.7293   -2.7353   27.2439 C   0  0  0  0  0  0  0  0  0  0  0  0
    5.3370   -2.2825   28.5059 C   0  0  0  0  0  0  0  0  0  0  0  0
    5.4967   -1.0218   28.9247 N   0  0  0  0  0  0  0  0  0  0  0  0
    6.0259   -0.1575   28.0506 C   0  0  0  0  0  0  0  0  0  0  0  0
    6.4102   -0.5052   26.7539 C   0  0  0  0  0  0  0  0  0  0  0  0
    6.7806    0.2540   26.0789 H   0  0  0  0  0  0  0  0  0  0  0  0
    6.1441    0.8669   28.3998 H   0  0  0  0  0  0  0  0  0  0  0  0
    4.8636   -2.9602   29.2154 H   0  0  0  0  0  0  0  0  0  0  0  0
    5.6231   -3.7805   26.9852 H   0  0  0  0  0  0  0  0  0  0  0  0
    5.7179   -2.2486   24.2665 H   0  0  0  0  0  0  0  0  0  0  0  0
    7.3651   -4.0333   23.8329 H   0  0  0  0  0  0  0  0  0  0  0  0
    8.1907   -3.7037   25.4581 H   0  0  0  0  0  0  0  0  0  0  0  0
    8.6400   -1.3948   24.8449 H   0  0  0  0  0  0  0  0  0  0  0  0
   10.3053   -2.7969   21.1901 H   0  0  0  0  0  0  0  0  0  0  0  0
    9.9230   -3.1793   22.8841 H   0  0  0  0  0  0  0  0  0  0  0  0
   12.1589   -2.0420   22.5595 H   0  0  0  0  0  0  0  0  0  0  0  0
   11.3478   -0.6087   21.9157 H   0  0  0  0  0  0  0  0  0  0  0  0
   11.0841   -1.0757   23.6159 H   0  0  0  0  0  0  0  0  0  0  0  0
  1  2  1  0
  2  3  1  0
  3  4  1  0
  4  5  2  0
  5  6  1  0
  6  7  2  0
  7  8  1  0
  8  9  2  0
  9 10  1  0
 10 11  2  0
 11 12  1  0
  9 13  1  0
  8 14  1  0
  7 15  1  0
  5 16  1  0
 16 17  2  0
 17 18  1  0
 18 19  1  0
 19 20  1  0
 20 21  1  0
 21 22  2  0
 22 23  1  0
 23 24  2  0
 24 25  1  0
 25 26  2  0
 26 27  1  0
 25 28  1  0
 23 29  1  0
 22 30  1  0
 20 31  1  6
 19 32  1  0
 19 33  1  0
 18 34  1  1
  2 35  1  0
  2 36  1  0
  1 37  1  0
  1 38  1  0
  1 39  1  0
 17  3  1  0
 20 18  1  0
 26 21  1  0
 11  6  1  0
M  END
>  <cnnaffinity>  (1) 
-5.79851

>  <filename>  (1) 
[H]c1nc([H])c(-c2nc([C@]3([H])C([H])([H])[C@@]3([H])c3c([H])c([H])nc([H])c3[H])n(C([H])([H])C([H])([H])[H])n2)c([H])c1[H]

$$$$
