
     RDKit          3D

 27 28  0  0  0  0  0  0  0  0999 V2000
    5.2017    1.8010   16.8442 H   0  0  0  0  0  0  0  0  0  0  0  0
    5.6055    1.3380   17.7451 C   0  0  0  0  0  0  0  0  0  0  0  0
    6.7632    0.6755   17.6083 N   0  0  0  0  0  0  0  0  0  0  0  0
    7.2855    0.0940   18.6944 C   0  0  0  0  0  0  0  0  0  0  0  0
    8.2230   -0.4302   18.5021 H   0  0  0  0  0  0  0  0  0  0  0  0
    6.6718    0.1197   19.9527 C   0  0  0  0  0  0  0  0  0  0  0  0
    7.1502   -0.6867   21.1126 C   0  0  0  0  0  0  0  0  0  0  0  0
    6.4318   -0.9632   22.0465 O   0  0  0  0  0  0  0  0  0  0  0  0
    8.4860   -1.1418   20.9847 N   0  0  0  0  0  0  0  0  0  0  0  0
    9.0329   -0.3714   20.6128 H   0  0  0  0  0  0  0  0  0  0  0  0
    9.0844   -1.7478   22.1368 N   0  0  0  0  0  0  0  0  0  0  0  0
    8.7600   -3.1346   22.2718 N   0  0  0  0  0  0  0  0  0  0  0  0
    9.3192   -3.8520   23.2529 N   0  0  0  0  0  0  0  0  0  0  0  0
    8.7684   -5.0544   23.1672 C   0  0  0  0  0  0  0  0  0  0  0  0
    9.0833   -5.8458   23.8387 H   0  0  0  0  0  0  0  0  0  0  0  0
    7.8278   -5.1161   22.1176 C   0  0  0  0  0  0  0  0  0  0  0  0
    7.1966   -5.9537   21.8629 H   0  0  0  0  0  0  0  0  0  0  0  0
    7.8486   -3.8562   21.5646 C   0  0  0  0  0  0  0  0  0  0  0  0
    7.3118   -3.4103   20.7386 H   0  0  0  0  0  0  0  0  0  0  0  0
   10.5433   -1.5360   22.1629 C   0  0  0  0  0  0  0  0  0  0  0  0
   10.9515   -1.8508   23.1236 H   0  0  0  0  0  0  0  0  0  0  0  0
   10.7229   -0.4636   22.0674 H   0  0  0  0  0  0  0  0  0  0  0  0
   11.0572   -2.0688   21.3541 H   0  0  0  0  0  0  0  0  0  0  0  0
    5.4590    0.8246   20.0862 C   0  0  0  0  0  0  0  0  0  0  0  0
    4.9584    0.8719   21.0562 H   0  0  0  0  0  0  0  0  0  0  0  0
    4.9182    1.4360   18.9603 C   0  0  0  0  0  0  0  0  0  0  0  0
    3.9753    1.9718   19.0060 H   0  0  0  0  0  0  0  0  0  0  0  0
  1  2  1  0
  2  3  2  0
  3  4  1  0
  4  5  1  0
  4  6  2  0
  6  7  1  0
  7  8  2  0
  7  9  1  0
  9 10  1  0
  9 11  1  0
 11 12  1  0
 12 13  1  0
 13 14  2  0
 14 15  1  0
 14 16  1  0
 16 17  1  0
 16 18  2  0
 18 19  1  0
 11 20  1  0
 20 21  1  0
 20 22  1  0
 20 23  1  0
  6 24  1  0
 24 25  1  0
 24 26  2  0
 26 27  1  0
 26  2  1  0
 18 12  1  0
M  END
>  <cnnaffinity>  (1) 
-4.70991

>  <filename>  (1) 
[H]c1nc([H])c(C(=O)N([H])N(n2nc([H])c([H])c2[H])C([H])([H])[H])c([H])c1[H]

$$$$
