
     RDKit          3D

 46 50  0  0  0  0  0  0  0  0999 V2000
    4.9231    1.7274   18.3415 C   0  0  0  0  0  0  0  0  0  0  0  0
    5.5537    1.2303   17.1999 C   0  0  0  0  0  0  0  0  0  0  0  0
    6.3530    0.1550   17.2030 N   0  0  0  0  0  0  0  0  0  0  0  0
    6.5445   -0.4695   18.3743 C   0  0  0  0  0  0  0  0  0  0  0  0
    5.9604   -0.0513   19.5869 C   0  0  0  0  0  0  0  0  0  0  0  0
    6.1849   -0.7110   20.9438 C   0  0  0  0  0  0  0  0  0  0  0  0
    6.9042    0.1764   21.9231 C   0  0  0  0  0  0  0  0  0  0  0  0
    8.2138    0.2149   21.9184 N   0  0  0  0  0  0  0  0  0  0  0  0
    8.4985    1.1528   22.8537 N   0  0  0  0  0  0  0  0  0  0  0  0
    9.8562    1.5186   23.0634 C   0  0  0  0  0  0  0  0  0  0  0  0
   10.2461    2.8845   23.0521 C   0  0  0  0  0  0  0  0  0  0  0  0
   11.5808    3.2534   23.1530 C   0  0  0  0  0  0  0  0  0  0  0  0
   12.5288    2.2090   23.1901 C   0  0  0  0  0  0  0  0  0  0  0  0
   13.8875    2.2081   23.1460 N   0  0  0  0  0  0  0  0  0  0  0  0
   14.4102    0.9611   23.1340 N   0  0  0  0  0  0  0  0  0  0  0  0
   13.3856    0.1406   23.1884 C   0  0  0  0  0  0  0  0  0  0  0  0
   12.1475    0.8480   23.2357 C   0  0  0  0  0  0  0  0  0  0  0  0
   10.7788    0.4971   23.2102 C   0  0  0  0  0  0  0  0  0  0  0  0
   10.4212   -0.5235   23.3195 H   0  0  0  0  0  0  0  0  0  0  0  0
   13.5233   -0.9291   23.1321 H   0  0  0  0  0  0  0  0  0  0  0  0
   14.5123    3.0011   23.0734 H   0  0  0  0  0  0  0  0  0  0  0  0
   11.9154    4.2849   23.1681 H   0  0  0  0  0  0  0  0  0  0  0  0
    9.4728    3.6252   22.8871 H   0  0  0  0  0  0  0  0  0  0  0  0
    7.3406    1.5982   23.4154 C   0  0  0  0  0  0  0  0  0  0  0  0
    7.3087    2.5790   24.5423 C   0  0  0  0  0  0  0  0  0  0  0  0
    7.1307    4.0796   24.1532 C   0  0  0  0  0  0  0  0  0  0  0  0
    7.7903    4.9923   25.1498 C   0  0  0  0  0  0  0  0  0  0  0  0
    7.3354    5.7107   26.2363 C   0  0  0  0  0  0  0  0  0  0  0  0
    8.4936    6.2504   26.8306 C   0  0  0  0  0  0  0  0  0  0  0  0
    9.5916    5.9157   26.1751 N   0  0  0  0  0  0  0  0  0  0  0  0
    9.1418    5.1626   25.1601 N   0  0  0  0  0  0  0  0  0  0  0  0
    9.8155    4.7827   24.5049 H   0  0  0  0  0  0  0  0  0  0  0  0
    8.5635    6.8716   27.7151 H   0  0  0  0  0  0  0  0  0  0  0  0
    6.3171    5.8176   26.5823 H   0  0  0  0  0  0  0  0  0  0  0  0
    7.5353    4.3000   23.1527 H   0  0  0  0  0  0  0  0  0  0  0  0
    6.0622    4.3083   24.0830 H   0  0  0  0  0  0  0  0  0  0  0  0
    8.2423    2.4524   25.1007 H   0  0  0  0  0  0  0  0  0  0  0  0
    6.5062    2.2982   25.2279 H   0  0  0  0  0  0  0  0  0  0  0  0
    6.3110    1.0018   22.8315 N   0  0  0  0  0  0  0  0  0  0  0  0
    5.2205   -0.9637   21.3874 H   0  0  0  0  0  0  0  0  0  0  0  0
    6.7641   -1.6337   20.8576 H   0  0  0  0  0  0  0  0  0  0  0  0
    5.1409    1.0830   19.5560 C   0  0  0  0  0  0  0  0  0  0  0  0
    4.7028    1.4540   20.4863 H   0  0  0  0  0  0  0  0  0  0  0  0
    7.2150   -1.3314   18.3409 H   0  0  0  0  0  0  0  0  0  0  0  0
    5.4111    1.7345   16.2485 H   0  0  0  0  0  0  0  0  0  0  0  0
    4.2867    2.6010   18.2635 H   0  0  0  0  0  0  0  0  0  0  0  0
  1  2  2  0
  2  3  1  0
  3  4  2  0
  4  5  1  0
  5  6  1  0
  6  7  1  0
  7  8  2  0
  8  9  1  0
  9 10  1  0
 10 11  2  0
 11 12  1  0
 12 13  2  0
 13 14  1  0
 14 15  1  0
 15 16  2  0
 16 17  1  0
 17 18  2  0
 18 19  1  0
 16 20  1  0
 14 21  1  0
 12 22  1  0
 11 23  1  0
  9 24  1  0
 24 25  1  0
 25 26  1  0
 26 27  1  0
 27 28  2  0
 28 29  1  0
 29 30  2  0
 30 31  1  0
 31 32  1  0
 29 33  1  0
 28 34  1  0
 26 35  1  0
 26 36  1  0
 25 37  1  0
 25 38  1  0
 24 39  2  0
  6 40  1  0
  6 41  1  0
  5 42  2  0
 42 43  1  0
  4 44  1  0
  2 45  1  0
  1 46  1  0
 42  1  1  0
 39  7  1  0
 18 10  1  0
 31 27  1  0
 17 13  1  0
M  END
>  <cnnaffinity>  (1) 
-6.23717

>  <filename>  (1) 
[H]c1nc([H])c(C([H])([H])c2nc(C([H])([H])C([H])([H])c3c([H])c([H])nn3[H])n(-c3c([H])c([H])c4c(c([H])nn4[H])c3[H])n2)c([H])c1[H]

$$$$
