
     RDKit          3D

 36 39  0  0  0  0  0  0  0  0999 V2000
    4.9476    1.7805   16.9961 H   0  0  0  0  0  0  0  0  0  0  0  0
    5.4068    1.2843   17.8485 C   0  0  0  0  0  0  0  0  0  0  0  0
    6.5691    0.6622   17.6062 N   0  0  0  0  0  0  0  0  0  0  0  0
    7.1715    0.0473   18.6267 C   0  0  0  0  0  0  0  0  0  0  0  0
    8.1210   -0.4306   18.3849 H   0  0  0  0  0  0  0  0  0  0  0  0
    6.6426    0.0066   19.9279 C   0  0  0  0  0  0  0  0  0  0  0  0
    7.3411   -0.6906   21.0181 C   0  0  0  0  0  0  0  0  0  0  0  0
    6.8709   -0.7243   22.2238 N   0  0  0  0  0  0  0  0  0  0  0  0
    7.7317   -1.4191   23.0109 N   0  0  0  0  0  0  0  0  0  0  0  0
    7.8053   -1.7317   24.3539 C   0  0  0  0  0  0  0  0  0  0  0  0
    6.8122   -1.3575   25.2933 N   0  0  0  0  0  0  0  0  0  0  0  0
    6.3536   -0.4583   25.1972 H   0  0  0  0  0  0  0  0  0  0  0  0
    6.5911   -1.9327   26.5147 C   0  0  0  0  0  0  0  0  0  0  0  0
    7.1037   -3.4142   27.0288 S   0  0  0  0  0  0  0  0  0  0  0  0
    5.9040   -1.1391   27.4010 N   0  0  0  0  0  0  0  0  0  0  0  0
    5.9843   -1.5610   28.3123 H   0  0  0  0  0  0  0  0  0  0  0  0
    4.7446   -0.3465   27.1916 C   0  0  0  0  0  0  0  0  0  0  0  0
    4.4349    0.6508   28.1291 C   0  0  0  0  0  0  0  0  0  0  0  0
    5.0609    0.7544   29.0116 H   0  0  0  0  0  0  0  0  0  0  0  0
    3.3618    1.5199   27.8997 C   0  0  0  0  0  0  0  0  0  0  0  0
    3.1584    2.3284   28.6018 H   0  0  0  0  0  0  0  0  0  0  0  0
    2.5626    1.3630   26.7588 C   0  0  0  0  0  0  0  0  0  0  0  0
    1.7390    2.0450   26.5680 H   0  0  0  0  0  0  0  0  0  0  0  0
    2.8223    0.3157   25.8686 C   0  0  0  0  0  0  0  0  0  0  0  0
    2.2032    0.1708   24.9860 H   0  0  0  0  0  0  0  0  0  0  0  0
    3.9015   -0.5478   26.0896 C   0  0  0  0  0  0  0  0  0  0  0  0
    4.0940   -1.3859   25.4276 H   0  0  0  0  0  0  0  0  0  0  0  0
    9.0078   -2.4054   24.4750 C   0  0  0  0  0  0  0  0  0  0  0  0
    9.4155   -2.7920   25.3983 H   0  0  0  0  0  0  0  0  0  0  0  0
    9.6597   -2.5342   23.2752 N   0  0  0  0  0  0  0  0  0  0  0  0
    8.8593   -1.9278   22.4369 C   0  0  0  0  0  0  0  0  0  0  0  0
    8.8834   -1.5249   20.7645 S   0  0  0  0  0  0  0  0  0  0  0  0
    5.4196    0.6592   20.1696 C   0  0  0  0  0  0  0  0  0  0  0  0
    4.9843    0.6491   21.1696 H   0  0  0  0  0  0  0  0  0  0  0  0
    4.7994    1.3108   19.1076 C   0  0  0  0  0  0  0  0  0  0  0  0
    3.8687    1.8473   19.2399 H   0  0  0  0  0  0  0  0  0  0  0  0
  1  2  1  0
  2  3  2  0
  3  4  1  0
  4  5  1  0
  4  6  2  0
  6  7  1  0
  7  8  2  0
  8  9  1  0
  9 10  1  0
 10 11  1  0
 11 12  1  0
 11 13  1  0
 13 14  2  0
 13 15  1  0
 15 16  1  0
 15 17  1  0
 17 18  2  0
 18 19  1  0
 18 20  1  0
 20 21  1  0
 20 22  2  0
 22 23  1  0
 22 24  1  0
 24 25  1  0
 24 26  2  0
 26 27  1  0
 10 28  2  0
 28 29  1  0
 28 30  1  0
 30 31  2  0
 31 32  1  0
  6 33  1  0
 33 34  1  0
 33 35  2  0
 35 36  1  0
 35  2  1  0
 32  7  1  0
 31  9  1  0
 26 17  1  0
M  END
>  <cnnaffinity>  (1) 
-5.37611

>  <filename>  (1) 
[H]c1nc([H])c(-c2nn3c(N([H])C(=S)N([H])c4c([H])c([H])c([H])c([H])c4[H])c([H])nc3s2)c([H])c1[H]

$$$$
