
     RDKit          3D

 30 32  0  0  0  0  0  0  0  0999 V2000
    5.0557    1.7951   16.9752 H   0  0  0  0  0  0  0  0  0  0  0  0
    5.4977    1.2796   17.8287 C   0  0  0  0  0  0  0  0  0  0  0  0
    6.6591    0.6457   17.6066 N   0  0  0  0  0  0  0  0  0  0  0  0
    7.2227    0.0159   18.6377 C   0  0  0  0  0  0  0  0  0  0  0  0
    8.1574   -0.4968   18.4126 H   0  0  0  0  0  0  0  0  0  0  0  0
    6.6672   -0.0354   19.9176 C   0  0  0  0  0  0  0  0  0  0  0  0
    7.3439   -0.7893   20.9953 C   0  0  0  0  0  0  0  0  0  0  0  0
    6.7675   -1.4337   21.8410 O   0  0  0  0  0  0  0  0  0  0  0  0
    8.7235   -0.6435   20.9750 N   0  0  0  0  0  0  0  0  0  0  0  0
    9.1583   -0.5374   20.0778 H   0  0  0  0  0  0  0  0  0  0  0  0
    9.5746   -1.1326   21.9277 C   0  0  0  0  0  0  0  0  0  0  0  0
   11.0281   -1.7263   21.4596 S   0  0  0  0  0  0  0  0  0  0  0  0
    9.1052   -1.0576   23.3321 C   0  0  0  0  0  0  0  0  0  0  0  0
    8.4898    0.1399   23.8363 C   0  0  0  0  0  0  0  0  0  0  0  0
    8.3166    0.9805   23.1704 H   0  0  0  0  0  0  0  0  0  0  0  0
    8.0597    0.2442   25.1455 C   0  0  0  0  0  0  0  0  0  0  0  0
    7.6001    1.1398   25.5540 H   0  0  0  0  0  0  0  0  0  0  0  0
    8.2309   -0.8979   25.9558 C   0  0  0  0  0  0  0  0  0  0  0  0
    8.8240   -2.0864   25.4821 C   0  0  0  0  0  0  0  0  0  0  0  0
    8.7800   -2.9665   26.6019 C   0  0  0  0  0  0  0  0  0  0  0  0
    9.1484   -3.9800   26.6816 H   0  0  0  0  0  0  0  0  0  0  0  0
    8.2151   -2.3867   27.6352 N   0  0  0  0  0  0  0  0  0  0  0  0
    7.8808   -1.1429   27.2386 N   0  0  0  0  0  0  0  0  0  0  0  0
    7.4972   -0.4725   27.8903 H   0  0  0  0  0  0  0  0  0  0  0  0
    9.2827   -2.1657   24.1489 C   0  0  0  0  0  0  0  0  0  0  0  0
    9.7493   -3.0735   23.7713 H   0  0  0  0  0  0  0  0  0  0  0  0
    5.4596    0.6331   20.1478 C   0  0  0  0  0  0  0  0  0  0  0  0
    5.0167    0.6301   21.1464 H   0  0  0  0  0  0  0  0  0  0  0  0
    4.8672    1.3017   19.0784 C   0  0  0  0  0  0  0  0  0  0  0  0
    3.9394    1.8467   19.2017 H   0  0  0  0  0  0  0  0  0  0  0  0
  1  2  1  0
  2  3  2  0
  3  4  1  0
  4  5  1  0
  4  6  2  0
  6  7  1  0
  7  8  2  0
  7  9  1  0
  9 10  1  0
  9 11  1  0
 11 12  2  0
 11 13  1  0
 13 14  2  0
 14 15  1  0
 14 16  1  0
 16 17  1  0
 16 18  2  0
 18 19  1  0
 19 20  1  0
 20 21  1  0
 20 22  2  0
 22 23  1  0
 23 24  1  0
 19 25  2  0
 25 26  1  0
  6 27  1  0
 27 28  1  0
 27 29  2  0
 29 30  1  0
 29  2  1  0
 25 13  1  0
 23 18  1  0
M  END
>  <cnnaffinity>  (1) 
-5.88098

>  <filename>  (1) 
[H]c1nc([H])c(C(=O)N([H])C(=S)c2c([H])c([H])c3c(c([H])nn3[H])c2[H])c([H])c1[H]

$$$$
