
     RDKit          3D

 34 37  0  0  0  0  0  0  0  0999 V2000
    4.9133    1.7820   16.9929 H   0  0  0  0  0  0  0  0  0  0  0  0
    5.3992    1.2959   17.8336 C   0  0  0  0  0  0  0  0  0  0  0  0
    6.5619    0.6780   17.5670 N   0  0  0  0  0  0  0  0  0  0  0  0
    7.1702    0.0730   18.5935 C   0  0  0  0  0  0  0  0  0  0  0  0
    8.1121   -0.4264   18.3701 H   0  0  0  0  0  0  0  0  0  0  0  0
    6.6578    0.0143   19.9008 C   0  0  0  0  0  0  0  0  0  0  0  0
    7.3859   -0.7025   20.9748 C   0  0  0  0  0  0  0  0  0  0  0  0
    8.7713   -0.5379   21.1251 C   0  0  0  0  0  0  0  0  0  0  0  0
    9.3042    0.1332   20.4556 H   0  0  0  0  0  0  0  0  0  0  0  0
    9.4433   -1.2055   22.1497 C   0  0  0  0  0  0  0  0  0  0  0  0
   10.5151   -1.0690   22.2676 H   0  0  0  0  0  0  0  0  0  0  0  0
    8.7393   -2.0439   23.0189 C   0  0  0  0  0  0  0  0  0  0  0  0
    9.2769   -2.5703   23.7993 H   0  0  0  0  0  0  0  0  0  0  0  0
    7.3496   -2.2366   22.8860 C   0  0  0  0  0  0  0  0  0  0  0  0
    6.5978   -3.1332   23.8132 C   0  0  0  0  0  0  0  0  0  0  0  0
    5.5874   -3.9853   23.3280 C   0  0  0  0  0  0  0  0  0  0  0  0
    5.3691   -3.9911   22.2623 H   0  0  0  0  0  0  0  0  0  0  0  0
    4.8719   -4.8465   24.1815 C   0  0  0  0  0  0  0  0  0  0  0  0
    4.0940   -5.5015   23.8043 H   0  0  0  0  0  0  0  0  0  0  0  0
    5.1914   -4.8171   25.5257 C   0  0  0  0  0  0  0  0  0  0  0  0
    6.1863   -3.9726   26.0238 C   0  0  0  0  0  0  0  0  0  0  0  0
    6.8995   -3.1336   25.1997 C   0  0  0  0  0  0  0  0  0  0  0  0
    7.6607   -2.4716   25.5992 H   0  0  0  0  0  0  0  0  0  0  0  0
    6.3062   -4.1442   27.3738 O   0  0  0  0  0  0  0  0  0  0  0  0
    5.3414   -5.1329   27.7268 C   0  0  0  0  0  0  0  0  0  0  0  0
    5.8440   -5.9941   28.1746 H   0  0  0  0  0  0  0  0  0  0  0  0
    4.6298   -4.7106   28.4410 H   0  0  0  0  0  0  0  0  0  0  0  0
    4.6499   -5.5418   26.5481 O   0  0  0  0  0  0  0  0  0  0  0  0
    6.6957   -1.5498   21.8520 C   0  0  0  0  0  0  0  0  0  0  0  0
    5.6239   -1.6684   21.7144 H   0  0  0  0  0  0  0  0  0  0  0  0
    5.4329    0.6512   20.1503 C   0  0  0  0  0  0  0  0  0  0  0  0
    5.0125    0.6346   21.1604 H   0  0  0  0  0  0  0  0  0  0  0  0
    4.8026    1.3172   19.1011 C   0  0  0  0  0  0  0  0  0  0  0  0
    3.8688    1.8473   19.2572 H   0  0  0  0  0  0  0  0  0  0  0  0
  1  2  1  0
  2  3  2  0
  3  4  1  0
  4  5  1  0
  4  6  2  0
  6  7  1  0
  7  8  2  0
  8  9  1  0
  8 10  1  0
 10 11  1  0
 10 12  2  0
 12 13  1  0
 12 14  1  0
 14 15  1  0
 15 16  2  0
 16 17  1  0
 16 18  1  0
 18 19  1  0
 18 20  2  0
 20 21  1  0
 21 22  2  0
 22 23  1  0
 21 24  1  0
 24 25  1  0
 25 26  1  0
 25 27  1  0
 25 28  1  0
 14 29  2  0
 29 30  1  0
  6 31  1  0
 31 32  1  0
 31 33  2  0
 33 34  1  0
 33  2  1  0
 29  7  1  0
 22 15  1  0
 28 20  1  0
M  END
>  <cnnaffinity>  (1) 
-4.76004

>  <filename>  (1) 
[H]c1nc([H])c(-c2c([H])c([H])c([H])c(-c3c([H])c([H])c4c(c3[H])OC([H])([H])O4)c2[H])c([H])c1[H]

$$$$
