
     RDKit          3D

 46 48  0  0  0  0  0  0  0  0999 V2000
   11.6761   -0.7207   21.6510 C   0  0  0  0  0  0  0  0  0  0  0  0
   11.1918   -1.7314   22.6865 C   0  0  0  0  0  0  0  0  0  0  0  0
    9.9984   -2.5567   22.2000 C   0  0  0  0  0  0  0  0  0  0  0  0
    8.7647   -1.8236   21.9944 N   0  0  0  0  0  0  0  0  0  0  0  0
    8.4851   -1.3394   20.7638 N   0  0  0  0  0  0  0  0  0  0  0  0
    7.3564   -0.6878   20.9547 C   0  0  0  0  0  0  0  0  0  0  0  0
    6.6515    0.0086   19.8959 C   0  0  0  0  0  0  0  0  0  0  0  0
    5.4352    0.6557   20.1517 C   0  0  0  0  0  0  0  0  0  0  0  0
    4.8091    1.3051   19.0964 C   0  0  0  0  0  0  0  0  0  0  0  0
    5.4183    1.2816   17.8366 C   0  0  0  0  0  0  0  0  0  0  0  0
    6.5808    0.6605   17.5821 N   0  0  0  0  0  0  0  0  0  0  0  0
    7.1865    0.0430   18.6009 C   0  0  0  0  0  0  0  0  0  0  0  0
    8.1372   -0.4387   18.3715 H   0  0  0  0  0  0  0  0  0  0  0  0
    4.9530    1.7861   16.9941 H   0  0  0  0  0  0  0  0  0  0  0  0
    3.8762    1.8379   19.2404 H   0  0  0  0  0  0  0  0  0  0  0  0
    5.0058    0.6474   21.1561 H   0  0  0  0  0  0  0  0  0  0  0  0
    6.8972   -0.7226   22.2290 N   0  0  0  0  0  0  0  0  0  0  0  0
    7.8001   -1.4467   22.8601 C   0  0  0  0  0  0  0  0  0  0  0  0
    7.7681   -1.9193   24.2905 C   0  0  0  0  0  0  0  0  0  0  0  0
    7.0242   -0.9133   25.1832 C   0  0  0  0  0  0  0  0  0  0  0  0
    7.0421   -1.2301   26.2302 H   0  0  0  0  0  0  0  0  0  0  0  0
    7.4933    0.0729   25.1082 H   0  0  0  0  0  0  0  0  0  0  0  0
    5.9821   -0.8156   24.8593 H   0  0  0  0  0  0  0  0  0  0  0  0
    7.1919   -3.3372   24.3820 C   0  0  0  0  0  0  0  0  0  0  0  0
    5.9300   -3.6102   23.8505 C   0  0  0  0  0  0  0  0  0  0  0  0
    5.3674   -4.8893   23.9731 C   0  0  0  0  0  0  0  0  0  0  0  0
    4.1391   -5.0371   23.4105 O   0  0  0  0  0  0  0  0  0  0  0  0
    3.4827   -6.2875   23.4656 C   0  0  0  0  0  0  0  0  0  0  0  0
    2.5313   -6.1242   22.9566 H   0  0  0  0  0  0  0  0  0  0  0  0
    3.3018   -6.6074   24.5020 H   0  0  0  0  0  0  0  0  0  0  0  0
    4.0550   -7.0708   22.9478 H   0  0  0  0  0  0  0  0  0  0  0  0
    6.0639   -5.9035   24.6375 C   0  0  0  0  0  0  0  0  0  0  0  0
    7.3378   -5.6400   25.1577 C   0  0  0  0  0  0  0  0  0  0  0  0
    7.8960   -4.3655   25.0285 C   0  0  0  0  0  0  0  0  0  0  0  0
    8.8766   -4.1590   25.4486 H   0  0  0  0  0  0  0  0  0  0  0  0
    7.8889   -6.4290   25.6685 H   0  0  0  0  0  0  0  0  0  0  0  0
    5.5926   -6.8745   24.7422 H   0  0  0  0  0  0  0  0  0  0  0  0
    5.3686   -2.8399   23.3297 H   0  0  0  0  0  0  0  0  0  0  0  0
    8.8113   -1.9744   24.6301 H   0  0  0  0  0  0  0  0  0  0  0  0
   10.2201   -2.9418   21.2067 H   0  0  0  0  0  0  0  0  0  0  0  0
    9.8083   -3.4004   22.8752 H   0  0  0  0  0  0  0  0  0  0  0  0
   11.9816   -2.4699   22.8683 H   0  0  0  0  0  0  0  0  0  0  0  0
   10.9759   -1.2412   23.6487 H   0  0  0  0  0  0  0  0  0  0  0  0
   11.9860   -1.2449   20.7395 H   0  0  0  0  0  0  0  0  0  0  0  0
   10.8904   -0.0089   21.3715 H   0  0  0  0  0  0  0  0  0  0  0  0
   12.5416   -0.1588   22.0162 H   0  0  0  0  0  0  0  0  0  0  0  0
  1  2  1  0
  2  3  1  0
  3  4  1  0
  4  5  1  0
  5  6  2  0
  6  7  1  0
  7  8  2  0
  8  9  1  0
  9 10  2  0
 10 11  1  0
 11 12  2  0
 12 13  1  0
 10 14  1  0
  9 15  1  0
  8 16  1  0
  6 17  1  0
 17 18  2  0
 18 19  1  0
 19 20  1  0
 20 21  1  0
 20 22  1  0
 20 23  1  0
 19 24  1  0
 24 25  2  0
 25 26  1  0
 26 27  1  0
 27 28  1  0
 28 29  1  0
 28 30  1  0
 28 31  1  0
 26 32  2  0
 32 33  1  0
 33 34  2  0
 34 35  1  0
 33 36  1  0
 32 37  1  0
 25 38  1  0
 19 39  1  0
  3 40  1  0
  3 41  1  0
  2 42  1  0
  2 43  1  0
  1 44  1  0
  1 45  1  0
  1 46  1  0
 18  4  1  0
 34 24  1  0
 12  7  1  0
M  END
>  <cnnaffinity>  (1) 
-6.07209

>  <filename>  (1) 
[H]c1nc([H])c(-c2nc(C([H])(c3c([H])c([H])c([H])c(OC([H])([H])[H])c3[H])C([H])([H])[H])n(C([H])([H])C([H])([H])C([H])([H])[H])n2)c([H])c1[H]

$$$$
