
     RDKit          3D

 33 34  0  0  0  0  0  0  0  0999 V2000
    8.3467   -1.1571   20.6918 H   0  0  0  0  0  0  0  0  0  0  0  0
    7.3870   -0.7002   20.9719 C   0  0  0  0  0  0  0  0  0  0  0  0
    6.9023   -0.7767   22.1486 N   0  0  0  0  0  0  0  0  0  0  0  0
    7.6300   -1.4484   23.2086 C   0  0  0  0  0  0  0  0  0  0  0  0
    6.9336   -1.5768   24.0499 H   0  0  0  0  0  0  0  0  0  0  0  0
    7.9281   -2.4656   22.9075 H   0  0  0  0  0  0  0  0  0  0  0  0
    8.8610   -0.6611   23.6800 C   0  0  0  0  0  0  0  0  0  0  0  0
    9.3321   -1.1968   24.5167 H   0  0  0  0  0  0  0  0  0  0  0  0
    9.5924   -0.6374   22.8633 H   0  0  0  0  0  0  0  0  0  0  0  0
    8.5480    0.7830   24.1125 C   0  0  0  0  0  0  0  0  0  0  0  0
    8.1145    1.3363   23.2696 H   0  0  0  0  0  0  0  0  0  0  0  0
    9.4864    1.2903   24.3687 H   0  0  0  0  0  0  0  0  0  0  0  0
    7.6153    0.8390   25.2990 C   0  0  0  0  0  0  0  0  0  0  0  0
    6.2430    1.0880   25.1348 C   0  0  0  0  0  0  0  0  0  0  0  0
    5.8454    1.2680   24.1380 H   0  0  0  0  0  0  0  0  0  0  0  0
    5.3830    1.1078   26.2376 C   0  0  0  0  0  0  0  0  0  0  0  0
    4.3253    1.3097   26.0951 H   0  0  0  0  0  0  0  0  0  0  0  0
    5.8852    0.8666   27.5190 C   0  0  0  0  0  0  0  0  0  0  0  0
    5.2187    0.8815   28.3752 H   0  0  0  0  0  0  0  0  0  0  0  0
    7.2474    0.6028   27.6969 C   0  0  0  0  0  0  0  0  0  0  0  0
    7.6397    0.4127   28.6928 H   0  0  0  0  0  0  0  0  0  0  0  0
    8.1044    0.5839   26.5942 C   0  0  0  0  0  0  0  0  0  0  0  0
    9.1637    0.3721   26.7411 H   0  0  0  0  0  0  0  0  0  0  0  0
    6.6589    0.0085   19.9079 C   0  0  0  0  0  0  0  0  0  0  0  0
    7.1798    0.0584   18.6107 C   0  0  0  0  0  0  0  0  0  0  0  0
    8.1295   -0.4355   18.3820 H   0  0  0  0  0  0  0  0  0  0  0  0
    6.5747    0.6765   17.5888 N   0  0  0  0  0  0  0  0  0  0  0  0
    5.4044    1.2887   17.8468 C   0  0  0  0  0  0  0  0  0  0  0  0
    4.9083    1.7705   17.0069 H   0  0  0  0  0  0  0  0  0  0  0  0
    4.8047    1.3117   19.1109 C   0  0  0  0  0  0  0  0  0  0  0  0
    3.8707    1.8460   19.2672 H   0  0  0  0  0  0  0  0  0  0  0  0
    5.4386    0.6552   20.1561 C   0  0  0  0  0  0  0  0  0  0  0  0
    5.0135    0.6250   21.1550 H   0  0  0  0  0  0  0  0  0  0  0  0
  1  2  1  0
  2  3  2  3
  3  4  1  0
  4  5  1  0
  4  6  1  0
  4  7  1  0
  7  8  1  0
  7  9  1  0
  7 10  1  0
 10 11  1  0
 10 12  1  0
 10 13  1  0
 13 14  2  0
 14 15  1  0
 14 16  1  0
 16 17  1  0
 16 18  2  0
 18 19  1  0
 18 20  1  0
 20 21  1  0
 20 22  2  0
 22 23  1  0
  2 24  1  0
 24 25  2  0
 25 26  1  0
 25 27  1  0
 27 28  2  0
 28 29  1  0
 28 30  1  0
 30 31  1  0
 30 32  2  0
 32 33  1  0
 22 13  1  0
 32 24  1  0
M  END
>  <cnnaffinity>  (1) 
-4.32598

>  <filename>  (1) 
[H]C(=NC([H])([H])C([H])([H])C([H])([H])c1c([H])c([H])c([H])c([H])c1[H])c1c([H])nc([H])c([H])c1[H]

$$$$
