
     RDKit          3D

 33 35  0  0  0  0  0  0  0  0999 V2000
    4.9418    1.8733   16.9135 H   0  0  0  0  0  0  0  0  0  0  0  0
    5.3963    1.3384   17.7469 C   0  0  0  0  0  0  0  0  0  0  0  0
    6.5598    0.7240   17.4933 N   0  0  0  0  0  0  0  0  0  0  0  0
    7.1411    0.0773   18.5128 C   0  0  0  0  0  0  0  0  0  0  0  0
    8.0915   -0.4004   18.2742 H   0  0  0  0  0  0  0  0  0  0  0  0
    6.6039   -0.0077   19.8164 C   0  0  0  0  0  0  0  0  0  0  0  0
    7.3197   -0.7020   20.9718 C   0  0  2  0  0  0  0  0  0  0  0  0
    8.1617   -1.2779   20.5561 H   0  0  0  0  0  0  0  0  0  0  0  0
    6.4704   -1.7445   21.7329 C   0  0  0  0  0  0  0  0  0  0  0  0
    5.8158   -2.6588   21.2809 O   0  0  0  0  0  0  0  0  0  0  0  0
    6.6274   -1.5121   23.0743 N   0  0  0  0  0  0  0  0  0  0  0  0
    5.8787   -1.8980   23.6273 H   0  0  0  0  0  0  0  0  0  0  0  0
    7.1515   -0.2022   23.3939 C   0  0  0  0  0  0  0  0  0  0  0  0
    7.8697   -0.2495   24.2227 H   0  0  0  0  0  0  0  0  0  0  0  0
    6.3635    0.4856   23.7307 H   0  0  0  0  0  0  0  0  0  0  0  0
    7.7952    0.2859   22.0747 C   0  0  1  0  0  0  0  0  0  0  0  0
    7.4374    1.3032   21.8683 H   0  0  0  0  0  0  0  0  0  0  0  0
    9.3262    0.3938   22.1791 C   0  0  1  0  0  0  0  0  0  0  0  0
    9.7131    0.8223   21.2367 H   0  0  0  0  0  0  0  0  0  0  0  0
    9.6047    1.2872   23.2443 O   0  0  0  0  0  0  0  0  0  0  0  0
   10.8768    0.9984   23.7881 C   0  0  0  0  0  0  0  0  0  0  0  0
   10.8539    1.2911   24.8447 H   0  0  0  0  0  0  0  0  0  0  0  0
   11.6527    1.5939   23.2764 H   0  0  0  0  0  0  0  0  0  0  0  0
   11.1031   -0.5050   23.5864 C   0  0  0  0  0  0  0  0  0  0  0  0
   10.9129   -1.0560   24.5182 H   0  0  0  0  0  0  0  0  0  0  0  0
   12.1323   -0.6926   23.2742 H   0  0  0  0  0  0  0  0  0  0  0  0
   10.0773   -0.9083   22.5086 C   0  0  0  0  0  0  0  0  0  0  0  0
    9.3924   -1.6622   22.9140 H   0  0  0  0  0  0  0  0  0  0  0  0
   10.5340   -1.3415   21.6116 H   0  0  0  0  0  0  0  0  0  0  0  0
    5.3923    0.6493   20.0508 C   0  0  0  0  0  0  0  0  0  0  0  0
    4.9415    0.6474   21.0494 H   0  0  0  0  0  0  0  0  0  0  0  0
    4.7747    1.3288   18.9997 C   0  0  0  0  0  0  0  0  0  0  0  0
    3.8461    1.8674   19.1458 H   0  0  0  0  0  0  0  0  0  0  0  0
  1  2  1  0
  2  3  2  0
  3  4  1  0
  4  5  1  0
  4  6  2  0
  6  7  1  0
  7  8  1  6
  7  9  1  0
  9 10  2  0
  9 11  1  0
 11 12  1  0
 11 13  1  0
 13 14  1  0
 13 15  1  0
 13 16  1  0
 16 17  1  6
 16 18  1  0
 18 19  1  6
 18 20  1  0
 20 21  1  0
 21 22  1  0
 21 23  1  0
 21 24  1  0
 24 25  1  0
 24 26  1  0
 24 27  1  0
 27 28  1  0
 27 29  1  0
  6 30  1  0
 30 31  1  0
 30 32  2  0
 32 33  1  0
 32  2  1  0
 16  7  1  0
 27 18  1  0
M  END
>  <cnnaffinity>  (1) 
-4.83949

>  <filename>  (1) 
[H]c1nc([H])c([C@]2([H])C(=O)N([H])C([H])([H])[C@@]2([H])[C@@]2([H])OC([H])([H])C([H])([H])C2([H])[H])c([H])c1[H]

$$$$
