
     RDKit          3D

 35 37  0  0  0  0  0  0  0  0999 V2000
    4.9204    1.7804   16.9954 H   0  0  0  0  0  0  0  0  0  0  0  0
    5.4033    1.2907   17.8401 C   0  0  0  0  0  0  0  0  0  0  0  0
    6.5689    0.6696   17.5958 N   0  0  0  0  0  0  0  0  0  0  0  0
    7.1715    0.0572   18.6206 C   0  0  0  0  0  0  0  0  0  0  0  0
    8.1167   -0.4238   18.3725 H   0  0  0  0  0  0  0  0  0  0  0  0
    6.6641   -0.0041   19.9476 C   0  0  0  0  0  0  0  0  0  0  0  0
    7.3598   -0.6851   20.9391 N   0  0  0  0  0  0  0  0  0  0  0  0
    8.2593   -1.1380   20.8030 H   0  0  0  0  0  0  0  0  0  0  0  0
    6.8399   -0.7608   22.2357 O   0  0  0  0  0  0  0  0  0  0  0  0
    7.6009   -1.3929   23.2092 C   0  0  0  0  0  0  0  0  0  0  0  0
    8.6734   -1.8917   22.9891 O   0  0  0  0  0  0  0  0  0  0  0  0
    6.8953   -1.3552   24.5538 C   0  0  0  0  0  0  0  0  0  0  0  0
    7.4497   -2.0324   25.2017 H   0  0  0  0  0  0  0  0  0  0  0  0
    5.8715   -1.7460   24.4854 H   0  0  0  0  0  0  0  0  0  0  0  0
    6.8917    0.0331   25.1551 C   0  0  0  0  0  0  0  0  0  0  0  0
    7.9970    0.4763   25.9453 C   0  0  0  0  0  0  0  0  0  0  0  0
    8.8207   -0.2089   26.1514 H   0  0  0  0  0  0  0  0  0  0  0  0
    8.0298    1.7602   26.4376 C   0  0  0  0  0  0  0  0  0  0  0  0
    8.8656    2.1086   27.0401 H   0  0  0  0  0  0  0  0  0  0  0  0
    6.9664    2.6747   26.1684 C   0  0  0  0  0  0  0  0  0  0  0  0
    6.9693    4.0145   26.6607 C   0  0  0  0  0  0  0  0  0  0  0  0
    7.8154    4.3403   27.2665 H   0  0  0  0  0  0  0  0  0  0  0  0
    5.9276    4.8676   26.3709 C   0  0  0  0  0  0  0  0  0  0  0  0
    5.9339    5.8891   26.7456 H   0  0  0  0  0  0  0  0  0  0  0  0
    4.8284    4.4239   25.5733 C   0  0  0  0  0  0  0  0  0  0  0  0
    4.0157    5.1127   25.3513 H   0  0  0  0  0  0  0  0  0  0  0  0
    4.7965    3.1384   25.0865 C   0  0  0  0  0  0  0  0  0  0  0  0
    3.9652    2.7857   24.4739 H   0  0  0  0  0  0  0  0  0  0  0  0
    5.8586    2.2325   25.3716 C   0  0  0  0  0  0  0  0  0  0  0  0
    5.8557    0.8952   24.8842 C   0  0  0  0  0  0  0  0  0  0  0  0
    5.0216    0.5601   24.2717 H   0  0  0  0  0  0  0  0  0  0  0  0
    5.4387    0.6491   20.1737 C   0  0  0  0  0  0  0  0  0  0  0  0
    5.0000    0.6326   21.1695 H   0  0  0  0  0  0  0  0  0  0  0  0
    4.8148    1.3043   19.1089 C   0  0  0  0  0  0  0  0  0  0  0  0
    3.8822    1.8365   19.2620 H   0  0  0  0  0  0  0  0  0  0  0  0
  1  2  1  0
  2  3  2  0
  3  4  1  0
  4  5  1  0
  4  6  2  0
  6  7  1  0
  7  8  1  0
  7  9  1  0
  9 10  1  0
 10 11  2  0
 10 12  1  0
 12 13  1  0
 12 14  1  0
 12 15  1  0
 15 16  2  0
 16 17  1  0
 16 18  1  0
 18 19  1  0
 18 20  2  0
 20 21  1  0
 21 22  1  0
 21 23  2  0
 23 24  1  0
 23 25  1  0
 25 26  1  0
 25 27  2  0
 27 28  1  0
 27 29  1  0
 29 30  2  0
 30 31  1  0
  6 32  1  0
 32 33  1  0
 32 34  2  0
 34 35  1  0
 34  2  1  0
 30 15  1  0
 29 20  1  0
M  END
>  <cnnaffinity>  (1) 
-4.65391

>  <filename>  (1) 
[H]c1nc([H])c(N([H])OC(=O)C([H])([H])c2c([H])c([H])c3c([H])c([H])c([H])c([H])c3c2[H])c([H])c1[H]

$$$$
