
     RDKit          3D

 46 50  0  0  0  0  0  0  0  0999 V2000
    4.8830    1.3742   18.9249 C   0  0  0  0  0  0  0  0  0  0  0  0
    5.4905    1.2481   17.6728 C   0  0  0  0  0  0  0  0  0  0  0  0
    6.5907    0.5108   17.4550 N   0  0  0  0  0  0  0  0  0  0  0  0
    7.1094   -0.1435   18.5031 C   0  0  0  0  0  0  0  0  0  0  0  0
    6.5731   -0.1058   19.8038 C   0  0  0  0  0  0  0  0  0  0  0  0
    7.1889   -0.8530   20.9883 C   0  0  0  0  0  0  0  0  0  0  0  0
    7.9565    0.0155   21.9511 C   0  0  0  0  0  0  0  0  0  0  0  0
    9.2667   -0.0045   21.9295 N   0  0  0  0  0  0  0  0  0  0  0  0
    9.6156    0.9662   22.8184 N   0  0  0  0  0  0  0  0  0  0  0  0
   10.9035    1.5974   22.6948 C   0  0  0  0  0  0  0  0  0  0  0  0
   11.8915    1.4819   23.7027 C   0  0  0  0  0  0  0  0  0  0  0  0
   13.0301    2.2707   23.6506 C   0  0  0  0  0  0  0  0  0  0  0  0
   13.1238    3.2317   22.6280 C   0  0  0  0  0  0  0  0  0  0  0  0
   14.0299    4.2235   22.3954 N   0  0  0  0  0  0  0  0  0  0  0  0
   13.7496    4.9287   21.2750 N   0  0  0  0  0  0  0  0  0  0  0  0
   12.6599    4.3799   20.7658 C   0  0  0  0  0  0  0  0  0  0  0  0
   12.1854    3.3030   21.5815 C   0  0  0  0  0  0  0  0  0  0  0  0
   11.0928    2.4038   21.5790 C   0  0  0  0  0  0  0  0  0  0  0  0
   10.3679    2.3318   20.7765 H   0  0  0  0  0  0  0  0  0  0  0  0
   12.2284    4.7432   19.8390 H   0  0  0  0  0  0  0  0  0  0  0  0
   14.8030    4.4679   22.9933 H   0  0  0  0  0  0  0  0  0  0  0  0
   13.8235    2.1774   24.3691 H   0  0  0  0  0  0  0  0  0  0  0  0
   11.7525    0.7754   24.5145 H   0  0  0  0  0  0  0  0  0  0  0  0
    8.4715    1.5643   23.2786 C   0  0  0  0  0  0  0  0  0  0  0  0
    8.4494    2.7887   24.1463 C   0  0  0  0  0  0  0  0  0  0  0  0
    8.7328    4.1161   23.3855 C   0  0  0  0  0  0  0  0  0  0  0  0
    8.8711    5.3304   24.2661 C   0  0  0  0  0  0  0  0  0  0  0  0
    7.8896    6.0016   24.9263 C   0  0  0  0  0  0  0  0  0  0  0  0
    8.3962    7.0717   25.5929 O   0  0  0  0  0  0  0  0  0  0  0  0
    9.7275    7.0907   25.3550 C   0  0  0  0  0  0  0  0  0  0  0  0
   10.0836    6.0552   24.5557 C   0  0  0  0  0  0  0  0  0  0  0  0
   11.0767    5.8176   24.1877 H   0  0  0  0  0  0  0  0  0  0  0  0
   10.2672    7.9052   25.8170 H   0  0  0  0  0  0  0  0  0  0  0  0
    6.8169    5.8795   25.0067 H   0  0  0  0  0  0  0  0  0  0  0  0
    7.9253    4.2775   22.6570 H   0  0  0  0  0  0  0  0  0  0  0  0
    9.6509    4.0161   22.7870 H   0  0  0  0  0  0  0  0  0  0  0  0
    9.1729    2.6678   24.9588 H   0  0  0  0  0  0  0  0  0  0  0  0
    7.4566    2.8295   24.6038 H   0  0  0  0  0  0  0  0  0  0  0  0
    7.4141    0.9463   22.7871 N   0  0  0  0  0  0  0  0  0  0  0  0
    7.8929   -1.6165   20.6418 H   0  0  0  0  0  0  0  0  0  0  0  0
    6.3989   -1.3541   21.5569 H   0  0  0  0  0  0  0  0  0  0  0  0
    5.4389    0.6926   20.0091 C   0  0  0  0  0  0  0  0  0  0  0  0
    5.0302    0.7921   21.0170 H   0  0  0  0  0  0  0  0  0  0  0  0
    8.0113   -0.7278   18.3065 H   0  0  0  0  0  0  0  0  0  0  0  0
    5.0728    1.7538   16.8033 H   0  0  0  0  0  0  0  0  0  0  0  0
    4.0068    2.0043   19.0378 H   0  0  0  0  0  0  0  0  0  0  0  0
  1  2  2  0
  2  3  1  0
  3  4  2  0
  4  5  1  0
  5  6  1  0
  6  7  1  0
  7  8  2  0
  8  9  1  0
  9 10  1  0
 10 11  2  0
 11 12  1  0
 12 13  2  0
 13 14  1  0
 14 15  1  0
 15 16  2  0
 16 17  1  0
 17 18  2  0
 18 19  1  0
 16 20  1  0
 14 21  1  0
 12 22  1  0
 11 23  1  0
  9 24  1  0
 24 25  1  0
 25 26  1  0
 26 27  1  0
 27 28  2  0
 28 29  1  0
 29 30  1  0
 30 31  2  0
 31 32  1  0
 30 33  1  0
 28 34  1  0
 26 35  1  0
 26 36  1  0
 25 37  1  0
 25 38  1  0
 24 39  2  0
  6 40  1  0
  6 41  1  0
  5 42  2  0
 42 43  1  0
  4 44  1  0
  2 45  1  0
  1 46  1  0
 42  1  1  0
 39  7  1  0
 18 10  1  0
 31 27  1  0
 17 13  1  0
M  END
>  <cnnaffinity>  (1) 
-6.59941

>  <filename>  (1) 
[H]c1nc([H])c(C([H])([H])c2nc(C([H])([H])C([H])([H])c3c([H])oc([H])c3[H])n(-c3c([H])c([H])c4c(c([H])nn4[H])c3[H])n2)c([H])c1[H]

$$$$
