
     RDKit          3D

 29 31  0  0  0  0  0  0  0  0999 V2000
    5.0067    1.8025   16.9989 H   0  0  0  0  0  0  0  0  0  0  0  0
    5.4360    1.2642   17.8458 C   0  0  0  0  0  0  0  0  0  0  0  0
    6.5854    0.6131   17.6142 N   0  0  0  0  0  0  0  0  0  0  0  0
    7.1419   -0.0332   18.6506 C   0  0  0  0  0  0  0  0  0  0  0  0
    8.0844   -0.5382   18.4434 H   0  0  0  0  0  0  0  0  0  0  0  0
    6.5983   -0.0921   19.9477 C   0  0  0  0  0  0  0  0  0  0  0  0
    7.3261   -0.8158   21.0582 C   0  0  0  0  0  0  0  0  0  0  0  0
    7.0039   -2.2655   21.2953 C   0  0  0  0  0  0  0  0  0  0  0  0
    7.8545   -3.2455   21.2178 N   0  0  0  0  0  0  0  0  0  0  0  0
    7.2871   -4.4648   21.4516 N   0  0  0  0  0  0  0  0  0  0  0  0
    6.0294   -4.3572   21.7196 C   0  0  0  0  0  0  0  0  0  0  0  0
    5.3008   -5.4794   21.9274 O   0  0  0  0  0  0  0  0  0  0  0  0
    4.2022   -5.4586   22.7595 C   0  0  0  0  0  0  0  0  0  0  0  0
    3.6929   -4.4380   23.1254 O   0  0  0  0  0  0  0  0  0  0  0  0
    3.7575   -6.8531   23.0694 C   0  0  0  0  0  0  0  0  0  0  0  0
    3.0536   -7.1710   22.2937 H   0  0  0  0  0  0  0  0  0  0  0  0
    3.2487   -6.8664   24.0335 H   0  0  0  0  0  0  0  0  0  0  0  0
    4.6152   -7.5273   23.0697 H   0  0  0  0  0  0  0  0  0  0  0  0
    5.4100   -2.7444   21.7286 S   0  0  0  0  0  0  0  0  0  0  0  0
    8.7567   -0.4182   21.3002 C   0  0  0  0  0  0  0  0  0  0  0  0
    9.1757    0.3409   20.6426 H   0  0  0  0  0  0  0  0  0  0  0  0
    9.4162   -1.2313   21.5824 H   0  0  0  0  0  0  0  0  0  0  0  0
    7.7148    0.0030   22.2839 C   0  0  0  0  0  0  0  0  0  0  0  0
    7.6768   -0.4858   23.2524 H   0  0  0  0  0  0  0  0  0  0  0  0
    7.4161    1.0501   22.2949 H   0  0  0  0  0  0  0  0  0  0  0  0
    5.4043    0.6073   20.1635 C   0  0  0  0  0  0  0  0  0  0  0  0
    4.9590    0.6324   21.1601 H   0  0  0  0  0  0  0  0  0  0  0  0
    4.8072    1.2864   19.0946 C   0  0  0  0  0  0  0  0  0  0  0  0
    3.8834    1.8375   19.2190 H   0  0  0  0  0  0  0  0  0  0  0  0
  1  2  1  0
  2  3  2  0
  3  4  1  0
  4  5  1  0
  4  6  2  0
  6  7  1  0
  7  8  1  0
  8  9  2  0
  9 10  1  0
 10 11  2  0
 11 12  1  0
 12 13  1  0
 13 14  2  0
 13 15  1  0
 15 16  1  0
 15 17  1  0
 15 18  1  0
 11 19  1  0
  7 20  1  0
 20 21  1  0
 20 22  1  0
 20 23  1  0
 23 24  1  0
 23 25  1  0
  6 26  1  0
 26 27  1  0
 26 28  2  0
 28 29  1  0
 28  2  1  0
 23  7  1  0
 19  8  1  0
M  END
>  <cnnaffinity>  (1) 
-4.9224

>  <filename>  (1) 
[H]c1nc([H])c(C2(c3nnc(OC(=O)C([H])([H])[H])s3)C([H])([H])C2([H])[H])c([H])c1[H]

$$$$
