
     RDKit          3D

 34 37  0  0  0  0  0  0  0  0999 V2000
    4.9277    1.7951   16.9959 H   0  0  0  0  0  0  0  0  0  0  0  0
    5.3935    1.2950   17.8430 C   0  0  0  0  0  0  0  0  0  0  0  0
    6.5603    0.6797   17.5835 N   0  0  0  0  0  0  0  0  0  0  0  0
    7.1663    0.0605   18.6029 C   0  0  0  0  0  0  0  0  0  0  0  0
    8.1157   -0.4248   18.3671 H   0  0  0  0  0  0  0  0  0  0  0  0
    6.6605    0.0066   19.9212 C   0  0  0  0  0  0  0  0  0  0  0  0
    7.3828   -0.7014   21.0064 C   0  0  0  0  0  0  0  0  0  0  0  0
    7.8865   -2.3410   20.8820 S   0  0  0  0  0  0  0  0  0  0  0  0
    8.6182   -2.4166   22.3647 N   0  0  0  0  0  0  0  0  0  0  0  0
    8.4739   -1.2647   22.9636 C   0  0  0  0  0  0  0  0  0  0  0  0
    8.9116   -1.1473   23.9525 H   0  0  0  0  0  0  0  0  0  0  0  0
    7.7666   -0.2446   22.2431 C   0  0  0  0  0  0  0  0  0  0  0  0
    7.6135    1.1488   22.7814 C   0  0  0  0  0  0  0  0  0  0  0  0
    6.8979    1.7266   22.1911 H   0  0  0  0  0  0  0  0  0  0  0  0
    8.5726    1.6753   22.7590 H   0  0  0  0  0  0  0  0  0  0  0  0
    7.1685    1.1401   24.1598 N   0  0  0  0  0  0  0  0  0  0  0  0
    5.8521    0.8930   24.5166 C   0  0  0  0  0  0  0  0  0  0  0  0
    4.9295    0.9632   23.7393 O   0  0  0  0  0  0  0  0  0  0  0  0
    5.8564    0.6472   25.9972 C   0  0  0  0  0  0  0  0  0  0  0  0
    4.8346    0.2946   26.8858 C   0  0  0  0  0  0  0  0  0  0  0  0
    3.8289    0.0710   26.5352 H   0  0  0  0  0  0  0  0  0  0  0  0
    5.1362    0.2561   28.2538 C   0  0  0  0  0  0  0  0  0  0  0  0
    4.3630   -0.0025   28.9749 H   0  0  0  0  0  0  0  0  0  0  0  0
    6.4353    0.5563   28.7171 C   0  0  0  0  0  0  0  0  0  0  0  0
    6.6475    0.5168   29.7841 H   0  0  0  0  0  0  0  0  0  0  0  0
    7.4565    0.8902   27.8204 C   0  0  0  0  0  0  0  0  0  0  0  0
    8.4574    1.1192   28.1775 H   0  0  0  0  0  0  0  0  0  0  0  0
    7.1502    0.9145   26.4563 C   0  0  0  0  0  0  0  0  0  0  0  0
    8.0012    1.2344   25.2654 C   0  0  0  0  0  0  0  0  0  0  0  0
    9.1747    1.5220   25.1990 O   0  0  0  0  0  0  0  0  0  0  0  0
    5.4369    0.6532   20.1628 C   0  0  0  0  0  0  0  0  0  0  0  0
    5.0114    0.6358   21.1672 H   0  0  0  0  0  0  0  0  0  0  0  0
    4.7977    1.3064   19.1053 C   0  0  0  0  0  0  0  0  0  0  0  0
    3.8677    1.8395   19.2501 H   0  0  0  0  0  0  0  0  0  0  0  0
  1  2  1  0
  2  3  2  0
  3  4  1  0
  4  5  1  0
  4  6  2  0
  6  7  1  0
  7  8  1  0
  8  9  1  0
  9 10  2  0
 10 11  1  0
 10 12  1  0
 12 13  1  0
 13 14  1  0
 13 15  1  0
 13 16  1  0
 16 17  1  0
 17 18  2  0
 17 19  1  0
 19 20  2  0
 20 21  1  0
 20 22  1  0
 22 23  1  0
 22 24  2  0
 24 25  1  0
 24 26  1  0
 26 27  1  0
 26 28  2  0
 28 29  1  0
 29 30  2  0
  6 31  1  0
 31 32  1  0
 31 33  2  0
 33 34  1  0
 33  2  1  0
 12  7  2  0
 29 16  1  0
 28 19  1  0
M  END
>  <cnnaffinity>  (1) 
-5.29107

>  <filename>  (1) 
[H]c1nc([H])c(-c2snc([H])c2C([H])([H])N2C(=O)c3c([H])c([H])c([H])c([H])c3C2=O)c([H])c1[H]

$$$$
