
     RDKit          3D

 32 34  0  0  0  0  0  0  0  0999 V2000
    5.1358    1.1186   16.9077 H   0  0  0  0  0  0  0  0  0  0  0  0
    5.5072    0.6808   17.8336 C   0  0  0  0  0  0  0  0  0  0  0  0
    6.6025   -0.0914   17.7425 N   0  0  0  0  0  0  0  0  0  0  0  0
    7.0900   -0.6427   18.8707 C   0  0  0  0  0  0  0  0  0  0  0  0
    7.9918   -1.2434   18.7771 H   0  0  0  0  0  0  0  0  0  0  0  0
    6.5016   -0.4685   20.1494 C   0  0  0  0  0  0  0  0  0  0  0  0
    6.9368   -1.0032   21.3828 N   0  0  0  0  0  0  0  0  0  0  0  0
    6.2870   -0.8402   22.1447 H   0  0  0  0  0  0  0  0  0  0  0  0
    8.4958   -1.5253   21.8230 S   0  0  0  0  0  4  0  0  0  0  0  0
    9.0657   -2.2271   20.6525 O   0  0  0  0  0  0  0  0  0  0  0  0
    9.5168    0.0388   22.0702 C   0  0  0  0  0  0  0  0  0  0  0  0
   10.0477    0.1623   21.1206 H   0  0  0  0  0  0  0  0  0  0  0  0
   10.2267   -0.1920   22.8711 H   0  0  0  0  0  0  0  0  0  0  0  0
    8.8320    1.2552   22.4412 N   0  0  0  0  0  0  0  0  0  0  0  0
    8.1623    2.1001   21.5449 C   0  0  0  0  0  0  0  0  0  0  0  0
    8.2810    2.0232   20.3484 O   0  0  0  0  0  0  0  0  0  0  0  0
    7.3496    3.0332   22.3739 C   0  0  0  0  0  0  0  0  0  0  0  0
    6.4721    4.0602   22.0138 C   0  0  0  0  0  0  0  0  0  0  0  0
    6.2806    4.3183   20.9733 H   0  0  0  0  0  0  0  0  0  0  0  0
    5.8607    4.7835   23.0420 C   0  0  0  0  0  0  0  0  0  0  0  0
    5.1839    5.5966   22.7921 H   0  0  0  0  0  0  0  0  0  0  0  0
    6.1348    4.4973   24.3961 C   0  0  0  0  0  0  0  0  0  0  0  0
    5.6568    5.0885   25.1731 H   0  0  0  0  0  0  0  0  0  0  0  0
    7.0157    3.4714   24.7488 C   0  0  0  0  0  0  0  0  0  0  0  0
    7.2331    3.2574   25.7937 H   0  0  0  0  0  0  0  0  0  0  0  0
    7.6209    2.7532   23.7145 C   0  0  0  0  0  0  0  0  0  0  0  0
    8.6167    1.6461   23.7646 C   0  0  0  0  0  0  0  0  0  0  0  0
    9.1659    1.1455   24.7150 O   0  0  0  0  0  0  0  0  0  0  0  0
    5.3601    0.3453   20.2116 C   0  0  0  0  0  0  0  0  0  0  0  0
    4.9028    0.5268   21.1831 H   0  0  0  0  0  0  0  0  0  0  0  0
    4.8585    0.9303   19.0462 C   0  0  0  0  0  0  0  0  0  0  0  0
    3.9906    1.5812   19.0821 H   0  0  0  0  0  0  0  0  0  0  0  0
  1  2  1  0
  2  3  2  0
  3  4  1  0
  4  5  1  0
  4  6  2  0
  6  7  1  0
  7  8  1  0
  9  7  1  6
  9 10  2  0
  9 11  1  0
 11 12  1  0
 11 13  1  0
 11 14  1  0
 14 15  1  0
 15 16  2  0
 15 17  1  0
 17 18  2  0
 18 19  1  0
 18 20  1  0
 20 21  1  0
 20 22  2  0
 22 23  1  0
 22 24  1  0
 24 25  1  0
 24 26  2  0
 26 27  1  0
 27 28  2  0
  6 29  1  0
 29 30  1  0
 29 31  2  0
 31 32  1  0
 31  2  1  0
 27 14  1  0
 26 17  1  0
M  END
>  <cnnaffinity>  (1) 
-4.92959

>  <filename>  (1) 
[H]c1nc([H])c(N([H])[S@@](=O)C([H])([H])N2C(=O)c3c([H])c([H])c([H])c([H])c3C2=O)c([H])c1[H]

$$$$
