
     RDKit          3D

 37 39  0  0  0  0  0  0  0  0999 V2000
    4.9748    1.8121   16.9765 H   0  0  0  0  0  0  0  0  0  0  0  0
    5.4331    1.2927   17.8155 C   0  0  0  0  0  0  0  0  0  0  0  0
    6.5904    0.6572   17.5629 N   0  0  0  0  0  0  0  0  0  0  0  0
    7.1917    0.0273   18.5768 C   0  0  0  0  0  0  0  0  0  0  0  0
    8.1153   -0.5031   18.3596 H   0  0  0  0  0  0  0  0  0  0  0  0
    6.6820    0.0260   19.8884 C   0  0  0  0  0  0  0  0  0  0  0  0
    7.4181   -0.6208   20.9287 N   0  0  0  0  0  0  0  0  0  0  0  0
    8.0428   -1.8019   20.7250 N   0  0  0  0  0  0  0  0  0  0  0  0
    8.4984   -2.1843   21.8565 N   0  0  0  0  0  0  0  0  0  0  0  0
    8.2081   -1.2965   22.8330 N   0  0  0  0  0  0  0  0  0  0  0  0
    7.5570   -0.3132   22.2469 C   0  0  0  0  0  0  0  0  0  0  0  0
    7.0425    1.2064   22.9730 S   0  0  0  0  0  0  0  0  0  0  0  0
    8.3625    2.2324   22.2057 C   0  0  0  0  0  0  0  0  0  0  0  0
    8.1418    3.2838   22.4637 H   0  0  0  0  0  0  0  0  0  0  0  0
    8.2682    2.1346   21.1174 H   0  0  0  0  0  0  0  0  0  0  0  0
    9.6612    1.7855   22.6437 N   0  0  0  0  0  0  0  0  0  0  0  0
    9.9441    2.0235   24.0635 C   0  0  0  0  0  0  0  0  0  0  0  0
    9.1005    1.6519   24.6555 H   0  0  0  0  0  0  0  0  0  0  0  0
   10.0631    3.0992   24.2980 H   0  0  0  0  0  0  0  0  0  0  0  0
   11.1963    1.2741   24.5306 C   0  0  0  0  0  0  0  0  0  0  0  0
   11.4139    1.5924   25.5551 H   0  0  0  0  0  0  0  0  0  0  0  0
   10.9728    0.1919   24.5812 H   0  0  0  0  0  0  0  0  0  0  0  0
   12.3753    1.5633   23.7014 N   0  0  0  0  0  0  0  0  0  0  0  0
   13.5291    0.7586   24.1046 C   0  0  0  0  0  0  0  0  0  0  0  0
   13.5118   -0.2601   23.6749 H   0  0  0  0  0  0  0  0  0  0  0  0
   14.4537    1.2249   23.7543 H   0  0  0  0  0  0  0  0  0  0  0  0
   13.5911    0.6554   25.1963 H   0  0  0  0  0  0  0  0  0  0  0  0
   12.0721    1.3363   22.2751 C   0  0  0  0  0  0  0  0  0  0  0  0
   12.9297    1.6770   21.6881 H   0  0  0  0  0  0  0  0  0  0  0  0
   11.9349    0.2588   22.0504 H   0  0  0  0  0  0  0  0  0  0  0  0
   10.8206    2.0888   21.7903 C   0  0  0  0  0  0  0  0  0  0  0  0
   10.5921    1.7512   20.7715 H   0  0  0  0  0  0  0  0  0  0  0  0
   11.0557    3.1692   21.7394 H   0  0  0  0  0  0  0  0  0  0  0  0
    5.4544    0.6492   20.1440 C   0  0  0  0  0  0  0  0  0  0  0  0
    5.0033    0.6309   21.1366 H   0  0  0  0  0  0  0  0  0  0  0  0
    4.8295    1.2977   19.0741 C   0  0  0  0  0  0  0  0  0  0  0  0
    3.8836    1.8093   19.2125 H   0  0  0  0  0  0  0  0  0  0  0  0
  1  2  1  0
  2  3  2  0
  3  4  1  0
  4  5  1  0
  4  6  2  0
  6  7  1  0
  7  8  1  0
  8  9  2  0
  9 10  1  0
 10 11  2  0
 11 12  1  0
 12 13  1  0
 13 14  1  0
 13 15  1  0
 13 16  1  0
 16 17  1  0
 17 18  1  0
 17 19  1  0
 17 20  1  0
 20 21  1  0
 20 22  1  0
 20 23  1  0
 23 24  1  0
 24 25  1  0
 24 26  1  0
 24 27  1  0
 23 28  1  0
 28 29  1  0
 28 30  1  0
 28 31  1  0
 31 32  1  0
 31 33  1  0
  6 34  1  0
 34 35  1  0
 34 36  2  0
 36 37  1  0
 36  2  1  0
 11  7  1  0
 31 16  1  0
M  END
>  <cnnaffinity>  (1) 
-4.95464

>  <filename>  (1) 
[H]c1nc([H])c(-n2nnnc2SC([H])([H])N2C([H])([H])C([H])([H])N(C([H])([H])[H])C([H])([H])C2([H])[H])c([H])c1[H]

$$$$
