
     RDKit          3D

 29 31  0  0  0  0  0  0  0  0999 V2000
    4.9169    1.7190   16.9785 H   0  0  0  0  0  0  0  0  0  0  0  0
    5.4052    1.3008   17.8600 C   0  0  0  0  0  0  0  0  0  0  0  0
    6.5818    0.6879   17.6587 N   0  0  0  0  0  0  0  0  0  0  0  0
    7.1805    0.1501   18.7258 C   0  0  0  0  0  0  0  0  0  0  0  0
    8.1243   -0.3585   18.5496 H   0  0  0  0  0  0  0  0  0  0  0  0
    6.6827    0.1973   20.0394 C   0  0  0  0  0  0  0  0  0  0  0  0
    7.4518   -0.4987   21.0825 C   0  0  0  0  0  0  0  0  0  0  0  0
    8.2705   -1.6149   21.0156 C   0  0  0  0  0  0  0  0  0  0  0  0
    8.6601   -2.1201   20.1558 H   0  0  0  0  0  0  0  0  0  0  0  0
    8.5105   -1.9780   22.3439 C   0  0  0  0  0  0  0  0  0  0  0  0
    9.0598   -2.8251   22.7264 H   0  0  0  0  0  0  0  0  0  0  0  0
    7.9353   -1.1446   23.2032 N   0  0  0  0  0  0  0  0  0  0  0  0
    7.3742   -0.2311   22.4170 N   0  0  0  0  0  0  0  0  0  0  0  0
    6.6971    0.8360   22.9497 O   0  0  0  0  0  0  0  0  0  0  0  0
    7.2267    1.4006   24.1091 C   0  0  0  0  0  0  0  0  0  0  0  0
    8.5659    1.3723   24.5222 C   0  0  0  0  0  0  0  0  0  0  0  0
    9.3131    0.8376   23.9478 H   0  0  0  0  0  0  0  0  0  0  0  0
    8.9029    1.9888   25.7342 C   0  0  0  0  0  0  0  0  0  0  0  0
    9.9309    1.9325   26.0920 H   0  0  0  0  0  0  0  0  0  0  0  0
    7.9406    2.6481   26.5052 C   0  0  0  0  0  0  0  0  0  0  0  0
    8.2010    3.0822   27.4629 H   0  0  0  0  0  0  0  0  0  0  0  0
    6.6242    2.7035   26.0352 C   0  0  0  0  0  0  0  0  0  0  0  0
    5.4010    3.5329   26.9501 Cl  0  0  0  0  0  0  0  0  0  0  0  0
    6.2647    2.0943   24.8374 C   0  0  0  0  0  0  0  0  0  0  0  0
    5.2472    2.1193   24.4743 H   0  0  0  0  0  0  0  0  0  0  0  0
    5.4536    0.8560   20.2343 C   0  0  0  0  0  0  0  0  0  0  0  0
    5.0221    0.9486   21.2274 H   0  0  0  0  0  0  0  0  0  0  0  0
    4.8017    1.3868   19.1181 C   0  0  0  0  0  0  0  0  0  0  0  0
    3.8342    1.8682   19.2019 H   0  0  0  0  0  0  0  0  0  0  0  0
  1  2  1  0
  2  3  2  0
  3  4  1  0
  4  5  1  0
  4  6  2  0
  6  7  1  0
  7  8  2  0
  8  9  1  0
  8 10  1  0
 10 11  1  0
 10 12  2  0
 12 13  1  0
 13 14  1  0
 14 15  1  0
 15 16  2  0
 16 17  1  0
 16 18  1  0
 18 19  1  0
 18 20  2  0
 20 21  1  0
 20 22  1  0
 22 23  1  0
 22 24  2  0
 24 25  1  0
  6 26  1  0
 26 27  1  0
 26 28  2  0
 28 29  1  0
 28  2  1  0
 13  7  1  0
 24 15  1  0
M  END
>  <cnnaffinity>  (1) 
-4.87828

>  <filename>  (1) 
[H]c1nc([H])c(-c2c([H])c([H])nn2Oc2c([H])c([H])c([H])c(Cl)c2[H])c([H])c1[H]

$$$$
