
     RDKit          3D

 28 29  0  0  0  0  0  0  0  0999 V2000
   12.4701   -2.0924   21.7388 H   0  0  0  0  0  0  0  0  0  0  0  0
   11.8700   -1.4740   22.4010 C   0  0  0  0  0  0  0  0  0  0  0  0
   12.4795   -0.4284   22.9529 N   0  0  0  0  0  0  0  0  0  0  0  0
   11.7217    0.2270   23.8159 C   0  0  0  0  0  0  0  0  0  0  0  0
   12.3162    1.1562   24.5740 N   0  0  0  0  0  0  0  0  0  0  0  0
   11.5883    1.7974   24.8466 H   0  0  0  0  0  0  0  0  0  0  0  0
   13.1066    1.5194   24.0702 H   0  0  0  0  0  0  0  0  0  0  0  0
   10.4044    0.0995   24.0184 N   0  0  0  0  0  0  0  0  0  0  0  0
    9.7927   -0.9130   23.4067 C   0  0  0  0  0  0  0  0  0  0  0  0
    7.8649   -1.1908   23.5172 S   0  0  0  0  0  0  0  0  0  0  0  0
    7.3265   -0.4630   24.6478 O   0  0  0  0  0  0  0  0  0  0  0  0
    7.6410   -2.6031   23.2848 O   0  0  0  0  0  0  0  0  0  0  0  0
    7.0885   -0.4094   22.2922 N   0  0  0  0  0  0  0  0  0  0  0  0
    6.7079    0.4650   22.5976 H   0  0  0  0  0  0  0  0  0  0  0  0
    7.3902   -0.7239   21.0034 C   0  0  0  0  0  0  0  0  0  0  0  0
    8.2728   -1.5118   20.7427 O   0  0  0  0  0  0  0  0  0  0  0  0
    6.6089   -0.0007   19.9887 C   0  0  0  0  0  0  0  0  0  0  0  0
    7.1678   -0.0119   18.7066 C   0  0  0  0  0  0  0  0  0  0  0  0
    8.1029   -0.5405   18.5280 H   0  0  0  0  0  0  0  0  0  0  0  0
    6.6246    0.6117   17.6611 N   0  0  0  0  0  0  0  0  0  0  0  0
    5.4744    1.2693   17.8650 C   0  0  0  0  0  0  0  0  0  0  0  0
    5.0518    1.7757   16.9998 H   0  0  0  0  0  0  0  0  0  0  0  0
    4.8155    1.3137   19.0999 C   0  0  0  0  0  0  0  0  0  0  0  0
    3.8850    1.8632   19.1946 H   0  0  0  0  0  0  0  0  0  0  0  0
    5.3877    0.6651   20.1918 C   0  0  0  0  0  0  0  0  0  0  0  0
    4.8801    0.6771   21.1620 H   0  0  0  0  0  0  0  0  0  0  0  0
   10.5345   -1.8185   22.6336 C   0  0  0  0  0  0  0  0  0  0  0  0
   10.1249   -2.7194   22.2111 H   0  0  0  0  0  0  0  0  0  0  0  0
  1  2  1  0
  2  3  2  0
  3  4  1  0
  4  5  1  0
  5  6  1  0
  5  7  1  0
  4  8  2  0
  8  9  1  0
  9 10  1  0
 10 11  2  0
 10 12  2  0
 10 13  1  0
 13 14  1  0
 13 15  1  0
 15 16  2  0
 15 17  1  0
 17 18  2  0
 18 19  1  0
 18 20  1  0
 20 21  2  0
 21 22  1  0
 21 23  1  0
 23 24  1  0
 23 25  2  0
 25 26  1  0
  9 27  2  0
 27 28  1  0
 27  2  1  0
 25 17  1  0
M  END
>  <cnnaffinity>  (1) 
-4.60531

>  <filename>  (1) 
[H]c1nc(N([H])[H])nc(S(=O)(=O)N([H])C(=O)c2c([H])nc([H])c([H])c2[H])c1[H]

$$$$
