
     RDKit          3D

 39 42  0  0  0  0  0  0  0  0999 V2000
    4.9485    1.8111   16.9131 H   0  0  0  0  0  0  0  0  0  0  0  0
    5.3990    1.3251   17.7850 C   0  0  0  0  0  0  0  0  0  0  0  0
    6.5624    0.6883   17.5889 N   0  0  0  0  0  0  0  0  0  0  0  0
    7.1186    0.0641   18.6370 C   0  0  0  0  0  0  0  0  0  0  0  0
    8.0715   -0.4262   18.4415 H   0  0  0  0  0  0  0  0  0  0  0  0
    6.5661    0.0386   19.9362 C   0  0  0  0  0  0  0  0  0  0  0  0
    7.2313   -0.7147   21.0320 C   0  0  0  0  0  0  0  0  0  0  0  0
    7.6526   -2.0240   21.0772 C   0  0  0  0  0  0  0  0  0  0  0  0
    7.4511   -2.7880   20.3522 H   0  0  0  0  0  0  0  0  0  0  0  0
    8.2756   -2.1706   22.3275 C   0  0  0  0  0  0  0  0  0  0  0  0
    8.7441   -3.0506   22.7498 H   0  0  0  0  0  0  0  0  0  0  0  0
    8.2341   -1.0602   23.0360 N   0  0  0  0  0  0  0  0  0  0  0  0
    7.5803   -0.1839   22.2542 N   0  0  0  0  0  0  0  0  0  0  0  0
    7.2553    1.0304   22.7752 N   0  0  0  0  0  0  0  0  0  0  0  0
    7.7283    2.2720   22.2004 C   0  0  0  0  0  0  0  0  0  0  0  0
    8.8295    2.2825   22.1351 H   0  0  0  0  0  0  0  0  0  0  0  0
    7.3206    2.3965   21.1821 H   0  0  0  0  0  0  0  0  0  0  0  0
    7.1819    3.3427   23.1681 C   0  0  0  0  0  0  0  0  0  0  0  0
    6.7888    4.2015   22.6193 H   0  0  0  0  0  0  0  0  0  0  0  0
    7.9996    3.7039   23.7974 H   0  0  0  0  0  0  0  0  0  0  0  0
    6.0940    2.6507   24.0282 C   0  0  2  0  0  0  0  0  0  0  0  0
    5.1071    2.8634   23.6097 H   0  0  0  0  0  0  0  0  0  0  0  0
    6.1297    2.9560   25.5335 C   0  0  0  0  0  0  0  0  0  0  0  0
    6.4753    3.9791   25.7327 H   0  0  0  0  0  0  0  0  0  0  0  0
    5.1093    2.8714   25.9573 H   0  0  0  0  0  0  0  0  0  0  0  0
    7.0644    1.9895   26.1017 N   0  0  0  0  0  0  0  0  0  0  0  0
    7.0077    1.7839   27.5343 C   0  0  0  0  0  0  0  0  0  0  0  0
    7.7954    1.0812   27.8286 H   0  0  0  0  0  0  0  0  0  0  0  0
    7.1982    2.7220   28.0679 H   0  0  0  0  0  0  0  0  0  0  0  0
    6.0438    1.3717   27.8967 H   0  0  0  0  0  0  0  0  0  0  0  0
    6.9985    0.7553   25.3141 C   0  0  0  0  0  0  0  0  0  0  0  0
    6.3446    0.0001   25.7917 H   0  0  0  0  0  0  0  0  0  0  0  0
    7.9904    0.2982   25.2071 H   0  0  0  0  0  0  0  0  0  0  0  0
    6.3850    1.1378   23.9355 C   0  0  2  0  0  0  0  0  0  0  0  0
    5.4759    0.5390   23.7628 H   0  0  0  0  0  0  0  0  0  0  0  0
    5.3597    0.7301   20.1166 C   0  0  0  0  0  0  0  0  0  0  0  0
    4.8995    0.7699   21.1045 H   0  0  0  0  0  0  0  0  0  0  0  0
    4.7627    1.3702   19.0290 C   0  0  0  0  0  0  0  0  0  0  0  0
    3.8200    1.8890   19.1280 H   0  0  0  0  0  0  0  0  0  0  0  0
  1  2  1  0
  2  3  2  0
  3  4  1  0
  4  5  1  0
  4  6  2  0
  6  7  1  0
  7  8  2  0
  8  9  1  0
  8 10  1  0
 10 11  1  0
 10 12  2  0
 12 13  1  0
 13 14  1  0
 14 15  1  0
 15 16  1  0
 15 17  1  0
 15 18  1  0
 18 19  1  0
 18 20  1  0
 18 21  1  0
 21 22  1  6
 21 23  1  0
 23 24  1  0
 23 25  1  0
 23 26  1  0
 26 27  1  0
 27 28  1  0
 27 29  1  0
 27 30  1  0
 26 31  1  0
 31 32  1  0
 31 33  1  0
 31 34  1  0
 34 35  1  6
  6 36  1  0
 36 37  1  0
 36 38  2  0
 38 39  1  0
 38  2  1  0
 13  7  1  0
 34 14  1  0
 34 21  1  0
M  END
>  <cnnaffinity>  (1) 
-4.87512

>  <filename>  (1) 
[H]c1nc([H])c(-c2c([H])c([H])nn2N2C([H])([H])C([H])([H])[C@]3([H])C([H])([H])N(C([H])([H])[H])C([H])([H])[C@]23[H])c([H])c1[H]

$$$$
