
     RDKit          3D

 31 33  0  0  0  0  0  0  0  0999 V2000
    7.8144    0.8794   22.9095 O   0  0  0  0  0  0  0  0  0  0  0  0
    8.2750    0.4395   21.8788 C   0  0  0  0  0  0  0  0  0  0  0  0
    9.5040    0.7739   21.3762 N   0  0  0  0  0  0  0  0  0  0  0  0
   10.4711    1.5772   22.0080 C   0  0  0  0  0  0  0  0  0  0  0  0
   10.6437    1.5291   23.3998 C   0  0  0  0  0  0  0  0  0  0  0  0
   11.5782    2.3675   24.0145 C   0  0  0  0  0  0  0  0  0  0  0  0
   12.2913    3.2812   23.2326 C   0  0  0  0  0  0  0  0  0  0  0  0
   13.4072    4.5551   23.7207 S   0  0  0  0  0  0  0  0  0  0  0  0
   13.7645    4.9545   22.0029 C   0  0  0  0  0  0  0  0  0  0  0  0
   14.5729    5.7405   21.5819 O   0  0  0  0  0  0  0  0  0  0  0  0
   12.9455    4.1995   21.2109 N   0  0  0  0  0  0  0  0  0  0  0  0
   12.1487    3.2631   21.8327 C   0  0  0  0  0  0  0  0  0  0  0  0
   11.2647    2.3980   21.2068 C   0  0  0  0  0  0  0  0  0  0  0  0
   11.1713    2.4159   20.1292 H   0  0  0  0  0  0  0  0  0  0  0  0
   13.0949    4.2795   20.2233 H   0  0  0  0  0  0  0  0  0  0  0  0
   11.7338    2.3082   25.0886 H   0  0  0  0  0  0  0  0  0  0  0  0
   10.0324    0.8484   23.9830 H   0  0  0  0  0  0  0  0  0  0  0  0
    9.7676    0.3712   20.4977 H   0  0  0  0  0  0  0  0  0  0  0  0
    7.4802   -0.5932   20.9599 C   0  0  0  0  0  0  0  0  0  0  0  0
    8.3926   -1.4803   20.4180 F   0  0  0  0  0  0  0  0  0  0  0  0
    6.6673   -1.3319   21.7530 F   0  0  0  0  0  0  0  0  0  0  0  0
    6.6632    0.0171   19.8370 C   0  0  0  0  0  0  0  0  0  0  0  0
    5.4504    0.6682   20.1124 C   0  0  0  0  0  0  0  0  0  0  0  0
    4.8119    1.3262   19.0612 C   0  0  0  0  0  0  0  0  0  0  0  0
    5.3996    1.3113   17.7911 C   0  0  0  0  0  0  0  0  0  0  0  0
    6.5236    0.6380   17.5062 N   0  0  0  0  0  0  0  0  0  0  0  0
    7.1248   -0.0058   18.5099 C   0  0  0  0  0  0  0  0  0  0  0  0
    8.0185   -0.5704   18.2524 H   0  0  0  0  0  0  0  0  0  0  0  0
    4.9515    1.8585   16.9638 H   0  0  0  0  0  0  0  0  0  0  0  0
    3.8801    1.8610   19.2047 H   0  0  0  0  0  0  0  0  0  0  0  0
    5.0125    0.6582   21.1145 H   0  0  0  0  0  0  0  0  0  0  0  0
  1  2  2  0
  2  3  1  0
  3  4  1  0
  4  5  2  0
  5  6  1  0
  6  7  2  0
  7  8  1  0
  8  9  1  0
  9 10  2  0
  9 11  1  0
 11 12  1  0
 12 13  2  0
 13 14  1  0
 11 15  1  0
  6 16  1  0
  5 17  1  0
  3 18  1  0
  2 19  1  0
 19 20  1  0
 19 21  1  0
 19 22  1  0
 22 23  2  0
 23 24  1  0
 24 25  2  0
 25 26  1  0
 26 27  2  0
 27 28  1  0
 25 29  1  0
 24 30  1  0
 23 31  1  0
 13  4  1  0
 27 22  1  0
 12  7  1  0
M  END
>  <cnnaffinity>  (1) 
-5.88591

>  <filename>  (1) 
[H]c1nc([H])c(C(F)(F)C(=O)N([H])c2c([H])c([H])c3sc(=O)n([H])c3c2[H])c([H])c1[H]

$$$$
