
     RDKit          3D

 28 29  0  0  0  0  0  0  0  0999 V2000
    4.9103    1.7703   17.0070 H   0  0  0  0  0  0  0  0  0  0  0  0
    5.4058    1.2875   17.8484 C   0  0  0  0  0  0  0  0  0  0  0  0
    6.5729    0.6748   17.5970 N   0  0  0  0  0  0  0  0  0  0  0  0
    7.1856    0.0540   18.6131 C   0  0  0  0  0  0  0  0  0  0  0  0
    8.1307   -0.4357   18.3812 H   0  0  0  0  0  0  0  0  0  0  0  0
    6.6627    0.0048   19.9141 C   0  0  0  0  0  0  0  0  0  0  0  0
    7.3929   -0.7092   20.9785 C   0  0  0  0  0  0  0  0  0  0  0  0
    8.5319   -1.3093   20.7483 N   0  0  0  0  0  0  0  0  0  0  0  0
    9.0359   -1.9900   22.1798 S   0  0  0  0  0  0  0  0  0  0  0  0
    7.6364   -1.4077   23.0400 C   0  0  0  0  0  0  0  0  0  0  0  0
    7.4032   -1.6594   24.5265 C   0  0  1  0  0  0  0  0  0  0  0  0
    6.4264   -1.2087   24.7571 H   0  0  0  0  0  0  0  0  0  0  0  0
    7.3107   -3.1598   24.8440 C   0  0  0  0  0  0  0  0  0  0  0  0
    6.5495   -3.6374   24.2190 H   0  0  0  0  0  0  0  0  0  0  0  0
    7.0371   -3.3114   25.8951 H   0  0  0  0  0  0  0  0  0  0  0  0
    8.2733   -3.6508   24.6619 H   0  0  0  0  0  0  0  0  0  0  0  0
    8.4693   -0.9695   25.4100 C   0  0  0  0  0  0  0  0  0  0  0  0
    9.4624   -1.3698   25.1603 H   0  0  0  0  0  0  0  0  0  0  0  0
    8.2806   -1.2244   26.4635 H   0  0  0  0  0  0  0  0  0  0  0  0
    8.4719    0.5457   25.2603 C   0  0  0  0  0  0  0  0  0  0  0  0
    8.7250    0.8421   24.2366 H   0  0  0  0  0  0  0  0  0  0  0  0
    9.2034    0.9943   25.9385 H   0  0  0  0  0  0  0  0  0  0  0  0
    7.4838    0.9571   25.4999 H   0  0  0  0  0  0  0  0  0  0  0  0
    6.8508   -0.7424   22.2482 N   0  0  0  0  0  0  0  0  0  0  0  0
    5.4418    0.6519   20.1617 C   0  0  0  0  0  0  0  0  0  0  0  0
    5.0083    0.6290   21.1608 H   0  0  0  0  0  0  0  0  0  0  0  0
    4.8069    1.3097   19.1131 C   0  0  0  0  0  0  0  0  0  0  0  0
    3.8720    1.8451   19.2670 H   0  0  0  0  0  0  0  0  0  0  0  0
  1  2  1  0
  2  3  2  0
  3  4  1  0
  4  5  1  0
  4  6  2  0
  6  7  1  0
  7  8  2  0
  8  9  1  0
  9 10  1  0
 10 11  1  0
 11 12  1  1
 11 13  1  0
 13 14  1  0
 13 15  1  0
 13 16  1  0
 11 17  1  0
 17 18  1  0
 17 19  1  0
 17 20  1  0
 20 21  1  0
 20 22  1  0
 20 23  1  0
 10 24  2  0
  6 25  1  0
 25 26  1  0
 25 27  2  0
 27 28  1  0
 27  2  1  0
 24  7  1  0
M  END
>  <cnnaffinity>  (1) 
-4.73341

>  <filename>  (1) 
[H]c1nc([H])c(-c2nsc([C@@]([H])(C([H])([H])[H])C([H])([H])C([H])([H])[H])n2)c([H])c1[H]

$$$$
