
     RDKit          3D

 23 25  0  0  0  0  0  0  0  0999 V2000
    4.9290    1.7821   16.9892 H   0  0  0  0  0  0  0  0  0  0  0  0
    5.4055    1.2920   17.8309 C   0  0  0  0  0  0  0  0  0  0  0  0
    6.5666    0.6746   17.5697 N   0  0  0  0  0  0  0  0  0  0  0  0
    7.1742    0.0620   18.5876 C   0  0  0  0  0  0  0  0  0  0  0  0
    8.1230   -0.4248   18.3655 H   0  0  0  0  0  0  0  0  0  0  0  0
    6.6442    0.0229   19.8856 C   0  0  0  0  0  0  0  0  0  0  0  0
    7.3695   -0.6846   20.9335 C   0  0  0  0  0  0  0  0  0  0  0  0
    8.5439   -1.3354   20.7847 N   0  0  0  0  0  0  0  0  0  0  0  0
    8.8676   -1.8317   21.9080 N   0  0  0  0  0  0  0  0  0  0  0  0
    7.8823   -1.5033   22.8342 N   0  0  0  0  0  0  0  0  0  0  0  0
    7.8465   -1.8797   24.2938 N   0  0  0  0  0  0  0  0  0  0  0  0
    8.8253   -2.6009   24.8362 N   0  0  0  0  0  0  0  0  0  0  0  0
    8.4451   -2.7219   26.1039 C   0  0  0  0  0  0  0  0  0  0  0  0
    9.0712   -3.2771   26.7949 H   0  0  0  0  0  0  0  0  0  0  0  0
    7.2095   -2.0649   26.3461 C   0  0  0  0  0  0  0  0  0  0  0  0
    6.6722   -2.0047   27.2835 H   0  0  0  0  0  0  0  0  0  0  0  0
    6.8417   -1.5212   25.1358 C   0  0  0  0  0  0  0  0  0  0  0  0
    6.0138   -0.9340   24.7468 H   0  0  0  0  0  0  0  0  0  0  0  0
    6.9335   -0.7645   22.1596 N   0  0  0  0  0  0  0  0  0  0  0  0
    5.4202    0.6656   20.1511 C   0  0  0  0  0  0  0  0  0  0  0  0
    4.9769    0.6562   21.1530 H   0  0  0  0  0  0  0  0  0  0  0  0
    4.7997    1.3157   19.0933 C   0  0  0  0  0  0  0  0  0  0  0  0
    3.8687    1.8479   19.2470 H   0  0  0  0  0  0  0  0  0  0  0  0
  1  2  1  0
  2  3  2  0
  3  4  1  0
  4  5  1  0
  4  6  2  0
  6  7  1  0
  7  8  1  0
  8  9  2  0
  9 10  1  0
 10 11  1  0
 11 12  1  0
 12 13  2  0
 13 14  1  0
 13 15  1  0
 15 16  1  0
 15 17  2  0
 17 18  1  0
 10 19  1  0
  6 20  1  0
 20 21  1  0
 20 22  2  0
 22 23  1  0
 22  2  1  0
 19  7  2  0
 17 11  1  0
M  END
>  <cnnaffinity>  (1) 
-4.45503

>  <filename>  (1) 
[H]c1nc([H])c(-c2nnn(-n3nc([H])c([H])c3[H])n2)c([H])c1[H]

$$$$
