
     RDKit          3D

 33 35  0  0  0  0  0  0  0  0999 V2000
    8.0359   -1.6755   20.6506 O   0  0  0  0  0  0  0  0  0  0  0  0
    7.3790   -0.6737   20.9345 C   0  0  0  0  0  0  0  0  0  0  0  0
    6.6730    0.0126   19.8575 C   0  0  0  0  0  0  0  0  0  0  0  0
    5.4755    0.6826   20.1223 C   0  0  0  0  0  0  0  0  0  0  0  0
    4.8422    1.3200   19.0641 C   0  0  0  0  0  0  0  0  0  0  0  0
    5.4232    1.2879   17.7944 C   0  0  0  0  0  0  0  0  0  0  0  0
    6.5694    0.6280   17.5414 N   0  0  0  0  0  0  0  0  0  0  0  0
    7.1816   -0.0070   18.5525 C   0  0  0  0  0  0  0  0  0  0  0  0
    8.1086   -0.5349   18.3347 H   0  0  0  0  0  0  0  0  0  0  0  0
    4.9342    1.8161   16.9834 H   0  0  0  0  0  0  0  0  0  0  0  0
    3.9124    1.8561   19.2203 H   0  0  0  0  0  0  0  0  0  0  0  0
    5.0516    0.6984   21.1277 H   0  0  0  0  0  0  0  0  0  0  0  0
    7.2694   -0.2081   22.3469 C   0  0  0  0  0  0  0  0  0  0  0  0
    7.1253    1.0483   22.7373 N   0  0  0  0  0  0  0  0  0  0  0  0
    7.0839    1.0261   24.1236 C   0  0  0  0  0  0  0  0  0  0  0  0
    7.1764   -0.2557   24.5720 C   0  0  0  0  0  0  0  0  0  0  0  0
    7.3038   -1.0490   23.4578 N   0  0  0  0  0  0  0  0  0  0  0  0
    7.3046   -2.5161   23.4488 C   0  0  0  0  0  0  0  0  0  0  0  0
    8.4640   -3.0731   24.2250 C   0  0  0  0  0  0  0  0  0  0  0  0
    8.2417   -3.5998   25.5000 C   0  0  0  0  0  0  0  0  0  0  0  0
    9.2624   -4.2656   26.1925 C   0  0  0  0  0  0  0  0  0  0  0  0
    8.8783   -5.1300   27.8499 Br  0  0  0  0  0  0  0  0  0  0  0  0
   10.5484   -4.3192   25.6389 C   0  0  0  0  0  0  0  0  0  0  0  0
   10.7844   -3.7340   24.3894 C   0  0  0  0  0  0  0  0  0  0  0  0
    9.7487   -3.1255   23.6765 C   0  0  0  0  0  0  0  0  0  0  0  0
    9.9940   -2.6032   22.4545 F   0  0  0  0  0  0  0  0  0  0  0  0
   11.7689   -3.7668   23.9382 H   0  0  0  0  0  0  0  0  0  0  0  0
   11.3654   -4.8096   26.1663 H   0  0  0  0  0  0  0  0  0  0  0  0
    7.2522   -3.4928   25.9323 H   0  0  0  0  0  0  0  0  0  0  0  0
    6.3717   -2.8902   23.8798 H   0  0  0  0  0  0  0  0  0  0  0  0
    7.3551   -2.8793   22.4183 H   0  0  0  0  0  0  0  0  0  0  0  0
    7.1569   -0.5915   25.6001 H   0  0  0  0  0  0  0  0  0  0  0  0
    6.9868    1.8986   24.7594 H   0  0  0  0  0  0  0  0  0  0  0  0
  1  2  2  0
  2  3  1  0
  3  4  2  0
  4  5  1  0
  5  6  2  0
  6  7  1  0
  7  8  2  0
  8  9  1  0
  6 10  1  0
  5 11  1  0
  4 12  1  0
  2 13  1  0
 13 14  2  0
 14 15  1  0
 15 16  2  0
 16 17  1  0
 17 18  1  0
 18 19  1  0
 19 20  2  0
 20 21  1  0
 21 22  1  0
 21 23  2  0
 23 24  1  0
 24 25  2  0
 25 26  1  0
 24 27  1  0
 23 28  1  0
 20 29  1  0
 18 30  1  0
 18 31  1  0
 16 32  1  0
 15 33  1  0
  8  3  1  0
 17 13  1  0
 25 19  1  0
M  END
>  <cnnaffinity>  (1) 
-5.24243

>  <filename>  (1) 
[H]c1nc([H])c(C(=O)c2nc([H])c([H])n2C([H])([H])c2c([H])c(Br)c([H])c([H])c2F)c([H])c1[H]

$$$$
