
     RDKit          3D

 39 42  0  0  0  0  0  0  0  0999 V2000
    4.9682    1.8154   16.9979 H   0  0  0  0  0  0  0  0  0  0  0  0
    5.4314    1.3126   17.8444 C   0  0  0  0  0  0  0  0  0  0  0  0
    6.5842    0.6768   17.5951 N   0  0  0  0  0  0  0  0  0  0  0  0
    7.1791    0.0553   18.6136 C   0  0  0  0  0  0  0  0  0  0  0  0
    8.1151   -0.4520   18.3877 H   0  0  0  0  0  0  0  0  0  0  0  0
    6.6577    0.0283   19.9147 C   0  0  0  0  0  0  0  0  0  0  0  0
    7.4237   -0.6641   20.9414 C   0  0  0  0  0  0  0  0  0  0  0  0
    8.5382   -1.3165   20.8271 N   0  0  0  0  0  0  0  0  0  0  0  0
    8.8530   -1.7726   22.0989 N   0  0  0  0  0  0  0  0  0  0  0  0
    7.9284   -1.3490   22.8898 C   0  0  0  0  0  0  0  0  0  0  0  0
    7.7991   -1.5707   24.3780 C   0  0  0  0  0  0  0  0  0  0  0  0
    8.3445   -0.5817   25.3008 N   0  0  0  0  0  0  0  0  0  0  0  0
    9.3148   -0.7154   25.5672 H   0  0  0  0  0  0  0  0  0  0  0  0
    8.1034    0.7657   25.2085 C   0  0  0  0  0  0  0  0  0  0  0  0
    9.2465    1.8501   25.7043 S   0  0  0  0  0  0  0  0  0  0  0  0
    6.8732    1.0572   24.7098 N   0  0  0  0  0  0  0  0  0  0  0  0
    6.2562    0.2615   24.6645 H   0  0  0  0  0  0  0  0  0  0  0  0
    6.6380    2.0328   23.7206 C   0  0  0  0  0  0  0  0  0  0  0  0
    5.3347    2.4991   23.5106 C   0  0  0  0  0  0  0  0  0  0  0  0
    4.5307    2.1145   24.1320 H   0  0  0  0  0  0  0  0  0  0  0  0
    5.0927    3.4476   22.5100 C   0  0  0  0  0  0  0  0  0  0  0  0
    4.0816    3.8143   22.3344 H   0  0  0  0  0  0  0  0  0  0  0  0
    6.1511    3.9247   21.7278 C   0  0  0  0  0  0  0  0  0  0  0  0
    5.9766    4.6877   20.9768 H   0  0  0  0  0  0  0  0  0  0  0  0
    7.4481    3.4498   21.9428 C   0  0  0  0  0  0  0  0  0  0  0  0
    8.2948    3.8393   21.3859 H   0  0  0  0  0  0  0  0  0  0  0  0
    7.6914    2.4983   22.9230 C   0  0  0  0  0  0  0  0  0  0  0  0
    8.7042    2.1377   23.0836 H   0  0  0  0  0  0  0  0  0  0  0  0
    7.9165   -2.9705   24.9018 C   0  0  0  0  0  0  0  0  0  0  0  0
    8.4547   -3.0899   25.8366 H   0  0  0  0  0  0  0  0  0  0  0  0
    8.0915   -3.7509   24.1728 H   0  0  0  0  0  0  0  0  0  0  0  0
    6.5882   -2.2889   24.9254 C   0  0  0  0  0  0  0  0  0  0  0  0
    5.8210   -2.6147   24.2323 H   0  0  0  0  0  0  0  0  0  0  0  0
    6.2482   -1.9212   25.8893 H   0  0  0  0  0  0  0  0  0  0  0  0
    6.9675   -0.6519   22.2164 O   0  0  0  0  0  0  0  0  0  0  0  0
    5.4473    0.6877   20.1666 C   0  0  0  0  0  0  0  0  0  0  0  0
    5.0026    0.6884   21.1631 H   0  0  0  0  0  0  0  0  0  0  0  0
    4.8259    1.3378   19.1057 C   0  0  0  0  0  0  0  0  0  0  0  0
    3.8924    1.8740   19.2412 H   0  0  0  0  0  0  0  0  0  0  0  0
  1  2  1  0
  2  3  2  0
  3  4  1  0
  4  5  1  0
  4  6  2  0
  6  7  1  0
  7  8  2  0
  8  9  1  0
  9 10  2  0
 10 11  1  0
 11 12  1  0
 12 13  1  0
 12 14  1  0
 14 15  2  0
 14 16  1  0
 16 17  1  0
 16 18  1  0
 18 19  2  0
 19 20  1  0
 19 21  1  0
 21 22  1  0
 21 23  2  0
 23 24  1  0
 23 25  1  0
 25 26  1  0
 25 27  2  0
 27 28  1  0
 11 29  1  0
 29 30  1  0
 29 31  1  0
 29 32  1  0
 32 33  1  0
 32 34  1  0
 10 35  1  0
  6 36  1  0
 36 37  1  0
 36 38  2  0
 38 39  1  0
 38  2  1  0
 35  7  1  0
 32 11  1  0
 27 18  1  0
M  END
>  <cnnaffinity>  (1) 
-5.32694

>  <filename>  (1) 
[H]c1nc([H])c(-c2nnc(C3(N([H])C(=S)N([H])c4c([H])c([H])c([H])c([H])c4[H])C([H])([H])C3([H])[H])o2)c([H])c1[H]

$$$$
