
     RDKit          3D

 23 24  0  0  0  0  0  0  0  0999 V2000
    9.3596   -5.3083   23.9364 H   0  0  0  0  0  0  0  0  0  0  0  0
    8.6791   -4.9791   23.1558 C   0  0  0  0  0  0  0  0  0  0  0  0
    7.6419   -5.5689   22.5668 C   0  0  0  0  0  0  0  0  0  0  0  0
    7.2004   -6.5515   22.6993 H   0  0  0  0  0  0  0  0  0  0  0  0
    7.0275   -4.6155   21.5840 C   0  0  0  0  0  0  0  0  0  0  0  0
    6.0768   -4.8414   20.8877 O   0  0  0  0  0  0  0  0  0  0  0  0
    7.7972   -3.4218   21.6567 N   0  0  0  0  0  0  0  0  0  0  0  0
    7.6094   -2.2663   20.7829 N   0  0  0  0  0  0  0  0  0  0  0  0
    8.4129   -2.1816   20.1489 H   0  0  0  0  0  0  0  0  0  0  0  0
    7.6544   -0.5574   21.2858 S   0  0  0  0  0  4  0  0  0  0  0  0
    9.0197   -0.1995   20.8151 O   0  0  0  0  0  0  0  0  0  0  0  0
    6.6029    0.0486   19.9651 C   0  0  0  0  0  0  0  0  0  0  0  0
    7.1682    0.0204   18.6811 C   0  0  0  0  0  0  0  0  0  0  0  0
    8.1378   -0.4497   18.5012 H   0  0  0  0  0  0  0  0  0  0  0  0
    6.5876    0.6028   17.6292 N   0  0  0  0  0  0  0  0  0  0  0  0
    5.4251    1.2403   17.8360 C   0  0  0  0  0  0  0  0  0  0  0  0
    5.0095    1.7613   16.9795 H   0  0  0  0  0  0  0  0  0  0  0  0
    4.7792    1.2860   19.0761 C   0  0  0  0  0  0  0  0  0  0  0  0
    3.8538    1.8352   19.1849 H   0  0  0  0  0  0  0  0  0  0  0  0
    5.3624    0.6567   20.1743 C   0  0  0  0  0  0  0  0  0  0  0  0
    4.8695    0.6699   21.1521 H   0  0  0  0  0  0  0  0  0  0  0  0
    8.8552   -3.6108   22.5861 C   0  0  0  0  0  0  0  0  0  0  0  0
    9.7348   -2.8412   22.8564 O   0  0  0  0  0  0  0  0  0  0  0  0
  1  2  1  0
  2  3  2  0
  3  4  1  0
  3  5  1  0
  5  6  2  0
  5  7  1  0
  7  8  1  0
  8  9  1  0
 10  8  1  6
 10 11  2  0
 10 12  1  0
 12 13  2  0
 13 14  1  0
 13 15  1  0
 15 16  2  0
 16 17  1  0
 16 18  1  0
 18 19  1  0
 18 20  2  0
 20 21  1  0
  7 22  1  0
 22 23  2  0
 22  2  1  0
 20 12  1  0
M  END
>  <cnnaffinity>  (1) 
-4.75305

>  <filename>  (1) 
[H]C1=C([H])C(=O)N(N([H])[S@@](=O)c2c([H])nc([H])c([H])c2[H])C1=O

$$$$
