
     RDKit          3D

 42 45  0  0  0  0  0  0  0  0999 V2000
    9.1134   -0.2257   25.7163 O   0  0  0  0  0  0  0  0  0  0  0  0
    8.0438   -0.1943   25.1429 C   0  0  0  0  0  0  0  0  0  0  0  0
    7.4386   -1.4309   24.5294 C   0  0  0  0  0  0  0  0  0  0  0  0
    7.7985   -1.3621   23.0878 C   0  0  0  0  0  0  0  0  0  0  0  0
    8.9106   -1.8607   22.4957 C   0  0  0  0  0  0  0  0  0  0  0  0
    8.8993   -1.4897   20.8171 S   0  0  0  0  0  0  0  0  0  0  0  0
    7.3820   -0.6553   21.0354 C   0  0  0  0  0  0  0  0  0  0  0  0
    6.6511    0.0046   19.9446 C   0  0  0  0  0  0  0  0  0  0  0  0
    5.4314    0.6663   20.1740 C   0  0  0  0  0  0  0  0  0  0  0  0
    4.8090    1.3106   19.1073 C   0  0  0  0  0  0  0  0  0  0  0  0
    5.4273    1.2777   17.8530 C   0  0  0  0  0  0  0  0  0  0  0  0
    6.5846    0.6384   17.6182 N   0  0  0  0  0  0  0  0  0  0  0  0
    7.1776    0.0238   18.6454 C   0  0  0  0  0  0  0  0  0  0  0  0
    8.1259   -0.4681   18.4241 H   0  0  0  0  0  0  0  0  0  0  0  0
    4.9728    1.7901   17.0060 H   0  0  0  0  0  0  0  0  0  0  0  0
    3.8754    1.8482   19.2413 H   0  0  0  0  0  0  0  0  0  0  0  0
    5.0079    0.6831   21.1781 H   0  0  0  0  0  0  0  0  0  0  0  0
    6.9710   -0.6457   22.2737 N   0  0  0  0  0  0  0  0  0  0  0  0
    9.6971   -2.4257   22.9705 H   0  0  0  0  0  0  0  0  0  0  0  0
    7.8715   -2.2967   25.0322 H   0  0  0  0  0  0  0  0  0  0  0  0
    6.3530   -1.4149   24.6295 H   0  0  0  0  0  0  0  0  0  0  0  0
    7.3260    0.9511   24.9628 N   0  0  0  0  0  0  0  0  0  0  0  0
    7.9774    2.2427   25.1929 C   0  0  0  0  0  0  0  0  0  0  0  0
    9.1434    2.4878   24.1904 C   0  0  0  0  0  0  0  0  0  0  0  0
    8.7913    3.2628   22.9065 C   0  0  0  0  0  0  0  0  0  0  0  0
    7.0370    3.1291   22.4382 S   0  0  0  0  0  0  0  0  0  0  0  0
    6.4178    3.8087   23.9579 C   0  0  0  0  0  0  0  0  0  0  0  0
    5.4818    4.8484   23.9173 C   0  0  0  0  0  0  0  0  0  0  0  0
    5.0687    5.4621   25.1010 C   0  0  0  0  0  0  0  0  0  0  0  0
    5.5732    5.0229   26.3301 C   0  0  0  0  0  0  0  0  0  0  0  0
    6.5003    3.9763   26.3666 C   0  0  0  0  0  0  0  0  0  0  0  0
    6.9438    3.3541   25.1874 C   0  0  0  0  0  0  0  0  0  0  0  0
    6.8917    3.6445   27.3265 H   0  0  0  0  0  0  0  0  0  0  0  0
    5.2677    5.5132   27.2511 H   0  0  0  0  0  0  0  0  0  0  0  0
    4.3742    6.2969   25.0569 H   0  0  0  0  0  0  0  0  0  0  0  0
    5.1217    5.1861   22.9475 H   0  0  0  0  0  0  0  0  0  0  0  0
    9.0154    4.3262   23.0377 H   0  0  0  0  0  0  0  0  0  0  0  0
    9.3630    2.9119   22.0437 H   0  0  0  0  0  0  0  0  0  0  0  0
    9.9227    3.0507   24.7141 H   0  0  0  0  0  0  0  0  0  0  0  0
    9.5835    1.5133   23.9525 H   0  0  0  0  0  0  0  0  0  0  0  0
    8.4239    2.1828   26.1914 H   0  0  0  0  0  0  0  0  0  0  0  0
    6.7028    0.9137   24.1658 H   0  0  0  0  0  0  0  0  0  0  0  0
  1  2  2  0
  2  3  1  0
  3  4  1  0
  4  5  2  0
  5  6  1  0
  6  7  1  0
  7  8  1  0
  8  9  2  0
  9 10  1  0
 10 11  2  0
 11 12  1  0
 12 13  2  0
 13 14  1  0
 11 15  1  0
 10 16  1  0
  9 17  1  0
  7 18  2  0
  5 19  1  0
  3 20  1  0
  3 21  1  0
  2 22  1  0
 22 23  1  0
 23 24  1  0
 24 25  1  0
 25 26  1  0
 26 27  1  0
 27 28  2  0
 28 29  1  0
 29 30  2  0
 30 31  1  0
 31 32  2  0
 31 33  1  0
 30 34  1  0
 29 35  1  0
 28 36  1  0
 25 37  1  0
 25 38  1  0
 24 39  1  0
 24 40  1  0
 23 41  1  0
 22 42  1  0
 18  4  1  0
 32 23  1  0
 13  8  1  0
 32 27  1  0
M  END
>  <cnnaffinity>  (1) 
-5.7167

>  <filename>  (1) 
[H]c1nc([H])c(-c2nc(C([H])([H])C(=O)N([H])C3([H])c4c([H])c([H])c([H])c([H])c4SC([H])([H])C3([H])[H])c([H])s2)c([H])c1[H]

$$$$
