
     RDKit          3D

 37 39  0  0  0  0  0  0  0  0999 V2000
    4.9527    1.6513   16.5501 H   0  0  0  0  0  0  0  0  0  0  0  0
    5.4085    1.3739   17.4972 C   0  0  0  0  0  0  0  0  0  0  0  0
    6.5777    0.7145   17.4166 N   0  0  0  0  0  0  0  0  0  0  0  0
    7.1411    0.3259   18.5634 C   0  0  0  0  0  0  0  0  0  0  0  0
    8.1121   -0.1608   18.4947 H   0  0  0  0  0  0  0  0  0  0  0  0
    6.5545    0.5234   19.8361 C   0  0  0  0  0  0  0  0  0  0  0  0
    7.1273   -0.0560   20.9880 N   0  0  0  0  0  0  0  0  0  0  0  0
    7.0322    0.3381   22.3391 C   0  0  0  0  0  0  0  0  0  0  0  0
    6.5135    1.3569   22.7639 O   0  0  0  0  0  0  0  0  0  0  0  0
    7.6869   -0.7522   23.0449 C   0  0  0  0  0  0  0  0  0  0  0  0
    7.7179   -0.8202   24.1138 H   0  0  0  0  0  0  0  0  0  0  0  0
    8.0999   -1.6873   22.1673 C   0  0  0  0  0  0  0  0  0  0  0  0
    8.6763   -3.0506   22.4534 C   0  0  0  0  0  0  0  0  0  0  0  0
    9.5408   -2.9318   23.1213 H   0  0  0  0  0  0  0  0  0  0  0  0
    9.0603   -3.4736   21.5066 H   0  0  0  0  0  0  0  0  0  0  0  0
    7.7267   -3.9625   23.1137 N   0  0  0  0  0  0  0  0  0  0  0  0
    8.3236   -5.1707   23.7070 C   0  0  0  0  0  0  0  0  0  0  0  0
    7.7510   -5.4363   24.6101 H   0  0  0  0  0  0  0  0  0  0  0  0
    9.3343   -4.9400   24.0648 H   0  0  0  0  0  0  0  0  0  0  0  0
    8.3342   -6.3380   22.7054 C   0  0  0  0  0  0  0  0  0  0  0  0
    8.9317   -6.0062   21.8497 H   0  0  0  0  0  0  0  0  0  0  0  0
    8.8312   -7.2233   23.1110 H   0  0  0  0  0  0  0  0  0  0  0  0
    6.9080   -6.6847   22.2019 C   0  0  0  0  0  0  0  0  0  0  0  0
    6.5386   -7.6240   22.6304 H   0  0  0  0  0  0  0  0  0  0  0  0
    6.9527   -6.8206   21.1159 H   0  0  0  0  0  0  0  0  0  0  0  0
    5.8914   -5.5710   22.5323 C   0  0  0  0  0  0  0  0  0  0  0  0
    4.9875   -5.6627   21.9187 H   0  0  0  0  0  0  0  0  0  0  0  0
    5.5695   -5.6573   23.5784 H   0  0  0  0  0  0  0  0  0  0  0  0
    6.4896   -4.1720   22.3289 C   0  0  0  0  0  0  0  0  0  0  0  0
    6.6821   -4.0265   21.2484 H   0  0  0  0  0  0  0  0  0  0  0  0
    5.7492   -3.3999   22.6022 H   0  0  0  0  0  0  0  0  0  0  0  0
    7.8422   -1.2679   20.8511 N   0  0  0  0  0  0  0  0  0  0  0  0
    7.2857   -1.9432   20.3164 H   0  0  0  0  0  0  0  0  0  0  0  0
    5.3783    1.2841   19.9132 C   0  0  0  0  0  0  0  0  0  0  0  0
    4.9540    1.5350   20.8847 H   0  0  0  0  0  0  0  0  0  0  0  0
    4.7912    1.6956   18.7103 C   0  0  0  0  0  0  0  0  0  0  0  0
    3.8756    2.2786   18.7049 H   0  0  0  0  0  0  0  0  0  0  0  0
  1  2  1  0
  2  3  2  0
  3  4  1  0
  4  5  1  0
  4  6  2  0
  6  7  1  0
  7  8  1  0
  8  9  2  0
  8 10  1  0
 10 11  1  0
 10 12  2  0
 12 13  1  0
 13 14  1  0
 13 15  1  0
 13 16  1  0
 16 17  1  0
 17 18  1  0
 17 19  1  0
 17 20  1  0
 20 21  1  0
 20 22  1  0
 20 23  1  0
 23 24  1  0
 23 25  1  0
 23 26  1  0
 26 27  1  0
 26 28  1  0
 26 29  1  0
 29 30  1  0
 29 31  1  0
 12 32  1  0
 32 33  1  0
  6 34  1  0
 34 35  1  0
 34 36  2  0
 36 37  1  0
 36  2  1  0
 32  7  1  0
 29 16  1  0
M  END
>  <cnnaffinity>  (1) 
-5.06085

>  <filename>  (1) 
[H]c1nc([H])c(-n2c(=O)c([H])c(C([H])([H])N3C([H])([H])C([H])([H])C([H])([H])C([H])([H])C3([H])[H])n2[H])c([H])c1[H]

$$$$
