
     RDKit          3D

 42 45  0  0  0  0  0  0  0  0999 V2000
    5.0141    1.8334   16.9066 H   0  0  0  0  0  0  0  0  0  0  0  0
    5.3950    1.3063   17.7811 C   0  0  0  0  0  0  0  0  0  0  0  0
    6.5440    0.6332   17.6163 N   0  0  0  0  0  0  0  0  0  0  0  0
    7.0499    0.0162   18.6923 C   0  0  0  0  0  0  0  0  0  0  0  0
    7.9809   -0.5241   18.5267 H   0  0  0  0  0  0  0  0  0  0  0  0
    6.4521    0.0055   19.9679 C   0  0  0  0  0  0  0  0  0  0  0  0
    7.2087   -0.5829   21.0901 C   0  0  0  0  0  0  0  0  0  0  0  0
    8.5640   -0.5155   21.3257 C   0  0  0  0  0  0  0  0  0  0  0  0
    8.7751   -1.1115   22.5601 C   0  0  0  0  0  0  0  0  0  0  0  0
    7.6673   -1.5848   23.0931 N   0  0  0  0  0  0  0  0  0  0  0  0
    6.7176   -1.2412   22.1832 N   0  0  0  0  0  0  0  0  0  0  0  0
    5.7662   -1.5455   22.3484 H   0  0  0  0  0  0  0  0  0  0  0  0
   10.2175   -1.0960   22.9742 C   0  0  0  0  0  0  0  0  0  0  0  0
   10.6395   -2.1091   22.9511 H   0  0  0  0  0  0  0  0  0  0  0  0
   10.3554   -0.6997   23.9851 H   0  0  0  0  0  0  0  0  0  0  0  0
   10.8867   -0.1902   21.8764 C   0  0  2  0  0  0  0  0  0  0  0  0
   11.7584   -0.7240   21.4827 H   0  0  0  0  0  0  0  0  0  0  0  0
   11.3863    1.1485   22.4042 C   0  0  0  0  0  0  0  0  0  0  0  0
   12.7549    1.4626   22.3351 C   0  0  0  0  0  0  0  0  0  0  0  0
   13.4462    0.7328   21.9261 H   0  0  0  0  0  0  0  0  0  0  0  0
   13.2317    2.6964   22.7786 C   0  0  0  0  0  0  0  0  0  0  0  0
   14.2867    2.9401   22.6953 H   0  0  0  0  0  0  0  0  0  0  0  0
   12.3600    3.6334   23.3226 C   0  0  0  0  0  0  0  0  0  0  0  0
   12.7023    4.5894   23.6894 H   0  0  0  0  0  0  0  0  0  0  0  0
   10.9986    3.3311   23.4108 C   0  0  0  0  0  0  0  0  0  0  0  0
   10.1088    4.2674   23.9575 N   0  0  0  0  0  0  0  0  0  0  0  0
    9.1382    4.1268   23.7531 H   0  0  0  0  0  0  0  0  0  0  0  0
   10.3857    5.3210   24.7858 C   0  0  0  0  0  0  0  0  0  0  0  0
   11.4946    5.5982   25.1973 O   0  0  0  0  0  0  0  0  0  0  0  0
    9.1528    6.1015   25.1674 C   0  0  0  0  0  0  0  0  0  0  0  0
    9.4493    6.9416   25.7891 H   0  0  0  0  0  0  0  0  0  0  0  0
    8.6287    6.4698   24.2821 H   0  0  0  0  0  0  0  0  0  0  0  0
    8.4751    5.4712   25.7461 H   0  0  0  0  0  0  0  0  0  0  0  0
   10.5081    2.1032   22.9387 C   0  0  0  0  0  0  0  0  0  0  0  0
    9.4448    1.8798   22.9888 H   0  0  0  0  0  0  0  0  0  0  0  0
    9.8344   -0.0264   20.7228 C   0  0  0  0  0  0  0  0  0  0  0  0
   10.1137   -0.6726   19.8860 H   0  0  0  0  0  0  0  0  0  0  0  0
    9.7628    1.0037   20.3465 H   0  0  0  0  0  0  0  0  0  0  0  0
    5.2242    0.6766   20.1037 C   0  0  0  0  0  0  0  0  0  0  0  0
    4.7075    0.6964   21.0633 H   0  0  0  0  0  0  0  0  0  0  0  0
    4.6995    1.3431   18.9945 C   0  0  0  0  0  0  0  0  0  0  0  0
    3.7807    1.9138   19.0620 H   0  0  0  0  0  0  0  0  0  0  0  0
  1  2  1  0
  2  3  2  0
  3  4  1  0
  4  5  1  0
  4  6  2  0
  6  7  1  0
  7  8  2  0
  8  9  1  0
  9 10  2  0
 10 11  1  0
 11 12  1  0
  9 13  1  0
 13 14  1  0
 13 15  1  0
 13 16  1  0
 16 17  1  6
 16 18  1  0
 18 19  2  0
 19 20  1  0
 19 21  1  0
 21 22  1  0
 21 23  2  0
 23 24  1  0
 23 25  1  0
 25 26  1  0
 26 27  1  0
 26 28  1  0
 28 29  2  0
 28 30  1  0
 30 31  1  0
 30 32  1  0
 30 33  1  0
 25 34  2  0
 34 35  1  0
 16 36  1  0
 36 37  1  0
 36 38  1  0
  6 39  1  0
 39 40  1  0
 39 41  2  0
 41 42  1  0
 41  2  1  0
 11  7  1  0
 34 18  1  0
 36  8  1  0
M  END
>  <cnnaffinity>  (1) 
-5.73091

>  <filename>  (1) 
[H]c1nc([H])c(-c2c3c(nn2[H])C([H])([H])[C@]([H])(c2c([H])c([H])c([H])c(N([H])C(=O)C([H])([H])[H])c2[H])C3([H])[H])c([H])c1[H]

$$$$
