
     RDKit          3D

 35 36  0  0  0  0  0  0  0  0999 V2000
    4.9132    1.7993   16.9802 H   0  0  0  0  0  0  0  0  0  0  0  0
    5.3896    1.3020   17.8233 C   0  0  0  0  0  0  0  0  0  0  0  0
    6.5519    0.6849   17.5568 N   0  0  0  0  0  0  0  0  0  0  0  0
    7.1670    0.0751   18.5778 C   0  0  0  0  0  0  0  0  0  0  0  0
    8.1073   -0.4204   18.3317 H   0  0  0  0  0  0  0  0  0  0  0  0
    6.6633    0.0172   19.8910 C   0  0  0  0  0  0  0  0  0  0  0  0
    7.3919   -0.6987   20.9725 C   0  0  0  0  0  0  0  0  0  0  0  0
    6.7119   -1.5490   21.8909 C   0  0  0  0  0  0  0  0  0  0  0  0
    5.6434   -1.6853   21.7708 H   0  0  0  0  0  0  0  0  0  0  0  0
    7.3527   -2.2194   22.9182 C   0  0  0  0  0  0  0  0  0  0  0  0
    6.6064   -3.0412   23.7873 N   0  0  0  0  0  0  0  0  0  0  0  0
    6.0573   -4.3029   23.3236 C   0  0  0  0  0  0  0  0  0  0  0  0
    6.3995   -5.1226   23.9842 H   0  0  0  0  0  0  0  0  0  0  0  0
    6.4840   -4.5033   22.3336 H   0  0  0  0  0  0  0  0  0  0  0  0
    4.5316   -4.2816   23.2620 C   0  0  0  0  0  0  0  0  0  0  0  0
    4.1327   -5.2240   22.8690 H   0  0  0  0  0  0  0  0  0  0  0  0
    4.2035   -3.4623   22.6122 H   0  0  0  0  0  0  0  0  0  0  0  0
    4.1117   -4.1134   24.2611 H   0  0  0  0  0  0  0  0  0  0  0  0
    6.4807   -2.6387   25.1776 C   0  0  0  0  0  0  0  0  0  0  0  0
    6.0577   -3.4812   25.7486 H   0  0  0  0  0  0  0  0  0  0  0  0
    7.4962   -2.4582   25.5635 H   0  0  0  0  0  0  0  0  0  0  0  0
    5.6060   -1.3930   25.3443 C   0  0  0  0  0  0  0  0  0  0  0  0
    4.6042   -1.5876   24.9460 H   0  0  0  0  0  0  0  0  0  0  0  0
    5.4903   -1.1201   26.3985 H   0  0  0  0  0  0  0  0  0  0  0  0
    6.0419   -0.5430   24.8016 H   0  0  0  0  0  0  0  0  0  0  0  0
    8.8288   -2.0492   23.0668 C   0  0  0  0  0  0  0  0  0  0  0  0
    9.6184   -2.5310   23.8692 O   0  0  0  0  0  0  0  0  0  0  0  0
    9.3913   -1.2062   22.1169 N   0  0  0  0  0  0  0  0  0  0  0  0
   10.3837   -1.1878   22.2988 H   0  0  0  0  0  0  0  0  0  0  0  0
    8.7405   -0.5497   21.1095 C   0  0  0  0  0  0  0  0  0  0  0  0
    9.3274    0.0894   20.4628 H   0  0  0  0  0  0  0  0  0  0  0  0
    5.4408    0.6555   20.1401 C   0  0  0  0  0  0  0  0  0  0  0  0
    5.0203    0.6346   21.1468 H   0  0  0  0  0  0  0  0  0  0  0  0
    4.8020    1.3184   19.0918 C   0  0  0  0  0  0  0  0  0  0  0  0
    3.8695    1.8453   19.2451 H   0  0  0  0  0  0  0  0  0  0  0  0
  1  2  1  0
  2  3  2  0
  3  4  1  0
  4  5  1  0
  4  6  2  0
  6  7  1  0
  7  8  1  0
  8  9  1  0
  8 10  2  0
 10 11  1  0
 11 12  1  0
 12 13  1  0
 12 14  1  0
 12 15  1  0
 15 16  1  0
 15 17  1  0
 15 18  1  0
 11 19  1  0
 19 20  1  0
 19 21  1  0
 19 22  1  0
 22 23  1  0
 22 24  1  0
 22 25  1  0
 10 26  1  0
 26 27  2  0
 26 28  1  0
 28 29  1  0
 28 30  1  0
 30 31  1  0
  6 32  1  0
 32 33  1  0
 32 34  2  0
 34 35  1  0
 34  2  1  0
 30  7  2  0
M  END
>  <cnnaffinity>  (1) 
-4.81012

>  <filename>  (1) 
[H]c1nc([H])c(-c2c([H])c(N(C([H])([H])C([H])([H])[H])C([H])([H])C([H])([H])[H])c(=O)n([H])c2[H])c([H])c1[H]

$$$$
