
     RDKit          3D

 37 40  0  0  0  0  0  0  0  0999 V2000
    4.9926    1.7528   16.7744 H   0  0  0  0  0  0  0  0  0  0  0  0
    5.4006    1.3046   17.6781 C   0  0  0  0  0  0  0  0  0  0  0  0
    6.5272    0.5922   17.5197 N   0  0  0  0  0  0  0  0  0  0  0  0
    7.0479    0.0251   18.6093 C   0  0  0  0  0  0  0  0  0  0  0  0
    7.9705   -0.5348   18.4558 H   0  0  0  0  0  0  0  0  0  0  0  0
    6.5185    0.1418   19.9141 C   0  0  0  0  0  0  0  0  0  0  0  0
    7.2173   -0.4925   21.0461 C   0  0  0  0  0  0  0  0  0  0  0  0
    7.2651   -0.0655   22.3276 C   0  0  0  0  0  0  0  0  0  0  0  0
    6.8353    1.1816   22.6977 O   0  0  0  0  0  0  0  0  0  0  0  0
    6.7645    1.5663   24.0211 C   0  0  0  0  0  0  0  0  0  0  0  0
    6.0195    0.8226   24.9399 C   0  0  0  0  0  0  0  0  0  0  0  0
    5.5273   -0.0810   24.6040 H   0  0  0  0  0  0  0  0  0  0  0  0
    5.9355    1.2568   26.2649 C   0  0  0  0  0  0  0  0  0  0  0  0
    5.3861    0.6630   26.9901 H   0  0  0  0  0  0  0  0  0  0  0  0
    6.5646    2.4366   26.6701 C   0  0  0  0  0  0  0  0  0  0  0  0
    6.5057    2.7924   27.6938 H   0  0  0  0  0  0  0  0  0  0  0  0
    7.3039    3.1631   25.7315 C   0  0  0  0  0  0  0  0  0  0  0  0
    8.0968    4.6310   26.2259 Cl  0  0  0  0  0  0  0  0  0  0  0  0
    7.4186    2.7393   24.4046 C   0  0  0  0  0  0  0  0  0  0  0  0
    7.9979    3.2983   23.6791 H   0  0  0  0  0  0  0  0  0  0  0  0
    7.9637   -1.0109   23.2534 C   0  0  0  0  0  0  0  0  0  0  0  0
    7.2707   -1.4635   23.9788 H   0  0  0  0  0  0  0  0  0  0  0  0
    8.7159   -0.4708   23.8396 H   0  0  0  0  0  0  0  0  0  0  0  0
    8.5734   -2.0597   22.3137 C   0  0  0  0  0  0  0  0  0  0  0  0
    8.0308   -1.7634   20.9125 C   0  0  0  0  0  0  0  0  0  0  0  0
    8.8446   -1.6514   20.1834 H   0  0  0  0  0  0  0  0  0  0  0  0
    7.4012   -2.5909   20.5574 H   0  0  0  0  0  0  0  0  0  0  0  0
    9.9689   -2.5617   22.5742 C   0  0  0  0  0  0  0  0  0  0  0  0
   10.6634   -2.6803   21.7453 H   0  0  0  0  0  0  0  0  0  0  0  0
   10.4305   -2.2521   23.5123 H   0  0  0  0  0  0  0  0  0  0  0  0
    8.7926   -3.4851   22.7228 C   0  0  0  0  0  0  0  0  0  0  0  0
    8.5205   -3.8009   23.7252 H   0  0  0  0  0  0  0  0  0  0  0  0
    8.6354   -4.2556   21.9744 H   0  0  0  0  0  0  0  0  0  0  0  0
    5.3339    0.8952   20.0525 C   0  0  0  0  0  0  0  0  0  0  0  0
    4.8939    1.0471   21.0386 H   0  0  0  0  0  0  0  0  0  0  0  0
    4.7670    1.4660   18.9147 C   0  0  0  0  0  0  0  0  0  0  0  0
    3.8555    2.0500   18.9698 H   0  0  0  0  0  0  0  0  0  0  0  0
  1  2  1  0
  2  3  2  0
  3  4  1  0
  4  5  1  0
  4  6  2  0
  6  7  1  0
  7  8  2  0
  8  9  1  0
  9 10  1  0
 10 11  2  0
 11 12  1  0
 11 13  1  0
 13 14  1  0
 13 15  2  0
 15 16  1  0
 15 17  1  0
 17 18  1  0
 17 19  2  0
 19 20  1  0
  8 21  1  0
 21 22  1  0
 21 23  1  0
 21 24  1  0
 24 25  1  0
 25 26  1  0
 25 27  1  0
 24 28  1  0
 28 29  1  0
 28 30  1  0
 28 31  1  0
 31 32  1  0
 31 33  1  0
  6 34  1  0
 34 35  1  0
 34 36  2  0
 36 37  1  0
 36  2  1  0
 25  7  1  0
 19 10  1  0
 31 24  1  0
M  END
>  <cnnaffinity>  (1) 
-5.36382

>  <filename>  (1) 
[H]c1nc([H])c(C2=C(Oc3c([H])c([H])c([H])c(Cl)c3[H])C([H])([H])C3(C2([H])[H])C([H])([H])C3([H])[H])c([H])c1[H]

$$$$
