
     RDKit          3D

 31 32  0  0  0  0  0  0  0  0999 V2000
    4.9284   -3.4070   25.7830 H   0  0  0  0  0  0  0  0  0  0  0  0
    4.6344   -3.6873   24.7711 C   0  0  0  0  0  0  0  0  0  0  0  0
    5.3725   -3.1957   23.7783 N   0  0  0  0  0  0  0  0  0  0  0  0
    5.0169   -3.5330   22.5180 C   0  0  0  0  0  0  0  0  0  0  0  0
    5.8127   -2.8542   21.3215 C   0  0  0  0  0  0  0  0  0  0  0  0
    5.8110   -3.2823   20.1883 O   0  0  0  0  0  0  0  0  0  0  0  0
    6.4563   -1.6896   21.6957 N   0  0  0  0  0  0  0  0  0  0  0  0
    6.3692   -1.4062   22.6658 H   0  0  0  0  0  0  0  0  0  0  0  0
    7.2622   -0.9426   20.8539 N   0  0  0  0  0  0  0  0  0  0  0  0
    6.6080   -0.1513   19.8723 C   0  0  0  0  0  0  0  0  0  0  0  0
    7.1431   -0.0596   18.5701 C   0  0  0  0  0  0  0  0  0  0  0  0
    8.0683   -0.5892   18.3307 H   0  0  0  0  0  0  0  0  0  0  0  0
    6.5869    0.6468   17.5766 N   0  0  0  0  0  0  0  0  0  0  0  0
    5.4594    1.3228   17.8533 C   0  0  0  0  0  0  0  0  0  0  0  0
    5.0189    1.8863   17.0327 H   0  0  0  0  0  0  0  0  0  0  0  0
    4.8550    1.3186   19.1137 C   0  0  0  0  0  0  0  0  0  0  0  0
    3.9580    1.9030   19.2896 H   0  0  0  0  0  0  0  0  0  0  0  0
    5.4399    0.5777   20.1459 C   0  0  0  0  0  0  0  0  0  0  0  0
    5.0403    0.5776   21.1577 H   0  0  0  0  0  0  0  0  0  0  0  0
    8.4910   -0.4281   21.4460 C   0  0  0  0  0  0  0  0  0  0  0  0
    9.1164   -0.0167   20.6448 H   0  0  0  0  0  0  0  0  0  0  0  0
    8.3096    0.3654   22.1910 H   0  0  0  0  0  0  0  0  0  0  0  0
    9.0307   -1.2507   21.9279 H   0  0  0  0  0  0  0  0  0  0  0  0
    4.0093   -4.3613   22.2251 N   0  0  0  0  0  0  0  0  0  0  0  0
    3.2259   -4.8063   23.2218 C   0  0  0  0  0  0  0  0  0  0  0  0
    1.9385   -5.6275   22.8967 C   0  0  0  0  0  0  0  0  0  0  0  0
    2.1091   -6.9530   23.0437 F   0  0  0  0  0  0  0  0  0  0  0  0
    1.4998   -5.4234   21.6554 F   0  0  0  0  0  0  0  0  0  0  0  0
    0.9411   -5.2796   23.7456 F   0  0  0  0  0  0  0  0  0  0  0  0
    3.5090   -4.4685   24.5439 C   0  0  0  0  0  0  0  0  0  0  0  0
    2.8474   -4.7433   25.3498 H   0  0  0  0  0  0  0  0  0  0  0  0
  1  2  1  0
  2  3  2  0
  3  4  1  0
  4  5  1  0
  5  6  2  0
  5  7  1  0
  7  8  1  0
  7  9  1  0
  9 10  1  0
 10 11  2  0
 11 12  1  0
 11 13  1  0
 13 14  2  0
 14 15  1  0
 14 16  1  0
 16 17  1  0
 16 18  2  0
 18 19  1  0
  9 20  1  0
 20 21  1  0
 20 22  1  0
 20 23  1  0
  4 24  2  0
 24 25  1  0
 25 26  1  0
 26 27  1  0
 26 28  1  0
 26 29  1  0
 25 30  2  0
 30 31  1  0
 30  2  1  0
 18 10  1  0
M  END
>  <cnnaffinity>  (1) 
-5.46533

>  <filename>  (1) 
[H]c1nc(C(=O)N([H])N(c2c([H])nc([H])c([H])c2[H])C([H])([H])[H])nc(C(F)(F)F)c1[H]

$$$$
