
     RDKit          3D

 31 33  0  0  0  0  0  0  0  0999 V2000
    5.1036    1.7836   16.9636 H   0  0  0  0  0  0  0  0  0  0  0  0
    5.5074    1.2684   17.8309 C   0  0  0  0  0  0  0  0  0  0  0  0
    6.6501    0.5936   17.6408 N   0  0  0  0  0  0  0  0  0  0  0  0
    7.1717   -0.0379   18.6952 C   0  0  0  0  0  0  0  0  0  0  0  0
    8.0941   -0.5877   18.5215 H   0  0  0  0  0  0  0  0  0  0  0  0
    6.5970   -0.0207   19.9733 C   0  0  0  0  0  0  0  0  0  0  0  0
    7.3361   -0.7441   21.0199 C   0  0  0  0  0  0  0  0  0  0  0  0
    8.2298   -1.5314   20.7870 O   0  0  0  0  0  0  0  0  0  0  0  0
    6.9656   -0.4474   22.3079 N   0  0  0  0  0  0  0  0  0  0  0  0
    6.6652    0.4605   22.6149 H   0  0  0  0  0  0  0  0  0  0  0  0
    7.7383   -1.2174   23.5308 S   0  0  0  0  0  0  0  0  0  0  0  0
    7.5788   -2.6334   23.2989 O   0  0  0  0  0  0  0  0  0  0  0  0
    7.2317   -0.5060   24.6838 O   0  0  0  0  0  0  0  0  0  0  0  0
    9.5450   -0.8262   23.3103 C   0  0  0  0  0  0  0  0  0  0  0  0
   10.1422    0.2406   23.7557 N   0  0  0  0  0  0  0  0  0  0  0  0
   11.4575    0.0948   23.3403 C   0  0  0  0  0  0  0  0  0  0  0  0
   12.5497    0.9555   23.5191 C   0  0  0  0  0  0  0  0  0  0  0  0
   12.3960    1.9008   24.0254 H   0  0  0  0  0  0  0  0  0  0  0  0
   13.7951    0.5584   23.0389 C   0  0  0  0  0  0  0  0  0  0  0  0
   14.6590    1.2021   23.1675 H   0  0  0  0  0  0  0  0  0  0  0  0
   13.9446   -0.6750   22.3661 C   0  0  0  0  0  0  0  0  0  0  0  0
   14.9176   -1.0207   22.0537 H   0  0  0  0  0  0  0  0  0  0  0  0
   12.8551   -1.5052   22.1260 C   0  0  0  0  0  0  0  0  0  0  0  0
   12.9739   -2.4323   21.5858 H   0  0  0  0  0  0  0  0  0  0  0  0
   11.6168   -1.1052   22.6308 C   0  0  0  0  0  0  0  0  0  0  0  0
   10.3744   -1.6965   22.6351 N   0  0  0  0  0  0  0  0  0  0  0  0
   10.0849   -2.3903   21.9588 H   0  0  0  0  0  0  0  0  0  0  0  0
    5.3844    0.6624   20.1546 C   0  0  0  0  0  0  0  0  0  0  0  0
    4.8629    0.6706   21.1157 H   0  0  0  0  0  0  0  0  0  0  0  0
    4.8387    1.3214   19.0587 C   0  0  0  0  0  0  0  0  0  0  0  0
    3.9171    1.8816   19.1477 H   0  0  0  0  0  0  0  0  0  0  0  0
  1  2  1  0
  2  3  2  0
  3  4  1  0
  4  5  1  0
  4  6  2  0
  6  7  1  0
  7  8  2  0
  7  9  1  0
  9 10  1  0
  9 11  1  0
 11 12  2  0
 11 13  2  0
 11 14  1  0
 14 15  2  0
 15 16  1  0
 16 17  2  0
 17 18  1  0
 17 19  1  0
 19 20  1  0
 19 21  2  0
 21 22  1  0
 21 23  1  0
 23 24  1  0
 23 25  2  0
 25 26  1  0
 26 27  1  0
  6 28  1  0
 28 29  1  0
 28 30  2  0
 30 31  1  0
 30  2  1  0
 26 14  1  0
 25 16  1  0
M  END
>  <cnnaffinity>  (1) 
-5.54181

>  <filename>  (1) 
[H]c1nc([H])c(C(=O)N([H])S(=O)(=O)c2nc3c([H])c([H])c([H])c([H])c3n2[H])c([H])c1[H]

$$$$
