
     RDKit          3D

 26 27  0  0  0  0  0  0  0  0999 V2000
    8.3061   -1.5738   20.5912 O   0  0  0  0  0  0  0  0  0  0  0  0
    7.5040   -0.7352   20.9566 C   0  0  0  0  0  0  0  0  0  0  0  0
    7.2967   -0.3979   22.2734 N   0  0  0  0  0  0  0  0  0  0  0  0
    7.5363   -1.2035   23.4177 N   0  0  0  0  0  0  0  0  0  0  0  0
    7.3972   -2.6007   23.3685 C   0  0  0  0  0  0  0  0  0  0  0  0
    8.3615   -3.1997   24.0647 N   0  0  0  0  0  0  0  0  0  0  0  0
    8.3877   -4.5386   24.0917 C   0  0  0  0  0  0  0  0  0  0  0  0
    7.4350   -5.3295   23.4557 C   0  0  0  0  0  0  0  0  0  0  0  0
    6.3963   -4.7109   22.7504 C   0  0  0  0  0  0  0  0  0  0  0  0
    6.3873   -3.3284   22.6876 C   0  0  0  0  0  0  0  0  0  0  0  0
    5.4525   -2.7084   21.9566 F   0  0  0  0  0  0  0  0  0  0  0  0
    5.6034   -5.2656   22.2521 H   0  0  0  0  0  0  0  0  0  0  0  0
    7.5023   -6.4062   23.5050 H   0  0  0  0  0  0  0  0  0  0  0  0
    9.2079   -4.9990   24.6360 H   0  0  0  0  0  0  0  0  0  0  0  0
    8.4661   -1.1389   23.8366 H   0  0  0  0  0  0  0  0  0  0  0  0
    6.6262    0.3431   22.4161 H   0  0  0  0  0  0  0  0  0  0  0  0
    6.6725    0.0511   19.9802 C   0  0  0  0  0  0  0  0  0  0  0  0
    5.4394    0.6912   20.2086 C   0  0  0  0  0  0  0  0  0  0  0  0
    4.8204    1.3184   19.1287 C   0  0  0  0  0  0  0  0  0  0  0  0
    5.4385    1.2924   17.8758 C   0  0  0  0  0  0  0  0  0  0  0  0
    6.6017    0.6692   17.6469 N   0  0  0  0  0  0  0  0  0  0  0  0
    7.1865    0.0594   18.6789 C   0  0  0  0  0  0  0  0  0  0  0  0
    8.1226   -0.4576   18.4786 H   0  0  0  0  0  0  0  0  0  0  0  0
    4.9714    1.7724   17.0165 H   0  0  0  0  0  0  0  0  0  0  0  0
    3.8790    1.8382   19.2434 H   0  0  0  0  0  0  0  0  0  0  0  0
    4.9357    0.7077   21.1803 H   0  0  0  0  0  0  0  0  0  0  0  0
  1  2  2  0
  2  3  1  0
  3  4  1  0
  4  5  1  0
  5  6  2  0
  6  7  1  0
  7  8  2  0
  8  9  1  0
  9 10  2  0
 10 11  1  0
  9 12  1  0
  8 13  1  0
  7 14  1  0
  4 15  1  0
  3 16  1  0
  2 17  1  0
 17 18  2  0
 18 19  1  0
 19 20  2  0
 20 21  1  0
 21 22  2  0
 22 23  1  0
 20 24  1  0
 19 25  1  0
 18 26  1  0
 10  5  1  0
 22 17  1  0
M  END
>  <cnnaffinity>  (1) 
-4.47584

>  <filename>  (1) 
[H]c1nc(N([H])N([H])C(=O)c2c([H])nc([H])c([H])c2[H])c(F)c([H])c1[H]

$$$$
