
     RDKit          3D

 32 33  0  0  0  0  0  0  0  0999 V2000
    8.3399   -2.8722   21.7019 C   0  0  0  0  0  0  0  0  0  0  0  0
    7.3135   -2.1239   20.8906 N   0  0  0  0  0  4  0  0  0  0  0  0
    7.4334   -0.6304   21.0167 C   0  0  0  0  0  0  0  0  0  0  0  0
    6.6625    0.0278   19.9018 C   0  0  0  0  0  0  0  0  0  0  0  0
    5.4457    0.6893   20.1244 C   0  0  0  0  0  0  0  0  0  0  0  0
    4.8182    1.3265   19.0527 C   0  0  0  0  0  0  0  0  0  0  0  0
    5.4197    1.2760   17.7942 C   0  0  0  0  0  0  0  0  0  0  0  0
    6.5536    0.6010   17.5506 N   0  0  0  0  0  0  0  0  0  0  0  0
    7.1422   -0.0187   18.5817 C   0  0  0  0  0  0  0  0  0  0  0  0
    8.0635   -0.5530   18.3373 H   0  0  0  0  0  0  0  0  0  0  0  0
    4.9713    1.8001   16.9511 H   0  0  0  0  0  0  0  0  0  0  0  0
    3.8877    1.8638   19.1817 H   0  0  0  0  0  0  0  0  0  0  0  0
    5.0001    0.7034   21.1221 H   0  0  0  0  0  0  0  0  0  0  0  0
    7.0441   -0.3285   22.0015 H   0  0  0  0  0  0  0  0  0  0  0  0
    8.4955   -0.3643   20.9916 H   0  0  0  0  0  0  0  0  0  0  0  0
    5.9002   -2.5852   21.2283 C   0  0  0  0  0  0  0  0  0  0  0  0
    5.7614   -4.0133   20.8170 C   0  0  0  0  0  0  0  0  0  0  0  0
    5.7600   -4.3229   19.4559 C   0  0  0  0  0  0  0  0  0  0  0  0
    5.5068   -5.5341   18.9710 N   0  0  0  0  0  0  0  0  0  0  0  0
    5.3374   -6.5354   19.8317 C   0  0  0  0  0  0  0  0  0  0  0  0
    5.4473   -6.3840   21.2067 C   0  0  0  0  0  0  0  0  0  0  0  0
    5.6754   -5.1043   21.6900 C   0  0  0  0  0  0  0  0  0  0  0  0
    5.8517   -4.8973   23.4014 Cl  0  0  0  0  0  0  0  0  0  0  0  0
    5.3458   -7.2255   21.8773 H   0  0  0  0  0  0  0  0  0  0  0  0
    5.0550   -7.5021   19.4210 H   0  0  0  0  0  0  0  0  0  0  0  0
    5.9348   -3.5403   18.7154 H   0  0  0  0  0  0  0  0  0  0  0  0
    5.2114   -1.9594   20.6596 H   0  0  0  0  0  0  0  0  0  0  0  0
    5.7004   -2.4203   22.2916 H   0  0  0  0  0  0  0  0  0  0  0  0
    7.4423   -2.3506   19.8787 H   0  0  0  0  0  0  0  0  0  0  0  0
    8.1715   -2.7068   22.7756 H   0  0  0  0  0  0  0  0  0  0  0  0
    9.3544   -2.5419   21.4534 H   0  0  0  0  0  0  0  0  0  0  0  0
    8.2729   -3.9440   21.5032 H   0  0  0  0  0  0  0  0  0  0  0  0
  1  2  1  0
  2  3  1  0
  3  4  1  0
  4  5  2  0
  5  6  1  0
  6  7  2  0
  7  8  1  0
  8  9  2  0
  9 10  1  0
  7 11  1  0
  6 12  1  0
  5 13  1  0
  3 14  1  0
  3 15  1  0
  2 16  1  0
 16 17  1  0
 17 18  2  0
 18 19  1  0
 19 20  2  0
 20 21  1  0
 21 22  2  0
 22 23  1  0
 21 24  1  0
 20 25  1  0
 18 26  1  0
 16 27  1  0
 16 28  1  0
  2 29  1  0
  1 30  1  0
  1 31  1  0
  1 32  1  0
  9  4  1  0
 22 17  1  0
M  CHG  1   2   1
M  END
>  <cnnaffinity>  (1) 
-4.85043

>  <filename>  (1) 
[H]c1nc([H])c(C([H])([H])[N+]([H])(C([H])([H])[H])C([H])([H])c2c([H])nc([H])c([H])c2Cl)c([H])c1[H]

$$$$
