
     RDKit          3D

 32 34  0  0  0  0  0  0  0  0999 V2000
    4.9809    1.7725   17.0216 H   0  0  0  0  0  0  0  0  0  0  0  0
    5.4249    1.2723   17.8753 C   0  0  0  0  0  0  0  0  0  0  0  0
    6.5844    0.6439   17.6333 N   0  0  0  0  0  0  0  0  0  0  0  0
    7.1661    0.0364   18.6652 C   0  0  0  0  0  0  0  0  0  0  0  0
    8.1154   -0.4634   18.4763 H   0  0  0  0  0  0  0  0  0  0  0  0
    6.6242    0.0119   19.9610 C   0  0  0  0  0  0  0  0  0  0  0  0
    7.3946   -0.7195   20.9555 C   0  0  0  0  0  0  0  0  0  0  0  0
    8.4942   -1.3640   20.7639 N   0  0  0  0  0  0  0  0  0  0  0  0
    8.8410   -1.9367   21.9845 N   0  0  0  0  0  0  0  0  0  0  0  0
    7.9247   -1.5689   22.8028 C   0  0  0  0  0  0  0  0  0  0  0  0
    7.7540   -1.8780   24.1195 N   0  0  0  0  0  0  0  0  0  0  0  0
    6.8548   -1.7245   24.5319 H   0  0  0  0  0  0  0  0  0  0  0  0
    8.7414   -2.4041   24.8966 C   0  0  0  0  0  0  0  0  0  0  0  0
   10.3338   -2.3303   24.5720 S   0  0  0  0  0  0  0  0  0  0  0  0
    8.2992   -3.0318   26.0280 N   0  0  0  0  0  0  0  0  0  0  0  0
    9.1182   -3.3112   26.5496 H   0  0  0  0  0  0  0  0  0  0  0  0
    7.1807   -3.8845   26.1923 C   0  0  0  0  0  0  0  0  0  0  0  0
    6.4011   -4.3700   25.1272 C   0  0  0  0  0  0  0  0  0  0  0  0
    6.7444   -4.2609   24.1006 H   0  0  0  0  0  0  0  0  0  0  0  0
    5.2112   -5.0523   25.4188 C   0  0  0  0  0  0  0  0  0  0  0  0
    4.6044   -5.4410   24.6055 H   0  0  0  0  0  0  0  0  0  0  0  0
    4.7976   -5.2438   26.7421 C   0  0  0  0  0  0  0  0  0  0  0  0
    3.8375   -5.7033   26.9622 H   0  0  0  0  0  0  0  0  0  0  0  0
    5.6370   -4.8424   27.7876 C   0  0  0  0  0  0  0  0  0  0  0  0
    5.3296   -4.9760   28.8200 H   0  0  0  0  0  0  0  0  0  0  0  0
    6.8627   -4.2427   27.5070 C   0  0  0  0  0  0  0  0  0  0  0  0
    7.5973   -4.0630   28.2828 H   0  0  0  0  0  0  0  0  0  0  0  0
    6.9581   -0.8104   22.2506 O   0  0  0  0  0  0  0  0  0  0  0  0
    5.4025    0.6636   20.2051 C   0  0  0  0  0  0  0  0  0  0  0  0
    4.9402    0.6809   21.1953 H   0  0  0  0  0  0  0  0  0  0  0  0
    4.7970    1.3053   19.1268 C   0  0  0  0  0  0  0  0  0  0  0  0
    3.8619    1.8441   19.2397 H   0  0  0  0  0  0  0  0  0  0  0  0
  1  2  1  0
  2  3  2  0
  3  4  1  0
  4  5  1  0
  4  6  2  0
  6  7  1  0
  7  8  2  0
  8  9  1  0
  9 10  2  0
 10 11  1  0
 11 12  1  0
 11 13  1  0
 13 14  2  0
 13 15  1  0
 15 16  1  0
 15 17  1  0
 17 18  2  0
 18 19  1  0
 18 20  1  0
 20 21  1  0
 20 22  2  0
 22 23  1  0
 22 24  1  0
 24 25  1  0
 24 26  2  0
 26 27  1  0
 10 28  1  0
  6 29  1  0
 29 30  1  0
 29 31  2  0
 31 32  1  0
 31  2  1  0
 28  7  1  0
 26 17  1  0
M  END
>  <cnnaffinity>  (1) 
-5.001

>  <filename>  (1) 
[H]c1nc([H])c(-c2nnc(N([H])C(=S)N([H])c3c([H])c([H])c([H])c([H])c3[H])o2)c([H])c1[H]

$$$$
