
     RDKit          3D

 24 25  0  0  0  0  0  0  0  0999 V2000
    4.9177    1.7973   16.9954 H   0  0  0  0  0  0  0  0  0  0  0  0
    5.3968    1.2991   17.8356 C   0  0  0  0  0  0  0  0  0  0  0  0
    6.5622    0.6870   17.5711 N   0  0  0  0  0  0  0  0  0  0  0  0
    7.1763    0.0603   18.5824 C   0  0  0  0  0  0  0  0  0  0  0  0
    8.1196   -0.4280   18.3492 H   0  0  0  0  0  0  0  0  0  0  0  0
    6.6697   -0.0142   19.9043 C   0  0  0  0  0  0  0  0  0  0  0  0
    7.3122   -0.7132   20.9370 N   0  0  0  0  0  0  0  0  0  0  0  0
    6.8653   -0.6964   21.8417 H   0  0  0  0  0  0  0  0  0  0  0  0
    8.8257   -1.4509   20.7998 S   0  0  0  0  0  0  0  0  0  0  0  0
    9.9164   -0.0159   21.2164 C   0  0  2  0  0  0  0  0  0  0  0  0
    9.5581    0.8122   20.5935 H   0  0  0  0  0  0  0  0  0  0  0  0
   11.3089   -0.3007   20.9696 N   0  0  0  0  0  0  0  0  0  0  0  0
   11.8988   -0.0796   22.0829 C   0  0  0  0  0  0  0  0  0  0  0  0
   13.2017   -0.2296   22.2330 N   0  0  0  0  0  0  0  0  0  0  0  0
   13.6160   -0.0360   23.1162 H   0  0  0  0  0  0  0  0  0  0  0  0
   13.6460   -0.4555   21.3658 H   0  0  0  0  0  0  0  0  0  0  0  0
   11.2128    0.2985   23.1624 O   0  0  0  0  0  0  0  0  0  0  0  0
    9.8357    0.3549   22.7229 C   0  0  0  0  0  0  0  0  0  0  0  0
    9.4529    1.3685   22.8768 H   0  0  0  0  0  0  0  0  0  0  0  0
    9.2674   -0.3754   23.3089 H   0  0  0  0  0  0  0  0  0  0  0  0
    5.4512    0.6392   20.1614 C   0  0  0  0  0  0  0  0  0  0  0  0
    5.0304    0.6207   21.1670 H   0  0  0  0  0  0  0  0  0  0  0  0
    4.8111    1.3055   19.1094 C   0  0  0  0  0  0  0  0  0  0  0  0
    3.8751    1.8375   19.2616 H   0  0  0  0  0  0  0  0  0  0  0  0
  1  2  1  0
  2  3  2  0
  3  4  1  0
  4  5  1  0
  4  6  2  0
  6  7  1  0
  7  8  1  0
  7  9  1  0
  9 10  1  0
 10 11  1  6
 10 12  1  0
 12 13  2  0
 13 14  1  0
 14 15  1  0
 14 16  1  0
 13 17  1  0
 17 18  1  0
 18 19  1  0
 18 20  1  0
  6 21  1  0
 21 22  1  0
 21 23  2  0
 23 24  1  0
 23  2  1  0
 18 10  1  0
M  END
>  <cnnaffinity>  (1) 
-4.47408

>  <filename>  (1) 
[H]c1nc([H])c(N([H])S[C@]2([H])N=C(N([H])[H])OC2([H])[H])c([H])c1[H]

$$$$
