
     RDKit          3D

 23 24  0  0  0  0  0  0  0  0999 V2000
    9.4228   -2.4051   23.7339 H   0  0  0  0  0  0  0  0  0  0  0  0
    8.8910   -1.9212   22.9178 C   0  0  0  0  0  0  0  0  0  0  0  0
    9.3605   -0.7555   22.4781 N   0  0  0  0  0  0  0  0  0  0  0  0
    8.6587   -0.1669   21.5065 C   0  0  0  0  0  0  0  0  0  0  0  0
    9.0608    0.7835   21.1535 H   0  0  0  0  0  0  0  0  0  0  0  0
    7.4908   -0.7078   20.9514 C   0  0  0  0  0  0  0  0  0  0  0  0
    6.7257    0.0059   19.8579 C   0  0  0  0  0  0  0  0  0  0  0  0
    7.2002    0.0659   18.5261 C   0  0  0  0  0  0  0  0  0  0  0  0
    8.1297   -0.4412   18.2599 H   0  0  0  0  0  0  0  0  0  0  0  0
    6.5663    0.6894   17.5209 N   0  0  0  0  0  0  0  0  0  0  0  0
    5.4109    1.3074   17.8099 C   0  0  0  0  0  0  0  0  0  0  0  0
    4.9163    1.8313   16.9929 H   0  0  0  0  0  0  0  0  0  0  0  0
    4.8365    1.3057   19.0815 C   0  0  0  0  0  0  0  0  0  0  0  0
    3.9021    1.8250   19.2524 H   0  0  0  0  0  0  0  0  0  0  0  0
    5.5000    0.6389   20.1163 C   0  0  0  0  0  0  0  0  0  0  0  0
    5.0691    0.6226   21.1196 H   0  0  0  0  0  0  0  0  0  0  0  0
    7.0954   -1.9358   21.5207 C   0  0  0  0  0  0  0  0  0  0  0  0
    5.7785   -2.5790   21.1853 C   0  0  0  0  0  0  0  0  0  0  0  0
    5.0325   -1.7958   21.2839 H   0  0  0  0  0  0  0  0  0  0  0  0
    5.5416   -3.3409   21.9260 H   0  0  0  0  0  0  0  0  0  0  0  0
    5.6796   -3.1488   19.8415 C   0  0  0  0  0  0  0  0  0  0  0  0
    5.5243   -3.6162   18.7971 N   0  0  0  0  0  0  0  0  0  0  0  0
    7.8018   -2.5477   22.4683 N   0  0  0  0  0  0  0  0  0  0  0  0
  1  2  1  0
  2  3  2  0
  3  4  1  0
  4  5  1  0
  4  6  2  0
  6  7  1  0
  7  8  2  0
  8  9  1  0
  8 10  1  0
 10 11  2  0
 11 12  1  0
 11 13  1  0
 13 14  1  0
 13 15  2  0
 15 16  1  0
  6 17  1  0
 17 18  1  0
 18 19  1  0
 18 20  1  0
 18 21  1  0
 21 22  3  0
 17 23  2  0
 23  2  1  0
 15  7  1  0
M  END
>  <cnnaffinity>  (1) 
-4.61389

>  <filename>  (1) 
[H]c1nc([H])c(-c2c([H])nc([H])c([H])c2[H])c(C([H])([H])C#N)n1

$$$$
