
     RDKit          3D

 23 25  0  0  0  0  0  0  0  0999 V2000
    4.9200    1.7799   17.0003 H   0  0  0  0  0  0  0  0  0  0  0  0
    5.4061    1.2937   17.8418 C   0  0  0  0  0  0  0  0  0  0  0  0
    6.5727    0.6811   17.5788 N   0  0  0  0  0  0  0  0  0  0  0  0
    7.1700    0.0507   18.5922 C   0  0  0  0  0  0  0  0  0  0  0  0
    8.1194   -0.4370   18.3790 H   0  0  0  0  0  0  0  0  0  0  0  0
    6.6463    0.0047   19.8929 C   0  0  0  0  0  0  0  0  0  0  0  0
    7.3639   -0.7061   20.9525 C   0  0  0  0  0  0  0  0  0  0  0  0
    7.8345   -1.9681   20.7158 N   0  0  0  0  0  0  0  0  0  0  0  0
    8.3586   -2.5465   21.7167 N   0  0  0  0  0  0  0  0  0  0  0  0
    8.3393   -1.5464   23.0941 S   0  0  0  0  0  0  0  0  0  0  0  0
    7.5957   -0.2609   22.2470 C   0  0  0  0  0  0  0  0  0  0  0  0
    7.3285    1.0514   22.8248 C   0  0  0  0  0  0  0  0  0  0  0  0
    7.3660    2.2421   22.1439 C   0  0  0  0  0  0  0  0  0  0  0  0
    7.5710    2.3790   21.0923 H   0  0  0  0  0  0  0  0  0  0  0  0
    7.0594    3.5929   23.1511 S   0  0  0  0  0  0  0  0  0  0  0  0
    6.8794    2.5695   24.5215 C   0  0  0  0  0  0  0  0  0  0  0  0
    6.6665    2.9888   25.4935 H   0  0  0  0  0  0  0  0  0  0  0  0
    7.0446    1.2584   24.2169 C   0  0  0  0  0  0  0  0  0  0  0  0
    6.9760    0.4488   24.9417 H   0  0  0  0  0  0  0  0  0  0  0  0
    5.4262    0.6437   20.1540 C   0  0  0  0  0  0  0  0  0  0  0  0
    5.0019    0.6304   21.1622 H   0  0  0  0  0  0  0  0  0  0  0  0
    4.8011    1.3081   19.1030 C   0  0  0  0  0  0  0  0  0  0  0  0
    3.8726    1.8444   19.2574 H   0  0  0  0  0  0  0  0  0  0  0  0
  1  2  1  0
  2  3  2  0
  3  4  1  0
  4  5  1  0
  4  6  2  0
  6  7  1  0
  7  8  1  0
  8  9  2  0
  9 10  1  0
 10 11  1  0
 11 12  1  0
 12 13  2  0
 13 14  1  0
 13 15  1  0
 15 16  1  0
 16 17  1  0
 16 18  2  0
 18 19  1  0
  6 20  1  0
 20 21  1  0
 20 22  2  0
 22 23  1  0
 22  2  1  0
 11  7  2  0
 18 12  1  0
M  END
>  <cnnaffinity>  (1) 
-4.73293

>  <filename>  (1) 
[H]c1nc([H])c(-c2nnsc2-c2c([H])sc([H])c2[H])c([H])c1[H]

$$$$
