
     RDKit          3D

 30 32  0  0  0  0  0  0  0  0999 V2000
    6.9008    0.8656   22.7060 O   0  0  0  0  0  0  0  0  0  0  0  0
    7.2768   -0.2112   22.3032 C   0  0  0  0  0  0  0  0  0  0  0  0
    7.3429   -0.5933   20.9868 N   0  0  0  0  0  0  0  0  0  0  0  0
    6.6895    0.0484   19.9041 C   0  0  0  0  0  0  0  0  0  0  0  0
    5.4796    0.7082   20.1299 C   0  0  0  0  0  0  0  0  0  0  0  0
    4.8452    1.3179   19.0476 C   0  0  0  0  0  0  0  0  0  0  0  0
    5.4512    1.2675   17.7889 C   0  0  0  0  0  0  0  0  0  0  0  0
    6.6129    0.6311   17.5543 N   0  0  0  0  0  0  0  0  0  0  0  0
    7.2084    0.0256   18.5908 C   0  0  0  0  0  0  0  0  0  0  0  0
    8.1377   -0.5087   18.3827 H   0  0  0  0  0  0  0  0  0  0  0  0
    4.9881    1.7474   16.9324 H   0  0  0  0  0  0  0  0  0  0  0  0
    3.8976    1.8290   19.1815 H   0  0  0  0  0  0  0  0  0  0  0  0
    5.0647    0.7304   21.1345 H   0  0  0  0  0  0  0  0  0  0  0  0
    7.6756   -1.5328   20.8399 H   0  0  0  0  0  0  0  0  0  0  0  0
    7.8527   -1.2641   23.2559 C   0  0  0  0  0  0  0  0  0  0  0  0
    7.4075   -2.5337   22.9134 F   0  0  0  0  0  0  0  0  0  0  0  0
    9.3362   -1.1415   23.1290 C   0  0  0  0  0  0  0  0  0  0  0  0
    9.9822   -0.2340   23.7646 N   0  0  0  0  0  0  0  0  0  0  0  0
   11.3217   -0.2589   23.4118 C   0  0  0  0  0  0  0  0  0  0  0  0
   12.3099    0.5538   23.9916 C   0  0  0  0  0  0  0  0  0  0  0  0
   13.6257    0.3961   23.5788 C   0  0  0  0  0  0  0  0  0  0  0  0
   13.9543   -0.5591   22.5966 C   0  0  0  0  0  0  0  0  0  0  0  0
   12.9883   -1.3603   21.9942 C   0  0  0  0  0  0  0  0  0  0  0  0
   11.6603   -1.2078   22.4190 C   0  0  0  0  0  0  0  0  0  0  0  0
   10.2396   -2.1130   21.9967 S   0  0  0  0  0  0  0  0  0  0  0  0
   13.2698   -2.0923   21.2390 H   0  0  0  0  0  0  0  0  0  0  0  0
   14.9880   -0.6861   22.3230 H   0  0  0  0  0  0  0  0  0  0  0  0
   14.4028    1.0226   23.9984 H   0  0  0  0  0  0  0  0  0  0  0  0
   12.0244    1.2710   24.7538 H   0  0  0  0  0  0  0  0  0  0  0  0
    7.5469   -1.0084   24.2710 H   0  0  0  0  0  0  0  0  0  0  0  0
  1  2  2  0
  2  3  1  0
  3  4  1  0
  4  5  2  0
  5  6  1  0
  6  7  2  0
  7  8  1  0
  8  9  2  0
  9 10  1  0
  7 11  1  0
  6 12  1  0
  5 13  1  0
  3 14  1  0
  2 15  1  0
 15 16  1  0
 15 17  1  0
 17 18  2  0
 18 19  1  0
 19 20  2  0
 20 21  1  0
 21 22  2  0
 22 23  1  0
 23 24  2  0
 24 25  1  0
 23 26  1  0
 22 27  1  0
 21 28  1  0
 20 29  1  0
 15 30  1  0
  9  4  1  0
 25 17  1  0
 24 19  1  0
M  END
>  <cnnaffinity>  (1) 
-5.62955

>  <filename>  (1) 
[H]c1nc([H])c(N([H])C(=O)C([H])(F)c2nc3c([H])c([H])c([H])c([H])c3s2)c([H])c1[H]

$$$$
