
     RDKit          3D

 25 26  0  0  0  0  0  0  0  0999 V2000
    4.9204    1.8149   16.9686 H   0  0  0  0  0  0  0  0  0  0  0  0
    5.3858    1.3075   17.8132 C   0  0  0  0  0  0  0  0  0  0  0  0
    6.5460    0.6855   17.5548 N   0  0  0  0  0  0  0  0  0  0  0  0
    7.1559    0.0670   18.5743 C   0  0  0  0  0  0  0  0  0  0  0  0
    8.1011   -0.4193   18.3371 H   0  0  0  0  0  0  0  0  0  0  0  0
    6.6519    0.0076   19.8910 C   0  0  0  0  0  0  0  0  0  0  0  0
    7.3855   -0.6917   20.9809 C   0  0  0  0  0  0  0  0  0  0  0  0
    8.7969   -0.5560   21.1261 C   0  0  0  0  0  0  0  0  0  0  0  0
    9.3189    0.0911   20.4250 H   0  0  0  0  0  0  0  0  0  0  0  0
    9.4577   -1.1825   22.1393 C   0  0  0  0  0  0  0  0  0  0  0  0
   10.5269   -1.1443   22.2995 H   0  0  0  0  0  0  0  0  0  0  0  0
    8.7708   -2.0201   23.1131 C   0  0  0  0  0  0  0  0  0  0  0  0
    9.3493   -2.6313   23.9809 O   0  0  0  0  0  0  0  0  0  0  0  0
    7.3406   -2.1045   22.9451 N   0  0  0  0  0  0  0  0  0  0  0  0
    6.4191   -3.2387   23.8661 S   0  0  0  0  0  0  0  0  0  0  0  0
    6.5398   -4.7995   22.8675 C   0  0  0  0  0  0  0  0  0  0  0  0
    5.9718   -4.6728   21.6689 F   0  0  0  0  0  0  0  0  0  0  0  0
    5.9105   -5.7567   23.5435 F   0  0  0  0  0  0  0  0  0  0  0  0
    7.8103   -5.1414   22.6975 F   0  0  0  0  0  0  0  0  0  0  0  0
    6.7163   -1.4714   21.8840 C   0  0  0  0  0  0  0  0  0  0  0  0
    5.6556   -1.6639   21.7802 H   0  0  0  0  0  0  0  0  0  0  0  0
    5.4276    0.6546   20.1294 C   0  0  0  0  0  0  0  0  0  0  0  0
    5.0050    0.6551   21.1331 H   0  0  0  0  0  0  0  0  0  0  0  0
    4.7900    1.3211   19.0794 C   0  0  0  0  0  0  0  0  0  0  0  0
    3.8580    1.8576   19.2262 H   0  0  0  0  0  0  0  0  0  0  0  0
  1  2  1  0
  2  3  2  0
  3  4  1  0
  4  5  1  0
  4  6  2  0
  6  7  1  0
  7  8  1  0
  8  9  1  0
  8 10  2  0
 10 11  1  0
 10 12  1  0
 12 13  2  0
 12 14  1  0
 14 15  1  0
 15 16  1  0
 16 17  1  0
 16 18  1  0
 16 19  1  0
 14 20  1  0
 20 21  1  0
  6 22  1  0
 22 23  1  0
 22 24  2  0
 24 25  1  0
 24  2  1  0
 20  7  2  0
M  END
>  <cnnaffinity>  (1) 
-5.24065

>  <filename>  (1) 
[H]c1nc([H])c(-c2c([H])c([H])c(=O)n(SC(F)(F)F)c2[H])c([H])c1[H]

$$$$
