
     RDKit          3D

 33 35  0  0  0  0  0  0  0  0999 V2000
   12.9544    1.3315   22.3234 N   0  0  0  0  0  0  0  0  0  0  0  0
   11.9037    1.6918   22.6575 C   0  0  0  0  0  0  0  0  0  0  0  0
   10.5719    2.0900   23.0673 C   0  0  0  0  0  0  0  0  0  0  0  0
   10.4225    2.6464   24.3428 C   0  0  0  0  0  0  0  0  0  0  0  0
    9.1461    2.9430   24.7989 C   0  0  0  0  0  0  0  0  0  0  0  0
    8.9938    3.4402   26.0350 F   0  0  0  0  0  0  0  0  0  0  0  0
    8.0166    2.7423   24.0118 C   0  0  0  0  0  0  0  0  0  0  0  0
    8.1824    2.2230   22.7247 C   0  0  0  0  0  0  0  0  0  0  0  0
    9.4503    1.8803   22.2317 C   0  0  0  0  0  0  0  0  0  0  0  0
    9.6092    1.2645   20.8498 C   0  0  0  0  0  0  0  0  0  0  0  0
    9.6818   -0.1981   20.8712 N   0  0  0  0  0  0  0  0  0  0  0  0
   10.7712   -0.9995   21.1423 C   0  0  0  0  0  0  0  0  0  0  0  0
   10.4023   -2.1972   21.4787 N   0  0  0  0  0  0  0  0  0  0  0  0
    9.0226   -2.2219   21.4546 N   0  0  0  0  0  0  0  0  0  0  0  0
    8.6273   -1.0458   21.0688 C   0  0  0  0  0  0  0  0  0  0  0  0
    7.3094   -0.6525   20.9740 N   0  0  0  0  0  0  0  0  0  0  0  0
    6.6790   -0.0381   19.8597 C   0  0  0  0  0  0  0  0  0  0  0  0
    5.4657    0.6069   20.1165 C   0  0  0  0  0  0  0  0  0  0  0  0
    4.8185    1.2808   19.0776 C   0  0  0  0  0  0  0  0  0  0  0  0
    5.3957    1.2874   17.8037 C   0  0  0  0  0  0  0  0  0  0  0  0
    6.5425    0.6489   17.5206 N   0  0  0  0  0  0  0  0  0  0  0  0
    7.1667    0.0099   18.5263 C   0  0  0  0  0  0  0  0  0  0  0  0
    8.1038   -0.4807   18.2671 H   0  0  0  0  0  0  0  0  0  0  0  0
    4.9266    1.8349   16.9871 H   0  0  0  0  0  0  0  0  0  0  0  0
    3.8870    1.8038   19.2493 H   0  0  0  0  0  0  0  0  0  0  0  0
    5.0796    0.5877   21.1344 H   0  0  0  0  0  0  0  0  0  0  0  0
    6.7338   -1.2901   21.5021 H   0  0  0  0  0  0  0  0  0  0  0  0
   11.7941   -0.6528   21.0858 H   0  0  0  0  0  0  0  0  0  0  0  0
   10.5193    1.6456   20.3751 H   0  0  0  0  0  0  0  0  0  0  0  0
    8.7512    1.5459   20.2350 H   0  0  0  0  0  0  0  0  0  0  0  0
    7.3042    2.0627   22.0986 H   0  0  0  0  0  0  0  0  0  0  0  0
    7.0447    2.9990   24.4174 H   0  0  0  0  0  0  0  0  0  0  0  0
   11.2933    2.8228   24.9532 H   0  0  0  0  0  0  0  0  0  0  0  0
  1  2  3  0
  2  3  1  0
  3  4  2  0
  4  5  1  0
  5  6  1  0
  5  7  2  0
  7  8  1  0
  8  9  2  0
  9 10  1  0
 10 11  1  0
 11 12  1  0
 12 13  2  0
 13 14  1  0
 14 15  2  0
 15 16  1  0
 16 17  1  0
 17 18  2  0
 18 19  1  0
 19 20  2  0
 20 21  1  0
 21 22  2  0
 22 23  1  0
 20 24  1  0
 19 25  1  0
 18 26  1  0
 16 27  1  0
 12 28  1  0
 10 29  1  0
 10 30  1  0
  8 31  1  0
  7 32  1  0
  4 33  1  0
  9  3  1  0
 15 11  1  0
 22 17  1  0
M  END
>  <cnnaffinity>  (1) 
-5.65707

>  <filename>  (1) 
[H]c1nc([H])c(N([H])c2nnc([H])n2C([H])([H])c2c([H])c([H])c(F)c([H])c2C#N)c([H])c1[H]

$$$$
