
     RDKit          3D

 32 34  0  0  0  0  0  0  0  0999 V2000
    4.9621    1.8509   16.8948 H   0  0  0  0  0  0  0  0  0  0  0  0
    5.4249    1.3344   17.7304 C   0  0  0  0  0  0  0  0  0  0  0  0
    6.5710    0.6895   17.4582 N   0  0  0  0  0  0  0  0  0  0  0  0
    7.1724    0.0660   18.4806 C   0  0  0  0  0  0  0  0  0  0  0  0
    8.0974   -0.4525   18.2322 H   0  0  0  0  0  0  0  0  0  0  0  0
    6.6741    0.0308   19.8005 C   0  0  0  0  0  0  0  0  0  0  0  0
    7.3823   -0.6780   20.9039 C   0  0  0  0  0  0  0  0  0  0  0  0
    6.6658   -1.5518   21.7851 C   0  0  0  0  0  0  0  0  0  0  0  0
    5.5971   -1.6945   21.6503 H   0  0  0  0  0  0  0  0  0  0  0  0
    7.2890   -2.2481   22.7853 C   0  0  0  0  0  0  0  0  0  0  0  0
    6.4911   -3.0856   23.5397 O   0  0  0  0  0  0  0  0  0  0  0  0
    6.9957   -4.2206   24.1359 C   0  0  0  0  0  0  0  0  0  0  0  0
    8.0561   -4.9501   23.5874 C   0  0  0  0  0  0  0  0  0  0  0  0
    8.4558   -4.6925   22.6197 H   0  0  0  0  0  0  0  0  0  0  0  0
    8.6548   -5.9444   24.3580 C   0  0  0  0  0  0  0  0  0  0  0  0
    9.5795   -6.4235   24.0554 H   0  0  0  0  0  0  0  0  0  0  0  0
    8.1196   -6.2992   25.5952 C   0  0  0  0  0  0  0  0  0  0  0  0
    8.5764   -7.0860   26.1741 H   0  0  0  0  0  0  0  0  0  0  0  0
    6.9791   -5.6511   26.0685 C   0  0  0  0  0  0  0  0  0  0  0  0
    6.3299   -6.1067   27.6209 Cl  0  0  0  0  0  0  0  0  0  0  0  0
    6.3941   -4.6148   25.3388 C   0  0  0  0  0  0  0  0  0  0  0  0
    5.5114   -4.1088   25.7084 H   0  0  0  0  0  0  0  0  0  0  0  0
    8.7432   -2.0327   23.0441 C   0  0  0  0  0  0  0  0  0  0  0  0
    9.4689   -2.5348   23.8887 O   0  0  0  0  0  0  0  0  0  0  0  0
    9.3407   -1.1577   22.1427 N   0  0  0  0  0  0  0  0  0  0  0  0
   10.3263   -1.1048   22.3644 H   0  0  0  0  0  0  0  0  0  0  0  0
    8.7255   -0.5126   21.1007 C   0  0  0  0  0  0  0  0  0  0  0  0
    9.3462    0.1259   20.4774 H   0  0  0  0  0  0  0  0  0  0  0  0
    5.4579    0.6867   20.0441 C   0  0  0  0  0  0  0  0  0  0  0  0
    5.0327    0.6829   21.0496 H   0  0  0  0  0  0  0  0  0  0  0  0
    4.8281    1.3573   18.9965 C   0  0  0  0  0  0  0  0  0  0  0  0
    3.9007    1.8997   19.1496 H   0  0  0  0  0  0  0  0  0  0  0  0
  1  2  1  0
  2  3  2  0
  3  4  1  0
  4  5  1  0
  4  6  2  0
  6  7  1  0
  7  8  1  0
  8  9  1  0
  8 10  2  0
 10 11  1  0
 11 12  1  0
 12 13  2  0
 13 14  1  0
 13 15  1  0
 15 16  1  0
 15 17  2  0
 17 18  1  0
 17 19  1  0
 19 20  1  0
 19 21  2  0
 21 22  1  0
 10 23  1  0
 23 24  2  0
 23 25  1  0
 25 26  1  0
 25 27  1  0
 27 28  1  0
  6 29  1  0
 29 30  1  0
 29 31  2  0
 31 32  1  0
 31  2  1  0
 27  7  2  0
 21 12  1  0
M  END
>  <cnnaffinity>  (1) 
-5.19386

>  <filename>  (1) 
[H]c1nc([H])c(-c2c([H])c(Oc3c([H])c([H])c([H])c(Cl)c3[H])c(=O)n([H])c2[H])c([H])c1[H]

$$$$
