
     RDKit          3D

 31 33  0  0  0  0  0  0  0  0999 V2000
    4.9476    2.0189   16.8391 H   0  0  0  0  0  0  0  0  0  0  0  0
    5.4695    1.4698   17.6192 C   0  0  0  0  0  0  0  0  0  0  0  0
    6.6566    0.9446   17.2800 N   0  0  0  0  0  0  0  0  0  0  0  0
    7.3174    0.2373   18.2050 C   0  0  0  0  0  0  0  0  0  0  0  0
    8.2953   -0.1399   17.9096 H   0  0  0  0  0  0  0  0  0  0  0  0
    6.8076   -0.0242   19.4975 C   0  0  0  0  0  0  0  0  0  0  0  0
    7.4691   -0.8898   20.4140 N   0  0  0  0  0  0  0  0  0  0  0  0
    6.8062   -1.8369   21.1994 C   0  0  0  0  0  0  0  0  0  0  0  0
    5.7060   -2.2911   21.0636 O   0  0  0  0  0  0  0  0  0  0  0  0
    7.6750   -2.1603   22.2307 N   0  0  0  0  0  0  0  0  0  0  0  0
    7.3104   -2.9848   23.3126 C   0  0  0  0  0  0  0  0  0  0  0  0
    6.5836   -3.9238   23.1404 O   0  0  0  0  0  0  0  0  0  0  0  0
    7.9344   -2.6221   24.6627 C   0  0  0  0  0  0  0  0  0  0  0  0
    8.0967   -1.2939   25.1058 C   0  0  0  0  0  0  0  0  0  0  0  0
    7.7299   -0.4390   24.5422 H   0  0  0  0  0  0  0  0  0  0  0  0
    8.7630   -1.0520   26.3137 C   0  0  0  0  0  0  0  0  0  0  0  0
    8.9531   -0.0293   26.6316 H   0  0  0  0  0  0  0  0  0  0  0  0
    9.2105   -2.0196   27.1229 N   0  0  0  0  0  0  0  0  0  0  0  0
    9.0090   -3.2836   26.7335 C   0  0  0  0  0  0  0  0  0  0  0  0
    9.3644   -4.0635   27.4052 H   0  0  0  0  0  0  0  0  0  0  0  0
    8.3695   -3.6363   25.5406 C   0  0  0  0  0  0  0  0  0  0  0  0
    8.2291   -4.6883   25.3124 H   0  0  0  0  0  0  0  0  0  0  0  0
    8.9248   -1.6206   22.0479 C   0  0  0  0  0  0  0  0  0  0  0  0
    9.8774   -1.8653   22.7358 O   0  0  0  0  0  0  0  0  0  0  0  0
    8.8340   -0.6812   20.8755 C   0  0  0  0  0  0  0  0  0  0  0  0
    9.6062   -0.9293   20.1432 H   0  0  0  0  0  0  0  0  0  0  0  0
    9.0121    0.3388   21.2304 H   0  0  0  0  0  0  0  0  0  0  0  0
    5.6004    0.5929   19.8608 C   0  0  0  0  0  0  0  0  0  0  0  0
    5.2296    0.4817   20.8801 H   0  0  0  0  0  0  0  0  0  0  0  0
    4.9184    1.3418   18.8979 C   0  0  0  0  0  0  0  0  0  0  0  0
    3.9700    1.8131   19.1195 H   0  0  0  0  0  0  0  0  0  0  0  0
  1  2  1  0
  2  3  2  0
  3  4  1  0
  4  5  1  0
  4  6  2  0
  6  7  1  0
  7  8  1  0
  8  9  2  0
  8 10  1  0
 10 11  1  0
 11 12  2  0
 11 13  1  0
 13 14  2  0
 14 15  1  0
 14 16  1  0
 16 17  1  0
 16 18  2  0
 18 19  1  0
 19 20  1  0
 19 21  2  0
 21 22  1  0
 10 23  1  0
 23 24  2  0
 23 25  1  0
 25 26  1  0
 25 27  1  0
  6 28  1  0
 28 29  1  0
 28 30  2  0
 30 31  1  0
 30  2  1  0
 25  7  1  0
 21 13  1  0
M  END
>  <cnnaffinity>  (1) 
-5.52699

>  <filename>  (1) 
[H]c1nc([H])c(N2C(=O)N(C(=O)c3c([H])c([H])nc([H])c3[H])C(=O)C2([H])[H])c([H])c1[H]

$$$$
