
     RDKit          3D

 43 46  0  0  0  0  0  0  0  0999 V2000
    5.0729    1.8973   16.9492 H   0  0  0  0  0  0  0  0  0  0  0  0
    5.5377    1.3355   17.7573 C   0  0  0  0  0  0  0  0  0  0  0  0
    6.7111    0.7399   17.4746 N   0  0  0  0  0  0  0  0  0  0  0  0
    7.3044    0.0508   18.4553 C   0  0  0  0  0  0  0  0  0  0  0  0
    8.2719   -0.3911   18.2335 H   0  0  0  0  0  0  0  0  0  0  0  0
    6.7376   -0.1250   19.7363 C   0  0  0  0  0  0  0  0  0  0  0  0
    7.3916   -0.8693   20.7466 N   0  0  0  0  0  0  0  0  0  0  0  0
    6.8354   -1.8053   21.6339 C   0  0  0  0  0  0  0  0  0  0  0  0
    5.6797   -2.2078   21.5709 O   0  0  0  0  0  0  0  0  0  0  0  0
    7.9811   -2.1313   22.5559 C   0  0  0  0  0  0  0  0  0  0  0  0
    7.9696   -2.9610   23.6869 N   0  0  0  0  0  0  0  0  0  0  0  0
    6.8798   -3.9246   23.8856 C   0  0  0  0  0  0  0  0  0  0  0  0
    6.2810   -3.9654   22.9731 H   0  0  0  0  0  0  0  0  0  0  0  0
    7.3246   -4.9159   24.0508 H   0  0  0  0  0  0  0  0  0  0  0  0
    5.9738   -3.5773   25.0898 C   0  0  0  0  0  0  0  0  0  0  0  0
    5.3558   -2.6989   24.8319 H   0  0  0  0  0  0  0  0  0  0  0  0
    5.2816   -4.4200   25.2516 H   0  0  0  0  0  0  0  0  0  0  0  0
    6.7447   -3.3342   26.3128 N   0  0  0  0  0  0  0  0  0  0  0  0
    6.0414   -2.8160   27.4318 C   0  0  0  0  0  0  0  0  0  0  0  0
    6.1306   -1.4657   27.8116 C   0  0  0  0  0  0  0  0  0  0  0  0
    6.7236   -0.7923   27.2031 H   0  0  0  0  0  0  0  0  0  0  0  0
    5.4937   -1.0095   28.9702 C   0  0  0  0  0  0  0  0  0  0  0  0
    5.6213    0.0235   29.2916 H   0  0  0  0  0  0  0  0  0  0  0  0
    4.7464   -1.8953   29.7504 C   0  0  0  0  0  0  0  0  0  0  0  0
    4.2733   -1.5478   30.6648 H   0  0  0  0  0  0  0  0  0  0  0  0
    4.6175   -3.2328   29.3642 C   0  0  0  0  0  0  0  0  0  0  0  0
    4.0530   -3.9277   29.9827 H   0  0  0  0  0  0  0  0  0  0  0  0
    5.2572   -3.6854   28.2065 C   0  0  0  0  0  0  0  0  0  0  0  0
    5.2068   -4.7232   27.9020 H   0  0  0  0  0  0  0  0  0  0  0  0
    8.1999   -3.2302   26.1773 C   0  0  0  0  0  0  0  0  0  0  0  0
    8.6179   -2.7411   27.0620 H   0  0  0  0  0  0  0  0  0  0  0  0
    8.6286   -4.2479   26.1519 H   0  0  0  0  0  0  0  0  0  0  0  0
    8.6423   -2.4708   24.9053 C   0  0  0  0  0  0  0  0  0  0  0  0
    9.7303   -2.5772   24.7925 H   0  0  0  0  0  0  0  0  0  0  0  0
    8.4348   -1.3977   25.0489 H   0  0  0  0  0  0  0  0  0  0  0  0
    9.0401   -1.4123   22.1134 C   0  0  0  0  0  0  0  0  0  0  0  0
   10.0427   -1.3897   22.5151 H   0  0  0  0  0  0  0  0  0  0  0  0
    8.7686   -0.6719   20.9526 N   0  0  0  0  0  0  0  0  0  0  0  0
    8.9914    0.3251   21.0401 H   0  0  0  0  0  0  0  0  0  0  0  0
    5.5163    0.4982   20.0186 C   0  0  0  0  0  0  0  0  0  0  0  0
    5.0803    0.3889   21.0103 H   0  0  0  0  0  0  0  0  0  0  0  0
    4.9161    1.2544   19.0091 C   0  0  0  0  0  0  0  0  0  0  0  0
    3.9837    1.7826   19.1881 H   0  0  0  0  0  0  0  0  0  0  0  0
  1  2  1  0
  2  3  2  0
  3  4  1  0
  4  5  1  0
  4  6  2  0
  6  7  1  0
  7  8  1  0
  8  9  2  0
  8 10  1  0
 10 11  1  0
 11 12  1  0
 12 13  1  0
 12 14  1  0
 12 15  1  0
 15 16  1  0
 15 17  1  0
 15 18  1  0
 18 19  1  0
 19 20  2  0
 20 21  1  0
 20 22  1  0
 22 23  1  0
 22 24  2  0
 24 25  1  0
 24 26  1  0
 26 27  1  0
 26 28  2  0
 28 29  1  0
 18 30  1  0
 30 31  1  0
 30 32  1  0
 30 33  1  0
 33 34  1  0
 33 35  1  0
 10 36  2  0
 36 37  1  0
 36 38  1  0
 38 39  1  0
  6 40  1  0
 40 41  1  0
 40 42  2  0
 42 43  1  0
 42  2  1  0
 38  7  1  0
 33 11  1  0
 28 19  1  0
M  END
>  <cnnaffinity>  (1) 
-5.29344

>  <filename>  (1) 
[H]c1nc([H])c(-n2c(=O)c(N3C([H])([H])C([H])([H])N(c4c([H])c([H])c([H])c([H])c4[H])C([H])([H])C3([H])[H])c([H])n2[H])c([H])c1[H]

$$$$
