
     RDKit          3D

 31 32  0  0  0  0  0  0  0  0999 V2000
    6.6196    0.9824   23.7743 H   0  0  0  0  0  0  0  0  0  0  0  0
    6.8678    1.8843   23.2087 C   0  0  0  0  0  0  0  0  0  0  0  0
    7.8035    1.8763   22.2558 C   0  0  0  0  0  0  0  0  0  0  0  0
    8.1685    2.7346   21.6988 H   0  0  0  0  0  0  0  0  0  0  0  0
    8.6753    0.4311   21.7470 S   0  0  0  0  0  0  0  0  0  0  0  0
    9.1384   -0.2910   22.9286 O   0  0  0  0  0  0  0  0  0  0  0  0
    9.5862    0.8477   20.6860 O   0  0  0  0  0  0  0  0  0  0  0  0
    7.4289   -0.6346   20.9982 C   0  0  0  0  0  0  0  0  0  0  0  0
    6.8183   -0.9458   21.8502 H   0  0  0  0  0  0  0  0  0  0  0  0
    8.0483   -1.4845   20.6942 H   0  0  0  0  0  0  0  0  0  0  0  0
    6.6396   -0.0117   19.8701 C   0  0  0  0  0  0  0  0  0  0  0  0
    7.1366    0.0450   18.5520 C   0  0  0  0  0  0  0  0  0  0  0  0
    8.1021   -0.4110   18.3303 H   0  0  0  0  0  0  0  0  0  0  0  0
    6.5287    0.6695   17.5376 N   0  0  0  0  0  0  0  0  0  0  0  0
    5.3759    1.2998   17.8138 C   0  0  0  0  0  0  0  0  0  0  0  0
    4.9073    1.8156   16.9757 H   0  0  0  0  0  0  0  0  0  0  0  0
    4.7891    1.3119   19.0825 C   0  0  0  0  0  0  0  0  0  0  0  0
    3.8627    1.8550   19.2351 H   0  0  0  0  0  0  0  0  0  0  0  0
    5.4303    0.6417   20.1301 C   0  0  0  0  0  0  0  0  0  0  0  0
    5.0225    0.6369   21.1421 H   0  0  0  0  0  0  0  0  0  0  0  0
    6.1119    3.0756   23.6602 C   0  0  0  0  0  0  0  0  0  0  0  0
    5.4958    3.0380   24.9261 C   0  0  0  0  0  0  0  0  0  0  0  0
    5.5931    2.1402   25.5337 H   0  0  0  0  0  0  0  0  0  0  0  0
    4.7881    4.1355   25.4156 C   0  0  0  0  0  0  0  0  0  0  0  0
    4.3227    4.0887   26.3969 H   0  0  0  0  0  0  0  0  0  0  0  0
    4.6760    5.2962   24.6396 C   0  0  0  0  0  0  0  0  0  0  0  0
    4.1204    6.1530   25.0118 H   0  0  0  0  0  0  0  0  0  0  0  0
    5.2782    5.3445   23.3778 C   0  0  0  0  0  0  0  0  0  0  0  0
    5.1935    6.2376   22.7638 H   0  0  0  0  0  0  0  0  0  0  0  0
    5.9921    4.2479   22.8899 C   0  0  0  0  0  0  0  0  0  0  0  0
    6.4455    4.2977   21.9004 H   0  0  0  0  0  0  0  0  0  0  0  0
  1  2  1  0
  2  3  2  3
  3  4  1  0
  3  5  1  0
  5  6  2  0
  5  7  2  0
  5  8  1  0
  8  9  1  0
  8 10  1  0
  8 11  1  0
 11 12  2  0
 12 13  1  0
 12 14  1  0
 14 15  2  0
 15 16  1  0
 15 17  1  0
 17 18  1  0
 17 19  2  0
 19 20  1  0
  2 21  1  0
 21 22  2  0
 22 23  1  0
 22 24  1  0
 24 25  1  0
 24 26  2  0
 26 27  1  0
 26 28  1  0
 28 29  1  0
 28 30  2  0
 30 31  1  0
 19 11  1  0
 30 21  1  0
M  END
>  <cnnaffinity>  (1) 
-4.30237

>  <filename>  (1) 
[H]C(=C([H])S(=O)(=O)C([H])([H])c1c([H])nc([H])c([H])c1[H])c1c([H])c([H])c([H])c([H])c1[H]

$$$$
