
     RDKit          3D

 28 29  0  0  0  0  0  0  0  0999 V2000
    7.8329   -1.6543   20.7179 H   0  0  0  0  0  0  0  0  0  0  0  0
    7.4003   -0.6702   20.8989 C   0  0  0  0  0  0  0  0  0  0  0  0
    7.5927   -0.0629   22.1287 C   0  0  0  0  0  0  0  0  0  0  0  0
    6.9128    1.6967   22.4664 Br  0  0  0  0  0  0  0  0  0  0  0  0
    8.3078   -0.7726   23.2444 C   0  0  0  0  0  0  0  0  0  0  0  0
    8.0508   -0.3216   24.2075 H   0  0  0  0  0  0  0  0  0  0  0  0
    7.9376   -1.8058   23.2694 H   0  0  0  0  0  0  0  0  0  0  0  0
    9.8037   -0.7843   23.0161 C   0  0  0  0  0  0  0  0  0  0  0  0
   10.3813   -2.0315   22.7948 C   0  0  0  0  0  0  0  0  0  0  0  0
    9.7727   -2.9301   22.8517 H   0  0  0  0  0  0  0  0  0  0  0  0
   11.7342   -2.1392   22.5025 C   0  0  0  0  0  0  0  0  0  0  0  0
   12.1850   -3.1099   22.4127 H   0  0  0  0  0  0  0  0  0  0  0  0
   12.5473   -1.0117   22.4342 C   0  0  0  0  0  0  0  0  0  0  0  0
   14.2504   -1.2396   22.1294 Cl  0  0  0  0  0  0  0  0  0  0  0  0
   11.9944    0.2525   22.6716 C   0  0  0  0  0  0  0  0  0  0  0  0
   13.0057    1.6754   22.6443 Cl  0  0  0  0  0  0  0  0  0  0  0  0
   10.6188    0.3713   22.9556 C   0  0  0  0  0  0  0  0  0  0  0  0
   10.1989    1.3609   23.1109 H   0  0  0  0  0  0  0  0  0  0  0  0
    6.6604   -0.0071   19.8147 C   0  0  0  0  0  0  0  0  0  0  0  0
    7.1198   -0.0476   18.4860 C   0  0  0  0  0  0  0  0  0  0  0  0
    8.0241   -0.6111   18.2743 H   0  0  0  0  0  0  0  0  0  0  0  0
    6.5175    0.6026   17.4722 N   0  0  0  0  0  0  0  0  0  0  0  0
    5.4146    1.3202   17.7576 C   0  0  0  0  0  0  0  0  0  0  0  0
    4.9377    1.8798   16.9604 H   0  0  0  0  0  0  0  0  0  0  0  0
    4.8683    1.3774   19.0434 C   0  0  0  0  0  0  0  0  0  0  0  0
    3.9717    1.9629   19.2113 H   0  0  0  0  0  0  0  0  0  0  0  0
    5.4915    0.7078   20.0942 C   0  0  0  0  0  0  0  0  0  0  0  0
    5.0827    0.7408   21.1041 H   0  0  0  0  0  0  0  0  0  0  0  0
  1  2  1  0
  2  3  2  3
  3  4  1  0
  3  5  1  0
  5  6  1  0
  5  7  1  0
  5  8  1  0
  8  9  2  0
  9 10  1  0
  9 11  1  0
 11 12  1  0
 11 13  2  0
 13 14  1  0
 13 15  1  0
 15 16  1  0
 15 17  2  0
 17 18  1  0
  2 19  1  0
 19 20  2  0
 20 21  1  0
 20 22  1  0
 22 23  2  0
 23 24  1  0
 23 25  1  0
 25 26  1  0
 25 27  2  0
 27 28  1  0
 17  8  1  0
 27 19  1  0
M  END
>  <cnnaffinity>  (1) 
-5.43837

>  <filename>  (1) 
[H]C(=C(Br)C([H])([H])c1c([H])c([H])c(Cl)c(Cl)c1[H])c1c([H])nc([H])c([H])c1[H]

$$$$
