
     RDKit          3D

 30 33  0  0  0  0  0  0  0  0999 V2000
    4.9065    1.7724   17.0055 H   0  0  0  0  0  0  0  0  0  0  0  0
    5.4012    1.2918   17.8468 C   0  0  0  0  0  0  0  0  0  0  0  0
    6.5723    0.6817   17.5945 N   0  0  0  0  0  0  0  0  0  0  0  0
    7.1847    0.0537   18.6014 C   0  0  0  0  0  0  0  0  0  0  0  0
    8.1327   -0.4412   18.3846 H   0  0  0  0  0  0  0  0  0  0  0  0
    6.6582    0.0027   19.9027 C   0  0  0  0  0  0  0  0  0  0  0  0
    7.3483   -0.6994   20.9325 N   0  0  0  0  0  0  0  0  0  0  0  0
    7.7898   -1.9567   20.7464 N   0  0  0  0  0  0  0  0  0  0  0  0
    8.2817   -2.3793   21.8675 N   0  0  0  0  0  0  0  0  0  0  0  0
    8.1657   -1.4029   22.7990 C   0  0  0  0  0  0  0  0  0  0  0  0
    8.5128   -1.4849   23.8181 H   0  0  0  0  0  0  0  0  0  0  0  0
    7.5753   -0.3081   22.2245 C   0  0  0  0  0  0  0  0  0  0  0  0
    7.3428    1.0201   22.7647 C   0  0  0  0  0  0  0  0  0  0  0  0
    7.0993    1.1978   24.4866 S   0  0  0  0  0  0  0  0  0  0  0  0
    6.9969    2.9285   24.3268 C   0  0  0  0  0  0  0  0  0  0  0  0
    6.7884    3.8761   25.3409 C   0  0  0  0  0  0  0  0  0  0  0  0
    6.6630    3.5513   26.3714 H   0  0  0  0  0  0  0  0  0  0  0  0
    6.7506    5.2215   24.9869 C   0  0  0  0  0  0  0  0  0  0  0  0
    6.5895    5.9716   25.7527 H   0  0  0  0  0  0  0  0  0  0  0  0
    6.9202    5.6227   23.6423 C   0  0  0  0  0  0  0  0  0  0  0  0
    6.8885    6.6733   23.3836 H   0  0  0  0  0  0  0  0  0  0  0  0
    7.1279    4.6865   22.6434 C   0  0  0  0  0  0  0  0  0  0  0  0
    7.2630    4.9666   21.6013 H   0  0  0  0  0  0  0  0  0  0  0  0
    7.1678    3.3245   22.9828 C   0  0  0  0  0  0  0  0  0  0  0  0
    7.3799    2.2110   22.1222 C   0  0  0  0  0  0  0  0  0  0  0  0
    7.5557    2.3315   21.0613 H   0  0  0  0  0  0  0  0  0  0  0  0
    5.4404    0.6421   20.1604 C   0  0  0  0  0  0  0  0  0  0  0  0
    5.0107    0.6293   21.1603 H   0  0  0  0  0  0  0  0  0  0  0  0
    4.8063    1.3090   19.1107 C   0  0  0  0  0  0  0  0  0  0  0  0
    3.8730    1.8445   19.2681 H   0  0  0  0  0  0  0  0  0  0  0  0
  1  2  1  0
  2  3  2  0
  3  4  1  0
  4  5  1  0
  4  6  2  0
  6  7  1  0
  7  8  1  0
  8  9  2  0
  9 10  1  0
 10 11  1  0
 10 12  2  0
 12 13  1  0
 13 14  1  0
 14 15  1  0
 15 16  2  0
 16 17  1  0
 16 18  1  0
 18 19  1  0
 18 20  2  0
 20 21  1  0
 20 22  1  0
 22 23  1  0
 22 24  2  0
 24 25  1  0
 25 26  1  0
  6 27  1  0
 27 28  1  0
 27 29  2  0
 29 30  1  0
 29  2  1  0
 12  7  1  0
 25 13  2  0
 24 15  1  0
M  END
>  <cnnaffinity>  (1) 
-5.19272

>  <filename>  (1) 
[H]c1nc([H])c(-n2nnc([H])c2-c2sc3c([H])c([H])c([H])c([H])c3c2[H])c([H])c1[H]

$$$$
