
     RDKit          3D

 32 34  0  0  0  0  0  0  0  0999 V2000
    4.9723    1.7960   16.9689 H   0  0  0  0  0  0  0  0  0  0  0  0
    5.4426    1.3127   17.8256 C   0  0  0  0  0  0  0  0  0  0  0  0
    6.6208    0.7161   17.5963 N   0  0  0  0  0  0  0  0  0  0  0  0
    7.2081    0.1041   18.6288 C   0  0  0  0  0  0  0  0  0  0  0  0
    8.1612   -0.3785   18.4255 H   0  0  0  0  0  0  0  0  0  0  0  0
    6.6594    0.0506   19.9185 C   0  0  0  0  0  0  0  0  0  0  0  0
    7.2980   -0.8329   20.9668 C   0  0  0  0  0  0  0  0  0  0  0  0
    8.6009   -1.0830   20.6467 F   0  0  0  0  0  0  0  0  0  0  0  0
    7.3279   -0.1640   22.1716 F   0  0  0  0  0  0  0  0  0  0  0  0
    6.5963   -2.2441   21.1490 C   0  0  0  0  0  0  0  0  0  0  0  0
    6.2369   -2.8753   20.1725 O   0  0  0  0  0  0  0  0  0  0  0  0
    6.4855   -2.7134   22.4328 N   0  0  0  0  0  0  0  0  0  0  0  0
    6.7971   -2.1123   23.1771 H   0  0  0  0  0  0  0  0  0  0  0  0
    5.6796   -3.8242   22.7798 C   0  0  0  0  0  0  0  0  0  0  0  0
    4.5146   -4.0711   22.0628 C   0  0  0  0  0  0  0  0  0  0  0  0
    4.2777   -3.3957   21.2598 H   0  0  0  0  0  0  0  0  0  0  0  0
    3.6818   -5.1634   22.3765 C   0  0  0  0  0  0  0  0  0  0  0  0
    2.7650   -5.3051   21.8089 H   0  0  0  0  0  0  0  0  0  0  0  0
    4.0122   -6.0454   23.3961 C   0  0  0  0  0  0  0  0  0  0  0  0
    3.4111   -6.9269   23.6030 H   0  0  0  0  0  0  0  0  0  0  0  0
    5.1668   -5.7605   24.1467 C   0  0  0  0  0  0  0  0  0  0  0  0
    6.0227   -4.6605   23.8710 C   0  0  0  0  0  0  0  0  0  0  0  0
    7.0736   -4.7301   24.8555 C   0  0  0  0  0  0  0  0  0  0  0  0
    7.9281   -4.0809   24.9693 H   0  0  0  0  0  0  0  0  0  0  0  0
    6.8240   -5.8060   25.6595 C   0  0  0  0  0  0  0  0  0  0  0  0
    7.3722   -6.1925   26.5124 H   0  0  0  0  0  0  0  0  0  0  0  0
    5.6706   -6.4209   25.2333 N   0  0  0  0  0  0  0  0  0  0  0  0
    5.2538   -7.2486   25.6210 H   0  0  0  0  0  0  0  0  0  0  0  0
    5.4464    0.7103   20.1600 C   0  0  0  0  0  0  0  0  0  0  0  0
    5.0093    0.7524   21.1604 H   0  0  0  0  0  0  0  0  0  0  0  0
    4.8231    1.3374   19.0803 C   0  0  0  0  0  0  0  0  0  0  0  0
    3.8708    1.8405   19.1923 H   0  0  0  0  0  0  0  0  0  0  0  0
  1  2  1  0
  2  3  2  0
  3  4  1  0
  4  5  1  0
  4  6  2  0
  6  7  1  0
  7  8  1  0
  7  9  1  0
  7 10  1  0
 10 11  2  0
 10 12  1  0
 12 13  1  0
 12 14  1  0
 14 15  2  0
 15 16  1  0
 15 17  1  0
 17 18  1  0
 17 19  2  0
 19 20  1  0
 19 21  1  0
 21 22  2  0
 22 23  1  0
 23 24  1  0
 23 25  2  0
 25 26  1  0
 25 27  1  0
 27 28  1  0
  6 29  1  0
 29 30  1  0
 29 31  2  0
 31 32  1  0
 31  2  1  0
 22 14  1  0
 27 21  1  0
M  END
>  <cnnaffinity>  (1) 
-5.00637

>  <filename>  (1) 
[H]c1nc([H])c(C(F)(F)C(=O)N([H])c2c([H])c([H])c([H])c3c2c([H])c([H])n3[H])c([H])c1[H]

$$$$
