
     RDKit          3D

 39 42  0  0  0  0  0  0  0  0999 V2000
    9.1208    6.5782   28.4300 C   0  0  0  0  0  0  0  0  0  0  0  0
    8.9180    5.7856   27.1863 C   0  0  0  0  0  0  0  0  0  0  0  0
    9.8986    5.3035   26.5065 N   0  0  0  0  0  0  0  0  0  0  0  0
    9.3962    4.5003   25.5007 C   0  0  0  0  0  0  0  0  0  0  0  0
    8.0219    4.4126   25.3892 C   0  0  0  0  0  0  0  0  0  0  0  0
    7.7164    3.5138   24.4137 N   0  0  0  0  0  0  0  0  0  0  0  0
    8.9034    3.0024   23.8950 C   0  0  0  0  0  0  0  0  0  0  0  0
    8.8545    1.9460   22.8886 C   0  0  0  0  0  0  0  0  0  0  0  0
    7.8081    1.1800   22.6030 N   0  0  0  0  0  0  0  0  0  0  0  0
    8.2850    0.3521   21.6434 C   0  0  0  0  0  0  0  0  0  0  0  0
    7.4446   -0.6629   20.9174 C   0  0  0  0  0  0  0  0  0  0  0  0
    6.6521   -0.0552   19.7645 C   0  0  0  0  0  0  0  0  0  0  0  0
    5.4517    0.6109   20.0399 C   0  0  0  0  0  0  0  0  0  0  0  0
    4.8094    1.3066   19.0144 C   0  0  0  0  0  0  0  0  0  0  0  0
    5.3947    1.3047   17.7444 C   0  0  0  0  0  0  0  0  0  0  0  0
    6.5203    0.6377   17.4452 N   0  0  0  0  0  0  0  0  0  0  0  0
    7.1187   -0.0309   18.4395 C   0  0  0  0  0  0  0  0  0  0  0  0
    8.0309   -0.5690   18.1769 H   0  0  0  0  0  0  0  0  0  0  0  0
    4.9396    1.8559   16.9246 H   0  0  0  0  0  0  0  0  0  0  0  0
    3.8891    1.8550   19.1882 H   0  0  0  0  0  0  0  0  0  0  0  0
    5.0539    0.5914   21.0568 H   0  0  0  0  0  0  0  0  0  0  0  0
    6.7494   -1.1018   21.6403 H   0  0  0  0  0  0  0  0  0  0  0  0
    8.1108   -1.4586   20.5696 H   0  0  0  0  0  0  0  0  0  0  0  0
    9.5458    0.5579   21.3147 N   0  0  0  0  0  0  0  0  0  0  0  0
    9.9230    1.5756   22.1209 N   0  0  0  0  0  0  0  0  0  0  0  0
   11.3111    2.0052   22.0103 C   0  0  0  0  0  0  0  0  0  0  0  0
   12.3040    1.1316   22.7822 C   0  0  0  0  0  0  0  0  0  0  0  0
   12.3846   -0.1170   22.3096 F   0  0  0  0  0  0  0  0  0  0  0  0
   12.0111    1.0624   24.0935 F   0  0  0  0  0  0  0  0  0  0  0  0
   13.5272    1.6840   22.6822 F   0  0  0  0  0  0  0  0  0  0  0  0
   11.4307    3.0414   22.3260 H   0  0  0  0  0  0  0  0  0  0  0  0
   11.5865    1.9324   20.9549 H   0  0  0  0  0  0  0  0  0  0  0  0
    9.9579    3.6096   24.5594 C   0  0  0  0  0  0  0  0  0  0  0  0
   11.0165    3.4139   24.4846 H   0  0  0  0  0  0  0  0  0  0  0  0
    6.7862    3.2053   24.1587 H   0  0  0  0  0  0  0  0  0  0  0  0
    7.2831    5.3921   26.6167 S   0  0  0  0  0  0  0  0  0  0  0  0
    8.8149    5.9849   29.2986 H   0  0  0  0  0  0  0  0  0  0  0  0
    8.5473    7.5093   28.4165 H   0  0  0  0  0  0  0  0  0  0  0  0
   10.1902    6.7746   28.5072 H   0  0  0  0  0  0  0  0  0  0  0  0
  1  2  1  0
  2  3  2  0
  3  4  1  0
  4  5  2  0
  5  6  1  0
  6  7  1  0
  7  8  1  0
  8  9  2  0
  9 10  1  0
 10 11  1  0
 11 12  1  0
 12 13  2  0
 13 14  1  0
 14 15  2  0
 15 16  1  0
 16 17  2  0
 17 18  1  0
 15 19  1  0
 14 20  1  0
 13 21  1  0
 11 22  1  0
 11 23  1  0
 10 24  2  0
 24 25  1  0
 25 26  1  0
 26 27  1  0
 27 28  1  0
 27 29  1  0
 27 30  1  0
 26 31  1  0
 26 32  1  0
  7 33  2  0
 33 34  1  0
  6 35  1  0
  5 36  1  0
  1 37  1  0
  1 38  1  0
  1 39  1  0
 36  2  1  0
 33  4  1  0
 25  8  1  0
 17 12  1  0
M  END
>  <cnnaffinity>  (1) 
-5.92613

>  <filename>  (1) 
[H]c1nc([H])c(C([H])([H])c2nc(-c3c([H])c4nc(C([H])([H])[H])sc4n3[H])n(C([H])([H])C(F)(F)F)n2)c([H])c1[H]

$$$$
