
     RDKit          3D

 39 41  0  0  0  0  0  0  0  0999 V2000
    4.9468    1.8046   16.9894 H   0  0  0  0  0  0  0  0  0  0  0  0
    5.4232    1.3012   17.8276 C   0  0  0  0  0  0  0  0  0  0  0  0
    6.5838    0.6817   17.5733 N   0  0  0  0  0  0  0  0  0  0  0  0
    7.1912    0.0596   18.5979 C   0  0  0  0  0  0  0  0  0  0  0  0
    8.1418   -0.4057   18.3320 H   0  0  0  0  0  0  0  0  0  0  0  0
    6.6887   -0.0010   19.9184 C   0  0  0  0  0  0  0  0  0  0  0  0
    7.3503   -0.7684   21.1111 C   0  0  0  0  0  0  0  0  0  0  0  0
    6.5108   -2.0462   21.4221 C   0  0  0  0  0  0  0  0  0  0  0  0
    6.1161   -2.2964   22.6774 N   0  0  0  0  0  0  0  0  0  0  0  0
    5.2715   -3.3129   22.9097 C   0  0  0  0  0  0  0  0  0  0  0  0
    4.6154   -3.3461   24.2617 C   0  0  0  0  0  0  0  0  0  0  0  0
    4.7944   -4.2813   24.8004 H   0  0  0  0  0  0  0  0  0  0  0  0
    4.9707   -2.5094   24.8639 H   0  0  0  0  0  0  0  0  0  0  0  0
    3.5348   -3.2302   24.1367 H   0  0  0  0  0  0  0  0  0  0  0  0
    4.9703   -4.2618   21.9260 C   0  0  0  0  0  0  0  0  0  0  0  0
    4.2652   -5.0569   22.1477 H   0  0  0  0  0  0  0  0  0  0  0  0
    5.5334   -4.1156   20.6607 C   0  0  0  0  0  0  0  0  0  0  0  0
    5.3691   -4.8696   19.8924 H   0  0  0  0  0  0  0  0  0  0  0  0
    6.2274   -2.9451   20.3780 C   0  0  0  0  0  0  0  0  0  0  0  0
    6.5037   -2.6823   19.3588 H   0  0  0  0  0  0  0  0  0  0  0  0
    7.4885    0.1640   22.3664 C   0  0  0  0  0  0  0  0  0  0  0  0
    6.5110    0.5640   22.6562 H   0  0  0  0  0  0  0  0  0  0  0  0
    7.8039   -0.4582   23.2136 H   0  0  0  0  0  0  0  0  0  0  0  0
    8.4982    1.3008   22.1666 C   0  0  0  0  0  0  0  0  0  0  0  0
    8.5263    1.9487   23.0522 H   0  0  0  0  0  0  0  0  0  0  0  0
    8.1634    1.9304   21.3296 H   0  0  0  0  0  0  0  0  0  0  0  0
    9.8919    0.7401   21.8652 C   0  0  0  0  0  0  0  0  0  0  0  0
   10.6116    1.5476   21.6914 H   0  0  0  0  0  0  0  0  0  0  0  0
   10.2636    0.1852   22.7391 H   0  0  0  0  0  0  0  0  0  0  0  0
    9.8430   -0.1812   20.6475 C   0  0  0  0  0  0  0  0  0  0  0  0
   10.8242   -0.6403   20.4789 H   0  0  0  0  0  0  0  0  0  0  0  0
    9.6078    0.4290   19.7663 H   0  0  0  0  0  0  0  0  0  0  0  0
    8.7880   -1.2772   20.7824 C   0  0  0  0  0  0  0  0  0  0  0  0
    8.7616   -1.8714   19.8730 H   0  0  0  0  0  0  0  0  0  0  0  0
    9.0873   -1.9724   21.5776 H   0  0  0  0  0  0  0  0  0  0  0  0
    5.4569    0.6391   20.1360 C   0  0  0  0  0  0  0  0  0  0  0  0
    4.9974    0.6265   21.1248 H   0  0  0  0  0  0  0  0  0  0  0  0
    4.8173    1.3052   19.0870 C   0  0  0  0  0  0  0  0  0  0  0  0
    3.8842    1.8394   19.2389 H   0  0  0  0  0  0  0  0  0  0  0  0
  1  2  1  0
  2  3  2  0
  3  4  1  0
  4  5  1  0
  4  6  2  0
  6  7  1  0
  7  8  1  0
  8  9  2  0
  9 10  1  0
 10 11  1  0
 11 12  1  0
 11 13  1  0
 11 14  1  0
 10 15  2  0
 15 16  1  0
 15 17  1  0
 17 18  1  0
 17 19  2  0
 19 20  1  0
  7 21  1  0
 21 22  1  0
 21 23  1  0
 21 24  1  0
 24 25  1  0
 24 26  1  0
 24 27  1  0
 27 28  1  0
 27 29  1  0
 27 30  1  0
 30 31  1  0
 30 32  1  0
 30 33  1  0
 33 34  1  0
 33 35  1  0
  6 36  1  0
 36 37  1  0
 36 38  2  0
 38 39  1  0
 38  2  1  0
 33  7  1  0
 19  8  1  0
M  END
>  <cnnaffinity>  (1) 
-5.6761

>  <filename>  (1) 
[H]c1nc([H])c(C2(c3nc(C([H])([H])[H])c([H])c([H])c3[H])C([H])([H])C([H])([H])C([H])([H])C([H])([H])C2([H])[H])c([H])c1[H]

$$$$
