
     RDKit          3D

 30 32  0  0  0  0  0  0  0  0999 V2000
    8.5022   -3.6066   22.2087 C   0  0  0  0  0  0  0  0  0  0  0  0
    8.0330   -2.2268   21.9053 C   0  0  0  0  0  0  0  0  0  0  0  0
    7.8649   -1.7971   20.6858 N   0  0  0  0  0  0  0  0  0  0  0  0
    7.3924   -0.5531   20.8938 N   0  0  0  0  0  0  0  0  0  0  0  0
    6.7093    0.1173   19.8855 C   0  0  0  0  0  0  0  0  0  0  0  0
    5.5432    0.8336   20.1478 C   0  0  0  0  0  0  0  0  0  0  0  0
    4.8923    1.4243   19.0661 C   0  0  0  0  0  0  0  0  0  0  0  0
    5.4359    1.3211   17.7787 C   0  0  0  0  0  0  0  0  0  0  0  0
    6.5515    0.6153   17.5229 N   0  0  0  0  0  0  0  0  0  0  0  0
    7.1525    0.0039   18.5591 C   0  0  0  0  0  0  0  0  0  0  0  0
    8.0384   -0.5893   18.3704 H   0  0  0  0  0  0  0  0  0  0  0  0
    4.9203    1.7818   16.9430 H   0  0  0  0  0  0  0  0  0  0  0  0
    3.9592    1.9538   19.2108 H   0  0  0  0  0  0  0  0  0  0  0  0
    5.1396    0.8995   21.1580 H   0  0  0  0  0  0  0  0  0  0  0  0
    7.3994   -0.2483   22.2566 C   0  0  0  0  0  0  0  0  0  0  0  0
    7.1126    1.0717   22.8655 C   0  0  0  0  0  0  0  0  0  0  0  0
    6.6899    1.1905   24.2083 C   0  0  0  0  0  0  0  0  0  0  0  0
    6.4430    2.4423   24.7899 C   0  0  0  0  0  0  0  0  0  0  0  0
    5.6852    2.5759   26.9084 I   0  0  0  0  0  0  0  0  0  0  0  0
    6.6583    3.5990   24.0354 C   0  0  0  0  0  0  0  0  0  0  0  0
    7.0980    3.5061   22.7106 C   0  0  0  0  0  0  0  0  0  0  0  0
    7.3129    2.2516   22.1210 C   0  0  0  0  0  0  0  0  0  0  0  0
    7.6627    2.2124   21.0906 H   0  0  0  0  0  0  0  0  0  0  0  0
    7.2725    4.4139   22.1386 H   0  0  0  0  0  0  0  0  0  0  0  0
    6.4759    4.5752   24.4793 H   0  0  0  0  0  0  0  0  0  0  0  0
    6.5423    0.3101   24.8255 H   0  0  0  0  0  0  0  0  0  0  0  0
    7.7628   -1.3174   22.9122 N   0  0  0  0  0  0  0  0  0  0  0  0
    8.5072   -4.2046   21.2956 H   0  0  0  0  0  0  0  0  0  0  0  0
    7.8318   -4.0815   22.9307 H   0  0  0  0  0  0  0  0  0  0  0  0
    9.5104   -3.5662   22.6335 H   0  0  0  0  0  0  0  0  0  0  0  0
  1  2  1  0
  2  3  2  0
  3  4  1  0
  4  5  1  0
  5  6  2  0
  6  7  1  0
  7  8  2  0
  8  9  1  0
  9 10  2  0
 10 11  1  0
  8 12  1  0
  7 13  1  0
  6 14  1  0
  4 15  1  0
 15 16  1  0
 16 17  2  0
 17 18  1  0
 18 19  1  0
 18 20  2  0
 20 21  1  0
 21 22  2  0
 22 23  1  0
 21 24  1  0
 20 25  1  0
 17 26  1  0
 15 27  2  0
  1 28  1  0
  1 29  1  0
  1 30  1  0
 27  2  1  0
 10  5  1  0
 22 16  1  0
M  END
>  <cnnaffinity>  (1) 
-5.23221

>  <filename>  (1) 
[H]c1nc([H])c(-n2nc(C([H])([H])[H])nc2-c2c([H])c([H])c([H])c(I)c2[H])c([H])c1[H]

$$$$
