
     RDKit          3D

 45 48  0  0  0  0  0  0  0  0999 V2000
   12.6081    0.3424   22.8352 C   0  0  0  0  0  0  0  0  0  0  0  0
   11.5547   -0.4637   22.9397 C   0  0  0  0  0  0  0  0  0  0  0  0
   11.3100   -1.6146   21.9997 C   0  0  0  0  0  0  0  0  0  0  0  0
    9.9953   -2.3640   22.1564 C   0  0  0  0  0  0  0  0  0  0  0  0
    8.8077   -1.5297   22.0531 N   0  0  0  0  0  0  0  0  0  0  0  0
    8.4919   -1.0554   20.8322 N   0  0  0  0  0  0  0  0  0  0  0  0
    7.3095   -0.4972   21.0220 C   0  0  0  0  0  0  0  0  0  0  0  0
    6.5647    0.1149   19.9224 C   0  0  0  0  0  0  0  0  0  0  0  0
    5.3245    0.7542   20.0758 C   0  0  0  0  0  0  0  0  0  0  0  0
    4.7630    1.3655   18.9574 C   0  0  0  0  0  0  0  0  0  0  0  0
    5.4442    1.2990   17.7344 C   0  0  0  0  0  0  0  0  0  0  0  0
    6.5998    0.6386   17.5669 N   0  0  0  0  0  0  0  0  0  0  0  0
    7.1391    0.0579   18.6408 C   0  0  0  0  0  0  0  0  0  0  0  0
    8.0663   -0.4885   18.4747 H   0  0  0  0  0  0  0  0  0  0  0  0
    5.0392    1.7957   16.8562 H   0  0  0  0  0  0  0  0  0  0  0  0
    3.8220    1.9030   19.0194 H   0  0  0  0  0  0  0  0  0  0  0  0
    4.8180    0.7603   21.0453 H   0  0  0  0  0  0  0  0  0  0  0  0
    6.8591   -0.5752   22.2968 N   0  0  0  0  0  0  0  0  0  0  0  0
    7.8011   -1.2470   22.9217 C   0  0  0  0  0  0  0  0  0  0  0  0
    7.8683   -1.6865   24.3566 C   0  0  0  0  0  0  0  0  0  0  0  0
    6.6043   -1.4387   25.1810 C   0  0  0  0  0  0  0  0  0  0  0  0
    6.6873   -1.8106   26.6912 C   0  0  0  0  0  0  0  0  0  0  0  0
    5.4140   -2.6072   26.8975 C   0  0  0  0  0  0  0  0  0  0  0  0
    4.7824   -3.1695   28.0127 C   0  0  0  0  0  0  0  0  0  0  0  0
    3.5635   -3.8509   27.8351 C   0  0  0  0  0  0  0  0  0  0  0  0
    2.9725   -3.9507   26.5673 C   0  0  0  0  0  0  0  0  0  0  0  0
    3.6088   -3.4088   25.4433 C   0  0  0  0  0  0  0  0  0  0  0  0
    4.8261   -2.7702   25.6442 C   0  0  0  0  0  0  0  0  0  0  0  0
    5.5692   -2.2655   24.6281 O   0  0  0  0  0  0  0  0  0  0  0  0
    3.2043   -3.4525   24.4395 H   0  0  0  0  0  0  0  0  0  0  0  0
    2.0100   -4.4473   26.4494 H   0  0  0  0  0  0  0  0  0  0  0  0
    3.0721   -4.3054   28.6921 H   0  0  0  0  0  0  0  0  0  0  0  0
    5.2114   -3.0865   29.0104 H   0  0  0  0  0  0  0  0  0  0  0  0
    7.5757   -2.4060   26.9311 H   0  0  0  0  0  0  0  0  0  0  0  0
    6.7361   -0.9143   27.3177 H   0  0  0  0  0  0  0  0  0  0  0  0
    6.2651   -0.3997   25.0936 H   0  0  0  0  0  0  0  0  0  0  0  0
    8.7360   -1.1994   24.8193 H   0  0  0  0  0  0  0  0  0  0  0  0
    8.0477   -2.7694   24.3734 H   0  0  0  0  0  0  0  0  0  0  0  0
    9.9014   -3.0557   21.3271 H   0  0  0  0  0  0  0  0  0  0  0  0
    9.9612   -2.9257   23.0917 H   0  0  0  0  0  0  0  0  0  0  0  0
   11.3523   -1.2542   20.9648 H   0  0  0  0  0  0  0  0  0  0  0  0
   12.1158   -2.3568   22.0986 H   0  0  0  0  0  0  0  0  0  0  0  0
   10.8452   -0.2720   23.7499 H   0  0  0  0  0  0  0  0  0  0  0  0
   12.7744    1.1659   23.5190 H   0  0  0  0  0  0  0  0  0  0  0  0
   13.3620    0.2231   22.0608 H   0  0  0  0  0  0  0  0  0  0  0  0
  1  2  2  3
  2  3  1  0
  3  4  1  0
  4  5  1  0
  5  6  1  0
  6  7  2  0
  7  8  1  0
  8  9  2  0
  9 10  1  0
 10 11  2  0
 11 12  1  0
 12 13  2  0
 13 14  1  0
 11 15  1  0
 10 16  1  0
  9 17  1  0
  7 18  1  0
 18 19  2  0
 19 20  1  0
 20 21  1  0
 21 22  1  0
 22 23  1  0
 23 24  2  0
 24 25  1  0
 25 26  2  0
 26 27  1  0
 27 28  2  0
 28 29  1  0
 27 30  1  0
 26 31  1  0
 25 32  1  0
 24 33  1  0
 22 34  1  0
 22 35  1  0
 21 36  1  0
 20 37  1  0
 20 38  1  0
  4 39  1  0
  4 40  1  0
  3 41  1  0
  3 42  1  0
  2 43  1  0
  1 44  1  0
  1 45  1  0
 19  5  1  0
 29 21  1  0
 13  8  1  0
 28 23  1  0
M  END
>  <cnnaffinity>  (1) 
-5.92226

>  <filename>  (1) 
[H]C([H])=C([H])C([H])([H])C([H])([H])n1nc(-c2c([H])nc([H])c([H])c2[H])nc1C([H])([H])C1([H])Oc2c([H])c([H])c([H])c([H])c2C1([H])[H]

$$$$
