
     RDKit          3D

 30 31  0  0  0  0  0  0  0  0999 V2000
    5.6842   -1.7585   21.5931 H   0  0  0  0  0  0  0  0  0  0  0  0
    6.7530   -1.5916   21.7563 C   0  0  0  0  0  0  0  0  0  0  0  0
    7.4030   -0.7090   20.9725 C   0  0  0  0  0  0  0  0  0  0  0  0
    6.6501   -0.0038   19.9082 C   0  0  0  0  0  0  0  0  0  0  0  0
    7.1653    0.0698   18.5987 C   0  0  0  0  0  0  0  0  0  0  0  0
    8.1124   -0.4201   18.3781 H   0  0  0  0  0  0  0  0  0  0  0  0
    6.5621    0.6783   17.5715 N   0  0  0  0  0  0  0  0  0  0  0  0
    5.3981    1.2956   17.8337 C   0  0  0  0  0  0  0  0  0  0  0  0
    4.9152    1.7846   16.9910 H   0  0  0  0  0  0  0  0  0  0  0  0
    4.8026    1.3141   19.1010 C   0  0  0  0  0  0  0  0  0  0  0  0
    3.8715    1.8464   19.2530 H   0  0  0  0  0  0  0  0  0  0  0  0
    5.4233    0.6419   20.1521 C   0  0  0  0  0  0  0  0  0  0  0  0
    5.0069    0.6396   21.1607 H   0  0  0  0  0  0  0  0  0  0  0  0
    8.8776   -0.4391   21.1459 C   0  0  0  0  0  0  0  0  0  0  0  0
    9.1983    0.3846   20.4989 H   0  0  0  0  0  0  0  0  0  0  0  0
    9.4755   -1.3311   20.9042 H   0  0  0  0  0  0  0  0  0  0  0  0
    9.1037   -0.1568   22.1870 H   0  0  0  0  0  0  0  0  0  0  0  0
    7.3130   -2.3449   22.7429 N   0  0  0  0  0  0  0  0  0  0  0  0
    8.3008   -2.2256   22.9120 H   0  0  0  0  0  0  0  0  0  0  0  0
    6.5596   -3.2603   23.5765 C   0  0  0  0  0  0  0  0  0  0  0  0
    6.0688   -4.0127   22.9446 H   0  0  0  0  0  0  0  0  0  0  0  0
    5.7505   -2.7119   24.0842 H   0  0  0  0  0  0  0  0  0  0  0  0
    7.4468   -3.9009   24.6159 C   0  0  0  0  0  0  0  0  0  0  0  0
    8.2751   -5.3912   24.3263 S   0  0  0  0  0  0  0  0  0  0  0  0
    9.0141   -5.3468   25.8796 C   0  0  0  0  0  0  0  0  0  0  0  0
    9.6896   -6.1350   26.1833 H   0  0  0  0  0  0  0  0  0  0  0  0
    8.6376   -4.2501   26.5910 C   0  0  0  0  0  0  0  0  0  0  0  0
    8.9962   -4.0244   27.5902 H   0  0  0  0  0  0  0  0  0  0  0  0
    7.7288   -3.4247   25.8614 C   0  0  0  0  0  0  0  0  0  0  0  0
    7.3203   -2.4950   26.2463 H   0  0  0  0  0  0  0  0  0  0  0  0
  1  2  1  0
  2  3  2  3
  3  4  1  0
  4  5  2  0
  5  6  1  0
  5  7  1  0
  7  8  2  0
  8  9  1  0
  8 10  1  0
 10 11  1  0
 10 12  2  0
 12 13  1  0
  3 14  1  0
 14 15  1  0
 14 16  1  0
 14 17  1  0
  2 18  1  0
 18 19  1  0
 18 20  1  0
 20 21  1  0
 20 22  1  0
 20 23  1  0
 23 24  1  0
 24 25  1  0
 25 26  1  0
 25 27  2  0
 27 28  1  0
 27 29  1  0
 29 30  1  0
 12  4  1  0
 29 23  2  0
M  END
>  <cnnaffinity>  (1) 
-4.55482

>  <filename>  (1) 
[H]C(=C(c1c([H])nc([H])c([H])c1[H])C([H])([H])[H])N([H])C([H])([H])c1sc([H])c([H])c1[H]

$$$$
