
     RDKit          3D

 33 35  0  0  0  0  0  0  0  0999 V2000
    4.9210    1.8033   16.9692 H   0  0  0  0  0  0  0  0  0  0  0  0
    5.3946    1.3044   17.8158 C   0  0  0  0  0  0  0  0  0  0  0  0
    6.5592    0.6842   17.5651 N   0  0  0  0  0  0  0  0  0  0  0  0
    7.1723    0.0682   18.5829 C   0  0  0  0  0  0  0  0  0  0  0  0
    8.1077   -0.4237   18.3246 H   0  0  0  0  0  0  0  0  0  0  0  0
    6.6675    0.0141   19.8944 C   0  0  0  0  0  0  0  0  0  0  0  0
    7.3398   -0.7073   20.9797 C   0  0  0  0  0  0  0  0  0  0  0  0
    6.8226   -1.2384   22.1041 C   0  0  0  0  0  0  0  0  0  0  0  0
    5.8050   -1.3134   22.4148 H   0  0  0  0  0  0  0  0  0  0  0  0
    7.8428   -1.8018   22.8533 N   0  0  0  0  0  0  0  0  0  0  0  0
    7.6540   -2.4569   24.1101 C   0  0  0  0  0  0  0  0  0  0  0  0
    6.8483   -1.8630   25.0897 C   0  0  0  0  0  0  0  0  0  0  0  0
    6.3745   -0.9102   24.8756 H   0  0  0  0  0  0  0  0  0  0  0  0
    6.6803   -2.4987   26.3250 C   0  0  0  0  0  0  0  0  0  0  0  0
    6.0596   -2.0396   27.0912 H   0  0  0  0  0  0  0  0  0  0  0  0
    7.3026   -3.7225   26.5686 C   0  0  0  0  0  0  0  0  0  0  0  0
    7.2043   -4.2542   27.5075 H   0  0  0  0  0  0  0  0  0  0  0  0
    8.0845   -4.2971   25.5679 C   0  0  0  0  0  0  0  0  0  0  0  0
    8.6443   -5.5100   25.9289 O   0  0  0  0  0  0  0  0  0  0  0  0
    9.4676   -6.1759   25.0994 C   0  0  0  0  0  0  0  0  0  0  0  0
   10.5762   -5.4861   24.7891 F   0  0  0  0  0  0  0  0  0  0  0  0
    8.8804   -6.5031   23.9335 F   0  0  0  0  0  0  0  0  0  0  0  0
    9.8180   -7.2849   25.7306 F   0  0  0  0  0  0  0  0  0  0  0  0
    8.2732   -3.6867   24.3323 C   0  0  0  0  0  0  0  0  0  0  0  0
    8.8936   -4.1248   23.5618 H   0  0  0  0  0  0  0  0  0  0  0  0
    9.0360   -1.6178   22.1951 C   0  0  0  0  0  0  0  0  0  0  0  0
   10.5980   -1.9958   22.6127 S   0  0  0  0  0  0  0  0  0  0  0  0
    8.6967   -0.9780   21.0433 N   0  0  0  0  0  0  0  0  0  0  0  0
    9.4391   -0.6744   20.4401 H   0  0  0  0  0  0  0  0  0  0  0  0
    5.4426    0.6650   20.1313 C   0  0  0  0  0  0  0  0  0  0  0  0
    5.0090    0.6638   21.1311 H   0  0  0  0  0  0  0  0  0  0  0  0
    4.8006    1.3208   19.0820 C   0  0  0  0  0  0  0  0  0  0  0  0
    3.8651    1.8516   19.2279 H   0  0  0  0  0  0  0  0  0  0  0  0
  1  2  1  0
  2  3  2  0
  3  4  1  0
  4  5  1  0
  4  6  2  0
  6  7  1  0
  7  8  2  0
  8  9  1  0
  8 10  1  0
 10 11  1  0
 11 12  2  0
 12 13  1  0
 12 14  1  0
 14 15  1  0
 14 16  2  0
 16 17  1  0
 16 18  1  0
 18 19  1  0
 19 20  1  0
 20 21  1  0
 20 22  1  0
 20 23  1  0
 18 24  2  0
 24 25  1  0
 10 26  1  0
 26 27  2  0
 26 28  1  0
 28 29  1  0
  6 30  1  0
 30 31  1  0
 30 32  2  0
 32 33  1  0
 32  2  1  0
 28  7  1  0
 24 11  1  0
M  END
>  <cnnaffinity>  (1) 
-5.86825

>  <filename>  (1) 
[H]c1nc([H])c(-c2c([H])n(-c3c([H])c([H])c([H])c(OC(F)(F)F)c3[H])c(=S)n2[H])c([H])c1[H]

$$$$
