
     RDKit          3D

 38 40  0  0  0  0  0  0  0  0999 V2000
    4.9517    1.8181   16.9783 H   0  0  0  0  0  0  0  0  0  0  0  0
    5.4310    1.3106   17.8145 C   0  0  0  0  0  0  0  0  0  0  0  0
    6.5929    0.6931   17.5508 N   0  0  0  0  0  0  0  0  0  0  0  0
    7.1931    0.0606   18.5676 C   0  0  0  0  0  0  0  0  0  0  0  0
    8.1406   -0.4226   18.3255 H   0  0  0  0  0  0  0  0  0  0  0  0
    6.6858   -0.0075   19.8823 C   0  0  0  0  0  0  0  0  0  0  0  0
    7.4129   -0.7536   20.9921 C   0  0  2  0  0  0  0  0  0  0  0  0
    8.3126   -1.1994   20.5594 H   0  0  0  0  0  0  0  0  0  0  0  0
    6.5834   -1.8851   21.6610 C   0  0  0  0  0  0  0  0  0  0  0  0
    5.5595   -1.9464   21.2628 H   0  0  0  0  0  0  0  0  0  0  0  0
    7.0607   -2.8569   21.4864 H   0  0  0  0  0  0  0  0  0  0  0  0
    6.5734   -1.5524   23.0701 N   0  0  0  0  0  0  0  0  0  0  0  0
    6.0191   -2.0022   23.7784 H   0  0  0  0  0  0  0  0  0  0  0  0
    7.2103   -0.4196   23.4372 C   0  0  0  0  0  0  0  0  0  0  0  0
    7.1867    0.0584   24.5533 O   0  0  0  0  0  0  0  0  0  0  0  0
    7.8939    0.1520   22.1535 C   0  0  1  0  0  0  0  0  0  0  0  0
    7.4962    1.1684   22.0683 H   0  0  0  0  0  0  0  0  0  0  0  0
    9.3620    0.3082   22.1599 N   0  0  0  0  0  0  0  0  0  0  0  0
    9.7340    1.2435   22.0838 H   0  0  0  0  0  0  0  0  0  0  0  0
   10.2893   -0.6131   22.4970 C   0  0  0  0  0  0  0  0  0  0  0  0
   10.0946   -2.2639   22.4617 S   0  0  0  0  0  0  0  0  0  0  0  0
   11.4867   -0.0868   22.8866 N   0  0  0  0  0  0  0  0  0  0  0  0
   12.1130   -0.8300   23.1563 H   0  0  0  0  0  0  0  0  0  0  0  0
   11.7319    1.2275   23.3668 C   0  0  0  0  0  0  0  0  0  0  0  0
   10.7447    1.9474   24.0630 C   0  0  0  0  0  0  0  0  0  0  0  0
    9.8361    1.4527   24.3995 H   0  0  0  0  0  0  0  0  0  0  0  0
   10.9277    3.3114   24.2895 C   0  0  0  0  0  0  0  0  0  0  0  0
   10.1224    3.8762   24.7487 H   0  0  0  0  0  0  0  0  0  0  0  0
   12.1165    3.9418   23.9161 C   0  0  0  0  0  0  0  0  0  0  0  0
   12.2283    5.0106   24.0638 H   0  0  0  0  0  0  0  0  0  0  0  0
   13.1572    3.1816   23.3609 C   0  0  0  0  0  0  0  0  0  0  0  0
   14.1097    3.6436   23.1074 H   0  0  0  0  0  0  0  0  0  0  0  0
   12.9733    1.8197   23.1111 C   0  0  0  0  0  0  0  0  0  0  0  0
   13.7657    1.2215   22.6707 H   0  0  0  0  0  0  0  0  0  0  0  0
    5.4741    0.6522   20.1287 C   0  0  0  0  0  0  0  0  0  0  0  0
    5.0414    0.6516   21.1314 H   0  0  0  0  0  0  0  0  0  0  0  0
    4.8356    1.3153   19.0795 C   0  0  0  0  0  0  0  0  0  0  0  0
    3.8978    1.8360   19.2321 H   0  0  0  0  0  0  0  0  0  0  0  0
  1  2  1  0
  2  3  2  0
  3  4  1  0
  4  5  1  0
  4  6  2  0
  6  7  1  0
  7  8  1  6
  7  9  1  0
  9 10  1  0
  9 11  1  0
  9 12  1  0
 12 13  1  0
 12 14  1  0
 14 15  2  0
 14 16  1  0
 16 17  1  6
 16 18  1  0
 18 19  1  0
 18 20  1  0
 20 21  2  0
 20 22  1  0
 22 23  1  0
 22 24  1  0
 24 25  2  0
 25 26  1  0
 25 27  1  0
 27 28  1  0
 27 29  2  0
 29 30  1  0
 29 31  1  0
 31 32  1  0
 31 33  2  0
 33 34  1  0
  6 35  1  0
 35 36  1  0
 35 37  2  0
 37 38  1  0
 37  2  1  0
 16  7  1  0
 33 24  1  0
M  END
>  <cnnaffinity>  (1) 
-5.28396

>  <filename>  (1) 
[H]c1nc([H])c([C@]2([H])C([H])([H])N([H])C(=O)[C@@]2([H])N([H])C(=S)N([H])c2c([H])c([H])c([H])c([H])c2[H])c([H])c1[H]

$$$$
