
     RDKit          3D

 41 44  0  0  0  0  0  0  0  0999 V2000
    4.9997    1.7392   17.0027 H   0  0  0  0  0  0  0  0  0  0  0  0
    5.4277    1.2693   17.8835 C   0  0  0  0  0  0  0  0  0  0  0  0
    6.6030    0.6525   17.6914 N   0  0  0  0  0  0  0  0  0  0  0  0
    7.1745    0.0961   18.7594 C   0  0  0  0  0  0  0  0  0  0  0  0
    8.1266   -0.3953   18.5619 H   0  0  0  0  0  0  0  0  0  0  0  0
    6.6282    0.1191   20.0517 C   0  0  0  0  0  0  0  0  0  0  0  0
    7.3715   -0.5435   21.1445 C   0  0  0  0  0  0  0  0  0  0  0  0
    7.2067   -0.0673   22.3746 N   0  0  0  0  0  0  0  0  0  0  0  0
    7.8582   -0.7014   23.3645 C   0  0  0  0  0  0  0  0  0  0  0  0
    7.7768   -0.1501   24.6048 N   0  0  0  0  0  0  0  0  0  0  0  0
    8.3896   -0.7235   25.7932 C   0  0  0  0  0  0  0  0  0  0  0  0
    9.4853   -0.7085   25.7286 H   0  0  0  0  0  0  0  0  0  0  0  0
    8.1047   -1.7773   25.9143 H   0  0  0  0  0  0  0  0  0  0  0  0
    7.8706    0.1354   26.9594 C   0  0  0  0  0  0  0  0  0  0  0  0
    7.1396   -0.4504   27.5247 H   0  0  0  0  0  0  0  0  0  0  0  0
    8.6796    0.4125   27.6426 H   0  0  0  0  0  0  0  0  0  0  0  0
    7.2051    1.3834   26.3311 C   0  0  2  0  0  0  0  0  0  0  0  0
    7.8801    2.2414   26.3953 H   0  0  0  0  0  0  0  0  0  0  0  0
    5.8096    1.7518   26.8797 C   0  0  0  0  0  0  0  0  0  0  0  0
    5.6999    1.4933   27.9427 H   0  0  0  0  0  0  0  0  0  0  0  0
    5.6332    2.8408   26.7852 H   0  0  0  0  0  0  0  0  0  0  0  0
    4.8572    0.9837   26.0822 N   0  0  0  0  0  0  0  0  0  0  0  0
    3.4773    1.4194   26.1027 C   0  0  0  0  0  0  0  0  0  0  0  0
    2.8598    0.7351   25.5074 H   0  0  0  0  0  0  0  0  0  0  0  0
    3.3237    2.4413   25.7007 H   0  0  0  0  0  0  0  0  0  0  0  0
    3.0852    1.3979   27.1248 H   0  0  0  0  0  0  0  0  0  0  0  0
    5.4222    0.8239   24.7453 C   0  0  0  0  0  0  0  0  0  0  0  0
    5.2180   -0.1665   24.3467 H   0  0  0  0  0  0  0  0  0  0  0  0
    5.0215    1.5517   24.0179 H   0  0  0  0  0  0  0  0  0  0  0  0
    6.9530    1.0240   24.8595 C   0  0  2  0  0  0  0  0  0  0  0  0
    7.2501    1.8181   24.1670 H   0  0  0  0  0  0  0  0  0  0  0  0
    8.6168   -1.8798   23.1747 C   0  0  0  0  0  0  0  0  0  0  0  0
    9.0775   -2.3543   24.0267 H   0  0  0  0  0  0  0  0  0  0  0  0
    8.7697   -2.3654   21.8922 C   0  0  0  0  0  0  0  0  0  0  0  0
    9.3352   -3.2760   21.7019 H   0  0  0  0  0  0  0  0  0  0  0  0
    8.1765   -1.6481   20.8618 C   0  0  0  0  0  0  0  0  0  0  0  0
    8.3207   -1.9159   19.8374 H   0  0  0  0  0  0  0  0  0  0  0  0
    5.3827    0.7437   20.2283 C   0  0  0  0  0  0  0  0  0  0  0  0
    4.8954    0.7539   21.2071 H   0  0  0  0  0  0  0  0  0  0  0  0
    4.7751    1.3281   19.1197 C   0  0  0  0  0  0  0  0  0  0  0  0
    3.8217    1.8404   19.2000 H   0  0  0  0  0  0  0  0  0  0  0  0
  1  2  1  0
  2  3  2  0
  3  4  1  0
  4  5  1  0
  4  6  2  0
  6  7  1  0
  7  8  2  0
  8  9  1  0
  9 10  1  0
 10 11  1  0
 11 12  1  0
 11 13  1  0
 11 14  1  0
 14 15  1  0
 14 16  1  0
 14 17  1  0
 17 18  1  6
 17 19  1  0
 19 20  1  0
 19 21  1  0
 19 22  1  0
 22 23  1  0
 23 24  1  0
 23 25  1  0
 23 26  1  0
 22 27  1  0
 27 28  1  0
 27 29  1  0
 27 30  1  0
 30 31  1  6
  9 32  2  0
 32 33  1  0
 32 34  1  0
 34 35  1  0
 34 36  2  0
 36 37  1  0
  6 38  1  0
 38 39  1  0
 38 40  2  0
 40 41  1  0
 40  2  1  0
 36  7  1  0
 30 10  1  0
 30 17  1  0
M  END
>  <cnnaffinity>  (1) 
-4.96253

>  <filename>  (1) 
[H]c1nc([H])c(-c2nc(N3C([H])([H])C([H])([H])[C@]4([H])C([H])([H])N(C([H])([H])[H])C([H])([H])[C@]34[H])c([H])c([H])c2[H])c([H])c1[H]

$$$$
