
     RDKit          3D

 33 34  0  0  0  0  0  0  0  0999 V2000
    4.9134    1.8413   16.9589 H   0  0  0  0  0  0  0  0  0  0  0  0
    5.3835    1.3243   17.7933 C   0  0  0  0  0  0  0  0  0  0  0  0
    6.5369    0.6947   17.5233 N   0  0  0  0  0  0  0  0  0  0  0  0
    7.1503    0.0724   18.5395 C   0  0  0  0  0  0  0  0  0  0  0  0
    8.0855   -0.4242   18.2826 H   0  0  0  0  0  0  0  0  0  0  0  0
    6.6596    0.0168   19.8622 C   0  0  0  0  0  0  0  0  0  0  0  0
    7.3832   -0.7159   20.9573 C   0  0  0  0  0  0  0  0  0  0  0  0
    8.7799   -0.6280   21.1832 C   0  0  0  0  0  0  0  0  0  0  0  0
    9.4354   -0.0043   20.5816 H   0  0  0  0  0  0  0  0  0  0  0  0
    9.4110   -1.2851   22.1613 N   0  0  0  0  0  0  0  0  0  0  0  0
    8.7204   -2.0774   22.9926 N   0  0  0  0  0  0  0  0  0  0  0  0
    7.3944   -2.2056   22.8599 C   0  0  0  0  0  0  0  0  0  0  0  0
    6.7238   -3.1207   23.8477 C   0  0  0  0  0  0  0  0  0  0  0  0
    5.6757   -2.8312   23.9722 H   0  0  0  0  0  0  0  0  0  0  0  0
    7.2173   -3.0048   24.8170 H   0  0  0  0  0  0  0  0  0  0  0  0
    6.8139   -4.5843   23.4032 C   0  0  0  0  0  0  0  0  0  0  0  0
    7.8720   -4.8517   23.2981 H   0  0  0  0  0  0  0  0  0  0  0  0
    6.4174   -5.2533   24.1971 H   0  0  0  0  0  0  0  0  0  0  0  0
    6.1406   -4.7797   22.1232 N   0  0  0  0  0  0  0  0  0  0  0  0
    6.6531   -5.8873   21.3286 C   0  0  0  0  0  0  0  0  0  0  0  0
    7.7224   -5.7538   21.1382 H   0  0  0  0  0  0  0  0  0  0  0  0
    6.4961   -6.8796   21.7945 H   0  0  0  0  0  0  0  0  0  0  0  0
    6.1487   -5.8779   20.3532 H   0  0  0  0  0  0  0  0  0  0  0  0
    4.6994   -4.8868   22.2717 C   0  0  0  0  0  0  0  0  0  0  0  0
    4.3969   -5.6570   23.0045 H   0  0  0  0  0  0  0  0  0  0  0  0
    4.2373   -3.9327   22.5453 H   0  0  0  0  0  0  0  0  0  0  0  0
    4.2550   -5.1862   21.3250 H   0  0  0  0  0  0  0  0  0  0  0  0
    6.6892   -1.5424   21.8392 C   0  0  0  0  0  0  0  0  0  0  0  0
    5.6227   -1.7112   21.7356 H   0  0  0  0  0  0  0  0  0  0  0  0
    5.4361    0.6689   20.1032 C   0  0  0  0  0  0  0  0  0  0  0  0
    5.0109    0.6701   21.1079 H   0  0  0  0  0  0  0  0  0  0  0  0
    4.7898    1.3359   19.0583 C   0  0  0  0  0  0  0  0  0  0  0  0
    3.8503    1.8670   19.2086 H   0  0  0  0  0  0  0  0  0  0  0  0
  1  2  1  0
  2  3  2  0
  3  4  1  0
  4  5  1  0
  4  6  2  0
  6  7  1  0
  7  8  2  0
  8  9  1  0
  8 10  1  0
 10 11  2  0
 11 12  1  0
 12 13  1  0
 13 14  1  0
 13 15  1  0
 13 16  1  0
 16 17  1  0
 16 18  1  0
 16 19  1  0
 19 20  1  0
 20 21  1  0
 20 22  1  0
 20 23  1  0
 19 24  1  0
 24 25  1  0
 24 26  1  0
 24 27  1  0
 12 28  2  0
 28 29  1  0
  6 30  1  0
 30 31  1  0
 30 32  2  0
 32 33  1  0
 32  2  1  0
 28  7  1  0
M  END
>  <cnnaffinity>  (1) 
-4.75583

>  <filename>  (1) 
[H]c1nc([H])c(-c2c([H])nnc(C([H])([H])C([H])([H])N(C([H])([H])[H])C([H])([H])[H])c2[H])c([H])c1[H]

$$$$
