
     RDKit          3D

 34 36  0  0  0  0  0  0  0  0999 V2000
    7.4560    1.0999   23.9482 H   0  0  0  0  0  0  0  0  0  0  0  0
    7.5059    0.9653   22.8617 C   0  0  0  0  0  0  0  0  0  0  0  0
    7.5868   -0.2786   22.3490 C   0  0  0  0  0  0  0  0  0  0  0  0
    7.3616   -0.7250   20.9691 C   0  0  0  0  0  0  0  0  0  0  0  0
    6.6343    0.0278   19.9126 C   0  0  0  0  0  0  0  0  0  0  0  0
    7.1583    0.0448   18.6132 C   0  0  0  0  0  0  0  0  0  0  0  0
    8.0983   -0.4571   18.3893 H   0  0  0  0  0  0  0  0  0  0  0  0
    6.5744    0.6767   17.5893 N   0  0  0  0  0  0  0  0  0  0  0  0
    5.4087    1.2982   17.8256 C   0  0  0  0  0  0  0  0  0  0  0  0
    4.9560    1.7986   16.9730 H   0  0  0  0  0  0  0  0  0  0  0  0
    4.7886    1.3161   19.0791 C   0  0  0  0  0  0  0  0  0  0  0  0
    3.8494    1.8417   19.2047 H   0  0  0  0  0  0  0  0  0  0  0  0
    5.4055    0.6623   20.1430 C   0  0  0  0  0  0  0  0  0  0  0  0
    4.9507    0.6603   21.1355 H   0  0  0  0  0  0  0  0  0  0  0  0
    7.7519   -1.9301   20.7420 N   0  0  0  0  0  0  0  0  0  0  0  0
    8.2333   -2.5312   21.9908 C   0  0  0  0  0  0  0  0  0  0  0  0
    7.7287   -3.4915   22.1480 H   0  0  0  0  0  0  0  0  0  0  0  0
    9.3061   -2.7367   21.8886 H   0  0  0  0  0  0  0  0  0  0  0  0
    7.9528   -1.5175   23.1376 C   0  0  0  0  0  0  0  0  0  0  0  0
    8.8136   -1.3619   23.8016 H   0  0  0  0  0  0  0  0  0  0  0  0
    7.1213   -1.8466   23.7775 H   0  0  0  0  0  0  0  0  0  0  0  0
    7.4974    2.1210   22.1374 N   0  0  0  0  0  0  0  0  0  0  0  0
    7.4704    1.9960   21.1271 H   0  0  0  0  0  0  0  0  0  0  0  0
    6.8614    3.3201   22.6701 C   0  0  0  0  0  0  0  0  0  0  0  0
    7.2764    3.5356   23.6669 H   0  0  0  0  0  0  0  0  0  0  0  0
    7.1592    4.1450   22.0142 H   0  0  0  0  0  0  0  0  0  0  0  0
    5.3392    3.2848   22.7600 C   0  0  0  0  0  0  0  0  0  0  0  0
    4.4970    2.6508   24.1353 S   0  0  0  0  0  0  0  0  0  0  0  0
    2.9595    2.8881   23.3956 C   0  0  0  0  0  0  0  0  0  0  0  0
    2.0648    2.5958   23.9351 H   0  0  0  0  0  0  0  0  0  0  0  0
    3.0764    3.4391   22.1556 C   0  0  0  0  0  0  0  0  0  0  0  0
    2.2353    3.6563   21.5013 H   0  0  0  0  0  0  0  0  0  0  0  0
    4.4431    3.6734   21.8082 C   0  0  0  0  0  0  0  0  0  0  0  0
    4.7800    4.0862   20.8715 H   0  0  0  0  0  0  0  0  0  0  0  0
  1  2  1  0
  2  3  2  3
  3  4  1  0
  4  5  1  0
  5  6  2  0
  6  7  1  0
  6  8  1  0
  8  9  2  0
  9 10  1  0
  9 11  1  0
 11 12  1  0
 11 13  2  0
 13 14  1  0
  4 15  2  0
 15 16  1  0
 16 17  1  0
 16 18  1  0
 16 19  1  0
 19 20  1  0
 19 21  1  0
  2 22  1  0
 22 23  1  0
 22 24  1  0
 24 25  1  0
 24 26  1  0
 24 27  1  0
 27 28  1  0
 28 29  1  0
 29 30  1  0
 29 31  2  0
 31 32  1  0
 31 33  1  0
 33 34  1  0
 19  3  1  0
 33 27  2  0
 13  5  1  0
M  END
>  <cnnaffinity>  (1) 
-4.78117

>  <filename>  (1) 
[H]C(=C1C(c2c([H])nc([H])c([H])c2[H])=NC([H])([H])C1([H])[H])N([H])C([H])([H])c1sc([H])c([H])c1[H]

$$$$
