
     RDKit          3D

 36 38  0  0  0  0  0  0  0  0999 V2000
    8.3483   -0.8271   20.4729 H   0  0  0  0  0  0  0  0  0  0  0  0
    7.2626   -0.7455   20.5526 C   0  0  0  0  0  0  0  0  0  0  0  0
    6.6133   -1.4431   21.4937 C   0  0  0  0  0  0  0  0  0  0  0  0
    5.5180   -1.4471   21.5132 H   0  0  0  0  0  0  0  0  0  0  0  0
    7.2117   -2.2676   22.4267 N   0  0  0  0  0  0  0  0  0  0  0  0
    6.5852   -2.5066   23.7207 C   0  0  0  0  0  0  0  0  0  0  0  0
    6.5887   -1.5985   24.3484 H   0  0  0  0  0  0  0  0  0  0  0  0
    5.5449   -2.8356   23.6074 H   0  0  0  0  0  0  0  0  0  0  0  0
    7.4947   -3.5874   24.3018 C   0  0  0  0  0  0  0  0  0  0  0  0
    7.2391   -4.5467   23.8432 H   0  0  0  0  0  0  0  0  0  0  0  0
    7.4034   -3.7043   25.3854 H   0  0  0  0  0  0  0  0  0  0  0  0
    8.9088   -3.1664   23.8450 C   0  0  2  0  0  0  0  0  0  0  0  0
    9.5123   -4.0398   23.5854 H   0  0  0  0  0  0  0  0  0  0  0  0
    9.7103   -2.3032   24.8266 C   0  0  0  0  0  0  0  0  0  0  0  0
   10.7900   -2.5238   24.7112 H   0  0  0  0  0  0  0  0  0  0  0  0
    9.4389   -2.5002   25.8732 H   0  0  0  0  0  0  0  0  0  0  0  0
    9.4162   -0.9182   24.4876 N   0  0  0  0  0  0  0  0  0  0  0  0
   10.3010    0.0611   25.0874 C   0  0  0  0  0  0  0  0  0  0  0  0
   10.2343   -0.0273   26.1811 H   0  0  0  0  0  0  0  0  0  0  0  0
   11.3646   -0.0627   24.7898 H   0  0  0  0  0  0  0  0  0  0  0  0
    9.9888    1.0811   24.8257 H   0  0  0  0  0  0  0  0  0  0  0  0
    9.2679   -0.8584   23.0359 C   0  0  0  0  0  0  0  0  0  0  0  0
    8.5978   -0.0342   22.7393 H   0  0  0  0  0  0  0  0  0  0  0  0
   10.2285   -0.7126   22.4984 H   0  0  0  0  0  0  0  0  0  0  0  0
    8.6712   -2.2407   22.6289 C   0  0  2  0  0  0  0  0  0  0  0  0
    9.1574   -2.6226   21.7260 H   0  0  0  0  0  0  0  0  0  0  0  0
    6.5973    0.1125   19.5553 C   0  0  0  0  0  0  0  0  0  0  0  0
    7.1487    0.2653   18.2678 C   0  0  0  0  0  0  0  0  0  0  0  0
    8.1099   -0.1948   18.0367 H   0  0  0  0  0  0  0  0  0  0  0  0
    6.5589    0.9186   17.2607 N   0  0  0  0  0  0  0  0  0  0  0  0
    5.3733    1.4974   17.5217 C   0  0  0  0  0  0  0  0  0  0  0  0
    4.9010    2.0144   16.6905 H   0  0  0  0  0  0  0  0  0  0  0  0
    4.7533    1.4588   18.7766 C   0  0  0  0  0  0  0  0  0  0  0  0
    3.7991    1.9471   18.9271 H   0  0  0  0  0  0  0  0  0  0  0  0
    5.3854    0.7703   19.8151 C   0  0  0  0  0  0  0  0  0  0  0  0
    4.9695    0.7564   20.8222 H   0  0  0  0  0  0  0  0  0  0  0  0
  1  2  1  0
  2  3  2  3
  3  4  1  0
  3  5  1  0
  5  6  1  0
  6  7  1  0
  6  8  1  0
  6  9  1  0
  9 10  1  0
  9 11  1  0
  9 12  1  0
 12 13  1  6
 12 14  1  0
 14 15  1  0
 14 16  1  0
 14 17  1  0
 17 18  1  0
 18 19  1  0
 18 20  1  0
 18 21  1  0
 17 22  1  0
 22 23  1  0
 22 24  1  0
 22 25  1  0
 25 26  1  6
  2 27  1  0
 27 28  2  0
 28 29  1  0
 28 30  1  0
 30 31  2  0
 31 32  1  0
 31 33  1  0
 33 34  1  0
 33 35  2  0
 35 36  1  0
 25  5  1  0
 35 27  1  0
 25 12  1  0
M  END
>  <cnnaffinity>  (1) 
-4.61951

>  <filename>  (1) 
[H]C(=C([H])N1C([H])([H])C([H])([H])[C@]2([H])C([H])([H])N(C([H])([H])[H])C([H])([H])[C@]12[H])c1c([H])nc([H])c([H])c1[H]

$$$$
