
     RDKit          3D

 39 41  0  0  0  0  0  0  0  0999 V2000
    4.9526    1.8028   16.9189 H   0  0  0  0  0  0  0  0  0  0  0  0
    5.3919    1.3107   17.7879 C   0  0  0  0  0  0  0  0  0  0  0  0
    6.5443    0.6617   17.5784 N   0  0  0  0  0  0  0  0  0  0  0  0
    7.0988    0.0587   18.6399 C   0  0  0  0  0  0  0  0  0  0  0  0
    8.0117   -0.4950   18.4185 H   0  0  0  0  0  0  0  0  0  0  0  0
    6.5780    0.0640   19.9563 C   0  0  0  0  0  0  0  0  0  0  0  0
    7.3482   -0.5555   21.1434 C   0  0  2  0  0  0  0  0  0  0  0  0
    8.1113    0.5276   21.9414 C   0  0  0  0  0  0  0  0  0  0  0  0
    7.3653    1.1426   22.4682 H   0  0  0  0  0  0  0  0  0  0  0  0
    8.7051    0.0273   22.7208 H   0  0  0  0  0  0  0  0  0  0  0  0
    9.0084    1.4473   21.1078 C   0  0  0  0  0  0  0  0  0  0  0  0
    8.3893    2.0162   20.4022 H   0  0  0  0  0  0  0  0  0  0  0  0
    9.6909    0.8313   20.5045 H   0  0  0  0  0  0  0  0  0  0  0  0
    9.8120    2.3893   21.9689 C   0  0  0  0  0  0  0  0  0  0  0  0
    9.3032    3.6301   22.3938 C   0  0  0  0  0  0  0  0  0  0  0  0
    8.3382    3.9762   22.0282 H   0  0  0  0  0  0  0  0  0  0  0  0
   10.0382    4.4485   23.2586 C   0  0  0  0  0  0  0  0  0  0  0  0
    9.6370    5.4039   23.5922 H   0  0  0  0  0  0  0  0  0  0  0  0
   11.3061    4.0441   23.6999 C   0  0  0  0  0  0  0  0  0  0  0  0
   12.1811    5.0727   24.7891 Cl  0  0  0  0  0  0  0  0  0  0  0  0
   11.8358    2.8184   23.2577 C   0  0  0  0  0  0  0  0  0  0  0  0
   13.4201    2.2697   23.6993 Cl  0  0  0  0  0  0  0  0  0  0  0  0
   11.0783    1.9960   22.4180 C   0  0  0  0  0  0  0  0  0  0  0  0
   11.4930    1.0350   22.1232 H   0  0  0  0  0  0  0  0  0  0  0  0
    8.2501   -1.7209   20.6668 C   0  0  0  0  0  0  0  0  0  0  0  0
    9.1649   -1.4163   20.1449 H   0  0  0  0  0  0  0  0  0  0  0  0
    7.5865   -2.2582   19.9790 H   0  0  0  0  0  0  0  0  0  0  0  0
    8.5476   -2.6026   21.7860 N   0  0  0  0  0  0  0  0  0  0  0  0
    9.3821   -2.2968   22.2788 H   0  0  0  0  0  0  0  0  0  0  0  0
    7.3758   -2.5215   22.6648 C   0  0  0  0  0  0  0  0  0  0  0  0
    6.8117   -3.4601   22.6385 H   0  0  0  0  0  0  0  0  0  0  0  0
    7.6992   -2.3752   23.7013 H   0  0  0  0  0  0  0  0  0  0  0  0
    6.4826   -1.3641   22.1503 C   0  0  0  0  0  0  0  0  0  0  0  0
    6.1440   -0.7427   22.9825 H   0  0  0  0  0  0  0  0  0  0  0  0
    5.5969   -1.7755   21.6527 H   0  0  0  0  0  0  0  0  0  0  0  0
    5.3703    0.7508   20.1372 C   0  0  0  0  0  0  0  0  0  0  0  0
    4.9022    0.8104   21.1241 H   0  0  0  0  0  0  0  0  0  0  0  0
    4.7640    1.3686   19.0343 C   0  0  0  0  0  0  0  0  0  0  0  0
    3.8304    1.9074   19.1285 H   0  0  0  0  0  0  0  0  0  0  0  0
  1  2  1  0
  2  3  2  0
  3  4  1  0
  4  5  1  0
  4  6  2  0
  6  7  1  0
  7  8  1  1
  8  9  1  0
  8 10  1  0
  8 11  1  0
 11 12  1  0
 11 13  1  0
 11 14  1  0
 14 15  2  0
 15 16  1  0
 15 17  1  0
 17 18  1  0
 17 19  2  0
 19 20  1  0
 19 21  1  0
 21 22  1  0
 21 23  2  0
 23 24  1  0
  7 25  1  0
 25 26  1  0
 25 27  1  0
 25 28  1  0
 28 29  1  0
 28 30  1  0
 30 31  1  0
 30 32  1  0
 30 33  1  0
 33 34  1  0
 33 35  1  0
  6 36  1  0
 36 37  1  0
 36 38  2  0
 38 39  1  0
 38  2  1  0
 33  7  1  0
 23 14  1  0
M  END
>  <cnnaffinity>  (1) 
-4.94097

>  <filename>  (1) 
[H]c1nc([H])c([C@]2(C([H])([H])C([H])([H])c3c([H])c([H])c(Cl)c(Cl)c3[H])C([H])([H])N([H])C([H])([H])C2([H])[H])c([H])c1[H]

$$$$
