
     RDKit          3D

 26 27  0  0  0  0  0  0  0  0999 V2000
    5.0061    1.7830   16.9325 H   0  0  0  0  0  0  0  0  0  0  0  0
    5.4455    1.3124   17.8100 C   0  0  0  0  0  0  0  0  0  0  0  0
    6.6290    0.7115   17.6269 N   0  0  0  0  0  0  0  0  0  0  0  0
    7.1831    0.1123   18.6918 C   0  0  0  0  0  0  0  0  0  0  0  0
    8.1568   -0.3415   18.5214 H   0  0  0  0  0  0  0  0  0  0  0  0
    6.5922    0.0525   19.9561 C   0  0  0  0  0  0  0  0  0  0  0  0
    7.2070   -0.7558   21.0597 C   0  0  1  0  0  0  0  0  0  0  0  0
    7.0925   -0.1888   21.9965 H   0  0  0  0  0  0  0  0  0  0  0  0
    6.5374   -2.0858   21.1955 C   0  0  0  0  0  0  0  0  0  0  0  0
    6.2844   -2.6567   22.4362 C   0  0  0  0  0  0  0  0  0  0  0  0
    6.4445   -2.0680   23.3472 H   0  0  0  0  0  0  0  0  0  0  0  0
    5.8378   -3.9003   22.5897 N   0  0  0  0  0  0  0  0  0  0  0  0
    5.7431   -4.5935   21.4640 C   0  0  0  0  0  0  0  0  0  0  0  0
    5.5185   -5.9072   21.5902 N   0  0  0  0  0  0  0  0  0  0  0  0
    5.0476   -6.0608   22.4623 H   0  0  0  0  0  0  0  0  0  0  0  0
    5.0797   -6.2177   20.7480 H   0  0  0  0  0  0  0  0  0  0  0  0
    5.7986   -4.1511   20.2120 N   0  0  0  0  0  0  0  0  0  0  0  0
    6.2470   -2.9049   20.1063 C   0  0  0  0  0  0  0  0  0  0  0  0
    6.3657   -2.5634   19.0775 H   0  0  0  0  0  0  0  0  0  0  0  0
    8.6239   -0.9979   20.8192 N   0  0  0  0  0  0  0  0  0  0  0  0
    8.6694   -1.8109   20.2124 H   0  0  0  0  0  0  0  0  0  0  0  0
    9.0157   -1.3190   21.6981 H   0  0  0  0  0  0  0  0  0  0  0  0
    5.3606    0.7054   20.1357 C   0  0  0  0  0  0  0  0  0  0  0  0
    4.8745    0.7114   21.1165 H   0  0  0  0  0  0  0  0  0  0  0  0
    4.7780    1.3466   19.0422 C   0  0  0  0  0  0  0  0  0  0  0  0
    3.8304    1.8709   19.1276 H   0  0  0  0  0  0  0  0  0  0  0  0
  1  2  1  0
  2  3  2  0
  3  4  1  0
  4  5  1  0
  4  6  2  0
  6  7  1  0
  7  8  1  1
  7  9  1  0
  9 10  2  0
 10 11  1  0
 10 12  1  0
 12 13  2  0
 13 14  1  0
 14 15  1  0
 14 16  1  0
 13 17  1  0
 17 18  2  0
 18 19  1  0
  7 20  1  0
 20 21  1  0
 20 22  1  0
  6 23  1  0
 23 24  1  0
 23 25  2  0
 25 26  1  0
 25  2  1  0
 18  9  1  0
M  END
>  <cnnaffinity>  (1) 
-4.07934

>  <filename>  (1) 
[H]c1nc([H])c([C@@]([H])(c2c([H])nc(N([H])[H])nc2[H])N([H])[H])c([H])c1[H]

$$$$
