
     RDKit          3D

 38 41  0  0  0  0  0  0  0  0999 V2000
    4.9541    1.8290   16.9642 H   0  0  0  0  0  0  0  0  0  0  0  0
    5.4006    1.3023   17.8059 C   0  0  0  0  0  0  0  0  0  0  0  0
    6.5503    0.6533   17.5612 N   0  0  0  0  0  0  0  0  0  0  0  0
    7.1358    0.0162   18.5790 C   0  0  0  0  0  0  0  0  0  0  0  0
    8.0743   -0.4898   18.3577 H   0  0  0  0  0  0  0  0  0  0  0  0
    6.6193    0.0040   19.8837 C   0  0  0  0  0  0  0  0  0  0  0  0
    7.3583   -0.6445   20.9570 C   0  0  0  0  0  0  0  0  0  0  0  0
    8.1610   -1.7423   20.7591 N   0  0  0  0  0  0  0  0  0  0  0  0
    8.6440   -1.9764   21.9428 C   0  0  0  0  0  0  0  0  0  0  0  0
    8.2508   -1.1141   22.9135 N   0  0  0  0  0  0  0  0  0  0  0  0
    7.4138   -0.2260   22.2898 C   0  0  0  0  0  0  0  0  0  0  0  0
    6.9971    0.9473   22.8896 N   0  0  0  0  0  0  0  0  0  0  0  0
    6.4119    0.8652   24.2296 C   0  0  0  0  0  0  0  0  0  0  0  0
    6.0567   -0.1607   24.4088 H   0  0  0  0  0  0  0  0  0  0  0  0
    7.1315    1.1086   25.0270 H   0  0  0  0  0  0  0  0  0  0  0  0
    5.2347    1.8159   24.2349 C   0  0  0  0  0  0  0  0  0  0  0  0
    4.7757    1.9974   25.2033 H   0  0  0  0  0  0  0  0  0  0  0  0
    4.4889    1.5185   23.5018 H   0  0  0  0  0  0  0  0  0  0  0  0
    5.7877    3.4227   23.7799 S   0  0  0  0  0  0  0  0  0  0  0  0
    4.5973    4.2076   23.5068 O   0  0  0  0  0  0  0  0  0  0  0  0
    6.7642    3.8088   24.7960 O   0  0  0  0  0  0  0  0  0  0  0  0
    6.6935    3.2572   22.2803 C   0  0  0  0  0  0  0  0  0  0  0  0
    5.9882    3.0243   21.4846 H   0  0  0  0  0  0  0  0  0  0  0  0
    7.1052    4.2537   22.1353 H   0  0  0  0  0  0  0  0  0  0  0  0
    7.7147    2.1611   22.4540 C   0  0  0  0  0  0  0  0  0  0  0  0
    8.5081    2.4386   23.1621 H   0  0  0  0  0  0  0  0  0  0  0  0
    8.2059    1.9541   21.4899 H   0  0  0  0  0  0  0  0  0  0  0  0
    8.9392   -1.1494   24.1963 C   0  0  0  0  0  0  0  0  0  0  0  0
    8.2911   -1.5939   24.9539 H   0  0  0  0  0  0  0  0  0  0  0  0
    9.2245   -0.1491   24.5355 H   0  0  0  0  0  0  0  0  0  0  0  0
   10.1883   -2.0077   23.9371 C   0  0  0  0  0  0  0  0  0  0  0  0
   10.4855   -2.6245   24.7845 H   0  0  0  0  0  0  0  0  0  0  0  0
   11.0257   -1.3799   23.6236 H   0  0  0  0  0  0  0  0  0  0  0  0
    9.7801   -3.1355   22.5706 S   0  0  0  0  0  0  0  0  0  0  0  0
    5.4058    0.6719   20.1198 C   0  0  0  0  0  0  0  0  0  0  0  0
    4.9673    0.6759   21.1170 H   0  0  0  0  0  0  0  0  0  0  0  0
    4.7833    1.3262   19.0605 C   0  0  0  0  0  0  0  0  0  0  0  0
    3.8547    1.8697   19.1999 H   0  0  0  0  0  0  0  0  0  0  0  0
  1  2  1  0
  2  3  2  0
  3  4  1  0
  4  5  1  0
  4  6  2  0
  6  7  1  0
  7  8  1  0
  8  9  2  0
  9 10  1  0
 10 11  1  0
 11 12  1  0
 12 13  1  0
 13 14  1  0
 13 15  1  0
 13 16  1  0
 16 17  1  0
 16 18  1  0
 16 19  1  0
 19 20  2  0
 19 21  2  0
 19 22  1  0
 22 23  1  0
 22 24  1  0
 22 25  1  0
 25 26  1  0
 25 27  1  0
 10 28  1  0
 28 29  1  0
 28 30  1  0
 28 31  1  0
 31 32  1  0
 31 33  1  0
 31 34  1  0
  6 35  1  0
 35 36  1  0
 35 37  2  0
 37 38  1  0
 37  2  1  0
 11  7  2  0
 25 12  1  0
 34  9  1  0
M  END
>  <cnnaffinity>  (1) 
-5.21925

>  <filename>  (1) 
[H]c1nc([H])c(-c2nc3n(c2N2C([H])([H])C([H])([H])S(=O)(=O)C([H])([H])C2([H])[H])C([H])([H])C([H])([H])S3)c([H])c1[H]

$$$$
