
     RDKit          3D

 45 49  0  0  0  0  0  0  0  0999 V2000
    4.9649    1.6535   16.7144 H   0  0  0  0  0  0  0  0  0  0  0  0
    5.4360    1.2035   17.5853 C   0  0  0  0  0  0  0  0  0  0  0  0
    6.5867    0.5494   17.3582 N   0  0  0  0  0  0  0  0  0  0  0  0
    7.2014    0.0020   18.4121 C   0  0  0  0  0  0  0  0  0  0  0  0
    8.1372   -0.5122   18.1915 H   0  0  0  0  0  0  0  0  0  0  0  0
    6.7213    0.0749   19.7365 C   0  0  0  0  0  0  0  0  0  0  0  0
    7.4704   -0.4848   20.8795 C   0  0  0  0  0  0  0  0  0  0  0  0
    7.6561   -0.0246   22.1691 C   0  0  0  0  0  0  0  0  0  0  0  0
    8.4979   -0.9533   22.7762 C   0  0  0  0  0  0  0  0  0  0  0  0
    8.8265   -1.9542   21.9817 N   0  0  0  0  0  0  0  0  0  0  0  0
    8.2060   -1.6349   20.8209 N   0  0  0  0  0  0  0  0  0  0  0  0
    8.1899   -2.3148   20.0728 H   0  0  0  0  0  0  0  0  0  0  0  0
    8.7987   -0.6356   24.2045 C   0  0  0  0  0  0  0  0  0  0  0  0
    8.4903   -1.4581   24.8605 H   0  0  0  0  0  0  0  0  0  0  0  0
    9.8686   -0.4925   24.3826 H   0  0  0  0  0  0  0  0  0  0  0  0
    7.9868    0.6845   24.4625 C   0  0  2  0  0  0  0  0  0  0  0  0
    8.7104    1.4903   24.6277 H   0  0  0  0  0  0  0  0  0  0  0  0
    7.0984    0.5729   25.6862 C   0  0  0  0  0  0  0  0  0  0  0  0
    6.0743   -0.3879   25.7134 C   0  0  0  0  0  0  0  0  0  0  0  0
    5.9186   -1.0374   24.8549 H   0  0  0  0  0  0  0  0  0  0  0  0
    5.2532   -0.5275   26.8327 C   0  0  0  0  0  0  0  0  0  0  0  0
    4.4647   -1.2743   26.8394 H   0  0  0  0  0  0  0  0  0  0  0  0
    5.4483    0.2979   27.9445 C   0  0  0  0  0  0  0  0  0  0  0  0
    4.8091    0.1969   28.8193 H   0  0  0  0  0  0  0  0  0  0  0  0
    6.4710    1.2651   27.9494 C   0  0  0  0  0  0  0  0  0  0  0  0
    6.6313    2.1961   29.1701 C   0  0  0  0  0  0  0  0  0  0  0  0
    5.5844    3.0963   29.3937 C   0  0  0  0  0  0  0  0  0  0  0  0
    4.7021    3.1006   28.7427 H   0  0  0  0  0  0  0  0  0  0  0  0
    5.6227    3.8751   30.6375 C   0  0  0  0  0  0  0  0  0  0  0  0
    5.2616    4.8672   30.6204 H   0  0  0  0  0  0  0  0  0  0  0  0
    6.7400    4.2911   31.1932 C   0  0  0  0  0  0  0  0  0  0  0  0
    7.6938    4.9943   31.0915 H   0  0  0  0  0  0  0  0  0  0  0  0
    6.9573    4.0411   31.3238 C   0  0  0  0  0  0  0  0  0  0  0  0
    7.6267    2.9883   31.2380 H   0  0  0  0  0  0  0  0  0  0  0  0
    7.7267    2.0502   29.9705 C   0  0  0  0  0  0  0  0  0  0  0  0
    8.5177    1.3284   29.7950 H   0  0  0  0  0  0  0  0  0  0  0  0
    7.2928    1.3854   26.8212 C   0  0  0  0  0  0  0  0  0  0  0  0
    8.0890    2.1292   26.8114 H   0  0  0  0  0  0  0  0  0  0  0  0
    7.2077    1.0282   23.1377 C   0  0  0  0  0  0  0  0  0  0  0  0
    6.1190    0.9962   23.2888 H   0  0  0  0  0  0  0  0  0  0  0  0
    7.4295    2.0485   22.7967 H   0  0  0  0  0  0  0  0  0  0  0  0
    5.5085    0.7515   19.9439 C   0  0  0  0  0  0  0  0  0  0  0  0
    5.0861    0.8194   20.9471 H   0  0  0  0  0  0  0  0  0  0  0  0
    4.8536    1.3184   18.8510 C   0  0  0  0  0  0  0  0  0  0  0  0
    3.9202    1.8574   18.9662 H   0  0  0  0  0  0  0  0  0  0  0  0
  1  2  1  0
  2  3  2  0
  3  4  1  0
  4  5  1  0
  4  6  2  0
  6  7  1  0
  7  8  2  0
  8  9  1  0
  9 10  2  0
 10 11  1  0
 11 12  1  0
  9 13  1  0
 13 14  1  0
 13 15  1  0
 13 16  1  0
 16 17  1  1
 16 18  1  0
 18 19  2  0
 19 20  1  0
 19 21  1  0
 21 22  1  0
 21 23  2  0
 23 24  1  0
 23 25  1  0
 25 26  1  0
 26 27  2  0
 27 28  1  0
 27 29  1  0
 29 30  1  0
 29 31  2  0
 31 32  1  0
 31 33  1  0
 33 34  1  0
 33 35  2  0
 35 36  1  0
 25 37  2  0
 37 38  1  0
 16 39  1  0
 39 40  1  0
 39 41  1  0
  6 42  1  0
 42 43  1  0
 42 44  2  0
 44 45  1  0
 44  2  1  0
 11  7  1  0
 37 18  1  0
 39  8  1  0
 35 26  1  0
M  END
>  <cnnaffinity>  (1) 
-5.52597

>  <filename>  (1) 
[H]c1nc([H])c(-c2c3c(nn2[H])C([H])([H])[C@]([H])(c2c([H])c([H])c([H])c(-c4c([H])c([H])c([H])c([H])c4[H])c2[H])C3([H])[H])c([H])c1[H]

$$$$
