
     RDKit          3D

 27 29  0  0  0  0  0  0  0  0999 V2000
    5.3824   -2.4618   23.8171 H   0  0  0  0  0  0  0  0  0  0  0  0
    6.4468   -2.5830   23.9814 C   0  0  0  0  0  0  0  0  0  0  0  0
    6.8521   -3.2687   25.0631 C   0  0  0  0  0  0  0  0  0  0  0  0
    8.5144   -3.6080   25.5388 S   0  0  0  0  0  0  0  0  0  0  0  0
    7.9665   -4.4991   26.9772 C   0  0  0  0  0  0  0  0  0  0  0  0
    8.6538   -5.0277   27.8038 O   0  0  0  0  0  0  0  0  0  0  0  0
    6.6023   -4.5036   27.0332 N   0  0  0  0  0  0  0  0  0  0  0  0
    6.1501   -4.9766   27.7899 H   0  0  0  0  0  0  0  0  0  0  0  0
    5.8833   -3.8760   26.0617 C   0  0  0  0  0  0  0  0  0  0  0  0
    4.6767   -3.8507   26.0564 O   0  0  0  0  0  0  0  0  0  0  0  0
    7.2581   -1.9469   22.9407 C   0  0  0  0  0  0  0  0  0  0  0  0
    8.5935   -2.0208   23.0176 N   0  0  0  0  0  0  0  0  0  0  0  0
    9.3419   -1.4297   22.0809 N   0  0  0  0  0  0  0  0  0  0  0  0
    8.7404   -0.7927   21.0853 C   0  0  0  0  0  0  0  0  0  0  0  0
    9.3840   -0.3093   20.3606 H   0  0  0  0  0  0  0  0  0  0  0  0
    7.3247   -0.7302   21.0082 C   0  0  0  0  0  0  0  0  0  0  0  0
    6.6318   -0.0036   19.9197 C   0  0  0  0  0  0  0  0  0  0  0  0
    7.1613    0.0480   18.6188 C   0  0  0  0  0  0  0  0  0  0  0  0
    8.1087   -0.4358   18.3768 H   0  0  0  0  0  0  0  0  0  0  0  0
    6.5661    0.6660   17.5963 N   0  0  0  0  0  0  0  0  0  0  0  0
    5.4050    1.2909   17.8423 C   0  0  0  0  0  0  0  0  0  0  0  0
    4.9345    1.7808   16.9929 H   0  0  0  0  0  0  0  0  0  0  0  0
    4.8034    1.3194   19.1036 C   0  0  0  0  0  0  0  0  0  0  0  0
    3.8719    1.8499   19.2474 H   0  0  0  0  0  0  0  0  0  0  0  0
    5.4202    0.6583   20.1602 C   0  0  0  0  0  0  0  0  0  0  0  0
    4.9901    0.6374   21.1626 H   0  0  0  0  0  0  0  0  0  0  0  0
    6.5839   -1.3112   21.9532 N   0  0  0  0  0  0  0  0  0  0  0  0
  1  2  1  0
  2  3  2  3
  3  4  1  0
  4  5  1  0
  5  6  2  0
  5  7  1  0
  7  8  1  0
  7  9  1  0
  9 10  2  0
  2 11  1  0
 11 12  2  0
 12 13  1  0
 13 14  2  0
 14 15  1  0
 14 16  1  0
 16 17  1  0
 17 18  2  0
 18 19  1  0
 18 20  1  0
 20 21  2  0
 21 22  1  0
 21 23  1  0
 23 24  1  0
 23 25  2  0
 25 26  1  0
 16 27  2  0
  9  3  1  0
 27 11  1  0
 25 17  1  0
M  END
>  <cnnaffinity>  (1) 
-5.01125

>  <filename>  (1) 
[H]C(=C1SC(=O)N([H])C1=O)c1nnc([H])c(-c2c([H])nc([H])c([H])c2[H])n1

$$$$
