
     RDKit          3D

 37 40  0  0  0  0  0  0  0  0999 V2000
    5.0452    1.7704   17.2586 H   0  0  0  0  0  0  0  0  0  0  0  0
    5.5539    1.1620   18.0083 C   0  0  0  0  0  0  0  0  0  0  0  0
    6.6999    0.5731   17.6321 N   0  0  0  0  0  0  0  0  0  0  0  0
    7.3733   -0.1242   18.5504 C   0  0  0  0  0  0  0  0  0  0  0  0
    8.3162   -0.5531   18.2095 H   0  0  0  0  0  0  0  0  0  0  0  0
    6.9282   -0.3003   19.8680 C   0  0  0  0  0  0  0  0  0  0  0  0
    7.8193   -0.9684   20.8244 C   0  0  0  0  0  0  0  0  0  0  0  0
    9.1316   -0.9969   20.8001 N   0  0  0  0  0  0  0  0  0  0  0  0
    9.5863   -1.6171   21.9478 N   0  0  0  0  0  0  0  0  0  0  0  0
    8.5215   -1.9504   22.6230 C   0  0  0  0  0  0  0  0  0  0  0  0
    8.1127   -2.7152   24.1461 S   0  0  0  0  0  0  0  0  0  0  0  0
    6.4233   -2.4176   23.7200 C   0  0  0  0  0  0  0  0  0  0  0  0
    5.3644   -2.6587   24.5098 N   0  0  0  0  0  0  0  0  0  0  0  0
    4.5438   -2.2643   24.0700 H   0  0  0  0  0  0  0  0  0  0  0  0
    5.2211   -3.4862   25.6862 C   0  0  0  0  0  0  0  0  0  0  0  0
    6.0987   -3.3859   26.3491 H   0  0  0  0  0  0  0  0  0  0  0  0
    3.9650   -3.0029   26.4200 C   0  0  0  0  0  0  0  0  0  0  0  0
    3.1298   -3.0926   25.7072 H   0  0  0  0  0  0  0  0  0  0  0  0
    4.0679   -1.9377   26.6557 H   0  0  0  0  0  0  0  0  0  0  0  0
    3.6433   -3.8244   27.6799 C   0  0  0  0  0  0  0  0  0  0  0  0
    4.3943   -3.6151   28.4568 H   0  0  0  0  0  0  0  0  0  0  0  0
    2.6776   -3.4973   28.0913 H   0  0  0  0  0  0  0  0  0  0  0  0
    3.6043   -5.3387   27.3860 C   0  0  0  0  0  0  0  0  0  0  0  0
    2.6842   -5.5723   26.8294 H   0  0  0  0  0  0  0  0  0  0  0  0
    3.5352   -5.8918   28.3314 H   0  0  0  0  0  0  0  0  0  0  0  0
    4.8191   -5.8338   26.5725 C   0  0  0  0  0  0  0  0  0  0  0  0
    4.6733   -6.8871   26.2911 H   0  0  0  0  0  0  0  0  0  0  0  0
    5.7230   -5.8011   27.2022 H   0  0  0  0  0  0  0  0  0  0  0  0
    5.0466   -4.9697   25.3185 C   0  0  0  0  0  0  0  0  0  0  0  0
    5.9120   -5.3123   24.7423 H   0  0  0  0  0  0  0  0  0  0  0  0
    4.1726   -5.0487   24.6517 H   0  0  0  0  0  0  0  0  0  0  0  0
    6.1911   -1.8895   22.5500 N   0  0  0  0  0  0  0  0  0  0  0  0
    7.3886   -1.5998   21.9679 N   0  0  0  0  0  0  0  0  0  0  0  0
    5.6838    0.2491   20.2320 C   0  0  0  0  0  0  0  0  0  0  0  0
    5.2605    0.0728   21.2213 H   0  0  0  0  0  0  0  0  0  0  0  0
    5.0128    1.0218   19.2877 C   0  0  0  0  0  0  0  0  0  0  0  0
    4.0928    1.5378   19.5361 H   0  0  0  0  0  0  0  0  0  0  0  0
  1  2  1  0
  2  3  2  0
  3  4  1  0
  4  5  1  0
  4  6  2  0
  6  7  1  0
  7  8  2  0
  8  9  1  0
  9 10  2  0
 10 11  1  0
 11 12  1  0
 12 13  1  0
 13 14  1  0
 13 15  1  0
 15 16  1  0
 15 17  1  0
 17 18  1  0
 17 19  1  0
 17 20  1  0
 20 21  1  0
 20 22  1  0
 20 23  1  0
 23 24  1  0
 23 25  1  0
 23 26  1  0
 26 27  1  0
 26 28  1  0
 26 29  1  0
 29 30  1  0
 29 31  1  0
 12 32  2  0
 32 33  1  0
  6 34  1  0
 34 35  1  0
 34 36  2  0
 36 37  1  0
 36  2  1  0
 33  7  1  0
 33 10  1  0
 29 15  1  0
M  END
>  <cnnaffinity>  (1) 
-5.09239

>  <filename>  (1) 
[H]c1nc([H])c(-c2nnc3sc(N([H])C4([H])C([H])([H])C([H])([H])C([H])([H])C([H])([H])C4([H])[H])nn23)c([H])c1[H]

$$$$
