
     RDKit          3D

 29 30  0  0  0  0  0  0  0  0999 V2000
    4.9106    1.7847   16.9934 H   0  0  0  0  0  0  0  0  0  0  0  0
    5.3991    1.2945   17.8321 C   0  0  0  0  0  0  0  0  0  0  0  0
    6.5608    0.6800   17.5616 N   0  0  0  0  0  0  0  0  0  0  0  0
    7.1667    0.0670   18.5844 C   0  0  0  0  0  0  0  0  0  0  0  0
    8.1164   -0.4213   18.3676 H   0  0  0  0  0  0  0  0  0  0  0  0
    6.6678    0.0063   19.8927 C   0  0  0  0  0  0  0  0  0  0  0  0
    7.4314   -0.7190   20.9981 C   0  0  1  0  0  0  0  0  0  0  0  0
    8.3508   -1.1248   20.5612 H   0  0  0  0  0  0  0  0  0  0  0  0
    7.8835    0.2695   22.0740 C   0  0  0  0  0  0  0  0  0  0  0  0
    9.0886    0.8117   21.8750 N   0  0  0  0  0  0  0  0  0  0  0  0
    9.5505    1.7141   22.7605 C   0  0  0  0  0  0  0  0  0  0  0  0
   10.9489    2.3287   22.5373 C   0  0  0  0  0  0  0  0  0  0  0  0
   10.8795    3.6716   22.4301 F   0  0  0  0  0  0  0  0  0  0  0  0
   11.5883    1.8734   21.4584 F   0  0  0  0  0  0  0  0  0  0  0  0
   11.7523    2.1084   23.6018 F   0  0  0  0  0  0  0  0  0  0  0  0
    8.8105    2.1216   23.8871 C   0  0  0  0  0  0  0  0  0  0  0  0
    9.2137    2.8484   24.5853 H   0  0  0  0  0  0  0  0  0  0  0  0
    7.5450    1.5735   24.0837 C   0  0  0  0  0  0  0  0  0  0  0  0
    6.9344    1.8624   24.9377 H   0  0  0  0  0  0  0  0  0  0  0  0
    7.0726    0.6403   23.1614 C   0  0  0  0  0  0  0  0  0  0  0  0
    6.0919    0.1964   23.2799 H   0  0  0  0  0  0  0  0  0  0  0  0
    6.6170   -1.9047   21.5374 C   0  0  0  0  0  0  0  0  0  0  0  0
    5.6367   -1.5893   21.8934 H   0  0  0  0  0  0  0  0  0  0  0  0
    6.4302   -2.6322   20.7424 H   0  0  0  0  0  0  0  0  0  0  0  0
    7.1392   -2.4012   22.3599 H   0  0  0  0  0  0  0  0  0  0  0  0
    5.4460    0.6471   20.1502 C   0  0  0  0  0  0  0  0  0  0  0  0
    5.0064    0.6368   21.1530 H   0  0  0  0  0  0  0  0  0  0  0  0
    4.8084    1.3093   19.1010 C   0  0  0  0  0  0  0  0  0  0  0  0
    3.8748    1.8422   19.2585 H   0  0  0  0  0  0  0  0  0  0  0  0
  1  2  1  0
  2  3  2  0
  3  4  1  0
  4  5  1  0
  4  6  2  0
  6  7  1  0
  7  8  1  6
  7  9  1  0
  9 10  2  0
 10 11  1  0
 11 12  1  0
 12 13  1  0
 12 14  1  0
 12 15  1  0
 11 16  2  0
 16 17  1  0
 16 18  1  0
 18 19  1  0
 18 20  2  0
 20 21  1  0
  7 22  1  0
 22 23  1  0
 22 24  1  0
 22 25  1  0
  6 26  1  0
 26 27  1  0
 26 28  2  0
 28 29  1  0
 28  2  1  0
 20  9  1  0
M  END
>  <cnnaffinity>  (1) 
-4.96251

>  <filename>  (1) 
[H]c1nc([H])c([C@@]([H])(c2nc(C(F)(F)F)c([H])c([H])c2[H])C([H])([H])[H])c([H])c1[H]

$$$$
