
     RDKit          3D

 34 36  0  0  0  0  0  0  0  0999 V2000
    5.9233   -2.3560   21.4173 O   0  0  0  0  0  0  0  0  0  0  0  0
    6.8434   -1.6411   21.7531 C   0  0  0  0  0  0  0  0  0  0  0  0
    7.5336   -1.7571   23.1508 C   0  0  0  0  0  0  0  0  0  0  0  0
    7.2527   -0.7152   24.1559 N   0  0  0  0  0  0  0  0  0  0  0  0
    7.7774    0.5414   24.1397 C   0  0  0  0  0  0  0  0  0  0  0  0
    8.6082    0.8600   23.2940 O   0  0  0  0  0  0  0  0  0  0  0  0
    7.2452    1.4941   25.1974 C   0  0  0  0  0  0  0  0  0  0  0  0
    8.0343    2.6305   25.5129 C   0  0  0  0  0  0  0  0  0  0  0  0
    7.5999    3.5933   26.4199 C   0  0  0  0  0  0  0  0  0  0  0  0
    6.3456    3.4271   27.0237 C   0  0  0  0  0  0  0  0  0  0  0  0
    5.5080    4.4393   28.1574 S   0  0  0  0  0  0  0  0  0  0  0  0
    4.1863    3.3013   28.1352 C   0  0  0  0  0  0  0  0  0  0  0  0
    4.3130    2.2652   27.3840 N   0  0  0  0  0  0  0  0  0  0  0  0
    5.5391    2.3072   26.7305 C   0  0  0  0  0  0  0  0  0  0  0  0
    5.9951    1.3444   25.8199 C   0  0  0  0  0  0  0  0  0  0  0  0
    5.3054    0.5287   25.6152 H   0  0  0  0  0  0  0  0  0  0  0  0
    3.3046    3.5009   28.7377 H   0  0  0  0  0  0  0  0  0  0  0  0
    8.2060    4.4664   26.6427 H   0  0  0  0  0  0  0  0  0  0  0  0
    8.9983    2.7568   25.0273 H   0  0  0  0  0  0  0  0  0  0  0  0
    6.7300   -0.9625   24.9779 H   0  0  0  0  0  0  0  0  0  0  0  0
    8.6137   -1.7959   22.9758 H   0  0  0  0  0  0  0  0  0  0  0  0
    7.2240   -2.7160   23.5664 H   0  0  0  0  0  0  0  0  0  0  0  0
    7.4237   -0.6777   20.9347 N   0  0  0  0  0  0  0  0  0  0  0  0
    6.7115   -0.0543   19.8464 C   0  0  0  0  0  0  0  0  0  0  0  0
    5.4933    0.5895   20.0999 C   0  0  0  0  0  0  0  0  0  0  0  0
    4.8543    1.2744   19.0583 C   0  0  0  0  0  0  0  0  0  0  0  0
    5.4609    1.2953   17.7995 C   0  0  0  0  0  0  0  0  0  0  0  0
    6.6267    0.6804   17.5313 N   0  0  0  0  0  0  0  0  0  0  0  0
    7.2364    0.0333   18.5369 C   0  0  0  0  0  0  0  0  0  0  0  0
    8.1906   -0.4429   18.3087 H   0  0  0  0  0  0  0  0  0  0  0  0
    4.9942    1.8213   16.9705 H   0  0  0  0  0  0  0  0  0  0  0  0
    3.9230    1.8082   19.2215 H   0  0  0  0  0  0  0  0  0  0  0  0
    5.0724    0.5500   21.1050 H   0  0  0  0  0  0  0  0  0  0  0  0
    7.9932   -0.0303   21.4657 H   0  0  0  0  0  0  0  0  0  0  0  0
  1  2  2  0
  2  3  1  0
  3  4  1  0
  4  5  1  0
  5  6  2  0
  5  7  1  0
  7  8  2  0
  8  9  1  0
  9 10  2  0
 10 11  1  0
 11 12  1  0
 12 13  2  0
 13 14  1  0
 14 15  2  0
 15 16  1  0
 12 17  1  0
  9 18  1  0
  8 19  1  0
  4 20  1  0
  3 21  1  0
  3 22  1  0
  2 23  1  0
 23 24  1  0
 24 25  2  0
 25 26  1  0
 26 27  2  0
 27 28  1  0
 28 29  2  0
 29 30  1  0
 27 31  1  0
 26 32  1  0
 25 33  1  0
 23 34  1  0
 15  7  1  0
 29 24  1  0
 14 10  1  0
M  END
>  <cnnaffinity>  (1) 
-5.11978

>  <filename>  (1) 
[H]c1nc2c([H])c(C(=O)N([H])C([H])([H])C(=O)N([H])c3c([H])nc([H])c([H])c3[H])c([H])c([H])c2s1

$$$$
