
     RDKit          3D

 39 41  0  0  0  0  0  0  0  0999 V2000
   12.4254    5.4465   22.4611 C   0  0  0  0  0  0  0  0  0  0  0  0
   12.4550    4.3230   23.4981 C   0  0  0  0  0  0  0  0  0  0  0  0
   11.2568    4.4311   24.4129 C   0  0  0  0  0  0  0  0  0  0  0  0
   11.1436    5.4496   25.3679 C   0  0  0  0  0  0  0  0  0  0  0  0
    9.9566    5.6456   26.0994 C   0  0  0  0  0  0  0  0  0  0  0  0
    8.8434    4.8257   25.8977 C   0  0  0  0  0  0  0  0  0  0  0  0
    8.9520    3.7865   24.9663 C   0  0  0  0  0  0  0  0  0  0  0  0
   10.1471    3.5776   24.2373 C   0  0  0  0  0  0  0  0  0  0  0  0
   10.1079    2.5139   23.3486 N   0  0  0  0  0  0  0  0  0  0  0  0
    8.9461    1.9593   23.3710 C   0  0  0  0  0  0  0  0  0  0  0  0
    8.7628    0.9319   22.4694 N   0  0  0  0  0  0  0  0  0  0  0  0
    7.6033    0.2259   22.2898 C   0  0  0  0  0  0  0  0  0  0  0  0
    6.7044    0.3467   23.0948 O   0  0  0  0  0  0  0  0  0  0  0  0
    7.5435   -0.6399   21.0056 C   0  0  0  0  0  0  0  0  0  0  0  0
    6.8688   -1.9997   21.2602 C   0  0  0  0  0  0  0  0  0  0  0  0
    5.8302   -1.8626   21.5776 H   0  0  0  0  0  0  0  0  0  0  0  0
    6.8621   -2.5847   20.3365 H   0  0  0  0  0  0  0  0  0  0  0  0
    7.3970   -2.5813   22.0220 H   0  0  0  0  0  0  0  0  0  0  0  0
    6.8321    0.1053   19.8623 C   0  0  0  0  0  0  0  0  0  0  0  0
    5.6504    0.8196   20.1033 C   0  0  0  0  0  0  0  0  0  0  0  0
    4.9814    1.4062   19.0277 C   0  0  0  0  0  0  0  0  0  0  0  0
    5.5037    1.2504   17.7406 C   0  0  0  0  0  0  0  0  0  0  0  0
    6.6283    0.5689   17.4788 N   0  0  0  0  0  0  0  0  0  0  0  0
    7.2692    0.0226   18.5235 C   0  0  0  0  0  0  0  0  0  0  0  0
    8.1906   -0.5038   18.2764 H   0  0  0  0  0  0  0  0  0  0  0  0
    4.9972    1.6966   16.8866 H   0  0  0  0  0  0  0  0  0  0  0  0
    4.0861    1.9979   19.1781 H   0  0  0  0  0  0  0  0  0  0  0  0
    5.2723    0.9147   21.1242 H   0  0  0  0  0  0  0  0  0  0  0  0
    8.5810   -0.8397   20.7107 H   0  0  0  0  0  0  0  0  0  0  0  0
    9.5728    0.8544   21.8777 H   0  0  0  0  0  0  0  0  0  0  0  0
    7.7482    2.6067   24.4676 S   0  0  0  0  0  0  0  0  0  0  0  0
    7.9109    5.0113   26.4279 H   0  0  0  0  0  0  0  0  0  0  0  0
    9.9005    6.4571   26.8180 H   0  0  0  0  0  0  0  0  0  0  0  0
   11.9925    6.1077   25.5267 H   0  0  0  0  0  0  0  0  0  0  0  0
   12.4505    3.3471   22.9975 H   0  0  0  0  0  0  0  0  0  0  0  0
   13.3754    4.3731   24.0903 H   0  0  0  0  0  0  0  0  0  0  0  0
   11.4557    5.4719   21.9558 H   0  0  0  0  0  0  0  0  0  0  0  0
   12.5587    6.4093   22.9611 H   0  0  0  0  0  0  0  0  0  0  0  0
   13.2027    5.3296   21.7041 H   0  0  0  0  0  0  0  0  0  0  0  0
  1  2  1  0
  2  3  1  0
  3  4  2  0
  4  5  1  0
  5  6  2  0
  6  7  1  0
  7  8  2  0
  8  9  1  0
  9 10  2  0
 10 11  1  0
 11 12  1  0
 12 13  2  0
 12 14  1  0
 14 15  1  0
 15 16  1  0
 15 17  1  0
 15 18  1  0
 14 19  1  0
 19 20  2  0
 20 21  1  0
 21 22  2  0
 22 23  1  0
 23 24  2  0
 24 25  1  0
 22 26  1  0
 21 27  1  0
 20 28  1  0
 14 29  1  0
 11 30  1  0
 10 31  1  0
  6 32  1  0
  5 33  1  0
  4 34  1  0
  2 35  1  0
  2 36  1  0
  1 37  1  0
  1 38  1  0
  1 39  1  0
  8  3  1  0
 24 19  1  0
 31  7  1  0
M  END
>  <cnnaffinity>  (1) 
-5.58507

>  <filename>  (1) 
[H]c1nc([H])c(C([H])(C(=O)N([H])c2nc3c(C([H])([H])C([H])([H])[H])c([H])c([H])c([H])c3s2)C([H])([H])[H])c([H])c1[H]

$$$$
