
     RDKit          3D

 37 38  0  0  0  0  0  0  0  0999 V2000
    2.3493   -7.0213   24.4628 C   0  0  0  0  0  0  0  0  0  0  0  0
    3.4670   -6.1957   24.2018 O   0  0  0  0  0  0  0  0  0  0  0  0
    3.4204   -4.8792   24.5337 C   0  0  0  0  0  0  0  0  0  0  0  0
    2.2685   -4.2157   24.9730 C   0  0  0  0  0  0  0  0  0  0  0  0
    2.3505   -2.8612   25.3152 C   0  0  0  0  0  0  0  0  0  0  0  0
    3.5503   -2.1730   25.1793 C   0  0  0  0  0  0  0  0  0  0  0  0
    4.6887   -2.8356   24.6741 C   0  0  0  0  0  0  0  0  0  0  0  0
    5.8385   -2.0965   24.4451 N   0  0  0  0  0  0  0  0  0  0  0  0
    6.9219   -2.6117   23.6341 C   0  0  0  0  0  0  0  0  0  0  0  0
    7.8367   -1.4262   23.3128 C   0  0  0  0  0  0  0  0  0  0  0  0
    7.0476   -0.4657   22.4587 C   0  0  0  0  0  0  0  0  0  0  0  0
    6.2451    0.3069   22.9606 O   0  0  0  0  0  0  0  0  0  0  0  0
    7.2455   -0.6348   21.1129 N   0  0  0  0  0  0  0  0  0  0  0  0
    6.6201    0.0219   20.0218 C   0  0  0  0  0  0  0  0  0  0  0  0
    5.4196    0.7239   20.1868 C   0  0  0  0  0  0  0  0  0  0  0  0
    4.8473    1.3315   19.0603 C   0  0  0  0  0  0  0  0  0  0  0  0
    5.4918    1.2379   17.8244 C   0  0  0  0  0  0  0  0  0  0  0  0
    6.6434    0.5667   17.6498 N   0  0  0  0  0  0  0  0  0  0  0  0
    7.1839   -0.0220   18.7245 C   0  0  0  0  0  0  0  0  0  0  0  0
    8.1159   -0.5623   18.5557 H   0  0  0  0  0  0  0  0  0  0  0  0
    5.0792    1.7180   16.9383 H   0  0  0  0  0  0  0  0  0  0  0  0
    3.9168    1.8853   19.1368 H   0  0  0  0  0  0  0  0  0  0  0  0
    4.9761    0.7789   21.1755 H   0  0  0  0  0  0  0  0  0  0  0  0
    7.8671   -1.3963   20.8881 H   0  0  0  0  0  0  0  0  0  0  0  0
    8.0977   -0.8979   24.2346 H   0  0  0  0  0  0  0  0  0  0  0  0
    8.7555   -1.7552   22.8212 H   0  0  0  0  0  0  0  0  0  0  0  0
    7.4588   -3.3927   24.1863 H   0  0  0  0  0  0  0  0  0  0  0  0
    6.5664   -3.1027   22.7017 H   0  0  0  0  0  0  0  0  0  0  0  0
    5.5865   -1.1447   24.1851 H   0  0  0  0  0  0  0  0  0  0  0  0
    4.6333   -4.1963   24.3940 C   0  0  0  0  0  0  0  0  0  0  0  0
    5.5179   -4.7316   24.0764 H   0  0  0  0  0  0  0  0  0  0  0  0
    3.6406   -1.1253   25.4492 H   0  0  0  0  0  0  0  0  0  0  0  0
    1.4678   -2.3388   25.6828 H   0  0  0  0  0  0  0  0  0  0  0  0
    1.3317   -4.7539   25.0518 H   0  0  0  0  0  0  0  0  0  0  0  0
    1.4759   -6.7268   23.8631 H   0  0  0  0  0  0  0  0  0  0  0  0
    2.0635   -7.0045   25.5247 H   0  0  0  0  0  0  0  0  0  0  0  0
    2.6694   -8.0271   24.1854 H   0  0  0  0  0  0  0  0  0  0  0  0
  1  2  1  0
  2  3  1  0
  3  4  2  0
  4  5  1  0
  5  6  2  0
  6  7  1  0
  7  8  1  0
  8  9  1  0
  9 10  1  0
 10 11  1  0
 11 12  2  0
 11 13  1  0
 13 14  1  0
 14 15  2  0
 15 16  1  0
 16 17  2  0
 17 18  1  0
 18 19  2  0
 19 20  1  0
 17 21  1  0
 16 22  1  0
 15 23  1  0
 13 24  1  0
 10 25  1  0
 10 26  1  0
  9 27  1  0
  9 28  1  0
  8 29  1  0
  7 30  2  0
 30 31  1  0
  6 32  1  0
  5 33  1  0
  4 34  1  0
  1 35  1  0
  1 36  1  0
  1 37  1  0
 30  3  1  0
 19 14  1  0
M  END
>  <cnnaffinity>  (1) 
-4.88976

>  <filename>  (1) 
[H]c1nc([H])c(N([H])C(=O)C([H])([H])C([H])([H])N([H])c2c([H])c([H])c([H])c(OC([H])([H])[H])c2[H])c([H])c1[H]

$$$$
