
     RDKit          3D

 32 33  0  0  0  0  0  0  0  0999 V2000
    4.9643    1.7709   17.0152 H   0  0  0  0  0  0  0  0  0  0  0  0
    5.4262    1.2599   17.8579 C   0  0  0  0  0  0  0  0  0  0  0  0
    6.5857    0.6250   17.6134 N   0  0  0  0  0  0  0  0  0  0  0  0
    7.1946    0.0156   18.6382 C   0  0  0  0  0  0  0  0  0  0  0  0
    8.1387   -0.4888   18.4326 H   0  0  0  0  0  0  0  0  0  0  0  0
    6.6905    0.0215   19.9573 C   0  0  0  0  0  0  0  0  0  0  0  0
    7.4464   -0.6370   20.9228 O   0  0  0  0  0  0  0  0  0  0  0  0
    7.3246   -0.3429   22.2657 C   0  0  0  0  0  0  0  0  0  0  0  0
    6.8361    0.6727   22.6886 O   0  0  0  0  0  0  0  0  0  0  0  0
    7.8461   -1.4566   23.1714 C   0  0  2  0  0  0  0  0  0  0  0  0
    8.0677   -0.9291   24.1066 H   0  0  0  0  0  0  0  0  0  0  0  0
    9.1157   -2.1530   22.6624 C   0  0  0  0  0  0  0  0  0  0  0  0
    8.9405   -2.6589   21.7053 H   0  0  0  0  0  0  0  0  0  0  0  0
    9.9316   -1.4379   22.5303 H   0  0  0  0  0  0  0  0  0  0  0  0
    9.4290   -2.9113   23.3915 H   0  0  0  0  0  0  0  0  0  0  0  0
    6.7208   -2.4922   23.4790 C   0  0  0  0  0  0  0  0  0  0  0  0
    5.8485   -1.9875   23.9106 H   0  0  0  0  0  0  0  0  0  0  0  0
    7.0885   -3.1783   24.2521 H   0  0  0  0  0  0  0  0  0  0  0  0
    6.3456   -3.2773   22.2536 C   0  0  0  0  0  0  0  0  0  0  0  0
    6.8699   -4.5450   21.9970 C   0  0  0  0  0  0  0  0  0  0  0  0
    7.5154   -5.0289   22.7175 H   0  0  0  0  0  0  0  0  0  0  0  0
    6.6140   -5.1529   20.7662 C   0  0  0  0  0  0  0  0  0  0  0  0
    6.9695   -6.1617   20.5920 H   0  0  0  0  0  0  0  0  0  0  0  0
    5.9317   -4.5726   19.7720 N   0  0  0  0  0  0  0  0  0  0  0  0
    5.4735   -3.3339   20.0154 C   0  0  0  0  0  0  0  0  0  0  0  0
    4.9950   -2.8192   19.1861 H   0  0  0  0  0  0  0  0  0  0  0  0
    5.5750   -2.6957   21.2529 C   0  0  0  0  0  0  0  0  0  0  0  0
    5.1128   -1.7320   21.4236 H   0  0  0  0  0  0  0  0  0  0  0  0
    5.4568    0.6390   20.1943 C   0  0  0  0  0  0  0  0  0  0  0  0
    5.0238    0.6504   21.1924 H   0  0  0  0  0  0  0  0  0  0  0  0
    4.8242    1.2774   19.1181 C   0  0  0  0  0  0  0  0  0  0  0  0
    3.8860    1.8050   19.2591 H   0  0  0  0  0  0  0  0  0  0  0  0
  1  2  1  0
  2  3  2  0
  3  4  1  0
  4  5  1  0
  4  6  2  0
  6  7  1  0
  7  8  1  0
  8  9  2  0
  8 10  1  0
 10 11  1  1
 10 12  1  0
 12 13  1  0
 12 14  1  0
 12 15  1  0
 10 16  1  0
 16 17  1  0
 16 18  1  0
 16 19  1  0
 19 20  2  0
 20 21  1  0
 20 22  1  0
 22 23  1  0
 22 24  2  0
 24 25  1  0
 25 26  1  0
 25 27  2  0
 27 28  1  0
  6 29  1  0
 29 30  1  0
 29 31  2  0
 31 32  1  0
 31  2  1  0
 27 19  1  0
M  END
>  <cnnaffinity>  (1) 
-4.49785

>  <filename>  (1) 
[H]c1nc([H])c(OC(=O)[C@]([H])(C([H])([H])[H])C([H])([H])c2c([H])c([H])nc([H])c2[H])c([H])c1[H]

$$$$
