
     RDKit          3D

 33 34  0  0  0  0  0  0  0  0999 V2000
    5.0452    1.8924   16.9903 H   0  0  0  0  0  0  0  0  0  0  0  0
    5.4881    1.3025   17.7911 C   0  0  0  0  0  0  0  0  0  0  0  0
    6.6485    0.6932   17.5081 N   0  0  0  0  0  0  0  0  0  0  0  0
    7.2167   -0.0187   18.4904 C   0  0  0  0  0  0  0  0  0  0  0  0
    8.1717   -0.4820   18.2442 H   0  0  0  0  0  0  0  0  0  0  0  0
    6.6746   -0.1823   19.7794 C   0  0  0  0  0  0  0  0  0  0  0  0
    7.4181   -0.9716   20.8639 C   0  0  2  0  0  0  0  0  0  0  0  0
    8.3561   -1.3340   20.4231 H   0  0  0  0  0  0  0  0  0  0  0  0
    6.7066   -2.2945   21.2199 C   0  0  0  0  0  0  0  0  0  0  0  0
    6.7879   -3.2895   20.5377 O   0  0  0  0  0  0  0  0  0  0  0  0
    5.9867   -2.2548   22.3591 O   0  0  0  0  0  0  0  0  0  0  0  0
    5.4400   -3.5106   22.8487 C   0  0  0  0  0  0  0  0  0  0  0  0
    5.2107   -4.1796   22.0165 H   0  0  0  0  0  0  0  0  0  0  0  0
    4.5078   -3.2276   23.3449 H   0  0  0  0  0  0  0  0  0  0  0  0
    6.3958   -4.1215   23.8474 C   0  0  0  0  0  0  0  0  0  0  0  0
    7.1179   -5.3028   23.6050 C   0  0  0  0  0  0  0  0  0  0  0  0
    6.9788   -5.8292   22.6574 H   0  0  0  0  0  0  0  0  0  0  0  0
    8.0386   -5.7623   24.5570 C   0  0  0  0  0  0  0  0  0  0  0  0
    8.6362   -6.6535   24.3943 H   0  0  0  0  0  0  0  0  0  0  0  0
    8.2492   -5.0424   25.7418 C   0  0  0  0  0  0  0  0  0  0  0  0
    9.3840   -5.6318   26.9053 Cl  0  0  0  0  0  0  0  0  0  0  0  0
    7.5586   -3.8364   25.9585 C   0  0  0  0  0  0  0  0  0  0  0  0
    7.8514   -2.8355   27.3326 Cl  0  0  0  0  0  0  0  0  0  0  0  0
    6.6299   -3.3974   25.0227 C   0  0  0  0  0  0  0  0  0  0  0  0
    6.1242   -2.4434   25.1569 H   0  0  0  0  0  0  0  0  0  0  0  0
    7.7541   -0.0905   22.0821 C   0  0  0  0  0  0  0  0  0  0  0  0
    8.3320   -0.6637   22.8127 H   0  0  0  0  0  0  0  0  0  0  0  0
    8.3491    0.7779   21.7761 H   0  0  0  0  0  0  0  0  0  0  0  0
    6.8475    0.2701   22.5809 H   0  0  0  0  0  0  0  0  0  0  0  0
    5.4543    0.4523   20.0428 C   0  0  0  0  0  0  0  0  0  0  0  0
    4.9890    0.3595   21.0266 H   0  0  0  0  0  0  0  0  0  0  0  0
    4.8522    1.2077   19.0329 C   0  0  0  0  0  0  0  0  0  0  0  0
    3.9215    1.7360   19.2037 H   0  0  0  0  0  0  0  0  0  0  0  0
  1  2  1  0
  2  3  2  0
  3  4  1  0
  4  5  1  0
  4  6  2  0
  6  7  1  0
  7  8  1  6
  7  9  1  0
  9 10  2  0
  9 11  1  0
 11 12  1  0
 12 13  1  0
 12 14  1  0
 12 15  1  0
 15 16  2  0
 16 17  1  0
 16 18  1  0
 18 19  1  0
 18 20  2  0
 20 21  1  0
 20 22  1  0
 22 23  1  0
 22 24  2  0
 24 25  1  0
  7 26  1  0
 26 27  1  0
 26 28  1  0
 26 29  1  0
  6 30  1  0
 30 31  1  0
 30 32  2  0
 32 33  1  0
 32  2  1  0
 24 15  1  0
M  END
>  <cnnaffinity>  (1) 
-4.83367

>  <filename>  (1) 
[H]c1nc([H])c([C@]([H])(C(=O)OC([H])([H])c2c([H])c([H])c(Cl)c(Cl)c2[H])C([H])([H])[H])c([H])c1[H]

$$$$
