
     RDKit          3D

 36 39  0  0  0  0  0  0  0  0999 V2000
    4.9622    1.7919   16.9536 H   0  0  0  0  0  0  0  0  0  0  0  0
    5.4130    1.3028   17.8162 C   0  0  0  0  0  0  0  0  0  0  0  0
    6.5744    0.6708   17.5898 N   0  0  0  0  0  0  0  0  0  0  0  0
    7.1461    0.0638   18.6395 C   0  0  0  0  0  0  0  0  0  0  0  0
    8.0969   -0.4361   18.4621 H   0  0  0  0  0  0  0  0  0  0  0  0
    6.6082    0.0379   19.9399 C   0  0  0  0  0  0  0  0  0  0  0  0
    7.3227   -0.6716   21.0564 C   0  0  0  0  0  0  0  0  0  0  0  0
    8.4142    0.1482   21.7495 C   0  0  0  0  0  0  0  0  0  0  0  0
    9.5694    0.2006   21.4229 O   0  0  0  0  0  0  0  0  0  0  0  0
    7.8774    0.8051   22.8141 O   0  0  0  0  0  0  0  0  0  0  0  0
    8.5423    1.8129   23.4927 C   0  0  0  0  0  0  0  0  0  0  0  0
    9.3624    2.7011   22.8408 C   0  0  0  0  0  0  0  0  0  0  0  0
    9.6028    2.5556   21.7956 H   0  0  0  0  0  0  0  0  0  0  0  0
    9.8916    3.8111   23.5418 C   0  0  0  0  0  0  0  0  0  0  0  0
   10.5819    4.4587   23.0121 H   0  0  0  0  0  0  0  0  0  0  0  0
    9.5579    4.0640   24.8499 C   0  0  0  0  0  0  0  0  0  0  0  0
    9.9661    4.9307   25.3625 H   0  0  0  0  0  0  0  0  0  0  0  0
    8.7042    3.1612   25.5528 C   0  0  0  0  0  0  0  0  0  0  0  0
    8.2857    3.3607   26.9040 C   0  0  0  0  0  0  0  0  0  0  0  0
    8.4902    4.3106   27.4000 H   0  0  0  0  0  0  0  0  0  0  0  0
    7.6311    2.3458   27.5605 C   0  0  0  0  0  0  0  0  0  0  0  0
    7.3527    2.4147   28.6076 H   0  0  0  0  0  0  0  0  0  0  0  0
    7.3344    1.1452   26.8517 C   0  0  0  0  0  0  0  0  0  0  0  0
    6.8646    0.3044   27.3623 H   0  0  0  0  0  0  0  0  0  0  0  0
    7.5981    0.9659   25.5768 N   0  0  0  0  0  0  0  0  0  0  0  0
    8.2485    1.9635   24.9036 C   0  0  0  0  0  0  0  0  0  0  0  0
    7.5513   -2.1592   20.9011 C   0  0  0  0  0  0  0  0  0  0  0  0
    8.5282   -2.5571   21.1668 H   0  0  0  0  0  0  0  0  0  0  0  0
    7.0609   -2.6166   20.0476 H   0  0  0  0  0  0  0  0  0  0  0  0
    6.5900   -1.6625   21.9308 C   0  0  0  0  0  0  0  0  0  0  0  0
    6.8831   -1.6731   22.9762 H   0  0  0  0  0  0  0  0  0  0  0  0
    5.5312   -1.8191   21.7430 H   0  0  0  0  0  0  0  0  0  0  0  0
    5.4087    0.7213   20.1547 C   0  0  0  0  0  0  0  0  0  0  0  0
    4.9854    0.7526   21.1618 H   0  0  0  0  0  0  0  0  0  0  0  0
    4.7940    1.3545   19.0717 C   0  0  0  0  0  0  0  0  0  0  0  0
    3.8603    1.8895   19.1879 H   0  0  0  0  0  0  0  0  0  0  0  0
  1  2  1  0
  2  3  2  0
  3  4  1  0
  4  5  1  0
  4  6  2  0
  6  7  1  0
  7  8  1  0
  8  9  2  0
  8 10  1  0
 10 11  1  0
 11 12  2  0
 12 13  1  0
 12 14  1  0
 14 15  1  0
 14 16  2  0
 16 17  1  0
 16 18  1  0
 18 19  2  0
 19 20  1  0
 19 21  1  0
 21 22  1  0
 21 23  2  0
 23 24  1  0
 23 25  1  0
 25 26  2  0
  7 27  1  0
 27 28  1  0
 27 29  1  0
 27 30  1  0
 30 31  1  0
 30 32  1  0
  6 33  1  0
 33 34  1  0
 33 35  2  0
 35 36  1  0
 35  2  1  0
 30  7  1  0
 26 11  1  0
 26 18  1  0
M  END
>  <cnnaffinity>  (1) 
-5.06007

>  <filename>  (1) 
[H]c1nc([H])c(C2(C(=O)Oc3c([H])c([H])c([H])c4c([H])c([H])c([H])nc34)C([H])([H])C2([H])[H])c([H])c1[H]

$$$$
