
     RDKit          3D

 40 42  0  0  0  0  0  0  0  0999 V2000
    4.9197    1.8574   16.8616 H   0  0  0  0  0  0  0  0  0  0  0  0
    5.3637    1.3563   17.7207 C   0  0  0  0  0  0  0  0  0  0  0  0
    6.5242    0.7206   17.4955 N   0  0  0  0  0  0  0  0  0  0  0  0
    7.1085    0.0922   18.5285 C   0  0  0  0  0  0  0  0  0  0  0  0
    8.0219   -0.4560   18.2994 H   0  0  0  0  0  0  0  0  0  0  0  0
    6.5887    0.0659   19.8513 C   0  0  0  0  0  0  0  0  0  0  0  0
    7.2267   -0.5685   20.9417 N   0  0  0  0  0  0  0  0  0  0  0  0
    6.6335   -1.0690   21.5938 H   0  0  0  0  0  0  0  0  0  0  0  0
    8.5955   -0.5188   21.3019 C   0  0  0  0  0  0  0  0  0  0  0  0
    9.5912    0.3344   20.7678 C   0  0  0  0  0  0  0  0  0  0  0  0
    9.4575    1.0649   19.9890 H   0  0  0  0  0  0  0  0  0  0  0  0
   10.7890    0.1582   21.3101 N   0  0  0  0  0  0  0  0  0  0  0  0
   10.5776   -0.8306   22.1962 N   0  0  0  0  0  0  0  0  0  0  0  0
   11.3239   -1.1918   22.7689 H   0  0  0  0  0  0  0  0  0  0  0  0
    9.2876   -1.2708   22.2573 C   0  0  0  0  0  0  0  0  0  0  0  0
    8.9545   -2.2668   23.1815 N   0  0  0  0  0  0  0  0  0  0  0  0
    9.7150   -3.5144   23.2127 C   0  0  0  0  0  0  0  0  0  0  0  0
   10.5033   -3.4280   22.4597 H   0  0  0  0  0  0  0  0  0  0  0  0
    9.0701   -4.3535   22.9258 H   0  0  0  0  0  0  0  0  0  0  0  0
   10.3718   -3.9074   24.5426 C   0  0  0  0  0  0  0  0  0  0  0  0
   11.0373   -3.1048   24.8931 H   0  0  0  0  0  0  0  0  0  0  0  0
   11.0377   -4.7496   24.3270 H   0  0  0  0  0  0  0  0  0  0  0  0
    9.3929   -4.3213   25.5437 N   0  0  0  0  0  0  0  0  0  0  0  0
    9.8246   -5.4761   26.3108 C   0  0  0  0  0  0  0  0  0  0  0  0
   10.7928   -5.3209   26.8227 H   0  0  0  0  0  0  0  0  0  0  0  0
    9.0779   -5.7444   27.0632 H   0  0  0  0  0  0  0  0  0  0  0  0
    9.9259   -6.3373   25.6399 H   0  0  0  0  0  0  0  0  0  0  0  0
    8.8183   -3.2526   26.3598 C   0  0  0  0  0  0  0  0  0  0  0  0
    7.8257   -3.6096   26.6708 H   0  0  0  0  0  0  0  0  0  0  0  0
    9.4040   -3.0952   27.2870 H   0  0  0  0  0  0  0  0  0  0  0  0
    8.6413   -1.9095   25.6340 C   0  0  0  0  0  0  0  0  0  0  0  0
    9.6149   -1.4195   25.5156 H   0  0  0  0  0  0  0  0  0  0  0  0
    8.0586   -1.2481   26.2842 H   0  0  0  0  0  0  0  0  0  0  0  0
    7.9833   -2.0035   24.2411 C   0  0  0  0  0  0  0  0  0  0  0  0
    7.5107   -1.0515   23.9735 H   0  0  0  0  0  0  0  0  0  0  0  0
    7.1913   -2.7733   24.2508 H   0  0  0  0  0  0  0  0  0  0  0  0
    5.3425    0.6915   20.0412 C   0  0  0  0  0  0  0  0  0  0  0  0
    4.8823    0.6686   21.0266 H   0  0  0  0  0  0  0  0  0  0  0  0
    4.7311    1.3550   18.9688 C   0  0  0  0  0  0  0  0  0  0  0  0
    3.7781    1.8649   19.0822 H   0  0  0  0  0  0  0  0  0  0  0  0
  1  2  1  0
  2  3  2  0
  3  4  1  0
  4  5  1  0
  4  6  2  0
  6  7  1  0
  7  8  1  0
  7  9  1  0
  9 10  1  0
 10 11  1  0
 10 12  2  0
 12 13  1  0
 13 14  1  0
 13 15  1  0
 15 16  1  0
 16 17  1  0
 17 18  1  0
 17 19  1  0
 17 20  1  0
 20 21  1  0
 20 22  1  0
 20 23  1  0
 23 24  1  0
 24 25  1  0
 24 26  1  0
 24 27  1  0
 23 28  1  0
 28 29  1  0
 28 30  1  0
 28 31  1  0
 31 32  1  0
 31 33  1  0
 31 34  1  0
 34 35  1  0
 34 36  1  0
  6 37  1  0
 37 38  1  0
 37 39  2  0
 39 40  1  0
 39  2  1  0
 15  9  2  0
 34 16  1  0
M  END
>  <cnnaffinity>  (1) 
-5.36025

>  <filename>  (1) 
[H]c1nc([H])c(N([H])c2c([H])nn([H])c2N2C([H])([H])C([H])([H])N(C([H])([H])[H])C([H])([H])C([H])([H])C2([H])[H])c([H])c1[H]

$$$$
