
     RDKit          3D

 29 30  0  0  0  0  0  0  0  0999 V2000
    4.9669    1.7698   17.0098 H   0  0  0  0  0  0  0  0  0  0  0  0
    5.4169    1.2834   17.8729 C   0  0  0  0  0  0  0  0  0  0  0  0
    6.5796    0.6597   17.6421 N   0  0  0  0  0  0  0  0  0  0  0  0
    7.1727    0.0625   18.6743 C   0  0  0  0  0  0  0  0  0  0  0  0
    8.1057   -0.4502   18.4527 H   0  0  0  0  0  0  0  0  0  0  0  0
    6.6555    0.0519   19.9778 C   0  0  0  0  0  0  0  0  0  0  0  0
    7.4483   -0.7455   20.9591 C   0  0  0  0  0  0  0  0  0  0  0  0
    8.2017   -1.6170   20.6012 O   0  0  0  0  0  0  0  0  0  0  0  0
    7.2700   -0.3866   22.2889 N   0  0  0  0  0  0  0  0  0  0  0  0
    6.9117    0.5314   22.4874 H   0  0  0  0  0  0  0  0  0  0  0  0
    7.6644   -1.1828   23.3616 C   0  0  0  0  0  0  0  0  0  0  0  0
    8.0321   -2.3241   23.2012 O   0  0  0  0  0  0  0  0  0  0  0  0
    7.5945   -0.5654   24.7991 C   0  0  0  0  0  0  0  0  0  0  0  0
    7.1593    0.6934   24.9905 N   0  0  0  0  0  0  0  0  0  0  0  0
    7.1137    1.1905   26.2403 C   0  0  0  0  0  0  0  0  0  0  0  0
    6.6140    2.6400   26.4540 C   0  0  0  0  0  0  0  0  0  0  0  0
    5.5385    2.6640   27.2714 F   0  0  0  0  0  0  0  0  0  0  0  0
    6.2675    3.2705   25.3308 F   0  0  0  0  0  0  0  0  0  0  0  0
    7.5578    3.3947   27.0585 F   0  0  0  0  0  0  0  0  0  0  0  0
    7.5066    0.4399   27.3625 C   0  0  0  0  0  0  0  0  0  0  0  0
    7.4562    0.8716   28.3568 H   0  0  0  0  0  0  0  0  0  0  0  0
    7.9691   -0.8639   27.1634 C   0  0  0  0  0  0  0  0  0  0  0  0
    8.3141   -1.4846   27.9865 H   0  0  0  0  0  0  0  0  0  0  0  0
    8.0093   -1.3806   25.8732 C   0  0  0  0  0  0  0  0  0  0  0  0
    8.3506   -2.3887   25.6647 H   0  0  0  0  0  0  0  0  0  0  0  0
    5.4226    0.6863   20.2071 C   0  0  0  0  0  0  0  0  0  0  0  0
    4.9224    0.6662   21.1789 H   0  0  0  0  0  0  0  0  0  0  0  0
    4.8013    1.3177   19.1280 C   0  0  0  0  0  0  0  0  0  0  0  0
    3.8587    1.8415   19.2403 H   0  0  0  0  0  0  0  0  0  0  0  0
  1  2  1  0
  2  3  2  0
  3  4  1  0
  4  5  1  0
  4  6  2  0
  6  7  1  0
  7  8  2  0
  7  9  1  0
  9 10  1  0
  9 11  1  0
 11 12  2  0
 11 13  1  0
 13 14  2  0
 14 15  1  0
 15 16  1  0
 16 17  1  0
 16 18  1  0
 16 19  1  0
 15 20  2  0
 20 21  1  0
 20 22  1  0
 22 23  1  0
 22 24  2  0
 24 25  1  0
  6 26  1  0
 26 27  1  0
 26 28  2  0
 28 29  1  0
 28  2  1  0
 24 13  1  0
M  END
>  <cnnaffinity>  (1) 
-4.87209

>  <filename>  (1) 
[H]c1nc([H])c(C(=O)N([H])C(=O)c2nc(C(F)(F)F)c([H])c([H])c2[H])c([H])c1[H]

$$$$
