
     RDKit          3D

 39 42  0  0  0  0  0  0  0  0999 V2000
    4.9785    1.8049   16.9433 H   0  0  0  0  0  0  0  0  0  0  0  0
    5.4237    1.3097   17.8042 C   0  0  0  0  0  0  0  0  0  0  0  0
    6.5906    0.6827   17.5858 N   0  0  0  0  0  0  0  0  0  0  0  0
    7.1535    0.0686   18.6360 C   0  0  0  0  0  0  0  0  0  0  0  0
    8.1043   -0.4346   18.4596 H   0  0  0  0  0  0  0  0  0  0  0  0
    6.5960    0.0276   19.9242 C   0  0  0  0  0  0  0  0  0  0  0  0
    7.3118   -0.6895   21.0329 C   0  0  0  0  0  0  0  0  0  0  0  0
    8.3396    0.1262   21.7605 C   0  0  0  0  0  0  0  0  0  0  0  0
    9.5998    0.2401   21.4723 N   0  0  0  0  0  0  0  0  0  0  0  0
   10.2719    1.0486   22.3573 N   0  0  0  0  0  0  0  0  0  0  0  0
    9.4931    1.5295   23.2829 C   0  0  0  0  0  0  0  0  0  0  0  0
    9.9100    2.5194   24.3420 C   0  0  1  0  0  0  0  0  0  0  0  0
   10.9657    2.3024   24.5374 H   0  0  0  0  0  0  0  0  0  0  0  0
    9.8158    3.9320   23.7752 C   0  0  0  0  0  0  0  0  0  0  0  0
   10.9803    4.6878   23.6150 C   0  0  0  0  0  0  0  0  0  0  0  0
   11.9494    4.2294   23.8005 H   0  0  0  0  0  0  0  0  0  0  0  0
   10.9147    6.0205   23.2002 C   0  0  0  0  0  0  0  0  0  0  0  0
   11.8241    6.6061   23.1905 H   0  0  0  0  0  0  0  0  0  0  0  0
    9.6840    6.5844   22.8516 C   0  0  0  0  0  0  0  0  0  0  0  0
    9.6363    7.6147   22.5179 H   0  0  0  0  0  0  0  0  0  0  0  0
    8.5222    5.8092   22.9356 C   0  0  0  0  0  0  0  0  0  0  0  0
    7.5665    6.2228   22.6220 H   0  0  0  0  0  0  0  0  0  0  0  0
    8.5811    4.4959   23.4126 C   0  0  0  0  0  0  0  0  0  0  0  0
    7.6603    3.9197   23.5012 H   0  0  0  0  0  0  0  0  0  0  0  0
    9.1362    2.3908   25.6701 C   0  0  0  0  0  0  0  0  0  0  0  0
    9.4275    1.4772   26.1955 H   0  0  0  0  0  0  0  0  0  0  0  0
    8.0530    2.3642   25.5144 H   0  0  0  0  0  0  0  0  0  0  0  0
    9.3473    3.2476   26.3172 H   0  0  0  0  0  0  0  0  0  0  0  0
    7.8507    1.0162   23.1578 S   0  0  0  0  0  0  0  0  0  0  0  0
    6.5701   -1.6791   21.9067 C   0  0  0  0  0  0  0  0  0  0  0  0
    6.8816   -1.7012   22.9477 H   0  0  0  0  0  0  0  0  0  0  0  0
    5.5095   -1.8187   21.7295 H   0  0  0  0  0  0  0  0  0  0  0  0
    7.5257   -2.1792   20.8822 C   0  0  0  0  0  0  0  0  0  0  0  0
    7.0437   -2.6350   20.0239 H   0  0  0  0  0  0  0  0  0  0  0  0
    8.4895   -2.5827   21.1768 H   0  0  0  0  0  0  0  0  0  0  0  0
    5.3893    0.7021   20.1335 C   0  0  0  0  0  0  0  0  0  0  0  0
    4.9422    0.7095   21.1301 H   0  0  0  0  0  0  0  0  0  0  0  0
    4.7880    1.3477   19.0516 C   0  0  0  0  0  0  0  0  0  0  0  0
    3.8522    1.8820   19.1660 H   0  0  0  0  0  0  0  0  0  0  0  0
  1  2  1  0
  2  3  2  0
  3  4  1  0
  4  5  1  0
  4  6  2  0
  6  7  1  0
  7  8  1  0
  8  9  2  0
  9 10  1  0
 10 11  2  0
 11 12  1  0
 12 13  1  1
 12 14  1  0
 14 15  2  0
 15 16  1  0
 15 17  1  0
 17 18  1  0
 17 19  2  0
 19 20  1  0
 19 21  1  0
 21 22  1  0
 21 23  2  0
 23 24  1  0
 12 25  1  0
 25 26  1  0
 25 27  1  0
 25 28  1  0
 11 29  1  0
  7 30  1  0
 30 31  1  0
 30 32  1  0
 30 33  1  0
 33 34  1  0
 33 35  1  0
  6 36  1  0
 36 37  1  0
 36 38  2  0
 38 39  1  0
 38  2  1  0
 33  7  1  0
 29  8  1  0
 23 14  1  0
M  END
>  <cnnaffinity>  (1) 
-5.48449

>  <filename>  (1) 
[H]c1nc([H])c(C2(c3nnc([C@@]([H])(c4c([H])c([H])c([H])c([H])c4[H])C([H])([H])[H])s3)C([H])([H])C2([H])[H])c([H])c1[H]

$$$$
