
     RDKit          3D

 39 42  0  0  0  0  0  0  0  0999 V2000
    7.0898   -4.0213   24.8212 O   0  0  0  0  0  0  0  0  0  0  0  0
    6.5336   -2.9719   24.5901 C   0  0  0  0  0  0  0  0  0  0  0  0
    7.3113   -1.6892   24.4779 C   0  0  0  0  0  0  0  0  0  0  0  0
    7.7032   -1.5248   23.0529 C   0  0  0  0  0  0  0  0  0  0  0  0
    8.8125   -2.0258   22.4571 C   0  0  0  0  0  0  0  0  0  0  0  0
    8.8575   -1.5516   20.8073 S   0  0  0  0  0  0  0  0  0  0  0  0
    7.3279   -0.7305   21.0263 C   0  0  0  0  0  0  0  0  0  0  0  0
    6.6373   -0.0103   19.9448 C   0  0  0  0  0  0  0  0  0  0  0  0
    5.4183    0.6574   20.1745 C   0  0  0  0  0  0  0  0  0  0  0  0
    4.8008    1.3080   19.1082 C   0  0  0  0  0  0  0  0  0  0  0  0
    5.4276    1.2769   17.8566 C   0  0  0  0  0  0  0  0  0  0  0  0
    6.5883    0.6461   17.6199 N   0  0  0  0  0  0  0  0  0  0  0  0
    7.1777    0.0276   18.6471 C   0  0  0  0  0  0  0  0  0  0  0  0
    8.1294   -0.4580   18.4283 H   0  0  0  0  0  0  0  0  0  0  0  0
    4.9782    1.7856   17.0077 H   0  0  0  0  0  0  0  0  0  0  0  0
    3.8641    1.8454   19.2349 H   0  0  0  0  0  0  0  0  0  0  0  0
    4.9791    0.6636   21.1738 H   0  0  0  0  0  0  0  0  0  0  0  0
    6.8555   -0.8310   22.2377 N   0  0  0  0  0  0  0  0  0  0  0  0
    9.5902   -2.6150   22.9140 H   0  0  0  0  0  0  0  0  0  0  0  0
    6.7031   -0.8368   24.7764 H   0  0  0  0  0  0  0  0  0  0  0  0
    8.1735   -1.8014   25.1371 H   0  0  0  0  0  0  0  0  0  0  0  0
    5.1806   -2.8557   24.3960 N   0  0  0  0  0  0  0  0  0  0  0  0
    4.3228   -3.9576   24.1611 C   0  0  0  0  0  0  0  0  0  0  0  0
    4.7671   -5.0446   23.4377 C   0  0  0  0  0  0  0  0  0  0  0  0
    3.9273   -6.1620   23.2029 C   0  0  0  0  0  0  0  0  0  0  0  0
    2.6458   -6.1806   23.7075 C   0  0  0  0  0  0  0  0  0  0  0  0
    2.1474   -5.0709   24.4525 C   0  0  0  0  0  0  0  0  0  0  0  0
    0.8334   -5.0401   25.0036 C   0  0  0  0  0  0  0  0  0  0  0  0
    0.4316   -3.9344   25.7099 C   0  0  0  0  0  0  0  0  0  0  0  0
    1.2128   -2.8421   25.9285 N   0  0  0  0  0  0  0  0  0  0  0  0
    2.4411   -2.8538   25.4403 C   0  0  0  0  0  0  0  0  0  0  0  0
    2.9883   -3.9307   24.6802 C   0  0  0  0  0  0  0  0  0  0  0  0
    3.0486   -1.9719   25.6554 H   0  0  0  0  0  0  0  0  0  0  0  0
   -0.5681   -3.8849   26.1448 H   0  0  0  0  0  0  0  0  0  0  0  0
    0.1641   -5.8870   24.8730 H   0  0  0  0  0  0  0  0  0  0  0  0
    2.0091   -7.0488   23.5684 H   0  0  0  0  0  0  0  0  0  0  0  0
    4.3177   -7.0088   22.6374 H   0  0  0  0  0  0  0  0  0  0  0  0
    5.7841   -5.0355   23.0672 H   0  0  0  0  0  0  0  0  0  0  0  0
    4.8959   -1.9831   23.9862 H   0  0  0  0  0  0  0  0  0  0  0  0
  1  2  2  0
  2  3  1  0
  3  4  1  0
  4  5  2  0
  5  6  1  0
  6  7  1  0
  7  8  1  0
  8  9  2  0
  9 10  1  0
 10 11  2  0
 11 12  1  0
 12 13  2  0
 13 14  1  0
 11 15  1  0
 10 16  1  0
  9 17  1  0
  7 18  2  0
  5 19  1  0
  3 20  1  0
  3 21  1  0
  2 22  1  0
 22 23  1  0
 23 24  2  0
 24 25  1  0
 25 26  2  0
 26 27  1  0
 27 28  2  0
 28 29  1  0
 29 30  2  0
 30 31  1  0
 31 32  2  0
 31 33  1  0
 29 34  1  0
 28 35  1  0
 26 36  1  0
 25 37  1  0
 24 38  1  0
 22 39  1  0
 18  4  1  0
 32 23  1  0
 13  8  1  0
 32 27  1  0
M  END
>  <cnnaffinity>  (1) 
-5.96493

>  <filename>  (1) 
[H]c1nc([H])c(-c2nc(C([H])([H])C(=O)N([H])c3c([H])c([H])c([H])c4c([H])c([H])nc([H])c34)c([H])s2)c([H])c1[H]

$$$$
