
     RDKit          3D

 27 29  0  0  0  0  0  0  0  0999 V2000
    5.3773   -1.9209   21.2364 H   0  0  0  0  0  0  0  0  0  0  0  0
    6.2158   -2.5741   21.4676 C   0  0  0  0  0  0  0  0  0  0  0  0
    5.9414   -3.8458   21.8797 C   0  0  0  0  0  0  0  0  0  0  0  0
    4.2881   -4.3529   22.2295 S   0  0  0  0  0  0  0  0  0  0  0  0
    4.7996   -6.0383   22.5494 C   0  0  0  0  0  0  0  0  0  0  0  0
    4.1067   -6.9358   22.9259 O   0  0  0  0  0  0  0  0  0  0  0  0
    6.1432   -6.1347   22.3107 N   0  0  0  0  0  0  0  0  0  0  0  0
    6.6296   -6.9762   22.5541 H   0  0  0  0  0  0  0  0  0  0  0  0
    6.8584   -5.0031   22.0529 C   0  0  0  0  0  0  0  0  0  0  0  0
    8.0753   -5.0514   21.9841 O   0  0  0  0  0  0  0  0  0  0  0  0
    7.4953   -1.9605   21.3261 C   0  0  0  0  0  0  0  0  0  0  0  0
    7.8511   -0.7669   20.6915 C   0  0  0  0  0  0  0  0  0  0  0  0
    7.0212    0.0227   19.7910 C   0  0  0  0  0  0  0  0  0  0  0  0
    7.5500    0.2639   18.5123 C   0  0  0  0  0  0  0  0  0  0  0  0
    8.5501   -0.0881   18.2689 H   0  0  0  0  0  0  0  0  0  0  0  0
    6.8830    0.8651   17.5301 N   0  0  0  0  0  0  0  0  0  0  0  0
    5.6497    1.3137   17.8107 C   0  0  0  0  0  0  0  0  0  0  0  0
    5.1500    1.8520   17.0082 H   0  0  0  0  0  0  0  0  0  0  0  0
    5.0272    1.1430   19.0525 C   0  0  0  0  0  0  0  0  0  0  0  0
    4.0165    1.5112   19.1965 H   0  0  0  0  0  0  0  0  0  0  0  0
    5.7195    0.4773   20.0676 C   0  0  0  0  0  0  0  0  0  0  0  0
    5.2683    0.3420   21.0547 H   0  0  0  0  0  0  0  0  0  0  0  0
    9.1942   -0.5574   20.8144 N   0  0  0  0  0  0  0  0  0  0  0  0
    9.6498   -1.5574   21.5233 C   0  0  0  0  0  0  0  0  0  0  0  0
   10.6828   -1.7144   21.8095 H   0  0  0  0  0  0  0  0  0  0  0  0
    8.6736   -2.4401   21.8472 N   0  0  0  0  0  0  0  0  0  0  0  0
    8.7563   -3.4305   22.0837 H   0  0  0  0  0  0  0  0  0  0  0  0
  1  2  1  0
  2  3  2  3
  3  4  1  0
  4  5  1  0
  5  6  2  0
  5  7  1  0
  7  8  1  0
  7  9  1  0
  9 10  2  0
  2 11  1  0
 11 12  2  0
 12 13  1  0
 13 14  2  0
 14 15  1  0
 14 16  1  0
 16 17  2  0
 17 18  1  0
 17 19  1  0
 19 20  1  0
 19 21  2  0
 21 22  1  0
 12 23  1  0
 23 24  2  0
 24 25  1  0
 24 26  1  0
 26 27  1  0
  9  3  1  0
 26 11  1  0
 21 13  1  0
M  END
>  <cnnaffinity>  (1) 
-4.67902

>  <filename>  (1) 
[H]C(=C1SC(=O)N([H])C1=O)c1c(-c2c([H])nc([H])c([H])c2[H])nc([H])n1[H]

$$$$
