
     RDKit          3D

 26 27  0  0  0  0  0  0  0  0999 V2000
    4.9242    1.8167   16.9745 H   0  0  0  0  0  0  0  0  0  0  0  0
    5.4016    1.3151   17.8165 C   0  0  0  0  0  0  0  0  0  0  0  0
    6.5648    0.6982   17.5552 N   0  0  0  0  0  0  0  0  0  0  0  0
    7.1895    0.0784   18.5641 C   0  0  0  0  0  0  0  0  0  0  0  0
    8.1336   -0.4052   18.3212 H   0  0  0  0  0  0  0  0  0  0  0  0
    6.6819    0.0160   19.8771 C   0  0  0  0  0  0  0  0  0  0  0  0
    7.3828   -0.6785   20.9503 N   0  0  0  0  0  0  0  0  0  0  0  0
    8.6501   -0.2691   21.3301 C   0  0  0  0  0  0  0  0  0  0  0  0
    9.0615    0.5439   20.7259 H   0  0  0  0  0  0  0  0  0  0  0  0
    9.3068   -0.8635   22.3620 C   0  0  0  0  0  0  0  0  0  0  0  0
   10.6243   -0.4455   22.8664 C   0  0  0  0  0  0  0  0  0  0  0  0
   10.9600   -0.5699   24.0172 O   0  0  0  0  0  0  0  0  0  0  0  0
   11.6240    0.2095   21.8116 C   0  0  0  0  0  0  0  0  0  0  0  0
   12.8540    0.3576   22.2901 F   0  0  0  0  0  0  0  0  0  0  0  0
   11.1730    1.4193   21.4081 F   0  0  0  0  0  0  0  0  0  0  0  0
   11.6884   -0.5662   20.7159 F   0  0  0  0  0  0  0  0  0  0  0  0
    8.7246   -2.0170   23.0529 C   0  0  0  0  0  0  0  0  0  0  0  0
    9.2311   -2.7354   23.8779 O   0  0  0  0  0  0  0  0  0  0  0  0
    7.4546   -2.3048   22.6310 N   0  0  0  0  0  0  0  0  0  0  0  0
    7.0255   -3.0865   23.0817 H   0  0  0  0  0  0  0  0  0  0  0  0
    6.7383   -1.7493   21.6230 C   0  0  0  0  0  0  0  0  0  0  0  0
    5.6478   -2.1867   21.3395 O   0  0  0  0  0  0  0  0  0  0  0  0
    5.4558    0.6472   20.1300 C   0  0  0  0  0  0  0  0  0  0  0  0
    5.0221    0.6066   21.1284 H   0  0  0  0  0  0  0  0  0  0  0  0
    4.8084    1.3202   19.0837 C   0  0  0  0  0  0  0  0  0  0  0  0
    3.8666    1.8483   19.2305 H   0  0  0  0  0  0  0  0  0  0  0  0
  1  2  1  0
  2  3  2  0
  3  4  1  0
  4  5  1  0
  4  6  2  0
  6  7  1  0
  7  8  1  0
  8  9  1  0
  8 10  2  0
 10 11  1  0
 11 12  2  0
 11 13  1  0
 13 14  1  0
 13 15  1  0
 13 16  1  0
 10 17  1  0
 17 18  2  0
 17 19  1  0
 19 20  1  0
 19 21  1  0
 21 22  2  0
  6 23  1  0
 23 24  1  0
 23 25  2  0
 25 26  1  0
 25  2  1  0
 21  7  1  0
M  END
>  <cnnaffinity>  (1) 
-5.07691

>  <filename>  (1) 
[H]c1nc([H])c(-n2c([H])c(C(=O)C(F)(F)F)c(=O)n([H])c2=O)c([H])c1[H]

$$$$
