
     RDKit          3D

 30 32  0  0  0  0  0  0  0  0999 V2000
    4.9288    1.8215   16.9686 H   0  0  0  0  0  0  0  0  0  0  0  0
    5.3883    1.3005   17.8088 C   0  0  0  0  0  0  0  0  0  0  0  0
    6.5474    0.6732   17.5492 N   0  0  0  0  0  0  0  0  0  0  0  0
    7.1528    0.0594   18.5733 C   0  0  0  0  0  0  0  0  0  0  0  0
    8.1061   -0.4122   18.3360 H   0  0  0  0  0  0  0  0  0  0  0  0
    6.6575    0.0218   19.8907 C   0  0  0  0  0  0  0  0  0  0  0  0
    7.3801   -0.6757   21.0105 C   0  0  0  0  0  0  0  0  0  0  0  0
    7.6326   -2.0495   20.9018 C   0  0  0  0  0  0  0  0  0  0  0  0
    7.2163   -2.5810   20.0498 H   0  0  0  0  0  0  0  0  0  0  0  0
    8.2841   -2.7839   21.8071 N   0  0  0  0  0  0  0  0  0  0  0  0
    8.6585   -2.1840   22.9447 C   0  0  0  0  0  0  0  0  0  0  0  0
    9.1607   -2.8220   23.6766 H   0  0  0  0  0  0  0  0  0  0  0  0
    8.3838   -0.8466   23.2167 C   0  0  0  0  0  0  0  0  0  0  0  0
    8.6332   -0.4096   24.1780 H   0  0  0  0  0  0  0  0  0  0  0  0
    7.7498   -0.0691   22.2337 C   0  0  0  0  0  0  0  0  0  0  0  0
    7.4999    1.3791   22.4991 C   0  0  0  0  0  0  0  0  0  0  0  0
    8.0857    2.3723   21.7087 C   0  0  0  0  0  0  0  0  0  0  0  0
    8.9077    1.9894   20.7201 F   0  0  0  0  0  0  0  0  0  0  0  0
    7.8693    3.7346   21.9046 C   0  0  0  0  0  0  0  0  0  0  0  0
    8.3853    4.4359   21.2594 H   0  0  0  0  0  0  0  0  0  0  0  0
    6.9977    4.1477   22.9180 C   0  0  0  0  0  0  0  0  0  0  0  0
    6.8123    5.2154   23.0580 H   0  0  0  0  0  0  0  0  0  0  0  0
    6.3801    3.1933   23.7356 C   0  0  0  0  0  0  0  0  0  0  0  0
    5.7022    3.4436   24.5461 H   0  0  0  0  0  0  0  0  0  0  0  0
    6.6483    1.8419   23.5120 C   0  0  0  0  0  0  0  0  0  0  0  0
    6.0279    0.9476   24.3042 F   0  0  0  0  0  0  0  0  0  0  0  0
    5.4322    0.6587   20.1261 C   0  0  0  0  0  0  0  0  0  0  0  0
    5.0211    0.6425   21.1384 H   0  0  0  0  0  0  0  0  0  0  0  0
    4.7876    1.3095   19.0722 C   0  0  0  0  0  0  0  0  0  0  0  0
    3.8571    1.8465   19.2173 H   0  0  0  0  0  0  0  0  0  0  0  0
  1  2  1  0
  2  3  2  0
  3  4  1  0
  4  5  1  0
  4  6  2  0
  6  7  1  0
  7  8  2  0
  8  9  1  0
  8 10  1  0
 10 11  2  0
 11 12  1  0
 11 13  1  0
 13 14  1  0
 13 15  2  0
 15 16  1  0
 16 17  2  0
 17 18  1  0
 17 19  1  0
 19 20  1  0
 19 21  2  0
 21 22  1  0
 21 23  1  0
 23 24  1  0
 23 25  2  0
 25 26  1  0
  6 27  1  0
 27 28  1  0
 27 29  2  0
 29 30  1  0
 29  2  1  0
 15  7  1  0
 25 16  1  0
M  END
>  <cnnaffinity>  (1) 
-4.7291

>  <filename>  (1) 
[H]c1nc([H])c(-c2c([H])nc([H])c([H])c2-c2c(F)c([H])c([H])c([H])c2F)c([H])c1[H]

$$$$
