
     RDKit          3D

 31 32  0  0  0  0  0  0  0  0999 V2000
    4.9202    1.8023   16.9766 H   0  0  0  0  0  0  0  0  0  0  0  0
    5.3936    1.2943   17.8155 C   0  0  0  0  0  0  0  0  0  0  0  0
    6.5509    0.6734   17.5524 N   0  0  0  0  0  0  0  0  0  0  0  0
    7.1675    0.0612   18.5770 C   0  0  0  0  0  0  0  0  0  0  0  0
    8.1138   -0.4139   18.3227 H   0  0  0  0  0  0  0  0  0  0  0  0
    6.6811    0.0215   19.8998 C   0  0  0  0  0  0  0  0  0  0  0  0
    7.3616   -0.7271   21.0669 C   0  0  0  0  0  0  0  0  0  0  0  0
    7.4143    0.1435   22.3839 C   0  0  0  0  0  0  0  0  0  0  0  0
    7.1258   -0.3023   23.4809 O   0  0  0  0  0  0  0  0  0  0  0  0
    7.8835    1.4297   22.2178 N   0  0  0  0  0  0  0  0  0  0  0  0
    8.1692    1.6919   21.2899 H   0  0  0  0  0  0  0  0  0  0  0  0
    7.7013    2.4704   23.1555 C   0  0  0  0  0  0  0  0  0  0  0  0
    8.3126    3.7498   23.1956 C   0  0  0  0  0  0  0  0  0  0  0  0
    9.0191    4.2127   22.5166 H   0  0  0  0  0  0  0  0  0  0  0  0
    7.9143    4.4286   24.2687 N   0  0  0  0  0  0  0  0  0  0  0  0
    7.0604    3.6122   24.8950 N   0  0  0  0  0  0  0  0  0  0  0  0
    6.6262    3.9420   25.7475 H   0  0  0  0  0  0  0  0  0  0  0  0
    6.8903    2.4202   24.2707 C   0  0  0  0  0  0  0  0  0  0  0  0
    6.2507    1.6286   24.6301 H   0  0  0  0  0  0  0  0  0  0  0  0
    8.8181   -1.1415   20.7444 C   0  0  0  0  0  0  0  0  0  0  0  0
    9.4466   -0.2995   20.4314 H   0  0  0  0  0  0  0  0  0  0  0  0
    8.8473   -1.8743   19.9387 H   0  0  0  0  0  0  0  0  0  0  0  0
    9.2716   -1.6168   21.6204 H   0  0  0  0  0  0  0  0  0  0  0  0
    6.5340   -2.0113   21.3240 C   0  0  0  0  0  0  0  0  0  0  0  0
    5.5114   -1.7732   21.6307 H   0  0  0  0  0  0  0  0  0  0  0  0
    6.9861   -2.6197   22.1122 H   0  0  0  0  0  0  0  0  0  0  0  0
    6.4669   -2.6100   20.4099 H   0  0  0  0  0  0  0  0  0  0  0  0
    5.4485    0.6532   20.1345 C   0  0  0  0  0  0  0  0  0  0  0  0
    5.0225    0.6420   21.1412 H   0  0  0  0  0  0  0  0  0  0  0  0
    4.8043    1.3086   19.0844 C   0  0  0  0  0  0  0  0  0  0  0  0
    3.8741    1.8395   19.2408 H   0  0  0  0  0  0  0  0  0  0  0  0
  1  2  1  0
  2  3  2  0
  3  4  1  0
  4  5  1  0
  4  6  2  0
  6  7  1  0
  7  8  1  0
  8  9  2  0
  8 10  1  0
 10 11  1  0
 10 12  1  0
 12 13  1  0
 13 14  1  0
 13 15  2  0
 15 16  1  0
 16 17  1  0
 16 18  1  0
 18 19  1  0
  7 20  1  0
 20 21  1  0
 20 22  1  0
 20 23  1  0
  7 24  1  0
 24 25  1  0
 24 26  1  0
 24 27  1  0
  6 28  1  0
 28 29  1  0
 28 30  2  0
 30 31  1  0
 30  2  1  0
 18 12  2  0
M  END
>  <cnnaffinity>  (1) 
-4.48164

>  <filename>  (1) 
[H]c1nc([H])c(C(C(=O)N([H])c2c([H])nn([H])c2[H])(C([H])([H])[H])C([H])([H])[H])c([H])c1[H]

$$$$
