
     RDKit          3D

 45 50  0  0  0  0  0  0  0  0999 V2000
   10.0279    4.7628   24.6547 F   0  0  0  0  0  0  0  0  0  0  0  0
    9.1354    4.2470   23.7905 C   0  0  0  0  0  0  0  0  0  0  0  0
    9.3735    4.7170   22.5588 F   0  0  0  0  0  0  0  0  0  0  0  0
    7.7147    4.0530   24.1283 C   0  0  2  0  0  0  0  0  0  0  0  0
    7.3461    4.0751   25.5917 C   0  0  0  0  0  0  0  0  0  0  0  0
    8.3012    3.2493   26.2298 O   0  0  0  0  0  0  0  0  0  0  0  0
    8.7215    2.2289   25.3455 C   0  0  0  0  0  0  0  0  0  0  0  0
    8.6838    2.8471   23.9495 C   0  0  2  0  0  0  0  0  0  0  0  0
    8.6926    1.9312   22.8003 C   0  0  0  0  0  0  0  0  0  0  0  0
    7.7304    1.0541   22.6040 N   0  0  0  0  0  0  0  0  0  0  0  0
    8.1134    0.4221   21.4681 C   0  0  0  0  0  0  0  0  0  0  0  0
    7.3012   -0.6736   20.8359 C   0  0  0  0  0  0  0  0  0  0  0  0
    6.4729   -0.1470   19.6713 C   0  0  0  0  0  0  0  0  0  0  0  0
    5.2911    0.5653   19.9150 C   0  0  0  0  0  0  0  0  0  0  0  0
    4.7210    1.3059   18.8795 C   0  0  0  0  0  0  0  0  0  0  0  0
    5.3365    1.2835   17.6247 C   0  0  0  0  0  0  0  0  0  0  0  0
    6.4157    0.5377   17.3443 N   0  0  0  0  0  0  0  0  0  0  0  0
    6.9545   -0.1621   18.3499 C   0  0  0  0  0  0  0  0  0  0  0  0
    7.8271   -0.7650   18.0920 H   0  0  0  0  0  0  0  0  0  0  0  0
    4.9413    1.8829   16.8074 H   0  0  0  0  0  0  0  0  0  0  0  0
    3.8386    1.9162   19.0366 H   0  0  0  0  0  0  0  0  0  0  0  0
    4.8333    0.5513   20.9065 H   0  0  0  0  0  0  0  0  0  0  0  0
    7.9940   -1.4542   20.5067 H   0  0  0  0  0  0  0  0  0  0  0  0
    6.6710   -1.0952   21.6257 H   0  0  0  0  0  0  0  0  0  0  0  0
    9.2593    0.8279   20.9582 N   0  0  0  0  0  0  0  0  0  0  0  0
    9.6481    1.7958   21.8276 N   0  0  0  0  0  0  0  0  0  0  0  0
   11.0059    2.2404   21.8879 C   0  0  0  0  0  0  0  0  0  0  0  0
   11.6288    3.0649   20.9584 C   0  0  0  0  0  0  0  0  0  0  0  0
   12.8033    3.7720   21.3031 C   0  0  0  0  0  0  0  0  0  0  0  0
   13.5184    3.4471   22.4589 C   0  0  0  0  0  0  0  0  0  0  0  0
   13.0296    2.3861   23.2501 C   0  0  0  0  0  0  0  0  0  0  0  0
   11.7847    1.8203   22.9728 C   0  0  0  0  0  0  0  0  0  0  0  0
   11.6165    0.8096   23.8915 N   0  0  0  0  0  0  0  0  0  0  0  0
   12.7440    0.8012   24.6592 C   0  0  0  0  0  0  0  0  0  0  0  0
   13.5962    1.7069   24.3088 N   0  0  0  0  0  0  0  0  0  0  0  0
   12.8748    0.1093   25.4872 H   0  0  0  0  0  0  0  0  0  0  0  0
   10.9457    0.0643   23.8184 H   0  0  0  0  0  0  0  0  0  0  0  0
   14.4632    3.9139   22.7160 H   0  0  0  0  0  0  0  0  0  0  0  0
   13.1740    4.5442   20.6291 H   0  0  0  0  0  0  0  0  0  0  0  0
   11.2046    3.1799   19.9688 H   0  0  0  0  0  0  0  0  0  0  0  0
    9.7207    1.9216   25.6660 H   0  0  0  0  0  0  0  0  0  0  0  0
    8.0470    1.3548   25.3599 H   0  0  0  0  0  0  0  0  0  0  0  0
    7.4189    5.0708   26.0389 H   0  0  0  0  0  0  0  0  0  0  0  0
    6.3182    3.7028   25.7389 H   0  0  0  0  0  0  0  0  0  0  0  0
    6.9766    4.3255   23.3823 H   0  0  0  0  0  0  0  0  0  0  0  0
  1  2  1  0
  2  3  1  0
  2  4  1  0
  4  5  1  0
  5  6  1  0
  6  7  1  0
  7  8  1  0
  8  9  1  6
  9 10  2  0
 10 11  1  0
 11 12  1  0
 12 13  1  0
 13 14  2  0
 14 15  1  0
 15 16  2  0
 16 17  1  0
 17 18  2  0
 18 19  1  0
 16 20  1  0
 15 21  1  0
 14 22  1  0
 12 23  1  0
 12 24  1  0
 11 25  2  0
 25 26  1  0
 26 27  1  0
 27 28  2  0
 28 29  1  0
 29 30  2  0
 30 31  1  0
 31 32  2  0
 32 33  1  0
 33 34  1  0
 34 35  2  0
 34 36  1  0
 33 37  1  0
 30 38  1  0
 29 39  1  0
 28 40  1  0
  7 41  1  0
  7 42  1  0
  5 43  1  0
  5 44  1  0
  4 45  1  6
  8  2  1  0
 26  9  1  0
 32 27  1  0
  8  4  1  0
 18 13  1  0
 35 31  1  0
M  END
>  <cnnaffinity>  (1) 
-6.14791

>  <filename>  (1) 
[H]c1nc([H])c(C([H])([H])c2nc([C@]34C([H])([H])OC([H])([H])[C@@]3([H])C4(F)F)n(-c3c([H])c([H])c([H])c4nc([H])n([H])c34)n2)c([H])c1[H]

$$$$
