
     RDKit          3D

 36 39  0  0  0  0  0  0  0  0999 V2000
    5.6107   -2.3011   21.4179 O   0  0  0  0  0  0  0  0  0  0  0  0
    6.7526   -1.9133   21.4555 C   0  0  0  0  0  0  0  0  0  0  0  0
    7.6787   -2.3144   22.3717 N   0  0  0  0  0  0  0  0  0  0  0  0
    8.9618   -1.6549   22.1978 C   0  0  0  0  0  0  0  0  0  0  0  0
    9.4824   -0.7582   23.3092 C   0  0  0  0  0  0  0  0  0  0  0  0
    8.6509   -0.1597   24.2262 C   0  0  0  0  0  0  0  0  0  0  0  0
    9.1583    0.7509   25.1940 C   0  0  0  0  0  0  0  0  0  0  0  0
   10.5057    1.0218   25.2515 C   0  0  0  0  0  0  0  0  0  0  0  0
   11.4079    0.4284   24.3141 C   0  0  0  0  0  0  0  0  0  0  0  0
   12.8108    0.7007   24.3516 C   0  0  0  0  0  0  0  0  0  0  0  0
   13.6573    0.1792   23.4034 C   0  0  0  0  0  0  0  0  0  0  0  0
   13.1437   -0.6128   22.3437 C   0  0  0  0  0  0  0  0  0  0  0  0
   11.7990   -0.8884   22.2698 C   0  0  0  0  0  0  0  0  0  0  0  0
   10.8937   -0.4276   23.2899 C   0  0  0  0  0  0  0  0  0  0  0  0
   11.4212   -1.4220   21.4005 H   0  0  0  0  0  0  0  0  0  0  0  0
   13.8185   -0.9857   21.5760 H   0  0  0  0  0  0  0  0  0  0  0  0
   14.7227    0.3826   23.4419 H   0  0  0  0  0  0  0  0  0  0  0  0
   13.1970    1.3320   25.1443 H   0  0  0  0  0  0  0  0  0  0  0  0
   10.9062    1.7168   25.9842 H   0  0  0  0  0  0  0  0  0  0  0  0
    8.4638    1.2619   25.8563 H   0  0  0  0  0  0  0  0  0  0  0  0
    7.5895   -0.3944   24.2137 H   0  0  0  0  0  0  0  0  0  0  0  0
    8.7162   -0.8698   20.8842 C   0  0  0  0  0  0  0  0  0  0  0  0
    9.5113   -0.2258   20.2410 O   0  0  0  0  0  0  0  0  0  0  0  0
    7.3775   -1.0295   20.5525 N   0  0  0  0  0  0  0  0  0  0  0  0
    6.6864   -0.2046   19.5855 C   0  0  0  0  0  0  0  0  0  0  0  0
    5.5031    0.4325   19.9632 C   0  0  0  0  0  0  0  0  0  0  0  0
    4.8507    1.2435   19.0256 C   0  0  0  0  0  0  0  0  0  0  0  0
    5.3935    1.3805   17.7439 C   0  0  0  0  0  0  0  0  0  0  0  0
    6.5419    0.7935   17.3693 N   0  0  0  0  0  0  0  0  0  0  0  0
    7.1814    0.0492   18.2818 C   0  0  0  0  0  0  0  0  0  0  0  0
    8.1447   -0.3471   17.9853 H   0  0  0  0  0  0  0  0  0  0  0  0
    4.8917    1.9850   16.9903 H   0  0  0  0  0  0  0  0  0  0  0  0
    3.9376    1.7686   19.2808 H   0  0  0  0  0  0  0  0  0  0  0  0
    5.1279    0.2964   20.9765 H   0  0  0  0  0  0  0  0  0  0  0  0
    9.7469   -2.3927   21.9921 H   0  0  0  0  0  0  0  0  0  0  0  0
    7.3064   -2.7641   23.1937 H   0  0  0  0  0  0  0  0  0  0  0  0
  1  2  2  0
  2  3  1  0
  3  4  1  0
  4  5  1  0
  5  6  2  0
  6  7  1  0
  7  8  2  0
  8  9  1  0
  9 10  2  0
 10 11  1  0
 11 12  2  0
 12 13  1  0
 13 14  2  0
 13 15  1  0
 12 16  1  0
 11 17  1  0
 10 18  1  0
  8 19  1  0
  7 20  1  0
  6 21  1  0
  4 22  1  0
 22 23  2  0
 22 24  1  0
 24 25  1  0
 25 26  2  0
 26 27  1  0
 27 28  2  0
 28 29  1  0
 29 30  2  0
 30 31  1  0
 28 32  1  0
 27 33  1  0
 26 34  1  0
  4 35  1  0
  3 36  1  0
 24  2  1  0
 30 25  1  0
 14  5  1  0
 14  9  1  0
M  END
>  <cnnaffinity>  (1) 
-5.51209

>  <filename>  (1) 
[H]c1nc([H])c(N2C(=O)N([H])C([H])(c3c([H])c([H])c([H])c4c([H])c([H])c([H])c([H])c34)C2=O)c([H])c1[H]

$$$$
