
     RDKit          3D

 51 56  0  0  0  0  0  0  0  0999 V2000
    4.6882    1.3050   18.7470 C   0  0  0  0  0  0  0  0  0  0  0  0
    5.2947    1.2380   17.4881 C   0  0  0  0  0  0  0  0  0  0  0  0
    6.3616    0.4703   17.2199 N   0  0  0  0  0  0  0  0  0  0  0  0
    6.8876   -0.2197   18.2395 C   0  0  0  0  0  0  0  0  0  0  0  0
    6.4312   -0.1438   19.5655 C   0  0  0  0  0  0  0  0  0  0  0  0
    7.2555   -0.6807   20.7319 C   0  0  0  0  0  0  0  0  0  0  0  0
    8.1067    0.3835   21.3765 C   0  0  0  0  0  0  0  0  0  0  0  0
    9.3317    0.6329   20.9723 N   0  0  0  0  0  0  0  0  0  0  0  0
    9.7201    1.6604   21.7682 N   0  0  0  0  0  0  0  0  0  0  0  0
   11.0936    2.0500   21.8931 C   0  0  0  0  0  0  0  0  0  0  0  0
   11.8121    1.5258   22.9748 C   0  0  0  0  0  0  0  0  0  0  0  0
   11.5710    0.4436   23.7888 N   0  0  0  0  0  0  0  0  0  0  0  0
   12.5805    0.4144   24.7030 C   0  0  0  0  0  0  0  0  0  0  0  0
   13.4444    1.3691   24.5321 N   0  0  0  0  0  0  0  0  0  0  0  0
   12.9979    2.0992   23.4417 C   0  0  0  0  0  0  0  0  0  0  0  0
   13.5193    3.2425   22.7895 C   0  0  0  0  0  0  0  0  0  0  0  0
   12.8849    3.6825   21.6253 C   0  0  0  0  0  0  0  0  0  0  0  0
   11.7242    3.0328   21.1315 C   0  0  0  0  0  0  0  0  0  0  0  0
   11.3394    3.2676   20.1447 H   0  0  0  0  0  0  0  0  0  0  0  0
   13.2855    4.5386   21.0833 H   0  0  0  0  0  0  0  0  0  0  0  0
   14.4202    3.7238   23.1594 H   0  0  0  0  0  0  0  0  0  0  0  0
   12.5994   -0.3310   25.4927 H   0  0  0  0  0  0  0  0  0  0  0  0
   10.9189   -0.2891   23.5831 H   0  0  0  0  0  0  0  0  0  0  0  0
    8.6976    1.9722   22.6245 C   0  0  0  0  0  0  0  0  0  0  0  0
    8.7310    3.0914   23.6281 C   0  0  0  0  0  0  0  0  0  0  0  0
    8.5493    4.4860   22.9944 C   0  0  0  0  0  0  0  0  0  0  0  0
    7.1355    4.6771   22.3673 C   0  0  0  0  0  0  0  0  0  0  0  0
    6.6883    5.9913   23.0350 C   0  0  0  0  0  0  0  0  0  0  0  0
    7.5055    7.1803   22.4772 C   0  0  0  0  0  0  0  0  0  0  0  0
    8.8673    6.9677   23.1997 C   0  0  0  0  0  0  0  0  0  0  0  0
    8.5713    5.6742   23.9936 C   0  0  0  0  0  0  0  0  0  0  0  0
    7.2025    5.8409   24.3593 O   0  0  0  0  0  0  0  0  0  0  0  0
    9.1652    5.5274   24.9026 H   0  0  0  0  0  0  0  0  0  0  0  0
    9.1028    7.7966   23.8720 H   0  0  0  0  0  0  0  0  0  0  0  0
    9.7151    6.8415   22.5176 H   0  0  0  0  0  0  0  0  0  0  0  0
    7.5861    7.1480   21.3849 H   0  0  0  0  0  0  0  0  0  0  0  0
    7.0467    8.1358   22.7506 H   0  0  0  0  0  0  0  0  0  0  0  0
    5.6070    6.1475   23.0773 H   0  0  0  0  0  0  0  0  0  0  0  0
    6.4636    3.8621   22.6666 H   0  0  0  0  0  0  0  0  0  0  0  0
    7.1247    4.7285   21.2750 H   0  0  0  0  0  0  0  0  0  0  0  0
    9.3482    4.6328   22.2575 H   0  0  0  0  0  0  0  0  0  0  0  0
    7.9113    2.9155   24.3312 H   0  0  0  0  0  0  0  0  0  0  0  0
    9.6623    3.0381   24.2028 H   0  0  0  0  0  0  0  0  0  0  0  0
    7.6726    1.1754   22.3954 N   0  0  0  0  0  0  0  0  0  0  0  0
    6.5938   -1.0586   21.5142 H   0  0  0  0  0  0  0  0  0  0  0  0
    7.9067   -1.5051   20.4143 H   0  0  0  0  0  0  0  0  0  0  0  0
    5.2627    0.5946   19.8047 C   0  0  0  0  0  0  0  0  0  0  0  0
    4.8305    0.6231   20.8089 H   0  0  0  0  0  0  0  0  0  0  0  0
    7.7328   -0.8674   18.0012 H   0  0  0  0  0  0  0  0  0  0  0  0
    4.9125    1.8146   16.6483 H   0  0  0  0  0  0  0  0  0  0  0  0
    3.8061    1.9197   18.8886 H   0  0  0  0  0  0  0  0  0  0  0  0
  1  2  2  0
  2  3  1  0
  3  4  2  0
  4  5  1  0
  5  6  1  0
  6  7  1  0
  7  8  2  0
  8  9  1  0
  9 10  1  0
 10 11  2  0
 11 12  1  0
 12 13  1  0
 13 14  2  0
 14 15  1  0
 15 16  2  0
 16 17  1  0
 17 18  2  0
 18 19  1  0
 17 20  1  0
 16 21  1  0
 13 22  1  0
 12 23  1  0
  9 24  1  0
 24 25  1  0
 25 26  1  0
 26 27  1  0
 27 28  1  0
 28 29  1  0
 29 30  1  0
 30 31  1  0
 31 32  1  0
 31 33  1  0
 30 34  1  0
 30 35  1  0
 29 36  1  0
 29 37  1  0
 28 38  1  0
 27 39  1  0
 27 40  1  0
 26 41  1  0
 25 42  1  0
 25 43  1  0
 24 44  2  0
  6 45  1  0
  6 46  1  0
  5 47  2  0
 47 48  1  0
  4 49  1  0
  2 50  1  0
  1 51  1  0
 47  1  1  0
 44  7  1  0
 18 10  1  0
 31 26  1  0
 15 11  1  0
 32 28  1  0
M  END
>  <cnnaffinity>  (1) 
-6.20872

>  <filename>  (1) 
[H]c1nc([H])c(C([H])([H])c2nc(C([H])([H])C3([H])C([H])([H])C4([H])OC3([H])C([H])([H])C4([H])[H])n(-c3c([H])c([H])c([H])c4nc([H])n([H])c34)n2)c([H])c1[H]

$$$$
