
     RDKit          3D

 31 32  0  0  0  0  0  0  0  0999 V2000
    9.3657   -3.3245   25.1591 O   0  0  0  0  0  0  0  0  0  0  0  0
    8.1778   -3.0648   25.0603 C   0  0  0  0  0  0  0  0  0  0  0  0
    7.6860   -2.4345   23.9500 N   0  0  0  0  0  0  0  0  0  0  0  0
    8.6146   -1.9914   22.9104 C   0  0  0  0  0  0  0  0  0  0  0  0
    7.9035   -1.2900   21.8506 C   0  0  0  0  0  0  0  0  0  0  0  0
    7.3465   -0.6961   20.9583 C   0  0  0  0  0  0  0  0  0  0  0  0
    6.6590    0.0031   19.9076 C   0  0  0  0  0  0  0  0  0  0  0  0
    5.4374    0.6560   20.1503 C   0  0  0  0  0  0  0  0  0  0  0  0
    4.8017    1.3120   19.0948 C   0  0  0  0  0  0  0  0  0  0  0  0
    5.3972    1.2951   17.8308 C   0  0  0  0  0  0  0  0  0  0  0  0
    6.5587    0.6741   17.5747 N   0  0  0  0  0  0  0  0  0  0  0  0
    7.1699    0.0567   18.5923 C   0  0  0  0  0  0  0  0  0  0  0  0
    8.1187   -0.4195   18.3486 H   0  0  0  0  0  0  0  0  0  0  0  0
    4.9329    1.7994   16.9845 H   0  0  0  0  0  0  0  0  0  0  0  0
    3.8696    1.8447   19.2358 H   0  0  0  0  0  0  0  0  0  0  0  0
    5.0045    0.6480   21.1505 H   0  0  0  0  0  0  0  0  0  0  0  0
    9.4027   -1.3492   23.3385 H   0  0  0  0  0  0  0  0  0  0  0  0
    9.1620   -2.8564   22.5043 H   0  0  0  0  0  0  0  0  0  0  0  0
    6.7235   -2.1222   23.9371 H   0  0  0  0  0  0  0  0  0  0  0  0
    7.1734   -3.4590   26.1589 C   0  0  0  0  0  0  0  0  0  0  0  0
    6.1101   -2.6473   26.2970 N   0  0  0  0  0  0  0  0  0  0  0  0
    5.2185   -2.7998   27.2697 N   0  0  0  0  0  0  0  0  0  0  0  0
    5.3371   -3.8245   28.1228 C   0  0  0  0  0  0  0  0  0  0  0  0
    6.3756   -4.7571   28.0244 C   0  0  0  0  0  0  0  0  0  0  0  0
    7.3231   -4.5860   27.0163 C   0  0  0  0  0  0  0  0  0  0  0  0
    8.4658   -5.5769   26.8396 C   0  0  0  0  0  0  0  0  0  0  0  0
    8.5921   -5.9387   25.5553 F   0  0  0  0  0  0  0  0  0  0  0  0
    8.2330   -6.6903   27.5539 F   0  0  0  0  0  0  0  0  0  0  0  0
    9.6306   -5.0791   27.2578 F   0  0  0  0  0  0  0  0  0  0  0  0
    6.4332   -5.5984   28.7122 H   0  0  0  0  0  0  0  0  0  0  0  0
    4.5652   -3.8903   28.8809 H   0  0  0  0  0  0  0  0  0  0  0  0
  1  2  2  0
  2  3  1  0
  3  4  1  0
  4  5  1  0
  5  6  3  0
  6  7  1  0
  7  8  2  0
  8  9  1  0
  9 10  2  0
 10 11  1  0
 11 12  2  0
 12 13  1  0
 10 14  1  0
  9 15  1  0
  8 16  1  0
  4 17  1  0
  4 18  1  0
  3 19  1  0
  2 20  1  0
 20 21  2  0
 21 22  1  0
 22 23  2  0
 23 24  1  0
 24 25  2  0
 25 26  1  0
 26 27  1  0
 26 28  1  0
 26 29  1  0
 24 30  1  0
 23 31  1  0
 12  7  1  0
 25 20  1  0
M  END
>  <cnnaffinity>  (1) 
-4.74781

>  <filename>  (1) 
[H]c1nc([H])c(C#CC([H])([H])N([H])C(=O)c2nnc([H])c([H])c2C(F)(F)F)c([H])c1[H]

$$$$
