
     RDKit          3D

 39 42  0  0  0  0  0  0  0  0999 V2000
   10.4558    8.2532   26.1961 C   0  0  0  0  0  0  0  0  0  0  0  0
   10.1218    6.8730   25.7505 C   0  0  0  0  0  0  0  0  0  0  0  0
   10.3647    6.3842   24.5695 N   0  0  0  0  0  0  0  0  0  0  0  0
    9.8290    5.1065   24.5986 C   0  0  0  0  0  0  0  0  0  0  0  0
    9.7676    4.1188   23.6174 C   0  0  0  0  0  0  0  0  0  0  0  0
    9.1572    2.8827   23.9062 C   0  0  0  0  0  0  0  0  0  0  0  0
    9.0534    1.8121   22.9049 C   0  0  0  0  0  0  0  0  0  0  0  0
    7.9862    1.0674   22.6685 N   0  0  0  0  0  0  0  0  0  0  0  0
    8.3816    0.2792   21.6457 C   0  0  0  0  0  0  0  0  0  0  0  0
    7.4356   -0.6789   20.9900 C   0  0  0  0  0  0  0  0  0  0  0  0
    6.6401   -0.0195   19.8753 C   0  0  0  0  0  0  0  0  0  0  0  0
    5.4343    0.6414   20.1391 C   0  0  0  0  0  0  0  0  0  0  0  0
    4.7987    1.3138   19.0931 C   0  0  0  0  0  0  0  0  0  0  0  0
    5.3893    1.3016   17.8261 C   0  0  0  0  0  0  0  0  0  0  0  0
    6.5500    0.6850   17.5562 N   0  0  0  0  0  0  0  0  0  0  0  0
    7.1503    0.0523   18.5698 C   0  0  0  0  0  0  0  0  0  0  0  0
    8.1087   -0.4180   18.3493 H   0  0  0  0  0  0  0  0  0  0  0  0
    4.9149    1.7990   16.9825 H   0  0  0  0  0  0  0  0  0  0  0  0
    3.8713    1.8485   19.2470 H   0  0  0  0  0  0  0  0  0  0  0  0
    5.0229    0.6375   21.1529 H   0  0  0  0  0  0  0  0  0  0  0  0
    6.7636   -1.0435   21.7754 H   0  0  0  0  0  0  0  0  0  0  0  0
    8.0201   -1.5286   20.6230 H   0  0  0  0  0  0  0  0  0  0  0  0
    9.6269    0.4710   21.2445 N   0  0  0  0  0  0  0  0  0  0  0  0
   10.0551    1.4599   22.0615 N   0  0  0  0  0  0  0  0  0  0  0  0
   11.4177    1.9466   21.9505 C   0  0  0  0  0  0  0  0  0  0  0  0
   12.0300    1.1424   21.5454 H   0  0  0  0  0  0  0  0  0  0  0  0
   11.4893    2.8168   21.2883 H   0  0  0  0  0  0  0  0  0  0  0  0
   11.7849    2.2226   22.9424 H   0  0  0  0  0  0  0  0  0  0  0  0
    8.5990    2.6796   25.1980 C   0  0  0  0  0  0  0  0  0  0  0  0
    8.0206    1.5096   25.4835 F   0  0  0  0  0  0  0  0  0  0  0  0
    8.6378    3.6389   26.1981 C   0  0  0  0  0  0  0  0  0  0  0  0
    9.2577    4.8405   25.8635 C   0  0  0  0  0  0  0  0  0  0  0  0
    9.4678    5.9915   26.5767 N   0  0  0  0  0  0  0  0  0  0  0  0
    9.1538    6.1610   27.5120 H   0  0  0  0  0  0  0  0  0  0  0  0
    8.1900    3.4277   27.1652 H   0  0  0  0  0  0  0  0  0  0  0  0
   10.1779    4.3525   22.6418 H   0  0  0  0  0  0  0  0  0  0  0  0
    9.5990    8.9187   26.0348 H   0  0  0  0  0  0  0  0  0  0  0  0
   11.2884    8.6139   25.5907 H   0  0  0  0  0  0  0  0  0  0  0  0
   10.7294    8.2855   27.2565 H   0  0  0  0  0  0  0  0  0  0  0  0
  1  2  1  0
  2  3  2  0
  3  4  1  0
  4  5  2  0
  5  6  1  0
  6  7  1  0
  7  8  2  0
  8  9  1  0
  9 10  1  0
 10 11  1  0
 11 12  2  0
 12 13  1  0
 13 14  2  0
 14 15  1  0
 15 16  2  0
 16 17  1  0
 14 18  1  0
 13 19  1  0
 12 20  1  0
 10 21  1  0
 10 22  1  0
  9 23  2  0
 23 24  1  0
 24 25  1  0
 25 26  1  0
 25 27  1  0
 25 28  1  0
  6 29  2  0
 29 30  1  0
 29 31  1  0
 31 32  2  0
 32 33  1  0
 33 34  1  0
 31 35  1  0
  5 36  1  0
  1 37  1  0
  1 38  1  0
  1 39  1  0
 33  2  1  0
 32  4  1  0
 24  7  1  0
 16 11  1  0
M  END
>  <cnnaffinity>  (1) 
-5.99721

>  <filename>  (1) 
[H]c1nc([H])c(C([H])([H])c2nc(-c3c(F)c([H])c4c(nc(C([H])([H])[H])n4[H])c3[H])n(C([H])([H])[H])n2)c([H])c1[H]

$$$$
