
     RDKit          3D

 51 55  0  0  0  0  0  0  0  0999 V2000
    6.9107    2.0183   25.5458 C   0  0  0  0  0  0  0  0  0  0  0  0
    7.8415    2.5594   24.4611 C   0  0  0  0  0  0  0  0  0  0  0  0
    7.2598    3.8526   23.8709 C   0  0  0  0  0  0  0  0  0  0  0  0
    7.2725    4.2063   22.4082 C   0  0  0  0  0  0  0  0  0  0  0  0
    5.9765    3.8457   23.0792 C   0  0  0  0  0  0  0  0  0  0  0  0
    5.5735    2.8675   22.8241 H   0  0  0  0  0  0  0  0  0  0  0  0
    5.2250    4.6119   23.2652 H   0  0  0  0  0  0  0  0  0  0  0  0
    7.6807    3.4783   21.7105 H   0  0  0  0  0  0  0  0  0  0  0  0
    7.4443    5.2463   22.1300 H   0  0  0  0  0  0  0  0  0  0  0  0
    7.3718    4.6899   24.5595 H   0  0  0  0  0  0  0  0  0  0  0  0
    8.1102    1.5185   23.4481 N   0  0  0  0  0  0  0  0  0  0  0  0
    7.0762    0.7948   22.9527 N   0  0  0  0  0  0  0  0  0  0  0  0
    7.6097    0.1355   21.9481 C   0  0  0  0  0  0  0  0  0  0  0  0
    6.7789   -0.7592   21.0704 C   0  0  0  0  0  0  0  0  0  0  0  0
    6.2890   -0.0990   19.7839 C   0  0  0  0  0  0  0  0  0  0  0  0
    5.2018    0.7879   19.7966 C   0  0  0  0  0  0  0  0  0  0  0  0
    4.8549    1.4586   18.6205 C   0  0  0  0  0  0  0  0  0  0  0  0
    5.5918    1.2036   17.4628 C   0  0  0  0  0  0  0  0  0  0  0  0
    6.6114    0.3330   17.4153 N   0  0  0  0  0  0  0  0  0  0  0  0
    6.9366   -0.2977   18.5523 C   0  0  0  0  0  0  0  0  0  0  0  0
    7.7550   -1.0173   18.4830 H   0  0  0  0  0  0  0  0  0  0  0  0
    5.3482    1.7107   16.5293 H   0  0  0  0  0  0  0  0  0  0  0  0
    4.0478    2.1834   18.5908 H   0  0  0  0  0  0  0  0  0  0  0  0
    4.6283    0.9460   20.7118 H   0  0  0  0  0  0  0  0  0  0  0  0
    5.9229   -1.0824   21.6710 H   0  0  0  0  0  0  0  0  0  0  0  0
    7.3840   -1.6451   20.8525 H   0  0  0  0  0  0  0  0  0  0  0  0
    8.9356    0.3547   21.7735 N   0  0  0  0  0  0  0  0  0  0  0  0
    9.2288    1.2390   22.7183 C   0  0  0  0  0  0  0  0  0  0  0  0
   10.5452    1.9267   22.8779 C   0  0  0  0  0  0  0  0  0  0  0  0
   11.7618    1.2061   22.9068 C   0  0  0  0  0  0  0  0  0  0  0  0
   12.9976    1.8736   22.8390 C   0  0  0  0  0  0  0  0  0  0  0  0
   13.0331    3.2618   22.7881 C   0  0  0  0  0  0  0  0  0  0  0  0
   14.1131    4.2939   22.5913 C   0  0  0  0  0  0  0  0  0  0  0  0
   13.3730    5.6226   22.7100 C   0  0  0  0  0  0  0  0  0  0  0  0
   13.8332    6.7361   22.5798 O   0  0  0  0  0  0  0  0  0  0  0  0
   12.0506    5.3294   22.9994 N   0  0  0  0  0  0  0  0  0  0  0  0
   11.0940    6.2830   23.5208 C   0  0  0  0  0  0  0  0  0  0  0  0
   10.3124    6.5224   22.7901 H   0  0  0  0  0  0  0  0  0  0  0  0
   11.6381    7.1899   23.7757 H   0  0  0  0  0  0  0  0  0  0  0  0
   10.6126    5.8788   24.4191 H   0  0  0  0  0  0  0  0  0  0  0  0
   11.8287    3.9599   22.9311 C   0  0  0  0  0  0  0  0  0  0  0  0
   10.5935    3.3269   22.9049 C   0  0  0  0  0  0  0  0  0  0  0  0
    9.7009    3.9330   22.8065 H   0  0  0  0  0  0  0  0  0  0  0  0
   14.9112    4.2799   23.3295 H   0  0  0  0  0  0  0  0  0  0  0  0
   14.5663    4.2704   21.6022 H   0  0  0  0  0  0  0  0  0  0  0  0
   13.9153    1.2954   22.7738 H   0  0  0  0  0  0  0  0  0  0  0  0
   11.7455    0.1212   22.9748 H   0  0  0  0  0  0  0  0  0  0  0  0
    8.8152    2.7906   24.9030 H   0  0  0  0  0  0  0  0  0  0  0  0
    7.2930    1.0841   25.9614 H   0  0  0  0  0  0  0  0  0  0  0  0
    5.9192    1.8237   25.1227 H   0  0  0  0  0  0  0  0  0  0  0  0
    6.8050    2.7457   26.3562 H   0  0  0  0  0  0  0  0  0  0  0  0
  1  2  1  0
  2  3  1  0
  3  4  1  0
  4  5  1  0
  5  6  1  0
  5  7  1  0
  4  8  1  0
  4  9  1  0
  3 10  1  0
  2 11  1  0
 11 12  1  0
 12 13  2  0
 13 14  1  0
 14 15  1  0
 15 16  2  0
 16 17  1  0
 17 18  2  0
 18 19  1  0
 19 20  2  0
 20 21  1  0
 18 22  1  0
 17 23  1  0
 16 24  1  0
 14 25  1  0
 14 26  1  0
 13 27  1  0
 27 28  2  0
 28 29  1  0
 29 30  2  0
 30 31  1  0
 31 32  2  0
 32 33  1  0
 33 34  1  0
 34 35  2  0
 34 36  1  0
 36 37  1  0
 37 38  1  0
 37 39  1  0
 37 40  1  0
 36 41  1  0
 41 42  2  0
 42 43  1  0
 33 44  1  0
 33 45  1  0
 31 46  1  0
 30 47  1  0
  2 48  1  0
  1 49  1  0
  1 50  1  0
  1 51  1  0
  5  3  1  0
 28 11  1  0
 42 29  1  0
 20 15  1  0
 41 32  1  0
M  END
>  <cnnaffinity>  (1) 
-6.20417

>  <filename>  (1) 
[H]c1nc([H])c(C([H])([H])c2nc(-c3c([H])c([H])c4c(c3[H])N(C([H])([H])[H])C(=O)C4([H])[H])n(C([H])(C([H])([H])[H])C3([H])C([H])([H])C3([H])[H])n2)c([H])c1[H]

$$$$
