
     RDKit          3D

 31 32  0  0  0  0  0  0  0  0999 V2000
    8.8353   -2.6199   21.8017 H   0  0  0  0  0  0  0  0  0  0  0  0
    8.1060   -3.0518   22.4882 C   0  0  0  0  0  0  0  0  0  0  0  0
    6.8105   -2.7326   22.3622 C   0  0  0  0  0  0  0  0  0  0  0  0
    6.0640   -3.1324   23.0519 H   0  0  0  0  0  0  0  0  0  0  0  0
    6.2536   -1.8671   21.2545 C   0  0  2  0  0  0  0  0  0  0  0  0
    5.2935   -1.4532   21.5669 H   0  0  0  0  0  0  0  0  0  0  0  0
    5.9793   -2.6961   20.1606 F   0  0  0  0  0  0  0  0  0  0  0  0
    7.1544   -0.7087   20.7928 C   0  0  0  0  0  0  0  0  0  0  0  0
    7.4074   -0.1024   21.6743 H   0  0  0  0  0  0  0  0  0  0  0  0
    8.0939   -1.1352   20.4258 H   0  0  0  0  0  0  0  0  0  0  0  0
    6.5302    0.1554   19.7115 C   0  0  0  0  0  0  0  0  0  0  0  0
    7.0879    0.1996   18.4225 C   0  0  0  0  0  0  0  0  0  0  0  0
    8.0233   -0.3255   18.2276 H   0  0  0  0  0  0  0  0  0  0  0  0
    6.5512    0.8384   17.3738 N   0  0  0  0  0  0  0  0  0  0  0  0
    5.4039    1.4940   17.5933 C   0  0  0  0  0  0  0  0  0  0  0  0
    4.9677    1.9933   16.7311 H   0  0  0  0  0  0  0  0  0  0  0  0
    4.7692    1.5565   18.8357 C   0  0  0  0  0  0  0  0  0  0  0  0
    3.8519    2.1262   18.9427 H   0  0  0  0  0  0  0  0  0  0  0  0
    5.3399    0.8734   19.9153 C   0  0  0  0  0  0  0  0  0  0  0  0
    4.8536    0.8990   20.8948 H   0  0  0  0  0  0  0  0  0  0  0  0
    8.7628   -3.9001   23.5041 C   0  0  0  0  0  0  0  0  0  0  0  0
   10.1529   -3.7434   23.6607 C   0  0  0  0  0  0  0  0  0  0  0  0
   10.6983   -3.1134   22.9629 H   0  0  0  0  0  0  0  0  0  0  0  0
   10.8512   -4.4428   24.6406 C   0  0  0  0  0  0  0  0  0  0  0  0
   11.9261   -4.3301   24.7035 H   0  0  0  0  0  0  0  0  0  0  0  0
   10.1778   -5.3276   25.4859 C   0  0  0  0  0  0  0  0  0  0  0  0
   10.7311   -5.8836   26.2372 H   0  0  0  0  0  0  0  0  0  0  0  0
    8.8022   -5.5229   25.3251 C   0  0  0  0  0  0  0  0  0  0  0  0
    8.2665   -6.2104   25.9740 H   0  0  0  0  0  0  0  0  0  0  0  0
    8.1038   -4.8257   24.3325 C   0  0  0  0  0  0  0  0  0  0  0  0
    7.0446   -5.0287   24.2039 H   0  0  0  0  0  0  0  0  0  0  0  0
  1  2  1  0
  2  3  2  3
  3  4  1  0
  3  5  1  0
  5  6  1  1
  5  7  1  0
  5  8  1  0
  8  9  1  0
  8 10  1  0
  8 11  1  0
 11 12  2  0
 12 13  1  0
 12 14  1  0
 14 15  2  0
 15 16  1  0
 15 17  1  0
 17 18  1  0
 17 19  2  0
 19 20  1  0
  2 21  1  0
 21 22  2  0
 22 23  1  0
 22 24  1  0
 24 25  1  0
 24 26  2  0
 26 27  1  0
 26 28  1  0
 28 29  1  0
 28 30  2  0
 30 31  1  0
 19 11  1  0
 30 21  1  0
M  END
>  <cnnaffinity>  (1) 
-4.70022

>  <filename>  (1) 
[H]C(=C([H])[C@]([H])(F)C([H])([H])c1c([H])nc([H])c([H])c1[H])c1c([H])c([H])c([H])c([H])c1[H]

$$$$
