
     RDKit          3D

 39 43  0  0  0  0  0  0  0  0999 V2000
    4.7625    1.3313   18.9101 C   0  0  0  0  0  0  0  0  0  0  0  0
    5.3735    1.3237   17.6536 C   0  0  0  0  0  0  0  0  0  0  0  0
    6.4719    0.6081   17.3693 N   0  0  0  0  0  0  0  0  0  0  0  0
    7.0118   -0.1060   18.3661 C   0  0  0  0  0  0  0  0  0  0  0  0
    6.5077   -0.1411   19.6784 C   0  0  0  0  0  0  0  0  0  0  0  0
    7.2591   -0.7811   20.8384 C   0  0  0  0  0  0  0  0  0  0  0  0
    8.0701    0.2333   21.5860 C   0  0  0  0  0  0  0  0  0  0  0  0
    7.6256    0.9673   22.5828 N   0  0  0  0  0  0  0  0  0  0  0  0
    8.6934    1.7480   22.8861 N   0  0  0  0  0  0  0  0  0  0  0  0
    8.6224    2.7677   23.9062 C   0  0  0  0  0  0  0  0  0  0  0  0
    9.7963    3.0429   24.8081 C   0  0  0  0  0  0  0  0  0  0  0  0
    8.5644    2.4173   25.3688 C   0  0  0  0  0  0  0  0  0  0  0  0
    8.5896    1.3701   25.6349 H   0  0  0  0  0  0  0  0  0  0  0  0
    7.9416    3.0446   26.0020 H   0  0  0  0  0  0  0  0  0  0  0  0
   10.6820    2.4277   24.6760 H   0  0  0  0  0  0  0  0  0  0  0  0
    9.9912    4.0845   25.0435 H   0  0  0  0  0  0  0  0  0  0  0  0
    8.0190    3.6148   23.6060 H   0  0  0  0  0  0  0  0  0  0  0  0
    9.7121    1.4440   22.0440 C   0  0  0  0  0  0  0  0  0  0  0  0
   11.0296    2.0636   22.1762 C   0  0  0  0  0  0  0  0  0  0  0  0
   11.1729    3.4473   22.2747 C   0  0  0  0  0  0  0  0  0  0  0  0
   12.3807    4.0375   22.6706 C   0  0  0  0  0  0  0  0  0  0  0  0
   13.4966    3.2449   22.9096 C   0  0  0  0  0  0  0  0  0  0  0  0
   13.3696    1.8557   22.7632 C   0  0  0  0  0  0  0  0  0  0  0  0
   12.1707    1.2490   22.3559 C   0  0  0  0  0  0  0  0  0  0  0  0
   12.3294   -0.1928   22.3128 C   0  0  0  0  0  0  0  0  0  0  0  0
   13.4973   -0.6546   22.6389 N   0  0  0  0  0  0  0  0  0  0  0  0
   14.5267    0.6057   23.0429 S   0  0  0  0  0  0  0  0  0  0  0  0
   11.5355   -0.8814   22.0257 H   0  0  0  0  0  0  0  0  0  0  0  0
   14.4437    3.6950   23.1722 H   0  0  0  0  0  0  0  0  0  0  0  0
   12.4265    5.1086   22.8251 H   0  0  0  0  0  0  0  0  0  0  0  0
   10.2985    4.0713   22.1754 H   0  0  0  0  0  0  0  0  0  0  0  0
    9.3476    0.4859   21.2083 N   0  0  0  0  0  0  0  0  0  0  0  0
    7.9525   -1.5531   20.4881 H   0  0  0  0  0  0  0  0  0  0  0  0
    6.5662   -1.2422   21.5483 H   0  0  0  0  0  0  0  0  0  0  0  0
    5.3420    0.5883   19.9393 C   0  0  0  0  0  0  0  0  0  0  0  0
    4.9122    0.5862   20.9432 H   0  0  0  0  0  0  0  0  0  0  0  0
    7.9037   -0.6794   18.1086 H   0  0  0  0  0  0  0  0  0  0  0  0
    4.9571    1.9133   16.8383 H   0  0  0  0  0  0  0  0  0  0  0  0
    3.8732    1.9292   19.0735 H   0  0  0  0  0  0  0  0  0  0  0  0
  1  2  2  0
  2  3  1  0
  3  4  2  0
  4  5  1  0
  5  6  1  0
  6  7  1  0
  7  8  2  0
  8  9  1  0
  9 10  1  0
 10 11  1  0
 11 12  1  0
 12 13  1  0
 12 14  1  0
 11 15  1  0
 11 16  1  0
 10 17  1  0
  9 18  1  0
 18 19  1  0
 19 20  2  0
 20 21  1  0
 21 22  2  0
 22 23  1  0
 23 24  2  0
 24 25  1  0
 25 26  2  0
 26 27  1  0
 25 28  1  0
 22 29  1  0
 21 30  1  0
 20 31  1  0
 18 32  2  0
  6 33  1  0
  6 34  1  0
  5 35  2  0
 35 36  1  0
  4 37  1  0
  2 38  1  0
  1 39  1  0
 35  1  1  0
 32  7  1  0
 12 10  1  0
 24 19  1  0
 27 23  1  0
M  END
>  <cnnaffinity>  (1) 
-6.53159

>  <filename>  (1) 
[H]c1nc([H])c(C([H])([H])c2nc(-c3c([H])c([H])c([H])c4snc([H])c34)n(C3([H])C([H])([H])C3([H])[H])n2)c([H])c1[H]

$$$$
