
     RDKit          3D

 25 26  0  0  0  0  0  0  0  0999 V2000
    8.5870   -5.0266   24.0187 F   0  0  0  0  0  0  0  0  0  0  0  0
    8.9712   -3.8019   23.6612 C   0  0  0  0  0  0  0  0  0  0  0  0
    8.5917   -3.2774   22.4424 C   0  0  0  0  0  0  0  0  0  0  0  0
    9.0122   -1.9752   22.1248 C   0  0  0  0  0  0  0  0  0  0  0  0
    8.6001   -1.3305   20.8344 C   0  0  0  0  0  0  0  0  0  0  0  0
    7.3339   -0.6469   20.9753 N   0  0  0  0  0  0  0  0  0  0  0  0
    6.6807   -0.0057   19.9324 C   0  0  0  0  0  0  0  0  0  0  0  0
    5.4488    0.6434   20.1708 C   0  0  0  0  0  0  0  0  0  0  0  0
    4.8170    1.3017   19.1130 C   0  0  0  0  0  0  0  0  0  0  0  0
    5.3991    1.2932   17.8384 C   0  0  0  0  0  0  0  0  0  0  0  0
    6.5628    0.6784   17.5770 N   0  0  0  0  0  0  0  0  0  0  0  0
    7.1786    0.0594   18.5965 C   0  0  0  0  0  0  0  0  0  0  0  0
    8.1244   -0.4242   18.3589 H   0  0  0  0  0  0  0  0  0  0  0  0
    4.9132    1.7828   16.9966 H   0  0  0  0  0  0  0  0  0  0  0  0
    3.8849    1.8344   19.2644 H   0  0  0  0  0  0  0  0  0  0  0  0
    5.0136    0.6266   21.1721 H   0  0  0  0  0  0  0  0  0  0  0  0
    6.8842   -0.6553   21.8777 H   0  0  0  0  0  0  0  0  0  0  0  0
    8.4989   -2.1016   20.0807 H   0  0  0  0  0  0  0  0  0  0  0  0
    9.3700   -0.6492   20.4476 H   0  0  0  0  0  0  0  0  0  0  0  0
    9.7921   -1.2830   23.0518 C   0  0  0  0  0  0  0  0  0  0  0  0
   10.1675   -1.7945   24.2382 N   0  0  0  0  0  0  0  0  0  0  0  0
    9.7554   -3.0208   24.5243 C   0  0  0  0  0  0  0  0  0  0  0  0
   10.1376   -3.7597   26.0386 Cl  0  0  0  0  0  0  0  0  0  0  0  0
   10.1373   -0.2772   22.8211 H   0  0  0  0  0  0  0  0  0  0  0  0
    7.9708   -3.8804   21.7855 H   0  0  0  0  0  0  0  0  0  0  0  0
  1  2  1  0
  2  3  2  0
  3  4  1  0
  4  5  1  0
  5  6  1  0
  6  7  1  0
  7  8  2  0
  8  9  1  0
  9 10  2  0
 10 11  1  0
 11 12  2  0
 12 13  1  0
 10 14  1  0
  9 15  1  0
  8 16  1  0
  6 17  1  0
  5 18  1  0
  5 19  1  0
  4 20  2  0
 20 21  1  0
 21 22  2  0
 22 23  1  0
 20 24  1  0
  3 25  1  0
 22  2  1  0
 12  7  1  0
M  END
>  <cnnaffinity>  (1) 
-4.63371

>  <filename>  (1) 
[H]c1nc([H])c(N([H])C([H])([H])c2c([H])nc(Cl)c(F)c2[H])c([H])c1[H]

$$$$
