
     RDKit          3D

 26 28  0  0  0  0  0  0  0  0999 V2000
    4.9730    1.7847   17.0294 H   0  0  0  0  0  0  0  0  0  0  0  0
    5.4466    1.2625   17.8580 C   0  0  0  0  0  0  0  0  0  0  0  0
    6.6139    0.6486   17.5911 N   0  0  0  0  0  0  0  0  0  0  0  0
    7.2216    0.0269   18.6103 C   0  0  0  0  0  0  0  0  0  0  0  0
    8.1687   -0.4640   18.3892 H   0  0  0  0  0  0  0  0  0  0  0  0
    6.7123   -0.0534   19.9306 C   0  0  0  0  0  0  0  0  0  0  0  0
    7.4305   -0.7399   20.9314 N   0  0  0  0  0  0  0  0  0  0  0  0
    8.4087   -0.5087   21.0284 H   0  0  0  0  0  0  0  0  0  0  0  0
    6.9146   -1.5369   21.9593 C   0  0  0  0  0  0  0  0  0  0  0  0
    7.5255   -1.4850   23.2239 C   0  0  0  0  0  0  0  0  0  0  0  0
    8.4266   -0.8907   23.3547 H   0  0  0  0  0  0  0  0  0  0  0  0
    7.0063   -2.2157   24.3142 C   0  0  0  0  0  0  0  0  0  0  0  0
    7.4640   -2.1957   25.3002 H   0  0  0  0  0  0  0  0  0  0  0  0
    5.8920   -3.0003   24.0779 C   0  0  0  0  0  0  0  0  0  0  0  0
    5.3556   -3.1390   22.7938 C   0  0  0  0  0  0  0  0  0  0  0  0
    5.8388   -2.4214   21.7178 C   0  0  0  0  0  0  0  0  0  0  0  0
    5.4077   -2.5140   20.7289 H   0  0  0  0  0  0  0  0  0  0  0  0
    4.3141   -4.0289   22.8328 O   0  0  0  0  0  0  0  0  0  0  0  0
    4.0167   -4.1630   24.2228 C   0  0  0  0  0  0  0  0  0  0  0  0
    3.7710   -5.2061   24.4412 H   0  0  0  0  0  0  0  0  0  0  0  0
    3.1816   -3.4922   24.4901 H   0  0  0  0  0  0  0  0  0  0  0  0
    5.1803   -3.7843   24.9515 O   0  0  0  0  0  0  0  0  0  0  0  0
    5.4862    0.5856   20.1824 C   0  0  0  0  0  0  0  0  0  0  0  0
    5.0555    0.5621   21.1851 H   0  0  0  0  0  0  0  0  0  0  0  0
    4.8556    1.2568   19.1256 C   0  0  0  0  0  0  0  0  0  0  0  0
    3.9218    1.7856   19.2820 H   0  0  0  0  0  0  0  0  0  0  0  0
  1  2  1  0
  2  3  2  0
  3  4  1  0
  4  5  1  0
  4  6  2  0
  6  7  1  0
  7  8  1  0
  7  9  1  0
  9 10  2  0
 10 11  1  0
 10 12  1  0
 12 13  1  0
 12 14  2  0
 14 15  1  0
 15 16  2  0
 16 17  1  0
 15 18  1  0
 18 19  1  0
 19 20  1  0
 19 21  1  0
 19 22  1  0
  6 23  1  0
 23 24  1  0
 23 25  2  0
 25 26  1  0
 25  2  1  0
 16  9  1  0
 22 14  1  0
M  END
>  <cnnaffinity>  (1) 
-4.4677

>  <filename>  (1) 
[H]c1nc([H])c(N([H])c2c([H])c([H])c3c(c2[H])OC([H])([H])O3)c([H])c1[H]

$$$$
