
     RDKit          3D

 31 32  0  0  0  0  0  0  0  0999 V2000
    6.9700   -0.6614   21.9260 H   0  0  0  0  0  0  0  0  0  0  0  0
    7.3964   -0.7270   20.9151 C   0  0  0  0  0  0  0  0  0  0  0  0
    8.4806   -1.3589   20.6896 N   0  0  0  0  0  0  0  0  0  0  0  0
    9.1621   -1.9665   21.8332 C   0  0  0  0  0  0  0  0  0  0  0  0
    9.9874   -2.5545   21.4169 H   0  0  0  0  0  0  0  0  0  0  0  0
    8.5025   -2.7026   22.3268 H   0  0  0  0  0  0  0  0  0  0  0  0
    9.7059   -0.9932   22.8944 C   0  0  0  0  0  0  0  0  0  0  0  0
    9.0230   -0.8394   24.1076 C   0  0  0  0  0  0  0  0  0  0  0  0
    8.1404   -1.4419   24.3193 H   0  0  0  0  0  0  0  0  0  0  0  0
    9.4727    0.0706   25.0716 C   0  0  0  0  0  0  0  0  0  0  0  0
    8.9223    0.1858   26.0031 H   0  0  0  0  0  0  0  0  0  0  0  0
   10.6295    0.8116   24.8546 C   0  0  0  0  0  0  0  0  0  0  0  0
   10.9882    1.5227   25.5917 H   0  0  0  0  0  0  0  0  0  0  0  0
   11.3608    0.6373   23.6656 C   0  0  0  0  0  0  0  0  0  0  0  0
   12.5308    1.3394   23.5948 O   0  0  0  0  0  0  0  0  0  0  0  0
   13.2768    1.3001   22.3958 C   0  0  0  0  0  0  0  0  0  0  0  0
   14.1608    1.9116   22.5685 H   0  0  0  0  0  0  0  0  0  0  0  0
   13.6039    0.2845   22.1240 H   0  0  0  0  0  0  0  0  0  0  0  0
   12.7083    1.7377   21.5636 H   0  0  0  0  0  0  0  0  0  0  0  0
   10.8785   -0.2371   22.6721 C   0  0  0  0  0  0  0  0  0  0  0  0
   11.4043   -0.3285   21.7229 H   0  0  0  0  0  0  0  0  0  0  0  0
    6.6461   -0.0261   19.8696 C   0  0  0  0  0  0  0  0  0  0  0  0
    7.1664    0.0249   18.5681 C   0  0  0  0  0  0  0  0  0  0  0  0
    8.1071   -0.4775   18.3606 H   0  0  0  0  0  0  0  0  0  0  0  0
    6.5800    0.6698   17.5566 N   0  0  0  0  0  0  0  0  0  0  0  0
    5.4265    1.3016   17.8157 C   0  0  0  0  0  0  0  0  0  0  0  0
    4.9659    1.8273   16.9789 H   0  0  0  0  0  0  0  0  0  0  0  0
    4.8158    1.3046   19.0748 C   0  0  0  0  0  0  0  0  0  0  0  0
    3.8853    1.8396   19.2130 H   0  0  0  0  0  0  0  0  0  0  0  0
    5.4390    0.6350   20.1280 C   0  0  0  0  0  0  0  0  0  0  0  0
    5.0012    0.6514   21.1288 H   0  0  0  0  0  0  0  0  0  0  0  0
  1  2  1  0
  2  3  2  3
  3  4  1  0
  4  5  1  0
  4  6  1  0
  4  7  1  0
  7  8  2  0
  8  9  1  0
  8 10  1  0
 10 11  1  0
 10 12  2  0
 12 13  1  0
 12 14  1  0
 14 15  1  0
 15 16  1  0
 16 17  1  0
 16 18  1  0
 16 19  1  0
 14 20  2  0
 20 21  1  0
  2 22  1  0
 22 23  2  0
 23 24  1  0
 23 25  1  0
 25 26  2  0
 26 27  1  0
 26 28  1  0
 28 29  1  0
 28 30  2  0
 30 31  1  0
 20  7  1  0
 30 22  1  0
M  END
>  <cnnaffinity>  (1) 
-4.2824

>  <filename>  (1) 
[H]C(=NC([H])([H])c1c([H])c([H])c([H])c(OC([H])([H])[H])c1[H])c1c([H])nc([H])c([H])c1[H]

$$$$
