
     RDKit          3D

 34 35  0  0  0  0  0  0  0  0999 V2000
    7.2150    1.0052   22.3524 H   0  0  0  0  0  0  0  0  0  0  0  0
    7.5824   -0.0111   22.1928 C   0  0  0  0  0  0  0  0  0  0  0  0
    7.3515   -0.6064   21.0175 C   0  0  0  0  0  0  0  0  0  0  0  0
    6.6421    0.0978   19.9109 C   0  0  0  0  0  0  0  0  0  0  0  0
    7.1372    0.0763   18.5918 C   0  0  0  0  0  0  0  0  0  0  0  0
    8.0762   -0.4399   18.3755 H   0  0  0  0  0  0  0  0  0  0  0  0
    6.5472    0.6831   17.5536 N   0  0  0  0  0  0  0  0  0  0  0  0
    5.3882    1.3159   17.7936 C   0  0  0  0  0  0  0  0  0  0  0  0
    4.9278    1.8141   16.9469 H   0  0  0  0  0  0  0  0  0  0  0  0
    4.7774    1.3620   19.0544 C   0  0  0  0  0  0  0  0  0  0  0  0
    3.8311    1.8667   19.1771 H   0  0  0  0  0  0  0  0  0  0  0  0
    5.4203    0.7540   20.1316 C   0  0  0  0  0  0  0  0  0  0  0  0
    4.9898    0.7525   21.1332 H   0  0  0  0  0  0  0  0  0  0  0  0
    7.7634   -2.0372   20.7685 C   0  0  0  0  0  0  0  0  0  0  0  0
    7.0638   -2.5012   20.0683 H   0  0  0  0  0  0  0  0  0  0  0  0
    7.7135   -2.6188   21.6967 H   0  0  0  0  0  0  0  0  0  0  0  0
    8.7905   -2.0931   20.3775 H   0  0  0  0  0  0  0  0  0  0  0  0
    8.2907   -0.6423   23.3739 C   0  0  0  0  0  0  0  0  0  0  0  0
    9.0237   -1.3765   22.9920 H   0  0  0  0  0  0  0  0  0  0  0  0
    9.0847    0.3994   24.1887 C   0  0  0  0  0  0  0  0  0  0  0  0
    8.3972    1.1864   24.5326 H   0  0  0  0  0  0  0  0  0  0  0  0
    9.8219    0.8849   23.5362 H   0  0  0  0  0  0  0  0  0  0  0  0
    9.7742   -0.2315   25.4061 C   0  0  0  0  0  0  0  0  0  0  0  0
   10.5528   -0.9254   25.0607 H   0  0  0  0  0  0  0  0  0  0  0  0
   10.2895    0.5405   25.9881 H   0  0  0  0  0  0  0  0  0  0  0  0
    8.7652   -0.9821   26.2865 C   0  0  0  0  0  0  0  0  0  0  0  0
    8.0528   -0.2540   26.7000 H   0  0  0  0  0  0  0  0  0  0  0  0
    9.2682   -1.4410   27.1451 H   0  0  0  0  0  0  0  0  0  0  0  0
    7.9813   -2.0350   25.4885 C   0  0  0  0  0  0  0  0  0  0  0  0
    8.6661   -2.8273   25.1568 H   0  0  0  0  0  0  0  0  0  0  0  0
    7.2385   -2.5220   26.1289 H   0  0  0  0  0  0  0  0  0  0  0  0
    7.2935   -1.4144   24.2652 C   0  0  0  0  0  0  0  0  0  0  0  0
    6.7960   -2.1828   23.6608 H   0  0  0  0  0  0  0  0  0  0  0  0
    6.4975   -0.7317   24.5977 H   0  0  0  0  0  0  0  0  0  0  0  0
  1  2  1  0
  2  3  2  3
  3  4  1  0
  4  5  2  0
  5  6  1  0
  5  7  1  0
  7  8  2  0
  8  9  1  0
  8 10  1  0
 10 11  1  0
 10 12  2  0
 12 13  1  0
  3 14  1  0
 14 15  1  0
 14 16  1  0
 14 17  1  0
  2 18  1  0
 18 19  1  0
 18 20  1  0
 20 21  1  0
 20 22  1  0
 20 23  1  0
 23 24  1  0
 23 25  1  0
 23 26  1  0
 26 27  1  0
 26 28  1  0
 26 29  1  0
 29 30  1  0
 29 31  1  0
 29 32  1  0
 32 33  1  0
 32 34  1  0
 12  4  1  0
 32 18  1  0
M  END
>  <cnnaffinity>  (1) 
-4.77045

>  <filename>  (1) 
[H]C(=C(c1c([H])nc([H])c([H])c1[H])C([H])([H])[H])C1([H])C([H])([H])C([H])([H])C([H])([H])C([H])([H])C1([H])[H]

$$$$
