
     RDKit          3D

 35 37  0  0  0  0  0  0  0  0999 V2000
    7.0343   -5.9012   20.5557 F   0  0  0  0  0  0  0  0  0  0  0  0
    7.7686   -5.5285   21.6285 C   0  0  0  0  0  0  0  0  0  0  0  0
    8.0600   -6.4633   22.6233 C   0  0  0  0  0  0  0  0  0  0  0  0
    8.8021   -6.0693   23.7510 C   0  0  0  0  0  0  0  0  0  0  0  0
    9.2983   -4.7650   23.8637 C   0  0  0  0  0  0  0  0  0  0  0  0
   10.3496   -4.2894   25.3952 Br  0  0  0  0  0  0  0  0  0  0  0  0
    9.0560   -3.8400   22.8352 C   0  0  0  0  0  0  0  0  0  0  0  0
    9.5616   -2.4127   22.9056 C   0  0  0  0  0  0  0  0  0  0  0  0
    8.4726   -1.4878   23.4612 C   0  0  0  0  0  0  0  0  0  0  0  0
    7.1842   -1.8773   22.8711 N   0  0  0  0  0  0  0  0  0  0  0  0
    6.3553   -2.8697   23.3422 C   0  0  0  0  0  0  0  0  0  0  0  0
    5.4772   -3.2062   22.4289 N   0  0  0  0  0  0  0  0  0  0  0  0
    5.7444   -2.4499   21.3134 N   0  0  0  0  0  0  0  0  0  0  0  0
    6.7764   -1.6926   21.5801 C   0  0  0  0  0  0  0  0  0  0  0  0
    7.4678   -0.8598   20.7169 N   0  0  0  0  0  0  0  0  0  0  0  0
    6.8180   -0.1685   19.6821 C   0  0  0  0  0  0  0  0  0  0  0  0
    5.5330    0.3056   19.9178 C   0  0  0  0  0  0  0  0  0  0  0  0
    4.9060    1.0647   18.9291 C   0  0  0  0  0  0  0  0  0  0  0  0
    5.5641    1.3054   17.7166 C   0  0  0  0  0  0  0  0  0  0  0  0
    6.7972    0.8277   17.4552 N   0  0  0  0  0  0  0  0  0  0  0  0
    7.4140    0.1175   18.4288 C   0  0  0  0  0  0  0  0  0  0  0  0
    8.4143   -0.2604   18.2395 H   0  0  0  0  0  0  0  0  0  0  0  0
    5.0590    1.9075   16.9671 H   0  0  0  0  0  0  0  0  0  0  0  0
    3.9201    1.4771   19.1000 H   0  0  0  0  0  0  0  0  0  0  0  0
    5.0702    0.0991   20.8782 H   0  0  0  0  0  0  0  0  0  0  0  0
    8.2592   -0.3989   21.1532 H   0  0  0  0  0  0  0  0  0  0  0  0
    6.4395   -3.3269   24.3225 H   0  0  0  0  0  0  0  0  0  0  0  0
    8.4182   -1.5780   24.5512 H   0  0  0  0  0  0  0  0  0  0  0  0
    8.7128   -0.4407   23.2352 H   0  0  0  0  0  0  0  0  0  0  0  0
    9.8373   -2.0796   21.8987 H   0  0  0  0  0  0  0  0  0  0  0  0
   10.4522   -2.3487   23.5376 H   0  0  0  0  0  0  0  0  0  0  0  0
    8.2640   -4.2260   21.7347 C   0  0  0  0  0  0  0  0  0  0  0  0
    8.0249   -3.5303   20.9355 H   0  0  0  0  0  0  0  0  0  0  0  0
    9.0303   -6.7470   24.5659 H   0  0  0  0  0  0  0  0  0  0  0  0
    7.6907   -7.4812   22.5035 H   0  0  0  0  0  0  0  0  0  0  0  0
  1  2  1  0
  2  3  2  0
  3  4  1  0
  4  5  2  0
  5  6  1  0
  5  7  1  0
  7  8  1  0
  8  9  1  0
  9 10  1  0
 10 11  1  0
 11 12  2  0
 12 13  1  0
 13 14  2  0
 14 15  1  0
 15 16  1  0
 16 17  2  0
 17 18  1  0
 18 19  2  0
 19 20  1  0
 20 21  2  0
 21 22  1  0
 19 23  1  0
 18 24  1  0
 17 25  1  0
 15 26  1  0
 11 27  1  0
  9 28  1  0
  9 29  1  0
  8 30  1  0
  8 31  1  0
  7 32  2  0
 32 33  1  0
  4 34  1  0
  3 35  1  0
 32  2  1  0
 14 10  1  0
 21 16  1  0
M  END
>  <cnnaffinity>  (1) 
-6.04885

>  <filename>  (1) 
[H]c1nc([H])c(N([H])c2nnc([H])n2C([H])([H])C([H])([H])c2c([H])c(F)c([H])c([H])c2Br)c([H])c1[H]

$$$$
