
     RDKit          3D

 30 32  0  0  0  0  0  0  0  0999 V2000
    8.0603   -3.5716   22.0963 H   0  0  0  0  0  0  0  0  0  0  0  0
    8.1768   -2.9931   23.0108 C   0  0  0  0  0  0  0  0  0  0  0  0
    8.7492   -3.6482   24.0388 C   0  0  0  0  0  0  0  0  0  0  0  0
    9.3380   -3.0609   25.5957 S   0  0  0  0  0  0  0  0  0  0  0  0
    9.8435   -4.6644   26.1423 C   0  0  0  0  0  0  0  0  0  0  0  0
   10.4932   -5.0678   27.5835 S   0  0  0  0  0  0  0  0  0  0  0  0
    9.6162   -5.5402   25.1313 N   0  0  0  0  0  0  0  0  0  0  0  0
    9.7692   -6.5303   25.2448 H   0  0  0  0  0  0  0  0  0  0  0  0
    9.0037   -5.1177   23.9677 C   0  0  0  0  0  0  0  0  0  0  0  0
    8.7386   -5.8896   23.0762 O   0  0  0  0  0  0  0  0  0  0  0  0
    7.6360   -1.6040   22.9834 C   0  0  0  0  0  0  0  0  0  0  0  0
    6.8438   -1.3307   21.7058 C   0  0  0  0  0  0  0  0  0  0  0  0
    5.8768   -1.9639   21.3709 O   0  0  0  0  0  0  0  0  0  0  0  0
    7.3891   -0.3250   20.9454 O   0  0  0  0  0  0  0  0  0  0  0  0
    6.6663    0.1974   19.8689 C   0  0  0  0  0  0  0  0  0  0  0  0
    7.2230    0.1678   18.5794 C   0  0  0  0  0  0  0  0  0  0  0  0
    8.1729   -0.3370   18.4118 H   0  0  0  0  0  0  0  0  0  0  0  0
    6.6102    0.7136   17.5174 N   0  0  0  0  0  0  0  0  0  0  0  0
    5.4279    1.3196   17.7124 C   0  0  0  0  0  0  0  0  0  0  0  0
    4.9702    1.7761   16.8366 H   0  0  0  0  0  0  0  0  0  0  0  0
    4.7932    1.3666   18.9575 C   0  0  0  0  0  0  0  0  0  0  0  0
    3.8366    1.8633   19.0492 H   0  0  0  0  0  0  0  0  0  0  0  0
    5.4158    0.7785   20.0626 C   0  0  0  0  0  0  0  0  0  0  0  0
    4.9556    0.7534   21.0486 H   0  0  0  0  0  0  0  0  0  0  0  0
    8.3495   -0.4483   23.6581 C   0  0  0  0  0  0  0  0  0  0  0  0
    9.3249   -0.6263   24.1029 H   0  0  0  0  0  0  0  0  0  0  0  0
    8.2650    0.5080   23.1455 H   0  0  0  0  0  0  0  0  0  0  0  0
    7.1070   -0.9788   24.2876 C   0  0  0  0  0  0  0  0  0  0  0  0
    7.1916   -1.5608   25.2032 H   0  0  0  0  0  0  0  0  0  0  0  0
    6.2094   -0.3631   24.2543 H   0  0  0  0  0  0  0  0  0  0  0  0
  1  2  1  0
  2  3  2  3
  3  4  1  0
  4  5  1  0
  5  6  2  0
  5  7  1  0
  7  8  1  0
  7  9  1  0
  9 10  2  0
  2 11  1  0
 11 12  1  0
 12 13  2  0
 12 14  1  0
 14 15  1  0
 15 16  2  0
 16 17  1  0
 16 18  1  0
 18 19  2  0
 19 20  1  0
 19 21  1  0
 21 22  1  0
 21 23  2  0
 23 24  1  0
 11 25  1  0
 25 26  1  0
 25 27  1  0
 25 28  1  0
 28 29  1  0
 28 30  1  0
  9  3  1  0
 28 11  1  0
 23 15  1  0
M  END
>  <cnnaffinity>  (1) 
-5.40132

>  <filename>  (1) 
[H]C(=C1SC(=S)N([H])C1=O)C1(C(=O)Oc2c([H])nc([H])c([H])c2[H])C([H])([H])C1([H])[H]

$$$$
