
     RDKit          3D

 38 41  0  0  0  0  0  0  0  0999 V2000
    4.9703    1.8707   16.9396 H   0  0  0  0  0  0  0  0  0  0  0  0
    5.4145    1.3103   17.7639 C   0  0  0  0  0  0  0  0  0  0  0  0
    6.5579    0.6628   17.5054 N   0  0  0  0  0  0  0  0  0  0  0  0
    7.1375    0.0055   18.5211 C   0  0  0  0  0  0  0  0  0  0  0  0
    8.0739   -0.4876   18.2694 H   0  0  0  0  0  0  0  0  0  0  0  0
    6.6355   -0.0690   19.8353 C   0  0  0  0  0  0  0  0  0  0  0  0
    7.3717   -0.8189   20.9464 C   0  0  1  0  0  0  0  0  0  0  0  0
    7.0202   -1.8581   20.9485 H   0  0  0  0  0  0  0  0  0  0  0  0
    8.9357   -0.8879   20.7982 C   0  0  0  0  0  0  0  0  0  0  0  0
    9.2797   -1.8398   20.3841 H   0  0  0  0  0  0  0  0  0  0  0  0
    9.3064   -0.0780   20.1614 H   0  0  0  0  0  0  0  0  0  0  0  0
    9.4278   -0.6699   22.2019 C   0  0  0  0  0  0  0  0  0  0  0  0
   10.6131   -0.6960   22.7852 N   0  0  0  0  0  0  0  0  0  0  0  0
   10.3417   -0.2648   24.0433 N   0  0  0  0  0  0  0  0  0  0  0  0
   11.1193   -0.1341   24.6730 H   0  0  0  0  0  0  0  0  0  0  0  0
    9.0275    0.0487   24.2551 C   0  0  0  0  0  0  0  0  0  0  0  0
    8.4247    0.6508   25.4953 C   0  0  0  0  0  0  0  0  0  0  0  0
    9.1607    0.6879   26.3059 H   0  0  0  0  0  0  0  0  0  0  0  0
    8.1705    1.6940   25.2648 H   0  0  0  0  0  0  0  0  0  0  0  0
    7.1666   -0.0732   25.9577 C   0  0  0  0  0  0  0  0  0  0  0  0
    7.2630   -1.2392   26.7294 C   0  0  0  0  0  0  0  0  0  0  0  0
    8.2428   -1.6207   27.0038 H   0  0  0  0  0  0  0  0  0  0  0  0
    6.1195   -1.9205   27.1507 C   0  0  0  0  0  0  0  0  0  0  0  0
    6.1948   -2.8287   27.7425 H   0  0  0  0  0  0  0  0  0  0  0  0
    4.8497   -1.4413   26.8116 C   0  0  0  0  0  0  0  0  0  0  0  0
    3.4575   -2.3019   27.3816 Cl  0  0  0  0  0  0  0  0  0  0  0  0
    4.7360   -0.2901   26.0163 C   0  0  0  0  0  0  0  0  0  0  0  0
    3.1836    0.3185   25.5370 Cl  0  0  0  0  0  0  0  0  0  0  0  0
    5.8911    0.3822   25.5954 C   0  0  0  0  0  0  0  0  0  0  0  0
    5.7713    1.2608   24.9683 H   0  0  0  0  0  0  0  0  0  0  0  0
    8.4193   -0.2410   23.0542 C   0  0  0  0  0  0  0  0  0  0  0  0
    7.0895   -0.2380   22.3781 C   0  0  0  0  0  0  0  0  0  0  0  0
    6.6997    0.7828   22.3248 H   0  0  0  0  0  0  0  0  0  0  0  0
    6.3538   -0.8518   22.9093 H   0  0  0  0  0  0  0  0  0  0  0  0
    5.4114    0.5896   20.0596 C   0  0  0  0  0  0  0  0  0  0  0  0
    4.9506    0.5937   21.0488 H   0  0  0  0  0  0  0  0  0  0  0  0
    4.8006    1.2876   19.0164 C   0  0  0  0  0  0  0  0  0  0  0  0
    3.8905    1.8500   19.1804 H   0  0  0  0  0  0  0  0  0  0  0  0
  1  2  1  0
  2  3  2  0
  3  4  1  0
  4  5  1  0
  4  6  2  0
  6  7  1  0
  7  8  1  1
  7  9  1  0
  9 10  1  0
  9 11  1  0
  9 12  1  0
 12 13  2  0
 13 14  1  0
 14 15  1  0
 14 16  1  0
 16 17  1  0
 17 18  1  0
 17 19  1  0
 17 20  1  0
 20 21  2  0
 21 22  1  0
 21 23  1  0
 23 24  1  0
 23 25  2  0
 25 26  1  0
 25 27  1  0
 27 28  1  0
 27 29  2  0
 29 30  1  0
 16 31  2  0
 31 32  1  0
 32 33  1  0
 32 34  1  0
  6 35  1  0
 35 36  1  0
 35 37  2  0
 37 38  1  0
 37  2  1  0
 32  7  1  0
 31 12  1  0
 29 20  1  0
M  END
>  <cnnaffinity>  (1) 
-5.78722

>  <filename>  (1) 
[H]c1nc([H])c([C@@]2([H])C([H])([H])c3nn([H])c(C([H])([H])c4c([H])c([H])c(Cl)c(Cl)c4[H])c3C2([H])[H])c([H])c1[H]

$$$$
