
     RDKit          3D

 37 40  0  0  0  0  0  0  0  0999 V2000
   10.0960   -0.2869   22.4835 H   0  0  0  0  0  0  0  0  0  0  0  0
    9.1689   -0.7183   22.1469 C   0  0  0  0  0  0  0  0  0  0  0  0
    8.4360   -1.5013   22.9592 C   0  0  0  0  0  0  0  0  0  0  0  0
    8.5989   -1.5379   24.4179 C   0  0  0  0  0  0  0  0  0  0  0  0
    8.6864   -0.3565   25.1421 C   0  0  0  0  0  0  0  0  0  0  0  0
    8.4556    0.5837   24.6436 H   0  0  0  0  0  0  0  0  0  0  0  0
    9.0737   -0.3603   26.4984 C   0  0  0  0  0  0  0  0  0  0  0  0
    9.2131    0.5934   26.9993 H   0  0  0  0  0  0  0  0  0  0  0  0
    9.3527   -1.5420   27.1500 C   0  0  0  0  0  0  0  0  0  0  0  0
    9.7218   -1.4922   28.1707 H   0  0  0  0  0  0  0  0  0  0  0  0
    9.2085   -2.7898   26.4681 C   0  0  0  0  0  0  0  0  0  0  0  0
    9.5459   -4.0617   27.0349 C   0  0  0  0  0  0  0  0  0  0  0  0
    9.9698   -4.1462   28.0350 H   0  0  0  0  0  0  0  0  0  0  0  0
    9.3549   -5.1984   26.2921 C   0  0  0  0  0  0  0  0  0  0  0  0
    9.6078   -6.1822   26.6690 H   0  0  0  0  0  0  0  0  0  0  0  0
    8.8229   -5.0937   24.9820 C   0  0  0  0  0  0  0  0  0  0  0  0
    8.6481   -5.9997   24.4032 H   0  0  0  0  0  0  0  0  0  0  0  0
    8.5191   -3.9550   24.4079 N   0  0  0  0  0  0  0  0  0  0  0  0
    8.7623   -2.7926   25.0963 C   0  0  0  0  0  0  0  0  0  0  0  0
    7.4377   -2.2711   22.3908 N   0  0  0  0  0  0  0  0  0  0  0  0
    7.0334   -3.0587   22.8669 H   0  0  0  0  0  0  0  0  0  0  0  0
    6.7391   -1.8913   21.2721 C   0  0  0  0  0  0  0  0  0  0  0  0
    5.6888   -2.4362   21.0018 O   0  0  0  0  0  0  0  0  0  0  0  0
    7.3470   -0.8766   20.5219 N   0  0  0  0  0  0  0  0  0  0  0  0
    6.6207   -0.1183   19.5520 C   0  0  0  0  0  0  0  0  0  0  0  0
    7.1371    0.1058   18.2539 C   0  0  0  0  0  0  0  0  0  0  0  0
    8.0953   -0.3370   17.9786 H   0  0  0  0  0  0  0  0  0  0  0  0
    6.5268    0.8437   17.3198 N   0  0  0  0  0  0  0  0  0  0  0  0
    5.3674    1.4318   17.6549 C   0  0  0  0  0  0  0  0  0  0  0  0
    4.9060    2.0514   16.8886 H   0  0  0  0  0  0  0  0  0  0  0  0
    4.7764    1.2854   18.9133 C   0  0  0  0  0  0  0  0  0  0  0  0
    3.8537    1.8088   19.1291 H   0  0  0  0  0  0  0  0  0  0  0  0
    5.4016    0.4881   19.8805 C   0  0  0  0  0  0  0  0  0  0  0  0
    4.9807    0.3564   20.8760 H   0  0  0  0  0  0  0  0  0  0  0  0
    8.7715   -0.5452   20.7232 C   0  0  0  0  0  0  0  0  0  0  0  0
    8.9398    0.5050   20.4359 H   0  0  0  0  0  0  0  0  0  0  0  0
    9.4183   -1.1580   20.0657 H   0  0  0  0  0  0  0  0  0  0  0  0
  1  2  1  0
  2  3  2  0
  3  4  1  0
  4  5  2  0
  5  6  1  0
  5  7  1  0
  7  8  1  0
  7  9  2  0
  9 10  1  0
  9 11  1  0
 11 12  2  0
 12 13  1  0
 12 14  1  0
 14 15  1  0
 14 16  2  0
 16 17  1  0
 16 18  1  0
 18 19  2  0
  3 20  1  0
 20 21  1  0
 20 22  1  0
 22 23  2  0
 22 24  1  0
 24 25  1  0
 25 26  2  0
 26 27  1  0
 26 28  1  0
 28 29  2  0
 29 30  1  0
 29 31  1  0
 31 32  1  0
 31 33  2  0
 33 34  1  0
 24 35  1  0
 35 36  1  0
 35 37  1  0
 35  2  1  0
 19  4  1  0
 33 25  1  0
 19 11  1  0
M  END
>  <cnnaffinity>  (1) 
-5.33708

>  <filename>  (1) 
[H]C1=C(c2c([H])c([H])c([H])c3c([H])c([H])c([H])nc23)N([H])C(=O)N(c2c([H])nc([H])c([H])c2[H])C1([H])[H]

$$$$
