
     RDKit          3D

 30 32  0  0  0  0  0  0  0  0999 V2000
    4.9629    1.9349   16.6009 H   0  0  0  0  0  0  0  0  0  0  0  0
    5.3414    1.4292   17.4875 C   0  0  0  0  0  0  0  0  0  0  0  0
    6.4761    0.7306   17.3259 N   0  0  0  0  0  0  0  0  0  0  0  0
    6.9817    0.1263   18.4034 C   0  0  0  0  0  0  0  0  0  0  0  0
    7.9037   -0.4299   18.2584 H   0  0  0  0  0  0  0  0  0  0  0  0
    6.3966    0.1792   19.6845 C   0  0  0  0  0  0  0  0  0  0  0  0
    7.1038   -0.4587   20.7967 C   0  0  0  0  0  0  0  0  0  0  0  0
    8.3202   -1.0919   20.5427 N   0  0  0  0  0  0  0  0  0  0  0  0
    8.7307   -1.4958   21.6920 C   0  0  0  0  0  0  0  0  0  0  0  0
   10.0105   -2.2140   21.9839 C   0  0  0  0  0  0  0  0  0  0  0  0
   10.3646   -2.5856   21.0254 H   0  0  0  0  0  0  0  0  0  0  0  0
    9.7750   -3.0837   22.6060 H   0  0  0  0  0  0  0  0  0  0  0  0
   11.0719   -1.3583   22.6648 C   0  0  0  0  0  0  0  0  0  0  0  0
   10.7643   -0.7816   23.9109 C   0  0  0  0  0  0  0  0  0  0  0  0
    9.8186   -1.0369   24.3780 H   0  0  0  0  0  0  0  0  0  0  0  0
   11.6619    0.0816   24.5463 C   0  0  0  0  0  0  0  0  0  0  0  0
   11.4098    0.4918   25.5161 H   0  0  0  0  0  0  0  0  0  0  0  0
   12.8868    0.3900   23.9384 C   0  0  0  0  0  0  0  0  0  0  0  0
   13.5781    1.1062   24.3722 H   0  0  0  0  0  0  0  0  0  0  0  0
   13.2413   -0.2240   22.7399 C   0  0  0  0  0  0  0  0  0  0  0  0
   14.2049   -0.0453   22.2713 H   0  0  0  0  0  0  0  0  0  0  0  0
   12.3477   -1.1043   22.1274 C   0  0  0  0  0  0  0  0  0  0  0  0
   12.9100   -1.8468   20.6524 Cl  0  0  0  0  0  0  0  0  0  0  0  0
    7.8892   -1.2114   22.7115 O   0  0  0  0  0  0  0  0  0  0  0  0
    6.8475   -0.5446   22.1236 C   0  0  0  0  0  0  0  0  0  0  0  0
    6.0558   -0.2196   22.7762 H   0  0  0  0  0  0  0  0  0  0  0  0
    5.1911    0.8859   19.8282 C   0  0  0  0  0  0  0  0  0  0  0  0
    4.6844    0.9539   20.7922 H   0  0  0  0  0  0  0  0  0  0  0  0
    4.6603    1.5230   18.7067 C   0  0  0  0  0  0  0  0  0  0  0  0
    3.7496    2.1114   18.7642 H   0  0  0  0  0  0  0  0  0  0  0  0
  1  2  1  0
  2  3  2  0
  3  4  1  0
  4  5  1  0
  4  6  2  0
  6  7  1  0
  7  8  1  0
  8  9  2  0
  9 10  1  0
 10 11  1  0
 10 12  1  0
 10 13  1  0
 13 14  2  0
 14 15  1  0
 14 16  1  0
 16 17  1  0
 16 18  2  0
 18 19  1  0
 18 20  1  0
 20 21  1  0
 20 22  2  0
 22 23  1  0
  9 24  1  0
 24 25  1  0
 25 26  1  0
  6 27  1  0
 27 28  1  0
 27 29  2  0
 29 30  1  0
 29  2  1  0
 25  7  2  0
 22 13  1  0
M  END
>  <cnnaffinity>  (1) 
-5.44293

>  <filename>  (1) 
[H]c1nc([H])c(-c2nc(C([H])([H])c3c([H])c([H])c([H])c([H])c3Cl)oc2[H])c([H])c1[H]

$$$$
