
     RDKit          3D

 33 35  0  0  0  0  0  0  0  0999 V2000
    9.2602   -2.7544   24.8246 O   0  0  0  0  0  0  0  0  0  0  0  0
    8.1924   -2.3032   25.2011 C   0  0  0  0  0  0  0  0  0  0  0  0
    7.7614   -2.5084   26.6425 C   0  0  0  0  0  0  0  0  0  0  0  0
    6.8845   -3.7257   26.7784 C   0  0  0  0  0  0  0  0  0  0  0  0
    7.4968   -4.9594   27.0042 C   0  0  0  0  0  0  0  0  0  0  0  0
    6.7238   -6.1104   27.1492 C   0  0  0  0  0  0  0  0  0  0  0  0
    5.3363   -6.0559   27.0039 C   0  0  0  0  0  0  0  0  0  0  0  0
    4.2681   -7.6356   27.1170 Br  0  0  0  0  0  0  0  0  0  0  0  0
    4.7235   -4.8225   26.7862 C   0  0  0  0  0  0  0  0  0  0  0  0
    5.4823   -3.6532   26.6979 C   0  0  0  0  0  0  0  0  0  0  0  0
    4.8495   -2.4677   26.5445 F   0  0  0  0  0  0  0  0  0  0  0  0
    3.6449   -4.7760   26.6995 H   0  0  0  0  0  0  0  0  0  0  0  0
    7.2102   -7.0428   27.3872 H   0  0  0  0  0  0  0  0  0  0  0  0
    8.5781   -5.0166   27.0849 H   0  0  0  0  0  0  0  0  0  0  0  0
    8.6619   -2.6332   27.2489 H   0  0  0  0  0  0  0  0  0  0  0  0
    7.2416   -1.6205   26.9978 H   0  0  0  0  0  0  0  0  0  0  0  0
    7.4080   -1.6064   24.3185 N   0  0  0  0  0  0  0  0  0  0  0  0
    7.7413   -1.4499   23.0044 C   0  0  0  0  0  0  0  0  0  0  0  0
    6.8897   -0.7709   22.3241 N   0  0  0  0  0  0  0  0  0  0  0  0
    7.3701   -0.7178   21.0384 C   0  0  0  0  0  0  0  0  0  0  0  0
    6.6322   -0.0189   20.0152 C   0  0  0  0  0  0  0  0  0  0  0  0
    5.4120    0.6422   20.2362 C   0  0  0  0  0  0  0  0  0  0  0  0
    4.8339    1.2763   19.1427 C   0  0  0  0  0  0  0  0  0  0  0  0
    5.4694    1.2416   17.9011 C   0  0  0  0  0  0  0  0  0  0  0  0
    6.6320    0.5991   17.7044 N   0  0  0  0  0  0  0  0  0  0  0  0
    7.2003   -0.0159   18.7462 C   0  0  0  0  0  0  0  0  0  0  0  0
    8.1492   -0.5251   18.5874 H   0  0  0  0  0  0  0  0  0  0  0  0
    5.0124    1.7576   17.0644 H   0  0  0  0  0  0  0  0  0  0  0  0
    3.9000    1.8162   19.2349 H   0  0  0  0  0  0  0  0  0  0  0  0
    4.9289    0.6823   21.2162 H   0  0  0  0  0  0  0  0  0  0  0  0
    8.5062   -1.3148   20.7500 N   0  0  0  0  0  0  0  0  0  0  0  0
    9.1395   -2.0445   22.1318 S   0  0  0  0  0  0  0  0  0  0  0  0
    6.5095   -1.2397   24.6046 H   0  0  0  0  0  0  0  0  0  0  0  0
  1  2  2  0
  2  3  1  0
  3  4  1  0
  4  5  2  0
  5  6  1  0
  6  7  2  0
  7  8  1  0
  7  9  1  0
  9 10  2  0
 10 11  1  0
  9 12  1  0
  6 13  1  0
  5 14  1  0
  3 15  1  0
  3 16  1  0
  2 17  1  0
 17 18  1  0
 18 19  2  0
 19 20  1  0
 20 21  1  0
 21 22  2  0
 22 23  1  0
 23 24  2  0
 24 25  1  0
 25 26  2  0
 26 27  1  0
 24 28  1  0
 23 29  1  0
 22 30  1  0
 20 31  2  0
 31 32  1  0
 17 33  1  0
 10  4  1  0
 32 18  1  0
 26 21  1  0
M  END
>  <cnnaffinity>  (1) 
-5.57985

>  <filename>  (1) 
[H]c1nc([H])c(-c2nsc(N([H])C(=O)C([H])([H])c3c([H])c([H])c(Br)c([H])c3F)n2)c([H])c1[H]

$$$$
