
     RDKit          3D

 38 40  0  0  0  0  0  0  0  0999 V2000
    9.5373   -1.3295   25.5429 C   0  0  0  0  0  0  0  0  0  0  0  0
    9.3194   -2.3701   24.4376 C   0  0  0  0  0  0  0  0  0  0  0  0
    9.0728   -1.6825   23.1895 N   0  0  0  0  0  0  0  0  0  0  0  0
    8.7162   -2.3235   22.0362 C   0  0  0  0  0  0  0  0  0  0  0  0
    8.8133   -3.5215   21.8651 O   0  0  0  0  0  0  0  0  0  0  0  0
    8.2320   -1.4173   20.9571 C   0  0  0  0  0  0  0  0  0  0  0  0
    7.2793   -0.4871   21.0866 C   0  0  0  0  0  0  0  0  0  0  0  0
    6.5990    0.1506   19.9494 C   0  0  0  0  0  0  0  0  0  0  0  0
    5.3705    0.8069   20.1237 C   0  0  0  0  0  0  0  0  0  0  0  0
    4.7559    1.3936   19.0161 C   0  0  0  0  0  0  0  0  0  0  0  0
    5.3925    1.3220   17.7711 C   0  0  0  0  0  0  0  0  0  0  0  0
    6.5636    0.6927   17.5804 N   0  0  0  0  0  0  0  0  0  0  0  0
    7.1324    0.1238   18.6468 C   0  0  0  0  0  0  0  0  0  0  0  0
    8.0803   -0.3792   18.4663 H   0  0  0  0  0  0  0  0  0  0  0  0
    4.9423    1.7755   16.8879 H   0  0  0  0  0  0  0  0  0  0  0  0
    3.8018    1.9018   19.0994 H   0  0  0  0  0  0  0  0  0  0  0  0
    4.9045    0.8408   21.1103 H   0  0  0  0  0  0  0  0  0  0  0  0
    6.9042   -0.1974   22.0742 H   0  0  0  0  0  0  0  0  0  0  0  0
    8.5936   -1.7097   19.9783 H   0  0  0  0  0  0  0  0  0  0  0  0
    8.8074   -0.7153   23.2485 H   0  0  0  0  0  0  0  0  0  0  0  0
    8.2077   -3.3371   24.7890 C   0  0  0  0  0  0  0  0  0  0  0  0
    8.3772   -4.6078   25.2095 C   0  0  0  0  0  0  0  0  0  0  0  0
    7.1600   -5.2180   25.6601 C   0  0  0  0  0  0  0  0  0  0  0  0
    7.0093   -6.4852   26.2301 C   0  0  0  0  0  0  0  0  0  0  0  0
    5.7555   -6.9279   26.6213 C   0  0  0  0  0  0  0  0  0  0  0  0
    4.6297   -6.0896   26.4482 C   0  0  0  0  0  0  0  0  0  0  0  0
    4.7620   -4.8137   25.8997 C   0  0  0  0  0  0  0  0  0  0  0  0
    6.0435   -4.3778   25.5080 C   0  0  0  0  0  0  0  0  0  0  0  0
    6.5284   -2.8483   24.8103 S   0  0  0  0  0  0  0  0  0  0  0  0
    3.9013   -4.1594   25.7915 H   0  0  0  0  0  0  0  0  0  0  0  0
    3.6510   -6.4436   26.7599 H   0  0  0  0  0  0  0  0  0  0  0  0
    5.6439   -7.9075   27.0725 H   0  0  0  0  0  0  0  0  0  0  0  0
    7.9278   -7.0477   26.3238 H   0  0  0  0  0  0  0  0  0  0  0  0
    9.3344   -5.1240   25.2020 H   0  0  0  0  0  0  0  0  0  0  0  0
   10.2160   -3.0011   24.3376 H   0  0  0  0  0  0  0  0  0  0  0  0
   10.4911   -0.8084   25.4081 H   0  0  0  0  0  0  0  0  0  0  0  0
    9.5258   -1.7895   26.5349 H   0  0  0  0  0  0  0  0  0  0  0  0
    8.7247   -0.5974   25.5402 H   0  0  0  0  0  0  0  0  0  0  0  0
  1  2  1  0
  2  3  1  0
  3  4  1  0
  4  5  2  0
  4  6  1  0
  6  7  2  3
  7  8  1  0
  8  9  2  0
  9 10  1  0
 10 11  2  0
 11 12  1  0
 12 13  2  0
 13 14  1  0
 11 15  1  0
 10 16  1  0
  9 17  1  0
  7 18  1  0
  6 19  1  0
  3 20  1  0
  2 21  1  0
 21 22  2  0
 22 23  1  0
 23 24  2  0
 24 25  1  0
 25 26  2  0
 26 27  1  0
 27 28  2  0
 28 29  1  0
 27 30  1  0
 26 31  1  0
 25 32  1  0
 24 33  1  0
 22 34  1  0
  2 35  1  0
  1 36  1  0
  1 37  1  0
  1 38  1  0
 13  8  1  0
 29 21  1  0
 28 23  1  0
M  END
>  <cnnaffinity>  (1) 
-5.41699

>  <filename>  (1) 
[H]C(C(=O)N([H])C([H])(c1sc2c([H])c([H])c([H])c([H])c2c1[H])C([H])([H])[H])=C([H])c1c([H])nc([H])c([H])c1[H]

$$$$
