
     RDKit          3D

 25 26  0  0  0  0  0  0  0  0999 V2000
    7.4602    1.0519   22.2784 H   0  0  0  0  0  0  0  0  0  0  0  0
    7.6601    0.0009   22.1508 C   0  0  0  0  0  0  0  0  0  0  0  0
    7.2919   -0.6227   21.0166 C   0  0  0  0  0  0  0  0  0  0  0  0
    6.6060    0.0333   19.8938 C   0  0  0  0  0  0  0  0  0  0  0  0
    7.1659    0.0178   18.6016 C   0  0  0  0  0  0  0  0  0  0  0  0
    8.1200   -0.4777   18.4258 H   0  0  0  0  0  0  0  0  0  0  0  0
    6.6131    0.6169   17.5384 N   0  0  0  0  0  0  0  0  0  0  0  0
    5.4543    1.2651   17.7380 C   0  0  0  0  0  0  0  0  0  0  0  0
    5.0167    1.7435   16.8646 H   0  0  0  0  0  0  0  0  0  0  0  0
    4.8150    1.3577   18.9828 C   0  0  0  0  0  0  0  0  0  0  0  0
    3.8801    1.8997   19.0774 H   0  0  0  0  0  0  0  0  0  0  0  0
    5.4131    0.7472   20.0885 C   0  0  0  0  0  0  0  0  0  0  0  0
    4.9729    0.8078   21.0883 H   0  0  0  0  0  0  0  0  0  0  0  0
    7.6182   -1.9635   20.8469 N   0  0  0  0  0  0  0  0  0  0  0  0
    7.2434   -2.4955   20.0830 H   0  0  0  0  0  0  0  0  0  0  0  0
    8.0592   -2.7622   21.8511 C   0  0  0  0  0  0  0  0  0  0  0  0
    8.0099   -4.4129   21.7169 S   0  0  0  0  0  0  0  0  0  0  0  0
    8.5052   -2.1290   22.9568 N   0  0  0  0  0  0  0  0  0  0  0  0
    8.6424   -2.7817   23.7147 H   0  0  0  0  0  0  0  0  0  0  0  0
    8.4307   -0.6830   23.2312 C   0  0  1  0  0  0  0  0  0  0  0  0
    7.9247   -0.5312   24.2049 H   0  0  0  0  0  0  0  0  0  0  0  0
    9.8301   -0.0125   23.5179 C   0  0  0  0  0  0  0  0  0  0  0  0
   10.4619   -0.6372   24.5238 F   0  0  0  0  0  0  0  0  0  0  0  0
   10.6449   -0.0105   22.4563 F   0  0  0  0  0  0  0  0  0  0  0  0
    9.6368    1.2662   23.8980 F   0  0  0  0  0  0  0  0  0  0  0  0
  1  2  1  0
  2  3  2  0
  3  4  1  0
  4  5  2  0
  5  6  1  0
  5  7  1  0
  7  8  2  0
  8  9  1  0
  8 10  1  0
 10 11  1  0
 10 12  2  0
 12 13  1  0
  3 14  1  0
 14 15  1  0
 14 16  1  0
 16 17  2  0
 16 18  1  0
 18 19  1  0
 18 20  1  0
 20 21  1  1
 20 22  1  0
 22 23  1  0
 22 24  1  0
 22 25  1  0
 20  2  1  0
 12  4  1  0
M  END
>  <cnnaffinity>  (1) 
-4.75102

>  <filename>  (1) 
[H]C1=C(c2c([H])nc([H])c([H])c2[H])N([H])C(=S)N([H])[C@@]1([H])C(F)(F)F

$$$$
