
     RDKit          3D

 42 45  0  0  0  0  0  0  0  0999 V2000
   11.0563   -1.2913   22.5150 C   0  0  0  0  0  0  0  0  0  0  0  0
   10.0521   -2.2654   21.8978 C   0  0  0  0  0  0  0  0  0  0  0  0
    8.7218   -1.6926   21.6927 N   0  0  0  0  0  0  0  0  0  0  0  0
    8.3926   -1.2218   20.4710 N   0  0  0  0  0  0  0  0  0  0  0  0
    7.2055   -0.6771   20.6637 C   0  0  0  0  0  0  0  0  0  0  0  0
    6.5006    0.0305   19.5940 C   0  0  0  0  0  0  0  0  0  0  0  0
    5.3083    0.7393   19.8033 C   0  0  0  0  0  0  0  0  0  0  0  0
    4.7651    1.4376   18.7256 C   0  0  0  0  0  0  0  0  0  0  0  0
    5.4234    1.4003   17.4913 C   0  0  0  0  0  0  0  0  0  0  0  0
    6.5597    0.7192   17.2824 N   0  0  0  0  0  0  0  0  0  0  0  0
    7.0852    0.0606   18.3191 C   0  0  0  0  0  0  0  0  0  0  0  0
    8.0217   -0.4638   18.1344 H   0  0  0  0  0  0  0  0  0  0  0  0
    5.0285    1.9393   16.6312 H   0  0  0  0  0  0  0  0  0  0  0  0
    3.8610    2.0275   18.8267 H   0  0  0  0  0  0  0  0  0  0  0  0
    4.8378    0.7600   20.7886 H   0  0  0  0  0  0  0  0  0  0  0  0
    6.7552   -0.7577   21.9372 N   0  0  0  0  0  0  0  0  0  0  0  0
    7.7240   -1.4092   22.5643 C   0  0  0  0  0  0  0  0  0  0  0  0
    7.8502   -1.6430   24.0296 C   0  0  0  0  0  0  0  0  0  0  0  0
    8.0357   -0.5458   24.8439 C   0  0  0  0  0  0  0  0  0  0  0  0
    8.2490   -0.6752   26.2399 C   0  0  0  0  0  0  0  0  0  0  0  0
    8.4321    0.5096   26.8823 O   0  0  0  0  0  0  0  0  0  0  0  0
    8.1756    0.5682   28.2702 C   0  0  0  0  0  0  0  0  0  0  0  0
    8.0793    1.6265   28.5113 H   0  0  0  0  0  0  0  0  0  0  0  0
    7.2388    0.0608   28.5273 H   0  0  0  0  0  0  0  0  0  0  0  0
    8.9936    0.1379   28.8626 H   0  0  0  0  0  0  0  0  0  0  0  0
    8.2593   -1.9123   26.8404 C   0  0  0  0  0  0  0  0  0  0  0  0
    8.0103   -3.0686   26.0514 C   0  0  0  0  0  0  0  0  0  0  0  0
    7.9066   -4.3572   26.6358 C   0  0  0  0  0  0  0  0  0  0  0  0
    7.5870   -5.4397   25.8559 C   0  0  0  0  0  0  0  0  0  0  0  0
    7.3811   -5.3615   24.5152 N   0  0  0  0  0  0  0  0  0  0  0  0
    7.4835   -4.1693   23.9500 C   0  0  0  0  0  0  0  0  0  0  0  0
    7.7973   -2.9565   24.6412 C   0  0  0  0  0  0  0  0  0  0  0  0
    7.3019   -4.1277   22.8762 H   0  0  0  0  0  0  0  0  0  0  0  0
    7.4695   -6.4278   26.3026 H   0  0  0  0  0  0  0  0  0  0  0  0
    8.0585   -4.4776   27.7027 H   0  0  0  0  0  0  0  0  0  0  0  0
    8.4033   -2.0049   27.9088 H   0  0  0  0  0  0  0  0  0  0  0  0
    8.0049    0.4636   24.4527 H   0  0  0  0  0  0  0  0  0  0  0  0
    9.9406   -3.1631   22.5194 H   0  0  0  0  0  0  0  0  0  0  0  0
   10.3697   -2.5592   20.8963 H   0  0  0  0  0  0  0  0  0  0  0  0
   10.8250   -1.1024   23.5693 H   0  0  0  0  0  0  0  0  0  0  0  0
   11.0561   -0.3399   21.9718 H   0  0  0  0  0  0  0  0  0  0  0  0
   12.0644   -1.7159   22.4450 H   0  0  0  0  0  0  0  0  0  0  0  0
  1  2  1  0
  2  3  1  0
  3  4  1  0
  4  5  2  0
  5  6  1  0
  6  7  2  0
  7  8  1  0
  8  9  2  0
  9 10  1  0
 10 11  2  0
 11 12  1  0
  9 13  1  0
  8 14  1  0
  7 15  1  0
  5 16  1  0
 16 17  2  0
 17 18  1  0
 18 19  2  0
 19 20  1  0
 20 21  1  0
 21 22  1  0
 22 23  1  0
 22 24  1  0
 22 25  1  0
 20 26  2  0
 26 27  1  0
 27 28  2  0
 28 29  1  0
 29 30  2  0
 30 31  1  0
 31 32  2  0
 31 33  1  0
 29 34  1  0
 28 35  1  0
 26 36  1  0
 19 37  1  0
  2 38  1  0
  2 39  1  0
  1 40  1  0
  1 41  1  0
  1 42  1  0
 17  3  1  0
 32 18  1  0
 11  6  1  0
 32 27  1  0
M  END
>  <cnnaffinity>  (1) 
-5.98495

>  <filename>  (1) 
[H]c1nc([H])c(-c2nc(-c3c([H])c(OC([H])([H])[H])c([H])c4c([H])c([H])nc([H])c34)n(C([H])([H])C([H])([H])[H])n2)c([H])c1[H]

$$$$
