
     RDKit          3D

 31 34  0  0  0  0  0  0  0  0999 V2000
    4.8125    1.3043   19.1104 C   0  0  0  0  0  0  0  0  0  0  0  0
    5.4050    1.2887   17.8447 C   0  0  0  0  0  0  0  0  0  0  0  0
    6.5732    0.6720   17.5943 N   0  0  0  0  0  0  0  0  0  0  0  0
    7.1844    0.0493   18.6058 C   0  0  0  0  0  0  0  0  0  0  0  0
    6.6612    0.0025   19.9088 C   0  0  0  0  0  0  0  0  0  0  0  0
    7.3600   -0.6757   20.9364 N   0  0  0  0  0  0  0  0  0  0  0  0
    7.2461   -0.4845   22.2757 C   0  0  0  0  0  0  0  0  0  0  0  0
    8.1060   -1.3569   22.9004 C   0  0  0  0  0  0  0  0  0  0  0  0
    8.3299   -1.4954   24.3477 C   0  0  0  0  0  0  0  0  0  0  0  0
    8.1784   -0.4093   25.1922 C   0  0  0  0  0  0  0  0  0  0  0  0
    8.3837   -0.4317   26.5280 N   0  0  0  0  0  0  0  0  0  0  0  0
    8.7511   -1.5719   27.0854 C   0  0  0  0  0  0  0  0  0  0  0  0
    8.9377   -2.7881   26.3725 C   0  0  0  0  0  0  0  0  0  0  0  0
    9.3117   -3.9556   27.0223 N   0  0  0  0  0  0  0  0  0  0  0  0
    9.4318   -5.0105   26.2468 C   0  0  0  0  0  0  0  0  0  0  0  0
    9.1979   -4.9685   24.8247 C   0  0  0  0  0  0  0  0  0  0  0  0
    8.8615   -3.8718   24.1896 N   0  0  0  0  0  0  0  0  0  0  0  0
    8.7136   -2.7348   24.9601 C   0  0  0  0  0  0  0  0  0  0  0  0
    9.3098   -5.8735   24.2323 H   0  0  0  0  0  0  0  0  0  0  0  0
    9.7193   -5.9535   26.7070 H   0  0  0  0  0  0  0  0  0  0  0  0
    8.9143   -1.5711   28.1543 H   0  0  0  0  0  0  0  0  0  0  0  0
    7.8928    0.5626   24.7872 H   0  0  0  0  0  0  0  0  0  0  0  0
    8.7315   -2.0282   21.8087 C   0  0  0  0  0  0  0  0  0  0  0  0
    8.2895   -1.6105   20.6419 N   0  0  0  0  0  0  0  0  0  0  0  0
    9.4892   -2.7915   21.9042 H   0  0  0  0  0  0  0  0  0  0  0  0
    6.5632    0.2466   22.6909 H   0  0  0  0  0  0  0  0  0  0  0  0
    5.4426    0.6480   20.1673 C   0  0  0  0  0  0  0  0  0  0  0  0
    4.9945    0.6285   21.1607 H   0  0  0  0  0  0  0  0  0  0  0  0
    8.1292   -0.4353   18.3773 H   0  0  0  0  0  0  0  0  0  0  0  0
    4.9213    1.7767   17.0009 H   0  0  0  0  0  0  0  0  0  0  0  0
    3.8814    1.8371   19.2654 H   0  0  0  0  0  0  0  0  0  0  0  0
  1  2  2  0
  2  3  1  0
  3  4  2  0
  4  5  1  0
  5  6  1  0
  6  7  1  0
  7  8  2  0
  8  9  1  0
  9 10  2  0
 10 11  1  0
 11 12  2  0
 12 13  1  0
 13 14  2  0
 14 15  1  0
 15 16  2  0
 16 17  1  0
 17 18  2  0
 16 19  1  0
 15 20  1  0
 12 21  1  0
 10 22  1  0
  8 23  1  0
 23 24  2  0
 23 25  1  0
  7 26  1  0
  5 27  2  0
 27 28  1  0
  4 29  1  0
  2 30  1  0
  1 31  1  0
 27  1  1  0
 24  6  1  0
 18  9  1  0
 18 13  1  0
M  END
>  <cnnaffinity>  (1) 
-5.60355

>  <filename>  (1) 
[H]c1nc2c([H])nc([H])c(-c3c([H])nn(-c4c([H])nc([H])c([H])c4[H])c3[H])c2nc1[H]

$$$$
