
     RDKit          3D

 30 31  0  0  0  0  0  0  0  0999 V2000
    5.0020    1.7218   17.0140 H   0  0  0  0  0  0  0  0  0  0  0  0
    5.4547    1.2574   17.8896 C   0  0  0  0  0  0  0  0  0  0  0  0
    6.6232    0.6265   17.6961 N   0  0  0  0  0  0  0  0  0  0  0  0
    7.2185    0.0741   18.7480 C   0  0  0  0  0  0  0  0  0  0  0  0
    8.1661   -0.4332   18.5637 H   0  0  0  0  0  0  0  0  0  0  0  0
    6.6572    0.1274   20.0130 C   0  0  0  0  0  0  0  0  0  0  0  0
    7.5532   -0.7803   21.1701 S   0  0  0  0  0  0  0  0  0  0  0  0
    6.8786   -2.0278   21.4738 O   0  0  0  0  0  0  0  0  0  0  0  0
    8.9524   -0.7118   20.8126 O   0  0  0  0  0  0  0  0  0  0  0  0
    7.2318    0.0496   22.5400 N   0  0  0  0  0  0  0  0  0  0  0  0
    6.8325   -0.5758   23.2133 H   0  0  0  0  0  0  0  0  0  0  0  0
    7.7274    1.3202   22.7218 C   0  0  0  0  0  0  0  0  0  0  0  0
    8.2714    1.8579   21.7826 O   0  0  0  0  0  0  0  0  0  0  0  0
    7.5102    2.0348   24.0885 C   0  0  0  0  0  0  0  0  0  0  0  0
    6.8597    1.3941   25.0777 N   0  0  0  0  0  0  0  0  0  0  0  0
    6.6409    2.0243   26.2416 C   0  0  0  0  0  0  0  0  0  0  0  0
    5.8771    1.2911   27.3727 C   0  0  0  0  0  0  0  0  0  0  0  0
    5.5031    0.0473   27.0679 F   0  0  0  0  0  0  0  0  0  0  0  0
    4.7646    1.9801   27.7155 F   0  0  0  0  0  0  0  0  0  0  0  0
    6.6314    1.2322   28.4926 F   0  0  0  0  0  0  0  0  0  0  0  0
    7.0717    3.3407   26.4702 C   0  0  0  0  0  0  0  0  0  0  0  0
    6.8695    3.8194   27.4229 H   0  0  0  0  0  0  0  0  0  0  0  0
    7.7550    4.0118   25.4530 C   0  0  0  0  0  0  0  0  0  0  0  0
    8.0932    5.0363   25.6110 H   0  0  0  0  0  0  0  0  0  0  0  0
    7.9854    3.3560   24.2411 C   0  0  0  0  0  0  0  0  0  0  0  0
    8.5100    3.8406   23.4221 H   0  0  0  0  0  0  0  0  0  0  0  0
    5.4109    0.7238   20.2364 C   0  0  0  0  0  0  0  0  0  0  0  0
    4.9133    0.7284   21.2102 H   0  0  0  0  0  0  0  0  0  0  0  0
    4.8129    1.3160   19.1309 C   0  0  0  0  0  0  0  0  0  0  0  0
    3.8659    1.8309   19.2229 H   0  0  0  0  0  0  0  0  0  0  0  0
  1  2  1  0
  2  3  2  0
  3  4  1  0
  4  5  1  0
  4  6  2  0
  6  7  1  0
  7  8  2  0
  7  9  2  0
  7 10  1  0
 10 11  1  0
 10 12  1  0
 12 13  2  0
 12 14  1  0
 14 15  2  0
 15 16  1  0
 16 17  1  0
 17 18  1  0
 17 19  1  0
 17 20  1  0
 16 21  2  0
 21 22  1  0
 21 23  1  0
 23 24  1  0
 23 25  2  0
 25 26  1  0
  6 27  1  0
 27 28  1  0
 27 29  2  0
 29 30  1  0
 29  2  1  0
 25 14  1  0
M  END
>  <cnnaffinity>  (1) 
-4.99861

>  <filename>  (1) 
[H]c1nc([H])c(S(=O)(=O)N([H])C(=O)c2nc(C(F)(F)F)c([H])c([H])c2[H])c([H])c1[H]

$$$$
