
     RDKit          3D

 42 44  0  0  0  0  0  0  0  0999 V2000
   12.4961   -1.8458   22.0084 C   0  0  0  0  0  0  0  0  0  0  0  0
   11.0831   -1.2384   22.1015 C   0  0  0  0  0  0  0  0  0  0  0  0
    9.9662   -2.3193   22.1077 C   0  0  0  0  0  0  0  0  0  0  0  0
    8.6149   -1.7065   21.9401 C   0  0  0  0  0  0  0  0  0  0  0  0
    8.2625   -1.2251   20.7646 N   0  0  0  0  0  0  0  0  0  0  0  0
    7.0845   -0.6062   21.0117 C   0  0  0  0  0  0  0  0  0  0  0  0
    6.4026    0.1038   19.9396 C   0  0  0  0  0  0  0  0  0  0  0  0
    5.1905    0.8018   20.0733 C   0  0  0  0  0  0  0  0  0  0  0  0
    4.6834    1.4288   18.9365 C   0  0  0  0  0  0  0  0  0  0  0  0
    5.3936    1.3434   17.7327 C   0  0  0  0  0  0  0  0  0  0  0  0
    6.5493    0.6762   17.6019 N   0  0  0  0  0  0  0  0  0  0  0  0
    7.0341    0.0771   18.6891 C   0  0  0  0  0  0  0  0  0  0  0  0
    7.9734   -0.4600   18.5715 H   0  0  0  0  0  0  0  0  0  0  0  0
    5.0199    1.8236   16.8311 H   0  0  0  0  0  0  0  0  0  0  0  0
    3.7540    1.9864   18.9614 H   0  0  0  0  0  0  0  0  0  0  0  0
    4.6742    0.8478   21.0348 H   0  0  0  0  0  0  0  0  0  0  0  0
    6.6694   -0.7040   22.2564 N   0  0  0  0  0  0  0  0  0  0  0  0
    7.6641   -1.4033   22.8586 N   0  0  0  0  0  0  0  0  0  0  0  0
    7.4837   -1.7736   24.2540 C   0  0  0  0  0  0  0  0  0  0  0  0
    6.7798   -3.1039   24.4508 C   0  0  0  0  0  0  0  0  0  0  0  0
    7.5934   -4.1222   23.9698 F   0  0  0  0  0  0  0  0  0  0  0  0
    5.8215   -3.1326   23.9212 H   0  0  0  0  0  0  0  0  0  0  0  0
    6.6140   -3.2726   25.5221 H   0  0  0  0  0  0  0  0  0  0  0  0
    8.4528   -1.8220   24.7520 H   0  0  0  0  0  0  0  0  0  0  0  0
    6.9045   -0.9592   24.7015 H   0  0  0  0  0  0  0  0  0  0  0  0
   10.0758   -2.9282   21.2159 H   0  0  0  0  0  0  0  0  0  0  0  0
   10.0165   -2.9915   22.9693 H   0  0  0  0  0  0  0  0  0  0  0  0
   10.8975   -0.2795   23.2704 C   0  0  0  0  0  0  0  0  0  0  0  0
   10.8954    1.1091   23.0648 C   0  0  0  0  0  0  0  0  0  0  0  0
   10.6256    2.0011   24.1103 C   0  0  0  0  0  0  0  0  0  0  0  0
   10.3371    1.5124   25.3869 C   0  0  0  0  0  0  0  0  0  0  0  0
   10.4034    0.1380   25.5994 C   0  0  0  0  0  0  0  0  0  0  0  0
   10.1429   -0.3263   26.8351 F   0  0  0  0  0  0  0  0  0  0  0  0
   10.6890   -0.7588   24.5687 C   0  0  0  0  0  0  0  0  0  0  0  0
   10.6779   -1.8248   24.7684 H   0  0  0  0  0  0  0  0  0  0  0  0
   10.0387    2.1530   26.2096 H   0  0  0  0  0  0  0  0  0  0  0  0
   10.6248    3.0756   23.9196 H   0  0  0  0  0  0  0  0  0  0  0  0
   11.0425    1.4781   22.0538 H   0  0  0  0  0  0  0  0  0  0  0  0
   10.9192   -0.6556   21.1840 H   0  0  0  0  0  0  0  0  0  0  0  0
   13.2638   -1.2016   22.4458 H   0  0  0  0  0  0  0  0  0  0  0  0
   12.5480   -2.8137   22.5150 H   0  0  0  0  0  0  0  0  0  0  0  0
   12.7827   -1.9923   20.9620 H   0  0  0  0  0  0  0  0  0  0  0  0
  1  2  1  0
  2  3  1  0
  3  4  1  0
  4  5  2  0
  5  6  1  0
  6  7  1  0
  7  8  2  0
  8  9  1  0
  9 10  2  0
 10 11  1  0
 11 12  2  0
 12 13  1  0
 10 14  1  0
  9 15  1  0
  8 16  1  0
  6 17  2  0
 17 18  1  0
 18 19  1  0
 19 20  1  0
 20 21  1  0
 20 22  1  0
 20 23  1  0
 19 24  1  0
 19 25  1  0
  3 26  1  0
  3 27  1  0
  2 28  1  0
 28 29  2  0
 29 30  1  0
 30 31  2  0
 31 32  1  0
 32 33  1  0
 32 34  2  0
 34 35  1  0
 31 36  1  0
 30 37  1  0
 29 38  1  0
  2 39  1  0
  1 40  1  0
  1 41  1  0
  1 42  1  0
 18  4  1  0
 34 28  1  0
 12  7  1  0
M  END
>  <cnnaffinity>  (1) 
-6.07865

>  <filename>  (1) 
[H]c1nc([H])c(-c2nc(C([H])([H])C([H])(c3c([H])c([H])c([H])c(F)c3[H])C([H])([H])[H])n(C([H])([H])C([H])([H])F)n2)c([H])c1[H]

$$$$
