
     RDKit          3D

 40 44  0  0  0  0  0  0  0  0999 V2000
    9.6232    4.8000   22.7951 F   0  0  0  0  0  0  0  0  0  0  0  0
    9.2548    4.1644   23.9125 C   0  0  0  0  0  0  0  0  0  0  0  0
    8.8133    2.8685   23.9051 C   0  0  0  0  0  0  0  0  0  0  0  0
    8.7129    1.9243   22.7968 C   0  0  0  0  0  0  0  0  0  0  0  0
    7.7176    1.0784   22.6106 N   0  0  0  0  0  0  0  0  0  0  0  0
    8.0624    0.4395   21.4705 C   0  0  0  0  0  0  0  0  0  0  0  0
    7.2217   -0.6413   20.8496 C   0  0  0  0  0  0  0  0  0  0  0  0
    6.4234   -0.1129   19.6711 C   0  0  0  0  0  0  0  0  0  0  0  0
    5.2567    0.6272   19.8939 C   0  0  0  0  0  0  0  0  0  0  0  0
    4.6941    1.3325   18.8290 C   0  0  0  0  0  0  0  0  0  0  0  0
    5.3163    1.2636   17.5778 C   0  0  0  0  0  0  0  0  0  0  0  0
    6.3931    0.5030   17.3273 N   0  0  0  0  0  0  0  0  0  0  0  0
    6.9155   -0.1718   18.3579 C   0  0  0  0  0  0  0  0  0  0  0  0
    7.7856   -0.7916   18.1373 H   0  0  0  0  0  0  0  0  0  0  0  0
    4.9332    1.8375   16.7360 H   0  0  0  0  0  0  0  0  0  0  0  0
    3.8167    1.9560   18.9642 H   0  0  0  0  0  0  0  0  0  0  0  0
    4.8190    0.6611   20.8945 H   0  0  0  0  0  0  0  0  0  0  0  0
    7.8858   -1.4571   20.5445 H   0  0  0  0  0  0  0  0  0  0  0  0
    6.5591   -1.0214   21.6320 H   0  0  0  0  0  0  0  0  0  0  0  0
    9.2129    0.8138   20.9378 N   0  0  0  0  0  0  0  0  0  0  0  0
    9.6455    1.7572   21.8098 N   0  0  0  0  0  0  0  0  0  0  0  0
   11.0036    2.1806   21.8816 C   0  0  0  0  0  0  0  0  0  0  0  0
   11.6209    3.0135   20.9578 C   0  0  0  0  0  0  0  0  0  0  0  0
   12.8340    3.6595   21.2831 C   0  0  0  0  0  0  0  0  0  0  0  0
   13.5496    3.3380   22.4416 C   0  0  0  0  0  0  0  0  0  0  0  0
   13.0211    2.3266   23.2675 C   0  0  0  0  0  0  0  0  0  0  0  0
   11.7594    1.7886   22.9932 C   0  0  0  0  0  0  0  0  0  0  0  0
   11.5243    0.8482   23.9701 N   0  0  0  0  0  0  0  0  0  0  0  0
   12.6494    0.8273   24.7397 C   0  0  0  0  0  0  0  0  0  0  0  0
   13.5522    1.6736   24.3587 N   0  0  0  0  0  0  0  0  0  0  0  0
   12.7515    0.1623   25.5866 H   0  0  0  0  0  0  0  0  0  0  0  0
   10.8649    0.0983   23.8876 H   0  0  0  0  0  0  0  0  0  0  0  0
   14.5133    3.7765   22.6760 H   0  0  0  0  0  0  0  0  0  0  0  0
   13.2235    4.4030   20.5922 H   0  0  0  0  0  0  0  0  0  0  0  0
   11.1940    3.1566   19.9766 H   0  0  0  0  0  0  0  0  0  0  0  0
    8.2629    2.4268   25.4786 S   0  0  0  0  0  0  0  0  0  0  0  0
    8.7210    3.9467   26.1246 C   0  0  0  0  0  0  0  0  0  0  0  0
    9.2231    4.7959   25.1826 C   0  0  0  0  0  0  0  0  0  0  0  0
    9.5728    5.8082   25.3505 H   0  0  0  0  0  0  0  0  0  0  0  0
    8.5645    4.1361   27.1778 H   0  0  0  0  0  0  0  0  0  0  0  0
  1  2  1  0
  2  3  2  0
  3  4  1  0
  4  5  2  0
  5  6  1  0
  6  7  1  0
  7  8  1  0
  8  9  2  0
  9 10  1  0
 10 11  2  0
 11 12  1  0
 12 13  2  0
 13 14  1  0
 11 15  1  0
 10 16  1  0
  9 17  1  0
  7 18  1  0
  7 19  1  0
  6 20  2  0
 20 21  1  0
 21 22  1  0
 22 23  2  0
 23 24  1  0
 24 25  2  0
 25 26  1  0
 26 27  2  0
 27 28  1  0
 28 29  1  0
 29 30  2  0
 29 31  1  0
 28 32  1  0
 25 33  1  0
 24 34  1  0
 23 35  1  0
  3 36  1  0
 36 37  1  0
 37 38  2  0
 38 39  1  0
 37 40  1  0
 38  2  1  0
 21  4  1  0
 27 22  1  0
 13  8  1  0
 30 26  1  0
M  END
>  <cnnaffinity>  (1) 
-6.32733

>  <filename>  (1) 
[H]c1nc([H])c(C([H])([H])c2nc(-c3sc([H])c([H])c3F)n(-c3c([H])c([H])c([H])c4nc([H])n([H])c34)n2)c([H])c1[H]

$$$$
