
     RDKit          3D

 29 31  0  0  0  0  0  0  0  0999 V2000
    5.5331   -3.1857   26.6383 H   0  0  0  0  0  0  0  0  0  0  0  0
    6.4579   -3.1564   26.0594 C   0  0  0  0  0  0  0  0  0  0  0  0
    7.4991   -3.7842   26.5881 N   0  0  0  0  0  0  0  0  0  0  0  0
    8.5858   -3.7065   25.8360 C   0  0  0  0  0  0  0  0  0  0  0  0
    9.6394   -4.3086   26.3412 N   0  0  0  0  0  0  0  0  0  0  0  0
    9.4539   -4.7676   27.2056 H   0  0  0  0  0  0  0  0  0  0  0  0
   10.4460   -4.2656   25.7623 H   0  0  0  0  0  0  0  0  0  0  0  0
    8.7803   -3.1188   24.6649 N   0  0  0  0  0  0  0  0  0  0  0  0
    7.7168   -2.5037   24.1680 C   0  0  0  0  0  0  0  0  0  0  0  0
    7.8549   -1.8477   22.9102 N   0  0  0  0  0  0  0  0  0  0  0  0
    9.0484   -1.6885   22.1999 C   0  0  0  0  0  0  0  0  0  0  0  0
    9.9712   -2.0784   22.6136 H   0  0  0  0  0  0  0  0  0  0  0  0
    8.7849   -1.0182   21.0442 C   0  0  0  0  0  0  0  0  0  0  0  0
    9.4990   -0.7208   20.2928 H   0  0  0  0  0  0  0  0  0  0  0  0
    7.3868   -0.7213   20.9923 C   0  0  0  0  0  0  0  0  0  0  0  0
    6.6578   -0.0017   19.9202 C   0  0  0  0  0  0  0  0  0  0  0  0
    7.1611    0.0633   18.6030 C   0  0  0  0  0  0  0  0  0  0  0  0
    8.1053   -0.4238   18.3602 H   0  0  0  0  0  0  0  0  0  0  0  0
    6.5595    0.6783   17.5766 N   0  0  0  0  0  0  0  0  0  0  0  0
    5.3942    1.2976   17.8294 C   0  0  0  0  0  0  0  0  0  0  0  0
    4.9204    1.7934   16.9816 H   0  0  0  0  0  0  0  0  0  0  0  0
    4.8018    1.3132   19.0968 C   0  0  0  0  0  0  0  0  0  0  0  0
    3.8690    1.8471   19.2439 H   0  0  0  0  0  0  0  0  0  0  0  0
    5.4353    0.6528   20.1511 C   0  0  0  0  0  0  0  0  0  0  0  0
    4.9983    0.6567   21.1482 H   0  0  0  0  0  0  0  0  0  0  0  0
    6.8624   -1.2432   22.1389 C   0  0  0  0  0  0  0  0  0  0  0  0
    5.8303   -1.2488   22.4193 H   0  0  0  0  0  0  0  0  0  0  0  0
    6.4898   -2.4910   24.8486 C   0  0  0  0  0  0  0  0  0  0  0  0
    5.6156   -1.9906   24.4819 H   0  0  0  0  0  0  0  0  0  0  0  0
  1  2  1  0
  2  3  2  0
  3  4  1  0
  4  5  1  0
  5  6  1  0
  5  7  1  0
  4  8  2  0
  8  9  1  0
  9 10  1  0
 10 11  1  0
 11 12  1  0
 11 13  2  0
 13 14  1  0
 13 15  1  0
 15 16  1  0
 16 17  2  0
 17 18  1  0
 17 19  1  0
 19 20  2  0
 20 21  1  0
 20 22  1  0
 22 23  1  0
 22 24  2  0
 24 25  1  0
 15 26  2  0
 26 27  1  0
  9 28  2  0
 28 29  1  0
 28  2  1  0
 26 10  1  0
 24 16  1  0
M  END
>  <cnnaffinity>  (1) 
-4.81917

>  <filename>  (1) 
[H]c1nc(N([H])[H])nc(-n2c([H])c([H])c(-c3c([H])nc([H])c([H])c3[H])c2[H])c1[H]

$$$$
