
     RDKit          3D

 40 43  0  0  0  0  0  0  0  0999 V2000
    4.8940    1.8344   16.9654 H   0  0  0  0  0  0  0  0  0  0  0  0
    5.3904    1.3195   17.7848 C   0  0  0  0  0  0  0  0  0  0  0  0
    6.5375    0.6910   17.4831 N   0  0  0  0  0  0  0  0  0  0  0  0
    7.1807    0.0606   18.4750 C   0  0  0  0  0  0  0  0  0  0  0  0
    8.1096   -0.4365   18.2083 H   0  0  0  0  0  0  0  0  0  0  0  0
    6.7110    0.0104   19.8053 C   0  0  0  0  0  0  0  0  0  0  0  0
    7.4228   -0.6877   20.8561 N   0  0  0  0  0  0  0  0  0  0  0  0
    6.7574   -1.7053   21.5507 C   0  0  0  0  0  0  0  0  0  0  0  0
    5.7281   -1.8894   21.2518 H   0  0  0  0  0  0  0  0  0  0  0  0
    7.3081   -2.4328   22.5575 C   0  0  0  0  0  0  0  0  0  0  0  0
    6.5163   -3.4126   23.2312 N   0  0  0  0  0  0  0  0  0  0  0  0
    6.2253   -4.7200   22.6063 C   0  0  0  0  0  0  0  0  0  0  0  0
    7.1344   -5.3456   22.5465 H   0  0  0  0  0  0  0  0  0  0  0  0
    5.9052   -4.5571   21.5687 H   0  0  0  0  0  0  0  0  0  0  0  0
    5.1446   -5.5324   23.3402 C   0  0  0  0  0  0  0  0  0  0  0  0
    4.6142   -6.7053   22.7676 C   0  0  0  0  0  0  0  0  0  0  0  0
    4.9658   -7.0498   21.7944 H   0  0  0  0  0  0  0  0  0  0  0  0
    3.6386   -7.4547   23.4396 C   0  0  0  0  0  0  0  0  0  0  0  0
    3.1899   -8.3361   22.9851 H   0  0  0  0  0  0  0  0  0  0  0  0
    3.2157   -7.0683   24.7153 C   0  0  0  0  0  0  0  0  0  0  0  0
    2.4736   -7.6572   25.2543 H   0  0  0  0  0  0  0  0  0  0  0  0
    3.7518   -5.9209   25.3061 C   0  0  0  0  0  0  0  0  0  0  0  0
    3.4270   -5.6245   26.3064 H   0  0  0  0  0  0  0  0  0  0  0  0
    4.6973   -5.1413   24.6211 C   0  0  0  0  0  0  0  0  0  0  0  0
    5.2068   -3.8436   25.2150 C   0  0  0  0  0  0  0  0  0  0  0  0
    5.2152   -3.8925   26.3083 H   0  0  0  0  0  0  0  0  0  0  0  0
    4.5248   -3.0376   24.9106 H   0  0  0  0  0  0  0  0  0  0  0  0
    6.5928   -3.4957   24.6895 C   0  0  0  0  0  0  0  0  0  0  0  0
    7.3389   -4.2449   24.9981 H   0  0  0  0  0  0  0  0  0  0  0  0
    6.9276   -2.5396   25.0962 H   0  0  0  0  0  0  0  0  0  0  0  0
    8.7063   -2.0359   22.9778 C   0  0  0  0  0  0  0  0  0  0  0  0
    9.3864   -2.4945   23.8712 O   0  0  0  0  0  0  0  0  0  0  0  0
    9.2612   -1.0185   22.2359 N   0  0  0  0  0  0  0  0  0  0  0  0
   10.1826   -0.7392   22.5113 H   0  0  0  0  0  0  0  0  0  0  0  0
    8.7361   -0.2928   21.2190 C   0  0  0  0  0  0  0  0  0  0  0  0
    9.3829    0.5896   20.6981 O   0  0  0  0  0  0  0  0  0  0  0  0
    5.4963    0.6437   20.0939 C   0  0  0  0  0  0  0  0  0  0  0  0
    5.0899    0.6083   21.1065 H   0  0  0  0  0  0  0  0  0  0  0  0
    4.8292    1.3196   19.0664 C   0  0  0  0  0  0  0  0  0  0  0  0
    3.8933    1.8375   19.2477 H   0  0  0  0  0  0  0  0  0  0  0  0
  1  2  1  0
  2  3  2  0
  3  4  1  0
  4  5  1  0
  4  6  2  0
  6  7  1  0
  7  8  1  0
  8  9  1  0
  8 10  2  0
 10 11  1  0
 11 12  1  0
 12 13  1  0
 12 14  1  0
 12 15  1  0
 15 16  2  0
 16 17  1  0
 16 18  1  0
 18 19  1  0
 18 20  2  0
 20 21  1  0
 20 22  1  0
 22 23  1  0
 22 24  2  0
 24 25  1  0
 25 26  1  0
 25 27  1  0
 25 28  1  0
 28 29  1  0
 28 30  1  0
 10 31  1  0
 31 32  2  0
 31 33  1  0
 33 34  1  0
 33 35  1  0
 35 36  2  0
  6 37  1  0
 37 38  1  0
 37 39  2  0
 39 40  1  0
 39  2  1  0
 35  7  1  0
 28 11  1  0
 24 15  1  0
M  END
>  <cnnaffinity>  (1) 
-5.49798

>  <filename>  (1) 
[H]c1nc([H])c(-n2c([H])c(N3C([H])([H])c4c([H])c([H])c([H])c([H])c4C([H])([H])C3([H])[H])c(=O)n([H])c2=O)c([H])c1[H]

$$$$
