
     RDKit          3D

 44 47  0  0  0  0  0  0  0  0999 V2000
   14.4537    1.1682   22.6379 F   0  0  0  0  0  0  0  0  0  0  0  0
   13.5770    1.7437   23.5441 C   0  0  0  0  0  0  0  0  0  0  0  0
   12.1502    1.2982   23.2838 C   0  0  0  0  0  0  0  0  0  0  0  0
   11.3999    2.0158   22.1437 C   0  0  0  0  0  0  0  0  0  0  0  0
   10.0008    1.5082   22.0273 C   0  0  0  0  0  0  0  0  0  0  0  0
    9.5680    0.5865   21.1893 N   0  0  0  0  0  0  0  0  0  0  0  0
    8.3256    0.2950   21.6631 C   0  0  0  0  0  0  0  0  0  0  0  0
    7.4099   -0.6816   20.9880 C   0  0  0  0  0  0  0  0  0  0  0  0
    6.6256   -0.0354   19.8524 C   0  0  0  0  0  0  0  0  0  0  0  0
    5.4211    0.6339   20.1088 C   0  0  0  0  0  0  0  0  0  0  0  0
    4.7891    1.3090   19.0635 C   0  0  0  0  0  0  0  0  0  0  0  0
    5.3891    1.3006   17.8019 C   0  0  0  0  0  0  0  0  0  0  0  0
    6.5400    0.6674   17.5291 N   0  0  0  0  0  0  0  0  0  0  0  0
    7.1351    0.0254   18.5420 C   0  0  0  0  0  0  0  0  0  0  0  0
    8.0865   -0.4555   18.3073 H   0  0  0  0  0  0  0  0  0  0  0  0
    4.9302    1.8344   16.9738 H   0  0  0  0  0  0  0  0  0  0  0  0
    3.8658    1.8566   19.2180 H   0  0  0  0  0  0  0  0  0  0  0  0
    4.9975    0.6464   21.1160 H   0  0  0  0  0  0  0  0  0  0  0  0
    8.0259   -1.5120   20.6290 H   0  0  0  0  0  0  0  0  0  0  0  0
    6.7310   -1.0833   21.7485 H   0  0  0  0  0  0  0  0  0  0  0  0
    7.9659    0.9706   22.7305 N   0  0  0  0  0  0  0  0  0  0  0  0
    9.0368    1.7780   22.9554 N   0  0  0  0  0  0  0  0  0  0  0  0
    9.0004    2.7539   24.0012 C   0  0  0  0  0  0  0  0  0  0  0  0
    8.9145    2.3041   25.2990 C   0  0  0  0  0  0  0  0  0  0  0  0
    8.8766    3.2326   26.3694 C   0  0  0  0  0  0  0  0  0  0  0  0
    9.0274    4.5808   26.1331 C   0  0  0  0  0  0  0  0  0  0  0  0
    9.1091    5.0782   24.8035 C   0  0  0  0  0  0  0  0  0  0  0  0
    9.2106    6.4382   24.6469 N   0  0  0  0  0  0  0  0  0  0  0  0
    9.1160    6.9072   23.4263 C   0  0  0  0  0  0  0  0  0  0  0  0
    8.9339    6.1105   22.2635 C   0  0  0  0  0  0  0  0  0  0  0  0
    8.8659    4.7433   22.3998 C   0  0  0  0  0  0  0  0  0  0  0  0
    9.0148    4.1656   23.7013 C   0  0  0  0  0  0  0  0  0  0  0  0
    8.6683    4.1051   21.5367 H   0  0  0  0  0  0  0  0  0  0  0  0
    8.8382    6.5872   21.2936 H   0  0  0  0  0  0  0  0  0  0  0  0
    9.1493    7.9889   23.3332 H   0  0  0  0  0  0  0  0  0  0  0  0
    9.0736    5.3273   26.9165 H   0  0  0  0  0  0  0  0  0  0  0  0
    8.7151    2.8689   27.3793 H   0  0  0  0  0  0  0  0  0  0  0  0
    8.8943    1.2284   25.4792 H   0  0  0  0  0  0  0  0  0  0  0  0
   11.9040    1.8756   21.1830 H   0  0  0  0  0  0  0  0  0  0  0  0
   11.3561    3.0908   22.3520 H   0  0  0  0  0  0  0  0  0  0  0  0
   12.1732    0.2151   23.0891 H   0  0  0  0  0  0  0  0  0  0  0  0
   11.5898    1.4349   24.2211 H   0  0  0  0  0  0  0  0  0  0  0  0
   13.8347    1.3696   24.5387 H   0  0  0  0  0  0  0  0  0  0  0  0
   13.7075    2.8386   23.5103 H   0  0  0  0  0  0  0  0  0  0  0  0
  1  2  1  0
  2  3  1  0
  3  4  1  0
  4  5  1  0
  5  6  2  0
  6  7  1  0
  7  8  1  0
  8  9  1  0
  9 10  2  0
 10 11  1  0
 11 12  2  0
 12 13  1  0
 13 14  2  0
 14 15  1  0
 12 16  1  0
 11 17  1  0
 10 18  1  0
  8 19  1  0
  8 20  1  0
  7 21  2  0
 21 22  1  0
 22 23  1  0
 23 24  2  0
 24 25  1  0
 25 26  2  0
 26 27  1  0
 27 28  2  0
 28 29  1  0
 29 30  2  0
 30 31  1  0
 31 32  2  0
 31 33  1  0
 30 34  1  0
 29 35  1  0
 26 36  1  0
 25 37  1  0
 24 38  1  0
  4 39  1  0
  4 40  1  0
  3 41  1  0
  3 42  1  0
  2 43  1  0
  2 44  1  0
 22  5  1  0
 32 23  1  0
 14  9  1  0
 32 27  1  0
M  END
>  <cnnaffinity>  (1) 
-6.00215

>  <filename>  (1) 
[H]c1nc([H])c(C([H])([H])c2nc(C([H])([H])C([H])([H])C([H])([H])F)n(-c3c([H])c([H])c([H])c4nc([H])c([H])c([H])c34)n2)c([H])c1[H]

$$$$
