
     RDKit          3D

 38 39  0  0  0  0  0  0  0  0999 V2000
    3.9790    5.0244   25.3519 C   0  0  0  0  0  0  0  0  0  0  0  0
    4.0133    3.6933   26.0671 C   0  0  0  0  0  0  0  0  0  0  0  0
    2.8473    3.1647   26.6264 C   0  0  0  0  0  0  0  0  0  0  0  0
    2.8933    1.9441   27.3061 C   0  0  0  0  0  0  0  0  0  0  0  0
    4.1216    1.2936   27.4100 C   0  0  0  0  0  0  0  0  0  0  0  0
    5.2546    1.7808   26.8863 N   0  0  0  0  0  0  0  0  0  0  0  0
    5.2095    2.9413   26.2151 C   0  0  0  0  0  0  0  0  0  0  0  0
    6.5184    3.4074   25.5980 C   0  0  0  0  0  0  0  0  0  0  0  0
    6.7357    2.9279   24.1394 C   0  0  0  0  0  0  0  0  0  0  0  0
    6.9458    1.4193   24.0455 C   0  0  0  0  0  0  0  0  0  0  0  0
    7.1469    0.9839   22.6724 N   0  0  0  0  0  0  0  0  0  0  0  0
    7.3864   -0.2888   22.3304 C   0  0  0  0  0  0  0  0  0  0  0  0
    7.6944   -1.5480   23.3683 S   0  0  0  0  0  0  0  0  0  0  0  0
    7.4522   -0.5259   20.9730 N   0  0  0  0  0  0  0  0  0  0  0  0
    6.6879    0.0612   19.9171 C   0  0  0  0  0  0  0  0  0  0  0  0
    5.4434    0.6678   20.1497 C   0  0  0  0  0  0  0  0  0  0  0  0
    4.7966    1.3101   19.0853 C   0  0  0  0  0  0  0  0  0  0  0  0
    5.3897    1.2975   17.8201 C   0  0  0  0  0  0  0  0  0  0  0  0
    6.5512    0.6687   17.5670 N   0  0  0  0  0  0  0  0  0  0  0  0
    7.1710    0.0659   18.5884 C   0  0  0  0  0  0  0  0  0  0  0  0
    8.1150   -0.4258   18.3598 H   0  0  0  0  0  0  0  0  0  0  0  0
    4.9213    1.8001   16.9763 H   0  0  0  0  0  0  0  0  0  0  0  0
    3.8642    1.8452   19.2367 H   0  0  0  0  0  0  0  0  0  0  0  0
    5.0103    0.6285   21.1489 H   0  0  0  0  0  0  0  0  0  0  0  0
    7.8000   -1.4658   20.8606 H   0  0  0  0  0  0  0  0  0  0  0  0
    7.2379    1.6268   21.9022 H   0  0  0  0  0  0  0  0  0  0  0  0
    7.8094    1.1094   24.6529 H   0  0  0  0  0  0  0  0  0  0  0  0
    6.0811    0.8825   24.4542 H   0  0  0  0  0  0  0  0  0  0  0  0
    5.8741    3.2234   23.5187 H   0  0  0  0  0  0  0  0  0  0  0  0
    7.6131    3.4412   23.7180 H   0  0  0  0  0  0  0  0  0  0  0  0
    7.3321    3.0365   26.2331 H   0  0  0  0  0  0  0  0  0  0  0  0
    6.5676    4.5021   25.6337 H   0  0  0  0  0  0  0  0  0  0  0  0
    4.2075    0.3382   27.9256 H   0  0  0  0  0  0  0  0  0  0  0  0
    2.0104    1.5035   27.7532 H   0  0  0  0  0  0  0  0  0  0  0  0
    1.9088    3.7159   26.5220 H   0  0  0  0  0  0  0  0  0  0  0  0
    2.9486    5.3639   25.2181 H   0  0  0  0  0  0  0  0  0  0  0  0
    4.4414    4.9631   24.3601 H   0  0  0  0  0  0  0  0  0  0  0  0
    4.5146    5.7985   25.9152 H   0  0  0  0  0  0  0  0  0  0  0  0
  1  2  1  0
  2  3  2  0
  3  4  1  0
  4  5  2  0
  5  6  1  0
  6  7  2  0
  7  8  1  0
  8  9  1  0
  9 10  1  0
 10 11  1  0
 11 12  1  0
 12 13  2  0
 12 14  1  0
 14 15  1  0
 15 16  2  0
 16 17  1  0
 17 18  2  0
 18 19  1  0
 19 20  2  0
 20 21  1  0
 18 22  1  0
 17 23  1  0
 16 24  1  0
 14 25  1  0
 11 26  1  0
 10 27  1  0
 10 28  1  0
  9 29  1  0
  9 30  1  0
  8 31  1  0
  8 32  1  0
  5 33  1  0
  4 34  1  0
  3 35  1  0
  1 36  1  0
  1 37  1  0
  1 38  1  0
  7  2  1  0
 20 15  1  0
M  END
>  <cnnaffinity>  (1) 
-4.81033

>  <filename>  (1) 
[H]c1nc([H])c(N([H])C(=S)N([H])C([H])([H])C([H])([H])C([H])([H])c2nc([H])c([H])c([H])c2C([H])([H])[H])c([H])c1[H]

$$$$
