
     RDKit          3D

 33 35  0  0  0  0  0  0  0  0999 V2000
    4.9227    1.7814   16.9963 H   0  0  0  0  0  0  0  0  0  0  0  0
    5.4050    1.2894   17.8360 C   0  0  0  0  0  0  0  0  0  0  0  0
    6.5682    0.6706   17.5761 N   0  0  0  0  0  0  0  0  0  0  0  0
    7.1645    0.0422   18.5925 C   0  0  0  0  0  0  0  0  0  0  0  0
    8.1233   -0.4261   18.3693 H   0  0  0  0  0  0  0  0  0  0  0  0
    6.6432   -0.0055   19.8952 C   0  0  0  0  0  0  0  0  0  0  0  0
    7.3650   -0.6777   20.9752 C   0  0  0  0  0  0  0  0  0  0  0  0
    7.7064   -0.0849   22.1778 C   0  0  0  0  0  0  0  0  0  0  0  0
    7.5150    1.3908   22.3726 C   0  0  0  0  0  0  0  0  0  0  0  0
    7.8867    2.1768   21.5206 O   0  0  0  0  0  0  0  0  0  0  0  0
    6.8792    1.8705   23.6590 C   0  0  0  0  0  0  0  0  0  0  0  0
    6.0317    1.0528   24.4367 C   0  0  0  0  0  0  0  0  0  0  0  0
    5.8275    0.0252   24.1398 H   0  0  0  0  0  0  0  0  0  0  0  0
    5.4359    1.5401   25.6007 C   0  0  0  0  0  0  0  0  0  0  0  0
    4.7860    0.9229   26.2151 H   0  0  0  0  0  0  0  0  0  0  0  0
    5.6945    2.8558   25.9797 C   0  0  0  0  0  0  0  0  0  0  0  0
    5.1263    3.3316   27.0987 F   0  0  0  0  0  0  0  0  0  0  0  0
    6.5195    3.6970   25.2353 C   0  0  0  0  0  0  0  0  0  0  0  0
    6.6804    4.7201   25.5658 H   0  0  0  0  0  0  0  0  0  0  0  0
    7.1062    3.1978   24.0746 C   0  0  0  0  0  0  0  0  0  0  0  0
    7.7389    3.8465   23.4754 H   0  0  0  0  0  0  0  0  0  0  0  0
    8.3538   -0.8731   23.1849 C   0  0  0  0  0  0  0  0  0  0  0  0
    8.6192   -0.3945   24.1334 H   0  0  0  0  0  0  0  0  0  0  0  0
    8.6277   -2.1890   22.9607 C   0  0  0  0  0  0  0  0  0  0  0  0
    9.1067   -2.8259   23.6838 H   0  0  0  0  0  0  0  0  0  0  0  0
    8.2838   -2.8344   21.7048 C   0  0  0  0  0  0  0  0  0  0  0  0
    8.4573   -4.0041   21.4085 O   0  0  0  0  0  0  0  0  0  0  0  0
    7.6981   -1.9901   20.7777 N   0  0  0  0  0  0  0  0  0  0  0  0
    7.4417   -2.4789   19.9358 H   0  0  0  0  0  0  0  0  0  0  0  0
    5.4272    0.6483   20.1506 C   0  0  0  0  0  0  0  0  0  0  0  0
    4.9961    0.6354   21.1577 H   0  0  0  0  0  0  0  0  0  0  0  0
    4.8004    1.3054   19.0983 C   0  0  0  0  0  0  0  0  0  0  0  0
    3.8733    1.8449   19.2560 H   0  0  0  0  0  0  0  0  0  0  0  0
  1  2  1  0
  2  3  2  0
  3  4  1  0
  4  5  1  0
  4  6  2  0
  6  7  1  0
  7  8  2  0
  8  9  1  0
  9 10  2  0
  9 11  1  0
 11 12  2  0
 12 13  1  0
 12 14  1  0
 14 15  1  0
 14 16  2  0
 16 17  1  0
 16 18  1  0
 18 19  1  0
 18 20  2  0
 20 21  1  0
  8 22  1  0
 22 23  1  0
 22 24  2  0
 24 25  1  0
 24 26  1  0
 26 27  2  0
 26 28  1  0
 28 29  1  0
  6 30  1  0
 30 31  1  0
 30 32  2  0
 32 33  1  0
 32  2  1  0
 28  7  1  0
 20 11  1  0
M  END
>  <cnnaffinity>  (1) 
-5.29373

>  <filename>  (1) 
[H]c1nc([H])c(-c2c(C(=O)c3c([H])c([H])c(F)c([H])c3[H])c([H])c([H])c(=O)n2[H])c([H])c1[H]

$$$$
