
     RDKit          3D

 41 42  0  0  0  0  0  0  0  0999 V2000
    4.9305    1.8118   16.9089 H   0  0  0  0  0  0  0  0  0  0  0  0
    5.4060    1.3114   17.7484 C   0  0  0  0  0  0  0  0  0  0  0  0
    6.5428    0.6569   17.4711 N   0  0  0  0  0  0  0  0  0  0  0  0
    7.1527    0.0348   18.4881 C   0  0  0  0  0  0  0  0  0  0  0  0
    8.0390   -0.5471   18.2303 H   0  0  0  0  0  0  0  0  0  0  0  0
    6.7087    0.0545   19.8239 C   0  0  0  0  0  0  0  0  0  0  0  0
    7.4754   -0.6390   20.9332 C   0  0  0  0  0  0  0  0  0  0  0  0
    6.7371   -1.1536   21.5687 H   0  0  0  0  0  0  0  0  0  0  0  0
    8.1045   -1.4310   20.4996 H   0  0  0  0  0  0  0  0  0  0  0  0
    8.3811    0.1884   21.9252 C   0  0  2  0  0  0  0  0  0  0  0  0
    8.8835   -0.7294   22.9576 N   0  0  0  0  0  0  0  0  0  0  0  0
    8.0956   -1.1115   23.4701 H   0  0  0  0  0  0  0  0  0  0  0  0
    9.3545   -1.5121   22.5125 H   0  0  0  0  0  0  0  0  0  0  0  0
    7.5531    1.2408   22.6592 C   0  0  0  0  0  0  0  0  0  0  0  0
    8.1577    1.7495   23.4166 H   0  0  0  0  0  0  0  0  0  0  0  0
    7.1364    1.9964   21.9865 H   0  0  0  0  0  0  0  0  0  0  0  0
    6.7162    0.7680   23.1874 H   0  0  0  0  0  0  0  0  0  0  0  0
    9.5931    0.8231   21.1941 C   0  0  0  0  0  0  0  0  0  0  0  0
   10.2466    0.0012   20.8608 H   0  0  0  0  0  0  0  0  0  0  0  0
    9.1916    1.2745   20.2855 H   0  0  0  0  0  0  0  0  0  0  0  0
   10.4845    1.8602   21.9334 C   0  0  0  0  0  0  0  0  0  0  0  0
    9.8614    2.7017   22.2772 H   0  0  0  0  0  0  0  0  0  0  0  0
   11.1825    1.2427   23.1600 C   0  0  0  0  0  0  0  0  0  0  0  0
   10.4599    0.8003   23.8519 H   0  0  0  0  0  0  0  0  0  0  0  0
   11.7950    0.4021   22.7964 H   0  0  0  0  0  0  0  0  0  0  0  0
   12.1002    2.2414   23.8752 C   0  0  0  0  0  0  0  0  0  0  0  0
   12.5637    1.7672   24.7454 H   0  0  0  0  0  0  0  0  0  0  0  0
   11.5005    3.0843   24.2490 H   0  0  0  0  0  0  0  0  0  0  0  0
   13.1712    2.7899   22.9280 C   0  0  0  0  0  0  0  0  0  0  0  0
   13.8037    1.9521   22.5966 H   0  0  0  0  0  0  0  0  0  0  0  0
   13.8504    3.4770   23.4464 H   0  0  0  0  0  0  0  0  0  0  0  0
   12.4923    3.4618   21.7281 C   0  0  0  0  0  0  0  0  0  0  0  0
   11.8909    4.3115   22.0818 H   0  0  0  0  0  0  0  0  0  0  0  0
   13.2340    3.8904   21.0441 H   0  0  0  0  0  0  0  0  0  0  0  0
   11.5620    2.4733   21.0069 C   0  0  0  0  0  0  0  0  0  0  0  0
   12.1686    1.6576   20.6080 H   0  0  0  0  0  0  0  0  0  0  0  0
   11.1115    2.9598   20.1431 H   0  0  0  0  0  0  0  0  0  0  0  0
    5.4806    0.6899   20.0696 C   0  0  0  0  0  0  0  0  0  0  0  0
    5.0473    0.6520   21.0724 H   0  0  0  0  0  0  0  0  0  0  0  0
    4.8214    1.3366   19.0204 C   0  0  0  0  0  0  0  0  0  0  0  0
    3.8784    1.8486   19.1722 H   0  0  0  0  0  0  0  0  0  0  0  0
  1  2  1  0
  2  3  2  0
  3  4  1  0
  4  5  1  0
  4  6  2  0
  6  7  1  0
  7  8  1  0
  7  9  1  0
  7 10  1  0
 10 11  1  1
 11 12  1  0
 11 13  1  0
 10 14  1  0
 14 15  1  0
 14 16  1  0
 14 17  1  0
 10 18  1  0
 18 19  1  0
 18 20  1  0
 18 21  1  0
 21 22  1  0
 21 23  1  0
 23 24  1  0
 23 25  1  0
 23 26  1  0
 26 27  1  0
 26 28  1  0
 26 29  1  0
 29 30  1  0
 29 31  1  0
 29 32  1  0
 32 33  1  0
 32 34  1  0
 32 35  1  0
 35 36  1  0
 35 37  1  0
  6 38  1  0
 38 39  1  0
 38 40  2  0
 40 41  1  0
 40  2  1  0
 35 21  1  0
M  END
>  <cnnaffinity>  (1) 
-4.78297

>  <filename>  (1) 
[H]c1nc([H])c(C([H])([H])[C@](N([H])[H])(C([H])([H])[H])C([H])([H])C2([H])C([H])([H])C([H])([H])C([H])([H])C([H])([H])C2([H])[H])c([H])c1[H]

$$$$
