
     RDKit          3D

 46 50  0  0  0  0  0  0  0  0999 V2000
    4.9147    1.6811   18.3944 C   0  0  0  0  0  0  0  0  0  0  0  0
    5.5261    1.1995   17.2365 C   0  0  0  0  0  0  0  0  0  0  0  0
    6.4005    0.1832   17.2275 N   0  0  0  0  0  0  0  0  0  0  0  0
    6.6651   -0.4132   18.3992 C   0  0  0  0  0  0  0  0  0  0  0  0
    6.0700   -0.0446   19.6184 C   0  0  0  0  0  0  0  0  0  0  0  0
    6.3319   -0.7171   20.9640 C   0  0  0  0  0  0  0  0  0  0  0  0
    7.0285    0.2195   21.9124 C   0  0  0  0  0  0  0  0  0  0  0  0
    8.3320    0.3189   21.8254 N   0  0  0  0  0  0  0  0  0  0  0  0
    8.6307    1.2634   22.7501 N   0  0  0  0  0  0  0  0  0  0  0  0
    9.9844    1.6215   22.9992 C   0  0  0  0  0  0  0  0  0  0  0  0
   10.3989    2.9852   23.0309 C   0  0  0  0  0  0  0  0  0  0  0  0
   11.7430    3.3158   23.0870 C   0  0  0  0  0  0  0  0  0  0  0  0
   12.6716    2.2522   23.0954 C   0  0  0  0  0  0  0  0  0  0  0  0
   14.0257    2.2155   22.9851 N   0  0  0  0  0  0  0  0  0  0  0  0
   14.5191    0.9551   22.9566 N   0  0  0  0  0  0  0  0  0  0  0  0
   13.4782    0.1588   23.0549 C   0  0  0  0  0  0  0  0  0  0  0  0
   12.2639    0.9011   23.1572 C   0  0  0  0  0  0  0  0  0  0  0  0
   10.8881    0.5844   23.1500 C   0  0  0  0  0  0  0  0  0  0  0  0
   10.5136   -0.4329   23.2036 H   0  0  0  0  0  0  0  0  0  0  0  0
   13.5981   -0.9169   23.0178 H   0  0  0  0  0  0  0  0  0  0  0  0
   14.6533    3.0042   22.9076 H   0  0  0  0  0  0  0  0  0  0  0  0
   12.0713    4.3497   23.0927 H   0  0  0  0  0  0  0  0  0  0  0  0
    9.6595    3.7747   22.9632 H   0  0  0  0  0  0  0  0  0  0  0  0
    7.4909    1.6615   23.3713 C   0  0  0  0  0  0  0  0  0  0  0  0
    7.5022    2.6112   24.5225 C   0  0  0  0  0  0  0  0  0  0  0  0
    7.0971    4.0779   24.1985 C   0  0  0  0  0  0  0  0  0  0  0  0
    7.7093    5.0593   25.1725 C   0  0  0  0  0  0  0  0  0  0  0  0
    7.2140    5.5531   26.3426 C   0  0  0  0  0  0  0  0  0  0  0  0
    8.1477    6.3771   27.0497 C   0  0  0  0  0  0  0  0  0  0  0  0
    9.3372    6.4959   26.4016 C   0  0  0  0  0  0  0  0  0  0  0  0
    9.3334    5.6322   24.9185 S   0  0  0  0  0  0  0  0  0  0  0  0
   10.2203    7.0422   26.7045 H   0  0  0  0  0  0  0  0  0  0  0  0
    7.9367    6.8518   28.0005 H   0  0  0  0  0  0  0  0  0  0  0  0
    6.2073    5.3319   26.6947 H   0  0  0  0  0  0  0  0  0  0  0  0
    6.0036    4.1634   24.1975 H   0  0  0  0  0  0  0  0  0  0  0  0
    7.4091    4.3422   23.1777 H   0  0  0  0  0  0  0  0  0  0  0  0
    8.5151    2.5867   24.9339 H   0  0  0  0  0  0  0  0  0  0  0  0
    6.8569    2.2117   25.3064 H   0  0  0  0  0  0  0  0  0  0  0  0
    6.4512    1.0299   22.8466 N   0  0  0  0  0  0  0  0  0  0  0  0
    6.9592   -1.6126   20.8568 H   0  0  0  0  0  0  0  0  0  0  0  0
    5.3927   -1.0116   21.4360 H   0  0  0  0  0  0  0  0  0  0  0  0
    5.2113    1.0613   19.6058 C   0  0  0  0  0  0  0  0  0  0  0  0
    4.8109    1.4269   20.5522 H   0  0  0  0  0  0  0  0  0  0  0  0
    7.4006   -1.2179   18.3649 H   0  0  0  0  0  0  0  0  0  0  0  0
    5.3057    1.6605   16.2792 H   0  0  0  0  0  0  0  0  0  0  0  0
    4.2535    2.5391   18.3372 H   0  0  0  0  0  0  0  0  0  0  0  0
  1  2  2  0
  2  3  1  0
  3  4  2  0
  4  5  1  0
  5  6  1  0
  6  7  1  0
  7  8  2  0
  8  9  1  0
  9 10  1  0
 10 11  2  0
 11 12  1  0
 12 13  2  0
 13 14  1  0
 14 15  1  0
 15 16  2  0
 16 17  1  0
 17 18  2  0
 18 19  1  0
 16 20  1  0
 14 21  1  0
 12 22  1  0
 11 23  1  0
  9 24  1  0
 24 25  1  0
 25 26  1  0
 26 27  1  0
 27 28  2  0
 28 29  1  0
 29 30  2  0
 30 31  1  0
 30 32  1  0
 29 33  1  0
 28 34  1  0
 26 35  1  0
 26 36  1  0
 25 37  1  0
 25 38  1  0
 24 39  2  0
  6 40  1  0
  6 41  1  0
  5 42  2  0
 42 43  1  0
  4 44  1  0
  2 45  1  0
  1 46  1  0
 42  1  1  0
 39  7  1  0
 18 10  1  0
 31 27  1  0
 17 13  1  0
M  END
>  <cnnaffinity>  (1) 
-6.50992

>  <filename>  (1) 
[H]c1nc([H])c(C([H])([H])c2nc(C([H])([H])C([H])([H])c3sc([H])c([H])c3[H])n(-c3c([H])c([H])c4c(c([H])nn4[H])c3[H])n2)c([H])c1[H]

$$$$
