
     RDKit          3D

 28 29  0  0  0  0  0  0  0  0999 V2000
    6.6979   -1.4995   21.4209 H   0  0  0  0  0  0  0  0  0  0  0  0
    7.3151   -0.7008   20.9800 C   0  0  0  0  0  0  0  0  0  0  0  0
    8.5399   -0.4863   21.4871 C   0  0  0  0  0  0  0  0  0  0  0  0
    9.3743    0.7332   21.4256 C   0  0  0  0  0  0  0  0  0  0  0  0
    8.9256    2.1048   21.0244 C   0  0  0  0  0  0  0  0  0  0  0  0
    8.2474    2.1228   20.1747 H   0  0  0  0  0  0  0  0  0  0  0  0
    9.8213    2.6773   20.8017 H   0  0  0  0  0  0  0  0  0  0  0  0
    8.2411    2.7800   22.1764 C   0  0  0  0  0  0  0  0  0  0  0  0
    7.1139    2.1169   22.5098 F   0  0  0  0  0  0  0  0  0  0  0  0
    7.9094    4.0377   21.8334 F   0  0  0  0  0  0  0  0  0  0  0  0
    8.9938    2.8672   23.2821 F   0  0  0  0  0  0  0  0  0  0  0  0
   10.5472    0.6104   21.9155 N   0  0  0  0  0  0  0  0  0  0  0  0
   10.7037   -0.7346   22.4745 C   0  0  0  0  0  0  0  0  0  0  0  0
   11.4700   -1.2526   21.8942 H   0  0  0  0  0  0  0  0  0  0  0  0
   11.0705   -0.6508   23.5008 H   0  0  0  0  0  0  0  0  0  0  0  0
    9.3290   -1.4389   22.3886 C   0  0  0  0  0  0  0  0  0  0  0  0
    9.3921   -2.4493   21.9720 H   0  0  0  0  0  0  0  0  0  0  0  0
    8.8648   -1.5077   23.3810 H   0  0  0  0  0  0  0  0  0  0  0  0
    6.6531    0.0415   19.8654 C   0  0  0  0  0  0  0  0  0  0  0  0
    7.1602    0.0817   18.5501 C   0  0  0  0  0  0  0  0  0  0  0  0
    8.0932   -0.4296   18.3147 H   0  0  0  0  0  0  0  0  0  0  0  0
    6.5563    0.7065   17.5247 N   0  0  0  0  0  0  0  0  0  0  0  0
    5.3995    1.3357   17.7866 C   0  0  0  0  0  0  0  0  0  0  0  0
    4.9324    1.8586   16.9551 H   0  0  0  0  0  0  0  0  0  0  0  0
    4.7888    1.3428   19.0468 C   0  0  0  0  0  0  0  0  0  0  0  0
    3.8496    1.8693   19.1902 H   0  0  0  0  0  0  0  0  0  0  0  0
    5.4226    0.6821   20.0982 C   0  0  0  0  0  0  0  0  0  0  0  0
    5.0017    0.6876   21.1079 H   0  0  0  0  0  0  0  0  0  0  0  0
  1  2  1  0
  2  3  2  3
  3  4  1  0
  4  5  1  0
  5  6  1  0
  5  7  1  0
  5  8  1  0
  8  9  1  0
  8 10  1  0
  8 11  1  0
  4 12  2  0
 12 13  1  0
 13 14  1  0
 13 15  1  0
 13 16  1  0
 16 17  1  0
 16 18  1  0
  2 19  1  0
 19 20  2  0
 20 21  1  0
 20 22  1  0
 22 23  2  0
 23 24  1  0
 23 25  1  0
 25 26  1  0
 25 27  2  0
 27 28  1  0
 16  3  1  0
 27 19  1  0
M  END
>  <cnnaffinity>  (1) 
-4.34356

>  <filename>  (1) 
[H]C(=C1C(C([H])([H])C(F)(F)F)=NC([H])([H])C1([H])[H])c1c([H])nc([H])c([H])c1[H]

$$$$
