
     RDKit          3D

 29 30  0  0  0  0  0  0  0  0999 V2000
    9.1886    5.0932   23.1791 H   0  0  0  0  0  0  0  0  0  0  0  0
    9.7523    4.1685   23.0891 C   0  0  0  0  0  0  0  0  0  0  0  0
    9.2150    3.2332   22.2934 N   0  0  0  0  0  0  0  0  0  0  0  0
    9.8927    2.0873   22.1426 C   0  0  0  0  0  0  0  0  0  0  0  0
    9.2718    1.0414   21.2618 C   0  0  0  0  0  0  0  0  0  0  0  0
    8.8743    1.5224   20.3660 H   0  0  0  0  0  0  0  0  0  0  0  0
   10.0226    0.3128   20.9437 H   0  0  0  0  0  0  0  0  0  0  0  0
    8.1137    0.2904   21.9311 C   0  0  2  0  0  0  0  0  0  0  0  0
    7.3888    1.0200   22.3048 H   0  0  0  0  0  0  0  0  0  0  0  0
    8.7107   -0.6113   23.3626 Cl  0  0  0  0  0  0  0  0  0  0  0  0
    7.3909   -0.7060   21.0025 C   0  0  0  0  0  0  0  0  0  0  0  0
    6.6817   -1.2942   21.6035 H   0  0  0  0  0  0  0  0  0  0  0  0
    8.1239   -1.4173   20.5970 H   0  0  0  0  0  0  0  0  0  0  0  0
    6.6508   -0.0070   19.8861 C   0  0  0  0  0  0  0  0  0  0  0  0
    7.1596    0.0622   18.5794 C   0  0  0  0  0  0  0  0  0  0  0  0
    8.1122   -0.4203   18.3603 H   0  0  0  0  0  0  0  0  0  0  0  0
    6.5585    0.6849   17.5591 N   0  0  0  0  0  0  0  0  0  0  0  0
    5.3962    1.2986   17.8296 C   0  0  0  0  0  0  0  0  0  0  0  0
    4.9121    1.7888   16.9897 H   0  0  0  0  0  0  0  0  0  0  0  0
    4.8041    1.3126   19.0971 C   0  0  0  0  0  0  0  0  0  0  0  0
    3.8735    1.8450   19.2545 H   0  0  0  0  0  0  0  0  0  0  0  0
    5.4377    0.6500   20.1483 C   0  0  0  0  0  0  0  0  0  0  0  0
    5.0159    0.6320   21.1587 H   0  0  0  0  0  0  0  0  0  0  0  0
   11.0979    1.8329   22.8102 C   0  0  0  0  0  0  0  0  0  0  0  0
   11.5771    0.8716   22.6717 H   0  0  0  0  0  0  0  0  0  0  0  0
   11.6388    2.7982   23.6570 C   0  0  0  0  0  0  0  0  0  0  0  0
   12.5752    2.6109   24.1827 H   0  0  0  0  0  0  0  0  0  0  0  0
   10.9464    4.0040   23.7948 C   0  0  0  0  0  0  0  0  0  0  0  0
   11.3153    4.7976   24.4340 H   0  0  0  0  0  0  0  0  0  0  0  0
  1  2  1  0
  2  3  2  0
  3  4  1  0
  4  5  1  0
  5  6  1  0
  5  7  1  0
  5  8  1  0
  8  9  1  1
  8 10  1  0
  8 11  1  0
 11 12  1  0
 11 13  1  0
 11 14  1  0
 14 15  2  0
 15 16  1  0
 15 17  1  0
 17 18  2  0
 18 19  1  0
 18 20  1  0
 20 21  1  0
 20 22  2  0
 22 23  1  0
  4 24  2  0
 24 25  1  0
 24 26  1  0
 26 27  1  0
 26 28  2  0
 28 29  1  0
 28  2  1  0
 22 14  1  0
M  END
>  <cnnaffinity>  (1) 
-4.82292

>  <filename>  (1) 
[H]c1nc(C([H])([H])[C@]([H])(Cl)C([H])([H])c2c([H])nc([H])c([H])c2[H])c([H])c([H])c1[H]

$$$$
