
     RDKit          3D

 22 23  0  0  0  0  0  0  0  0999 V2000
    4.8989    1.8442   17.0263 H   0  0  0  0  0  0  0  0  0  0  0  0
    5.3750    1.3067   17.8408 C   0  0  0  0  0  0  0  0  0  0  0  0
    6.5248    0.6826   17.5394 N   0  0  0  0  0  0  0  0  0  0  0  0
    7.1675    0.0497   18.5280 C   0  0  0  0  0  0  0  0  0  0  0  0
    8.1091   -0.4405   18.2787 H   0  0  0  0  0  0  0  0  0  0  0  0
    6.6847   -0.0164   19.8580 C   0  0  0  0  0  0  0  0  0  0  0  0
    7.3806   -0.7127   20.8918 N   0  0  0  0  0  0  0  0  0  0  0  0
    6.8845   -1.4556   21.3841 H   0  0  0  0  0  0  0  0  0  0  0  0
    8.6940   -0.6160   21.2123 C   0  0  0  0  0  0  0  0  0  0  0  0
    9.6978    0.6223   20.7605 S   0  0  0  0  0  0  0  0  0  0  0  0
    9.2146   -1.7794   21.9932 C   0  0  0  0  0  0  0  0  0  0  0  0
    8.5268   -2.8145   22.4540 N   0  0  0  0  0  0  0  0  0  0  0  0
    9.4510   -3.6181   23.0532 C   0  0  0  0  0  0  0  0  0  0  0  0
    9.1927   -4.5659   23.4982 H   0  0  0  0  0  0  0  0  0  0  0  0
   10.7075   -3.0743   22.9519 C   0  0  0  0  0  0  0  0  0  0  0  0
   11.6694   -3.4263   23.2940 H   0  0  0  0  0  0  0  0  0  0  0  0
   10.5369   -1.9140   22.2685 N   0  0  0  0  0  0  0  0  0  0  0  0
   11.2292   -1.2731   21.8996 H   0  0  0  0  0  0  0  0  0  0  0  0
    5.4718    0.6175   20.1457 C   0  0  0  0  0  0  0  0  0  0  0  0
    5.0860    0.5999   21.1643 H   0  0  0  0  0  0  0  0  0  0  0  0
    4.8053    1.2963   19.1166 C   0  0  0  0  0  0  0  0  0  0  0  0
    3.8744    1.8228   19.2914 H   0  0  0  0  0  0  0  0  0  0  0  0
  1  2  1  0
  2  3  2  0
  3  4  1  0
  4  5  1  0
  4  6  2  0
  6  7  1  0
  7  8  1  0
  7  9  1  0
  9 10  2  0
  9 11  1  0
 11 12  2  0
 12 13  1  0
 13 14  1  0
 13 15  2  0
 15 16  1  0
 15 17  1  0
 17 18  1  0
  6 19  1  0
 19 20  1  0
 19 21  2  0
 21 22  1  0
 21  2  1  0
 17 11  1  0
M  END
>  <cnnaffinity>  (1) 
-4.7368

>  <filename>  (1) 
[H]c1nc([H])c(N([H])C(=S)c2nc([H])c([H])n2[H])c([H])c1[H]

$$$$
