
     RDKit          3D

 40 42  0  0  0  0  0  0  0  0999 V2000
    5.2118    1.6663   16.7868 H   0  0  0  0  0  0  0  0  0  0  0  0
    5.5547    1.1892   17.6996 C   0  0  0  0  0  0  0  0  0  0  0  0
    6.7186    0.5251   17.6187 N   0  0  0  0  0  0  0  0  0  0  0  0
    7.1789   -0.0121   18.7517 C   0  0  0  0  0  0  0  0  0  0  0  0
    8.1205   -0.5449   18.6466 H   0  0  0  0  0  0  0  0  0  0  0  0
    6.5531    0.0959   20.0124 C   0  0  0  0  0  0  0  0  0  0  0  0
    7.2171   -0.3988   21.2217 C   0  0  0  0  0  0  0  0  0  0  0  0
    7.0889   -0.1188   22.5474 C   0  0  0  0  0  0  0  0  0  0  0  0
    6.4160    0.5404   23.0831 H   0  0  0  0  0  0  0  0  0  0  0  0
    8.0779   -0.8426   23.2213 N   0  0  0  0  0  0  0  0  0  0  0  0
    8.2726   -0.9641   24.6520 C   0  0  0  0  0  0  0  0  0  0  0  0
    8.3215    0.0479   25.0742 H   0  0  0  0  0  0  0  0  0  0  0  0
    9.2416   -1.4493   24.8020 H   0  0  0  0  0  0  0  0  0  0  0  0
    7.2475   -1.7194   25.3320 N   0  0  0  0  0  0  0  0  0  0  0  0
    5.9853   -1.0112   25.5116 C   0  0  0  0  0  0  0  0  0  0  0  0
    5.3519   -1.5204   26.2466 H   0  0  0  0  0  0  0  0  0  0  0  0
    6.1638   -0.0025   25.9030 H   0  0  0  0  0  0  0  0  0  0  0  0
    5.3845   -0.8955   24.5999 H   0  0  0  0  0  0  0  0  0  0  0  0
    7.1075   -3.1225   24.9368 C   0  0  0  0  0  0  0  0  0  0  0  0
    6.1499   -3.4961   25.3385 H   0  0  0  0  0  0  0  0  0  0  0  0
    7.0211   -3.2127   23.8399 H   0  0  0  0  0  0  0  0  0  0  0  0
    8.2157   -4.0580   25.4214 C   0  0  0  0  0  0  0  0  0  0  0  0
    8.8334   -3.9081   26.6765 C   0  0  0  0  0  0  0  0  0  0  0  0
    8.5438   -3.0824   27.3202 H   0  0  0  0  0  0  0  0  0  0  0  0
    9.8166   -4.8101   27.0994 C   0  0  0  0  0  0  0  0  0  0  0  0
   10.2916   -4.6841   28.0698 H   0  0  0  0  0  0  0  0  0  0  0  0
   10.1834   -5.8768   26.2742 C   0  0  0  0  0  0  0  0  0  0  0  0
   10.9576   -6.5715   26.5774 H   0  0  0  0  0  0  0  0  0  0  0  0
    9.5532   -6.0606   25.0441 C   0  0  0  0  0  0  0  0  0  0  0  0
    9.8207   -6.9136   24.4273 H   0  0  0  0  0  0  0  0  0  0  0  0
    8.5720   -5.1601   24.6228 C   0  0  0  0  0  0  0  0  0  0  0  0
    8.0674   -5.3267   23.6741 H   0  0  0  0  0  0  0  0  0  0  0  0
    8.7959   -1.5883   22.3466 C   0  0  0  0  0  0  0  0  0  0  0  0
   10.0629   -2.6350   22.6141 S   0  0  0  0  0  0  0  0  0  0  0  0
    8.2885   -1.2784   21.1330 N   0  0  0  0  0  0  0  0  0  0  0  0
    8.5954   -1.8246   20.3491 H   0  0  0  0  0  0  0  0  0  0  0  0
    5.2958    0.7226   20.0460 C   0  0  0  0  0  0  0  0  0  0  0  0
    4.7235    0.7501   20.9739 H   0  0  0  0  0  0  0  0  0  0  0  0
    4.8021    1.2896   18.8717 C   0  0  0  0  0  0  0  0  0  0  0  0
    3.8580    1.8197   18.8592 H   0  0  0  0  0  0  0  0  0  0  0  0
  1  2  1  0
  2  3  2  0
  3  4  1  0
  4  5  1  0
  4  6  2  0
  6  7  1  0
  7  8  2  0
  8  9  1  0
  8 10  1  0
 10 11  1  0
 11 12  1  0
 11 13  1  0
 11 14  1  0
 14 15  1  0
 15 16  1  0
 15 17  1  0
 15 18  1  0
 14 19  1  0
 19 20  1  0
 19 21  1  0
 19 22  1  0
 22 23  2  0
 23 24  1  0
 23 25  1  0
 25 26  1  0
 25 27  2  0
 27 28  1  0
 27 29  1  0
 29 30  1  0
 29 31  2  0
 31 32  1  0
 10 33  1  0
 33 34  2  0
 33 35  1  0
 35 36  1  0
  6 37  1  0
 37 38  1  0
 37 39  2  0
 39 40  1  0
 39  2  1  0
 35  7  1  0
 31 22  1  0
M  END
>  <cnnaffinity>  (1) 
-5.56282

>  <filename>  (1) 
[H]c1nc([H])c(-c2c([H])n(C([H])([H])N(C([H])([H])[H])C([H])([H])c3c([H])c([H])c([H])c([H])c3[H])c(=S)n2[H])c([H])c1[H]

$$$$
