
     RDKit          3D

 36 39  0  0  0  0  0  0  0  0999 V2000
    4.9794    1.8584   16.9400 H   0  0  0  0  0  0  0  0  0  0  0  0
    5.4228    1.3155   17.7710 C   0  0  0  0  0  0  0  0  0  0  0  0
    6.5764    0.6807   17.5113 N   0  0  0  0  0  0  0  0  0  0  0  0
    7.1514    0.0257   18.5274 C   0  0  0  0  0  0  0  0  0  0  0  0
    8.0950   -0.4728   18.3010 H   0  0  0  0  0  0  0  0  0  0  0  0
    6.6257   -0.0551   19.8291 C   0  0  0  0  0  0  0  0  0  0  0  0
    7.3582   -0.7852   20.9368 C   0  0  2  0  0  0  0  0  0  0  0  0
    8.2519   -1.2669   20.5164 H   0  0  0  0  0  0  0  0  0  0  0  0
    6.5157   -1.8970   21.6228 C   0  0  0  0  0  0  0  0  0  0  0  0
    6.7761   -2.8980   21.2518 H   0  0  0  0  0  0  0  0  0  0  0  0
    5.4354   -1.7611   21.4494 H   0  0  0  0  0  0  0  0  0  0  0  0
    6.8590   -1.7562   23.0242 N   0  0  0  0  0  0  0  0  0  0  0  0
    6.3058   -2.1473   23.7721 H   0  0  0  0  0  0  0  0  0  0  0  0
    7.3840   -0.5418   23.3594 C   0  0  0  0  0  0  0  0  0  0  0  0
    7.4478   -0.1455   24.5042 O   0  0  0  0  0  0  0  0  0  0  0  0
    7.8159    0.1749   22.0769 C   0  0  1  0  0  0  0  0  0  0  0  0
    7.2272    1.1014   22.0632 H   0  0  0  0  0  0  0  0  0  0  0  0
    9.2998    0.5528   22.0691 C   0  0  0  0  0  0  0  0  0  0  0  0
   10.2521   -0.4666   22.3555 C   0  0  0  0  0  0  0  0  0  0  0  0
    9.8967   -1.4884   22.4935 H   0  0  0  0  0  0  0  0  0  0  0  0
   11.6047   -0.1850   22.4969 C   0  0  0  0  0  0  0  0  0  0  0  0
   12.3291   -0.9605   22.7211 H   0  0  0  0  0  0  0  0  0  0  0  0
   12.0098    1.1498   22.3654 C   0  0  0  0  0  0  0  0  0  0  0  0
   11.0977    2.1928   22.0627 C   0  0  0  0  0  0  0  0  0  0  0  0
    9.7368    1.8678   21.8640 C   0  0  0  0  0  0  0  0  0  0  0  0
    9.0589    2.6582   21.5317 H   0  0  0  0  0  0  0  0  0  0  0  0
   11.8639    3.4158   22.1070 C   0  0  0  0  0  0  0  0  0  0  0  0
   11.4959    4.4236   21.9663 H   0  0  0  0  0  0  0  0  0  0  0  0
   13.1551    3.0791   22.3875 C   0  0  0  0  0  0  0  0  0  0  0  0
   14.0299    3.7080   22.4972 H   0  0  0  0  0  0  0  0  0  0  0  0
   13.2451    1.7111   22.5590 N   0  0  0  0  0  0  0  0  0  0  0  0
   14.0817    1.1622   22.6424 H   0  0  0  0  0  0  0  0  0  0  0  0
    5.4161    0.6171   20.0717 C   0  0  0  0  0  0  0  0  0  0  0  0
    4.9652    0.6073   21.0679 H   0  0  0  0  0  0  0  0  0  0  0  0
    4.8056    1.3122   19.0266 C   0  0  0  0  0  0  0  0  0  0  0  0
    3.8824    1.8638   19.1737 H   0  0  0  0  0  0  0  0  0  0  0  0
  1  2  1  0
  2  3  2  0
  3  4  1  0
  4  5  1  0
  4  6  2  0
  6  7  1  0
  7  8  1  6
  7  9  1  0
  9 10  1  0
  9 11  1  0
  9 12  1  0
 12 13  1  0
 12 14  1  0
 14 15  2  0
 14 16  1  0
 16 17  1  6
 16 18  1  0
 18 19  2  0
 19 20  1  0
 19 21  1  0
 21 22  1  0
 21 23  2  0
 23 24  1  0
 24 25  2  0
 25 26  1  0
 24 27  1  0
 27 28  1  0
 27 29  2  0
 29 30  1  0
 29 31  1  0
 31 32  1  0
  6 33  1  0
 33 34  1  0
 33 35  2  0
 35 36  1  0
 35  2  1  0
 16  7  1  0
 25 18  1  0
 31 23  1  0
M  END
>  <cnnaffinity>  (1) 
-5.48798

>  <filename>  (1) 
[H]c1nc([H])c([C@]2([H])C([H])([H])N([H])C(=O)[C@@]2([H])c2c([H])c([H])c3c(c2[H])c([H])c([H])n3[H])c([H])c1[H]

$$$$
