
     RDKit          3D

 37 39  0  0  0  0  0  0  0  0999 V2000
    4.9778    1.7868   17.0222 H   0  0  0  0  0  0  0  0  0  0  0  0
    5.4189    1.2568   17.8626 C   0  0  0  0  0  0  0  0  0  0  0  0
    6.5759    0.6220   17.6283 N   0  0  0  0  0  0  0  0  0  0  0  0
    7.1549    0.0073   18.6611 C   0  0  0  0  0  0  0  0  0  0  0  0
    8.1149   -0.4693   18.4689 H   0  0  0  0  0  0  0  0  0  0  0  0
    6.6000   -0.0562   19.9453 C   0  0  0  0  0  0  0  0  0  0  0  0
    7.4663   -0.7716   20.9345 C   0  0  0  0  0  0  0  0  0  0  0  0
    8.6693   -0.8603   20.7882 O   0  0  0  0  0  0  0  0  0  0  0  0
    6.7597   -1.3264   21.9952 N   0  0  0  0  0  0  0  0  0  0  0  0
    5.8207   -0.9546   22.0214 H   0  0  0  0  0  0  0  0  0  0  0  0
    7.2870   -1.6188   23.2725 N   0  0  0  0  0  0  0  0  0  0  0  0
    6.9773   -2.8035   23.9246 C   0  0  0  0  0  0  0  0  0  0  0  0
    7.4852   -3.1708   25.0711 N   0  0  0  0  0  0  0  0  0  0  0  0
    6.8586   -4.3687   25.3507 C   0  0  0  0  0  0  0  0  0  0  0  0
    6.9719   -5.1764   26.4793 C   0  0  0  0  0  0  0  0  0  0  0  0
    7.6490   -4.8673   27.2707 H   0  0  0  0  0  0  0  0  0  0  0  0
    6.1828   -6.3333   26.5764 C   0  0  0  0  0  0  0  0  0  0  0  0
    6.2074   -7.2181   27.7881 C   0  0  0  0  0  0  0  0  0  0  0  0
    5.3694   -8.0643   28.0287 O   0  0  0  0  0  0  0  0  0  0  0  0
    7.2756   -7.0693   28.6530 N   0  0  0  0  0  0  0  0  0  0  0  0
    7.2619   -7.9193   29.1991 H   0  0  0  0  0  0  0  0  0  0  0  0
    8.1539   -6.9058   28.1815 H   0  0  0  0  0  0  0  0  0  0  0  0
    5.3190   -6.6899   25.5033 C   0  0  0  0  0  0  0  0  0  0  0  0
    4.7387   -7.6057   25.5764 H   0  0  0  0  0  0  0  0  0  0  0  0
    5.2022   -5.8987   24.3658 C   0  0  0  0  0  0  0  0  0  0  0  0
    4.5294   -6.1791   23.5615 H   0  0  0  0  0  0  0  0  0  0  0  0
    5.9657   -4.7309   24.3154 C   0  0  0  0  0  0  0  0  0  0  0  0
    6.0449   -3.6778   23.4244 N   0  0  0  0  0  0  0  0  0  0  0  0
    5.7095   -3.6021   22.4868 H   0  0  0  0  0  0  0  0  0  0  0  0
    8.4082   -0.8360   23.7895 C   0  0  0  0  0  0  0  0  0  0  0  0
    9.3751   -1.2921   23.5469 H   0  0  0  0  0  0  0  0  0  0  0  0
    8.3858    0.1688   23.3635 H   0  0  0  0  0  0  0  0  0  0  0  0
    8.3213   -0.7588   24.8759 H   0  0  0  0  0  0  0  0  0  0  0  0
    5.3851    0.6166   20.1803 C   0  0  0  0  0  0  0  0  0  0  0  0
    4.9192    0.6804   21.1704 H   0  0  0  0  0  0  0  0  0  0  0  0
    4.7898    1.2828   19.1116 C   0  0  0  0  0  0  0  0  0  0  0  0
    3.8710    1.8446   19.2429 H   0  0  0  0  0  0  0  0  0  0  0  0
  1  2  1  0
  2  3  2  0
  3  4  1  0
  4  5  1  0
  4  6  2  0
  6  7  1  0
  7  8  2  0
  7  9  1  0
  9 10  1  0
  9 11  1  0
 11 12  1  0
 12 13  2  0
 13 14  1  0
 14 15  2  0
 15 16  1  0
 15 17  1  0
 17 18  1  0
 18 19  2  0
 18 20  1  0
 20 21  1  0
 20 22  1  0
 17 23  2  0
 23 24  1  0
 23 25  1  0
 25 26  1  0
 25 27  2  0
 27 28  1  0
 28 29  1  0
 11 30  1  0
 30 31  1  0
 30 32  1  0
 30 33  1  0
  6 34  1  0
 34 35  1  0
 34 36  2  0
 36 37  1  0
 36  2  1  0
 28 12  1  0
 27 14  1  0
M  END
>  <cnnaffinity>  (1) 
-5.28907

>  <filename>  (1) 
[H]c1nc([H])c(C(=O)N([H])N(c2nc3c([H])c(C(=O)N([H])[H])c([H])c([H])c3n2[H])C([H])([H])[H])c([H])c1[H]

$$$$
