
     RDKit          3D

 46 50  0  0  0  0  0  0  0  0999 V2000
   12.1741    5.5225   25.0294 C   0  0  0  0  0  0  0  0  0  0  0  0
   10.6742    5.8308   25.0753 C   0  0  0  0  0  0  0  0  0  0  0  0
    9.7741    4.6472   24.9611 C   0  0  0  0  0  0  0  0  0  0  0  0
    8.6880    4.2385   25.6729 C   0  0  0  0  0  0  0  0  0  0  0  0
    8.1360    3.1194   24.9751 C   0  0  0  0  0  0  0  0  0  0  0  0
    8.9421    2.9067   23.8920 C   0  0  0  0  0  0  0  0  0  0  0  0
    8.8159    1.9447   22.7952 C   0  0  0  0  0  0  0  0  0  0  0  0
    7.7921    1.1194   22.6190 N   0  0  0  0  0  0  0  0  0  0  0  0
    8.1183    0.4464   21.4936 C   0  0  0  0  0  0  0  0  0  0  0  0
    7.2672   -0.6302   20.8727 C   0  0  0  0  0  0  0  0  0  0  0  0
    6.4572   -0.1007   19.6961 C   0  0  0  0  0  0  0  0  0  0  0  0
    5.2690    0.6072   19.9194 C   0  0  0  0  0  0  0  0  0  0  0  0
    4.7006    1.3206   18.8624 C   0  0  0  0  0  0  0  0  0  0  0  0
    5.3321    1.2854   17.6156 C   0  0  0  0  0  0  0  0  0  0  0  0
    6.4291    0.5568   17.3608 N   0  0  0  0  0  0  0  0  0  0  0  0
    6.9606   -0.1234   18.3835 C   0  0  0  0  0  0  0  0  0  0  0  0
    7.8519   -0.7113   18.1565 H   0  0  0  0  0  0  0  0  0  0  0  0
    4.9414    1.8602   16.7786 H   0  0  0  0  0  0  0  0  0  0  0  0
    3.8096    1.9240   18.9976 H   0  0  0  0  0  0  0  0  0  0  0  0
    4.8070    0.6105   20.9096 H   0  0  0  0  0  0  0  0  0  0  0  0
    7.9277   -1.4477   20.5575 H   0  0  0  0  0  0  0  0  0  0  0  0
    6.6145   -1.0174   21.6598 H   0  0  0  0  0  0  0  0  0  0  0  0
    9.2734    0.7953   20.9537 N   0  0  0  0  0  0  0  0  0  0  0  0
    9.7377    1.7373   21.8000 N   0  0  0  0  0  0  0  0  0  0  0  0
   11.0981    2.1632   21.8022 C   0  0  0  0  0  0  0  0  0  0  0  0
   11.6668    3.0573   20.8963 C   0  0  0  0  0  0  0  0  0  0  0  0
   12.8217    3.7901   21.2458 C   0  0  0  0  0  0  0  0  0  0  0  0
   13.5757    3.4446   22.3740 C   0  0  0  0  0  0  0  0  0  0  0  0
   13.1230    2.3676   23.1635 C   0  0  0  0  0  0  0  0  0  0  0  0
   11.8967    1.7599   22.8762 C   0  0  0  0  0  0  0  0  0  0  0  0
   11.7238    0.7937   23.8383 N   0  0  0  0  0  0  0  0  0  0  0  0
   12.8100    0.8598   24.6518 C   0  0  0  0  0  0  0  0  0  0  0  0
   13.6653    1.7645   24.2709 N   0  0  0  0  0  0  0  0  0  0  0  0
   12.8976    0.2212   25.5224 H   0  0  0  0  0  0  0  0  0  0  0  0
   11.0390    0.0612   23.8236 H   0  0  0  0  0  0  0  0  0  0  0  0
   14.5117    3.9273   22.6334 H   0  0  0  0  0  0  0  0  0  0  0  0
   13.1197    4.6270   20.6145 H   0  0  0  0  0  0  0  0  0  0  0  0
   11.2240    3.2148   19.9242 H   0  0  0  0  0  0  0  0  0  0  0  0
    9.9567    3.8301   23.8940 O   0  0  0  0  0  0  0  0  0  0  0  0
    7.2347    2.5657   25.2081 H   0  0  0  0  0  0  0  0  0  0  0  0
    8.3257    4.7080   26.5782 H   0  0  0  0  0  0  0  0  0  0  0  0
   10.4150    6.3614   25.9979 H   0  0  0  0  0  0  0  0  0  0  0  0
   10.4129    6.5123   24.2527 H   0  0  0  0  0  0  0  0  0  0  0  0
   12.7620    6.4435   25.1096 H   0  0  0  0  0  0  0  0  0  0  0  0
   12.4519    5.0362   24.0885 H   0  0  0  0  0  0  0  0  0  0  0  0
   12.4759    4.8665   25.8506 H   0  0  0  0  0  0  0  0  0  0  0  0
  1  2  1  0
  2  3  1  0
  3  4  2  0
  4  5  1  0
  5  6  2  0
  6  7  1  0
  7  8  2  0
  8  9  1  0
  9 10  1  0
 10 11  1  0
 11 12  2  0
 12 13  1  0
 13 14  2  0
 14 15  1  0
 15 16  2  0
 16 17  1  0
 14 18  1  0
 13 19  1  0
 12 20  1  0
 10 21  1  0
 10 22  1  0
  9 23  2  0
 23 24  1  0
 24 25  1  0
 25 26  2  0
 26 27  1  0
 27 28  2  0
 28 29  1  0
 29 30  2  0
 30 31  1  0
 31 32  1  0
 32 33  2  0
 32 34  1  0
 31 35  1  0
 28 36  1  0
 27 37  1  0
 26 38  1  0
  6 39  1  0
  5 40  1  0
  4 41  1  0
  2 42  1  0
  2 43  1  0
  1 44  1  0
  1 45  1  0
  1 46  1  0
 39  3  1  0
 24  7  1  0
 30 25  1  0
 16 11  1  0
 33 29  1  0
M  END
>  <cnnaffinity>  (1) 
-6.17716

>  <filename>  (1) 
[H]c1nc([H])c(C([H])([H])c2nc(-c3oc(C([H])([H])C([H])([H])[H])c([H])c3[H])n(-c3c([H])c([H])c([H])c4nc([H])n([H])c34)n2)c([H])c1[H]

$$$$
