
     RDKit          3D

 34 36  0  0  0  0  0  0  0  0999 V2000
    6.5155    4.7458   23.5549 H   0  0  0  0  0  0  0  0  0  0  0  0
    6.9485    3.8223   23.1622 C   0  0  0  0  0  0  0  0  0  0  0  0
    6.8179    2.7263   23.9288 N   0  0  0  0  0  0  0  0  0  0  0  0
    7.3399    1.5944   23.4791 C   0  0  0  0  0  0  0  0  0  0  0  0
    7.2287    0.4720   24.2154 O   0  0  0  0  0  0  0  0  0  0  0  0
    6.5490    0.4969   25.4704 C   0  0  0  0  0  0  0  0  0  0  0  0
    6.6284   -0.5375   25.8097 H   0  0  0  0  0  0  0  0  0  0  0  0
    7.0346    1.1855   26.1742 H   0  0  0  0  0  0  0  0  0  0  0  0
    5.4991    0.7960   25.3526 H   0  0  0  0  0  0  0  0  0  0  0  0
    8.0379    1.4622   22.2458 C   0  0  0  0  0  0  0  0  0  0  0  0
    8.5213    0.1279   21.7331 C   0  0  0  0  0  0  0  0  0  0  0  0
    8.9537   -0.4684   22.5445 H   0  0  0  0  0  0  0  0  0  0  0  0
    9.3205    0.3051   21.0035 H   0  0  0  0  0  0  0  0  0  0  0  0
    7.4137   -0.6808   21.0439 C   0  0  0  0  0  0  0  0  0  0  0  0
    6.6663    0.0152   19.9240 C   0  0  0  0  0  0  0  0  0  0  0  0
    7.1735    0.0677   18.6093 C   0  0  0  0  0  0  0  0  0  0  0  0
    8.1178   -0.4207   18.3623 H   0  0  0  0  0  0  0  0  0  0  0  0
    6.5664    0.6817   17.5803 N   0  0  0  0  0  0  0  0  0  0  0  0
    5.4015    1.2973   17.8315 C   0  0  0  0  0  0  0  0  0  0  0  0
    4.9293    1.7938   16.9849 H   0  0  0  0  0  0  0  0  0  0  0  0
    4.8035    1.3180   19.0968 C   0  0  0  0  0  0  0  0  0  0  0  0
    3.8674    1.8436   19.2393 H   0  0  0  0  0  0  0  0  0  0  0  0
    5.4443    0.6626   20.1515 C   0  0  0  0  0  0  0  0  0  0  0  0
    5.0177    0.6343   21.1555 H   0  0  0  0  0  0  0  0  0  0  0  0
    7.6570   -2.1496   20.8426 C   0  0  0  0  0  0  0  0  0  0  0  0
    8.6213   -2.5880   21.0968 H   0  0  0  0  0  0  0  0  0  0  0  0
    7.1638   -2.5602   19.9709 H   0  0  0  0  0  0  0  0  0  0  0  0
    6.6657   -1.6946   21.8768 C   0  0  0  0  0  0  0  0  0  0  0  0
    5.6229   -1.8684   21.6152 H   0  0  0  0  0  0  0  0  0  0  0  0
    6.8968   -1.7812   22.9375 H   0  0  0  0  0  0  0  0  0  0  0  0
    8.1338    2.6085   21.4681 C   0  0  0  0  0  0  0  0  0  0  0  0
    8.6066    2.5354   20.4848 H   0  0  0  0  0  0  0  0  0  0  0  0
    7.5936    3.8157   21.9368 C   0  0  0  0  0  0  0  0  0  0  0  0
    7.6570    4.7333   21.3622 H   0  0  0  0  0  0  0  0  0  0  0  0
  1  2  1  0
  2  3  2  0
  3  4  1  0
  4  5  1  0
  5  6  1  0
  6  7  1  0
  6  8  1  0
  6  9  1  0
  4 10  2  0
 10 11  1  0
 11 12  1  0
 11 13  1  0
 11 14  1  0
 14 15  1  0
 15 16  2  0
 16 17  1  0
 16 18  1  0
 18 19  2  0
 19 20  1  0
 19 21  1  0
 21 22  1  0
 21 23  2  0
 23 24  1  0
 14 25  1  0
 25 26  1  0
 25 27  1  0
 25 28  1  0
 28 29  1  0
 28 30  1  0
 10 31  1  0
 31 32  1  0
 31 33  2  0
 33 34  1  0
 33  2  1  0
 28 14  1  0
 23 15  1  0
M  END
>  <cnnaffinity>  (1) 
-4.39514

>  <filename>  (1) 
[H]c1nc(OC([H])([H])[H])c(C([H])([H])C2(c3c([H])nc([H])c([H])c3[H])C([H])([H])C2([H])[H])c([H])c1[H]

$$$$
