
     RDKit          3D

 40 42  0  0  0  0  0  0  0  0999 V2000
   11.2707    5.3911   22.8139 F   0  0  0  0  0  0  0  0  0  0  0  0
   11.4221    4.0674   22.5745 C   0  0  0  0  0  0  0  0  0  0  0  0
   10.3106    3.2962   22.2443 C   0  0  0  0  0  0  0  0  0  0  0  0
   10.4480    1.9663   21.8457 C   0  0  0  0  0  0  0  0  0  0  0  0
    9.2393    1.2248   21.3649 C   0  0  0  0  0  0  0  0  0  0  0  0
    8.7626    0.3055   22.4642 C   0  0  0  0  0  0  0  0  0  0  0  0
    7.3718   -0.0866   22.1870 N   0  0  0  0  0  4  0  0  0  0  0  0
    6.8324   -0.8056   23.3575 C   0  0  0  0  0  0  0  0  0  0  0  0
    6.8066   -2.2461   22.9063 C   0  0  0  0  0  0  0  0  0  0  0  0
    6.3952   -2.1029   21.4517 C   0  0  0  0  0  0  0  0  0  0  0  0
    7.2332   -0.9241   20.9851 C   0  0  0  0  0  0  0  0  0  0  0  0
    6.5853   -0.1055   19.8967 C   0  0  0  0  0  0  0  0  0  0  0  0
    5.3797    0.5776   20.0953 C   0  0  0  0  0  0  0  0  0  0  0  0
    4.8729    1.3340   19.0403 C   0  0  0  0  0  0  0  0  0  0  0  0
    5.5503    1.3762   17.8206 C   0  0  0  0  0  0  0  0  0  0  0  0
    6.7010    0.7103   17.6222 N   0  0  0  0  0  0  0  0  0  0  0  0
    7.2064   -0.0019   18.6438 C   0  0  0  0  0  0  0  0  0  0  0  0
    8.1457   -0.5169   18.4718 H   0  0  0  0  0  0  0  0  0  0  0  0
    5.1326    1.9664   17.0092 H   0  0  0  0  0  0  0  0  0  0  0  0
    3.9603    1.9073   19.1494 H   0  0  0  0  0  0  0  0  0  0  0  0
    4.8581    0.5362   21.0496 H   0  0  0  0  0  0  0  0  0  0  0  0
    8.2148   -1.2941   20.6580 H   0  0  0  0  0  0  0  0  0  0  0  0
    6.6004   -3.0045   20.8718 H   0  0  0  0  0  0  0  0  0  0  0  0
    5.3296   -1.8678   21.3850 H   0  0  0  0  0  0  0  0  0  0  0  0
    7.8128   -2.6696   22.9825 H   0  0  0  0  0  0  0  0  0  0  0  0
    6.1159   -2.8558   23.4954 H   0  0  0  0  0  0  0  0  0  0  0  0
    5.8217   -0.4630   23.5940 H   0  0  0  0  0  0  0  0  0  0  0  0
    7.4434   -0.6753   24.2583 H   0  0  0  0  0  0  0  0  0  0  0  0
    6.8141    0.7560   22.0267 H   0  0  0  0  0  0  0  0  0  0  0  0
    9.4271   -0.5632   22.5239 H   0  0  0  0  0  0  0  0  0  0  0  0
    8.8249    0.8274   23.4276 H   0  0  0  0  0  0  0  0  0  0  0  0
    9.4656    0.6506   20.4620 H   0  0  0  0  0  0  0  0  0  0  0  0
    8.4425    1.9327   21.1209 H   0  0  0  0  0  0  0  0  0  0  0  0
   11.7115    1.3660   21.8994 C   0  0  0  0  0  0  0  0  0  0  0  0
   12.8266    2.1108   22.3147 C   0  0  0  0  0  0  0  0  0  0  0  0
   12.6875    3.4717   22.6073 C   0  0  0  0  0  0  0  0  0  0  0  0
   14.2235    4.5327   23.0049 Br  0  0  0  0  0  0  0  0  0  0  0  0
   13.8113    1.6588   22.4101 H   0  0  0  0  0  0  0  0  0  0  0  0
   11.8240    0.3223   21.6231 H   0  0  0  0  0  0  0  0  0  0  0  0
    9.3381    3.7772   22.2203 H   0  0  0  0  0  0  0  0  0  0  0  0
  1  2  1  0
  2  3  2  0
  3  4  1  0
  4  5  1  0
  5  6  1  0
  6  7  1  0
  7  8  1  0
  8  9  1  0
  9 10  1  0
 10 11  1  0
 11 12  1  0
 12 13  2  0
 13 14  1  0
 14 15  2  0
 15 16  1  0
 16 17  2  0
 17 18  1  0
 15 19  1  0
 14 20  1  0
 13 21  1  0
 11 22  1  0
 10 23  1  0
 10 24  1  0
  9 25  1  0
  9 26  1  0
  8 27  1  0
  8 28  1  0
  7 29  1  0
  6 30  1  0
  6 31  1  0
  5 32  1  0
  5 33  1  0
  4 34  2  0
 34 35  1  0
 35 36  2  0
 36 37  1  0
 35 38  1  0
 34 39  1  0
  3 40  1  0
 36  2  1  0
 11  7  1  0
 17 12  1  0
M  CHG  1   7   1
M  END
>  <cnnaffinity>  (1) 
-4.89055

>  <filename>  (1) 
[H]c1nc([H])c(C2([H])C([H])([H])C([H])([H])C([H])([H])[N+]2([H])C([H])([H])C([H])([H])c2c([H])c([H])c(Br)c(F)c2[H])c([H])c1[H]

$$$$
