
     RDKit          3D

 32 34  0  0  0  0  0  0  0  0999 V2000
    4.9104    1.8604   16.8578 H   0  0  0  0  0  0  0  0  0  0  0  0
    5.3697    1.3547   17.7024 C   0  0  0  0  0  0  0  0  0  0  0  0
    6.5338    0.7284   17.4581 N   0  0  0  0  0  0  0  0  0  0  0  0
    7.1435    0.1169   18.4835 C   0  0  0  0  0  0  0  0  0  0  0  0
    8.0842   -0.3808   18.2635 H   0  0  0  0  0  0  0  0  0  0  0  0
    6.6240    0.0812   19.8019 C   0  0  0  0  0  0  0  0  0  0  0  0
    7.2708   -0.5860   20.8754 N   0  0  0  0  0  0  0  0  0  0  0  0
    8.6394   -0.6068   21.1312 C   0  0  0  0  0  0  0  0  0  0  0  0
    9.4862   -0.0406   20.4750 O   0  0  0  0  0  0  0  0  0  0  0  0
    8.8721   -1.4493   22.4040 C   0  0  2  0  0  0  0  0  0  0  0  0
    9.2373   -0.7361   23.1526 H   0  0  0  0  0  0  0  0  0  0  0  0
    9.9310   -2.5744   22.2240 C   0  0  0  0  0  0  0  0  0  0  0  0
   10.9275   -2.1358   22.1281 H   0  0  0  0  0  0  0  0  0  0  0  0
    9.7020   -3.0653   21.2729 H   0  0  0  0  0  0  0  0  0  0  0  0
    9.9849   -3.6170   23.3103 C   0  0  0  0  0  0  0  0  0  0  0  0
   10.9606   -3.6230   24.2786 N   0  0  0  0  0  0  0  0  0  0  0  0
   10.6746   -4.6181   25.0752 C   0  0  0  0  0  0  0  0  0  0  0  0
   11.2103   -4.8845   25.9779 H   0  0  0  0  0  0  0  0  0  0  0  0
    9.5746   -5.2970   24.6675 N   0  0  0  0  0  0  0  0  0  0  0  0
    9.1726   -6.0902   25.1416 H   0  0  0  0  0  0  0  0  0  0  0  0
    9.1190   -4.6593   23.5370 C   0  0  0  0  0  0  0  0  0  0  0  0
    8.2454   -4.9713   22.9889 H   0  0  0  0  0  0  0  0  0  0  0  0
    7.4785   -1.9866   22.7545 C   0  0  0  0  0  0  0  0  0  0  0  0
    7.2833   -1.9997   23.8303 H   0  0  0  0  0  0  0  0  0  0  0  0
    7.3768   -3.0109   22.3841 H   0  0  0  0  0  0  0  0  0  0  0  0
    6.4974   -1.1003   22.0019 C   0  0  0  0  0  0  0  0  0  0  0  0
    6.1409   -0.2754   22.6352 H   0  0  0  0  0  0  0  0  0  0  0  0
    5.6300   -1.6573   21.6293 H   0  0  0  0  0  0  0  0  0  0  0  0
    5.3809    0.7038   20.0179 C   0  0  0  0  0  0  0  0  0  0  0  0
    4.9153    0.6607   21.0007 H   0  0  0  0  0  0  0  0  0  0  0  0
    4.7560    1.3637   18.9583 C   0  0  0  0  0  0  0  0  0  0  0  0
    3.8094    1.8775   19.1008 H   0  0  0  0  0  0  0  0  0  0  0  0
  1  2  1  0
  2  3  2  0
  3  4  1  0
  4  5  1  0
  4  6  2  0
  6  7  1  0
  7  8  1  0
  8  9  2  0
  8 10  1  0
 10 11  1  1
 10 12  1  0
 12 13  1  0
 12 14  1  0
 12 15  1  0
 15 16  1  0
 16 17  2  0
 17 18  1  0
 17 19  1  0
 19 20  1  0
 19 21  1  0
 21 22  1  0
 10 23  1  0
 23 24  1  0
 23 25  1  0
 23 26  1  0
 26 27  1  0
 26 28  1  0
  6 29  1  0
 29 30  1  0
 29 31  2  0
 31 32  1  0
 31  2  1  0
 26  7  1  0
 21 15  2  0
M  END
>  <cnnaffinity>  (1) 
-5.19661

>  <filename>  (1) 
[H]c1nc([H])c(N2C(=O)[C@]([H])(C([H])([H])c3nc([H])n([H])c3[H])C([H])([H])C2([H])[H])c([H])c1[H]

$$$$
