
     RDKit          3D

 26 27  0  0  0  0  0  0  0  0999 V2000
    7.5683    1.9382   27.2747 H   0  0  0  0  0  0  0  0  0  0  0  0
    7.6410    2.2513   26.2401 C   0  0  0  0  0  0  0  0  0  0  0  0
    7.8311    3.4446   25.6735 C   0  0  0  0  0  0  0  0  0  0  0  0
    7.9581    4.4457   26.0660 H   0  0  0  0  0  0  0  0  0  0  0  0
    7.8513    3.2738   24.1913 C   0  0  0  0  0  0  0  0  0  0  0  0
    7.9886    4.1212   23.3662 O   0  0  0  0  0  0  0  0  0  0  0  0
    7.6574    1.9123   23.9597 N   0  0  0  0  0  0  0  0  0  0  0  0
    7.7698    1.3748   22.7077 C   0  0  0  0  0  0  0  0  0  0  0  0
    8.3043    1.9160   21.7820 O   0  0  0  0  0  0  0  0  0  0  0  0
    7.1219    0.1902   22.6333 N   0  0  0  0  0  0  0  0  0  0  0  0
    7.0754   -0.3654   23.4688 H   0  0  0  0  0  0  0  0  0  0  0  0
    7.5137   -0.6968   21.3245 S   0  0  0  0  0  0  0  0  0  0  0  0
    6.8942   -1.9744   21.5844 O   0  0  0  0  0  0  0  0  0  0  0  0
    8.9216   -0.6175   21.0229 O   0  0  0  0  0  0  0  0  0  0  0  0
    6.6424    0.1937   20.1371 C   0  0  0  0  0  0  0  0  0  0  0  0
    7.2397    0.1179   18.8925 C   0  0  0  0  0  0  0  0  0  0  0  0
    8.1965   -0.3775   18.7575 H   0  0  0  0  0  0  0  0  0  0  0  0
    6.6762    0.6268   17.8008 N   0  0  0  0  0  0  0  0  0  0  0  0
    5.4909    1.2355   17.9420 C   0  0  0  0  0  0  0  0  0  0  0  0
    5.0542    1.6467   17.0316 H   0  0  0  0  0  0  0  0  0  0  0  0
    4.8157    1.3395   19.1645 C   0  0  0  0  0  0  0  0  0  0  0  0
    3.8519    1.8363   19.1908 H   0  0  0  0  0  0  0  0  0  0  0  0
    5.3937    0.8034   20.3117 C   0  0  0  0  0  0  0  0  0  0  0  0
    4.8861    0.8744   21.2802 H   0  0  0  0  0  0  0  0  0  0  0  0
    7.5231    1.2390   25.1593 C   0  0  0  0  0  0  0  0  0  0  0  0
    7.3509    0.0478   25.2754 O   0  0  0  0  0  0  0  0  0  0  0  0
  1  2  1  0
  2  3  2  0
  3  4  1  0
  3  5  1  0
  5  6  2  0
  5  7  1  0
  7  8  1  0
  8  9  2  0
  8 10  1  0
 10 11  1  0
 10 12  1  0
 12 13  2  0
 12 14  2  0
 12 15  1  0
 15 16  2  0
 16 17  1  0
 16 18  1  0
 18 19  2  0
 19 20  1  0
 19 21  1  0
 21 22  1  0
 21 23  2  0
 23 24  1  0
  7 25  1  0
 25 26  2  0
 25  2  1  0
 23 15  1  0
M  END
>  <cnnaffinity>  (1) 
-4.68577

>  <filename>  (1) 
[H]C1=C([H])C(=O)N(C(=O)N([H])S(=O)(=O)c2c([H])nc([H])c([H])c2[H])C1=O

$$$$
