
     RDKit          3D

 32 34  0  0  0  0  0  0  0  0999 V2000
    4.9172    1.8922   16.8022 H   0  0  0  0  0  0  0  0  0  0  0  0
    5.3509    1.4138   17.6777 C   0  0  0  0  0  0  0  0  0  0  0  0
    6.5222    0.7860   17.4938 N   0  0  0  0  0  0  0  0  0  0  0  0
    7.0702    0.1671   18.5436 C   0  0  0  0  0  0  0  0  0  0  0  0
    8.0131   -0.3420   18.3428 H   0  0  0  0  0  0  0  0  0  0  0  0
    6.5054    0.1690   19.8280 C   0  0  0  0  0  0  0  0  0  0  0  0
    7.1959   -0.5540   20.9232 C   0  0  0  0  0  0  0  0  0  0  0  0
    7.7842   -1.6808   20.6125 N   0  0  0  0  0  0  0  0  0  0  0  0
    8.3285   -2.4095   21.6318 C   0  0  0  0  0  0  0  0  0  0  0  0
    8.6521   -3.5775   21.5893 O   0  0  0  0  0  0  0  0  0  0  0  0
    8.5435   -1.7700   22.8590 N   0  0  0  0  0  0  0  0  0  0  0  0
    8.7973   -2.4869   23.5139 H   0  0  0  0  0  0  0  0  0  0  0  0
    7.8228   -0.6833   23.2393 C   0  0  0  0  0  0  0  0  0  0  0  0
    7.8193   -0.2751   24.6837 C   0  0  1  0  0  0  0  0  0  0  0  0
    6.9856    0.4235   24.7943 H   0  0  0  0  0  0  0  0  0  0  0  0
    7.6809   -1.4733   25.6606 C   0  0  0  0  0  0  0  0  0  0  0  0
    7.0484   -1.1754   26.5101 H   0  0  0  0  0  0  0  0  0  0  0  0
    7.2002   -2.3567   25.2133 H   0  0  0  0  0  0  0  0  0  0  0  0
    9.0358   -1.7594   26.1206 N   0  0  0  0  0  0  0  0  0  0  0  0
    9.3305   -2.7276   26.1197 H   0  0  0  0  0  0  0  0  0  0  0  0
   10.0080   -0.7939   25.6260 C   0  0  0  0  0  0  0  0  0  0  0  0
   10.6953   -0.4803   26.4282 H   0  0  0  0  0  0  0  0  0  0  0  0
   10.6326   -1.1788   24.8010 H   0  0  0  0  0  0  0  0  0  0  0  0
    9.1478    0.3759   25.1518 C   0  0  0  0  0  0  0  0  0  0  0  0
    9.6474    0.9489   24.3652 H   0  0  0  0  0  0  0  0  0  0  0  0
    8.9520    1.0489   25.9938 H   0  0  0  0  0  0  0  0  0  0  0  0
    7.1659   -0.0211   22.2433 C   0  0  0  0  0  0  0  0  0  0  0  0
    6.6376    0.8955   22.4489 H   0  0  0  0  0  0  0  0  0  0  0  0
    5.2874    0.8488   20.0071 C   0  0  0  0  0  0  0  0  0  0  0  0
    4.8013    0.8948   20.9840 H   0  0  0  0  0  0  0  0  0  0  0  0
    4.6911    1.4632   18.9088 C   0  0  0  0  0  0  0  0  0  0  0  0
    3.7421    1.9872   18.9885 H   0  0  0  0  0  0  0  0  0  0  0  0
  1  2  1  0
  2  3  2  0
  3  4  1  0
  4  5  1  0
  4  6  2  0
  6  7  1  0
  7  8  2  0
  8  9  1  0
  9 10  2  0
  9 11  1  0
 11 12  1  0
 11 13  1  0
 13 14  1  0
 14 15  1  6
 14 16  1  0
 16 17  1  0
 16 18  1  0
 16 19  1  0
 19 20  1  0
 19 21  1  0
 21 22  1  0
 21 23  1  0
 21 24  1  0
 24 25  1  0
 24 26  1  0
 13 27  2  0
 27 28  1  0
  6 29  1  0
 29 30  1  0
 29 31  2  0
 31 32  1  0
 31  2  1  0
 27  7  1  0
 24 14  1  0
M  END
>  <cnnaffinity>  (1) 
-4.72709

>  <filename>  (1) 
[H]c1nc([H])c(-c2nc(=O)n([H])c([C@@]3([H])C([H])([H])N([H])C([H])([H])C3([H])[H])c2[H])c([H])c1[H]

$$$$
