
     RDKit          3D

 38 40  0  0  0  0  0  0  0  0999 V2000
    4.9200    1.5134   16.8335 H   0  0  0  0  0  0  0  0  0  0  0  0
    5.3849    1.1834   17.7588 C   0  0  0  0  0  0  0  0  0  0  0  0
    6.5799    0.5888   17.6394 N   0  0  0  0  0  0  0  0  0  0  0  0
    7.1668    0.1644   18.7691 C   0  0  0  0  0  0  0  0  0  0  0  0
    8.1453   -0.2993   18.6401 H   0  0  0  0  0  0  0  0  0  0  0  0
    6.6221    0.3040   20.0606 C   0  0  0  0  0  0  0  0  0  0  0  0
    7.3666   -0.1820   21.2988 C   0  0  2  0  0  0  0  0  0  0  0  0
    6.6702   -0.0934   22.1483 H   0  0  0  0  0  0  0  0  0  0  0  0
    8.6357    0.6460   21.6450 C   0  0  0  0  0  0  0  0  0  0  0  0
    8.9244    1.3278   20.8330 H   0  0  0  0  0  0  0  0  0  0  0  0
    8.4597    1.2654   22.5333 H   0  0  0  0  0  0  0  0  0  0  0  0
    9.6436   -0.3624   21.8866 N   0  0  0  0  0  0  0  0  0  0  0  0
   10.6320   -0.2050   21.9867 H   0  0  0  0  0  0  0  0  0  0  0  0
    9.2812   -1.6513   21.6845 C   0  0  0  0  0  0  0  0  0  0  0  0
   10.0528   -2.5866   21.7785 O   0  0  0  0  0  0  0  0  0  0  0  0
    7.8288   -1.6704   21.2356 C   0  0  1  0  0  0  0  0  0  0  0  0
    7.9058   -1.9943   20.1969 H   0  0  0  0  0  0  0  0  0  0  0  0
    6.8348   -2.6301   21.9561 C   0  0  0  0  0  0  0  0  0  0  0  0
    6.6320   -2.1782   22.9394 H   0  0  0  0  0  0  0  0  0  0  0  0
    7.2911   -4.0777   22.2368 C   0  0  0  0  0  0  0  0  0  0  0  0
    6.5532   -4.5101   22.9297 H   0  0  0  0  0  0  0  0  0  0  0  0
    8.2505   -4.0647   22.7615 H   0  0  0  0  0  0  0  0  0  0  0  0
    7.3337   -5.0092   21.0112 C   0  0  0  0  0  0  0  0  0  0  0  0
    7.4716   -6.0422   21.3574 H   0  0  0  0  0  0  0  0  0  0  0  0
    8.2232   -4.7862   20.4137 H   0  0  0  0  0  0  0  0  0  0  0  0
    6.0365   -4.9317   20.1755 C   0  0  0  0  0  0  0  0  0  0  0  0
    5.2415   -5.4122   20.7672 H   0  0  0  0  0  0  0  0  0  0  0  0
    6.1202   -5.5165   19.2504 H   0  0  0  0  0  0  0  0  0  0  0  0
    5.6358   -3.4783   19.8654 C   0  0  0  0  0  0  0  0  0  0  0  0
    6.3801   -3.0109   19.2122 H   0  0  0  0  0  0  0  0  0  0  0  0
    4.7188   -3.4160   19.2744 H   0  0  0  0  0  0  0  0  0  0  0  0
    5.5135   -2.6605   21.1613 C   0  0  0  0  0  0  0  0  0  0  0  0
    5.2180   -1.6338   20.9409 H   0  0  0  0  0  0  0  0  0  0  0  0
    4.7159   -3.0886   21.7870 H   0  0  0  0  0  0  0  0  0  0  0  0
    5.3636    0.9216   20.1487 C   0  0  0  0  0  0  0  0  0  0  0  0
    4.8834    1.0352   21.1231 H   0  0  0  0  0  0  0  0  0  0  0  0
    4.7319    1.3661   18.9814 C   0  0  0  0  0  0  0  0  0  0  0  0
    3.7585    1.8426   19.0134 H   0  0  0  0  0  0  0  0  0  0  0  0
  1  2  1  0
  2  3  2  0
  3  4  1  0
  4  5  1  0
  4  6  2  0
  6  7  1  0
  7  8  1  1
  7  9  1  0
  9 10  1  0
  9 11  1  0
  9 12  1  0
 12 13  1  0
 12 14  1  0
 14 15  2  0
 14 16  1  0
 16 17  1  6
 16 18  1  0
 18 19  1  0
 18 20  1  0
 20 21  1  0
 20 22  1  0
 20 23  1  0
 23 24  1  0
 23 25  1  0
 23 26  1  0
 26 27  1  0
 26 28  1  0
 26 29  1  0
 29 30  1  0
 29 31  1  0
 29 32  1  0
 32 33  1  0
 32 34  1  0
  6 35  1  0
 35 36  1  0
 35 37  2  0
 37 38  1  0
 37  2  1  0
 16  7  1  0
 32 18  1  0
M  END
>  <cnnaffinity>  (1) 
-4.99143

>  <filename>  (1) 
[H]c1nc([H])c([C@]2([H])C([H])([H])N([H])C(=O)[C@@]2([H])C2([H])C([H])([H])C([H])([H])C([H])([H])C([H])([H])C2([H])[H])c([H])c1[H]

$$$$
