
     RDKit          3D

 24 25  0  0  0  0  0  0  0  0999 V2000
   10.2409   -0.1518   23.0955 H   0  0  0  0  0  0  0  0  0  0  0  0
    9.9178    0.8393   22.7809 C   0  0  0  0  0  0  0  0  0  0  0  0
   10.8702    1.7760   22.6434 N   0  0  0  0  0  0  0  0  0  0  0  0
   10.4448    3.0102   22.3181 C   0  0  0  0  0  0  0  0  0  0  0  0
   11.4850    3.9104   22.3530 N   0  0  0  0  0  0  0  0  0  0  0  0
   11.4655    4.6293   21.6498 H   0  0  0  0  0  0  0  0  0  0  0  0
   12.3009    3.3183   22.2858 H   0  0  0  0  0  0  0  0  0  0  0  0
    9.0773    3.2825   22.0361 C   0  0  0  0  0  0  0  0  0  0  0  0
    8.7672    4.2808   21.7429 H   0  0  0  0  0  0  0  0  0  0  0  0
    8.1390    2.3300   22.1273 N   0  0  0  0  0  0  0  0  0  0  0  0
    8.5475    1.1195   22.5420 C   0  0  0  0  0  0  0  0  0  0  0  0
    7.2436   -0.0987   22.6953 S   0  0  0  0  0  0  0  0  0  0  0  0
    7.3896   -0.7089   21.0221 C   0  0  0  0  0  0  0  0  0  0  0  0
    8.4627   -1.9033   20.7766 S   0  0  0  0  0  0  0  0  0  0  0  0
    6.6405   -0.0028   19.9404 C   0  0  0  0  0  0  0  0  0  0  0  0
    7.1649    0.0211   18.6290 C   0  0  0  0  0  0  0  0  0  0  0  0
    8.1101   -0.4728   18.4095 H   0  0  0  0  0  0  0  0  0  0  0  0
    6.5786    0.6418   17.6018 N   0  0  0  0  0  0  0  0  0  0  0  0
    5.4239    1.2822   17.8399 C   0  0  0  0  0  0  0  0  0  0  0  0
    4.9736    1.7949   16.9917 H   0  0  0  0  0  0  0  0  0  0  0  0
    4.8020    1.3102   19.0908 C   0  0  0  0  0  0  0  0  0  0  0  0
    3.8713    1.8503   19.2237 H   0  0  0  0  0  0  0  0  0  0  0  0
    5.4208    0.6646   20.1632 C   0  0  0  0  0  0  0  0  0  0  0  0
    4.9732    0.6917   21.1577 H   0  0  0  0  0  0  0  0  0  0  0  0
  1  2  1  0
  2  3  2  0
  3  4  1  0
  4  5  1  0
  5  6  1  0
  5  7  1  0
  4  8  2  0
  8  9  1  0
  8 10  1  0
 10 11  2  0
 11 12  1  0
 12 13  1  0
 13 14  2  0
 13 15  1  0
 15 16  2  0
 16 17  1  0
 16 18  1  0
 18 19  2  0
 19 20  1  0
 19 21  1  0
 21 22  1  0
 21 23  2  0
 23 24  1  0
 11  2  1  0
 23 15  1  0
M  END
>  <cnnaffinity>  (1) 
-4.68117

>  <filename>  (1) 
[H]c1nc(N([H])[H])c([H])nc1SC(=S)c1c([H])nc([H])c([H])c1[H]

$$$$
