
     RDKit          3D

 33 34  0  0  0  0  0  0  0  0999 V2000
    5.0055    1.6456   16.8966 H   0  0  0  0  0  0  0  0  0  0  0  0
    5.4702    1.2090   17.7772 C   0  0  0  0  0  0  0  0  0  0  0  0
    6.6308    0.5595   17.5799 N   0  0  0  0  0  0  0  0  0  0  0  0
    7.2256    0.0190   18.6533 C   0  0  0  0  0  0  0  0  0  0  0  0
    8.1601   -0.5095   18.4676 H   0  0  0  0  0  0  0  0  0  0  0  0
    6.7171    0.1137   19.9766 C   0  0  0  0  0  0  0  0  0  0  0  0
    7.3915   -0.4532   21.0937 N   0  0  0  0  0  0  0  0  0  0  0  0
    7.8549   -1.3434   21.0581 H   0  0  0  0  0  0  0  0  0  0  0  0
    7.3425   -0.0799   22.4060 C   0  0  0  0  0  0  0  0  0  0  0  0
    6.9306    0.9519   22.8849 O   0  0  0  0  0  0  0  0  0  0  0  0
    7.8744   -1.1132   23.1230 O   0  0  0  0  0  0  0  0  0  0  0  0
    8.0412   -0.8614   24.5196 C   0  0  0  0  0  0  0  0  0  0  0  0
    8.4493   -1.7745   24.9611 H   0  0  0  0  0  0  0  0  0  0  0  0
    7.0738   -0.6301   24.9733 H   0  0  0  0  0  0  0  0  0  0  0  0
    8.9420    0.2583   24.7119 N   0  0  0  0  0  0  0  0  0  0  0  0
    8.5124    1.0855   24.3164 H   0  0  0  0  0  0  0  0  0  0  0  0
   10.2466    0.0519   24.2991 C   0  0  0  0  0  0  0  0  0  0  0  0
   10.7014   -1.0752   24.2237 O   0  0  0  0  0  0  0  0  0  0  0  0
   11.0952    1.2690   23.9772 C   0  0  0  0  0  0  0  0  0  0  0  0
   12.4455    1.0257   23.6513 C   0  0  0  0  0  0  0  0  0  0  0  0
   12.7984   -0.0008   23.6835 H   0  0  0  0  0  0  0  0  0  0  0  0
   13.3103    2.0595   23.2955 C   0  0  0  0  0  0  0  0  0  0  0  0
   14.3453    1.8334   23.0485 H   0  0  0  0  0  0  0  0  0  0  0  0
   12.8309    3.3718   23.2349 C   0  0  0  0  0  0  0  0  0  0  0  0
   13.4971    4.1773   22.9348 H   0  0  0  0  0  0  0  0  0  0  0  0
   11.4964    3.6351   23.5555 C   0  0  0  0  0  0  0  0  0  0  0  0
   11.1188    4.6516   23.4807 H   0  0  0  0  0  0  0  0  0  0  0  0
   10.6349    2.6024   23.9435 C   0  0  0  0  0  0  0  0  0  0  0  0
    9.6180    2.8805   24.2216 H   0  0  0  0  0  0  0  0  0  0  0  0
    5.4986    0.7789   20.1537 C   0  0  0  0  0  0  0  0  0  0  0  0
    5.0751    0.8562   21.1541 H   0  0  0  0  0  0  0  0  0  0  0  0
    4.8663    1.3304   19.0328 C   0  0  0  0  0  0  0  0  0  0  0  0
    3.9213    1.8556   19.1286 H   0  0  0  0  0  0  0  0  0  0  0  0
  1  2  1  0
  2  3  2  0
  3  4  1  0
  4  5  1  0
  4  6  2  0
  6  7  1  0
  7  8  1  0
  7  9  1  0
  9 10  2  0
  9 11  1  0
 11 12  1  0
 12 13  1  0
 12 14  1  0
 12 15  1  0
 15 16  1  0
 15 17  1  0
 17 18  2  0
 17 19  1  0
 19 20  2  0
 20 21  1  0
 20 22  1  0
 22 23  1  0
 22 24  2  0
 24 25  1  0
 24 26  1  0
 26 27  1  0
 26 28  2  0
 28 29  1  0
  6 30  1  0
 30 31  1  0
 30 32  2  0
 32 33  1  0
 32  2  1  0
 28 19  1  0
M  END
>  <cnnaffinity>  (1) 
-4.75808

>  <filename>  (1) 
[H]c1nc([H])c(N([H])C(=O)OC([H])([H])N([H])C(=O)c2c([H])c([H])c([H])c([H])c2[H])c([H])c1[H]

$$$$
