
     RDKit          3D

 32 34  0  0  0  0  0  0  0  0999 V2000
   10.0369   -0.1900   22.4785 H   0  0  0  0  0  0  0  0  0  0  0  0
    9.1625   -0.7070   22.1289 C   0  0  0  0  0  0  0  0  0  0  0  0
    8.4402   -1.4997   22.9437 C   0  0  0  0  0  0  0  0  0  0  0  0
    8.6044   -1.5201   24.4183 C   0  0  0  0  0  0  0  0  0  0  0  0
    8.7090   -2.6804   25.2051 C   0  0  0  0  0  0  0  0  0  0  0  0
    8.4394   -3.8787   24.6551 F   0  0  0  0  0  0  0  0  0  0  0  0
    9.0980   -2.6663   26.5437 C   0  0  0  0  0  0  0  0  0  0  0  0
    9.2283   -3.6153   27.0498 H   0  0  0  0  0  0  0  0  0  0  0  0
    9.3067   -1.4391   27.1768 C   0  0  0  0  0  0  0  0  0  0  0  0
    9.6407   -1.3985   28.2099 H   0  0  0  0  0  0  0  0  0  0  0  0
    9.0980   -0.2511   26.4789 C   0  0  0  0  0  0  0  0  0  0  0  0
    9.2133    0.7269   26.9285 H   0  0  0  0  0  0  0  0  0  0  0  0
    8.7371   -0.3177   25.1375 C   0  0  0  0  0  0  0  0  0  0  0  0
    8.4911    0.8467   24.5089 F   0  0  0  0  0  0  0  0  0  0  0  0
    7.4498   -2.2903   22.3747 N   0  0  0  0  0  0  0  0  0  0  0  0
    6.8440   -2.8550   22.9475 H   0  0  0  0  0  0  0  0  0  0  0  0
    6.7193   -1.8378   21.2857 C   0  0  0  0  0  0  0  0  0  0  0  0
    5.6176   -2.3027   21.0841 O   0  0  0  0  0  0  0  0  0  0  0  0
    7.3489   -0.8692   20.5020 N   0  0  0  0  0  0  0  0  0  0  0  0
    6.6256   -0.0979   19.5331 C   0  0  0  0  0  0  0  0  0  0  0  0
    7.1325    0.1216   18.2297 C   0  0  0  0  0  0  0  0  0  0  0  0
    8.0828   -0.3268   17.9384 H   0  0  0  0  0  0  0  0  0  0  0  0
    6.5153    0.8581   17.2982 N   0  0  0  0  0  0  0  0  0  0  0  0
    5.3608    1.4535   17.6381 C   0  0  0  0  0  0  0  0  0  0  0  0
    4.8879    2.0613   16.8681 H   0  0  0  0  0  0  0  0  0  0  0  0
    4.7804    1.3201   18.9043 C   0  0  0  0  0  0  0  0  0  0  0  0
    3.8578    1.8462   19.1246 H   0  0  0  0  0  0  0  0  0  0  0  0
    5.4152    0.5262   19.8688 C   0  0  0  0  0  0  0  0  0  0  0  0
    5.0042    0.4005   20.8703 H   0  0  0  0  0  0  0  0  0  0  0  0
    8.7825   -0.5718   20.6916 C   0  0  0  0  0  0  0  0  0  0  0  0
    8.9705    0.4669   20.3744 H   0  0  0  0  0  0  0  0  0  0  0  0
    9.4011   -1.2193   20.0366 H   0  0  0  0  0  0  0  0  0  0  0  0
  1  2  1  0
  2  3  2  0
  3  4  1  0
  4  5  2  0
  5  6  1  0
  5  7  1  0
  7  8  1  0
  7  9  2  0
  9 10  1  0
  9 11  1  0
 11 12  1  0
 11 13  2  0
 13 14  1  0
  3 15  1  0
 15 16  1  0
 15 17  1  0
 17 18  2  0
 17 19  1  0
 19 20  1  0
 20 21  2  0
 21 22  1  0
 21 23  1  0
 23 24  2  0
 24 25  1  0
 24 26  1  0
 26 27  1  0
 26 28  2  0
 28 29  1  0
 19 30  1  0
 30 31  1  0
 30 32  1  0
 30  2  1  0
 13  4  1  0
 28 20  1  0
M  END
>  <cnnaffinity>  (1) 
-5.15952

>  <filename>  (1) 
[H]C1=C(c2c(F)c([H])c([H])c([H])c2F)N([H])C(=O)N(c2c([H])nc([H])c([H])c2[H])C1([H])[H]

$$$$
