
     RDKit          3D

 37 39  0  0  0  0  0  0  0  0999 V2000
    5.1269    1.6635   16.9341 H   0  0  0  0  0  0  0  0  0  0  0  0
    5.5275    1.2970   17.8779 C   0  0  0  0  0  0  0  0  0  0  0  0
    6.7386    0.7257   17.8202 N   0  0  0  0  0  0  0  0  0  0  0  0
    7.2521    0.2712   18.9727 C   0  0  0  0  0  0  0  0  0  0  0  0
    8.2473   -0.1595   18.9131 H   0  0  0  0  0  0  0  0  0  0  0  0
    6.6046    0.3232   20.2187 C   0  0  0  0  0  0  0  0  0  0  0  0
    7.2745   -0.3008   21.4093 C   0  0  0  0  0  0  0  0  0  0  0  0
    8.1413    0.5440   22.1908 N   0  0  0  0  0  0  0  0  0  0  0  0
    8.0078    0.5622   23.1911 H   0  0  0  0  0  0  0  0  0  0  0  0
    9.3385    0.9900   21.7195 C   0  0  0  0  0  0  0  0  0  0  0  0
    9.6234    0.9296   20.5333 O   0  0  0  0  0  0  0  0  0  0  0  0
   10.3202    1.5691   22.8554 C   0  0  0  0  0  0  0  0  0  0  0  0
   10.0877    1.3224   24.0361 O   0  0  0  0  0  0  0  0  0  0  0  0
   11.4167    2.3059   22.4808 N   0  0  0  0  0  0  0  0  0  0  0  0
   11.7181    2.6879   21.0897 C   0  0  0  0  0  0  0  0  0  0  0  0
   10.7942    2.8059   20.5284 H   0  0  0  0  0  0  0  0  0  0  0  0
   12.2718    1.8816   20.6000 H   0  0  0  0  0  0  0  0  0  0  0  0
   12.5216    3.9953   21.0389 C   0  0  0  0  0  0  0  0  0  0  0  0
   12.9033    4.1393   20.0269 H   0  0  0  0  0  0  0  0  0  0  0  0
   11.8678    4.8440   21.2909 H   0  0  0  0  0  0  0  0  0  0  0  0
   13.6378    4.0080   21.9117 O   0  0  0  0  0  0  0  0  0  0  0  0
   13.2094    3.7961   23.2457 C   0  0  0  0  0  0  0  0  0  0  0  0
   14.0916    3.9082   23.8746 H   0  0  0  0  0  0  0  0  0  0  0  0
   12.4819    4.5701   23.5399 H   0  0  0  0  0  0  0  0  0  0  0  0
   12.5738    2.4162   23.3993 C   0  0  0  0  0  0  0  0  0  0  0  0
   13.3140    1.6433   23.1451 H   0  0  0  0  0  0  0  0  0  0  0  0
   12.2438    2.2488   24.4275 H   0  0  0  0  0  0  0  0  0  0  0  0
    7.6851   -1.7531   21.2760 C   0  0  0  0  0  0  0  0  0  0  0  0
    7.4155   -2.2496   20.3466 H   0  0  0  0  0  0  0  0  0  0  0  0
    8.6255   -2.0620   21.7150 H   0  0  0  0  0  0  0  0  0  0  0  0
    6.5672   -1.3610   22.1895 C   0  0  0  0  0  0  0  0  0  0  0  0
    6.7478   -1.3981   23.2601 H   0  0  0  0  0  0  0  0  0  0  0  0
    5.5715   -1.6336   21.8694 H   0  0  0  0  0  0  0  0  0  0  0  0
    5.3400    0.9341   20.2519 C   0  0  0  0  0  0  0  0  0  0  0  0
    4.7922    1.0227   21.1908 H   0  0  0  0  0  0  0  0  0  0  0  0
    4.7970    1.4296   19.0626 C   0  0  0  0  0  0  0  0  0  0  0  0
    3.8310    1.9249   19.0339 H   0  0  0  0  0  0  0  0  0  0  0  0
  1  2  1  0
  2  3  2  0
  3  4  1  0
  4  5  1  0
  4  6  2  0
  6  7  1  0
  7  8  1  0
  8  9  1  0
  8 10  1  0
 10 11  2  0
 10 12  1  0
 12 13  2  0
 12 14  1  0
 14 15  1  0
 15 16  1  0
 15 17  1  0
 15 18  1  0
 18 19  1  0
 18 20  1  0
 18 21  1  0
 21 22  1  0
 22 23  1  0
 22 24  1  0
 22 25  1  0
 25 26  1  0
 25 27  1  0
  7 28  1  0
 28 29  1  0
 28 30  1  0
 28 31  1  0
 31 32  1  0
 31 33  1  0
  6 34  1  0
 34 35  1  0
 34 36  2  0
 36 37  1  0
 36  2  1  0
 31  7  1  0
 25 14  1  0
M  END
>  <cnnaffinity>  (1) 
-4.89018

>  <filename>  (1) 
[H]c1nc([H])c(C2(N([H])C(=O)C(=O)N3C([H])([H])C([H])([H])OC([H])([H])C3([H])[H])C([H])([H])C2([H])[H])c([H])c1[H]

$$$$
