
     RDKit          3D

 29 31  0  0  0  0  0  0  0  0999 V2000
    4.9226    1.7851   16.9891 H   0  0  0  0  0  0  0  0  0  0  0  0
    5.3957    1.2940   17.8354 C   0  0  0  0  0  0  0  0  0  0  0  0
    6.5597    0.6784   17.5807 N   0  0  0  0  0  0  0  0  0  0  0  0
    7.1687    0.0750   18.6072 C   0  0  0  0  0  0  0  0  0  0  0  0
    8.1125   -0.4169   18.3737 H   0  0  0  0  0  0  0  0  0  0  0  0
    6.6475    0.0359   19.9146 C   0  0  0  0  0  0  0  0  0  0  0  0
    7.3501   -0.7210   21.0093 C   0  0  2  0  0  0  0  0  0  0  0  0
    6.9295   -0.4070   21.9854 H   0  0  0  0  0  0  0  0  0  0  0  0
    8.7702   -0.5449   20.9494 N   0  0  0  0  0  0  0  0  0  0  0  0
    9.2579    0.3193   21.0939 H   0  0  0  0  0  0  0  0  0  0  0  0
    9.5004   -1.6837   21.0229 C   0  0  0  0  0  0  0  0  0  0  0  0
   10.6903   -1.7700   21.1348 O   0  0  0  0  0  0  0  0  0  0  0  0
    8.6195   -2.7402   21.0040 O   0  0  0  0  0  0  0  0  0  0  0  0
    7.2628   -2.2641   20.8510 C   0  0  1  0  0  0  0  0  0  0  0  0
    6.8908   -2.5146   19.8558 H   0  0  0  0  0  0  0  0  0  0  0  0
    6.2661   -2.9534   21.7999 C   0  0  0  0  0  0  0  0  0  0  0  0
    5.2368   -3.4057   21.3427 O   0  0  0  0  0  0  0  0  0  0  0  0
    6.6038   -3.0144   23.2427 C   0  0  0  0  0  0  0  0  0  0  0  0
    5.5484   -3.8681   24.3070 S   0  0  0  0  0  0  0  0  0  0  0  0
    6.5388   -3.5023   25.6557 C   0  0  0  0  0  0  0  0  0  0  0  0
    6.2632   -3.8546   26.6411 H   0  0  0  0  0  0  0  0  0  0  0  0
    7.6294   -2.7551   25.3160 C   0  0  0  0  0  0  0  0  0  0  0  0
    8.3772   -2.4169   26.0279 H   0  0  0  0  0  0  0  0  0  0  0  0
    7.6682   -2.4719   23.9249 C   0  0  0  0  0  0  0  0  0  0  0  0
    8.4693   -1.8895   23.4745 H   0  0  0  0  0  0  0  0  0  0  0  0
    5.4269    0.6682   20.1589 C   0  0  0  0  0  0  0  0  0  0  0  0
    4.9930    0.6418   21.1608 H   0  0  0  0  0  0  0  0  0  0  0  0
    4.7947    1.3163   19.0978 C   0  0  0  0  0  0  0  0  0  0  0  0
    3.8645    1.8475   19.2458 H   0  0  0  0  0  0  0  0  0  0  0  0
  1  2  1  0
  2  3  2  0
  3  4  1  0
  4  5  1  0
  4  6  2  0
  6  7  1  0
  7  8  1  1
  7  9  1  0
  9 10  1  0
  9 11  1  0
 11 12  2  0
 11 13  1  0
 13 14  1  0
 14 15  1  6
 14 16  1  0
 16 17  2  0
 16 18  1  0
 18 19  1  0
 19 20  1  0
 20 21  1  0
 20 22  2  0
 22 23  1  0
 22 24  1  0
 24 25  1  0
  6 26  1  0
 26 27  1  0
 26 28  2  0
 28 29  1  0
 28  2  1  0
 14  7  1  0
 24 18  2  0
M  END
>  <cnnaffinity>  (1) 
-4.76717

>  <filename>  (1) 
[H]c1nc([H])c([C@]2([H])N([H])C(=O)O[C@@]2([H])C(=O)c2sc([H])c([H])c2[H])c([H])c1[H]

$$$$
