
     RDKit          3D

 23 24  0  0  0  0  0  0  0  0999 V2000
    4.9817    1.7665   17.0028 H   0  0  0  0  0  0  0  0  0  0  0  0
    5.4257    1.2568   17.8547 C   0  0  0  0  0  0  0  0  0  0  0  0
    6.5820    0.6177   17.6282 N   0  0  0  0  0  0  0  0  0  0  0  0
    7.1709    0.0221   18.6672 C   0  0  0  0  0  0  0  0  0  0  0  0
    8.1186   -0.4712   18.4532 H   0  0  0  0  0  0  0  0  0  0  0  0
    6.6377    0.0040   19.9627 C   0  0  0  0  0  0  0  0  0  0  0  0
    7.4285   -0.6397   21.0091 C   0  0  0  0  0  0  0  0  0  0  0  0
    8.7190   -0.6616   20.9034 N   0  0  0  0  0  0  0  0  0  0  0  0
    9.4208   -1.4208   21.7652 C   0  0  0  0  0  0  0  0  0  0  0  0
    9.0800   -2.3871   22.6079 N   0  0  0  0  0  0  0  0  0  0  0  0
   10.2736   -2.8827   23.0749 C   0  0  0  0  0  0  0  0  0  0  0  0
   10.3066   -3.7230   23.7472 H   0  0  0  0  0  0  0  0  0  0  0  0
   11.3382   -2.2111   22.5505 C   0  0  0  0  0  0  0  0  0  0  0  0
   12.4039   -2.3698   22.6475 H   0  0  0  0  0  0  0  0  0  0  0  0
   10.7629   -1.2699   21.7303 N   0  0  0  0  0  0  0  0  0  0  0  0
   11.0721   -0.5047   21.1706 H   0  0  0  0  0  0  0  0  0  0  0  0
    6.7823   -1.1247   22.0688 N   0  0  0  0  0  0  0  0  0  0  0  0
    5.8080   -1.3240   21.9559 H   0  0  0  0  0  0  0  0  0  0  0  0
    7.3700   -1.7685   22.6072 H   0  0  0  0  0  0  0  0  0  0  0  0
    5.4093    0.6478   20.1786 C   0  0  0  0  0  0  0  0  0  0  0  0
    4.9598    0.6696   21.1730 H   0  0  0  0  0  0  0  0  0  0  0  0
    4.8068    1.2937   19.1065 C   0  0  0  0  0  0  0  0  0  0  0  0
    3.8782    1.8305   19.2310 H   0  0  0  0  0  0  0  0  0  0  0  0
  1  2  1  0
  2  3  2  0
  3  4  1  0
  4  5  1  0
  4  6  2  0
  6  7  1  0
  7  8  2  3
  8  9  1  0
  9 10  2  0
 10 11  1  0
 11 12  1  0
 11 13  2  0
 13 14  1  0
 13 15  1  0
 15 16  1  0
  7 17  1  0
 17 18  1  0
 17 19  1  0
  6 20  1  0
 20 21  1  0
 20 22  2  0
 22 23  1  0
 22  2  1  0
 15  9  1  0
M  END
>  <cnnaffinity>  (1) 
-4.58441

>  <filename>  (1) 
[H]c1nc([H])c(C(=Nc2nc([H])c([H])n2[H])N([H])[H])c([H])c1[H]

$$$$
