
     RDKit          3D

 32 34  0  0  0  0  0  0  0  0999 V2000
    4.9166    1.7978   16.9839 H   0  0  0  0  0  0  0  0  0  0  0  0
    5.3899    1.2991   17.8261 C   0  0  0  0  0  0  0  0  0  0  0  0
    6.5502    0.6769   17.5642 N   0  0  0  0  0  0  0  0  0  0  0  0
    7.1504    0.0364   18.5738 C   0  0  0  0  0  0  0  0  0  0  0  0
    8.1182   -0.4174   18.3678 H   0  0  0  0  0  0  0  0  0  0  0  0
    6.6207   -0.0361   19.8761 C   0  0  0  0  0  0  0  0  0  0  0  0
    7.5359   -0.8463   21.1982 S   0  0  0  0  0  0  0  0  0  0  0  0
    8.6065    0.5063   21.6065 C   0  0  0  0  0  0  0  0  0  0  0  0
    9.7427    0.7801   21.0028 N   0  0  0  0  0  0  0  0  0  0  0  0
   10.1832    1.9366   21.5450 N   0  0  0  0  0  0  0  0  0  0  0  0
    9.3680    2.3764   22.4299 N   0  0  0  0  0  0  0  0  0  0  0  0
    8.3541    1.4907   22.4838 N   0  0  0  0  0  0  0  0  0  0  0  0
    7.2034    1.6545   23.3527 C   0  0  0  0  0  0  0  0  0  0  0  0
    7.4340    2.4899   24.0215 H   0  0  0  0  0  0  0  0  0  0  0  0
    6.3394    1.9334   22.7399 H   0  0  0  0  0  0  0  0  0  0  0  0
    6.8957    0.4688   24.0949 N   0  0  0  0  0  0  0  0  0  0  0  0
    6.0698   -0.0599   23.8701 H   0  0  0  0  0  0  0  0  0  0  0  0
    7.7413   -0.1508   24.9899 C   0  0  0  0  0  0  0  0  0  0  0  0
    8.9148    0.4809   25.4383 C   0  0  0  0  0  0  0  0  0  0  0  0
    9.1614    1.4605   25.0441 H   0  0  0  0  0  0  0  0  0  0  0  0
    9.7316   -0.1655   26.3664 C   0  0  0  0  0  0  0  0  0  0  0  0
   10.6354    0.3274   26.7033 H   0  0  0  0  0  0  0  0  0  0  0  0
    9.3971   -1.4265   26.8594 C   0  0  0  0  0  0  0  0  0  0  0  0
   10.0384   -1.9130   27.5874 H   0  0  0  0  0  0  0  0  0  0  0  0
    8.2408   -2.0602   26.4026 C   0  0  0  0  0  0  0  0  0  0  0  0
    7.9905   -3.0494   26.7725 H   0  0  0  0  0  0  0  0  0  0  0  0
    7.4074   -1.4309   25.4758 C   0  0  0  0  0  0  0  0  0  0  0  0
    6.4999   -1.9211   25.1273 H   0  0  0  0  0  0  0  0  0  0  0  0
    5.4223    0.6319   20.1418 C   0  0  0  0  0  0  0  0  0  0  0  0
    5.0050    0.6363   21.1530 H   0  0  0  0  0  0  0  0  0  0  0  0
    4.7982    1.3111   19.0942 C   0  0  0  0  0  0  0  0  0  0  0  0
    3.8718    1.8477   19.2520 H   0  0  0  0  0  0  0  0  0  0  0  0
  1  2  1  0
  2  3  2  0
  3  4  1  0
  4  5  1  0
  4  6  2  0
  6  7  1  0
  7  8  1  0
  8  9  2  0
  9 10  1  0
 10 11  2  0
 11 12  1  0
 12 13  1  0
 13 14  1  0
 13 15  1  0
 13 16  1  0
 16 17  1  0
 16 18  1  0
 18 19  2  0
 19 20  1  0
 19 21  1  0
 21 22  1  0
 21 23  2  0
 23 24  1  0
 23 25  1  0
 25 26  1  0
 25 27  2  0
 27 28  1  0
  6 29  1  0
 29 30  1  0
 29 31  2  0
 31 32  1  0
 31  2  1  0
 12  8  1  0
 27 18  1  0
M  END
>  <cnnaffinity>  (1) 
-5.02343

>  <filename>  (1) 
[H]c1nc([H])c(Sc2nnnn2C([H])([H])N([H])c2c([H])c([H])c([H])c([H])c2[H])c([H])c1[H]

$$$$
