
     RDKit          3D

 31 32  0  0  0  0  0  0  0  0999 V2000
    4.9498    1.7731   17.0037 H   0  0  0  0  0  0  0  0  0  0  0  0
    5.4075    1.2785   17.8600 C   0  0  0  0  0  0  0  0  0  0  0  0
    6.5716    0.6549   17.6246 N   0  0  0  0  0  0  0  0  0  0  0  0
    7.1637    0.0308   18.6474 C   0  0  0  0  0  0  0  0  0  0  0  0
    8.1229   -0.4307   18.4207 H   0  0  0  0  0  0  0  0  0  0  0  0
    6.6207   -0.0347   19.9381 C   0  0  0  0  0  0  0  0  0  0  0  0
    7.4401   -0.7099   20.9798 C   0  0  0  0  0  0  0  0  0  0  0  0
    8.6331   -0.9008   20.8603 O   0  0  0  0  0  0  0  0  0  0  0  0
    6.7472   -1.0928   22.1271 N   0  0  0  0  0  0  0  0  0  0  0  0
    5.8010   -1.4326   22.0330 H   0  0  0  0  0  0  0  0  0  0  0  0
    7.3301   -1.4585   23.3221 C   0  0  0  0  0  0  0  0  0  0  0  0
    6.6329   -2.6606   24.1915 S   0  0  0  0  0  0  0  0  0  0  0  0
    8.5015   -0.6460   23.7886 C   0  0  0  0  0  0  0  0  0  0  0  0
    9.5452   -1.2392   24.5154 C   0  0  0  0  0  0  0  0  0  0  0  0
    9.5210   -2.3019   24.7481 H   0  0  0  0  0  0  0  0  0  0  0  0
   10.6022   -0.4425   24.9631 C   0  0  0  0  0  0  0  0  0  0  0  0
   11.4370   -0.8621   25.5039 H   0  0  0  0  0  0  0  0  0  0  0  0
   10.6299    0.9299   24.7198 C   0  0  0  0  0  0  0  0  0  0  0  0
   11.4536    1.5430   25.0639 H   0  0  0  0  0  0  0  0  0  0  0  0
    9.5811    1.5094   24.0113 C   0  0  0  0  0  0  0  0  0  0  0  0
    9.7037    2.8782   23.7896 O   0  0  0  0  0  0  0  0  0  0  0  0
    8.7888    3.5774   23.0882 C   0  0  0  0  0  0  0  0  0  0  0  0
    7.5708    3.5553   23.6617 F   0  0  0  0  0  0  0  0  0  0  0  0
    9.2235    4.8314   23.0485 F   0  0  0  0  0  0  0  0  0  0  0  0
    8.6257    3.1266   21.8280 F   0  0  0  0  0  0  0  0  0  0  0  0
    8.5133    0.7469   23.5576 C   0  0  0  0  0  0  0  0  0  0  0  0
    7.6937    1.2276   23.0333 H   0  0  0  0  0  0  0  0  0  0  0  0
    5.4066    0.6343   20.1761 C   0  0  0  0  0  0  0  0  0  0  0  0
    4.9651    0.6669   21.1760 H   0  0  0  0  0  0  0  0  0  0  0  0
    4.7976    1.3032   19.1175 C   0  0  0  0  0  0  0  0  0  0  0  0
    3.8732    1.8482   19.2488 H   0  0  0  0  0  0  0  0  0  0  0  0
  1  2  1  0
  2  3  2  0
  3  4  1  0
  4  5  1  0
  4  6  2  0
  6  7  1  0
  7  8  2  0
  7  9  1  0
  9 10  1  0
  9 11  1  0
 11 12  2  0
 11 13  1  0
 13 14  2  0
 14 15  1  0
 14 16  1  0
 16 17  1  0
 16 18  2  0
 18 19  1  0
 18 20  1  0
 20 21  1  0
 21 22  1  0
 22 23  1  0
 22 24  1  0
 22 25  1  0
 20 26  2  0
 26 27  1  0
  6 28  1  0
 28 29  1  0
 28 30  2  0
 30 31  1  0
 30  2  1  0
 26 13  1  0
M  END
>  <cnnaffinity>  (1) 
-5.23002

>  <filename>  (1) 
[H]c1nc([H])c(C(=O)N([H])C(=S)c2c([H])c([H])c([H])c(OC(F)(F)F)c2[H])c([H])c1[H]

$$$$
