
     RDKit          3D

 32 34  0  0  0  0  0  0  0  0999 V2000
    4.8819    1.7687   16.9183 H   0  0  0  0  0  0  0  0  0  0  0  0
    5.3517    1.3682   17.8130 C   0  0  0  0  0  0  0  0  0  0  0  0
    6.5613    0.8200   17.6309 N   0  0  0  0  0  0  0  0  0  0  0  0
    7.1722    0.3162   18.7073 C   0  0  0  0  0  0  0  0  0  0  0  0
    8.1498   -0.1277   18.5176 H   0  0  0  0  0  0  0  0  0  0  0  0
    6.6356    0.3458   20.0126 C   0  0  0  0  0  0  0  0  0  0  0  0
    7.3222   -0.3918   21.1101 C   0  0  0  0  0  0  0  0  0  0  0  0
    7.6679    0.4748   22.5954 S   0  0  0  0  0  0  0  0  0  0  0  0
    8.2371   -0.8036   23.6389 C   0  0  0  0  0  0  0  0  0  0  0  0
    8.3788   -0.4513   25.0933 C   0  0  0  0  0  0  0  0  0  0  0  0
    9.6487   -0.3833   25.5102 N   0  0  0  0  0  0  0  0  0  0  0  0
    9.8977   -0.2176   26.8118 C   0  0  0  0  0  0  0  0  0  0  0  0
   10.9523   -0.1845   27.0816 H   0  0  0  0  0  0  0  0  0  0  0  0
    8.8879   -0.1210   27.7732 C   0  0  0  0  0  0  0  0  0  0  0  0
    9.1520    0.0158   28.8165 H   0  0  0  0  0  0  0  0  0  0  0  0
    7.5607   -0.1910   27.3649 C   0  0  0  0  0  0  0  0  0  0  0  0
    6.7456   -0.1109   28.0884 H   0  0  0  0  0  0  0  0  0  0  0  0
    7.3017   -0.3670   25.9992 C   0  0  0  0  0  0  0  0  0  0  0  0
    5.9118   -0.5577   25.4786 C   0  0  0  0  0  0  0  0  0  0  0  0
    5.8301   -1.6496   24.6962 F   0  0  0  0  0  0  0  0  0  0  0  0
    5.5114    0.4892   24.7336 F   0  0  0  0  0  0  0  0  0  0  0  0
    5.0121   -0.6992   26.4683 F   0  0  0  0  0  0  0  0  0  0  0  0
    8.5948   -2.0395   23.2030 C   0  0  0  0  0  0  0  0  0  0  0  0
    9.1268   -2.7367   23.8511 H   0  0  0  0  0  0  0  0  0  0  0  0
    8.2539   -2.5876   21.8849 C   0  0  0  0  0  0  0  0  0  0  0  0
    8.4879   -3.7543   21.6089 O   0  0  0  0  0  0  0  0  0  0  0  0
    7.6322   -1.6878   20.9148 C   0  0  0  0  0  0  0  0  0  0  0  0
    7.4115   -2.1543   19.9657 H   0  0  0  0  0  0  0  0  0  0  0  0
    5.3834    0.9532   20.1851 C   0  0  0  0  0  0  0  0  0  0  0  0
    4.9481    1.0125   21.1839 H   0  0  0  0  0  0  0  0  0  0  0  0
    4.7222    1.4540   19.0599 C   0  0  0  0  0  0  0  0  0  0  0  0
    3.7490    1.9240   19.1307 H   0  0  0  0  0  0  0  0  0  0  0  0
  1  2  1  0
  2  3  2  0
  3  4  1  0
  4  5  1  0
  4  6  2  0
  6  7  1  0
  7  8  1  0
  8  9  1  0
  9 10  1  0
 10 11  2  0
 11 12  1  0
 12 13  1  0
 12 14  2  0
 14 15  1  0
 14 16  1  0
 16 17  1  0
 16 18  2  0
 18 19  1  0
 19 20  1  0
 19 21  1  0
 19 22  1  0
  9 23  2  0
 23 24  1  0
 23 25  1  0
 25 26  2  0
 25 27  1  0
 27 28  1  0
  6 29  1  0
 29 30  1  0
 29 31  2  0
 31 32  1  0
 31  2  1  0
 27  7  2  0
 18 10  1  0
M  END
>  <cnnaffinity>  (1) 
-5.5509

>  <filename>  (1) 
[H]c1nc([H])c(-c2sc(-c3nc([H])c([H])c([H])c3C(F)(F)F)c([H])c(=O)c2[H])c([H])c1[H]

$$$$
