
     RDKit          3D

 29 31  0  0  0  0  0  0  0  0999 V2000
    8.8569   -3.5289   22.3994 C   0  0  0  0  0  0  0  0  0  0  0  0
    8.2117   -2.2343   22.0724 C   0  0  0  0  0  0  0  0  0  0  0  0
    8.0933   -1.2679   22.9523 N   0  0  0  0  0  0  0  0  0  0  0  0
    7.5743   -0.2567   22.2123 N   0  0  0  0  0  0  0  0  0  0  0  0
    7.4713    1.0069   22.7736 C   0  0  0  0  0  0  0  0  0  0  0  0
    7.2675    1.2732   24.0928 C   0  0  0  0  0  0  0  0  0  0  0  0
    7.1585    2.5966   24.4093 N   0  0  0  0  0  0  0  0  0  0  0  0
    7.3147    3.3460   23.3554 C   0  0  0  0  0  0  0  0  0  0  0  0
    7.3145    4.8329   23.3896 C   0  0  0  0  0  0  0  0  0  0  0  0
    6.7705    5.1713   24.2760 H   0  0  0  0  0  0  0  0  0  0  0  0
    6.8607    5.2365   22.4804 H   0  0  0  0  0  0  0  0  0  0  0  0
    8.3459    5.2036   23.4570 H   0  0  0  0  0  0  0  0  0  0  0  0
    7.6122    2.4830   21.8711 S   0  0  0  0  0  0  0  0  0  0  0  0
    7.1914    0.5131   24.8654 H   0  0  0  0  0  0  0  0  0  0  0  0
    7.3608   -0.7057   20.9280 C   0  0  0  0  0  0  0  0  0  0  0  0
    6.6158    0.0136   19.9010 C   0  0  0  0  0  0  0  0  0  0  0  0
    5.3833    0.6433   20.1321 C   0  0  0  0  0  0  0  0  0  0  0  0
    4.7721    1.3020   19.0683 C   0  0  0  0  0  0  0  0  0  0  0  0
    5.3968    1.2892   17.8174 C   0  0  0  0  0  0  0  0  0  0  0  0
    6.5584    0.6605   17.5834 N   0  0  0  0  0  0  0  0  0  0  0  0
    7.1443    0.0341   18.6063 C   0  0  0  0  0  0  0  0  0  0  0  0
    8.0948   -0.4524   18.3878 H   0  0  0  0  0  0  0  0  0  0  0  0
    4.9583    1.8087   16.9662 H   0  0  0  0  0  0  0  0  0  0  0  0
    3.8500    1.8528   19.2056 H   0  0  0  0  0  0  0  0  0  0  0  0
    4.9344    0.6403   21.1258 H   0  0  0  0  0  0  0  0  0  0  0  0
    7.8114   -1.9288   20.8086 N   0  0  0  0  0  0  0  0  0  0  0  0
    8.5059   -4.2906   21.7012 H   0  0  0  0  0  0  0  0  0  0  0  0
    9.9312   -3.3671   22.2704 H   0  0  0  0  0  0  0  0  0  0  0  0
    8.6608   -3.8273   23.4316 H   0  0  0  0  0  0  0  0  0  0  0  0
  1  2  1  0
  2  3  2  0
  3  4  1  0
  4  5  1  0
  5  6  2  0
  6  7  1  0
  7  8  2  0
  8  9  1  0
  9 10  1  0
  9 11  1  0
  9 12  1  0
  8 13  1  0
  6 14  1  0
  4 15  1  0
 15 16  1  0
 16 17  2  0
 17 18  1  0
 18 19  2  0
 19 20  1  0
 20 21  2  0
 21 22  1  0
 19 23  1  0
 18 24  1  0
 17 25  1  0
 15 26  2  0
  1 27  1  0
  1 28  1  0
  1 29  1  0
 26  2  1  0
 13  5  1  0
 21 16  1  0
M  END
>  <cnnaffinity>  (1) 
-4.61221

>  <filename>  (1) 
[H]c1nc(C([H])([H])[H])sc1-n1nc(C([H])([H])[H])nc1-c1c([H])nc([H])c([H])c1[H]

$$$$
