
     RDKit          3D

 43 47  0  0  0  0  0  0  0  0999 V2000
    4.7998    1.3148   19.1157 C   0  0  0  0  0  0  0  0  0  0  0  0
    5.3963    1.2907   17.8534 C   0  0  0  0  0  0  0  0  0  0  0  0
    6.5740    0.6813   17.5841 N   0  0  0  0  0  0  0  0  0  0  0  0
    7.1866    0.0550   18.6101 C   0  0  0  0  0  0  0  0  0  0  0  0
    6.6663    0.0013   19.9170 C   0  0  0  0  0  0  0  0  0  0  0  0
    7.3961   -0.7059   20.9548 C   0  0  0  0  0  0  0  0  0  0  0  0
    8.5383   -1.3109   20.7396 N   0  0  0  0  0  0  0  0  0  0  0  0
    8.8383   -1.8316   21.9592 N   0  0  0  0  0  0  0  0  0  0  0  0
   10.1530   -2.4964   22.2130 C   0  0  0  0  0  0  0  0  0  0  0  0
   10.6915   -1.8546   23.1984 C   0  0  0  0  0  0  0  0  0  0  0  0
   11.3757   -0.4192   22.6768 C   0  0  0  0  0  0  0  0  0  0  0  0
   12.1320    0.1438   23.6209 C   0  0  0  0  0  0  0  0  0  0  0  0
   12.8144    0.2215   25.1584 N   0  0  0  0  0  0  0  0  0  0  0  0
   11.5431   -0.6731   25.4678 C   0  0  0  0  0  0  0  0  0  0  0  0
   10.4313   -2.1692   24.4775 C   0  0  0  0  0  0  0  0  0  0  0  0
   10.8894   -3.0985   24.8607 H   0  0  0  0  0  0  0  0  0  0  0  0
   12.8143    0.2222   25.1587 H   0  0  0  0  0  0  0  0  0  0  0  0
   12.5327    1.2268   23.6516 H   0  0  0  0  0  0  0  0  0  0  0  0
   11.2369   -0.0259   21.7873 H   0  0  0  0  0  0  0  0  0  0  0  0
    9.9320   -3.5051   22.6301 H   0  0  0  0  0  0  0  0  0  0  0  0
   10.6725   -2.6302   21.2875 H   0  0  0  0  0  0  0  0  0  0  0  0
    7.8546   -1.4788   22.8510 C   0  0  0  0  0  0  0  0  0  0  0  0
    7.9087   -1.7450   24.2852 C   0  0  0  0  0  0  0  0  0  0  0  0
    7.9840   -0.7303   25.2235 C   0  0  0  0  0  0  0  0  0  0  0  0
    8.0472   -0.9998   26.5820 C   0  0  0  0  0  0  0  0  0  0  0  0
    8.0161   -2.2895   27.0695 C   0  0  0  0  0  0  0  0  0  0  0  0
    7.9038   -3.3254   26.1564 C   0  0  0  0  0  0  0  0  0  0  0  0
    7.8368   -3.0836   24.7578 C   0  0  0  0  0  0  0  0  0  0  0  0
    7.7370   -4.3445   24.1231 C   0  0  0  0  0  0  0  0  0  0  0  0
    7.7332   -5.2910   25.0985 C   0  0  0  0  0  0  0  0  0  0  0  0
    7.8413   -4.6912   26.3498 N   0  0  0  0  0  0  0  0  0  0  0  0
    7.8573   -5.1295   27.2468 H   0  0  0  0  0  0  0  0  0  0  0  0
    7.6564   -6.3387   24.9970 H   0  0  0  0  0  0  0  0  0  0  0  0
    7.6511   -4.4790   23.0626 H   0  0  0  0  0  0  0  0  0  0  0  0
    8.0380   -2.5531   28.0963 H   0  0  0  0  0  0  0  0  0  0  0  0
    8.0974   -0.1848   27.3005 H   0  0  0  0  0  0  0  0  0  0  0  0
    8.0011    0.3028   24.8671 H   0  0  0  0  0  0  0  0  0  0  0  0
    6.9517   -0.7693   22.2251 N   0  0  0  0  0  0  0  0  0  0  0  0
    5.4387    0.6552   20.1569 C   0  0  0  0  0  0  0  0  0  0  0  0
    5.0106    0.6275   21.1559 H   0  0  0  0  0  0  0  0  0  0  0  0
    8.1373   -0.4405   18.3824 H   0  0  0  0  0  0  0  0  0  0  0  0
    4.9052    1.7689   17.0088 H   0  0  0  0  0  0  0  0  0  0  0  0
    3.8758    1.8434   19.2684 H   0  0  0  0  0  0  0  0  0  0  0  0
  1  2  2  0
  2  3  1  0
  3  4  2  0
  4  5  1  0
  5  6  1  0
  6  7  2  0
  7  8  1  0
  8  9  1  0
  9 10  1  0
 10 11  2  0
 11 12  1  0
 12 13  2  0
 13 14  1  0
 14 15  2  0
 15 16  1  0
 14 17  1  0
 12 18  1  0
 11 19  1  0
  9 20  1  0
  9 21  1  0
  8 22  1  0
 22 23  1  0
 23 24  2  0
 24 25  1  0
 25 26  2  0
 26 27  1  0
 27 28  2  0
 28 29  1  0
 29 30  2  0
 30 31  1  0
 31 32  1  0
 30 33  1  0
 29 34  1  0
 26 35  1  0
 25 36  1  0
 24 37  1  0
 22 38  2  0
  5 39  2  0
 39 40  1  0
  4 41  1  0
  2 42  1  0
  1 43  1  0
 39  1  1  0
 38  6  1  0
 15 10  1  0
 28 23  1  0
 31 27  1  0
M  END
>  <cnnaffinity>  (1) 
-6.45573

>  <filename>  (1) 
[H]c1nc([H])c(-c2nc(-c3c([H])c([H])c([H])c4c3c([H])c([H])n4[H])n(C([H])([H])c3c([H])c([H])nc([H])c3[H])n2)c([H])c1[H]

$$$$
