
     RDKit          3D

 37 38  0  0  0  0  0  0  0  0999 V2000
    4.9548    1.8140   16.9482 H   0  0  0  0  0  0  0  0  0  0  0  0
    5.4257    1.3093   17.7904 C   0  0  0  0  0  0  0  0  0  0  0  0
    6.5721    0.6612   17.5226 N   0  0  0  0  0  0  0  0  0  0  0  0
    7.1853    0.0333   18.5341 C   0  0  0  0  0  0  0  0  0  0  0  0
    8.1176   -0.4750   18.3028 H   0  0  0  0  0  0  0  0  0  0  0  0
    6.6814    0.0025   19.8490 C   0  0  0  0  0  0  0  0  0  0  0  0
    7.3491   -0.7005   20.9275 N   0  0  0  0  0  0  0  0  0  0  0  0
    6.6485   -1.6723   21.6175 C   0  0  0  0  0  0  0  0  0  0  0  0
    5.6427   -1.8864   21.2411 H   0  0  0  0  0  0  0  0  0  0  0  0
    7.1945   -2.3086   22.6851 C   0  0  0  0  0  0  0  0  0  0  0  0
    6.5124   -3.4234   23.3460 C   0  0  0  0  0  0  0  0  0  0  0  0
    5.7429   -4.1434   22.7226 O   0  0  0  0  0  0  0  0  0  0  0  0
    6.7708   -3.5247   24.6715 N   0  0  0  0  0  0  0  0  0  0  0  0
    7.6781   -3.1182   24.8819 H   0  0  0  0  0  0  0  0  0  0  0  0
    6.3495   -4.6512   25.5028 C   0  0  0  0  0  0  0  0  0  0  0  0
    7.0540   -5.9156   25.0255 C   0  0  0  0  0  0  0  0  0  0  0  0
    8.1339   -5.7488   24.9523 H   0  0  0  0  0  0  0  0  0  0  0  0
    6.6912   -6.1859   24.0299 H   0  0  0  0  0  0  0  0  0  0  0  0
    6.8852   -6.7273   25.7418 H   0  0  0  0  0  0  0  0  0  0  0  0
    4.8232   -4.7912   25.4521 C   0  0  0  0  0  0  0  0  0  0  0  0
    4.4737   -5.6459   26.0421 H   0  0  0  0  0  0  0  0  0  0  0  0
    4.3633   -3.8787   25.8470 H   0  0  0  0  0  0  0  0  0  0  0  0
    4.4947   -4.9202   24.4213 H   0  0  0  0  0  0  0  0  0  0  0  0
    6.7878   -4.3107   26.9276 C   0  0  0  0  0  0  0  0  0  0  0  0
    6.3091   -3.3794   27.2503 H   0  0  0  0  0  0  0  0  0  0  0  0
    7.8771   -4.1818   26.9808 H   0  0  0  0  0  0  0  0  0  0  0  0
    6.5064   -5.1026   27.6337 H   0  0  0  0  0  0  0  0  0  0  0  0
    8.5190   -1.9723   23.1268 C   0  0  0  0  0  0  0  0  0  0  0  0
    9.0886   -2.3627   24.1362 O   0  0  0  0  0  0  0  0  0  0  0  0
    9.1907   -1.1173   22.3096 N   0  0  0  0  0  0  0  0  0  0  0  0
   10.0923   -0.8245   22.6250 H   0  0  0  0  0  0  0  0  0  0  0  0
    8.6857   -0.3856   21.2837 C   0  0  0  0  0  0  0  0  0  0  0  0
    9.3708    0.4455   20.7363 O   0  0  0  0  0  0  0  0  0  0  0  0
    5.4753    0.6618   20.1073 C   0  0  0  0  0  0  0  0  0  0  0  0
    5.0604    0.6404   21.1161 H   0  0  0  0  0  0  0  0  0  0  0  0
    4.8367    1.3374   19.0611 C   0  0  0  0  0  0  0  0  0  0  0  0
    3.9007    1.8707   19.2159 H   0  0  0  0  0  0  0  0  0  0  0  0
  1  2  1  0
  2  3  2  0
  3  4  1  0
  4  5  1  0
  4  6  2  0
  6  7  1  0
  7  8  1  0
  8  9  1  0
  8 10  2  0
 10 11  1  0
 11 12  2  0
 11 13  1  0
 13 14  1  0
 13 15  1  0
 15 16  1  0
 16 17  1  0
 16 18  1  0
 16 19  1  0
 15 20  1  0
 20 21  1  0
 20 22  1  0
 20 23  1  0
 15 24  1  0
 24 25  1  0
 24 26  1  0
 24 27  1  0
 10 28  1  0
 28 29  2  0
 28 30  1  0
 30 31  1  0
 30 32  1  0
 32 33  2  0
  6 34  1  0
 34 35  1  0
 34 36  2  0
 36 37  1  0
 36  2  1  0
 32  7  1  0
M  END
>  <cnnaffinity>  (1) 
-5.23667

>  <filename>  (1) 
[H]c1nc([H])c(-n2c([H])c(C(=O)N([H])C(C([H])([H])[H])(C([H])([H])[H])C([H])([H])[H])c(=O)n([H])c2=O)c([H])c1[H]

$$$$
