
     RDKit          3D

 37 40  0  0  0  0  0  0  0  0999 V2000
    4.7829    1.3403   19.0637 C   0  0  0  0  0  0  0  0  0  0  0  0
    5.4094    1.3031   17.8154 C   0  0  0  0  0  0  0  0  0  0  0  0
    6.5804    0.6863   17.6040 N   0  0  0  0  0  0  0  0  0  0  0  0
    7.1626    0.0682   18.6416 C   0  0  0  0  0  0  0  0  0  0  0  0
    6.6115    0.0420   19.9458 C   0  0  0  0  0  0  0  0  0  0  0  0
    7.2618   -0.5946   21.0703 N   0  0  0  0  0  0  0  0  0  0  0  0
    7.8020   -1.8613   21.1510 C   0  0  0  0  0  0  0  0  0  0  0  0
    8.2937   -2.1187   22.3248 N   0  0  0  0  0  0  0  0  0  0  0  0
    8.0535   -1.0046   23.1051 N   0  0  0  0  0  0  0  0  0  0  0  0
    7.4305   -0.1338   22.3603 C   0  0  0  0  0  0  0  0  0  0  0  0
    6.9453    1.0651   22.8461 N   0  0  0  0  0  0  0  0  0  0  0  0
    7.4444    2.3319   22.2737 C   0  0  0  0  0  0  0  0  0  0  0  0
    8.7103    2.8048   22.9712 C   0  0  0  0  0  0  0  0  0  0  0  0
    8.5893    3.6379   24.0745 C   0  0  0  0  0  0  0  0  0  0  0  0
    9.7222    4.1787   24.7337 C   0  0  0  0  0  0  0  0  0  0  0  0
   10.9870    3.8355   24.3133 C   0  0  0  0  0  0  0  0  0  0  0  0
   11.1620    2.8615   23.2897 C   0  0  0  0  0  0  0  0  0  0  0  0
   12.4363    2.3252   22.9588 C   0  0  0  0  0  0  0  0  0  0  0  0
   12.5285    1.3270   22.0254 C   0  0  0  0  0  0  0  0  0  0  0  0
   11.4748    0.8378   21.3247 N   0  0  0  0  0  0  0  0  0  0  0  0
   10.2827    1.3444   21.5971 C   0  0  0  0  0  0  0  0  0  0  0  0
   10.0222    2.3443   22.5914 C   0  0  0  0  0  0  0  0  0  0  0  0
    9.4434    0.9325   21.0280 H   0  0  0  0  0  0  0  0  0  0  0  0
   13.4936    0.8761   21.8023 H   0  0  0  0  0  0  0  0  0  0  0  0
   13.3255    2.7081   23.4472 H   0  0  0  0  0  0  0  0  0  0  0  0
   11.8751    4.2591   24.7772 H   0  0  0  0  0  0  0  0  0  0  0  0
    9.5760    4.8399   25.5866 H   0  0  0  0  0  0  0  0  0  0  0  0
    7.5930    3.8953   24.4373 H   0  0  0  0  0  0  0  0  0  0  0  0
    6.6544    3.0766   22.4314 H   0  0  0  0  0  0  0  0  0  0  0  0
    7.5615    2.2505   21.1845 H   0  0  0  0  0  0  0  0  0  0  0  0
    7.1635    1.0065   23.8375 H   0  0  0  0  0  0  0  0  0  0  0  0
    7.7609   -2.5587   20.3334 H   0  0  0  0  0  0  0  0  0  0  0  0
    5.4015    0.7142   20.1499 C   0  0  0  0  0  0  0  0  0  0  0  0
    4.9855    0.7712   21.1535 H   0  0  0  0  0  0  0  0  0  0  0  0
    8.1159   -0.4159   18.4275 H   0  0  0  0  0  0  0  0  0  0  0  0
    4.9609    1.7866   16.9519 H   0  0  0  0  0  0  0  0  0  0  0  0
    3.8376    1.8604   19.1714 H   0  0  0  0  0  0  0  0  0  0  0  0
  1  2  2  0
  2  3  1  0
  3  4  2  0
  4  5  1  0
  5  6  1  0
  6  7  1  0
  7  8  2  0
  8  9  1  0
  9 10  2  0
 10 11  1  0
 11 12  1  0
 12 13  1  0
 13 14  2  0
 14 15  1  0
 15 16  2  0
 16 17  1  0
 17 18  2  0
 18 19  1  0
 19 20  2  0
 20 21  1  0
 21 22  2  0
 21 23  1  0
 19 24  1  0
 18 25  1  0
 16 26  1  0
 15 27  1  0
 14 28  1  0
 12 29  1  0
 12 30  1  0
 11 31  1  0
  7 32  1  0
  5 33  2  0
 33 34  1  0
  4 35  1  0
  2 36  1  0
  1 37  1  0
 33  1  1  0
 10  6  1  0
 22 13  1  0
 22 17  1  0
M  END
>  <cnnaffinity>  (1) 
-5.43072

>  <filename>  (1) 
[H]c1nc([H])c(-n2c([H])nnc2N([H])C([H])([H])c2c([H])c([H])c([H])c3c([H])c([H])nc([H])c23)c([H])c1[H]

$$$$
