
     RDKit          3D

 34 36  0  0  0  0  0  0  0  0999 V2000
    5.9761   -2.3470   21.3422 O   0  0  0  0  0  0  0  0  0  0  0  0
    6.8600   -1.6147   21.7358 C   0  0  0  0  0  0  0  0  0  0  0  0
    7.5439   -1.7976   23.1266 C   0  0  0  0  0  0  0  0  0  0  0  0
    7.2001   -0.8632   24.2090 N   0  0  0  0  0  0  0  0  0  0  0  0
    7.6505    0.4156   24.2582 C   0  0  0  0  0  0  0  0  0  0  0  0
    8.3608    0.8593   23.3452 O   0  0  0  0  0  0  0  0  0  0  0  0
    7.2295    1.2994   25.4640 C   0  0  0  0  0  0  0  0  0  0  0  0
    7.6598    2.6251   25.5193 C   0  0  0  0  0  0  0  0  0  0  0  0
    7.2320    3.4140   26.6045 C   0  0  0  0  0  0  0  0  0  0  0  0
    6.4022    2.8566   27.5985 C   0  0  0  0  0  0  0  0  0  0  0  0
    6.0538    3.8198   28.6190 C   0  0  0  0  0  0  0  0  0  0  0  0
    6.6050    5.0291   28.3847 C   0  0  0  0  0  0  0  0  0  0  0  0
    7.5658    5.0858   26.9422 S   0  0  0  0  0  0  0  0  0  0  0  0
    6.5112    5.9380   28.9633 H   0  0  0  0  0  0  0  0  0  0  0  0
    5.4167    3.6030   29.4697 H   0  0  0  0  0  0  0  0  0  0  0  0
    6.0447    1.4951   27.4503 C   0  0  0  0  0  0  0  0  0  0  0  0
    6.4348    0.7491   26.4265 N   0  0  0  0  0  0  0  0  0  0  0  0
    5.4149    1.0023   28.1888 H   0  0  0  0  0  0  0  0  0  0  0  0
    8.2947    3.0101   24.7311 H   0  0  0  0  0  0  0  0  0  0  0  0
    6.6017   -1.1484   24.9749 H   0  0  0  0  0  0  0  0  0  0  0  0
    7.2755   -2.8056   23.4447 H   0  0  0  0  0  0  0  0  0  0  0  0
    8.6289   -1.7518   22.9701 H   0  0  0  0  0  0  0  0  0  0  0  0
    7.4085   -0.5955   20.9776 N   0  0  0  0  0  0  0  0  0  0  0  0
    6.7139   -0.0215   19.8614 C   0  0  0  0  0  0  0  0  0  0  0  0
    5.4792    0.5898   20.0909 C   0  0  0  0  0  0  0  0  0  0  0  0
    4.8616    1.2713   19.0369 C   0  0  0  0  0  0  0  0  0  0  0  0
    5.4844    1.2819   17.7842 C   0  0  0  0  0  0  0  0  0  0  0  0
    6.6450    0.6504   17.5316 N   0  0  0  0  0  0  0  0  0  0  0  0
    7.2442    0.0203   18.5540 C   0  0  0  0  0  0  0  0  0  0  0  0
    8.1983   -0.4633   18.3494 H   0  0  0  0  0  0  0  0  0  0  0  0
    5.0371    1.8201   16.9514 H   0  0  0  0  0  0  0  0  0  0  0  0
    3.9313    1.8083   19.1856 H   0  0  0  0  0  0  0  0  0  0  0  0
    5.0438    0.5309   21.0904 H   0  0  0  0  0  0  0  0  0  0  0  0
    7.9072    0.0809   21.5534 H   0  0  0  0  0  0  0  0  0  0  0  0
  1  2  2  0
  2  3  1  0
  3  4  1  0
  4  5  1  0
  5  6  2  0
  5  7  1  0
  7  8  2  0
  8  9  1  0
  9 10  2  0
 10 11  1  0
 11 12  2  0
 12 13  1  0
 12 14  1  0
 11 15  1  0
 10 16  1  0
 16 17  2  0
 16 18  1  0
  8 19  1  0
  4 20  1  0
  3 21  1  0
  3 22  1  0
  2 23  1  0
 23 24  1  0
 24 25  2  0
 25 26  1  0
 26 27  2  0
 27 28  1  0
 28 29  2  0
 29 30  1  0
 27 31  1  0
 26 32  1  0
 25 33  1  0
 23 34  1  0
 17  7  1  0
 29 24  1  0
 13  9  1  0
M  END
>  <cnnaffinity>  (1) 
-5.10544

>  <filename>  (1) 
[H]c1nc([H])c(N([H])C(=O)C([H])([H])N([H])C(=O)c2nc([H])c3c([H])c([H])sc3c2[H])c([H])c1[H]

$$$$
