
     RDKit          3D

 45 48  0  0  0  0  0  0  0  0999 V2000
    3.1424   -5.0353   25.6019 C   0  0  0  0  0  0  0  0  0  0  0  0
    4.3499   -4.1818   25.2907 C   0  0  0  0  0  0  0  0  0  0  0  0
    5.5113   -4.7444   24.9030 C   0  0  0  0  0  0  0  0  0  0  0  0
    6.7102   -3.9818   24.5712 C   0  0  0  0  0  0  0  0  0  0  0  0
    7.7335   -4.5004   24.1417 O   0  0  0  0  0  0  0  0  0  0  0  0
    6.6282   -2.5848   24.7622 N   0  0  0  0  0  0  0  0  0  0  0  0
    7.7901   -1.7896   24.3311 C   0  0  0  0  0  0  0  0  0  0  0  0
    7.7960   -1.3995   22.8666 C   0  0  0  0  0  0  0  0  0  0  0  0
    6.9167   -0.6431   22.2379 N   0  0  0  0  0  0  0  0  0  0  0  0
    7.3629   -0.6302   20.9584 C   0  0  0  0  0  0  0  0  0  0  0  0
    6.6585    0.0402   19.8838 C   0  0  0  0  0  0  0  0  0  0  0  0
    5.4361    0.6711   20.1305 C   0  0  0  0  0  0  0  0  0  0  0  0
    4.8093    1.3100   19.0705 C   0  0  0  0  0  0  0  0  0  0  0  0
    5.4233    1.2873   17.8128 C   0  0  0  0  0  0  0  0  0  0  0  0
    6.5845    0.6594   17.5633 N   0  0  0  0  0  0  0  0  0  0  0  0
    7.1911    0.0496   18.5856 C   0  0  0  0  0  0  0  0  0  0  0  0
    8.1368   -0.4459   18.3546 H   0  0  0  0  0  0  0  0  0  0  0  0
    4.9584    1.7993   16.9752 H   0  0  0  0  0  0  0  0  0  0  0  0
    3.8740    1.8342   19.2222 H   0  0  0  0  0  0  0  0  0  0  0  0
    5.0252    0.6446   21.1424 H   0  0  0  0  0  0  0  0  0  0  0  0
    8.4867   -1.2868   20.7690 N   0  0  0  0  0  0  0  0  0  0  0  0
    8.7485   -1.7947   21.9899 N   0  0  0  0  0  0  0  0  0  0  0  0
    9.9960   -2.5017   22.1372 C   0  0  0  0  0  0  0  0  0  0  0  0
   11.1327   -1.5725   22.4908 C   0  0  0  0  0  0  0  0  0  0  0  0
   12.2852   -2.2922   22.4394 F   0  0  0  0  0  0  0  0  0  0  0  0
   10.9295   -1.1074   23.7609 F   0  0  0  0  0  0  0  0  0  0  0  0
   11.2470   -0.7139   21.8273 H   0  0  0  0  0  0  0  0  0  0  0  0
    9.9312   -3.3101   22.8702 H   0  0  0  0  0  0  0  0  0  0  0  0
   10.1841   -2.9105   21.1521 H   0  0  0  0  0  0  0  0  0  0  0  0
    7.8453   -0.8789   24.9350 H   0  0  0  0  0  0  0  0  0  0  0  0
    8.6980   -2.3477   24.5597 H   0  0  0  0  0  0  0  0  0  0  0  0
    5.4167   -1.9524   25.0968 C   0  0  0  0  0  0  0  0  0  0  0  0
    5.3205   -0.5436   25.0947 C   0  0  0  0  0  0  0  0  0  0  0  0
    4.1246    0.0946   25.3872 C   0  0  0  0  0  0  0  0  0  0  0  0
    2.9796   -0.6609   25.6860 C   0  0  0  0  0  0  0  0  0  0  0  0
    3.0433   -2.0433   25.6839 C   0  0  0  0  0  0  0  0  0  0  0  0
    4.2552   -2.7229   25.3826 C   0  0  0  0  0  0  0  0  0  0  0  0
    2.1447   -2.6247   25.8810 H   0  0  0  0  0  0  0  0  0  0  0  0
    2.0383   -0.1593   25.8909 H   0  0  0  0  0  0  0  0  0  0  0  0
    4.0755    1.1808   25.3478 H   0  0  0  0  0  0  0  0  0  0  0  0
    6.1489    0.0459   24.7201 H   0  0  0  0  0  0  0  0  0  0  0  0
    5.6378   -5.8128   24.7789 H   0  0  0  0  0  0  0  0  0  0  0  0
    3.3756   -6.1031   25.5291 H   0  0  0  0  0  0  0  0  0  0  0  0
    2.3159   -4.8263   24.9103 H   0  0  0  0  0  0  0  0  0  0  0  0
    2.7892   -4.8333   26.6195 H   0  0  0  0  0  0  0  0  0  0  0  0
  1  2  1  0
  2  3  2  0
  3  4  1  0
  4  5  2  0
  4  6  1  0
  6  7  1  0
  7  8  1  0
  8  9  2  0
  9 10  1  0
 10 11  1  0
 11 12  2  0
 12 13  1  0
 13 14  2  0
 14 15  1  0
 15 16  2  0
 16 17  1  0
 14 18  1  0
 13 19  1  0
 12 20  1  0
 10 21  2  0
 21 22  1  0
 22 23  1  0
 23 24  1  0
 24 25  1  0
 24 26  1  0
 24 27  1  0
 23 28  1  0
 23 29  1  0
  7 30  1  0
  7 31  1  0
  6 32  1  0
 32 33  2  0
 33 34  1  0
 34 35  2  0
 35 36  1  0
 36 37  2  0
 36 38  1  0
 35 39  1  0
 34 40  1  0
 33 41  1  0
  3 42  1  0
  1 43  1  0
  1 44  1  0
  1 45  1  0
 37  2  1  0
 22  8  1  0
 37 32  1  0
 16 11  1  0
M  END
>  <cnnaffinity>  (1) 
-5.9826

>  <filename>  (1) 
[H]c1nc([H])c(-c2nc(C([H])([H])n3c(=O)c([H])c(C([H])([H])[H])c4c([H])c([H])c([H])c([H])c43)n(C([H])([H])C([H])(F)F)n2)c([H])c1[H]

$$$$
