
     RDKit          3D

 30 32  0  0  0  0  0  0  0  0999 V2000
   10.2470   -2.0898   24.3043 H   0  0  0  0  0  0  0  0  0  0  0  0
    9.3859   -2.6299   23.9123 C   0  0  0  0  0  0  0  0  0  0  0  0
    9.0926   -3.8460   24.4377 C   0  0  0  0  0  0  0  0  0  0  0  0
   10.1218   -4.6890   25.6206 S   0  0  0  0  0  0  0  0  0  0  0  0
    8.7802   -5.8172   26.0592 C   0  0  0  0  0  0  0  0  0  0  0  0
    8.7874   -6.6940   26.8642 O   0  0  0  0  0  0  0  0  0  0  0  0
    7.6872   -5.5223   25.2969 N   0  0  0  0  0  0  0  0  0  0  0  0
    6.8863   -6.1298   25.2854 H   0  0  0  0  0  0  0  0  0  0  0  0
    7.8163   -4.6228   24.2955 C   0  0  0  0  0  0  0  0  0  0  0  0
    6.9483   -4.5631   23.4458 O   0  0  0  0  0  0  0  0  0  0  0  0
    8.6585   -1.8463   22.9213 C   0  0  0  0  0  0  0  0  0  0  0  0
    8.7493   -0.4878   22.8458 C   0  0  0  0  0  0  0  0  0  0  0  0
    9.3537    0.1049   23.5137 H   0  0  0  0  0  0  0  0  0  0  0  0
    7.9181    0.2599   21.9333 C   0  0  0  0  0  0  0  0  0  0  0  0
    7.7132    1.4533   22.0103 O   0  0  0  0  0  0  0  0  0  0  0  0
    7.3495   -0.5257   20.8772 N   0  0  0  0  0  0  0  0  0  0  0  0
    6.6873    0.1143   19.7669 C   0  0  0  0  0  0  0  0  0  0  0  0
    7.1853    0.0914   18.4462 C   0  0  0  0  0  0  0  0  0  0  0  0
    8.1213   -0.4215   18.2344 H   0  0  0  0  0  0  0  0  0  0  0  0
    6.5660    0.6843   17.4166 N   0  0  0  0  0  0  0  0  0  0  0  0
    5.4135    1.3244   17.6779 C   0  0  0  0  0  0  0  0  0  0  0  0
    4.9383    1.8199   16.8346 H   0  0  0  0  0  0  0  0  0  0  0  0
    4.8327    1.3755   18.9484 C   0  0  0  0  0  0  0  0  0  0  0  0
    3.9048    1.9081   19.1036 H   0  0  0  0  0  0  0  0  0  0  0  0
    5.4741    0.7434   20.0163 C   0  0  0  0  0  0  0  0  0  0  0  0
    5.0747    0.7418   21.0318 H   0  0  0  0  0  0  0  0  0  0  0  0
    6.9650   -1.8246   21.1871 C   0  0  0  0  0  0  0  0  0  0  0  0
    6.0096   -2.4069   20.7328 O   0  0  0  0  0  0  0  0  0  0  0  0
    7.8229   -2.4814   22.0271 N   0  0  0  0  0  0  0  0  0  0  0  0
    7.3791   -3.3557   22.2951 H   0  0  0  0  0  0  0  0  0  0  0  0
  1  2  1  0
  2  3  2  3
  3  4  1  0
  4  5  1  0
  5  6  2  0
  5  7  1  0
  7  8  1  0
  7  9  1  0
  9 10  2  0
  2 11  1  0
 11 12  2  0
 12 13  1  0
 12 14  1  0
 14 15  2  0
 14 16  1  0
 16 17  1  0
 17 18  2  0
 18 19  1  0
 18 20  1  0
 20 21  2  0
 21 22  1  0
 21 23  1  0
 23 24  1  0
 23 25  2  0
 25 26  1  0
 16 27  1  0
 27 28  2  0
 27 29  1  0
 29 30  1  0
  9  3  1  0
 29 11  1  0
 25 17  1  0
M  END
>  <cnnaffinity>  (1) 
-5.1732

>  <filename>  (1) 
[H]C(=C1SC(=O)N([H])C1=O)c1c([H])c(=O)n(-c2c([H])nc([H])c([H])c2[H])c(=O)n1[H]

$$$$
