
     RDKit          3D

 31 33  0  0  0  0  0  0  0  0999 V2000
   10.0894   -1.5121   22.8206 H   0  0  0  0  0  0  0  0  0  0  0  0
    9.0951   -1.3403   22.4188 C   0  0  0  0  0  0  0  0  0  0  0  0
    7.9381   -1.8037   22.9281 C   0  0  0  0  0  0  0  0  0  0  0  0
    7.6926   -2.4945   24.1916 C   0  0  0  0  0  0  0  0  0  0  0  0
    8.8024   -2.7916   24.8939 N   0  0  0  0  0  0  0  0  0  0  0  0
    8.6409   -3.4427   26.0389 C   0  0  0  0  0  0  0  0  0  0  0  0
    9.5460   -3.6948   26.5934 H   0  0  0  0  0  0  0  0  0  0  0  0
    7.3849   -3.7979   26.5250 C   0  0  0  0  0  0  0  0  0  0  0  0
    7.2792   -4.3279   27.4590 H   0  0  0  0  0  0  0  0  0  0  0  0
    6.2844   -3.4318   25.7415 C   0  0  0  0  0  0  0  0  0  0  0  0
    4.8494   -3.8099   26.2432 C   0  0  0  0  0  0  0  0  0  0  0  0
    4.6069   -3.2664   27.4544 F   0  0  0  0  0  0  0  0  0  0  0  0
    4.7342   -5.1453   26.4059 F   0  0  0  0  0  0  0  0  0  0  0  0
    3.8662   -3.4253   25.4322 F   0  0  0  0  0  0  0  0  0  0  0  0
    6.4465   -2.7816   24.5828 N   0  0  0  0  0  0  0  0  0  0  0  0
    6.8583   -1.5705   21.9558 C   0  0  0  0  0  0  0  0  0  0  0  0
    5.7882   -2.1148   21.8570 O   0  0  0  0  0  0  0  0  0  0  0  0
    7.4190   -0.6710   21.0006 N   0  0  0  0  0  0  0  0  0  0  0  0
    6.7085   -0.0143   19.9544 C   0  0  0  0  0  0  0  0  0  0  0  0
    7.2104    0.0465   18.6279 C   0  0  0  0  0  0  0  0  0  0  0  0
    8.1546   -0.4378   18.3800 H   0  0  0  0  0  0  0  0  0  0  0  0
    6.5902    0.6511   17.6064 N   0  0  0  0  0  0  0  0  0  0  0  0
    5.4257    1.2677   17.8665 C   0  0  0  0  0  0  0  0  0  0  0  0
    4.9530    1.7723   17.0269 H   0  0  0  0  0  0  0  0  0  0  0  0
    4.8359    1.2792   19.1336 C   0  0  0  0  0  0  0  0  0  0  0  0
    3.8998    1.8110   19.2806 H   0  0  0  0  0  0  0  0  0  0  0  0
    5.4735    0.6201   20.1923 C   0  0  0  0  0  0  0  0  0  0  0  0
    5.0226    0.5887   21.1822 H   0  0  0  0  0  0  0  0  0  0  0  0
    8.8726   -0.6515   21.1168 C   0  0  0  0  0  0  0  0  0  0  0  0
    9.3131    0.3560   21.0997 H   0  0  0  0  0  0  0  0  0  0  0  0
    9.3568   -1.2099   20.2987 H   0  0  0  0  0  0  0  0  0  0  0  0
  1  2  1  0
  2  3  2  0
  3  4  1  0
  4  5  2  0
  5  6  1  0
  6  7  1  0
  6  8  2  0
  8  9  1  0
  8 10  1  0
 10 11  1  0
 11 12  1  0
 11 13  1  0
 11 14  1  0
 10 15  2  0
  3 16  1  0
 16 17  2  0
 16 18  1  0
 18 19  1  0
 19 20  2  0
 20 21  1  0
 20 22  1  0
 22 23  2  0
 23 24  1  0
 23 25  1  0
 25 26  1  0
 25 27  2  0
 27 28  1  0
 18 29  1  0
 29 30  1  0
 29 31  1  0
 29  2  1  0
 15  4  1  0
 27 19  1  0
M  END
>  <cnnaffinity>  (1) 
-5.34353

>  <filename>  (1) 
[H]C1=C(c2nc([H])c([H])c(C(F)(F)F)n2)C(=O)N(c2c([H])nc([H])c([H])c2[H])C1([H])[H]

$$$$
