
     RDKit          3D

 55 59  0  0  0  0  0  0  0  0999 V2000
   12.8835    5.3854   22.5176 C   0  0  0  0  0  0  0  0  0  0  0  0
   12.6785    3.8900   22.5414 C   0  0  0  0  0  0  0  0  0  0  0  0
   11.3799    3.3223   22.4448 C   0  0  0  0  0  0  0  0  0  0  0  0
   11.1467    1.9433   22.4673 C   0  0  0  0  0  0  0  0  0  0  0  0
    9.8162    1.3465   22.3504 C   0  0  0  0  0  0  0  0  0  0  0  0
    9.4879    0.3303   21.5613 N   0  0  0  0  0  0  0  0  0  0  0  0
    8.1453    0.2510   21.7065 C   0  0  0  0  0  0  0  0  0  0  0  0
    7.3194   -0.7081   20.8917 C   0  0  0  0  0  0  0  0  0  0  0  0
    6.5880   -0.0760   19.7090 C   0  0  0  0  0  0  0  0  0  0  0  0
    5.4022    0.6335   19.9249 C   0  0  0  0  0  0  0  0  0  0  0  0
    4.8177    1.3253   18.8635 C   0  0  0  0  0  0  0  0  0  0  0  0
    5.4370    1.2808   17.6131 C   0  0  0  0  0  0  0  0  0  0  0  0
    6.5523    0.5745   17.3697 N   0  0  0  0  0  0  0  0  0  0  0  0
    7.1009   -0.0863   18.3967 C   0  0  0  0  0  0  0  0  0  0  0  0
    8.0155   -0.6412   18.1707 H   0  0  0  0  0  0  0  0  0  0  0  0
    5.0283    1.8458   16.7736 H   0  0  0  0  0  0  0  0  0  0  0  0
    3.9209    1.9192   19.0009 H   0  0  0  0  0  0  0  0  0  0  0  0
    4.9609    0.6561   20.9236 H   0  0  0  0  0  0  0  0  0  0  0  0
    8.0074   -1.4824   20.5455 H   0  0  0  0  0  0  0  0  0  0  0  0
    6.6028   -1.1822   21.5709 H   0  0  0  0  0  0  0  0  0  0  0  0
    7.6333    1.0875   22.5900 N   0  0  0  0  0  0  0  0  0  0  0  0
    8.7176    1.7882   23.0129 N   0  0  0  0  0  0  0  0  0  0  0  0
    8.6225    2.7882   24.0893 C   0  0  0  0  0  0  0  0  0  0  0  0
    7.8052    4.0325   23.6658 C   0  0  0  0  0  0  0  0  0  0  0  0
    7.1419    4.7539   24.8553 C   0  0  0  0  0  0  0  0  0  0  0  0
    7.9649    4.6552   26.1406 N   0  0  0  0  0  4  0  0  0  0  0  0
    9.1310    5.6018   26.0821 C   0  0  0  0  0  0  0  0  0  0  0  0
    8.7838    6.6223   25.8789 H   0  0  0  0  0  0  0  0  0  0  0  0
    9.6954    5.5954   27.0210 H   0  0  0  0  0  0  0  0  0  0  0  0
    9.8151    5.3155   25.2747 H   0  0  0  0  0  0  0  0  0  0  0  0
    8.3678    3.2202   26.5175 C   0  0  0  0  0  0  0  0  0  0  0  0
    8.0567    2.2178   25.3994 C   0  0  0  0  0  0  0  0  0  0  0  0
    6.9733    2.0722   25.2887 H   0  0  0  0  0  0  0  0  0  0  0  0
    8.5039    1.2488   25.6324 H   0  0  0  0  0  0  0  0  0  0  0  0
    7.8828    2.9420   27.4593 H   0  0  0  0  0  0  0  0  0  0  0  0
    9.4507    3.2237   26.6923 H   0  0  0  0  0  0  0  0  0  0  0  0
    7.3397    4.9734   26.9020 H   0  0  0  0  0  0  0  0  0  0  0  0
    6.1646    4.3056   25.0634 H   0  0  0  0  0  0  0  0  0  0  0  0
    6.9767    5.8128   24.6299 H   0  0  0  0  0  0  0  0  0  0  0  0
    7.0126    3.7043   22.9864 H   0  0  0  0  0  0  0  0  0  0  0  0
    8.4553    4.7239   23.1159 H   0  0  0  0  0  0  0  0  0  0  0  0
    9.6524    3.0924   24.2971 H   0  0  0  0  0  0  0  0  0  0  0  0
   12.2813    1.1028   22.5398 C   0  0  0  0  0  0  0  0  0  0  0  0
   12.4347   -0.2442   22.4567 N   0  0  0  0  0  0  0  0  0  0  0  0
   13.7368   -0.6046   22.3675 N   0  0  0  0  0  0  0  0  0  0  0  0
   14.4267    0.5128   22.4569 C   0  0  0  0  0  0  0  0  0  0  0  0
   13.5784    1.6471   22.6100 C   0  0  0  0  0  0  0  0  0  0  0  0
   13.7755    3.0531   22.6472 C   0  0  0  0  0  0  0  0  0  0  0  0
   14.7722    3.4857   22.6599 H   0  0  0  0  0  0  0  0  0  0  0  0
   15.4913    0.5186   22.2976 H   0  0  0  0  0  0  0  0  0  0  0  0
   11.6880   -0.9134   22.2981 H   0  0  0  0  0  0  0  0  0  0  0  0
   10.5343    3.9892   22.2887 H   0  0  0  0  0  0  0  0  0  0  0  0
   12.0178    5.9174   22.9189 H   0  0  0  0  0  0  0  0  0  0  0  0
   13.0584    5.7627   21.5031 H   0  0  0  0  0  0  0  0  0  0  0  0
   13.7486    5.6837   23.1187 H   0  0  0  0  0  0  0  0  0  0  0  0
  1  2  1  0
  2  3  2  0
  3  4  1  0
  4  5  1  0
  5  6  2  0
  6  7  1  0
  7  8  1  0
  8  9  1  0
  9 10  2  0
 10 11  1  0
 11 12  2  0
 12 13  1  0
 13 14  2  0
 14 15  1  0
 12 16  1  0
 11 17  1  0
 10 18  1  0
  8 19  1  0
  8 20  1  0
  7 21  2  0
 21 22  1  0
 22 23  1  0
 23 24  1  0
 24 25  1  0
 25 26  1  0
 26 27  1  0
 27 28  1  0
 27 29  1  0
 27 30  1  0
 26 31  1  0
 31 32  1  0
 32 33  1  0
 32 34  1  0
 31 35  1  0
 31 36  1  0
 26 37  1  0
 25 38  1  0
 25 39  1  0
 24 40  1  0
 24 41  1  0
 23 42  1  0
  4 43  2  0
 43 44  1  0
 44 45  1  0
 45 46  2  0
 46 47  1  0
 47 48  2  0
 48 49  1  0
 46 50  1  0
 44 51  1  0
  3 52  1  0
  1 53  1  0
  1 54  1  0
  1 55  1  0
 48  2  1  0
 22  5  1  0
 32 23  1  0
 47 43  1  0
 14  9  1  0
M  CHG  1  26   1
M  END
>  <cnnaffinity>  (1) 
-6.42888

>  <filename>  (1) 
[H]c1nc([H])c(C([H])([H])c2nc(-c3c([H])c(C([H])([H])[H])c([H])c4c([H])nn([H])c34)n(C3([H])C([H])([H])C([H])([H])[N+]([H])(C([H])([H])[H])C([H])([H])C3([H])[H])n2)c([H])c1[H]

$$$$
