
     RDKit          3D

 29 31  0  0  0  0  0  0  0  0999 V2000
    4.9614    1.8153   16.9900 H   0  0  0  0  0  0  0  0  0  0  0  0
    5.4103    1.2976   17.8318 C   0  0  0  0  0  0  0  0  0  0  0  0
    6.5785    0.6828   17.5881 N   0  0  0  0  0  0  0  0  0  0  0  0
    7.1845    0.0723   18.6134 C   0  0  0  0  0  0  0  0  0  0  0  0
    8.1440   -0.3986   18.3954 H   0  0  0  0  0  0  0  0  0  0  0  0
    6.6502    0.0323   19.9241 C   0  0  0  0  0  0  0  0  0  0  0  0
    7.3104   -0.6615   21.0030 N   0  0  0  0  0  0  0  0  0  0  0  0
    7.6431   -1.9994   21.0226 C   0  0  0  0  0  0  0  0  0  0  0  0
    7.3882   -2.6695   20.2253 H   0  0  0  0  0  0  0  0  0  0  0  0
    8.1675   -2.3479   22.1582 N   0  0  0  0  0  0  0  0  0  0  0  0
    8.1523   -1.2419   22.9688 N   0  0  0  0  0  0  0  0  0  0  0  0
    7.6282   -0.2548   22.2913 C   0  0  0  0  0  0  0  0  0  0  0  0
    7.3441    1.0603   22.8556 C   0  0  0  0  0  0  0  0  0  0  0  0
    6.8701    1.1312   24.1762 C   0  0  0  0  0  0  0  0  0  0  0  0
    6.7224    0.2265   24.7585 H   0  0  0  0  0  0  0  0  0  0  0  0
    6.5710    2.2766   24.7734 N   0  0  0  0  0  0  0  0  0  0  0  0
    6.7526    3.4232   24.0899 C   0  0  0  0  0  0  0  0  0  0  0  0
    6.4645    4.7655   24.7704 C   0  0  0  0  0  0  0  0  0  0  0  0
    5.5760    5.4833   24.0501 F   0  0  0  0  0  0  0  0  0  0  0  0
    7.5857    5.5177   24.8238 F   0  0  0  0  0  0  0  0  0  0  0  0
    5.9885    4.6668   26.0118 F   0  0  0  0  0  0  0  0  0  0  0  0
    7.2202    3.4541   22.7618 C   0  0  0  0  0  0  0  0  0  0  0  0
    7.3457    4.3946   22.2307 H   0  0  0  0  0  0  0  0  0  0  0  0
    7.5104    2.2525   22.1411 C   0  0  0  0  0  0  0  0  0  0  0  0
    7.8321    2.2100   21.1054 H   0  0  0  0  0  0  0  0  0  0  0  0
    5.4181    0.6587   20.1532 C   0  0  0  0  0  0  0  0  0  0  0  0
    4.9912    0.6562   21.1584 H   0  0  0  0  0  0  0  0  0  0  0  0
    4.7890    1.3047   19.0855 C   0  0  0  0  0  0  0  0  0  0  0  0
    3.8458    1.8265   19.2171 H   0  0  0  0  0  0  0  0  0  0  0  0
  1  2  1  0
  2  3  2  0
  3  4  1  0
  4  5  1  0
  4  6  2  0
  6  7  1  0
  7  8  1  0
  8  9  1  0
  8 10  2  0
 10 11  1  0
 11 12  2  0
 12 13  1  0
 13 14  2  0
 14 15  1  0
 14 16  1  0
 16 17  2  0
 17 18  1  0
 18 19  1  0
 18 20  1  0
 18 21  1  0
 17 22  1  0
 22 23  1  0
 22 24  2  0
 24 25  1  0
  6 26  1  0
 26 27  1  0
 26 28  2  0
 28 29  1  0
 28  2  1  0
 12  7  1  0
 24 13  1  0
M  END
>  <cnnaffinity>  (1) 
-5.13242

>  <filename>  (1) 
[H]c1nc([H])c(-n2c([H])nnc2-c2c([H])nc(C(F)(F)F)c([H])c2[H])c([H])c1[H]

$$$$
