
     RDKit          3D

 33 35  0  0  0  0  0  0  0  0999 V2000
   14.3334    5.9593   22.3333 C   0  0  0  0  0  0  0  0  0  0  0  0
   13.1574    5.0551   22.3112 C   0  0  0  0  0  0  0  0  0  0  0  0
   13.1589    3.8852   21.7772 N   0  0  0  0  0  0  0  0  0  0  0  0
   11.8608    3.4204   21.9394 C   0  0  0  0  0  0  0  0  0  0  0  0
   11.2344    2.2341   21.5217 C   0  0  0  0  0  0  0  0  0  0  0  0
    9.8676    2.0942   21.7756 C   0  0  0  0  0  0  0  0  0  0  0  0
    9.2217    0.9110   21.3379 N   0  0  0  0  0  0  0  0  0  0  0  0
    8.1025    0.3184   21.8932 C   0  0  0  0  0  0  0  0  0  0  0  0
    7.6488    0.5927   22.9815 O   0  0  0  0  0  0  0  0  0  0  0  0
    7.4117   -0.7267   20.9174 C   0  0  0  0  0  0  0  0  0  0  0  0
    6.6236   -1.5696   21.6255 F   0  0  0  0  0  0  0  0  0  0  0  0
    8.4053   -1.5077   20.3587 F   0  0  0  0  0  0  0  0  0  0  0  0
    6.6206   -0.0641   19.8089 C   0  0  0  0  0  0  0  0  0  0  0  0
    5.4337    0.6266   20.0863 C   0  0  0  0  0  0  0  0  0  0  0  0
    4.8204    1.3188   19.0442 C   0  0  0  0  0  0  0  0  0  0  0  0
    5.4147    1.2989   17.7787 C   0  0  0  0  0  0  0  0  0  0  0  0
    6.5323    0.6142   17.4975 N   0  0  0  0  0  0  0  0  0  0  0  0
    7.1065   -0.0641   18.4925 C   0  0  0  0  0  0  0  0  0  0  0  0
    7.9868   -0.6468   18.2291 H   0  0  0  0  0  0  0  0  0  0  0  0
    4.9715    1.8554   16.9567 H   0  0  0  0  0  0  0  0  0  0  0  0
    3.9061    1.8784   19.2022 H   0  0  0  0  0  0  0  0  0  0  0  0
    5.0041    0.6139   21.0882 H   0  0  0  0  0  0  0  0  0  0  0  0
    9.7135    0.3789   20.6381 H   0  0  0  0  0  0  0  0  0  0  0  0
    9.1438    3.1227   22.4076 C   0  0  0  0  0  0  0  0  0  0  0  0
    9.7733    4.2952   22.8492 C   0  0  0  0  0  0  0  0  0  0  0  0
   11.1350    4.4093   22.6072 C   0  0  0  0  0  0  0  0  0  0  0  0
   11.9768    5.4611   22.8609 O   0  0  0  0  0  0  0  0  0  0  0  0
    9.2250    5.0927   23.3286 H   0  0  0  0  0  0  0  0  0  0  0  0
    8.0782    2.9835   22.5345 H   0  0  0  0  0  0  0  0  0  0  0  0
   11.8019    1.4529   21.0283 H   0  0  0  0  0  0  0  0  0  0  0  0
   14.6895    6.0966   21.3126 H   0  0  0  0  0  0  0  0  0  0  0  0
   15.1407    5.4527   22.8648 H   0  0  0  0  0  0  0  0  0  0  0  0
   14.1317    6.9368   22.7751 H   0  0  0  0  0  0  0  0  0  0  0  0
  1  2  1  0
  2  3  2  0
  3  4  1  0
  4  5  2  0
  5  6  1  0
  6  7  1  0
  7  8  1  0
  8  9  2  0
  8 10  1  0
 10 11  1  0
 10 12  1  0
 10 13  1  0
 13 14  2  0
 14 15  1  0
 15 16  2  0
 16 17  1  0
 17 18  2  0
 18 19  1  0
 16 20  1  0
 15 21  1  0
 14 22  1  0
  7 23  1  0
  6 24  2  0
 24 25  1  0
 25 26  2  0
 26 27  1  0
 25 28  1  0
 24 29  1  0
  5 30  1  0
  1 31  1  0
  1 32  1  0
  1 33  1  0
 27  2  1  0
 26  4  1  0
 18 13  1  0
M  END
>  <cnnaffinity>  (1) 
-5.41467

>  <filename>  (1) 
[H]c1nc([H])c(C(F)(F)C(=O)N([H])c2c([H])c([H])c3oc(C([H])([H])[H])nc3c2[H])c([H])c1[H]

$$$$
