
     RDKit          3D

 43 45  0  0  0  0  0  0  0  0999 V2000
    5.7051    0.1321   24.3673 F   0  0  0  0  0  0  0  0  0  0  0  0
    5.7281   -0.9947   25.1216 C   0  0  0  0  0  0  0  0  0  0  0  0
    6.4121   -0.6735   26.2423 F   0  0  0  0  0  0  0  0  0  0  0  0
    4.4556   -1.2350   25.4797 F   0  0  0  0  0  0  0  0  0  0  0  0
    6.3996   -2.1697   24.4245 C   0  0  0  0  0  0  0  0  0  0  0  0
    5.7339   -3.3956   24.2980 C   0  0  0  0  0  0  0  0  0  0  0  0
    6.4305   -4.5380   23.8929 C   0  0  0  0  0  0  0  0  0  0  0  0
    7.7925   -4.4513   23.5936 C   0  0  0  0  0  0  0  0  0  0  0  0
    8.4383   -3.2158   23.6478 C   0  0  0  0  0  0  0  0  0  0  0  0
    7.7511   -2.0503   24.0227 C   0  0  0  0  0  0  0  0  0  0  0  0
    8.4822   -0.7228   24.0372 C   0  0  0  0  0  0  0  0  0  0  0  0
    9.5367   -0.5959   25.1596 C   0  0  0  0  0  0  0  0  0  0  0  0
   10.7358    0.1501   24.5312 C   0  0  0  0  0  0  0  0  0  0  0  0
   10.2561    0.6224   23.1415 C   0  0  0  0  0  0  0  0  0  0  0  0
    9.2181   -0.4046   22.7170 C   0  0  0  0  0  0  0  0  0  0  0  0
    8.3074    0.1260   21.6458 N   0  0  0  0  0  4  0  0  0  0  0  0
    7.3309   -0.7935   20.9956 C   0  0  0  0  0  0  0  0  0  0  0  0
    6.6285   -0.0004   19.9236 C   0  0  0  0  0  0  0  0  0  0  0  0
    5.4164    0.6696   20.1437 C   0  0  0  0  0  0  0  0  0  0  0  0
    4.8075    1.3397   19.0823 C   0  0  0  0  0  0  0  0  0  0  0  0
    5.4394    1.3438   17.8378 C   0  0  0  0  0  0  0  0  0  0  0  0
    6.6140    0.7340   17.6099 N   0  0  0  0  0  0  0  0  0  0  0  0
    7.1828    0.0928   18.6365 C   0  0  0  0  0  0  0  0  0  0  0  0
    8.1359   -0.3912   18.4100 H   0  0  0  0  0  0  0  0  0  0  0  0
    4.9821    1.8498   16.9872 H   0  0  0  0  0  0  0  0  0  0  0  0
    3.8624    1.8625   19.2010 H   0  0  0  0  0  0  0  0  0  0  0  0
    4.9663    0.6881   21.1420 H   0  0  0  0  0  0  0  0  0  0  0  0
    6.6163   -1.1802   21.7300 H   0  0  0  0  0  0  0  0  0  0  0  0
    7.8471   -1.6588   20.5613 H   0  0  0  0  0  0  0  0  0  0  0  0
    8.8523    0.5865   20.8836 H   0  0  0  0  0  0  0  0  0  0  0  0
    7.7340    0.8875   22.0891 H   0  0  0  0  0  0  0  0  0  0  0  0
    9.7291   -1.3063   22.3543 H   0  0  0  0  0  0  0  0  0  0  0  0
    9.7737    1.6056   23.2269 H   0  0  0  0  0  0  0  0  0  0  0  0
   11.0780    0.7043   22.4212 H   0  0  0  0  0  0  0  0  0  0  0  0
   11.5754   -0.5400   24.4180 H   0  0  0  0  0  0  0  0  0  0  0  0
   11.0972    0.9737   25.1570 H   0  0  0  0  0  0  0  0  0  0  0  0
    9.1023   -0.0728   26.0198 H   0  0  0  0  0  0  0  0  0  0  0  0
    9.8436   -1.5863   25.5179 H   0  0  0  0  0  0  0  0  0  0  0  0
    7.7764    0.0979   24.1619 H   0  0  0  0  0  0  0  0  0  0  0  0
    9.4986   -3.1609   23.4047 H   0  0  0  0  0  0  0  0  0  0  0  0
    8.3517   -5.3380   23.3069 H   0  0  0  0  0  0  0  0  0  0  0  0
    5.9211   -5.4941   23.8393 H   0  0  0  0  0  0  0  0  0  0  0  0
    4.6752   -3.4636   24.5430 H   0  0  0  0  0  0  0  0  0  0  0  0
  1  2  1  0
  2  3  1  0
  2  4  1  0
  2  5  1  0
  5  6  2  0
  6  7  1  0
  7  8  2  0
  8  9  1  0
  9 10  2  0
 10 11  1  0
 11 12  1  0
 12 13  1  0
 13 14  1  0
 14 15  1  0
 15 16  1  0
 16 17  1  0
 17 18  1  0
 18 19  2  0
 19 20  1  0
 20 21  2  0
 21 22  1  0
 22 23  2  0
 23 24  1  0
 21 25  1  0
 20 26  1  0
 19 27  1  0
 17 28  1  0
 17 29  1  0
 16 30  1  0
 16 31  1  0
 15 32  1  0
 14 33  1  0
 14 34  1  0
 13 35  1  0
 13 36  1  0
 12 37  1  0
 12 38  1  0
 11 39  1  0
  9 40  1  0
  8 41  1  0
  7 42  1  0
  6 43  1  0
 10  5  1  0
 15 11  1  0
 23 18  1  0
M  CHG  1  16   1
M  END
>  <cnnaffinity>  (1) 
-5.48865

>  <filename>  (1) 
[H]c1nc([H])c(C([H])([H])[N+]([H])([H])C2([H])C([H])([H])C([H])([H])C([H])([H])C2([H])c2c([H])c([H])c([H])c([H])c2C(F)(F)F)c([H])c1[H]

$$$$
