
     RDKit          3D

 25 26  0  0  0  0  0  0  0  0999 V2000
    4.9687    1.8327   17.0049 H   0  0  0  0  0  0  0  0  0  0  0  0
    5.4215    1.2974   17.8378 C   0  0  0  0  0  0  0  0  0  0  0  0
    6.5633    0.6371   17.5810 N   0  0  0  0  0  0  0  0  0  0  0  0
    7.1621   -0.0147   18.5913 C   0  0  0  0  0  0  0  0  0  0  0  0
    8.0829   -0.5398   18.3387 H   0  0  0  0  0  0  0  0  0  0  0  0
    6.6628   -0.0340   19.9135 C   0  0  0  0  0  0  0  0  0  0  0  0
    7.3099   -0.7401   20.9892 N   0  0  0  0  0  0  0  0  0  0  0  0
    8.6118   -0.6567   21.4884 C   0  0  0  0  0  0  0  0  0  0  0  0
    9.9408    0.3283   20.8798 S   0  0  0  0  0  0  0  0  0  0  0  0
    9.7796    1.8082   21.9460 C   0  0  0  0  0  0  0  0  0  0  0  0
    9.8827    1.5278   22.9994 H   0  0  0  0  0  0  0  0  0  0  0  0
   10.6626    2.4117   21.6890 H   0  0  0  0  0  0  0  0  0  0  0  0
    8.4755    2.5368   21.6541 C   0  0  0  0  0  0  0  0  0  0  0  0
    8.4211    3.4961   22.1848 H   0  0  0  0  0  0  0  0  0  0  0  0
    7.6098    1.9156   21.9253 H   0  0  0  0  0  0  0  0  0  0  0  0
    8.4245    2.7204   20.5809 H   0  0  0  0  0  0  0  0  0  0  0  0
    8.7852   -1.4767   22.4931 N   0  0  0  0  0  0  0  0  0  0  0  0
    7.5855   -2.0938   22.7009 C   0  0  0  0  0  0  0  0  0  0  0  0
    7.4850   -2.8439   23.4751 H   0  0  0  0  0  0  0  0  0  0  0  0
    6.6597   -1.6472   21.8103 C   0  0  0  0  0  0  0  0  0  0  0  0
    5.6103   -1.8835   21.7136 H   0  0  0  0  0  0  0  0  0  0  0  0
    5.4586    0.6421   20.1558 C   0  0  0  0  0  0  0  0  0  0  0  0
    5.0347    0.6642   21.1624 H   0  0  0  0  0  0  0  0  0  0  0  0
    4.8274    1.3113   19.1024 C   0  0  0  0  0  0  0  0  0  0  0  0
    3.8958    1.8446   19.2499 H   0  0  0  0  0  0  0  0  0  0  0  0
  1  2  1  0
  2  3  2  0
  3  4  1  0
  4  5  1  0
  4  6  2  0
  6  7  1  0
  7  8  1  0
  8  9  1  0
  9 10  1  0
 10 11  1  0
 10 12  1  0
 10 13  1  0
 13 14  1  0
 13 15  1  0
 13 16  1  0
  8 17  2  0
 17 18  1  0
 18 19  1  0
 18 20  2  0
 20 21  1  0
  6 22  1  0
 22 23  1  0
 22 24  2  0
 24 25  1  0
 24  2  1  0
 20  7  1  0
M  END
>  <cnnaffinity>  (1) 
-4.52029

>  <filename>  (1) 
[H]c1nc([H])c(-n2c(SC([H])([H])C([H])([H])[H])nc([H])c2[H])c([H])c1[H]

$$$$
