
     RDKit          3D

 35 37  0  0  0  0  0  0  0  0999 V2000
    5.5218   -2.0408   28.2429 F   0  0  0  0  0  0  0  0  0  0  0  0
    5.4804   -3.3810   28.0949 C   0  0  0  0  0  0  0  0  0  0  0  0
    4.3547   -3.6634   27.4079 F   0  0  0  0  0  0  0  0  0  0  0  0
    5.3457   -3.8995   29.3270 F   0  0  0  0  0  0  0  0  0  0  0  0
    6.7110   -3.8882   27.3792 C   0  0  0  0  0  0  0  0  0  0  0  0
    7.6454   -4.7068   28.0349 C   0  0  0  0  0  0  0  0  0  0  0  0
    8.8160   -5.0763   27.3736 C   0  0  0  0  0  0  0  0  0  0  0  0
    9.0117   -4.7237   26.0389 C   0  0  0  0  0  0  0  0  0  0  0  0
    8.0408   -3.9712   25.3608 C   0  0  0  0  0  0  0  0  0  0  0  0
    8.1576   -3.7373   23.9170 C   0  0  0  0  0  0  0  0  0  0  0  0
    9.0263   -4.1875   23.0758 N   0  0  0  0  0  0  0  0  0  0  0  0
    8.6569   -3.7004   21.8302 N   0  0  0  0  0  0  0  0  0  0  0  0
    7.5953   -2.9964   22.0168 C   0  0  0  0  0  0  0  0  0  0  0  0
    6.8453   -2.1580   21.0604 C   0  0  0  0  0  0  0  0  0  0  0  0
    7.3534   -0.6976   20.9938 C   0  0  0  0  0  0  0  0  0  0  0  0
    6.6548    0.0598   19.8911 C   0  0  0  0  0  0  0  0  0  0  0  0
    5.4285    0.7052   20.1159 C   0  0  0  0  0  0  0  0  0  0  0  0
    4.7858    1.3408   19.0534 C   0  0  0  0  0  0  0  0  0  0  0  0
    5.3922    1.3125   17.7954 C   0  0  0  0  0  0  0  0  0  0  0  0
    6.5538    0.6902   17.5461 N   0  0  0  0  0  0  0  0  0  0  0  0
    7.1597    0.0857   18.5777 C   0  0  0  0  0  0  0  0  0  0  0  0
    8.1092   -0.4000   18.3399 H   0  0  0  0  0  0  0  0  0  0  0  0
    4.9218    1.8095   16.9508 H   0  0  0  0  0  0  0  0  0  0  0  0
    3.8428    1.8612   19.1894 H   0  0  0  0  0  0  0  0  0  0  0  0
    4.9858    0.7202   21.1137 H   0  0  0  0  0  0  0  0  0  0  0  0
    8.4392   -0.6928   20.8274 H   0  0  0  0  0  0  0  0  0  0  0  0
    7.1882   -0.1953   21.9561 H   0  0  0  0  0  0  0  0  0  0  0  0
    6.9409   -2.6198   20.0807 H   0  0  0  0  0  0  0  0  0  0  0  0
    5.7897   -2.1654   21.3419 H   0  0  0  0  0  0  0  0  0  0  0  0
    7.2082   -2.9755   23.3108 O   0  0  0  0  0  0  0  0  0  0  0  0
    6.9185   -3.4992   26.0507 C   0  0  0  0  0  0  0  0  0  0  0  0
    6.2115   -2.8418   25.5468 H   0  0  0  0  0  0  0  0  0  0  0  0
    9.8839   -5.0666   25.4944 H   0  0  0  0  0  0  0  0  0  0  0  0
    9.5843   -5.6281   27.9057 H   0  0  0  0  0  0  0  0  0  0  0  0
    7.4660   -5.0644   29.0491 H   0  0  0  0  0  0  0  0  0  0  0  0
  1  2  1  0
  2  3  1  0
  2  4  1  0
  2  5  1  0
  5  6  2  0
  6  7  1  0
  7  8  2  0
  8  9  1  0
  9 10  1  0
 10 11  2  0
 11 12  1  0
 12 13  2  0
 13 14  1  0
 14 15  1  0
 15 16  1  0
 16 17  2  0
 17 18  1  0
 18 19  2  0
 19 20  1  0
 20 21  2  0
 21 22  1  0
 19 23  1  0
 18 24  1  0
 17 25  1  0
 15 26  1  0
 15 27  1  0
 14 28  1  0
 14 29  1  0
 13 30  1  0
  9 31  2  0
 31 32  1  0
  8 33  1  0
  7 34  1  0
  6 35  1  0
 31  5  1  0
 30 10  1  0
 21 16  1  0
M  END
>  <cnnaffinity>  (1) 
-4.88655

>  <filename>  (1) 
[H]c1nc([H])c(C([H])([H])C([H])([H])c2nnc(-c3c([H])c([H])c([H])c(C(F)(F)F)c3[H])o2)c([H])c1[H]

$$$$
