
     RDKit          3D

 33 36  0  0  0  0  0  0  0  0999 V2000
    4.9851    1.7880   16.9086 H   0  0  0  0  0  0  0  0  0  0  0  0
    5.4014    1.3154   17.7975 C   0  0  0  0  0  0  0  0  0  0  0  0
    6.5510    0.6442   17.6217 N   0  0  0  0  0  0  0  0  0  0  0  0
    7.0844    0.0575   18.7014 C   0  0  0  0  0  0  0  0  0  0  0  0
    8.0197   -0.4807   18.5458 H   0  0  0  0  0  0  0  0  0  0  0  0
    6.5271    0.0982   19.9937 C   0  0  0  0  0  0  0  0  0  0  0  0
    7.1980   -0.5834   21.1626 C   0  0  0  0  0  0  0  0  0  0  0  0
    8.0788    0.2499   22.0286 C   0  0  0  0  0  0  0  0  0  0  0  0
    7.7262    1.0583   22.9757 N   0  0  0  0  0  0  0  0  0  0  0  0
    8.8989    1.5717   23.5134 N   0  0  0  0  0  0  0  0  0  0  0  0
    9.8624    1.0092   22.8646 C   0  0  0  0  0  0  0  0  0  0  0  0
   11.3071    1.1765   22.9727 C   0  0  0  0  0  0  0  0  0  0  0  0
   11.8845    2.3788   23.4048 C   0  0  0  0  0  0  0  0  0  0  0  0
   11.1032    3.3545   23.8697 F   0  0  0  0  0  0  0  0  0  0  0  0
   13.2606    2.5967   23.3602 C   0  0  0  0  0  0  0  0  0  0  0  0
   13.6687    3.5393   23.6958 H   0  0  0  0  0  0  0  0  0  0  0  0
   14.0841    1.5952   22.8460 C   0  0  0  0  0  0  0  0  0  0  0  0
   15.1443    1.7702   22.6985 H   0  0  0  0  0  0  0  0  0  0  0  0
   13.5559    0.3738   22.4420 C   0  0  0  0  0  0  0  0  0  0  0  0
   14.1864   -0.4046   22.0367 H   0  0  0  0  0  0  0  0  0  0  0  0
   12.1849    0.1720   22.5293 C   0  0  0  0  0  0  0  0  0  0  0  0
   11.6958   -1.0130   22.1503 F   0  0  0  0  0  0  0  0  0  0  0  0
    9.4202    0.1546   21.9092 O   0  0  0  0  0  0  0  0  0  0  0  0
    7.5537   -2.0398   20.9937 C   0  0  0  0  0  0  0  0  0  0  0  0
    7.1952   -2.4883   20.0742 H   0  0  0  0  0  0  0  0  0  0  0  0
    8.5190   -2.3791   21.3601 H   0  0  0  0  0  0  0  0  0  0  0  0
    6.4707   -1.6597   21.9481 C   0  0  0  0  0  0  0  0  0  0  0  0
    5.4374   -1.8657   21.6850 H   0  0  0  0  0  0  0  0  0  0  0  0
    6.6820   -1.6919   23.0158 H   0  0  0  0  0  0  0  0  0  0  0  0
    5.3328    0.8104   20.1506 C   0  0  0  0  0  0  0  0  0  0  0  0
    4.8771    0.8698   21.1402 H   0  0  0  0  0  0  0  0  0  0  0  0
    4.7523    1.4191   19.0331 C   0  0  0  0  0  0  0  0  0  0  0  0
    3.8217    1.9729   19.1043 H   0  0  0  0  0  0  0  0  0  0  0  0
  1  2  1  0
  2  3  2  0
  3  4  1  0
  4  5  1  0
  4  6  2  0
  6  7  1  0
  7  8  1  0
  8  9  2  0
  9 10  1  0
 10 11  2  0
 11 12  1  0
 12 13  2  0
 13 14  1  0
 13 15  1  0
 15 16  1  0
 15 17  2  0
 17 18  1  0
 17 19  1  0
 19 20  1  0
 19 21  2  0
 21 22  1  0
 11 23  1  0
  7 24  1  0
 24 25  1  0
 24 26  1  0
 24 27  1  0
 27 28  1  0
 27 29  1  0
  6 30  1  0
 30 31  1  0
 30 32  2  0
 32 33  1  0
 32  2  1  0
 27  7  1  0
 23  8  1  0
 21 12  1  0
M  END
>  <cnnaffinity>  (1) 
-5.95048

>  <filename>  (1) 
[H]c1nc([H])c(C2(c3nnc(-c4c(F)c([H])c([H])c([H])c4F)o3)C([H])([H])C2([H])[H])c([H])c1[H]

$$$$
