
     RDKit          3D

 29 31  0  0  0  0  0  0  0  0999 V2000
    6.1625   -2.5670   21.0373 H   0  0  0  0  0  0  0  0  0  0  0  0
    6.6431   -1.8174   21.6587 C   0  0  0  0  0  0  0  0  0  0  0  0
    6.5201   -1.6599   22.9866 C   0  0  0  0  0  0  0  0  0  0  0  0
    5.7455   -2.4873   23.9165 C   0  0  0  0  0  0  0  0  0  0  0  0
    4.8751   -3.8868   23.3616 S   0  0  0  0  0  0  0  0  0  0  0  0
    4.1059   -4.0816   24.8895 C   0  0  0  0  0  0  0  0  0  0  0  0
    3.0221   -5.3911   25.1546 Cl  0  0  0  0  0  0  0  0  0  0  0  0
    4.4889   -3.1351   25.7932 C   0  0  0  0  0  0  0  0  0  0  0  0
    4.0951   -3.1026   26.8046 H   0  0  0  0  0  0  0  0  0  0  0  0
    5.4107   -2.2068   25.2200 C   0  0  0  0  0  0  0  0  0  0  0  0
    5.7862   -1.3135   25.7138 H   0  0  0  0  0  0  0  0  0  0  0  0
    7.1130   -0.3338   23.4272 C   0  0  0  0  0  0  0  0  0  0  0  0
    6.2956    0.3342   23.7313 H   0  0  0  0  0  0  0  0  0  0  0  0
    7.7622   -0.4297   24.3083 H   0  0  0  0  0  0  0  0  0  0  0  0
    7.8440    0.2003   22.1702 C   0  0  0  0  0  0  0  0  0  0  0  0
    8.9254    0.1549   22.3231 H   0  0  0  0  0  0  0  0  0  0  0  0
    7.5961    1.2430   21.9445 H   0  0  0  0  0  0  0  0  0  0  0  0
    7.4321   -0.7250   20.9845 C   0  0  2  0  0  0  0  0  0  0  0  0
    8.3157   -1.1786   20.5134 H   0  0  0  0  0  0  0  0  0  0  0  0
    6.6615   -0.0172   19.8622 C   0  0  0  0  0  0  0  0  0  0  0  0
    7.1593    0.0536   18.5481 C   0  0  0  0  0  0  0  0  0  0  0  0
    8.1123   -0.4119   18.2968 H   0  0  0  0  0  0  0  0  0  0  0  0
    6.5499    0.6856   17.5357 N   0  0  0  0  0  0  0  0  0  0  0  0
    5.3929    1.3072   17.8044 C   0  0  0  0  0  0  0  0  0  0  0  0
    4.9202    1.8249   16.9697 H   0  0  0  0  0  0  0  0  0  0  0  0
    4.8014    1.3113   19.0734 C   0  0  0  0  0  0  0  0  0  0  0  0
    3.8708    1.8505   19.2326 H   0  0  0  0  0  0  0  0  0  0  0  0
    5.4498    0.6392   20.1119 C   0  0  0  0  0  0  0  0  0  0  0  0
    5.0268    0.6280   21.1193 H   0  0  0  0  0  0  0  0  0  0  0  0
  1  2  1  0
  2  3  2  0
  3  4  1  0
  4  5  1  0
  5  6  1  0
  6  7  1  0
  6  8  2  0
  8  9  1  0
  8 10  1  0
 10 11  1  0
  3 12  1  0
 12 13  1  0
 12 14  1  0
 12 15  1  0
 15 16  1  0
 15 17  1  0
 15 18  1  0
 18 19  1  6
 18 20  1  0
 20 21  2  0
 21 22  1  0
 21 23  1  0
 23 24  2  0
 24 25  1  0
 24 26  1  0
 26 27  1  0
 26 28  2  0
 28 29  1  0
 18  2  1  0
 28 20  1  0
 10  4  2  0
M  END
>  <cnnaffinity>  (1) 
-4.95013

>  <filename>  (1) 
[H]C1=C(c2sc(Cl)c([H])c2[H])C([H])([H])C([H])([H])[C@]1([H])c1c([H])nc([H])c([H])c1[H]

$$$$
