
     RDKit          3D

 33 36  0  0  0  0  0  0  0  0999 V2000
    4.8416    1.2687   19.1342 C   0  0  0  0  0  0  0  0  0  0  0  0
    5.4694    1.2436   17.8853 C   0  0  0  0  0  0  0  0  0  0  0  0
    6.6242    0.5945   17.6598 N   0  0  0  0  0  0  0  0  0  0  0  0
    7.1904   -0.0555   18.6852 C   0  0  0  0  0  0  0  0  0  0  0  0
    6.6443   -0.0693   19.9774 C   0  0  0  0  0  0  0  0  0  0  0  0
    7.2882   -0.7870   21.0372 N   0  0  0  0  0  0  0  0  0  0  0  0
    6.8081   -2.0047   21.3363 N   0  0  0  0  0  0  0  0  0  0  0  0
    7.6023   -2.4618   22.2879 C   0  0  0  0  0  0  0  0  0  0  0  0
    8.6186   -1.5591   22.6191 C   0  0  0  0  0  0  0  0  0  0  0  0
    8.3818   -0.4621   21.8222 C   0  0  0  0  0  0  0  0  0  0  0  0
    9.0541    0.8277   21.7502 C   0  0  0  0  0  0  0  0  0  0  0  0
    8.6629    1.6995   20.8208 N   0  0  0  0  0  0  0  0  0  0  0  0
    9.5012    2.7131   20.9479 N   0  0  0  0  0  0  0  0  0  0  0  0
   10.4595    2.5272   21.8734 C   0  0  0  0  0  0  0  0  0  0  0  0
   10.1578    1.3425   22.4914 C   0  0  0  0  0  0  0  0  0  0  0  0
   10.9246    0.9556   23.7425 C   0  0  0  0  0  0  0  0  0  0  0  0
   11.6618    2.0660   24.2653 O   0  0  0  0  0  0  0  0  0  0  0  0
   12.4610    2.7665   23.3142 C   0  0  0  0  0  0  0  0  0  0  0  0
   11.6048    3.4276   22.2181 C   0  0  0  0  0  0  0  0  0  0  0  0
   12.2329    3.6362   21.3441 H   0  0  0  0  0  0  0  0  0  0  0  0
   11.2147    4.3789   22.5911 H   0  0  0  0  0  0  0  0  0  0  0  0
   12.9992    3.5438   23.8682 H   0  0  0  0  0  0  0  0  0  0  0  0
   13.2010    2.0846   22.8663 H   0  0  0  0  0  0  0  0  0  0  0  0
   10.2518    0.6555   24.5574 H   0  0  0  0  0  0  0  0  0  0  0  0
   11.6085    0.1140   23.5357 H   0  0  0  0  0  0  0  0  0  0  0  0
    9.3393    3.5339   20.3776 H   0  0  0  0  0  0  0  0  0  0  0  0
    9.4431   -1.7026   23.2960 H   0  0  0  0  0  0  0  0  0  0  0  0
    7.4224   -3.4283   22.7288 H   0  0  0  0  0  0  0  0  0  0  0  0
    5.4368    0.5950   20.2059 C   0  0  0  0  0  0  0  0  0  0  0  0
    4.9830    0.5937   21.1973 H   0  0  0  0  0  0  0  0  0  0  0  0
    8.1270   -0.5695   18.4730 H   0  0  0  0  0  0  0  0  0  0  0  0
    5.0178    1.7512   17.0344 H   0  0  0  0  0  0  0  0  0  0  0  0
    3.9114    1.8129   19.2629 H   0  0  0  0  0  0  0  0  0  0  0  0
  1  2  2  0
  2  3  1  0
  3  4  2  0
  4  5  1  0
  5  6  1  0
  6  7  1  0
  7  8  2  0
  8  9  1  0
  9 10  2  0
 10 11  1  0
 11 12  2  0
 12 13  1  0
 13 14  1  0
 14 15  2  0
 15 16  1  0
 16 17  1  0
 17 18  1  0
 18 19  1  0
 19 20  1  0
 19 21  1  0
 18 22  1  0
 18 23  1  0
 16 24  1  0
 16 25  1  0
 13 26  1  0
  9 27  1  0
  8 28  1  0
  5 29  2  0
 29 30  1  0
  4 31  1  0
  2 32  1  0
  1 33  1  0
 29  1  1  0
 10  6  1  0
 15 11  1  0
 19 14  1  0
M  END
>  <cnnaffinity>  (1) 
-5.39255

>  <filename>  (1) 
[H]c1nc([H])c(-n2nc([H])c([H])c2-c2nn([H])c3c2C([H])([H])OC([H])([H])C3([H])[H])c([H])c1[H]

$$$$
