
     RDKit          3D

 33 35  0  0  0  0  0  0  0  0999 V2000
   11.3674   -2.0726   23.1147 H   0  0  0  0  0  0  0  0  0  0  0  0
   10.9203   -1.0941   22.9703 C   0  0  0  0  0  0  0  0  0  0  0  0
    9.6134   -1.0557   22.7255 N   0  0  0  0  0  0  0  0  0  0  0  0
    9.0976    0.1497   22.4552 C   0  0  0  0  0  0  0  0  0  0  0  0
    7.6707    0.1843   22.0646 C   0  0  2  0  0  0  0  0  0  0  0  0
    7.4217    1.2303   21.8910 H   0  0  0  0  0  0  0  0  0  0  0  0
    6.9541   -0.2942   23.2870 C   0  0  0  0  0  0  0  0  0  0  0  0
    6.8020    0.2873   24.3396 O   0  0  0  0  0  0  0  0  0  0  0  0
    6.4937   -1.5355   23.0179 N   0  0  0  0  0  0  0  0  0  0  0  0
    5.8261   -1.8663   23.6984 H   0  0  0  0  0  0  0  0  0  0  0  0
    6.5060   -1.9244   21.6189 C   0  0  0  0  0  0  0  0  0  0  0  0
    7.0277   -2.8796   21.4998 H   0  0  0  0  0  0  0  0  0  0  0  0
    5.4916   -2.0502   21.2125 H   0  0  0  0  0  0  0  0  0  0  0  0
    7.2792   -0.7822   20.9056 C   0  0  1  0  0  0  0  0  0  0  0  0
    8.1827   -1.2133   20.4503 H   0  0  0  0  0  0  0  0  0  0  0  0
    6.5349   -0.0727   19.8002 C   0  0  0  0  0  0  0  0  0  0  0  0
    7.0810   -0.0032   18.5062 C   0  0  0  0  0  0  0  0  0  0  0  0
    8.0153   -0.5254   18.2920 H   0  0  0  0  0  0  0  0  0  0  0  0
    6.5422    0.6717   17.4866 N   0  0  0  0  0  0  0  0  0  0  0  0
    5.3975    1.3305   17.7281 C   0  0  0  0  0  0  0  0  0  0  0  0
    4.9743    1.8769   16.8874 H   0  0  0  0  0  0  0  0  0  0  0  0
    4.7552    1.3184   18.9698 C   0  0  0  0  0  0  0  0  0  0  0  0
    3.8400    1.8812   19.1017 H   0  0  0  0  0  0  0  0  0  0  0  0
    5.3275    0.6041   20.0233 C   0  0  0  0  0  0  0  0  0  0  0  0
    4.8701    0.5969   21.0141 H   0  0  0  0  0  0  0  0  0  0  0  0
    9.7631    1.2916   22.4604 N   0  0  0  0  0  0  0  0  0  0  0  0
   11.0798    1.2576   22.7241 C   0  0  0  0  0  0  0  0  0  0  0  0
   11.8310    2.6087   22.6397 C   0  0  0  0  0  0  0  0  0  0  0  0
   13.0362    2.5314   23.2419 F   0  0  0  0  0  0  0  0  0  0  0  0
   12.0543    2.9600   21.3619 F   0  0  0  0  0  0  0  0  0  0  0  0
   11.1569    3.6142   23.2147 F   0  0  0  0  0  0  0  0  0  0  0  0
   11.7176    0.0475   22.9987 C   0  0  0  0  0  0  0  0  0  0  0  0
   12.7651   -0.0226   23.2536 H   0  0  0  0  0  0  0  0  0  0  0  0
  1  2  1  0
  2  3  2  0
  3  4  1  0
  4  5  1  0
  5  6  1  6
  5  7  1  0
  7  8  2  0
  7  9  1  0
  9 10  1  0
  9 11  1  0
 11 12  1  0
 11 13  1  0
 11 14  1  0
 14 15  1  6
 14 16  1  0
 16 17  2  0
 17 18  1  0
 17 19  1  0
 19 20  2  0
 20 21  1  0
 20 22  1  0
 22 23  1  0
 22 24  2  0
 24 25  1  0
  4 26  2  0
 26 27  1  0
 27 28  1  0
 28 29  1  0
 28 30  1  0
 28 31  1  0
 27 32  2  0
 32 33  1  0
 32  2  1  0
 14  5  1  0
 24 16  1  0
M  END
>  <cnnaffinity>  (1) 
-5.5087

>  <filename>  (1) 
[H]c1nc([C@]2([H])C(=O)N([H])C([H])([H])[C@@]2([H])c2c([H])nc([H])c([H])c2[H])nc(C(F)(F)F)c1[H]

$$$$
