
     RDKit          3D

 37 39  0  0  0  0  0  0  0  0999 V2000
    8.3491   -0.0099   25.4818 O   0  0  0  0  0  0  0  0  0  0  0  0
    7.4645   -0.5132   24.8151 C   0  0  0  0  0  0  0  0  0  0  0  0
    7.7453   -1.0881   23.4068 C   0  0  0  0  0  0  0  0  0  0  0  0
    7.1896   -0.3621   22.2470 N   0  0  0  0  0  0  0  0  0  0  0  0
    7.4155   -0.7499   20.9534 C   0  0  0  0  0  0  0  0  0  0  0  0
    8.1550   -1.6667   20.6404 O   0  0  0  0  0  0  0  0  0  0  0  0
    6.6574    0.0481   19.9478 C   0  0  0  0  0  0  0  0  0  0  0  0
    5.4282    0.6881   20.1816 C   0  0  0  0  0  0  0  0  0  0  0  0
    4.7980    1.3187   19.1126 C   0  0  0  0  0  0  0  0  0  0  0  0
    5.4093    1.2853   17.8544 C   0  0  0  0  0  0  0  0  0  0  0  0
    6.5725    0.6619   17.6189 N   0  0  0  0  0  0  0  0  0  0  0  0
    7.1731    0.0606   18.6499 C   0  0  0  0  0  0  0  0  0  0  0  0
    8.1082   -0.4485   18.4240 H   0  0  0  0  0  0  0  0  0  0  0  0
    4.9525    1.7746   16.9946 H   0  0  0  0  0  0  0  0  0  0  0  0
    3.8594    1.8481   19.2361 H   0  0  0  0  0  0  0  0  0  0  0  0
    4.9388    0.6634   21.1586 H   0  0  0  0  0  0  0  0  0  0  0  0
    6.8251    0.5758   22.3167 H   0  0  0  0  0  0  0  0  0  0  0  0
    7.3719   -2.1199   23.3532 H   0  0  0  0  0  0  0  0  0  0  0  0
    8.8359   -1.1606   23.3418 H   0  0  0  0  0  0  0  0  0  0  0  0
    6.1664   -0.6168   25.2534 N   0  0  0  0  0  0  0  0  0  0  0  0
    5.7207   -0.1441   26.4963 C   0  0  0  0  0  0  0  0  0  0  0  0
    6.4331   -0.4647   27.6247 C   0  0  0  0  0  0  0  0  0  0  0  0
    5.9652   -0.0017   28.8751 C   0  0  0  0  0  0  0  0  0  0  0  0
    4.8875    0.7352   29.0393 N   0  0  0  0  0  0  0  0  0  0  0  0
    4.1729    1.0629   27.9181 C   0  0  0  0  0  0  0  0  0  0  0  0
    3.0107    1.8638   28.1083 C   0  0  0  0  0  0  0  0  0  0  0  0
    2.2459    2.2530   27.0342 C   0  0  0  0  0  0  0  0  0  0  0  0
    2.6180    1.8611   25.7184 C   0  0  0  0  0  0  0  0  0  0  0  0
    3.7340    1.0866   25.5006 C   0  0  0  0  0  0  0  0  0  0  0  0
    4.5375    0.6517   26.5980 C   0  0  0  0  0  0  0  0  0  0  0  0
    4.0333    0.8113   24.4922 H   0  0  0  0  0  0  0  0  0  0  0  0
    2.0104    2.1822   24.8793 H   0  0  0  0  0  0  0  0  0  0  0  0
    1.3588    2.8626   27.1855 H   0  0  0  0  0  0  0  0  0  0  0  0
    2.7892    2.1331   29.1370 H   0  0  0  0  0  0  0  0  0  0  0  0
    6.5223   -0.2476   29.7804 H   0  0  0  0  0  0  0  0  0  0  0  0
    7.3353   -1.0545   27.5438 H   0  0  0  0  0  0  0  0  0  0  0  0
    5.4788   -0.9625   24.6061 H   0  0  0  0  0  0  0  0  0  0  0  0
  1  2  2  0
  2  3  1  0
  3  4  1  0
  4  5  1  0
  5  6  2  0
  5  7  1  0
  7  8  2  0
  8  9  1  0
  9 10  2  0
 10 11  1  0
 11 12  2  0
 12 13  1  0
 10 14  1  0
  9 15  1  0
  8 16  1  0
  4 17  1  0
  3 18  1  0
  3 19  1  0
  2 20  1  0
 20 21  1  0
 21 22  2  0
 22 23  1  0
 23 24  2  0
 24 25  1  0
 25 26  2  0
 26 27  1  0
 27 28  2  0
 28 29  1  0
 29 30  2  0
 29 31  1  0
 28 32  1  0
 27 33  1  0
 26 34  1  0
 23 35  1  0
 22 36  1  0
 20 37  1  0
 12  7  1  0
 30 21  1  0
 30 25  1  0
M  END
>  <cnnaffinity>  (1) 
-4.9506

>  <filename>  (1) 
[H]c1nc([H])c(C(=O)N([H])C([H])([H])C(=O)N([H])c2c([H])c([H])nc3c([H])c([H])c([H])c([H])c23)c([H])c1[H]

$$$$
