
     RDKit          3D

 42 44  0  0  0  0  0  0  0  0999 V2000
    6.8040    1.0198   26.5310 C   0  0  0  0  0  0  0  0  0  0  0  0
    6.2525    1.7812   25.3369 C   0  0  0  0  0  0  0  0  0  0  0  0
    4.8319    1.7098   25.4507 O   0  0  0  0  0  0  0  0  0  0  0  0
    4.0227    2.2809   24.5151 C   0  0  0  0  0  0  0  0  0  0  0  0
    2.6481    2.0865   24.7202 C   0  0  0  0  0  0  0  0  0  0  0  0
    1.7248    2.5730   23.7921 C   0  0  0  0  0  0  0  0  0  0  0  0
    2.1654    3.2168   22.6278 C   0  0  0  0  0  0  0  0  0  0  0  0
    3.5300    3.4538   22.4622 C   0  0  0  0  0  0  0  0  0  0  0  0
    4.4632    3.0257   23.4129 C   0  0  0  0  0  0  0  0  0  0  0  0
    5.5122    3.2766   23.3014 H   0  0  0  0  0  0  0  0  0  0  0  0
    3.8898    3.9684   21.5723 H   0  0  0  0  0  0  0  0  0  0  0  0
    1.4551    3.5625   21.8787 H   0  0  0  0  0  0  0  0  0  0  0  0
    0.6609    2.4388   23.9721 H   0  0  0  0  0  0  0  0  0  0  0  0
    2.3534    1.5405   25.6113 H   0  0  0  0  0  0  0  0  0  0  0  0
    6.8445    1.2478   24.0346 C   0  0  0  0  0  0  0  0  0  0  0  0
    7.8676    1.8841   23.5302 N   0  0  0  0  0  0  0  0  0  0  0  0
    8.1731    1.1608   22.3947 O   0  0  0  0  0  0  0  0  0  0  0  0
    7.3153    0.1414   22.3244 C   0  0  0  0  0  0  0  0  0  0  0  0
    7.3799   -0.7339   21.0555 C   0  0  0  0  0  0  0  0  0  0  0  0
    8.8539   -1.0878   20.7457 C   0  0  0  0  0  0  0  0  0  0  0  0
    9.4524   -0.2108   20.4795 H   0  0  0  0  0  0  0  0  0  0  0  0
    8.9103   -1.7875   19.9103 H   0  0  0  0  0  0  0  0  0  0  0  0
    9.3256   -1.5817   21.6021 H   0  0  0  0  0  0  0  0  0  0  0  0
    6.5945   -2.0400   21.3098 C   0  0  0  0  0  0  0  0  0  0  0  0
    6.6160   -2.6744   20.4171 H   0  0  0  0  0  0  0  0  0  0  0  0
    5.5483   -1.8232   21.5484 H   0  0  0  0  0  0  0  0  0  0  0  0
    7.0284   -2.5995   22.1449 H   0  0  0  0  0  0  0  0  0  0  0  0
    6.6985    0.0145   19.8713 C   0  0  0  0  0  0  0  0  0  0  0  0
    5.4766    0.6664   20.1051 C   0  0  0  0  0  0  0  0  0  0  0  0
    4.8359    1.3286   19.0598 C   0  0  0  0  0  0  0  0  0  0  0  0
    5.4207    1.2993   17.7902 C   0  0  0  0  0  0  0  0  0  0  0  0
    6.5649    0.6574   17.5253 N   0  0  0  0  0  0  0  0  0  0  0  0
    7.1788    0.0373   18.5479 C   0  0  0  0  0  0  0  0  0  0  0  0
    8.1091   -0.4604   18.2801 H   0  0  0  0  0  0  0  0  0  0  0  0
    4.9443    1.8106   16.9558 H   0  0  0  0  0  0  0  0  0  0  0  0
    3.9099    1.8680   19.2227 H   0  0  0  0  0  0  0  0  0  0  0  0
    5.0481    0.6631   21.1109 H   0  0  0  0  0  0  0  0  0  0  0  0
    6.4813    0.1236   23.3404 N   0  0  0  0  0  0  0  0  0  0  0  0
    6.5481    2.8359   25.3840 H   0  0  0  0  0  0  0  0  0  0  0  0
    6.3231    1.3524   27.4548 H   0  0  0  0  0  0  0  0  0  0  0  0
    6.6050   -0.0471   26.3916 H   0  0  0  0  0  0  0  0  0  0  0  0
    7.8814    1.1803   26.6115 H   0  0  0  0  0  0  0  0  0  0  0  0
  1  2  1  0
  2  3  1  0
  3  4  1  0
  4  5  2  0
  5  6  1  0
  6  7  2  0
  7  8  1  0
  8  9  2  0
  9 10  1  0
  8 11  1  0
  7 12  1  0
  6 13  1  0
  5 14  1  0
  2 15  1  0
 15 16  2  0
 16 17  1  0
 17 18  1  0
 18 19  1  0
 19 20  1  0
 20 21  1  0
 20 22  1  0
 20 23  1  0
 19 24  1  0
 24 25  1  0
 24 26  1  0
 24 27  1  0
 19 28  1  0
 28 29  2  0
 29 30  1  0
 30 31  2  0
 31 32  1  0
 32 33  2  0
 33 34  1  0
 31 35  1  0
 30 36  1  0
 29 37  1  0
 18 38  2  0
  2 39  1  0
  1 40  1  0
  1 41  1  0
  1 42  1  0
  9  4  1  0
 38 15  1  0
 33 28  1  0
M  END
>  <cnnaffinity>  (1) 
-4.97637

>  <filename>  (1) 
[H]c1nc([H])c(C(c2nc(C([H])(Oc3c([H])c([H])c([H])c([H])c3[H])C([H])([H])[H])no2)(C([H])([H])[H])C([H])([H])[H])c([H])c1[H]

$$$$
