
     RDKit          3D

 40 41  0  0  0  0  0  0  0  0999 V2000
    5.1541    1.6795   17.0181 H   0  0  0  0  0  0  0  0  0  0  0  0
    5.6169    1.3192   17.9374 C   0  0  0  0  0  0  0  0  0  0  0  0
    6.8405    0.7839   17.8197 N   0  0  0  0  0  0  0  0  0  0  0  0
    7.4356    0.3562   18.9426 C   0  0  0  0  0  0  0  0  0  0  0  0
    8.4548   -0.0095   18.8244 H   0  0  0  0  0  0  0  0  0  0  0  0
    6.8335    0.3425   20.2154 C   0  0  0  0  0  0  0  0  0  0  0  0
    7.4780   -0.4612   21.3521 C   0  0  0  0  0  0  0  0  0  0  0  0
    8.9227   -0.2579   21.2300 N   0  0  0  0  0  0  0  0  0  0  0  0
    9.1713    0.7202   21.1855 H   0  0  0  0  0  0  0  0  0  0  0  0
    9.8753   -0.9640   21.9230 C   0  0  0  0  0  0  0  0  0  0  0  0
    9.6393   -1.9390   22.6101 O   0  0  0  0  0  0  0  0  0  0  0  0
   11.2863   -0.3806   21.7083 C   0  0  1  0  0  0  0  0  0  0  0  0
   11.3065   -0.0646   20.6743 H   0  0  0  0  0  0  0  0  0  0  0  0
   11.4234    0.8931   22.5335 C   0  0  0  0  0  0  0  0  0  0  0  0
   11.1230    0.8927   23.8998 C   0  0  0  0  0  0  0  0  0  0  0  0
   10.8637   -0.0492   24.3768 H   0  0  0  0  0  0  0  0  0  0  0  0
   11.1280    2.0808   24.6334 C   0  0  0  0  0  0  0  0  0  0  0  0
   10.8590    2.0496   25.6837 H   0  0  0  0  0  0  0  0  0  0  0  0
   11.4537    3.2908   24.0124 C   0  0  0  0  0  0  0  0  0  0  0  0
   11.4448    4.2115   24.5897 H   0  0  0  0  0  0  0  0  0  0  0  0
   11.7657    3.3054   22.6483 C   0  0  0  0  0  0  0  0  0  0  0  0
   12.0072    4.2416   22.1512 H   0  0  0  0  0  0  0  0  0  0  0  0
   11.7548    2.1120   21.9172 C   0  0  0  0  0  0  0  0  0  0  0  0
   12.0125    2.1418   20.8615 H   0  0  0  0  0  0  0  0  0  0  0  0
   12.4013   -1.4321   21.8295 C   0  0  0  0  0  0  0  0  0  0  0  0
   12.4507   -2.0077   20.8959 H   0  0  0  0  0  0  0  0  0  0  0  0
   12.1850   -2.1211   22.6463 H   0  0  0  0  0  0  0  0  0  0  0  0
   13.3828   -0.9738   21.9854 H   0  0  0  0  0  0  0  0  0  0  0  0
    7.0352    0.0226   22.7405 C   0  0  0  0  0  0  0  0  0  0  0  0
    7.1351    1.1097   22.8261 H   0  0  0  0  0  0  0  0  0  0  0  0
    7.6574   -0.4445   23.5086 H   0  0  0  0  0  0  0  0  0  0  0  0
    5.9957   -0.2458   22.9305 H   0  0  0  0  0  0  0  0  0  0  0  0
    7.1167   -1.9444   21.1506 C   0  0  0  0  0  0  0  0  0  0  0  0
    7.6544   -2.3120   20.2757 H   0  0  0  0  0  0  0  0  0  0  0  0
    6.0406   -2.0409   20.9608 H   0  0  0  0  0  0  0  0  0  0  0  0
    7.3931   -2.5618   22.0090 H   0  0  0  0  0  0  0  0  0  0  0  0
    5.5752    0.9562   20.3152 C   0  0  0  0  0  0  0  0  0  0  0  0
    5.0824    1.0677   21.2806 H   0  0  0  0  0  0  0  0  0  0  0  0
    4.9565    1.4467   19.1617 C   0  0  0  0  0  0  0  0  0  0  0  0
    3.9959    1.9474   19.2067 H   0  0  0  0  0  0  0  0  0  0  0  0
  1  2  1  0
  2  3  2  0
  3  4  1  0
  4  5  1  0
  4  6  2  0
  6  7  1  0
  7  8  1  0
  8  9  1  0
  8 10  1  0
 10 11  2  0
 10 12  1  0
 12 13  1  6
 12 14  1  0
 14 15  2  0
 15 16  1  0
 15 17  1  0
 17 18  1  0
 17 19  2  0
 19 20  1  0
 19 21  1  0
 21 22  1  0
 21 23  2  0
 23 24  1  0
 12 25  1  0
 25 26  1  0
 25 27  1  0
 25 28  1  0
  7 29  1  0
 29 30  1  0
 29 31  1  0
 29 32  1  0
  7 33  1  0
 33 34  1  0
 33 35  1  0
 33 36  1  0
  6 37  1  0
 37 38  1  0
 37 39  2  0
 39 40  1  0
 39  2  1  0
 23 14  1  0
M  END
>  <cnnaffinity>  (1) 
-5.36226

>  <filename>  (1) 
[H]c1nc([H])c(C(N([H])C(=O)[C@@]([H])(c2c([H])c([H])c([H])c([H])c2[H])C([H])([H])[H])(C([H])([H])[H])C([H])([H])[H])c([H])c1[H]

$$$$
