
     RDKit          3D

 31 34  0  0  0  0  0  0  0  0999 V2000
    4.9301    1.7818   16.9955 H   0  0  0  0  0  0  0  0  0  0  0  0
    5.4091    1.2904   17.8391 C   0  0  0  0  0  0  0  0  0  0  0  0
    6.5718    0.6690   17.5844 N   0  0  0  0  0  0  0  0  0  0  0  0
    7.1688    0.0426   18.6015 C   0  0  0  0  0  0  0  0  0  0  0  0
    8.1142   -0.4403   18.3720 H   0  0  0  0  0  0  0  0  0  0  0  0
    6.6547    0.0078   19.9078 C   0  0  0  0  0  0  0  0  0  0  0  0
    7.3740   -0.7159   20.9525 C   0  0  0  0  0  0  0  0  0  0  0  0
    7.9318   -1.9478   20.7584 N   0  0  0  0  0  0  0  0  0  0  0  0
    8.3724   -2.3396   21.9275 C   0  0  0  0  0  0  0  0  0  0  0  0
    8.8577   -3.2873   22.1437 H   0  0  0  0  0  0  0  0  0  0  0  0
    8.1556   -1.4063   22.8762 N   0  0  0  0  0  0  0  0  0  0  0  0
    8.4134   -1.4369   23.8510 H   0  0  0  0  0  0  0  0  0  0  0  0
    7.5447   -0.3325   22.2652 C   0  0  0  0  0  0  0  0  0  0  0  0
    7.2431    0.9000   22.9411 C   0  0  0  0  0  0  0  0  0  0  0  0
    7.0313    1.0090   24.2275 N   0  0  0  0  0  0  0  0  0  0  0  0
    6.8007    2.3534   24.4328 C   0  0  0  0  0  0  0  0  0  0  0  0
    6.5200    3.0509   25.6172 C   0  0  0  0  0  0  0  0  0  0  0  0
    6.4388    2.4924   26.5465 H   0  0  0  0  0  0  0  0  0  0  0  0
    6.3688    4.4354   25.5477 C   0  0  0  0  0  0  0  0  0  0  0  0
    6.1546    4.9976   26.4545 H   0  0  0  0  0  0  0  0  0  0  0  0
    6.4918    5.1295   24.3112 C   0  0  0  0  0  0  0  0  0  0  0  0
    6.3694    6.2118   24.2828 H   0  0  0  0  0  0  0  0  0  0  0  0
    6.7673    4.4529   23.1232 C   0  0  0  0  0  0  0  0  0  0  0  0
    6.8675    4.9573   22.1584 H   0  0  0  0  0  0  0  0  0  0  0  0
    6.9126    3.0687   23.2191 C   0  0  0  0  0  0  0  0  0  0  0  0
    7.1846    2.0981   22.2861 N   0  0  0  0  0  0  0  0  0  0  0  0
    7.3571    2.2256   21.3105 H   0  0  0  0  0  0  0  0  0  0  0  0
    5.4306    0.6521   20.1589 C   0  0  0  0  0  0  0  0  0  0  0  0
    4.9921    0.6411   21.1610 H   0  0  0  0  0  0  0  0  0  0  0  0
    4.8039    1.3079   19.1008 C   0  0  0  0  0  0  0  0  0  0  0  0
    3.8729    1.8412   19.2523 H   0  0  0  0  0  0  0  0  0  0  0  0
  1  2  1  0
  2  3  2  0
  3  4  1  0
  4  5  1  0
  4  6  2  0
  6  7  1  0
  7  8  1  0
  8  9  2  0
  9 10  1  0
  9 11  1  0
 11 12  1  0
 11 13  1  0
 13 14  1  0
 14 15  2  0
 15 16  1  0
 16 17  2  0
 17 18  1  0
 17 19  1  0
 19 20  1  0
 19 21  2  0
 21 22  1  0
 21 23  1  0
 23 24  1  0
 23 25  2  0
 25 26  1  0
 26 27  1  0
  6 28  1  0
 28 29  1  0
 28 30  2  0
 30 31  1  0
 30  2  1  0
 13  7  2  0
 26 14  1  0
 25 16  1  0
M  END
>  <cnnaffinity>  (1) 
-5.29816

>  <filename>  (1) 
[H]c1nc([H])c(-c2nc([H])n([H])c2-c2nc3c([H])c([H])c([H])c([H])c3n2[H])c([H])c1[H]

$$$$
