
     RDKit          3D

 49 53  0  0  0  0  0  0  0  0999 V2000
   14.5178    0.6037   22.5205 C   0  0  0  0  0  0  0  0  0  0  0  0
   13.3838    1.5864   22.7091 C   0  0  0  0  0  0  0  0  0  0  0  0
   13.6128    2.9333   22.8283 C   0  0  0  0  0  0  0  0  0  0  0  0
   12.5458    3.8082   22.9093 N   0  0  0  0  0  0  0  0  0  0  0  0
   12.5346    5.1794   23.0393 C   0  0  0  0  0  0  0  0  0  0  0  0
   11.2109    5.5360   22.9610 C   0  0  0  0  0  0  0  0  0  0  0  0
   10.4091    4.4387   22.8240 N   0  0  0  0  0  0  0  0  0  0  0  0
   11.2237    3.3932   22.8115 C   0  0  0  0  0  0  0  0  0  0  0  0
   10.9626    1.9812   22.7141 C   0  0  0  0  0  0  0  0  0  0  0  0
    9.6062    1.4691   22.5505 C   0  0  0  0  0  0  0  0  0  0  0  0
    9.2763    0.5757   21.6243 N   0  0  0  0  0  0  0  0  0  0  0  0
    7.9676    0.3432   21.8646 C   0  0  0  0  0  0  0  0  0  0  0  0
    7.1804   -0.5947   20.9932 C   0  0  0  0  0  0  0  0  0  0  0  0
    6.5363    0.0577   19.7736 C   0  0  0  0  0  0  0  0  0  0  0  0
    5.3790    0.8319   19.9247 C   0  0  0  0  0  0  0  0  0  0  0  0
    4.8199    1.4363   18.7982 C   0  0  0  0  0  0  0  0  0  0  0  0
    5.4410    1.2553   17.5592 C   0  0  0  0  0  0  0  0  0  0  0  0
    6.5570    0.5294   17.3901 N   0  0  0  0  0  0  0  0  0  0  0  0
    7.0826   -0.0471   18.4786 C   0  0  0  0  0  0  0  0  0  0  0  0
    7.9902   -0.6321   18.3159 H   0  0  0  0  0  0  0  0  0  0  0  0
    5.0250    1.7130   16.6642 H   0  0  0  0  0  0  0  0  0  0  0  0
    3.9232    2.0418   18.8671 H   0  0  0  0  0  0  0  0  0  0  0  0
    4.9308    0.9533   20.9138 H   0  0  0  0  0  0  0  0  0  0  0  0
    7.8804   -1.3728   20.6745 H   0  0  0  0  0  0  0  0  0  0  0  0
    6.4220   -1.0778   21.6197 H   0  0  0  0  0  0  0  0  0  0  0  0
    7.4754    0.9886   22.9060 N   0  0  0  0  0  0  0  0  0  0  0  0
    8.5321    1.7247   23.3449 N   0  0  0  0  0  0  0  0  0  0  0  0
    8.4583    2.5947   24.5428 C   0  0  0  0  0  0  0  0  0  0  0  0
    8.5431    1.8077   25.8519 C   0  0  0  0  0  0  0  0  0  0  0  0
    8.5433    2.5115   26.6928 H   0  0  0  0  0  0  0  0  0  0  0  0
    7.6990    1.1208   25.9721 H   0  0  0  0  0  0  0  0  0  0  0  0
    9.4692    1.2248   25.8875 H   0  0  0  0  0  0  0  0  0  0  0  0
    7.2444    3.5130   24.4801 C   0  0  0  0  0  0  0  0  0  0  0  0
    7.1897    4.6209   23.4661 C   0  0  0  0  0  0  0  0  0  0  0  0
    7.3711    4.9448   24.9165 C   0  0  0  0  0  0  0  0  0  0  0  0
    6.5526    5.4033   25.4595 H   0  0  0  0  0  0  0  0  0  0  0  0
    8.3526    5.2920   25.2302 H   0  0  0  0  0  0  0  0  0  0  0  0
    6.2352    4.8464   22.9977 H   0  0  0  0  0  0  0  0  0  0  0  0
    8.0538    4.7568   22.8189 H   0  0  0  0  0  0  0  0  0  0  0  0
    6.2979    3.0135   24.6869 H   0  0  0  0  0  0  0  0  0  0  0  0
    9.3456    3.2269   24.4898 H   0  0  0  0  0  0  0  0  0  0  0  0
   12.0379    1.1171   22.6653 C   0  0  0  0  0  0  0  0  0  0  0  0
   11.8267    0.0459   22.5786 H   0  0  0  0  0  0  0  0  0  0  0  0
   10.7948    6.5342   23.0226 H   0  0  0  0  0  0  0  0  0  0  0  0
   13.4470    5.7254   23.2128 H   0  0  0  0  0  0  0  0  0  0  0  0
   14.5922    3.3969   22.7865 H   0  0  0  0  0  0  0  0  0  0  0  0
   14.2691   -0.0814   21.7029 H   0  0  0  0  0  0  0  0  0  0  0  0
   15.4522    1.1018   22.2443 H   0  0  0  0  0  0  0  0  0  0  0  0
   14.7061   -0.0035   23.4138 H   0  0  0  0  0  0  0  0  0  0  0  0
  1  2  1  0
  2  3  2  0
  3  4  1  0
  4  5  1  0
  5  6  2  0
  6  7  1  0
  7  8  2  0
  8  9  1  0
  9 10  1  0
 10 11  2  0
 11 12  1  0
 12 13  1  0
 13 14  1  0
 14 15  2  0
 15 16  1  0
 16 17  2  0
 17 18  1  0
 18 19  2  0
 19 20  1  0
 17 21  1  0
 16 22  1  0
 15 23  1  0
 13 24  1  0
 13 25  1  0
 12 26  2  0
 26 27  1  0
 27 28  1  0
 28 29  1  0
 29 30  1  0
 29 31  1  0
 29 32  1  0
 28 33  1  0
 33 34  1  0
 34 35  1  0
 35 36  1  0
 35 37  1  0
 34 38  1  0
 34 39  1  0
 33 40  1  0
 28 41  1  0
  9 42  2  0
 42 43  1  0
  6 44  1  0
  5 45  1  0
  3 46  1  0
  1 47  1  0
  1 48  1  0
  1 49  1  0
 42  2  1  0
  8  4  1  0
 27 10  1  0
 35 33  1  0
 19 14  1  0
M  END
>  <cnnaffinity>  (1) 
-6.42049

>  <filename>  (1) 
[H]c1nc([H])c(C([H])([H])c2nc(-c3c([H])c(C([H])([H])[H])c([H])n4c([H])c([H])nc34)n(C([H])(C([H])([H])[H])C3([H])C([H])([H])C3([H])[H])n2)c([H])c1[H]

$$$$
