
     RDKit          3D

 22 24  0  0  0  0  0  0  0  0999 V2000
    4.9570    1.7809   16.9938 H   0  0  0  0  0  0  0  0  0  0  0  0
    5.4103    1.2814   17.8469 C   0  0  0  0  0  0  0  0  0  0  0  0
    6.5716    0.6588   17.6006 N   0  0  0  0  0  0  0  0  0  0  0  0
    7.1730    0.0457   18.6232 C   0  0  0  0  0  0  0  0  0  0  0  0
    8.1241   -0.4356   18.3989 H   0  0  0  0  0  0  0  0  0  0  0  0
    6.6412    0.0126   19.9156 C   0  0  0  0  0  0  0  0  0  0  0  0
    7.3789   -0.6966   20.9530 C   0  0  0  0  0  0  0  0  0  0  0  0
    8.5682   -1.3382   20.7496 N   0  0  0  0  0  0  0  0  0  0  0  0
    8.8219   -1.8076   21.9504 C   0  0  0  0  0  0  0  0  0  0  0  0
   10.0494   -2.7321   22.7659 S   0  0  0  0  0  0  0  0  0  0  0  0
    9.1435   -2.6308   24.2541 C   0  0  0  0  0  0  0  0  0  0  0  0
    9.4856   -3.0804   25.1789 H   0  0  0  0  0  0  0  0  0  0  0  0
    8.0032   -1.9408   24.1129 C   0  0  0  0  0  0  0  0  0  0  0  0
    7.0368   -1.6589   25.0751 N   0  0  0  0  0  0  0  0  0  0  0  0
    6.0649   -0.9361   25.1279 C   0  0  0  0  0  0  0  0  0  0  0  0
    4.8240   -0.0271   25.4354 S   0  0  0  0  0  0  0  0  0  0  0  0
    7.8487   -1.4796   22.8171 N   0  0  0  0  0  0  0  0  0  0  0  0
    6.8964   -0.7497   22.1835 N   0  0  0  0  0  0  0  0  0  0  0  0
    5.4198    0.6590   20.1728 C   0  0  0  0  0  0  0  0  0  0  0  0
    4.9934    0.6441   21.1828 H   0  0  0  0  0  0  0  0  0  0  0  0
    4.8018    1.3081   19.1081 C   0  0  0  0  0  0  0  0  0  0  0  0
    3.8699    1.8453   19.2342 H   0  0  0  0  0  0  0  0  0  0  0  0
  1  2  1  0
  2  3  2  0
  3  4  1  0
  4  5  1  0
  4  6  2  0
  6  7  1  0
  7  8  1  0
  8  9  2  0
  9 10  1  0
 10 11  1  0
 11 12  1  0
 11 13  2  0
 13 14  1  0
 14 15  2  0
 15 16  2  0
 13 17  1  0
 17 18  1  0
  6 19  1  0
 19 20  1  0
 19 21  2  0
 21 22  1  0
 21  2  1  0
 18  7  2  0
 17  9  1  0
M  END
>  <cnnaffinity>  (1) 
-4.63925

>  <filename>  (1) 
[H]c1nc([H])c(-c2nc3sc([H])c(N=C=S)n3n2)c([H])c1[H]

$$$$
