
     RDKit          3D

 36 39  0  0  0  0  0  0  0  0999 V2000
   11.5711    5.1462   23.1227 C   0  0  0  0  0  0  0  0  0  0  0  0
   10.4958    4.8898   24.1329 C   0  0  0  0  0  0  0  0  0  0  0  0
   10.4571    5.2730   25.4440 C   0  0  0  0  0  0  0  0  0  0  0  0
    9.3092    4.7170   25.9617 N   0  0  0  0  0  0  0  0  0  0  0  0
    8.6948    4.0497   24.9492 C   0  0  0  0  0  0  0  0  0  0  0  0
    7.1243    3.2785   25.2156 S   0  0  0  0  0  0  0  0  0  0  0  0
    7.6629    1.5444   25.4110 C   0  0  0  0  0  0  0  0  0  0  0  0
    8.1724    0.9421   24.1105 C   0  0  0  0  0  0  0  0  0  0  0  0
    7.1363    0.8386   22.9708 C   0  0  0  0  0  0  0  0  0  0  0  0
    7.6231   -0.2434   22.1425 N   0  0  0  0  0  0  0  0  0  0  0  0
    8.4118   -1.1824   22.7313 C   0  0  0  0  0  0  0  0  0  0  0  0
    8.7218   -2.1418   21.9027 N   0  0  0  0  0  0  0  0  0  0  0  0
    8.1075   -1.8218   20.7095 N   0  0  0  0  0  0  0  0  0  0  0  0
    7.4458   -0.7012   20.8693 C   0  0  0  0  0  0  0  0  0  0  0  0
    6.6527   -0.0104   19.8545 C   0  0  0  0  0  0  0  0  0  0  0  0
    5.4401    0.6413   20.1168 C   0  0  0  0  0  0  0  0  0  0  0  0
    4.8113    1.3076   19.0664 C   0  0  0  0  0  0  0  0  0  0  0  0
    5.4170    1.3074   17.8042 C   0  0  0  0  0  0  0  0  0  0  0  0
    6.5655    0.6647   17.5381 N   0  0  0  0  0  0  0  0  0  0  0  0
    7.1546    0.0164   18.5459 C   0  0  0  0  0  0  0  0  0  0  0  0
    8.0825   -0.5050   18.3188 H   0  0  0  0  0  0  0  0  0  0  0  0
    4.9542    1.8359   16.9717 H   0  0  0  0  0  0  0  0  0  0  0  0
    3.8782    1.8371   19.2140 H   0  0  0  0  0  0  0  0  0  0  0  0
    4.9959    0.6272   21.1148 H   0  0  0  0  0  0  0  0  0  0  0  0
    8.7927   -0.7750   24.3903 S   0  0  0  0  0  0  0  0  0  0  0  0
    7.0637    1.7741   22.4113 H   0  0  0  0  0  0  0  0  0  0  0  0
    6.1349    0.5893   23.3540 H   0  0  0  0  0  0  0  0  0  0  0  0
    9.0224    1.5392   23.7542 H   0  0  0  0  0  0  0  0  0  0  0  0
    6.7807    1.0074   25.7844 H   0  0  0  0  0  0  0  0  0  0  0  0
    8.4369    1.4740   26.1799 H   0  0  0  0  0  0  0  0  0  0  0  0
    9.3806    4.1339   23.8377 N   0  0  0  0  0  0  0  0  0  0  0  0
    9.0162    4.6553   26.9226 H   0  0  0  0  0  0  0  0  0  0  0  0
   11.1513    5.8641   26.0242 H   0  0  0  0  0  0  0  0  0  0  0  0
   11.1307    5.3684   22.1480 H   0  0  0  0  0  0  0  0  0  0  0  0
   12.2383    4.2801   23.0045 H   0  0  0  0  0  0  0  0  0  0  0  0
   12.1876    5.9950   23.4270 H   0  0  0  0  0  0  0  0  0  0  0  0
  1  2  1  0
  2  3  2  0
  3  4  1  0
  4  5  1  0
  5  6  1  0
  6  7  1  0
  7  8  1  0
  8  9  1  0
  9 10  1  0
 10 11  1  0
 11 12  2  0
 12 13  1  0
 13 14  2  0
 14 15  1  0
 15 16  2  0
 16 17  1  0
 17 18  2  0
 18 19  1  0
 19 20  2  0
 20 21  1  0
 18 22  1  0
 17 23  1  0
 16 24  1  0
 11 25  1  0
  9 26  1  0
  9 27  1  0
  8 28  1  0
  7 29  1  0
  7 30  1  0
  5 31  2  0
  4 32  1  0
  3 33  1  0
  1 34  1  0
  1 35  1  0
  1 36  1  0
 31  2  1  0
 25  8  1  0
 14 10  1  0
 20 15  1  0
M  END
>  <cnnaffinity>  (1) 
-5.3945

>  <filename>  (1) 
[H]c1nc([H])c(-c2nnc3n2C([H])([H])C([H])(C([H])([H])Sc2nc(C([H])([H])[H])c([H])n2[H])S3)c([H])c1[H]

$$$$
