
     RDKit          3D

 33 35  0  0  0  0  0  0  0  0999 V2000
    6.5610   -3.1053   23.7898 C   0  0  0  0  0  0  0  0  0  0  0  0
    6.9317   -3.4751   25.0222 C   0  0  0  0  0  0  0  0  0  0  0  0
    6.1797   -4.3436   25.9459 C   0  0  0  0  0  0  0  0  0  0  0  0
    4.8086   -4.6818   25.7526 C   0  0  0  0  0  0  0  0  0  0  0  0
    4.1261   -5.4804   26.5891 N   0  0  0  0  0  0  0  0  0  0  0  0
    4.8292   -5.9519   27.6379 C   0  0  0  0  0  0  0  0  0  0  0  0
    6.1854   -5.6208   27.8422 C   0  0  0  0  0  0  0  0  0  0  0  0
    6.8695   -4.8143   27.0130 N   0  0  0  0  0  0  0  0  0  0  0  0
    6.7160   -6.0160   28.7041 H   0  0  0  0  0  0  0  0  0  0  0  0
    4.3031   -6.5979   28.3310 H   0  0  0  0  0  0  0  0  0  0  0  0
    4.2533   -4.2763   24.9133 H   0  0  0  0  0  0  0  0  0  0  0  0
    7.8722   -3.1135   25.4343 H   0  0  0  0  0  0  0  0  0  0  0  0
    7.3503   -2.2386   22.8822 C   0  0  0  0  0  0  0  0  0  0  0  0
    8.7414   -2.0562   23.0095 C   0  0  0  0  0  0  0  0  0  0  0  0
    9.4420   -1.2169   22.1408 C   0  0  0  0  0  0  0  0  0  0  0  0
    8.7688   -0.5430   21.1229 C   0  0  0  0  0  0  0  0  0  0  0  0
    7.3814   -0.7045   20.9745 C   0  0  0  0  0  0  0  0  0  0  0  0
    6.6566    0.0156   19.8997 C   0  0  0  0  0  0  0  0  0  0  0  0
    5.4330    0.6526   20.1499 C   0  0  0  0  0  0  0  0  0  0  0  0
    4.8022    1.3178   19.1017 C   0  0  0  0  0  0  0  0  0  0  0  0
    5.4001    1.2952   17.8348 C   0  0  0  0  0  0  0  0  0  0  0  0
    6.5630    0.6782   17.5701 N   0  0  0  0  0  0  0  0  0  0  0  0
    7.1723    0.0717   18.5946 C   0  0  0  0  0  0  0  0  0  0  0  0
    8.1137   -0.4281   18.3729 H   0  0  0  0  0  0  0  0  0  0  0  0
    4.9117    1.7800   16.9951 H   0  0  0  0  0  0  0  0  0  0  0  0
    3.8681    1.8477   19.2590 H   0  0  0  0  0  0  0  0  0  0  0  0
    5.0107    0.6351   21.1590 H   0  0  0  0  0  0  0  0  0  0  0  0
    6.6918   -1.5537   21.8494 C   0  0  0  0  0  0  0  0  0  0  0  0
    5.6199   -1.6772   21.7078 H   0  0  0  0  0  0  0  0  0  0  0  0
    9.3052    0.1254   20.4543 H   0  0  0  0  0  0  0  0  0  0  0  0
   10.5160   -1.0940   22.2493 H   0  0  0  0  0  0  0  0  0  0  0  0
    9.2883   -2.5935   23.7747 H   0  0  0  0  0  0  0  0  0  0  0  0
    5.6095   -3.4430   23.3691 H   0  0  0  0  0  0  0  0  0  0  0  0
  1  2  2  3
  2  3  1  0
  3  4  2  0
  4  5  1  0
  5  6  2  0
  6  7  1  0
  7  8  2  0
  7  9  1  0
  6 10  1  0
  4 11  1  0
  2 12  1  0
  1 13  1  0
 13 14  2  0
 14 15  1  0
 15 16  2  0
 16 17  1  0
 17 18  1  0
 18 19  2  0
 19 20  1  0
 20 21  2  0
 21 22  1  0
 22 23  2  0
 23 24  1  0
 21 25  1  0
 20 26  1  0
 19 27  1  0
 17 28  2  0
 28 29  1  0
 16 30  1  0
 15 31  1  0
 14 32  1  0
  1 33  1  0
  8  3  1  0
 28 13  1  0
 23 18  1  0
M  END
>  <cnnaffinity>  (1) 
-4.97327

>  <filename>  (1) 
[H]C(=C([H])c1c([H])c([H])c([H])c(-c2c([H])nc([H])c([H])c2[H])c1[H])c1nc([H])c([H])nc1[H]

$$$$
