
     RDKit          3D

 35 37  0  0  0  0  0  0  0  0999 V2000
    8.9549    3.2571   22.5935 H   0  0  0  0  0  0  0  0  0  0  0  0
    9.0901    2.1898   22.4116 C   0  0  0  0  0  0  0  0  0  0  0  0
    8.0047    1.4427   22.1118 C   0  0  0  0  0  0  0  0  0  0  0  0
    7.0838    1.9578   21.8575 H   0  0  0  0  0  0  0  0  0  0  0  0
    7.9254   -0.0162   21.9984 C   0  0  0  0  0  0  0  0  0  0  0  0
    7.2937   -0.7109   20.9670 C   0  0  0  0  0  0  0  0  0  0  0  0
    6.5863    0.0035   19.8562 C   0  0  0  0  0  0  0  0  0  0  0  0
    7.0988    0.0315   18.5417 C   0  0  0  0  0  0  0  0  0  0  0  0
    8.0368   -0.4767   18.3158 H   0  0  0  0  0  0  0  0  0  0  0  0
    6.5249    0.6762   17.5137 N   0  0  0  0  0  0  0  0  0  0  0  0
    5.3763    1.3250   17.7630 C   0  0  0  0  0  0  0  0  0  0  0  0
    4.9272    1.8525   16.9230 H   0  0  0  0  0  0  0  0  0  0  0  0
    4.7618    1.3447   19.0187 C   0  0  0  0  0  0  0  0  0  0  0  0
    3.8341    1.8863   19.1578 H   0  0  0  0  0  0  0  0  0  0  0  0
    5.3813    0.6832   20.0825 C   0  0  0  0  0  0  0  0  0  0  0  0
    4.9454    0.6942   21.0833 H   0  0  0  0  0  0  0  0  0  0  0  0
    7.4007   -2.1381   20.9486 C   0  0  0  0  0  0  0  0  0  0  0  0
    6.8928   -2.6792   20.1510 H   0  0  0  0  0  0  0  0  0  0  0  0
    8.0972   -2.8149   21.9068 C   0  0  0  0  0  0  0  0  0  0  0  0
    8.2171   -3.8856   21.9355 H   0  0  0  0  0  0  0  0  0  0  0  0
    8.7701   -2.1096   22.9861 C   0  0  0  0  0  0  0  0  0  0  0  0
    9.4444   -2.6239   23.8613 O   0  0  0  0  0  0  0  0  0  0  0  0
    8.5881   -0.7433   22.9653 N   0  0  0  0  0  0  0  0  0  0  0  0
    9.2026   -0.2687   23.6102 H   0  0  0  0  0  0  0  0  0  0  0  0
   10.4805    1.6908   22.4679 C   0  0  0  0  0  0  0  0  0  0  0  0
   11.4597    2.3026   23.2726 C   0  0  0  0  0  0  0  0  0  0  0  0
   11.1931    3.1659   23.8800 H   0  0  0  0  0  0  0  0  0  0  0  0
   12.7425    1.7575   23.3764 C   0  0  0  0  0  0  0  0  0  0  0  0
   13.4850    2.2210   24.0210 H   0  0  0  0  0  0  0  0  0  0  0  0
   13.0829    0.6116   22.6482 C   0  0  0  0  0  0  0  0  0  0  0  0
   14.0794    0.1909   22.7238 H   0  0  0  0  0  0  0  0  0  0  0  0
   12.1311    0.0301   21.8045 C   0  0  0  0  0  0  0  0  0  0  0  0
   12.3514   -0.8375   21.1927 H   0  0  0  0  0  0  0  0  0  0  0  0
   10.8612    0.5809   21.6971 C   0  0  0  0  0  0  0  0  0  0  0  0
   10.1446    0.1351   21.0132 H   0  0  0  0  0  0  0  0  0  0  0  0
  1  2  1  0
  2  3  2  3
  3  4  1  0
  3  5  1  0
  5  6  2  0
  6  7  1  0
  7  8  2  0
  8  9  1  0
  8 10  1  0
 10 11  2  0
 11 12  1  0
 11 13  1  0
 13 14  1  0
 13 15  2  0
 15 16  1  0
  6 17  1  0
 17 18  1  0
 17 19  2  0
 19 20  1  0
 19 21  1  0
 21 22  2  0
 21 23  1  0
 23 24  1  0
  2 25  1  0
 25 26  2  0
 26 27  1  0
 26 28  1  0
 28 29  1  0
 28 30  2  0
 30 31  1  0
 30 32  1  0
 32 33  1  0
 32 34  2  0
 34 35  1  0
 23  5  1  0
 34 25  1  0
 15  7  1  0
M  END
>  <cnnaffinity>  (1) 
-5.126

>  <filename>  (1) 
[H]C(=C([H])c1c(-c2c([H])nc([H])c([H])c2[H])c([H])c([H])c(=O)n1[H])c1c([H])c([H])c([H])c([H])c1[H]

$$$$
