
     RDKit          3D

 32 34  0  0  0  0  0  0  0  0999 V2000
    4.9318    1.7964   16.9830 H   0  0  0  0  0  0  0  0  0  0  0  0
    5.3976    1.2905   17.8269 C   0  0  0  0  0  0  0  0  0  0  0  0
    6.5591    0.6650   17.5717 N   0  0  0  0  0  0  0  0  0  0  0  0
    7.1574    0.0333   18.5846 C   0  0  0  0  0  0  0  0  0  0  0  0
    8.1177   -0.4324   18.3576 H   0  0  0  0  0  0  0  0  0  0  0  0
    6.6463    0.0043   19.8948 C   0  0  0  0  0  0  0  0  0  0  0  0
    7.3761   -0.6529   20.9838 C   0  0  0  0  0  0  0  0  0  0  0  0
    7.6755   -0.0565   22.1964 C   0  0  0  0  0  0  0  0  0  0  0  0
    7.4033    1.2985   22.4754 N   0  0  0  0  0  0  0  0  0  0  0  0
    7.5112    1.9691   21.7300 H   0  0  0  0  0  0  0  0  0  0  0  0
    6.8715    1.8279   23.6254 C   0  0  0  0  0  0  0  0  0  0  0  0
    6.1231    1.0520   24.5109 C   0  0  0  0  0  0  0  0  0  0  0  0
    5.9388    0.0090   24.2857 H   0  0  0  0  0  0  0  0  0  0  0  0
    5.6436    1.6584   25.6614 C   0  0  0  0  0  0  0  0  0  0  0  0
    5.0658    1.0812   26.3833 H   0  0  0  0  0  0  0  0  0  0  0  0
    5.8522    2.9452   25.9662 N   0  0  0  0  0  0  0  0  0  0  0  0
    6.5541    3.6779   25.0907 C   0  0  0  0  0  0  0  0  0  0  0  0
    6.7063    4.7201   25.3713 H   0  0  0  0  0  0  0  0  0  0  0  0
    7.0702    3.1813   23.9023 C   0  0  0  0  0  0  0  0  0  0  0  0
    7.6444    3.8139   23.2346 H   0  0  0  0  0  0  0  0  0  0  0  0
    8.3482   -0.8481   23.1848 C   0  0  0  0  0  0  0  0  0  0  0  0
    8.5653   -0.3415   24.1261 H   0  0  0  0  0  0  0  0  0  0  0  0
    8.6849   -2.1537   22.9557 C   0  0  0  0  0  0  0  0  0  0  0  0
    9.1816   -2.7814   23.6823 H   0  0  0  0  0  0  0  0  0  0  0  0
    8.3439   -2.7948   21.6920 C   0  0  0  0  0  0  0  0  0  0  0  0
    8.4998   -3.9644   21.3770 O   0  0  0  0  0  0  0  0  0  0  0  0
    7.7739   -1.9471   20.7610 N   0  0  0  0  0  0  0  0  0  0  0  0
    7.5247   -2.4634   19.9332 H   0  0  0  0  0  0  0  0  0  0  0  0
    5.4323    0.6601   20.1456 C   0  0  0  0  0  0  0  0  0  0  0  0
    5.0149    0.6538   21.1544 H   0  0  0  0  0  0  0  0  0  0  0  0
    4.7979    1.3086   19.0898 C   0  0  0  0  0  0  0  0  0  0  0  0
    3.8691    1.8448   19.2363 H   0  0  0  0  0  0  0  0  0  0  0  0
  1  2  1  0
  2  3  2  0
  3  4  1  0
  4  5  1  0
  4  6  2  0
  6  7  1  0
  7  8  2  0
  8  9  1  0
  9 10  1  0
  9 11  1  0
 11 12  2  0
 12 13  1  0
 12 14  1  0
 14 15  1  0
 14 16  2  0
 16 17  1  0
 17 18  1  0
 17 19  2  0
 19 20  1  0
  8 21  1  0
 21 22  1  0
 21 23  2  0
 23 24  1  0
 23 25  1  0
 25 26  2  0
 25 27  1  0
 27 28  1  0
  6 29  1  0
 29 30  1  0
 29 31  2  0
 31 32  1  0
 31  2  1  0
 27  7  1  0
 19 11  1  0
M  END
>  <cnnaffinity>  (1) 
-5.4337

>  <filename>  (1) 
[H]c1nc([H])c(-c2c(N([H])c3c([H])c([H])nc([H])c3[H])c([H])c([H])c(=O)n2[H])c([H])c1[H]

$$$$
