
     RDKit          3D

 27 28  0  0  0  0  0  0  0  0999 V2000
    6.3600    2.5793   25.0408 H   0  0  0  0  0  0  0  0  0  0  0  0
    6.7999    2.5706   24.0418 C   0  0  0  0  0  0  0  0  0  0  0  0
    6.7538    3.7199   23.3903 N   0  0  0  0  0  0  0  0  0  0  0  0
    7.3849    3.7058   22.2170 C   0  0  0  0  0  0  0  0  0  0  0  0
    7.4558    4.9228   21.6486 N   0  0  0  0  0  0  0  0  0  0  0  0
    7.5426    4.8350   20.6529 H   0  0  0  0  0  0  0  0  0  0  0  0
    6.6603    5.4246   21.9967 H   0  0  0  0  0  0  0  0  0  0  0  0
    7.9325    2.6949   21.5811 N   0  0  0  0  0  0  0  0  0  0  0  0
    7.9122    1.5282   22.2453 C   0  0  0  0  0  0  0  0  0  0  0  0
    8.4906    0.3149   21.5818 C   0  0  0  0  0  0  0  0  0  0  0  0
    9.1059   -0.2112   22.3225 H   0  0  0  0  0  0  0  0  0  0  0  0
    9.1626    0.6430   20.7837 H   0  0  0  0  0  0  0  0  0  0  0  0
    7.4305   -0.6545   21.0007 C   0  0  0  0  0  0  0  0  0  0  0  0
    7.9464   -1.5521   20.6352 H   0  0  0  0  0  0  0  0  0  0  0  0
    6.7663   -0.9959   21.8057 H   0  0  0  0  0  0  0  0  0  0  0  0
    6.6215   -0.0237   19.8847 C   0  0  0  0  0  0  0  0  0  0  0  0
    7.1392    0.0458   18.5747 C   0  0  0  0  0  0  0  0  0  0  0  0
    8.0899   -0.4374   18.3374 H   0  0  0  0  0  0  0  0  0  0  0  0
    6.5519    0.6824   17.5548 N   0  0  0  0  0  0  0  0  0  0  0  0
    5.3924    1.3075   17.8085 C   0  0  0  0  0  0  0  0  0  0  0  0
    4.9450    1.8405   16.9710 H   0  0  0  0  0  0  0  0  0  0  0  0
    4.7681    1.2928   19.0575 C   0  0  0  0  0  0  0  0  0  0  0  0
    3.8361    1.8301   19.1974 H   0  0  0  0  0  0  0  0  0  0  0  0
    5.3893    0.6118   20.1089 C   0  0  0  0  0  0  0  0  0  0  0  0
    4.9406    0.5999   21.1032 H   0  0  0  0  0  0  0  0  0  0  0  0
    7.3740    1.4237   23.5218 C   0  0  0  0  0  0  0  0  0  0  0  0
    7.4114    0.4956   24.0768 H   0  0  0  0  0  0  0  0  0  0  0  0
  1  2  1  0
  2  3  2  0
  3  4  1  0
  4  5  1  0
  5  6  1  0
  5  7  1  0
  4  8  2  0
  8  9  1  0
  9 10  1  0
 10 11  1  0
 10 12  1  0
 10 13  1  0
 13 14  1  0
 13 15  1  0
 13 16  1  0
 16 17  2  0
 17 18  1  0
 17 19  1  0
 19 20  2  0
 20 21  1  0
 20 22  1  0
 22 23  1  0
 22 24  2  0
 24 25  1  0
  9 26  2  0
 26 27  1  0
 26  2  1  0
 24 16  1  0
M  END
>  <cnnaffinity>  (1) 
-4.39466

>  <filename>  (1) 
[H]c1nc(N([H])[H])nc(C([H])([H])C([H])([H])c2c([H])nc([H])c([H])c2[H])c1[H]

$$$$
