
     RDKit          3D

 43 46  0  0  0  0  0  0  0  0999 V2000
    0.0673   -5.8408   22.3292 C   0  0  0  0  0  0  0  0  0  0  0  0
    0.9786   -6.4024   23.2998 N   0  0  0  0  0  0  0  0  0  0  0  0
    0.6906   -7.4619   24.1290 C   0  0  0  0  0  0  0  0  0  0  0  0
    1.7074   -7.6700   25.0095 C   0  0  0  0  0  0  0  0  0  0  0  0
    2.7110   -6.6824   24.7249 C   0  0  0  0  0  0  0  0  0  0  0  0
    3.9594   -6.3477   25.2859 C   0  0  0  0  0  0  0  0  0  0  0  0
    4.7210   -5.3412   24.7140 C   0  0  0  0  0  0  0  0  0  0  0  0
    4.2781   -4.6583   23.5527 C   0  0  0  0  0  0  0  0  0  0  0  0
    5.1802   -3.6771   22.9014 C   0  0  0  0  0  0  0  0  0  0  0  0
    5.8020   -2.6139   23.3781 N   0  0  0  0  0  0  0  0  0  0  0  0
    6.2523   -1.9916   22.2460 C   0  0  0  0  0  0  0  0  0  0  0  0
    6.8585   -0.6060   22.2137 C   0  0  0  0  0  0  0  0  0  0  0  0
    6.6111    0.1076   20.8908 C   0  0  0  0  0  0  0  0  0  0  0  0
    5.3600    0.6964   20.6666 C   0  0  0  0  0  0  0  0  0  0  0  0
    5.0680    1.2182   19.4058 C   0  0  0  0  0  0  0  0  0  0  0  0
    6.0527    1.1480   18.4154 C   0  0  0  0  0  0  0  0  0  0  0  0
    7.2623    0.6061   18.6047 N   0  0  0  0  0  0  0  0  0  0  0  0
    7.5226    0.0969   19.8179 C   0  0  0  0  0  0  0  0  0  0  0  0
    8.5060   -0.3572   19.9466 H   0  0  0  0  0  0  0  0  0  0  0  0
    5.8549    1.5434   17.4224 H   0  0  0  0  0  0  0  0  0  0  0  0
    4.1116    1.6778   19.1824 H   0  0  0  0  0  0  0  0  0  0  0  0
    4.6339    0.7565   21.4821 H   0  0  0  0  0  0  0  0  0  0  0  0
    6.3820   -0.0384   23.0206 H   0  0  0  0  0  0  0  0  0  0  0  0
    7.9238   -0.6770   22.4625 H   0  0  0  0  0  0  0  0  0  0  0  0
    6.0700   -2.6796   21.1412 N   0  0  0  0  0  0  0  0  0  0  0  0
    5.3856   -3.7745   21.5505 N   0  0  0  0  0  0  0  0  0  0  0  0
    5.7155   -4.9915   20.8163 C   0  0  0  0  0  0  0  0  0  0  0  0
    7.0817   -5.5214   21.2303 C   0  0  0  0  0  0  0  0  0  0  0  0
    7.4349   -6.4776   20.3713 F   0  0  0  0  0  0  0  0  0  0  0  0
    8.0514   -4.6065   21.2346 F   0  0  0  0  0  0  0  0  0  0  0  0
    7.0271   -6.0710   22.4639 F   0  0  0  0  0  0  0  0  0  0  0  0
    4.9780   -5.7716   21.0054 H   0  0  0  0  0  0  0  0  0  0  0  0
    5.7449   -4.7332   19.7582 H   0  0  0  0  0  0  0  0  0  0  0  0
    3.0276   -4.9583   22.9921 C   0  0  0  0  0  0  0  0  0  0  0  0
    2.2374   -5.9340   23.6149 C   0  0  0  0  0  0  0  0  0  0  0  0
    2.6870   -4.4886   22.0751 H   0  0  0  0  0  0  0  0  0  0  0  0
    5.6980   -5.0842   25.1154 H   0  0  0  0  0  0  0  0  0  0  0  0
    4.3199   -6.8833   26.1580 H   0  0  0  0  0  0  0  0  0  0  0  0
    1.7796   -8.4415   25.7652 H   0  0  0  0  0  0  0  0  0  0  0  0
   -0.2462   -7.9880   23.9780 H   0  0  0  0  0  0  0  0  0  0  0  0
   -0.9416   -6.2197   22.5242 H   0  0  0  0  0  0  0  0  0  0  0  0
    0.0437   -4.7530   22.4272 H   0  0  0  0  0  0  0  0  0  0  0  0
    0.3558   -6.1039   21.3076 H   0  0  0  0  0  0  0  0  0  0  0  0
  1  2  1  0
  2  3  1  0
  3  4  2  0
  4  5  1  0
  5  6  2  0
  6  7  1  0
  7  8  2  0
  8  9  1  0
  9 10  2  0
 10 11  1  0
 11 12  1  0
 12 13  1  0
 13 14  2  0
 14 15  1  0
 15 16  2  0
 16 17  1  0
 17 18  2  0
 18 19  1  0
 16 20  1  0
 15 21  1  0
 14 22  1  0
 12 23  1  0
 12 24  1  0
 11 25  2  0
 25 26  1  0
 26 27  1  0
 27 28  1  0
 28 29  1  0
 28 30  1  0
 28 31  1  0
 27 32  1  0
 27 33  1  0
  8 34  1  0
 34 35  2  0
 34 36  1  0
  7 37  1  0
  6 38  1  0
  4 39  1  0
  3 40  1  0
  1 41  1  0
  1 42  1  0
  1 43  1  0
 35  2  1  0
 35  5  1  0
 26  9  1  0
 18 13  1  0
M  END
>  <cnnaffinity>  (1) 
-5.97987

>  <filename>  (1) 
[H]c1nc([H])c(C([H])([H])c2nc(-c3c([H])c([H])c4c([H])c([H])n(C([H])([H])[H])c4c3[H])n(C([H])([H])C(F)(F)F)n2)c([H])c1[H]

$$$$
