
     RDKit          3D

 31 33  0  0  0  0  0  0  0  0999 V2000
    5.4642   -1.6812   21.4023 H   0  0  0  0  0  0  0  0  0  0  0  0
    6.4632   -1.4135   21.7390 C   0  0  0  0  0  0  0  0  0  0  0  0
    6.8269   -1.9164   22.6310 H   0  0  0  0  0  0  0  0  0  0  0  0
    7.1899   -0.5117   21.0682 C   0  0  0  0  0  0  0  0  0  0  0  0
    6.5903    0.1496   19.8607 C   0  0  0  0  0  0  0  0  0  0  0  0
    7.2442    0.1276   18.6151 C   0  0  0  0  0  0  0  0  0  0  0  0
    8.2003   -0.3853   18.5206 H   0  0  0  0  0  0  0  0  0  0  0  0
    6.7532    0.6772   17.4944 N   0  0  0  0  0  0  0  0  0  0  0  0
    5.5763    1.3144   17.5864 C   0  0  0  0  0  0  0  0  0  0  0  0
    5.2174    1.7844   16.6720 H   0  0  0  0  0  0  0  0  0  0  0  0
    4.8372    1.4057   18.7734 C   0  0  0  0  0  0  0  0  0  0  0  0
    3.8921    1.9415   18.7811 H   0  0  0  0  0  0  0  0  0  0  0  0
    5.3450    0.7964   19.9228 C   0  0  0  0  0  0  0  0  0  0  0  0
    4.7962    0.8207   20.8669 H   0  0  0  0  0  0  0  0  0  0  0  0
    8.5963   -0.1378   21.4633 C   0  0  0  0  0  0  0  0  0  0  0  0
    8.9715    1.2451   21.5429 C   0  0  0  0  0  0  0  0  0  0  0  0
    8.1882    1.9921   21.4211 H   0  0  0  0  0  0  0  0  0  0  0  0
   10.2736    1.6233   21.7723 C   0  0  0  0  0  0  0  0  0  0  0  0
   10.5423    2.6801   21.7846 H   0  0  0  0  0  0  0  0  0  0  0  0
   11.2983    0.6371   21.9638 C   0  0  0  0  0  0  0  0  0  0  0  0
   12.6719    0.9575   22.2157 C   0  0  0  0  0  0  0  0  0  0  0  0
   12.9538    1.9975   22.3692 H   0  0  0  0  0  0  0  0  0  0  0  0
   13.6377   -0.0283   22.2392 C   0  0  0  0  0  0  0  0  0  0  0  0
   14.6863    0.2397   22.3410 H   0  0  0  0  0  0  0  0  0  0  0  0
   13.2714   -1.3984   22.0902 C   0  0  0  0  0  0  0  0  0  0  0  0
   14.0268   -2.1825   22.1107 H   0  0  0  0  0  0  0  0  0  0  0  0
   11.9482   -1.7423   21.9721 C   0  0  0  0  0  0  0  0  0  0  0  0
   11.6399   -2.7815   21.9576 H   0  0  0  0  0  0  0  0  0  0  0  0
   10.9307   -0.7461   21.8778 C   0  0  0  0  0  0  0  0  0  0  0  0
    9.5646   -1.1007   21.6720 C   0  0  0  0  0  0  0  0  0  0  0  0
    9.2872   -2.1526   21.6819 H   0  0  0  0  0  0  0  0  0  0  0  0
  1  2  1  0
  2  3  1  0
  2  4  2  3
  4  5  1  0
  5  6  2  0
  6  7  1  0
  6  8  1  0
  8  9  2  0
  9 10  1  0
  9 11  1  0
 11 12  1  0
 11 13  2  0
 13 14  1  0
  4 15  1  0
 15 16  2  0
 16 17  1  0
 16 18  1  0
 18 19  1  0
 18 20  2  0
 20 21  1  0
 21 22  1  0
 21 23  2  0
 23 24  1  0
 23 25  1  0
 25 26  1  0
 25 27  2  0
 27 28  1  0
 27 29  1  0
 29 30  2  0
 30 31  1  0
 13  5  1  0
 30 15  1  0
 29 20  1  0
M  END
>  <cnnaffinity>  (1) 
-4.61864

>  <filename>  (1) 
[H]C([H])=C(c1c([H])nc([H])c([H])c1[H])c1c([H])c([H])c2c([H])c([H])c([H])c([H])c2c1[H]

$$$$
