
     RDKit          3D

 45 48  0  0  0  0  0  0  0  0999 V2000
   12.4579    0.2807   22.2982 C   0  0  0  0  0  0  0  0  0  0  0  0
   11.4888   -0.6235   21.8186 O   0  0  0  0  0  0  0  0  0  0  0  0
   11.1878   -1.6915   22.6782 C   0  0  0  0  0  0  0  0  0  0  0  0
   10.0120   -2.4956   22.1299 C   0  0  0  0  0  0  0  0  0  0  0  0
    8.7494   -1.7914   21.9868 N   0  0  0  0  0  0  0  0  0  0  0  0
    8.4568   -1.2984   20.7711 N   0  0  0  0  0  0  0  0  0  0  0  0
    7.3107   -0.6784   20.9560 C   0  0  0  0  0  0  0  0  0  0  0  0
    6.6107    0.0184   19.8899 C   0  0  0  0  0  0  0  0  0  0  0  0
    5.4007    0.6808   20.1227 C   0  0  0  0  0  0  0  0  0  0  0  0
    4.7998    1.3276   19.0473 C   0  0  0  0  0  0  0  0  0  0  0  0
    5.4335    1.2972   17.7964 C   0  0  0  0  0  0  0  0  0  0  0  0
    6.5941    0.6618   17.5694 N   0  0  0  0  0  0  0  0  0  0  0  0
    7.1685    0.0397   18.6023 C   0  0  0  0  0  0  0  0  0  0  0  0
    8.1140   -0.4635   18.4017 H   0  0  0  0  0  0  0  0  0  0  0  0
    4.9871    1.8013   16.9423 H   0  0  0  0  0  0  0  0  0  0  0  0
    3.8627    1.8567   19.1715 H   0  0  0  0  0  0  0  0  0  0  0  0
    4.9750    0.6834   21.1293 H   0  0  0  0  0  0  0  0  0  0  0  0
    6.8491   -0.7389   22.2249 N   0  0  0  0  0  0  0  0  0  0  0  0
    7.7575   -1.4650   22.8543 C   0  0  0  0  0  0  0  0  0  0  0  0
    7.7560   -1.8865   24.3073 C   0  0  0  0  0  0  0  0  0  0  0  0
    7.0222   -0.8767   25.1993 C   0  0  0  0  0  0  0  0  0  0  0  0
    6.9711   -1.3802   26.6375 C   0  0  0  0  0  0  0  0  0  0  0  0
    6.4376   -2.7994   26.6789 C   0  0  0  0  0  0  0  0  0  0  0  0
    5.7673   -3.3303   27.7914 C   0  0  0  0  0  0  0  0  0  0  0  0
    5.4117   -4.6795   27.8563 C   0  0  0  0  0  0  0  0  0  0  0  0
    5.6696   -5.5065   26.7563 C   0  0  0  0  0  0  0  0  0  0  0  0
    6.2592   -4.9863   25.6053 C   0  0  0  0  0  0  0  0  0  0  0  0
    6.6454   -3.6402   25.5680 C   0  0  0  0  0  0  0  0  0  0  0  0
    7.1941   -3.2090   24.3871 O   0  0  0  0  0  0  0  0  0  0  0  0
    6.4289   -5.5900   24.7200 H   0  0  0  0  0  0  0  0  0  0  0  0
    5.4021   -6.5580   26.7959 H   0  0  0  0  0  0  0  0  0  0  0  0
    4.9499   -5.0839   28.7539 H   0  0  0  0  0  0  0  0  0  0  0  0
    5.5194   -2.6702   28.6197 H   0  0  0  0  0  0  0  0  0  0  0  0
    6.3557   -0.7178   27.2576 H   0  0  0  0  0  0  0  0  0  0  0  0
    7.9832   -1.3584   27.0689 H   0  0  0  0  0  0  0  0  0  0  0  0
    6.0046   -0.7339   24.8231 H   0  0  0  0  0  0  0  0  0  0  0  0
    7.5463    0.0798   25.1205 H   0  0  0  0  0  0  0  0  0  0  0  0
    8.7998   -1.9560   24.6546 H   0  0  0  0  0  0  0  0  0  0  0  0
   10.2556   -2.7984   21.1180 H   0  0  0  0  0  0  0  0  0  0  0  0
    9.8451   -3.3923   22.7355 H   0  0  0  0  0  0  0  0  0  0  0  0
   10.9346   -1.3458   23.6977 H   0  0  0  0  0  0  0  0  0  0  0  0
   12.0379   -2.3925   22.7426 H   0  0  0  0  0  0  0  0  0  0  0  0
   12.2318    0.6380   23.3168 H   0  0  0  0  0  0  0  0  0  0  0  0
   12.4386    1.1437   21.6254 H   0  0  0  0  0  0  0  0  0  0  0  0
   13.4661   -0.1669   22.2981 H   0  0  0  0  0  0  0  0  0  0  0  0
  1  2  1  0
  2  3  1  0
  3  4  1  0
  4  5  1  0
  5  6  1  0
  6  7  2  0
  7  8  1  0
  8  9  2  0
  9 10  1  0
 10 11  2  0
 11 12  1  0
 12 13  2  0
 13 14  1  0
 11 15  1  0
 10 16  1  0
  9 17  1  0
  7 18  1  0
 18 19  2  0
 19 20  1  0
 20 21  1  0
 21 22  1  0
 22 23  1  0
 23 24  2  0
 24 25  1  0
 25 26  2  0
 26 27  1  0
 27 28  2  0
 28 29  1  0
 27 30  1  0
 26 31  1  0
 25 32  1  0
 24 33  1  0
 22 34  1  0
 22 35  1  0
 21 36  1  0
 21 37  1  0
 20 38  1  0
  4 39  1  0
  4 40  1  0
  3 41  1  0
  3 42  1  0
  1 43  1  0
  1 44  1  0
  1 45  1  0
 19  5  1  0
 29 20  1  0
 13  8  1  0
 28 23  1  0
M  END
>  <cnnaffinity>  (1) 
-5.87486

>  <filename>  (1) 
[H]c1nc([H])c(-c2nc(C3([H])Oc4c([H])c([H])c([H])c([H])c4C([H])([H])C3([H])[H])n(C([H])([H])C([H])([H])OC([H])([H])[H])n2)c([H])c1[H]

$$$$
