
     RDKit          3D

 35 38  0  0  0  0  0  0  0  0999 V2000
    5.0023    1.8038   16.9895 H   0  0  0  0  0  0  0  0  0  0  0  0
    5.4327    1.2709   17.8387 C   0  0  0  0  0  0  0  0  0  0  0  0
    6.5873    0.6252   17.6123 N   0  0  0  0  0  0  0  0  0  0  0  0
    7.1461   -0.0062   18.6533 C   0  0  0  0  0  0  0  0  0  0  0  0
    8.0861   -0.5177   18.4482 H   0  0  0  0  0  0  0  0  0  0  0  0
    6.6075   -0.0522   19.9519 C   0  0  0  0  0  0  0  0  0  0  0  0
    7.3393   -0.7629   21.0666 C   0  0  0  0  0  0  0  0  0  0  0  0
    7.0473   -2.2124   21.2991 C   0  0  0  0  0  0  0  0  0  0  0  0
    7.8245   -3.2374   21.1866 N   0  0  0  0  0  0  0  0  0  0  0  0
    7.0726   -4.3532   21.5518 N   0  0  0  0  0  0  0  0  0  0  0  0
    5.9225   -3.8791   21.9058 C   0  0  0  0  0  0  0  0  0  0  0  0
    4.8773   -4.6167   22.3622 N   0  0  0  0  0  0  0  0  0  0  0  0
    5.1459   -5.5891   22.3058 H   0  0  0  0  0  0  0  0  0  0  0  0
    4.0967   -4.2861   23.4974 C   0  0  0  0  0  0  0  0  0  0  0  0
    4.4494   -3.3053   24.4329 C   0  0  0  0  0  0  0  0  0  0  0  0
    5.4099   -2.7998   24.3571 H   0  0  0  0  0  0  0  0  0  0  0  0
    3.5702   -2.9790   25.4719 C   0  0  0  0  0  0  0  0  0  0  0  0
    3.8087   -2.1910   26.1823 H   0  0  0  0  0  0  0  0  0  0  0  0
    2.3462   -3.6442   25.5781 C   0  0  0  0  0  0  0  0  0  0  0  0
    1.2011   -3.1601   26.7967 Cl  0  0  0  0  0  0  0  0  0  0  0  0
    2.0149   -4.6747   24.6940 C   0  0  0  0  0  0  0  0  0  0  0  0
    1.0625   -5.1891   24.7982 H   0  0  0  0  0  0  0  0  0  0  0  0
    2.9065   -5.0020   23.6693 C   0  0  0  0  0  0  0  0  0  0  0  0
    2.6908   -5.8075   22.9748 H   0  0  0  0  0  0  0  0  0  0  0  0
    5.7990   -2.5512   21.7559 O   0  0  0  0  0  0  0  0  0  0  0  0
    8.7741   -0.3671   21.2964 C   0  0  0  0  0  0  0  0  0  0  0  0
    9.2111    0.3816   20.6398 H   0  0  0  0  0  0  0  0  0  0  0  0
    9.4440   -1.1720   21.5829 H   0  0  0  0  0  0  0  0  0  0  0  0
    7.7394    0.0625   22.2857 C   0  0  0  0  0  0  0  0  0  0  0  0
    7.7230   -0.4252   23.2565 H   0  0  0  0  0  0  0  0  0  0  0  0
    7.4533    1.1147   22.3046 H   0  0  0  0  0  0  0  0  0  0  0  0
    5.3989    0.6236   20.1617 C   0  0  0  0  0  0  0  0  0  0  0  0
    4.9471    0.6286   21.1560 H   0  0  0  0  0  0  0  0  0  0  0  0
    4.8020    1.2888   19.0863 C   0  0  0  0  0  0  0  0  0  0  0  0
    3.8704    1.8279   19.2049 H   0  0  0  0  0  0  0  0  0  0  0  0
  1  2  1  0
  2  3  2  0
  3  4  1  0
  4  5  1  0
  4  6  2  0
  6  7  1  0
  7  8  1  0
  8  9  2  0
  9 10  1  0
 10 11  2  0
 11 12  1  0
 12 13  1  0
 12 14  1  0
 14 15  2  0
 15 16  1  0
 15 17  1  0
 17 18  1  0
 17 19  2  0
 19 20  1  0
 19 21  1  0
 21 22  1  0
 21 23  2  0
 23 24  1  0
 11 25  1  0
  7 26  1  0
 26 27  1  0
 26 28  1  0
 26 29  1  0
 29 30  1  0
 29 31  1  0
  6 32  1  0
 32 33  1  0
 32 34  2  0
 34 35  1  0
 34  2  1  0
 29  7  1  0
 25  8  1  0
 23 14  1  0
M  END
>  <cnnaffinity>  (1) 
-5.03231

>  <filename>  (1) 
[H]c1nc([H])c(C2(c3nnc(N([H])c4c([H])c([H])c(Cl)c([H])c4[H])o3)C([H])([H])C2([H])[H])c([H])c1[H]

$$$$
