
     RDKit          3D

 40 44  0  0  0  0  0  0  0  0999 V2000
    4.9228    1.7763   17.0017 H   0  0  0  0  0  0  0  0  0  0  0  0
    5.4061    1.2872   17.8458 C   0  0  0  0  0  0  0  0  0  0  0  0
    6.5686    0.6714   17.5861 N   0  0  0  0  0  0  0  0  0  0  0  0
    7.1809    0.0565   18.6006 C   0  0  0  0  0  0  0  0  0  0  0  0
    8.1267   -0.4292   18.3775 H   0  0  0  0  0  0  0  0  0  0  0  0
    6.6666    0.0060   19.9090 C   0  0  0  0  0  0  0  0  0  0  0  0
    7.4215   -0.6990   20.9601 C   0  0  0  0  0  0  0  0  0  0  0  0
    8.5886   -1.2588   20.7898 N   0  0  0  0  0  0  0  0  0  0  0  0
    9.0848   -1.8151   21.9336 N   0  0  0  0  0  0  0  0  0  0  0  0
    8.2977   -1.6679   22.9585 C   0  0  0  0  0  0  0  0  0  0  0  0
    8.6196   -2.1690   24.3363 C   0  0  0  0  0  0  0  0  0  0  0  0
    9.4702   -1.2109   25.1687 C   0  0  0  0  0  0  0  0  0  0  0  0
    9.5426   -1.5826   26.1934 H   0  0  0  0  0  0  0  0  0  0  0  0
   10.4882   -1.1775   24.7741 H   0  0  0  0  0  0  0  0  0  0  0  0
    8.9322    0.1428   25.1935 N   0  0  0  0  0  0  0  0  0  0  0  0
    9.2216    1.0903   24.2107 C   0  0  0  0  0  0  0  0  0  0  0  0
   10.1757    1.0306   23.4747 O   0  0  0  0  0  0  0  0  0  0  0  0
    8.1561    2.1296   24.2825 C   0  0  0  0  0  0  0  0  0  0  0  0
    7.9468    3.2721   23.5031 C   0  0  0  0  0  0  0  0  0  0  0  0
    8.6394    3.5491   22.7109 H   0  0  0  0  0  0  0  0  0  0  0  0
    6.8075    4.0358   23.7731 C   0  0  0  0  0  0  0  0  0  0  0  0
    6.6080    4.9259   23.1809 H   0  0  0  0  0  0  0  0  0  0  0  0
    5.9052    3.6615   24.7940 C   0  0  0  0  0  0  0  0  0  0  0  0
    5.0229    4.2702   24.9749 H   0  0  0  0  0  0  0  0  0  0  0  0
    6.1270    2.5153   25.5660 C   0  0  0  0  0  0  0  0  0  0  0  0
    5.4291    2.2160   26.3444 H   0  0  0  0  0  0  0  0  0  0  0  0
    7.2703    1.7598   25.2875 C   0  0  0  0  0  0  0  0  0  0  0  0
    7.7558    0.4758   25.8665 C   0  0  0  0  0  0  0  0  0  0  0  0
    7.2620   -0.1893   26.7476 O   0  0  0  0  0  0  0  0  0  0  0  0
    7.6159   -3.0508   25.0494 C   0  0  0  0  0  0  0  0  0  0  0  0
    7.5328   -2.9451   26.1284 H   0  0  0  0  0  0  0  0  0  0  0  0
    6.6805   -3.2711   24.5460 H   0  0  0  0  0  0  0  0  0  0  0  0
    8.8617   -3.6568   24.5008 C   0  0  0  0  0  0  0  0  0  0  0  0
    9.6298   -3.9845   25.1977 H   0  0  0  0  0  0  0  0  0  0  0  0
    8.7756   -4.2808   23.6163 H   0  0  0  0  0  0  0  0  0  0  0  0
    6.8181   -0.8614   22.5767 S   0  0  0  0  0  0  0  0  0  0  0  0
    5.4427    0.6486   20.1676 C   0  0  0  0  0  0  0  0  0  0  0  0
    5.0005    0.6370   21.1702 H   0  0  0  0  0  0  0  0  0  0  0  0
    4.8099    1.3056   19.1120 C   0  0  0  0  0  0  0  0  0  0  0  0
    3.8790    1.8390   19.2616 H   0  0  0  0  0  0  0  0  0  0  0  0
  1  2  1  0
  2  3  2  0
  3  4  1  0
  4  5  1  0
  4  6  2  0
  6  7  1  0
  7  8  2  0
  8  9  1  0
  9 10  2  0
 10 11  1  0
 11 12  1  0
 12 13  1  0
 12 14  1  0
 12 15  1  0
 15 16  1  0
 16 17  2  0
 16 18  1  0
 18 19  2  0
 19 20  1  0
 19 21  1  0
 21 22  1  0
 21 23  2  0
 23 24  1  0
 23 25  1  0
 25 26  1  0
 25 27  2  0
 27 28  1  0
 28 29  2  0
 11 30  1  0
 30 31  1  0
 30 32  1  0
 30 33  1  0
 33 34  1  0
 33 35  1  0
 10 36  1  0
  6 37  1  0
 37 38  1  0
 37 39  2  0
 39 40  1  0
 39  2  1  0
 36  7  1  0
 33 11  1  0
 28 15  1  0
 27 18  1  0
M  END
>  <cnnaffinity>  (1) 
-5.72425

>  <filename>  (1) 
[H]c1nc([H])c(-c2nnc(C3(C([H])([H])N4C(=O)c5c([H])c([H])c([H])c([H])c5C4=O)C([H])([H])C3([H])[H])s2)c([H])c1[H]

$$$$
