
     RDKit          3D

 28 30  0  0  0  0  0  0  0  0999 V2000
    5.8514   -0.2225   21.5714 H   0  0  0  0  0  0  0  0  0  0  0  0
    6.6276    0.0237   20.8516 C   0  0  0  0  0  0  0  0  0  0  0  0
    7.8905   -0.2408   21.2106 C   0  0  0  0  0  0  0  0  0  0  0  0
    8.9065    0.2304   20.4357 F   0  0  0  0  0  0  0  0  0  0  0  0
    8.3450   -1.0684   22.3443 C   0  0  0  0  0  0  0  0  0  0  0  0
    7.4603   -1.2567   23.4581 C   0  0  0  0  0  0  0  0  0  0  0  0
    6.5099   -0.7329   23.4829 H   0  0  0  0  0  0  0  0  0  0  0  0
    7.7796   -2.0670   24.5281 C   0  0  0  0  0  0  0  0  0  0  0  0
    7.1404   -2.1382   25.4009 H   0  0  0  0  0  0  0  0  0  0  0  0
    9.0046   -2.7634   24.4481 C   0  0  0  0  0  0  0  0  0  0  0  0
    9.9235   -2.5618   23.3968 C   0  0  0  0  0  0  0  0  0  0  0  0
   11.0266   -3.3970   23.7452 C   0  0  0  0  0  0  0  0  0  0  0  0
   11.9573   -3.5127   23.2056 H   0  0  0  0  0  0  0  0  0  0  0  0
   10.8004   -4.0646   24.8587 N   0  0  0  0  0  0  0  0  0  0  0  0
    9.5797   -3.6654   25.2852 N   0  0  0  0  0  0  0  0  0  0  0  0
    9.1311   -4.1239   26.0634 H   0  0  0  0  0  0  0  0  0  0  0  0
    9.5943   -1.6948   22.3234 C   0  0  0  0  0  0  0  0  0  0  0  0
   10.2818   -1.5244   21.4992 H   0  0  0  0  0  0  0  0  0  0  0  0
    6.1559    0.5864   19.5732 C   0  0  0  0  0  0  0  0  0  0  0  0
    6.9583    0.6210   18.4085 C   0  0  0  0  0  0  0  0  0  0  0  0
    7.9606    0.2062   18.4427 H   0  0  0  0  0  0  0  0  0  0  0  0
    6.5517    1.1102   17.2307 N   0  0  0  0  0  0  0  0  0  0  0  0
    5.3098    1.6106   17.1730 C   0  0  0  0  0  0  0  0  0  0  0  0
    5.0204    2.0317   16.2140 H   0  0  0  0  0  0  0  0  0  0  0  0
    4.4213    1.6159   18.2545 C   0  0  0  0  0  0  0  0  0  0  0  0
    3.4381    2.0556   18.1293 H   0  0  0  0  0  0  0  0  0  0  0  0
    4.8497    1.0963   19.4753 C   0  0  0  0  0  0  0  0  0  0  0  0
    4.1917    1.1078   20.3436 H   0  0  0  0  0  0  0  0  0  0  0  0
  1  2  1  0
  2  3  2  3
  3  4  1  0
  3  5  1  0
  5  6  2  0
  6  7  1  0
  6  8  1  0
  8  9  1  0
  8 10  2  0
 10 11  1  0
 11 12  1  0
 12 13  1  0
 12 14  2  0
 14 15  1  0
 15 16  1  0
 11 17  2  0
 17 18  1  0
  2 19  1  0
 19 20  2  0
 20 21  1  0
 20 22  1  0
 22 23  2  0
 23 24  1  0
 23 25  1  0
 25 26  1  0
 25 27  2  0
 27 28  1  0
 17  5  1  0
 27 19  1  0
 15 10  1  0
M  END
>  <cnnaffinity>  (1) 
-4.98206

>  <filename>  (1) 
[H]C(=C(F)c1c([H])c([H])c2c(c([H])nn2[H])c1[H])c1c([H])nc([H])c([H])c1[H]

$$$$
