
     RDKit          3D

 35 37  0  0  0  0  0  0  0  0999 V2000
    4.9328    1.7954   16.9902 H   0  0  0  0  0  0  0  0  0  0  0  0
    5.4037    1.2918   17.8324 C   0  0  0  0  0  0  0  0  0  0  0  0
    6.5661    0.6731   17.5709 N   0  0  0  0  0  0  0  0  0  0  0  0
    7.1741    0.0569   18.5937 C   0  0  0  0  0  0  0  0  0  0  0  0
    8.1227   -0.4223   18.3474 H   0  0  0  0  0  0  0  0  0  0  0  0
    6.6697    0.0016   19.9076 C   0  0  0  0  0  0  0  0  0  0  0  0
    7.3862   -0.7261   21.0221 C   0  0  0  0  0  0  0  0  0  0  0  0
    8.3273   -1.1604   20.6613 H   0  0  0  0  0  0  0  0  0  0  0  0
    6.5444   -1.7693   21.8300 C   0  0  0  0  0  0  0  0  0  0  0  0
    6.9673   -2.7767   21.8753 H   0  0  0  0  0  0  0  0  0  0  0  0
    5.4868   -1.8773   21.5543 H   0  0  0  0  0  0  0  0  0  0  0  0
    6.8050   -0.9837   23.0368 N   0  0  0  0  0  0  0  0  0  0  0  0
    6.3315   -0.9177   24.3211 C   0  0  0  0  0  0  0  0  0  0  0  0
    6.6149    0.0346   25.0302 O   0  0  0  0  0  0  0  0  0  0  0  0
    5.4444   -2.0827   24.8025 C   0  0  0  0  0  0  0  0  0  0  0  0
    5.8756   -3.4067   24.5859 C   0  0  0  0  0  0  0  0  0  0  0  0
    6.8217   -3.5892   24.0853 H   0  0  0  0  0  0  0  0  0  0  0  0
    5.1335   -4.5070   25.0158 C   0  0  0  0  0  0  0  0  0  0  0  0
    5.5078   -5.5141   24.8500 H   0  0  0  0  0  0  0  0  0  0  0  0
    3.9212   -4.3079   25.6732 C   0  0  0  0  0  0  0  0  0  0  0  0
    3.3404   -5.1571   26.0214 H   0  0  0  0  0  0  0  0  0  0  0  0
    3.4607   -3.0100   25.8872 C   0  0  0  0  0  0  0  0  0  0  0  0
    2.5118   -2.8731   26.3990 H   0  0  0  0  0  0  0  0  0  0  0  0
    4.1963   -1.8894   25.4632 C   0  0  0  0  0  0  0  0  0  0  0  0
    3.6185   -0.5023   25.7778 C   0  0  0  0  0  0  0  0  0  0  0  0
    2.2951   -0.5557   26.0418 F   0  0  0  0  0  0  0  0  0  0  0  0
    3.7668    0.3776   24.7768 F   0  0  0  0  0  0  0  0  0  0  0  0
    4.2028    0.0383   26.8567 F   0  0  0  0  0  0  0  0  0  0  0  0
    7.5901    0.0436   22.3677 C   0  0  0  0  0  0  0  0  0  0  0  0
    8.6132    0.1060   22.7505 H   0  0  0  0  0  0  0  0  0  0  0  0
    7.1809    1.0613   22.4230 H   0  0  0  0  0  0  0  0  0  0  0  0
    5.4481    0.6522   20.1482 C   0  0  0  0  0  0  0  0  0  0  0  0
    5.0118    0.6426   21.1503 H   0  0  0  0  0  0  0  0  0  0  0  0
    4.8057    1.3097   19.0965 C   0  0  0  0  0  0  0  0  0  0  0  0
    3.8713    1.8417   19.2457 H   0  0  0  0  0  0  0  0  0  0  0  0
  1  2  1  0
  2  3  2  0
  3  4  1  0
  4  5  1  0
  4  6  2  0
  6  7  1  0
  7  8  1  0
  7  9  1  0
  9 10  1  0
  9 11  1  0
  9 12  1  0
 12 13  1  0
 13 14  2  0
 13 15  1  0
 15 16  2  0
 16 17  1  0
 16 18  1  0
 18 19  1  0
 18 20  2  0
 20 21  1  0
 20 22  1  0
 22 23  1  0
 22 24  2  0
 24 25  1  0
 25 26  1  0
 25 27  1  0
 25 28  1  0
 12 29  1  0
 29 30  1  0
 29 31  1  0
  6 32  1  0
 32 33  1  0
 32 34  2  0
 34 35  1  0
 34  2  1  0
 29  7  1  0
 24 15  1  0
M  END
>  <cnnaffinity>  (1) 
-4.765

>  <filename>  (1) 
[H]c1nc([H])c(C2([H])C([H])([H])N(C(=O)c3c([H])c([H])c([H])c([H])c3C(F)(F)F)C2([H])[H])c([H])c1[H]

$$$$
