
     RDKit          3D

 42 44  0  0  0  0  0  0  0  0999 V2000
    5.0168    1.8047   16.9573 H   0  0  0  0  0  0  0  0  0  0  0  0
    5.4608    1.3039   17.8167 C   0  0  0  0  0  0  0  0  0  0  0  0
    6.6407    0.7028   17.5950 N   0  0  0  0  0  0  0  0  0  0  0  0
    7.2155    0.0869   18.6383 C   0  0  0  0  0  0  0  0  0  0  0  0
    8.1873   -0.3743   18.4456 H   0  0  0  0  0  0  0  0  0  0  0  0
    6.6470    0.0124   19.9312 C   0  0  0  0  0  0  0  0  0  0  0  0
    7.3428   -0.7036   21.0941 C   0  0  2  0  0  0  0  0  0  0  0  0
    8.2134   -1.2194   20.6829 H   0  0  0  0  0  0  0  0  0  0  0  0
    6.5309   -1.8169   21.7731 C   0  0  0  0  0  0  0  0  0  0  0  0
    5.9664   -2.7555   21.2526 O   0  0  0  0  0  0  0  0  0  0  0  0
    6.5310   -1.6062   23.1208 N   0  0  0  0  0  0  0  0  0  0  0  0
    5.7401   -2.0456   23.5730 H   0  0  0  0  0  0  0  0  0  0  0  0
    6.9792   -0.2791   23.4987 C   0  0  0  0  0  0  0  0  0  0  0  0
    6.1251    0.3843   23.6991 H   0  0  0  0  0  0  0  0  0  0  0  0
    7.5876   -0.3191   24.4116 H   0  0  0  0  0  0  0  0  0  0  0  0
    7.7777    0.2222   22.2782 C   0  0  1  0  0  0  0  0  0  0  0  0
    7.5195    1.2665   22.0601 H   0  0  0  0  0  0  0  0  0  0  0  0
    9.2260    0.1869   22.5098 N   0  0  0  0  0  0  0  0  0  0  0  0
    9.5944   -0.5402   23.1052 H   0  0  0  0  0  0  0  0  0  0  0  0
   10.0691    0.6542   21.5324 C   0  0  0  0  0  0  0  0  0  0  0  0
    9.6196    1.1160   20.5001 O   0  0  0  0  0  0  0  0  0  0  0  0
   11.5728    0.5205   21.7736 C   0  0  0  0  0  0  0  0  0  0  0  0
   11.9775    1.0561   20.9139 H   0  0  0  0  0  0  0  0  0  0  0  0
   12.1357    1.2542   23.0205 C   0  0  0  0  0  0  0  0  0  0  0  0
   12.3799    2.2802   22.7175 H   0  0  0  0  0  0  0  0  0  0  0  0
   11.3670    1.3400   23.7986 H   0  0  0  0  0  0  0  0  0  0  0  0
   13.3877    0.5878   23.6327 C   0  0  0  0  0  0  0  0  0  0  0  0
   13.0595   -0.0811   24.4343 H   0  0  0  0  0  0  0  0  0  0  0  0
   13.9985    1.3544   24.1216 H   0  0  0  0  0  0  0  0  0  0  0  0
   14.2645   -0.2056   22.6451 C   0  0  0  0  0  0  0  0  0  0  0  0
   14.9987   -0.7710   23.2215 H   0  0  0  0  0  0  0  0  0  0  0  0
   14.8346    0.4961   22.0249 H   0  0  0  0  0  0  0  0  0  0  0  0
   13.4927   -1.1961   21.7385 C   0  0  0  0  0  0  0  0  0  0  0  0
   13.8804   -1.1374   20.7153 H   0  0  0  0  0  0  0  0  0  0  0  0
   13.6834   -2.2346   22.0339 H   0  0  0  0  0  0  0  0  0  0  0  0
   11.9727   -0.9694   21.7209 C   0  0  0  0  0  0  0  0  0  0  0  0
   11.5123   -1.4943   22.5704 H   0  0  0  0  0  0  0  0  0  0  0  0
   11.5476   -1.4309   20.8276 H   0  0  0  0  0  0  0  0  0  0  0  0
    5.4181    0.6514   20.1288 C   0  0  0  0  0  0  0  0  0  0  0  0
    4.9439    0.6357   21.1127 H   0  0  0  0  0  0  0  0  0  0  0  0
    4.8123    1.3071   19.0543 C   0  0  0  0  0  0  0  0  0  0  0  0
    3.8688    1.8299   19.1699 H   0  0  0  0  0  0  0  0  0  0  0  0
  1  2  1  0
  2  3  2  0
  3  4  1  0
  4  5  1  0
  4  6  2  0
  6  7  1  0
  7  8  1  6
  7  9  1  0
  9 10  2  0
  9 11  1  0
 11 12  1  0
 11 13  1  0
 13 14  1  0
 13 15  1  0
 13 16  1  0
 16 17  1  6
 16 18  1  0
 18 19  1  0
 18 20  1  0
 20 21  2  0
 20 22  1  0
 22 23  1  0
 22 24  1  0
 24 25  1  0
 24 26  1  0
 24 27  1  0
 27 28  1  0
 27 29  1  0
 27 30  1  0
 30 31  1  0
 30 32  1  0
 30 33  1  0
 33 34  1  0
 33 35  1  0
 33 36  1  0
 36 37  1  0
 36 38  1  0
  6 39  1  0
 39 40  1  0
 39 41  2  0
 41 42  1  0
 41  2  1  0
 16  7  1  0
 36 22  1  0
M  END
>  <cnnaffinity>  (1) 
-5.86583

>  <filename>  (1) 
[H]c1nc([H])c([C@]2([H])C(=O)N([H])C([H])([H])[C@@]2([H])N([H])C(=O)C2([H])C([H])([H])C([H])([H])C([H])([H])C([H])([H])C2([H])[H])c([H])c1[H]

$$$$
