
     RDKit          3D

 42 45  0  0  0  0  0  0  0  0999 V2000
    4.7905    1.3199   19.0906 C   0  0  0  0  0  0  0  0  0  0  0  0
    5.3964    1.2992   17.8288 C   0  0  0  0  0  0  0  0  0  0  0  0
    6.5573    0.6710   17.5758 N   0  0  0  0  0  0  0  0  0  0  0  0
    7.1508    0.0418   18.5905 C   0  0  0  0  0  0  0  0  0  0  0  0
    6.6336    0.0172   19.8917 C   0  0  0  0  0  0  0  0  0  0  0  0
    7.3958   -0.6992   20.9036 C   0  0  0  0  0  0  0  0  0  0  0  0
    7.8768   -1.9185   20.7771 N   0  0  0  0  0  0  0  0  0  0  0  0
    8.4713   -2.1343   21.9757 C   0  0  0  0  0  0  0  0  0  0  0  0
    9.1023   -3.4379   22.2989 C   0  0  0  0  0  0  0  0  0  0  0  0
    8.5940   -4.1024   23.5628 C   0  0  0  0  0  0  0  0  0  0  0  0
    7.3053   -4.8657   23.4608 C   0  0  0  0  0  0  0  0  0  0  0  0
    8.6052   -5.5993   23.6750 C   0  0  0  0  0  0  0  0  0  0  0  0
    8.9996   -6.1833   22.8454 H   0  0  0  0  0  0  0  0  0  0  0  0
    8.8081   -6.0478   24.6443 H   0  0  0  0  0  0  0  0  0  0  0  0
    6.8435   -4.9345   22.4759 H   0  0  0  0  0  0  0  0  0  0  0  0
    6.5898   -4.7798   24.2756 H   0  0  0  0  0  0  0  0  0  0  0  0
    8.7779   -3.5344   24.4789 H   0  0  0  0  0  0  0  0  0  0  0  0
   10.1843   -3.2720   22.3503 H   0  0  0  0  0  0  0  0  0  0  0  0
    8.8620   -4.0651   21.4348 H   0  0  0  0  0  0  0  0  0  0  0  0
    8.4594   -1.1012   22.7945 N   0  0  0  0  0  0  0  0  0  0  0  0
    7.7289   -0.1907   22.1105 N   0  0  0  0  0  0  0  0  0  0  0  0
    7.4587    1.0990   22.7248 C   0  0  0  0  0  0  0  0  0  0  0  0
    6.3753    1.0415   23.8190 C   0  0  0  0  0  0  0  0  0  0  0  0
    6.7790    0.2014   25.0070 C   0  0  0  0  0  0  0  0  0  0  0  0
    7.6976    0.6832   25.9516 C   0  0  0  0  0  0  0  0  0  0  0  0
    8.1088   -0.1538   26.9960 C   0  0  0  0  0  0  0  0  0  0  0  0
    7.6748   -1.4122   27.1480 N   0  0  0  0  0  0  0  0  0  0  0  0
    6.8078   -1.8738   26.2369 C   0  0  0  0  0  0  0  0  0  0  0  0
    6.3355   -1.1162   25.1621 C   0  0  0  0  0  0  0  0  0  0  0  0
    5.6917   -1.5792   24.4235 H   0  0  0  0  0  0  0  0  0  0  0  0
    6.4804   -2.9078   26.3686 H   0  0  0  0  0  0  0  0  0  0  0  0
    8.8204    0.2008   27.7428 H   0  0  0  0  0  0  0  0  0  0  0  0
    8.1052    1.6852   25.8693 H   0  0  0  0  0  0  0  0  0  0  0  0
    5.4393    0.6614   23.3929 H   0  0  0  0  0  0  0  0  0  0  0  0
    6.1830    2.0700   24.1400 H   0  0  0  0  0  0  0  0  0  0  0  0
    8.4158    1.4176   23.1493 H   0  0  0  0  0  0  0  0  0  0  0  0
    7.1825    1.7954   21.9257 H   0  0  0  0  0  0  0  0  0  0  0  0
    5.4191    0.6672   20.1451 C   0  0  0  0  0  0  0  0  0  0  0  0
    4.9743    0.6558   21.1407 H   0  0  0  0  0  0  0  0  0  0  0  0
    8.1000   -0.4506   18.3753 H   0  0  0  0  0  0  0  0  0  0  0  0
    4.9326    1.7993   16.9823 H   0  0  0  0  0  0  0  0  0  0  0  0
    3.8586    1.8529   19.2351 H   0  0  0  0  0  0  0  0  0  0  0  0
  1  2  2  0
  2  3  1  0
  3  4  2  0
  4  5  1  0
  5  6  1  0
  6  7  2  0
  7  8  1  0
  8  9  1  0
  9 10  1  0
 10 11  1  0
 11 12  1  0
 12 13  1  0
 12 14  1  0
 11 15  1  0
 11 16  1  0
 10 17  1  0
  9 18  1  0
  9 19  1  0
  8 20  2  0
 20 21  1  0
 21 22  1  0
 22 23  1  0
 23 24  1  0
 24 25  2  0
 25 26  1  0
 26 27  2  0
 27 28  1  0
 28 29  2  0
 29 30  1  0
 28 31  1  0
 26 32  1  0
 25 33  1  0
 23 34  1  0
 23 35  1  0
 22 36  1  0
 22 37  1  0
  5 38  2  0
 38 39  1  0
  4 40  1  0
  2 41  1  0
  1 42  1  0
 38  1  1  0
 21  6  1  0
 29 24  1  0
 12 10  1  0
M  END
>  <cnnaffinity>  (1) 
-5.76907

>  <filename>  (1) 
[H]c1nc([H])c(-c2nc(C([H])([H])C3([H])C([H])([H])C3([H])[H])nn2C([H])([H])C([H])([H])c2c([H])c([H])nc([H])c2[H])c([H])c1[H]

$$$$
