
     RDKit          3D

 42 44  0  0  0  0  0  0  0  0999 V2000
    4.9593    1.8791   16.9269 H   0  0  0  0  0  0  0  0  0  0  0  0
    5.4208    1.3380   17.7511 C   0  0  0  0  0  0  0  0  0  0  0  0
    6.6004    0.7473   17.4959 N   0  0  0  0  0  0  0  0  0  0  0  0
    7.1966    0.1128   18.5161 C   0  0  0  0  0  0  0  0  0  0  0  0
    8.1579   -0.3470   18.2918 H   0  0  0  0  0  0  0  0  0  0  0  0
    6.6708   -0.0030   19.8361 C   0  0  0  0  0  0  0  0  0  0  0  0
    7.3515   -0.6443   20.8684 N   0  0  0  0  0  0  0  0  0  0  0  0
    8.8159   -0.5886   20.9288 C   0  0  0  0  0  0  0  0  0  0  0  0
    9.1675    0.3787   20.5511 H   0  0  0  0  0  0  0  0  0  0  0  0
    9.2580   -1.3645   20.2759 H   0  0  0  0  0  0  0  0  0  0  0  0
    9.2770   -0.7721   22.3741 C   0  0  0  0  0  0  0  0  0  0  0  0
   10.3522   -0.5944   22.4604 H   0  0  0  0  0  0  0  0  0  0  0  0
    8.7841   -0.0071   22.9914 H   0  0  0  0  0  0  0  0  0  0  0  0
    8.9028   -2.1820   22.8782 C   0  0  0  0  0  0  0  0  0  0  0  0
    9.6431   -2.8759   22.4445 H   0  0  0  0  0  0  0  0  0  0  0  0
    8.9950   -2.3164   24.4155 C   0  0  0  0  0  0  0  0  0  0  0  0
    9.9526   -1.8856   24.7557 H   0  0  0  0  0  0  0  0  0  0  0  0
    7.8803   -1.5657   25.1860 C   0  0  0  0  0  0  0  0  0  0  0  0
    6.8968   -1.9267   24.8422 H   0  0  0  0  0  0  0  0  0  0  0  0
    7.9247   -0.4839   24.9886 H   0  0  0  0  0  0  0  0  0  0  0  0
    7.9490   -1.8211   26.7021 C   0  0  0  0  0  0  0  0  0  0  0  0
    7.1326   -1.2882   27.2046 H   0  0  0  0  0  0  0  0  0  0  0  0
    8.8830   -1.3981   27.1052 H   0  0  0  0  0  0  0  0  0  0  0  0
    7.8878   -3.3343   26.9722 C   0  0  0  0  0  0  0  0  0  0  0  0
    6.9373   -3.7221   26.5668 H   0  0  0  0  0  0  0  0  0  0  0  0
    7.8978   -3.5875   28.0334 H   0  0  0  0  0  0  0  0  0  0  0  0
    9.0621   -4.0394   26.2882 C   0  0  0  0  0  0  0  0  0  0  0  0
    9.0670   -5.1117   26.5082 H   0  0  0  0  0  0  0  0  0  0  0  0
   10.0063   -3.6332   26.6798 H   0  0  0  0  0  0  0  0  0  0  0  0
    9.0205   -3.8142   24.7806 C   0  0  0  0  0  0  0  0  0  0  0  0
    9.8917   -4.2886   24.3063 H   0  0  0  0  0  0  0  0  0  0  0  0
    8.1149   -4.2935   24.3739 H   0  0  0  0  0  0  0  0  0  0  0  0
    7.5031   -2.6025   22.3353 C   0  0  0  0  0  0  0  0  0  0  0  0
    6.9465   -3.1749   23.0825 H   0  0  0  0  0  0  0  0  0  0  0  0
    7.6090   -3.2746   21.4742 H   0  0  0  0  0  0  0  0  0  0  0  0
    6.6620   -1.3855   21.9287 C   0  0  0  0  0  0  0  0  0  0  0  0
    6.4995   -0.7402   22.8115 H   0  0  0  0  0  0  0  0  0  0  0  0
    5.6766   -1.7162   21.5843 H   0  0  0  0  0  0  0  0  0  0  0  0
    5.4156    0.6019   20.0575 C   0  0  0  0  0  0  0  0  0  0  0  0
    4.9744    0.5648   21.0537 H   0  0  0  0  0  0  0  0  0  0  0  0
    4.7971    1.2815   19.0031 C   0  0  0  0  0  0  0  0  0  0  0  0
    3.8464    1.7835   19.1538 H   0  0  0  0  0  0  0  0  0  0  0  0
  1  2  1  0
  2  3  2  0
  3  4  1  0
  4  5  1  0
  4  6  2  0
  6  7  1  0
  7  8  1  0
  8  9  1  0
  8 10  1  0
  8 11  1  0
 11 12  1  0
 11 13  1  0
 11 14  1  0
 14 15  1  0
 14 16  1  0
 16 17  1  0
 16 18  1  0
 18 19  1  0
 18 20  1  0
 18 21  1  0
 21 22  1  0
 21 23  1  0
 21 24  1  0
 24 25  1  0
 24 26  1  0
 24 27  1  0
 27 28  1  0
 27 29  1  0
 27 30  1  0
 30 31  1  0
 30 32  1  0
 14 33  1  0
 33 34  1  0
 33 35  1  0
 33 36  1  0
 36 37  1  0
 36 38  1  0
  6 39  1  0
 39 40  1  0
 39 41  2  0
 41 42  1  0
 41  2  1  0
 36  7  1  0
 30 16  1  0
M  END
>  <cnnaffinity>  (1) 
-5.08596

>  <filename>  (1) 
[H]c1nc([H])c(N2C([H])([H])C([H])([H])C([H])(C3([H])C([H])([H])C([H])([H])C([H])([H])C([H])([H])C3([H])[H])C([H])([H])C2([H])[H])c([H])c1[H]

$$$$
