
     RDKit          3D

 40 42  0  0  0  0  0  0  0  0999 V2000
    4.9521    1.8587   16.8900 H   0  0  0  0  0  0  0  0  0  0  0  0
    5.4314    1.3418   17.7225 C   0  0  0  0  0  0  0  0  0  0  0  0
    6.5863    0.7111   17.4540 N   0  0  0  0  0  0  0  0  0  0  0  0
    7.2030    0.0843   18.4641 C   0  0  0  0  0  0  0  0  0  0  0  0
    8.1197   -0.4396   18.2017 H   0  0  0  0  0  0  0  0  0  0  0  0
    6.7225    0.0471   19.7840 C   0  0  0  0  0  0  0  0  0  0  0  0
    7.4204   -0.6569   20.8618 C   0  0  0  0  0  0  0  0  0  0  0  0
    6.9087   -1.1639   22.0049 C   0  0  0  0  0  0  0  0  0  0  0  0
    5.8924   -1.2993   22.3239 H   0  0  0  0  0  0  0  0  0  0  0  0
    7.9561   -1.6440   22.7651 N   0  0  0  0  0  0  0  0  0  0  0  0
    7.7735   -2.2950   24.0502 C   0  0  0  0  0  0  0  0  0  0  0  0
    6.9190   -1.8322   24.5592 H   0  0  0  0  0  0  0  0  0  0  0  0
    8.6632   -2.1290   24.6705 H   0  0  0  0  0  0  0  0  0  0  0  0
    7.4843   -3.7819   23.8593 C   0  0  0  0  0  0  0  0  0  0  0  0
    8.3192   -4.2559   23.3029 H   0  0  0  0  0  0  0  0  0  0  0  0
    6.5970   -3.8765   23.2186 H   0  0  0  0  0  0  0  0  0  0  0  0
    7.2149   -4.4085   25.1293 N   0  0  0  0  0  0  0  0  0  0  0  0
    6.5553   -5.7093   25.0531 C   0  0  0  0  0  0  0  0  0  0  0  0
    5.4612   -5.5959   25.0738 H   0  0  0  0  0  0  0  0  0  0  0  0
    6.8050   -6.2144   24.1063 H   0  0  0  0  0  0  0  0  0  0  0  0
    7.0934   -6.4796   26.2669 C   0  0  0  0  0  0  0  0  0  0  0  0
    6.3320   -7.0879   26.7511 H   0  0  0  0  0  0  0  0  0  0  0  0
    7.9122   -7.1308   25.9422 H   0  0  0  0  0  0  0  0  0  0  0  0
    7.6855   -5.3791   27.1462 C   0  0  0  0  0  0  0  0  0  0  0  0
    8.3879   -5.7112   27.9169 H   0  0  0  0  0  0  0  0  0  0  0  0
    6.8786   -4.8149   27.6216 H   0  0  0  0  0  0  0  0  0  0  0  0
    8.3259   -4.4779   26.0924 C   0  0  1  0  0  0  0  0  0  0  0  0
    8.5383   -3.4833   26.5117 H   0  0  0  0  0  0  0  0  0  0  0  0
    9.6143   -5.0628   25.4848 C   0  0  0  0  0  0  0  0  0  0  0  0
   10.3315   -5.3518   26.2595 H   0  0  0  0  0  0  0  0  0  0  0  0
   10.1004   -4.3517   24.8126 H   0  0  0  0  0  0  0  0  0  0  0  0
    9.3746   -5.9514   24.8875 H   0  0  0  0  0  0  0  0  0  0  0  0
    9.1244   -1.5423   22.0771 C   0  0  0  0  0  0  0  0  0  0  0  0
   10.6375   -2.1018   22.5041 S   0  0  0  0  0  0  0  0  0  0  0  0
    8.7863   -0.9135   20.9178 N   0  0  0  0  0  0  0  0  0  0  0  0
    9.5126   -0.6605   20.2730 H   0  0  0  0  0  0  0  0  0  0  0  0
    5.5015    0.6992   20.0376 C   0  0  0  0  0  0  0  0  0  0  0  0
    5.0820    0.7043   21.0441 H   0  0  0  0  0  0  0  0  0  0  0  0
    4.8467    1.3495   18.9928 C   0  0  0  0  0  0  0  0  0  0  0  0
    3.9059    1.8663   19.1425 H   0  0  0  0  0  0  0  0  0  0  0  0
  1  2  1  0
  2  3  2  0
  3  4  1  0
  4  5  1  0
  4  6  2  0
  6  7  1  0
  7  8  2  0
  8  9  1  0
  8 10  1  0
 10 11  1  0
 11 12  1  0
 11 13  1  0
 11 14  1  0
 14 15  1  0
 14 16  1  0
 14 17  1  0
 17 18  1  0
 18 19  1  0
 18 20  1  0
 18 21  1  0
 21 22  1  0
 21 23  1  0
 21 24  1  0
 24 25  1  0
 24 26  1  0
 24 27  1  0
 27 28  1  1
 27 29  1  0
 29 30  1  0
 29 31  1  0
 29 32  1  0
 10 33  1  0
 33 34  2  0
 33 35  1  0
 35 36  1  0
  6 37  1  0
 37 38  1  0
 37 39  2  0
 39 40  1  0
 39  2  1  0
 35  7  1  0
 27 17  1  0
M  END
>  <cnnaffinity>  (1) 
-5.29012

>  <filename>  (1) 
[H]c1nc([H])c(-c2c([H])n(C([H])([H])C([H])([H])N3C([H])([H])C([H])([H])C([H])([H])[C@@]3([H])C([H])([H])[H])c(=S)n2[H])c([H])c1[H]

$$$$
