
     RDKit          3D

 36 39  0  0  0  0  0  0  0  0999 V2000
    4.9566    1.8292   16.9614 H   0  0  0  0  0  0  0  0  0  0  0  0
    5.3971    1.2962   17.8029 C   0  0  0  0  0  0  0  0  0  0  0  0
    6.5463    0.6449   17.5625 N   0  0  0  0  0  0  0  0  0  0  0  0
    7.1268    0.0056   18.5822 C   0  0  0  0  0  0  0  0  0  0  0  0
    8.0651   -0.5001   18.3592 H   0  0  0  0  0  0  0  0  0  0  0  0
    6.6174   -0.0043   19.8885 C   0  0  0  0  0  0  0  0  0  0  0  0
    7.3919   -0.6544   20.9437 C   0  0  0  0  0  0  0  0  0  0  0  0
    7.8863   -1.9321   20.8016 N   0  0  0  0  0  0  0  0  0  0  0  0
    8.4688   -2.1636   21.9422 C   0  0  0  0  0  0  0  0  0  0  0  0
    8.4936   -1.0845   22.7634 N   0  0  0  0  0  0  0  0  0  0  0  0
    7.7596   -0.1034   22.1630 C   0  0  0  0  0  0  0  0  0  0  0  0
    7.5637    1.2340   22.8125 C   0  0  0  0  0  0  0  0  0  0  0  0
    6.8945    1.8210   22.1797 H   0  0  0  0  0  0  0  0  0  0  0  0
    8.5236    1.7663   22.8120 H   0  0  0  0  0  0  0  0  0  0  0  0
    7.0000    1.1855   24.2264 C   0  0  0  0  0  0  0  0  0  0  0  0
    7.7601    1.5314   25.3532 C   0  0  0  0  0  0  0  0  0  0  0  0
    8.7822    1.8817   25.2345 H   0  0  0  0  0  0  0  0  0  0  0  0
    7.2199    1.4543   26.6382 C   0  0  0  0  0  0  0  0  0  0  0  0
    7.7903    1.7608   27.5092 H   0  0  0  0  0  0  0  0  0  0  0  0
    5.9098    1.0001   26.8211 C   0  0  0  0  0  0  0  0  0  0  0  0
    5.2733    0.9363   28.4280 Cl  0  0  0  0  0  0  0  0  0  0  0  0
    5.1374    0.6449   25.7057 C   0  0  0  0  0  0  0  0  0  0  0  0
    3.5255    0.0333   25.8655 Cl  0  0  0  0  0  0  0  0  0  0  0  0
    5.6746    0.7820   24.4237 C   0  0  0  0  0  0  0  0  0  0  0  0
    5.0231    0.5939   23.5781 H   0  0  0  0  0  0  0  0  0  0  0  0
    9.2298   -1.1940   24.0020 C   0  0  0  0  0  0  0  0  0  0  0  0
    9.7980   -0.2807   24.1979 H   0  0  0  0  0  0  0  0  0  0  0  0
    8.5308   -1.3462   24.8290 H   0  0  0  0  0  0  0  0  0  0  0  0
   10.1476   -2.4045   23.7833 C   0  0  0  0  0  0  0  0  0  0  0  0
   10.4470   -2.9018   24.7103 H   0  0  0  0  0  0  0  0  0  0  0  0
   11.0359   -2.1181   23.2144 H   0  0  0  0  0  0  0  0  0  0  0  0
    9.2086   -3.5557   22.7151 S   0  0  0  0  0  0  0  0  0  0  0  0
    5.3981    0.6579   20.1149 C   0  0  0  0  0  0  0  0  0  0  0  0
    4.9387    0.6597   21.1024 H   0  0  0  0  0  0  0  0  0  0  0  0
    4.7762    1.3131   19.0545 C   0  0  0  0  0  0  0  0  0  0  0  0
    3.8513    1.8609   19.1943 H   0  0  0  0  0  0  0  0  0  0  0  0
  1  2  1  0
  2  3  2  0
  3  4  1  0
  4  5  1  0
  4  6  2  0
  6  7  1  0
  7  8  1  0
  8  9  2  0
  9 10  1  0
 10 11  1  0
 11 12  1  0
 12 13  1  0
 12 14  1  0
 12 15  1  0
 15 16  2  0
 16 17  1  0
 16 18  1  0
 18 19  1  0
 18 20  2  0
 20 21  1  0
 20 22  1  0
 22 23  1  0
 22 24  2  0
 24 25  1  0
 10 26  1  0
 26 27  1  0
 26 28  1  0
 26 29  1  0
 29 30  1  0
 29 31  1  0
 29 32  1  0
  6 33  1  0
 33 34  1  0
 33 35  2  0
 35 36  1  0
 35  2  1  0
 11  7  2  0
 24 15  1  0
 32  9  1  0
M  END
>  <cnnaffinity>  (1) 
-5.7125

>  <filename>  (1) 
[H]c1nc([H])c(-c2nc3n(c2C([H])([H])c2c([H])c([H])c(Cl)c(Cl)c2[H])C([H])([H])C([H])([H])S3)c([H])c1[H]

$$$$
