
     RDKit          3D

 33 34  0  0  0  0  0  0  0  0999 V2000
    4.9230    2.3440   16.9986 H   0  0  0  0  0  0  0  0  0  0  0  0
    5.2968    1.6141   17.7122 C   0  0  0  0  0  0  0  0  0  0  0  0
    6.3933    0.9270   17.3443 N   0  0  0  0  0  0  0  0  0  0  0  0
    6.8724    0.0153   18.2027 C   0  0  0  0  0  0  0  0  0  0  0  0
    7.7661   -0.5340   17.9092 H   0  0  0  0  0  0  0  0  0  0  0  0
    6.2797   -0.2790   19.4553 C   0  0  0  0  0  0  0  0  0  0  0  0
    6.7473   -1.2810   20.3317 N   0  0  0  0  0  0  0  0  0  0  0  0
    6.2221   -1.3302   21.1991 H   0  0  0  0  0  0  0  0  0  0  0  0
    8.4024   -1.6457   20.5295 S   0  0  0  0  0  0  0  0  0  0  0  0
    9.3450   -0.1161   20.9184 C   0  0  0  0  0  0  0  0  0  0  0  0
    9.2276    0.8963   20.2676 O   0  0  0  0  0  0  0  0  0  0  0  0
   10.2611   -0.2784   21.9473 N   0  0  0  0  0  0  0  0  0  0  0  0
   10.0550   -1.2210   23.0694 C   0  0  0  0  0  0  0  0  0  0  0  0
    9.6175   -2.1659   22.7407 H   0  0  0  0  0  0  0  0  0  0  0  0
   11.0481   -1.4398   23.4815 H   0  0  0  0  0  0  0  0  0  0  0  0
    9.2369   -0.5171   24.1658 C   0  0  0  0  0  0  0  0  0  0  0  0
    8.9684   -1.2108   24.9704 H   0  0  0  0  0  0  0  0  0  0  0  0
    8.2770   -0.1423   23.7475 H   0  0  0  0  0  0  0  0  0  0  0  0
   10.0881    0.5602   24.6859 N   0  0  0  0  0  0  0  0  0  0  0  0
    9.6408    1.0940   25.9512 C   0  0  0  0  0  0  0  0  0  0  0  0
    8.7008    1.6754   25.9005 H   0  0  0  0  0  0  0  0  0  0  0  0
   10.4220    1.7373   26.3630 H   0  0  0  0  0  0  0  0  0  0  0  0
    9.4923    0.2671   26.6559 H   0  0  0  0  0  0  0  0  0  0  0  0
   10.3264    1.5703   23.6443 C   0  0  0  0  0  0  0  0  0  0  0  0
    9.3879    2.0780   23.3327 H   0  0  0  0  0  0  0  0  0  0  0  0
   10.9958    2.3470   24.0371 H   0  0  0  0  0  0  0  0  0  0  0  0
   10.9951    0.9263   22.4081 C   0  0  0  0  0  0  0  0  0  0  0  0
   11.0426    1.6430   21.5851 H   0  0  0  0  0  0  0  0  0  0  0  0
   12.0147    0.6159   22.6769 H   0  0  0  0  0  0  0  0  0  0  0  0
    5.1378    0.4491   19.8157 C   0  0  0  0  0  0  0  0  0  0  0  0
    4.6816    0.2658   20.7907 H   0  0  0  0  0  0  0  0  0  0  0  0
    4.6467    1.4158   18.9380 C   0  0  0  0  0  0  0  0  0  0  0  0
    3.7897    2.0298   19.2008 H   0  0  0  0  0  0  0  0  0  0  0  0
  1  2  1  0
  2  3  2  0
  3  4  1  0
  4  5  1  0
  4  6  2  0
  6  7  1  0
  7  8  1  0
  7  9  1  0
  9 10  1  0
 10 11  2  0
 10 12  1  0
 12 13  1  0
 13 14  1  0
 13 15  1  0
 13 16  1  0
 16 17  1  0
 16 18  1  0
 16 19  1  0
 19 20  1  0
 20 21  1  0
 20 22  1  0
 20 23  1  0
 19 24  1  0
 24 25  1  0
 24 26  1  0
 24 27  1  0
 27 28  1  0
 27 29  1  0
  6 30  1  0
 30 31  1  0
 30 32  2  0
 32 33  1  0
 32  2  1  0
 27 12  1  0
M  END
>  <cnnaffinity>  (1) 
-4.42451

>  <filename>  (1) 
[H]c1nc([H])c(N([H])SC(=O)N2C([H])([H])C([H])([H])N(C([H])([H])[H])C([H])([H])C2([H])[H])c([H])c1[H]

$$$$
