
     RDKit          3D

 40 43  0  0  0  0  0  0  0  0999 V2000
    9.2755    7.7897   23.8447 F   0  0  0  0  0  0  0  0  0  0  0  0
    9.2084    6.4621   24.0208 C   0  0  0  0  0  0  0  0  0  0  0  0
    9.2704    5.6275   22.8671 C   0  0  0  0  0  0  0  0  0  0  0  0
    9.2064    4.3107   22.9485 N   0  0  0  0  0  0  0  0  0  0  0  0
    9.0456    3.7564   24.1916 C   0  0  0  0  0  0  0  0  0  0  0  0
    8.8578    2.3439   24.3143 C   0  0  0  0  0  0  0  0  0  0  0  0
    8.8806    1.5010   23.0991 C   0  0  0  0  0  0  0  0  0  0  0  0
    7.9254    0.6489   22.7737 N   0  0  0  0  0  0  0  0  0  0  0  0
    8.3343    0.1514   21.5870 C   0  0  0  0  0  0  0  0  0  0  0  0
    7.5074   -0.7866   20.7565 C   0  0  0  0  0  0  0  0  0  0  0  0
    6.7060   -0.0902   19.6595 C   0  0  0  0  0  0  0  0  0  0  0  0
    5.5510    0.6469   19.9557 C   0  0  0  0  0  0  0  0  0  0  0  0
    4.8998    1.3284   18.9236 C   0  0  0  0  0  0  0  0  0  0  0  0
    5.4302    1.2626   17.6330 C   0  0  0  0  0  0  0  0  0  0  0  0
    6.5364    0.5686   17.3294 N   0  0  0  0  0  0  0  0  0  0  0  0
    7.1490   -0.0823   18.3256 C   0  0  0  0  0  0  0  0  0  0  0  0
    8.0578   -0.6230   18.0542 H   0  0  0  0  0  0  0  0  0  0  0  0
    4.9552    1.7940   16.8084 H   0  0  0  0  0  0  0  0  0  0  0  0
    4.0170    1.9294   19.1045 H   0  0  0  0  0  0  0  0  0  0  0  0
    5.1718    0.7032   20.9775 H   0  0  0  0  0  0  0  0  0  0  0  0
    6.8513   -1.3169   21.4529 H   0  0  0  0  0  0  0  0  0  0  0  0
    8.1867   -1.5214   20.3153 H   0  0  0  0  0  0  0  0  0  0  0  0
    9.5201    0.5750   21.1919 N   0  0  0  0  0  0  0  0  0  0  0  0
    9.8787    1.4468   22.1636 N   0  0  0  0  0  0  0  0  0  0  0  0
   11.2430    1.9601   22.1386 C   0  0  0  0  0  0  0  0  0  0  0  0
   12.2517    1.1305   22.9274 C   0  0  0  0  0  0  0  0  0  0  0  0
   12.3794   -0.1212   22.4745 F   0  0  0  0  0  0  0  0  0  0  0  0
   13.4652    1.7086   22.8401 F   0  0  0  0  0  0  0  0  0  0  0  0
   11.9247    1.0737   24.2280 F   0  0  0  0  0  0  0  0  0  0  0  0
   11.2701    2.9847   22.5099 H   0  0  0  0  0  0  0  0  0  0  0  0
   11.5519    1.9624   21.0950 H   0  0  0  0  0  0  0  0  0  0  0  0
    8.5798    1.8353   25.5813 C   0  0  0  0  0  0  0  0  0  0  0  0
    8.5961    2.6870   26.7154 C   0  0  0  0  0  0  0  0  0  0  0  0
    8.7905    3.9951   26.6540 N   0  0  0  0  0  0  0  0  0  0  0  0
    8.9839    4.5346   25.4181 C   0  0  0  0  0  0  0  0  0  0  0  0
    9.0779    5.9520   25.2841 C   0  0  0  0  0  0  0  0  0  0  0  0
    9.0096    6.5768   26.1708 H   0  0  0  0  0  0  0  0  0  0  0  0
    8.4463    2.2528   27.7049 H   0  0  0  0  0  0  0  0  0  0  0  0
    8.3336    0.7850   25.7245 H   0  0  0  0  0  0  0  0  0  0  0  0
    9.3871    6.0876   21.8890 H   0  0  0  0  0  0  0  0  0  0  0  0
  1  2  1  0
  2  3  2  0
  3  4  1  0
  4  5  2  0
  5  6  1  0
  6  7  1  0
  7  8  2  0
  8  9  1  0
  9 10  1  0
 10 11  1  0
 11 12  2  0
 12 13  1  0
 13 14  2  0
 14 15  1  0
 15 16  2  0
 16 17  1  0
 14 18  1  0
 13 19  1  0
 12 20  1  0
 10 21  1  0
 10 22  1  0
  9 23  2  0
 23 24  1  0
 24 25  1  0
 25 26  1  0
 26 27  1  0
 26 28  1  0
 26 29  1  0
 25 30  1  0
 25 31  1  0
  6 32  2  0
 32 33  1  0
 33 34  2  0
 34 35  1  0
 35 36  2  0
 36 37  1  0
 33 38  1  0
 32 39  1  0
  3 40  1  0
 36  2  1  0
 35  5  1  0
 24  7  1  0
 16 11  1  0
M  END
>  <cnnaffinity>  (1) 
-6.35241

>  <filename>  (1) 
[H]c1nc([H])c(C([H])([H])c2nc(-c3c([H])c([H])nc4c([H])c(F)c([H])nc34)n(C([H])([H])C(F)(F)F)n2)c([H])c1[H]

$$$$
