
     RDKit          3D

 48 52  0  0  0  0  0  0  0  0999 V2000
    8.0101    4.9744   23.2736 C   0  0  0  0  0  0  0  0  0  0  0  0
    7.7740    3.7380   24.1248 C   0  0  0  0  0  0  0  0  0  0  0  0
    7.6329    4.1278   25.4842 O   0  0  0  0  0  0  0  0  0  0  0  0
    8.1537    3.1393   26.3670 C   0  0  0  0  0  0  0  0  0  0  0  0
    8.7753    2.0349   25.4972 C   0  0  0  0  0  0  0  0  0  0  0  0
    8.9332    2.7353   24.1415 C   0  0  0  0  0  0  0  0  0  0  0  0
    8.9533    1.8502   22.9831 N   0  0  0  0  0  0  0  0  0  0  0  0
    7.8642    1.1001   22.6867 N   0  0  0  0  0  0  0  0  0  0  0  0
    8.2898    0.3249   21.7101 C   0  0  0  0  0  0  0  0  0  0  0  0
    7.3868   -0.6422   20.9968 C   0  0  0  0  0  0  0  0  0  0  0  0
    6.6164   -0.0159   19.8390 C   0  0  0  0  0  0  0  0  0  0  0  0
    5.4042    0.6426   20.0713 C   0  0  0  0  0  0  0  0  0  0  0  0
    4.7844    1.3205   19.0197 C   0  0  0  0  0  0  0  0  0  0  0  0
    5.3975    1.3062   17.7640 C   0  0  0  0  0  0  0  0  0  0  0  0
    6.5388    0.6487   17.5050 N   0  0  0  0  0  0  0  0  0  0  0  0
    7.1201    0.0045   18.5251 C   0  0  0  0  0  0  0  0  0  0  0  0
    8.0440   -0.5271   18.2887 H   0  0  0  0  0  0  0  0  0  0  0  0
    4.9554    1.8420   16.9262 H   0  0  0  0  0  0  0  0  0  0  0  0
    3.8578    1.8637   19.1652 H   0  0  0  0  0  0  0  0  0  0  0  0
    4.9695    0.6241   21.0718 H   0  0  0  0  0  0  0  0  0  0  0  0
    8.0197   -1.4586   20.6372 H   0  0  0  0  0  0  0  0  0  0  0  0
    6.6884   -1.0488   21.7385 H   0  0  0  0  0  0  0  0  0  0  0  0
    9.5937    0.4973   21.3770 N   0  0  0  0  0  0  0  0  0  0  0  0
    9.9854    1.4705   22.1911 C   0  0  0  0  0  0  0  0  0  0  0  0
   11.3100    2.0927   22.3242 C   0  0  0  0  0  0  0  0  0  0  0  0
   11.4913    3.4845   22.3356 C   0  0  0  0  0  0  0  0  0  0  0  0
   12.7613    4.0612   22.5177 C   0  0  0  0  0  0  0  0  0  0  0  0
   13.8770    3.2608   22.7328 C   0  0  0  0  0  0  0  0  0  0  0  0
   13.6981    1.8641   22.7005 C   0  0  0  0  0  0  0  0  0  0  0  0
   12.4412    1.2595   22.4663 C   0  0  0  0  0  0  0  0  0  0  0  0
   12.6687   -0.1608   22.3927 C   0  0  0  0  0  0  0  0  0  0  0  0
   14.0073   -0.3687   22.5536 C   0  0  0  0  0  0  0  0  0  0  0  0
   14.6272    0.8506   22.7619 N   0  0  0  0  0  0  0  0  0  0  0  0
   15.6108    1.0321   22.6536 H   0  0  0  0  0  0  0  0  0  0  0  0
   14.5721   -1.2936   22.5753 H   0  0  0  0  0  0  0  0  0  0  0  0
   11.8801   -0.8856   22.2437 H   0  0  0  0  0  0  0  0  0  0  0  0
   14.8572    3.7200   22.8267 H   0  0  0  0  0  0  0  0  0  0  0  0
   12.8783    5.1389   22.4793 H   0  0  0  0  0  0  0  0  0  0  0  0
   10.6412    4.1444   22.1999 H   0  0  0  0  0  0  0  0  0  0  0  0
    9.8653    3.2987   24.1662 H   0  0  0  0  0  0  0  0  0  0  0  0
    8.1010    1.1770   25.4002 H   0  0  0  0  0  0  0  0  0  0  0  0
    9.7326    1.6719   25.8854 H   0  0  0  0  0  0  0  0  0  0  0  0
    7.3489    2.7639   27.0122 H   0  0  0  0  0  0  0  0  0  0  0  0
    8.8914    3.6272   27.0128 H   0  0  0  0  0  0  0  0  0  0  0  0
    6.8659    3.2148   23.7873 H   0  0  0  0  0  0  0  0  0  0  0  0
    8.1649    4.7109   22.2198 H   0  0  0  0  0  0  0  0  0  0  0  0
    8.8871    5.5280   23.6309 H   0  0  0  0  0  0  0  0  0  0  0  0
    7.1454    5.6424   23.3329 H   0  0  0  0  0  0  0  0  0  0  0  0
  1  2  1  0
  2  3  1  0
  3  4  1  0
  4  5  1  0
  5  6  1  0
  6  7  1  0
  7  8  1  0
  8  9  2  0
  9 10  1  0
 10 11  1  0
 11 12  2  0
 12 13  1  0
 13 14  2  0
 14 15  1  0
 15 16  2  0
 16 17  1  0
 14 18  1  0
 13 19  1  0
 12 20  1  0
 10 21  1  0
 10 22  1  0
  9 23  1  0
 23 24  2  0
 24 25  1  0
 25 26  2  0
 26 27  1  0
 27 28  2  0
 28 29  1  0
 29 30  2  0
 30 31  1  0
 31 32  2  0
 32 33  1  0
 33 34  1  0
 32 35  1  0
 31 36  1  0
 28 37  1  0
 27 38  1  0
 26 39  1  0
  6 40  1  0
  5 41  1  0
  5 42  1  0
  4 43  1  0
  4 44  1  0
  2 45  1  0
  1 46  1  0
  1 47  1  0
  1 48  1  0
  6  2  1  0
 24  7  1  0
 30 25  1  0
 16 11  1  0
 33 29  1  0
M  END
>  <cnnaffinity>  (1) 
-6.52903

>  <filename>  (1) 
[H]c1nc([H])c(C([H])([H])c2nc(-c3c([H])c([H])c([H])c4c3c([H])c([H])n4[H])n(C3([H])C([H])([H])C([H])([H])OC3([H])C([H])([H])[H])n2)c([H])c1[H]

$$$$
