
     RDKit          3D

 24 25  0  0  0  0  0  0  0  0999 V2000
    4.9412    1.8061   16.9691 H   0  0  0  0  0  0  0  0  0  0  0  0
    5.3992    1.2965   17.8182 C   0  0  0  0  0  0  0  0  0  0  0  0
    6.5608    0.6736   17.5711 N   0  0  0  0  0  0  0  0  0  0  0  0
    7.1553    0.0383   18.5864 C   0  0  0  0  0  0  0  0  0  0  0  0
    8.1034   -0.4473   18.3657 H   0  0  0  0  0  0  0  0  0  0  0  0
    6.6289   -0.0084   19.8781 C   0  0  0  0  0  0  0  0  0  0  0  0
    7.3786   -0.7276   20.9118 C   0  0  0  0  0  0  0  0  0  0  0  0
    8.0389   -1.8609   20.8071 N   0  0  0  0  0  0  0  0  0  0  0  0
    8.4515   -2.1675   22.0601 N   0  0  0  0  0  0  0  0  0  0  0  0
    8.0926   -1.2700   22.9060 N   0  0  0  0  0  0  0  0  0  0  0  0
    7.4367   -0.3339   22.2108 N   0  0  0  0  0  0  0  0  0  0  0  0
    6.8288    0.7517   22.8440 N   0  0  0  0  0  0  0  0  0  0  0  0
    6.8650    0.5419   23.8399 H   0  0  0  0  0  0  0  0  0  0  0  0
    7.3759    2.0708   22.4728 C   0  0  0  0  0  0  0  0  0  0  0  0
    6.6006    2.8165   22.6989 H   0  0  0  0  0  0  0  0  0  0  0  0
    7.5074    2.0901   21.3785 H   0  0  0  0  0  0  0  0  0  0  0  0
    8.6897    2.4526   23.1528 C   0  0  0  0  0  0  0  0  0  0  0  0
    9.5075    1.7624   22.9198 H   0  0  0  0  0  0  0  0  0  0  0  0
    8.5815    2.5127   24.2409 H   0  0  0  0  0  0  0  0  0  0  0  0
    8.9952    3.4457   22.8077 H   0  0  0  0  0  0  0  0  0  0  0  0
    5.4137    0.6539   20.1340 C   0  0  0  0  0  0  0  0  0  0  0  0
    4.9848    0.6784   21.1352 H   0  0  0  0  0  0  0  0  0  0  0  0
    4.7866    1.3119   19.0765 C   0  0  0  0  0  0  0  0  0  0  0  0
    3.8564    1.8526   19.2157 H   0  0  0  0  0  0  0  0  0  0  0  0
  1  2  1  0
  2  3  2  0
  3  4  1  0
  4  5  1  0
  4  6  2  0
  6  7  1  0
  7  8  2  0
  8  9  1  0
  9 10  2  0
 10 11  1  0
 11 12  1  0
 12 13  1  0
 12 14  1  0
 14 15  1  0
 14 16  1  0
 14 17  1  0
 17 18  1  0
 17 19  1  0
 17 20  1  0
  6 21  1  0
 21 22  1  0
 21 23  2  0
 23 24  1  0
 23  2  1  0
 11  7  1  0
M  END
>  <cnnaffinity>  (1) 
-4.337

>  <filename>  (1) 
[H]c1nc([H])c(-c2nnnn2N([H])C([H])([H])C([H])([H])[H])c([H])c1[H]

$$$$
