
     RDKit          3D

 33 35  0  0  0  0  0  0  0  0999 V2000
    7.5411    0.8042   22.8329 O   0  0  0  0  0  0  0  0  0  0  0  0
    8.1760    0.4881   21.8494 C   0  0  0  0  0  0  0  0  0  0  0  0
    9.3690    1.0643   21.4754 N   0  0  0  0  0  0  0  0  0  0  0  0
    9.9573    2.2626   21.9528 C   0  0  0  0  0  0  0  0  0  0  0  0
    9.2098    3.2436   22.6186 C   0  0  0  0  0  0  0  0  0  0  0  0
    9.8192    4.4308   23.0614 C   0  0  0  0  0  0  0  0  0  0  0  0
   11.1832    4.6057   22.8262 C   0  0  0  0  0  0  0  0  0  0  0  0
   11.9142    5.6903   23.2100 O   0  0  0  0  0  0  0  0  0  0  0  0
   13.2953    5.4335   22.8669 C   0  0  0  0  0  0  0  0  0  0  0  0
   13.3345    4.1768   21.9648 C   0  0  0  0  0  0  0  0  0  0  0  0
   11.9299    3.6528   22.1256 C   0  0  0  0  0  0  0  0  0  0  0  0
   11.3226    2.4805   21.6867 C   0  0  0  0  0  0  0  0  0  0  0  0
   11.9029    1.7420   21.1404 H   0  0  0  0  0  0  0  0  0  0  0  0
   14.1005    3.4630   22.2900 H   0  0  0  0  0  0  0  0  0  0  0  0
   13.5520    4.4335   20.9188 H   0  0  0  0  0  0  0  0  0  0  0  0
   13.6899    6.3263   22.3714 H   0  0  0  0  0  0  0  0  0  0  0  0
   13.8515    5.2762   23.7975 H   0  0  0  0  0  0  0  0  0  0  0  0
    9.2612    5.2025   23.5804 H   0  0  0  0  0  0  0  0  0  0  0  0
    8.1482    3.0792   22.7607 H   0  0  0  0  0  0  0  0  0  0  0  0
    9.9323    0.5411   20.8287 H   0  0  0  0  0  0  0  0  0  0  0  0
    7.6062   -0.6105   20.8399 C   0  0  0  0  0  0  0  0  0  0  0  0
    8.6546   -1.3011   20.2683 F   0  0  0  0  0  0  0  0  0  0  0  0
    6.9087   -1.5307   21.5496 F   0  0  0  0  0  0  0  0  0  0  0  0
    6.7180   -0.0460   19.7465 C   0  0  0  0  0  0  0  0  0  0  0  0
    5.5402    0.6503   20.0578 C   0  0  0  0  0  0  0  0  0  0  0  0
    4.8853    1.3243   19.0231 C   0  0  0  0  0  0  0  0  0  0  0  0
    5.4260    1.2795   17.7330 C   0  0  0  0  0  0  0  0  0  0  0  0
    6.5060    0.5507   17.4185 N   0  0  0  0  0  0  0  0  0  0  0  0
    7.1182   -0.1072   18.4032 C   0  0  0  0  0  0  0  0  0  0  0  0
    7.9824   -0.7056   18.1241 H   0  0  0  0  0  0  0  0  0  0  0  0
    4.9778    1.8312   16.9041 H   0  0  0  0  0  0  0  0  0  0  0  0
    3.9844    1.9035   19.1871 H   0  0  0  0  0  0  0  0  0  0  0  0
    5.1517    0.6751   21.0788 H   0  0  0  0  0  0  0  0  0  0  0  0
  1  2  2  0
  2  3  1  0
  3  4  1  0
  4  5  2  0
  5  6  1  0
  6  7  2  0
  7  8  1  0
  8  9  1  0
  9 10  1  0
 10 11  1  0
 11 12  2  0
 12 13  1  0
 10 14  1  0
 10 15  1  0
  9 16  1  0
  9 17  1  0
  6 18  1  0
  5 19  1  0
  3 20  1  0
  2 21  1  0
 21 22  1  0
 21 23  1  0
 21 24  1  0
 24 25  2  0
 25 26  1  0
 26 27  2  0
 27 28  1  0
 28 29  2  0
 29 30  1  0
 27 31  1  0
 26 32  1  0
 25 33  1  0
 12  4  1  0
 29 24  1  0
 11  7  1  0
M  END
>  <cnnaffinity>  (1) 
-4.93482

>  <filename>  (1) 
[H]c1nc([H])c(C(F)(F)C(=O)N([H])c2c([H])c([H])c3c(c2[H])C([H])([H])C([H])([H])O3)c([H])c1[H]

$$$$
