
     RDKit          3D

 24 26  0  0  0  0  0  0  0  0999 V2000
    7.9319   -2.8267   27.5983 H   0  0  0  0  0  0  0  0  0  0  0  0
    7.6666   -2.4085   26.6391 C   0  0  0  0  0  0  0  0  0  0  0  0
    6.5919   -1.7188   26.4104 N   0  0  0  0  0  0  0  0  0  0  0  0
    6.5469   -1.3367   25.0995 C   0  0  0  0  0  0  0  0  0  0  0  0
    5.7041   -0.7502   24.7634 H   0  0  0  0  0  0  0  0  0  0  0  0
    7.5881   -1.7333   24.3165 C   0  0  0  0  0  0  0  0  0  0  0  0
    7.7782   -1.4747   22.9545 N   0  0  0  0  0  0  0  0  0  0  0  0
    6.8769   -0.7555   22.2516 N   0  0  0  0  0  0  0  0  0  0  0  0
    7.3530   -0.6969   21.0129 C   0  0  0  0  0  0  0  0  0  0  0  0
    6.6406    0.0111   19.9354 C   0  0  0  0  0  0  0  0  0  0  0  0
    7.1632    0.0571   18.6298 C   0  0  0  0  0  0  0  0  0  0  0  0
    8.1071   -0.4201   18.3820 H   0  0  0  0  0  0  0  0  0  0  0  0
    6.5705    0.6651   17.5982 N   0  0  0  0  0  0  0  0  0  0  0  0
    5.4073    1.2876   17.8421 C   0  0  0  0  0  0  0  0  0  0  0  0
    4.9331    1.7775   16.9939 H   0  0  0  0  0  0  0  0  0  0  0  0
    4.8011    1.3120   19.1038 C   0  0  0  0  0  0  0  0  0  0  0  0
    3.8709    1.8456   19.2497 H   0  0  0  0  0  0  0  0  0  0  0  0
    5.4175    0.6616   20.1700 C   0  0  0  0  0  0  0  0  0  0  0  0
    4.9916    0.6404   21.1764 H   0  0  0  0  0  0  0  0  0  0  0  0
    8.5878   -1.3961   20.9184 C   0  0  0  0  0  0  0  0  0  0  0  0
    9.2041   -1.5120   20.0389 H   0  0  0  0  0  0  0  0  0  0  0  0
    8.8257   -1.8773   22.1720 C   0  0  0  0  0  0  0  0  0  0  0  0
    9.6452   -2.4627   22.5729 H   0  0  0  0  0  0  0  0  0  0  0  0
    8.7040   -2.6455   25.2772 S   0  0  0  0  0  0  0  0  0  0  0  0
  1  2  1  0
  2  3  2  0
  3  4  1  0
  4  5  1  0
  4  6  2  0
  6  7  1  0
  7  8  1  0
  8  9  2  0
  9 10  1  0
 10 11  2  0
 11 12  1  0
 11 13  1  0
 13 14  2  0
 14 15  1  0
 14 16  1  0
 16 17  1  0
 16 18  2  0
 18 19  1  0
  9 20  1  0
 20 21  1  0
 20 22  2  0
 22 23  1  0
  6 24  1  0
 24  2  1  0
 22  7  1  0
 18 10  1  0
M  END
>  <cnnaffinity>  (1) 
-4.51045

>  <filename>  (1) 
[H]c1nc([H])c(-n2nc(-c3c([H])nc([H])c([H])c3[H])c([H])c2[H])s1

$$$$
