
     RDKit          3D

 38 40  0  0  0  0  0  0  0  0999 V2000
    4.9248    1.7886   16.9895 H   0  0  0  0  0  0  0  0  0  0  0  0
    5.4010    1.2965   17.8329 C   0  0  0  0  0  0  0  0  0  0  0  0
    6.5644    0.6833   17.5781 N   0  0  0  0  0  0  0  0  0  0  0  0
    7.1764    0.0788   18.6088 C   0  0  0  0  0  0  0  0  0  0  0  0
    8.1146   -0.4061   18.3467 H   0  0  0  0  0  0  0  0  0  0  0  0
    6.6779    0.0190   19.9262 C   0  0  0  0  0  0  0  0  0  0  0  0
    7.3994   -0.8405   20.9995 C   0  0  0  0  0  0  0  0  0  0  0  0
    7.0067   -2.3529   20.8281 C   0  0  0  0  0  0  0  0  0  0  0  0
    6.0203   -2.7610   19.9028 C   0  0  0  0  0  0  0  0  0  0  0  0
    5.5018   -2.0112   19.3127 H   0  0  0  0  0  0  0  0  0  0  0  0
    5.7012   -4.0983   19.6823 C   0  0  0  0  0  0  0  0  0  0  0  0
    4.9689   -4.3450   18.9214 H   0  0  0  0  0  0  0  0  0  0  0  0
    6.3191   -5.1042   20.4246 C   0  0  0  0  0  0  0  0  0  0  0  0
    6.0505   -6.1483   20.2639 H   0  0  0  0  0  0  0  0  0  0  0  0
    7.2684   -4.7493   21.3813 C   0  0  0  0  0  0  0  0  0  0  0  0
    7.7538   -5.5116   21.9848 H   0  0  0  0  0  0  0  0  0  0  0  0
    7.6044   -3.3934   21.5924 C   0  0  0  0  0  0  0  0  0  0  0  0
    8.5610   -3.1597   22.6524 C   0  0  0  0  0  0  0  0  0  0  0  0
    9.3196   -3.0784   23.5262 N   0  0  0  0  0  0  0  0  0  0  0  0
    7.0258   -0.3676   22.4453 C   0  0  0  0  0  0  0  0  0  0  0  0
    5.9633   -0.5217   22.6021 H   0  0  0  0  0  0  0  0  0  0  0  0
    7.5255   -1.0172   23.1737 H   0  0  0  0  0  0  0  0  0  0  0  0
    7.3971    1.0961   22.7436 C   0  0  0  0  0  0  0  0  0  0  0  0
    7.1266    1.3350   23.7802 H   0  0  0  0  0  0  0  0  0  0  0  0
    6.8057    1.7767   22.1142 H   0  0  0  0  0  0  0  0  0  0  0  0
    8.8918    1.3499   22.5100 C   0  0  0  0  0  0  0  0  0  0  0  0
    9.4625    0.8047   23.2760 H   0  0  0  0  0  0  0  0  0  0  0  0
    9.1253    2.4140   22.6436 H   0  0  0  0  0  0  0  0  0  0  0  0
    9.3397    0.8600   21.1248 C   0  0  0  0  0  0  0  0  0  0  0  0
    8.8704    1.4894   20.3575 H   0  0  0  0  0  0  0  0  0  0  0  0
   10.4232    0.9818   21.0157 H   0  0  0  0  0  0  0  0  0  0  0  0
    8.9498   -0.6144   20.9004 C   0  0  0  0  0  0  0  0  0  0  0  0
    9.4511   -1.2140   21.6666 H   0  0  0  0  0  0  0  0  0  0  0  0
    9.3288   -0.9871   19.9447 H   0  0  0  0  0  0  0  0  0  0  0  0
    5.4451    0.6507   20.1541 C   0  0  0  0  0  0  0  0  0  0  0  0
    4.9965    0.6484   21.1479 H   0  0  0  0  0  0  0  0  0  0  0  0
    4.8076    1.3062   19.0975 C   0  0  0  0  0  0  0  0  0  0  0  0
    3.8807    1.8370   19.2531 H   0  0  0  0  0  0  0  0  0  0  0  0
  1  2  1  0
  2  3  2  0
  3  4  1  0
  4  5  1  0
  4  6  2  0
  6  7  1  0
  7  8  1  0
  8  9  2  0
  9 10  1  0
  9 11  1  0
 11 12  1  0
 11 13  2  0
 13 14  1  0
 13 15  1  0
 15 16  1  0
 15 17  2  0
 17 18  1  0
 18 19  3  0
  7 20  1  0
 20 21  1  0
 20 22  1  0
 20 23  1  0
 23 24  1  0
 23 25  1  0
 23 26  1  0
 26 27  1  0
 26 28  1  0
 26 29  1  0
 29 30  1  0
 29 31  1  0
 29 32  1  0
 32 33  1  0
 32 34  1  0
  6 35  1  0
 35 36  1  0
 35 37  2  0
 37 38  1  0
 37  2  1  0
 32  7  1  0
 17  8  1  0
M  END
>  <cnnaffinity>  (1) 
-4.50378

>  <filename>  (1) 
[H]c1nc([H])c(C2(c3c([H])c([H])c([H])c([H])c3C#N)C([H])([H])C([H])([H])C([H])([H])C([H])([H])C2([H])[H])c([H])c1[H]

$$$$
