
     RDKit          3D

 25 27  0  0  0  0  0  0  0  0999 V2000
    8.9643   -5.2636   24.5658 H   0  0  0  0  0  0  0  0  0  0  0  0
    8.5882   -4.4804   23.9155 C   0  0  0  0  0  0  0  0  0  0  0  0
    7.3603   -4.2721   23.5830 N   0  0  0  0  0  0  0  0  0  0  0  0
    7.4298   -3.1668   22.7569 C   0  0  0  0  0  0  0  0  0  0  0  0
    6.5861   -2.6899   22.2825 H   0  0  0  0  0  0  0  0  0  0  0  0
    8.7205   -2.7760   22.6321 C   0  0  0  0  0  0  0  0  0  0  0  0
    9.2965   -1.6988   21.8801 C   0  0  0  0  0  0  0  0  0  0  0  0
    8.6572   -0.7535   21.0923 C   0  0  0  0  0  0  0  0  0  0  0  0
    7.2865   -0.6949   20.9502 O   0  0  0  0  0  0  0  0  0  0  0  0
    6.6877    0.0119   19.9171 C   0  0  0  0  0  0  0  0  0  0  0  0
    7.1866    0.0548   18.6006 C   0  0  0  0  0  0  0  0  0  0  0  0
    8.1263   -0.4359   18.3666 H   0  0  0  0  0  0  0  0  0  0  0  0
    6.5652    0.6709   17.5861 N   0  0  0  0  0  0  0  0  0  0  0  0
    5.4036    1.2910   17.8426 C   0  0  0  0  0  0  0  0  0  0  0  0
    4.9142    1.7795   16.9995 H   0  0  0  0  0  0  0  0  0  0  0  0
    4.8206    1.3010   19.1154 C   0  0  0  0  0  0  0  0  0  0  0  0
    3.8852    1.8332   19.2676 H   0  0  0  0  0  0  0  0  0  0  0  0
    5.4609    0.6406   20.1735 C   0  0  0  0  0  0  0  0  0  0  0  0
    5.0268    0.6134   21.1744 H   0  0  0  0  0  0  0  0  0  0  0  0
    9.6754    0.0847   20.6198 C   0  0  0  0  0  0  0  0  0  0  0  0
    9.5674    0.9475   19.9857 H   0  0  0  0  0  0  0  0  0  0  0  0
   10.8652   -0.3110   21.0634 N   0  0  0  0  0  0  0  0  0  0  0  0
   10.6162   -1.3807   21.8057 N   0  0  0  0  0  0  0  0  0  0  0  0
   11.3794   -1.8618   22.2546 H   0  0  0  0  0  0  0  0  0  0  0  0
    9.4892   -3.6315   23.3876 O   0  0  0  0  0  0  0  0  0  0  0  0
  1  2  1  0
  2  3  2  0
  3  4  1  0
  4  5  1  0
  4  6  2  0
  6  7  1  0
  7  8  2  0
  8  9  1  0
  9 10  1  0
 10 11  2  0
 11 12  1  0
 11 13  1  0
 13 14  2  0
 14 15  1  0
 14 16  1  0
 16 17  1  0
 16 18  2  0
 18 19  1  0
  8 20  1  0
 20 21  1  0
 20 22  2  0
 22 23  1  0
 23 24  1  0
  6 25  1  0
 25  2  1  0
 23  7  1  0
 18 10  1  0
M  END
>  <cnnaffinity>  (1) 
-5.19376

>  <filename>  (1) 
[H]c1nc([H])c(-c2c(Oc3c([H])nc([H])c([H])c3[H])c([H])nn2[H])o1

$$$$
