
     RDKit          3D

 34 36  0  0  0  0  0  0  0  0999 V2000
    4.9678    1.7690   17.0253 H   0  0  0  0  0  0  0  0  0  0  0  0
    5.4219    1.2708   17.8789 C   0  0  0  0  0  0  0  0  0  0  0  0
    6.5802    0.6408   17.6395 N   0  0  0  0  0  0  0  0  0  0  0  0
    7.1735    0.0173   18.6563 C   0  0  0  0  0  0  0  0  0  0  0  0
    8.1150   -0.4654   18.4025 H   0  0  0  0  0  0  0  0  0  0  0  0
    6.6500   -0.0351   19.9603 C   0  0  0  0  0  0  0  0  0  0  0  0
    7.3521   -0.7270   20.9796 N   0  0  0  0  0  0  0  0  0  0  0  0
    6.7312   -1.1715   22.0985 N   0  0  0  0  0  0  0  0  0  0  0  0
    7.6888   -1.7205   22.8181 C   0  0  0  0  0  0  0  0  0  0  0  0
    7.3614   -2.2991   24.0421 N   0  0  0  0  0  0  0  0  0  0  0  0
    6.4385   -2.6934   24.1050 H   0  0  0  0  0  0  0  0  0  0  0  0
    8.2132   -2.5016   25.0665 C   0  0  0  0  0  0  0  0  0  0  0  0
    9.6243   -1.6866   25.2973 S   0  0  0  0  0  0  0  0  0  0  0  0
    7.8621   -3.4940   25.9458 N   0  0  0  0  0  0  0  0  0  0  0  0
    8.6699   -3.6890   26.5229 H   0  0  0  0  0  0  0  0  0  0  0  0
    6.6032   -3.7430   26.5594 C   0  0  0  0  0  0  0  0  0  0  0  0
    6.3569   -5.0113   27.1055 C   0  0  0  0  0  0  0  0  0  0  0  0
    7.1559   -5.7471   27.1010 H   0  0  0  0  0  0  0  0  0  0  0  0
    5.0989   -5.3221   27.6344 C   0  0  0  0  0  0  0  0  0  0  0  0
    4.8988   -6.3283   28.0046 H   0  0  0  0  0  0  0  0  0  0  0  0
    4.0889   -4.3491   27.6644 C   0  0  0  0  0  0  0  0  0  0  0  0
    3.1015   -4.5979   28.0451 H   0  0  0  0  0  0  0  0  0  0  0  0
    4.3611   -3.0567   27.1997 C   0  0  0  0  0  0  0  0  0  0  0  0
    3.5893   -2.2880   27.2316 H   0  0  0  0  0  0  0  0  0  0  0  0
    5.6186   -2.7485   26.6633 C   0  0  0  0  0  0  0  0  0  0  0  0
    5.8600   -1.7358   26.3581 H   0  0  0  0  0  0  0  0  0  0  0  0
    8.9453   -1.6805   22.1806 C   0  0  0  0  0  0  0  0  0  0  0  0
    9.8664   -2.0897   22.5730 H   0  0  0  0  0  0  0  0  0  0  0  0
    8.6866   -1.0240   21.0049 C   0  0  0  0  0  0  0  0  0  0  0  0
    9.3158   -0.7034   20.1873 H   0  0  0  0  0  0  0  0  0  0  0  0
    5.4342    0.6304   20.2054 C   0  0  0  0  0  0  0  0  0  0  0  0
    4.9928    0.6267   21.2021 H   0  0  0  0  0  0  0  0  0  0  0  0
    4.8170    1.2934   19.1402 C   0  0  0  0  0  0  0  0  0  0  0  0
    3.8842    1.8347   19.2681 H   0  0  0  0  0  0  0  0  0  0  0  0
  1  2  1  0
  2  3  2  0
  3  4  1  0
  4  5  1  0
  4  6  2  0
  6  7  1  0
  7  8  1  0
  8  9  2  0
  9 10  1  0
 10 11  1  0
 10 12  1  0
 12 13  2  0
 12 14  1  0
 14 15  1  0
 14 16  1  0
 16 17  2  0
 17 18  1  0
 17 19  1  0
 19 20  1  0
 19 21  2  0
 21 22  1  0
 21 23  1  0
 23 24  1  0
 23 25  2  0
 25 26  1  0
  9 27  1  0
 27 28  1  0
 27 29  2  0
 29 30  1  0
  6 31  1  0
 31 32  1  0
 31 33  2  0
 33 34  1  0
 33  2  1  0
 29  7  1  0
 25 16  1  0
M  END
>  <cnnaffinity>  (1) 
-5.04999

>  <filename>  (1) 
[H]c1nc([H])c(-n2nc(N([H])C(=S)N([H])c3c([H])c([H])c([H])c([H])c3[H])c([H])c2[H])c([H])c1[H]

$$$$
