
     RDKit          3D

 32 35  0  0  0  0  0  0  0  0999 V2000
    4.9299    1.7975   16.9955 H   0  0  0  0  0  0  0  0  0  0  0  0
    5.3955    1.2911   17.8341 C   0  0  0  0  0  0  0  0  0  0  0  0
    6.5510    0.6634   17.5646 N   0  0  0  0  0  0  0  0  0  0  0  0
    7.1711    0.0468   18.5758 C   0  0  0  0  0  0  0  0  0  0  0  0
    8.1256   -0.4311   18.3559 H   0  0  0  0  0  0  0  0  0  0  0  0
    6.6512    0.0056   19.8848 C   0  0  0  0  0  0  0  0  0  0  0  0
    7.3391   -0.6689   20.9364 N   0  0  0  0  0  0  0  0  0  0  0  0
    6.7521   -1.5823   21.7877 C   0  0  0  0  0  0  0  0  0  0  0  0
    5.7029   -1.8402   21.7274 H   0  0  0  0  0  0  0  0  0  0  0  0
    7.6921   -2.0410   22.6455 C   0  0  0  0  0  0  0  0  0  0  0  0
    7.4988   -2.9901   23.7309 C   0  0  0  0  0  0  0  0  0  0  0  0
    6.3539   -3.5564   24.0166 N   0  0  0  0  0  0  0  0  0  0  0  0
    6.6211   -4.3657   25.0992 C   0  0  0  0  0  0  0  0  0  0  0  0
    5.7515   -5.2044   25.8185 C   0  0  0  0  0  0  0  0  0  0  0  0
    4.7079   -5.2419   25.5134 H   0  0  0  0  0  0  0  0  0  0  0  0
    6.2738   -5.9376   26.8805 C   0  0  0  0  0  0  0  0  0  0  0  0
    5.6174   -6.5936   27.4448 H   0  0  0  0  0  0  0  0  0  0  0  0
    7.6449   -5.8419   27.2327 C   0  0  0  0  0  0  0  0  0  0  0  0
    8.0232   -6.4315   28.0628 H   0  0  0  0  0  0  0  0  0  0  0  0
    8.5186   -5.0098   26.5313 C   0  0  0  0  0  0  0  0  0  0  0  0
    9.5715   -4.9335   26.7952 H   0  0  0  0  0  0  0  0  0  0  0  0
    7.9817   -4.2779   25.4650 C   0  0  0  0  0  0  0  0  0  0  0  0
    8.5155   -3.3831   24.5664 N   0  0  0  0  0  0  0  0  0  0  0  0
    9.4739   -3.0850   24.5338 H   0  0  0  0  0  0  0  0  0  0  0  0
    8.8687   -1.3777   22.2902 N   0  0  0  0  0  0  0  0  0  0  0  0
    9.8054   -1.3647   22.6623 H   0  0  0  0  0  0  0  0  0  0  0  0
    8.6631   -0.4956   21.2856 C   0  0  0  0  0  0  0  0  0  0  0  0
    9.8197    0.5616   20.7501 S   0  0  0  0  0  0  0  0  0  0  0  0
    5.4403    0.6469   20.1540 C   0  0  0  0  0  0  0  0  0  0  0  0
    5.0421    0.6306   21.1711 H   0  0  0  0  0  0  0  0  0  0  0  0
    4.8046    1.3114   19.1030 C   0  0  0  0  0  0  0  0  0  0  0  0
    3.8744    1.8451   19.2578 H   0  0  0  0  0  0  0  0  0  0  0  0
  1  2  1  0
  2  3  2  0
  3  4  1  0
  4  5  1  0
  4  6  2  0
  6  7  1  0
  7  8  1  0
  8  9  1  0
  8 10  2  0
 10 11  1  0
 11 12  2  0
 12 13  1  0
 13 14  2  0
 14 15  1  0
 14 16  1  0
 16 17  1  0
 16 18  2  0
 18 19  1  0
 18 20  1  0
 20 21  1  0
 20 22  2  0
 22 23  1  0
 23 24  1  0
 10 25  1  0
 25 26  1  0
 25 27  1  0
 27 28  2  0
  6 29  1  0
 29 30  1  0
 29 31  2  0
 31 32  1  0
 31  2  1  0
 27  7  1  0
 23 11  1  0
 22 13  1  0
M  END
>  <cnnaffinity>  (1) 
-5.67667

>  <filename>  (1) 
[H]c1nc([H])c(-n2c([H])c(-c3nc4c([H])c([H])c([H])c([H])c4n3[H])n([H])c2=S)c([H])c1[H]

$$$$
