
     RDKit          3D

 40 44  0  0  0  0  0  0  0  0999 V2000
    5.0006    1.7219   16.7468 H   0  0  0  0  0  0  0  0  0  0  0  0
    5.4131    1.2770   17.6502 C   0  0  0  0  0  0  0  0  0  0  0  0
    6.5158    0.5305   17.4845 N   0  0  0  0  0  0  0  0  0  0  0  0
    7.0434   -0.0181   18.5809 C   0  0  0  0  0  0  0  0  0  0  0  0
    7.9330   -0.6248   18.4180 H   0  0  0  0  0  0  0  0  0  0  0  0
    6.5526    0.1571   19.8940 C   0  0  0  0  0  0  0  0  0  0  0  0
    7.2699   -0.4333   21.0357 C   0  0  0  0  0  0  0  0  0  0  0  0
    7.3456    0.0510   22.3069 C   0  0  0  0  0  0  0  0  0  0  0  0
    7.1179    1.4525   22.6972 C   0  0  0  0  0  0  0  0  0  0  0  0
    7.7170    2.5245   22.0058 C   0  0  0  0  0  0  0  0  0  0  0  0
    8.3421    2.3202   21.1405 H   0  0  0  0  0  0  0  0  0  0  0  0
    7.5616    3.8617   22.4295 C   0  0  0  0  0  0  0  0  0  0  0  0
    8.0584    4.6634   21.8829 H   0  0  0  0  0  0  0  0  0  0  0  0
    6.7842    4.1770   23.5410 C   0  0  0  0  0  0  0  0  0  0  0  0
    6.6460    5.2048   23.8707 H   0  0  0  0  0  0  0  0  0  0  0  0
    6.1640    3.1153   24.2194 C   0  0  0  0  0  0  0  0  0  0  0  0
    6.3116    1.7627   23.8307 C   0  0  0  0  0  0  0  0  0  0  0  0
    5.5226    0.9892   24.7512 C   0  0  0  0  0  0  0  0  0  0  0  0
    5.3849   -0.0843   24.7066 H   0  0  0  0  0  0  0  0  0  0  0  0
    4.9610    1.8573   25.6437 C   0  0  0  0  0  0  0  0  0  0  0  0
    4.3217    1.6574   26.4955 H   0  0  0  0  0  0  0  0  0  0  0  0
    5.3480    3.1412   25.3260 N   0  0  0  0  0  0  0  0  0  0  0  0
    5.0475    3.9897   25.7777 H   0  0  0  0  0  0  0  0  0  0  0  0
    7.8873   -0.9993   23.2588 C   0  0  0  0  0  0  0  0  0  0  0  0
    8.6241   -0.5588   23.9429 H   0  0  0  0  0  0  0  0  0  0  0  0
    7.0956   -1.4210   23.8953 H   0  0  0  0  0  0  0  0  0  0  0  0
    8.4884   -2.0712   22.3319 C   0  0  0  0  0  0  0  0  0  0  0  0
    8.0038   -1.7489   20.9144 C   0  0  0  0  0  0  0  0  0  0  0  0
    7.3310   -2.5354   20.5461 H   0  0  0  0  0  0  0  0  0  0  0  0
    8.8325   -1.6687   20.1972 H   0  0  0  0  0  0  0  0  0  0  0  0
    9.8604   -2.6285   22.5843 C   0  0  0  0  0  0  0  0  0  0  0  0
   10.5557   -2.7525   21.7568 H   0  0  0  0  0  0  0  0  0  0  0  0
   10.3338   -2.3837   23.5305 H   0  0  0  0  0  0  0  0  0  0  0  0
    8.6523   -3.5176   22.7129 C   0  0  0  0  0  0  0  0  0  0  0  0
    8.4734   -4.2681   21.9443 H   0  0  0  0  0  0  0  0  0  0  0  0
    8.3729   -3.8365   23.7152 H   0  0  0  0  0  0  0  0  0  0  0  0
    5.3694    0.9122   20.0336 C   0  0  0  0  0  0  0  0  0  0  0  0
    4.9283    1.0709   21.0224 H   0  0  0  0  0  0  0  0  0  0  0  0
    4.7920    1.4689   18.8904 C   0  0  0  0  0  0  0  0  0  0  0  0
    3.8876    2.0665   18.9495 H   0  0  0  0  0  0  0  0  0  0  0  0
  1  2  1  0
  2  3  2  0
  3  4  1  0
  4  5  1  0
  4  6  2  0
  6  7  1  0
  7  8  2  0
  8  9  1  0
  9 10  2  0
 10 11  1  0
 10 12  1  0
 12 13  1  0
 12 14  2  0
 14 15  1  0
 14 16  1  0
 16 17  2  0
 17 18  1  0
 18 19  1  0
 18 20  2  0
 20 21  1  0
 20 22  1  0
 22 23  1  0
  8 24  1  0
 24 25  1  0
 24 26  1  0
 24 27  1  0
 27 28  1  0
 28 29  1  0
 28 30  1  0
 27 31  1  0
 31 32  1  0
 31 33  1  0
 31 34  1  0
 34 35  1  0
 34 36  1  0
  6 37  1  0
 37 38  1  0
 37 39  2  0
 39 40  1  0
 39  2  1  0
 28  7  1  0
 17  9  1  0
 34 27  1  0
 22 16  1  0
M  END
>  <cnnaffinity>  (1) 
-5.51088

>  <filename>  (1) 
[H]c1nc([H])c(C2=C(c3c([H])c([H])c([H])c4c3c([H])c([H])n4[H])C([H])([H])C3(C2([H])[H])C([H])([H])C3([H])[H])c([H])c1[H]

$$$$
