
     RDKit          3D

 32 34  0  0  0  0  0  0  0  0999 V2000
    4.9830    1.8464   16.9090 H   0  0  0  0  0  0  0  0  0  0  0  0
    5.4274    1.3324   17.7596 C   0  0  0  0  0  0  0  0  0  0  0  0
    6.5816    0.6894   17.5132 N   0  0  0  0  0  0  0  0  0  0  0  0
    7.1593    0.0632   18.5451 C   0  0  0  0  0  0  0  0  0  0  0  0
    8.1021   -0.4403   18.3310 H   0  0  0  0  0  0  0  0  0  0  0  0
    6.6210    0.0033   19.8481 C   0  0  0  0  0  0  0  0  0  0  0  0
    7.3296   -0.7232   20.9318 C   0  0  0  0  0  0  0  0  0  0  0  0
    6.6605   -1.6103   21.8249 C   0  0  0  0  0  0  0  0  0  0  0  0
    5.5801   -1.7407   21.7241 H   0  0  0  0  0  0  0  0  0  0  0  0
    7.3773   -2.2995   22.7632 C   0  0  0  0  0  0  0  0  0  0  0  0
    6.9425   -2.9617   23.4955 H   0  0  0  0  0  0  0  0  0  0  0  0
    8.8244   -2.1964   22.9027 C   0  0  0  0  0  0  0  0  0  0  0  0
    9.4638   -2.8014   23.7459 O   0  0  0  0  0  0  0  0  0  0  0  0
    9.4326   -1.2939   21.9523 N   0  0  0  0  0  0  0  0  0  0  0  0
   10.7958   -0.9784   21.9198 N   0  0  0  0  0  0  0  0  0  0  0  0
   11.3873   -1.7150   21.5466 H   0  0  0  0  0  0  0  0  0  0  0  0
   11.3932   -0.2795   22.9627 C   0  0  0  0  0  0  0  0  0  0  0  0
   12.7637   -0.0205   22.8589 C   0  0  0  0  0  0  0  0  0  0  0  0
   13.2790   -0.2532   21.9375 H   0  0  0  0  0  0  0  0  0  0  0  0
   13.4023    0.5747   23.9388 C   0  0  0  0  0  0  0  0  0  0  0  0
   14.4636    0.7985   23.8927 H   0  0  0  0  0  0  0  0  0  0  0  0
   12.7848    0.9299   25.0688 N   0  0  0  0  0  0  0  0  0  0  0  0
   11.4620    0.7197   25.1327 C   0  0  0  0  0  0  0  0  0  0  0  0
   10.9673    1.0315   26.0517 H   0  0  0  0  0  0  0  0  0  0  0  0
   10.7174    0.1547   24.1011 C   0  0  0  0  0  0  0  0  0  0  0  0
    9.6485    0.0119   24.1963 H   0  0  0  0  0  0  0  0  0  0  0  0
    8.6777   -0.5580   21.0640 C   0  0  0  0  0  0  0  0  0  0  0  0
    9.2451    0.1798   20.5037 H   0  0  0  0  0  0  0  0  0  0  0  0
    5.4112    0.6728   20.0741 C   0  0  0  0  0  0  0  0  0  0  0  0
    4.9852    0.6868   21.0781 H   0  0  0  0  0  0  0  0  0  0  0  0
    4.8053    1.3536   19.0148 C   0  0  0  0  0  0  0  0  0  0  0  0
    3.8775    1.9042   19.1461 H   0  0  0  0  0  0  0  0  0  0  0  0
  1  2  1  0
  2  3  2  0
  3  4  1  0
  4  5  1  0
  4  6  2  0
  6  7  1  0
  7  8  1  0
  8  9  1  0
  8 10  2  0
 10 11  1  0
 10 12  1  0
 12 13  2  0
 12 14  1  0
 14 15  1  0
 15 16  1  0
 15 17  1  0
 17 18  2  0
 18 19  1  0
 18 20  1  0
 20 21  1  0
 20 22  2  0
 22 23  1  0
 23 24  1  0
 23 25  2  0
 25 26  1  0
 14 27  1  0
 27 28  1  0
  6 29  1  0
 29 30  1  0
 29 31  2  0
 31 32  1  0
 31  2  1  0
 27  7  2  0
 25 17  1  0
M  END
>  <cnnaffinity>  (1) 
-5.41172

>  <filename>  (1) 
[H]c1nc([H])c(-c2c([H])c([H])c(=O)n(N([H])c3c([H])c([H])nc([H])c3[H])c2[H])c([H])c1[H]

$$$$
