
     RDKit          3D

 39 41  0  0  0  0  0  0  0  0999 V2000
    3.9903   -2.3774   29.4945 C   0  0  0  0  0  0  0  0  0  0  0  0
    4.1834   -3.6276   28.8059 N   0  0  0  0  0  0  0  0  0  0  0  0
    4.9405   -3.8026   27.7063 C   0  0  0  0  0  0  0  0  0  0  0  0
    5.6134   -2.7341   27.1003 C   0  0  0  0  0  0  0  0  0  0  0  0
    6.3736   -2.9657   25.9566 C   0  0  0  0  0  0  0  0  0  0  0  0
    7.1067   -1.8494   25.2820 C   0  0  0  0  0  0  0  0  0  0  0  0
    7.0644   -0.6128   25.7078 N   0  0  0  0  0  0  0  0  0  0  0  0
    7.8722    0.0607   24.8137 O   0  0  0  0  0  0  0  0  0  0  0  0
    8.3240   -0.8352   23.9356 C   0  0  0  0  0  0  0  0  0  0  0  0
    9.1795   -0.3528   22.8163 C   0  0  0  0  0  0  0  0  0  0  0  0
    8.3605    0.3088   21.6907 C   0  0  0  0  0  0  0  0  0  0  0  0
    7.4087   -0.6818   20.9992 C   0  0  0  0  0  0  0  0  0  0  0  0
    6.6366   -0.0194   19.8858 C   0  0  0  0  0  0  0  0  0  0  0  0
    5.4272    0.6441   20.1329 C   0  0  0  0  0  0  0  0  0  0  0  0
    4.7926    1.3146   19.0851 C   0  0  0  0  0  0  0  0  0  0  0  0
    5.3902    1.3045   17.8210 C   0  0  0  0  0  0  0  0  0  0  0  0
    6.5521    0.6872   17.5628 N   0  0  0  0  0  0  0  0  0  0  0  0
    7.1525    0.0558   18.5806 C   0  0  0  0  0  0  0  0  0  0  0  0
    8.1063   -0.4178   18.3412 H   0  0  0  0  0  0  0  0  0  0  0  0
    4.9203    1.8075   16.9771 H   0  0  0  0  0  0  0  0  0  0  0  0
    3.8637    1.8526   19.2370 H   0  0  0  0  0  0  0  0  0  0  0  0
    5.0001    0.6418   21.1379 H   0  0  0  0  0  0  0  0  0  0  0  0
    6.7154   -1.1083   21.7379 H   0  0  0  0  0  0  0  0  0  0  0  0
    7.9890   -1.5293   20.6074 H   0  0  0  0  0  0  0  0  0  0  0  0
    9.0469    0.7304   20.9466 H   0  0  0  0  0  0  0  0  0  0  0  0
    7.7814    1.1557   22.0874 H   0  0  0  0  0  0  0  0  0  0  0  0
    9.7131   -1.2291   22.4327 H   0  0  0  0  0  0  0  0  0  0  0  0
    9.9206    0.3405   23.2242 H   0  0  0  0  0  0  0  0  0  0  0  0
    7.8926   -2.0370   24.1614 N   0  0  0  0  0  0  0  0  0  0  0  0
    6.4120   -4.2967   25.4885 C   0  0  0  0  0  0  0  0  0  0  0  0
    5.7050   -5.2883   26.1753 C   0  0  0  0  0  0  0  0  0  0  0  0
    4.9688   -5.0686   27.2709 N   0  0  0  0  0  0  0  0  0  0  0  0
    5.7395   -6.3150   25.8079 H   0  0  0  0  0  0  0  0  0  0  0  0
    6.9829   -4.5586   24.6099 H   0  0  0  0  0  0  0  0  0  0  0  0
    5.5081   -1.7587   27.5560 H   0  0  0  0  0  0  0  0  0  0  0  0
    3.8245   -4.5297   29.0702 H   0  0  0  0  0  0  0  0  0  0  0  0
    3.5145   -1.6251   28.8431 H   0  0  0  0  0  0  0  0  0  0  0  0
    4.9414   -1.9499   29.8555 H   0  0  0  0  0  0  0  0  0  0  0  0
    3.3402   -2.5504   30.3536 H   0  0  0  0  0  0  0  0  0  0  0  0
  1  2  1  0
  2  3  1  0
  3  4  2  0
  4  5  1  0
  5  6  1  0
  6  7  2  0
  7  8  1  0
  8  9  1  0
  9 10  1  0
 10 11  1  0
 11 12  1  0
 12 13  1  0
 13 14  2  0
 14 15  1  0
 15 16  2  0
 16 17  1  0
 17 18  2  0
 18 19  1  0
 16 20  1  0
 15 21  1  0
 14 22  1  0
 12 23  1  0
 12 24  1  0
 11 25  1  0
 11 26  1  0
 10 27  1  0
 10 28  1  0
  9 29  2  0
  5 30  2  0
 30 31  1  0
 31 32  2  0
 31 33  1  0
 30 34  1  0
  4 35  1  0
  2 36  1  0
  1 37  1  0
  1 38  1  0
  1 39  1  0
 32  3  1  0
 29  6  1  0
 18 13  1  0
M  END
>  <cnnaffinity>  (1) 
-5.06643

>  <filename>  (1) 
[H]c1nc([H])c(C([H])([H])C([H])([H])C([H])([H])c2nc(-c3c([H])c([H])nc(N([H])C([H])([H])[H])c3[H])no2)c([H])c1[H]

$$$$
