
     RDKit          3D

 34 37  0  0  0  0  0  0  0  0999 V2000
    5.0046    1.8428   16.9090 H   0  0  0  0  0  0  0  0  0  0  0  0
    5.3860    1.3095   17.7801 C   0  0  0  0  0  0  0  0  0  0  0  0
    6.5339    0.6381   17.6048 N   0  0  0  0  0  0  0  0  0  0  0  0
    7.0430    0.0139   18.6742 C   0  0  0  0  0  0  0  0  0  0  0  0
    7.9775   -0.5199   18.5115 H   0  0  0  0  0  0  0  0  0  0  0  0
    6.4522   -0.0087   19.9528 C   0  0  0  0  0  0  0  0  0  0  0  0
    7.2092   -0.6291   21.0562 C   0  0  0  0  0  0  0  0  0  0  0  0
    8.5690   -0.5994   21.2813 C   0  0  0  0  0  0  0  0  0  0  0  0
    8.7702   -1.2106   22.5118 C   0  0  0  0  0  0  0  0  0  0  0  0
    7.6520   -1.6444   23.0552 N   0  0  0  0  0  0  0  0  0  0  0  0
    6.7058   -1.2794   22.1511 N   0  0  0  0  0  0  0  0  0  0  0  0
    5.7460   -1.5359   22.3373 H   0  0  0  0  0  0  0  0  0  0  0  0
   10.1919   -1.1949   22.9646 C   0  0  0  0  0  0  0  0  0  0  0  0
   10.3028   -0.6268   23.8982 H   0  0  0  0  0  0  0  0  0  0  0  0
   10.5872   -2.1991   23.1434 H   0  0  0  0  0  0  0  0  0  0  0  0
   10.9247   -0.5016   21.7703 C   0  0  2  0  0  0  0  0  0  0  0  0
   11.6106   -1.2382   21.3406 H   0  0  0  0  0  0  0  0  0  0  0  0
   11.7025    0.6716   22.1208 N   0  0  0  0  0  0  0  0  0  0  0  0
   11.0710    1.4130   22.4177 H   0  0  0  0  0  0  0  0  0  0  0  0
   12.7177    0.5193   23.1178 C   0  0  0  0  0  0  0  0  0  0  0  0
   12.4414    0.0468   24.0689 H   0  0  0  0  0  0  0  0  0  0  0  0
   14.1412    0.3046   22.6844 C   0  0  0  0  0  0  0  0  0  0  0  0
   14.3518    0.2209   21.6226 H   0  0  0  0  0  0  0  0  0  0  0  0
   14.7567   -0.3187   23.3253 H   0  0  0  0  0  0  0  0  0  0  0  0
   13.6845    1.6477   23.1832 C   0  0  0  0  0  0  0  0  0  0  0  0
   13.5697    2.4318   22.4415 H   0  0  0  0  0  0  0  0  0  0  0  0
   13.9700    2.0127   24.1546 H   0  0  0  0  0  0  0  0  0  0  0  0
    9.8546   -0.1176   20.7026 C   0  0  0  0  0  0  0  0  0  0  0  0
    9.8646    0.9675   20.5188 H   0  0  0  0  0  0  0  0  0  0  0  0
   10.0677   -0.6166   19.7558 H   0  0  0  0  0  0  0  0  0  0  0  0
    5.2297    0.6690   20.1061 C   0  0  0  0  0  0  0  0  0  0  0  0
    4.7187    0.6966   21.0708 H   0  0  0  0  0  0  0  0  0  0  0  0
    4.7018    1.3424   19.0014 C   0  0  0  0  0  0  0  0  0  0  0  0
    3.7881    1.9175   19.0742 H   0  0  0  0  0  0  0  0  0  0  0  0
  1  2  1  0
  2  3  2  0
  3  4  1  0
  4  5  1  0
  4  6  2  0
  6  7  1  0
  7  8  2  0
  8  9  1  0
  9 10  2  0
 10 11  1  0
 11 12  1  0
  9 13  1  0
 13 14  1  0
 13 15  1  0
 13 16  1  0
 16 17  1  6
 16 18  1  0
 18 19  1  0
 18 20  1  0
 20 21  1  0
 20 22  1  0
 22 23  1  0
 22 24  1  0
 22 25  1  0
 25 26  1  0
 25 27  1  0
 16 28  1  0
 28 29  1  0
 28 30  1  0
  6 31  1  0
 31 32  1  0
 31 33  2  0
 33 34  1  0
 33  2  1  0
 11  7  1  0
 25 20  1  0
 28  8  1  0
M  END
>  <cnnaffinity>  (1) 
-5.0374

>  <filename>  (1) 
[H]c1nc([H])c(-c2c3c(nn2[H])C([H])([H])[C@]([H])(N([H])C2([H])C([H])([H])C2([H])[H])C3([H])[H])c([H])c1[H]

$$$$
