
     RDKit          3D

 37 40  0  0  0  0  0  0  0  0999 V2000
    4.9408    1.7893   16.9627 H   0  0  0  0  0  0  0  0  0  0  0  0
    5.4106    1.3004   17.8189 C   0  0  0  0  0  0  0  0  0  0  0  0
    6.5733    0.6711   17.5955 N   0  0  0  0  0  0  0  0  0  0  0  0
    7.1565    0.0555   18.6331 C   0  0  0  0  0  0  0  0  0  0  0  0
    8.1062   -0.4299   18.4191 H   0  0  0  0  0  0  0  0  0  0  0  0
    6.6417    0.0294   19.9408 C   0  0  0  0  0  0  0  0  0  0  0  0
    7.3766   -0.6753   21.0197 C   0  0  0  0  0  0  0  0  0  0  0  0
    8.0858   -1.8102   21.0458 C   0  0  0  0  0  0  0  0  0  0  0  0
    8.3000   -2.5907   20.3531 H   0  0  0  0  0  0  0  0  0  0  0  0
    8.5728   -2.0629   22.2980 O   0  0  0  0  0  0  0  0  0  0  0  0
    8.1740   -1.0754   23.1395 C   0  0  0  0  0  0  0  0  0  0  0  0
    8.4419   -1.0429   24.3175 O   0  0  0  0  0  0  0  0  0  0  0  0
    7.4247   -0.1956   22.3482 N   0  0  0  0  0  0  0  0  0  0  0  0
    6.8748    1.0131   22.7146 N   0  0  0  0  0  0  0  0  0  0  0  0
    6.3054    1.0324   24.0639 C   0  0  0  0  0  0  0  0  0  0  0  0
    7.0954    0.9155   24.8250 H   0  0  0  0  0  0  0  0  0  0  0  0
    5.6719    0.1471   24.1857 H   0  0  0  0  0  0  0  0  0  0  0  0
    5.5193    2.3077   24.2517 C   0  0  0  0  0  0  0  0  0  0  0  0
    4.5644    2.3883   25.2690 C   0  0  0  0  0  0  0  0  0  0  0  0
    4.3895    1.5183   25.9009 H   0  0  0  0  0  0  0  0  0  0  0  0
    3.8449    3.5663   25.4665 C   0  0  0  0  0  0  0  0  0  0  0  0
    3.1092    3.6128   26.2611 H   0  0  0  0  0  0  0  0  0  0  0  0
    4.0705    4.6685   24.6372 C   0  0  0  0  0  0  0  0  0  0  0  0
    3.5062    5.5829   24.7849 H   0  0  0  0  0  0  0  0  0  0  0  0
    5.0193    4.5881   23.6159 C   0  0  0  0  0  0  0  0  0  0  0  0
    5.1823    5.4358   22.9542 H   0  0  0  0  0  0  0  0  0  0  0  0
    5.7593    3.4193   23.4146 C   0  0  0  0  0  0  0  0  0  0  0  0
    6.7478    3.3364   22.2589 C   0  0  0  0  0  0  0  0  0  0  0  0
    6.1845    3.1585   21.3322 H   0  0  0  0  0  0  0  0  0  0  0  0
    7.2917    4.2744   22.1282 H   0  0  0  0  0  0  0  0  0  0  0  0
    7.7193    2.1760   22.4203 C   0  0  0  0  0  0  0  0  0  0  0  0
    8.2961    1.9930   21.5027 H   0  0  0  0  0  0  0  0  0  0  0  0
    8.4535    2.3434   23.2279 H   0  0  0  0  0  0  0  0  0  0  0  0
    5.4285    0.7135   20.1572 C   0  0  0  0  0  0  0  0  0  0  0  0
    5.0187    0.7823   21.1656 H   0  0  0  0  0  0  0  0  0  0  0  0
    4.8005    1.3323   19.0776 C   0  0  0  0  0  0  0  0  0  0  0  0
    3.8498    1.8418   19.1915 H   0  0  0  0  0  0  0  0  0  0  0  0
  1  2  1  0
  2  3  2  0
  3  4  1  0
  4  5  1  0
  4  6  2  0
  6  7  1  0
  7  8  2  0
  8  9  1  0
  8 10  1  0
 10 11  1  0
 11 12  2  0
 11 13  1  0
 13 14  1  0
 14 15  1  0
 15 16  1  0
 15 17  1  0
 15 18  1  0
 18 19  2  0
 19 20  1  0
 19 21  1  0
 21 22  1  0
 21 23  2  0
 23 24  1  0
 23 25  1  0
 25 26  1  0
 25 27  2  0
 27 28  1  0
 28 29  1  0
 28 30  1  0
 28 31  1  0
 31 32  1  0
 31 33  1  0
  6 34  1  0
 34 35  1  0
 34 36  2  0
 36 37  1  0
 36  2  1  0
 13  7  1  0
 31 14  1  0
 27 18  1  0
M  END
>  <cnnaffinity>  (1) 
-4.93357

>  <filename>  (1) 
[H]c1nc([H])c(-c2c([H])oc(=O)n2N2C([H])([H])c3c([H])c([H])c([H])c([H])c3C([H])([H])C2([H])[H])c([H])c1[H]

$$$$
