
     RDKit          3D

 27 29  0  0  0  0  0  0  0  0999 V2000
    8.3177   -1.1591   20.7031 H   0  0  0  0  0  0  0  0  0  0  0  0
    7.3634   -0.6885   20.9821 C   0  0  0  0  0  0  0  0  0  0  0  0
    6.9152   -0.7355   22.1685 N   0  0  0  0  0  0  0  0  0  0  0  0
    7.5669   -1.4349   23.1834 C   0  0  0  0  0  0  0  0  0  0  0  0
    8.5957   -2.3866   23.0137 C   0  0  0  0  0  0  0  0  0  0  0  0
    8.9314   -2.6332   22.0136 H   0  0  0  0  0  0  0  0  0  0  0  0
    9.1846   -3.0146   24.1323 C   0  0  0  0  0  0  0  0  0  0  0  0
    9.9699   -3.7662   24.0761 H   0  0  0  0  0  0  0  0  0  0  0  0
    8.7029   -2.6438   25.3666 C   0  0  0  0  0  0  0  0  0  0  0  0
    7.6208   -1.7632   25.5201 C   0  0  0  0  0  0  0  0  0  0  0  0
    7.0583   -1.1175   24.4603 C   0  0  0  0  0  0  0  0  0  0  0  0
    6.2655   -0.3844   24.5445 H   0  0  0  0  0  0  0  0  0  0  0  0
    7.2749   -1.6722   26.8294 O   0  0  0  0  0  0  0  0  0  0  0  0
    8.2134   -2.4983   27.5114 C   0  0  0  0  0  0  0  0  0  0  0  0
    7.6803   -3.3489   27.9481 H   0  0  0  0  0  0  0  0  0  0  0  0
    8.7474   -1.8646   28.2291 H   0  0  0  0  0  0  0  0  0  0  0  0
    9.1488   -3.0390   26.5874 O   0  0  0  0  0  0  0  0  0  0  0  0
    6.6375    0.0111   19.9333 C   0  0  0  0  0  0  0  0  0  0  0  0
    7.1737    0.0371   18.6453 C   0  0  0  0  0  0  0  0  0  0  0  0
    8.1258   -0.4471   18.4263 H   0  0  0  0  0  0  0  0  0  0  0  0
    6.5894    0.6423   17.6136 N   0  0  0  0  0  0  0  0  0  0  0  0
    5.4275    1.2731   17.8485 C   0  0  0  0  0  0  0  0  0  0  0  0
    4.9861    1.7754   16.9936 H   0  0  0  0  0  0  0  0  0  0  0  0
    4.8026    1.3069   19.0995 C   0  0  0  0  0  0  0  0  0  0  0  0
    3.8687    1.8456   19.2204 H   0  0  0  0  0  0  0  0  0  0  0  0
    5.4117    0.6659   20.1700 C   0  0  0  0  0  0  0  0  0  0  0  0
    4.9758    0.6626   21.1717 H   0  0  0  0  0  0  0  0  0  0  0  0
  1  2  1  0
  2  3  2  3
  3  4  1  0
  4  5  2  0
  5  6  1  0
  5  7  1  0
  7  8  1  0
  7  9  2  0
  9 10  1  0
 10 11  2  0
 11 12  1  0
 10 13  1  0
 13 14  1  0
 14 15  1  0
 14 16  1  0
 14 17  1  0
  2 18  1  0
 18 19  2  0
 19 20  1  0
 19 21  1  0
 21 22  2  0
 22 23  1  0
 22 24  1  0
 24 25  1  0
 24 26  2  0
 26 27  1  0
 11  4  1  0
 26 18  1  0
 17  9  1  0
M  END
>  <cnnaffinity>  (1) 
-4.32159

>  <filename>  (1) 
[H]C(=Nc1c([H])c([H])c2c(c1[H])OC([H])([H])O2)c1c([H])nc([H])c([H])c1[H]

$$$$
