
     RDKit          3D

 32 35  0  0  0  0  0  0  0  0999 V2000
    4.9765    1.7716   16.9509 H   0  0  0  0  0  0  0  0  0  0  0  0
    5.4315    1.2956   17.8196 C   0  0  0  0  0  0  0  0  0  0  0  0
    6.6018    0.6706   17.6191 N   0  0  0  0  0  0  0  0  0  0  0  0
    7.1603    0.0556   18.6702 C   0  0  0  0  0  0  0  0  0  0  0  0
    8.1092   -0.4413   18.4770 H   0  0  0  0  0  0  0  0  0  0  0  0
    6.6145    0.0370   19.9686 C   0  0  0  0  0  0  0  0  0  0  0  0
    7.2913   -0.6956   21.0527 C   0  0  0  0  0  0  0  0  0  0  0  0
    7.7155   -1.9670   21.0791 C   0  0  0  0  0  0  0  0  0  0  0  0
    7.6128   -2.8003   20.4089 H   0  0  0  0  0  0  0  0  0  0  0  0
    8.2911   -2.2636   22.2805 O   0  0  0  0  0  0  0  0  0  0  0  0
    8.1980   -1.1689   23.0933 C   0  0  0  0  0  0  0  0  0  0  0  0
    8.5829   -1.1548   24.2302 O   0  0  0  0  0  0  0  0  0  0  0  0
    7.5837   -0.1746   22.3379 N   0  0  0  0  0  0  0  0  0  0  0  0
    7.2014    1.0731   22.9151 C   0  0  0  0  0  0  0  0  0  0  0  0
    7.5175    2.2896   22.2528 C   0  0  0  0  0  0  0  0  0  0  0  0
    8.0296    2.2428   21.2987 H   0  0  0  0  0  0  0  0  0  0  0  0
    7.1500    3.5145   22.7941 C   0  0  0  0  0  0  0  0  0  0  0  0
    7.3742    4.4394   22.2694 H   0  0  0  0  0  0  0  0  0  0  0  0
    6.4660    3.5500   24.0280 C   0  0  0  0  0  0  0  0  0  0  0  0
    5.9564    4.5925   24.8834 C   0  0  0  0  0  0  0  0  0  0  0  0
    6.0192    5.6616   24.7076 H   0  0  0  0  0  0  0  0  0  0  0  0
    5.3910    3.9794   25.9650 C   0  0  0  0  0  0  0  0  0  0  0  0
    4.9097    4.4186   26.8321 H   0  0  0  0  0  0  0  0  0  0  0  0
    5.5160    2.6074   25.8369 N   0  0  0  0  0  0  0  0  0  0  0  0
    5.2160    1.9075   26.4952 H   0  0  0  0  0  0  0  0  0  0  0  0
    6.1688    2.3196   24.6662 C   0  0  0  0  0  0  0  0  0  0  0  0
    6.5382    1.0783   24.1382 C   0  0  0  0  0  0  0  0  0  0  0  0
    6.3487    0.1635   24.6896 H   0  0  0  0  0  0  0  0  0  0  0  0
    5.3938    0.7101   20.1519 C   0  0  0  0  0  0  0  0  0  0  0  0
    4.9648    0.7587   21.1525 H   0  0  0  0  0  0  0  0  0  0  0  0
    4.7899    1.3321   19.0611 C   0  0  0  0  0  0  0  0  0  0  0  0
    3.8414    1.8445   19.1617 H   0  0  0  0  0  0  0  0  0  0  0  0
  1  2  1  0
  2  3  2  0
  3  4  1  0
  4  5  1  0
  4  6  2  0
  6  7  1  0
  7  8  2  0
  8  9  1  0
  8 10  1  0
 10 11  1  0
 11 12  2  0
 11 13  1  0
 13 14  1  0
 14 15  2  0
 15 16  1  0
 15 17  1  0
 17 18  1  0
 17 19  2  0
 19 20  1  0
 20 21  1  0
 20 22  2  0
 22 23  1  0
 22 24  1  0
 24 25  1  0
 24 26  1  0
 26 27  2  0
 27 28  1  0
  6 29  1  0
 29 30  1  0
 29 31  2  0
 31 32  1  0
 31  2  1  0
 13  7  1  0
 27 14  1  0
 26 19  1  0
M  END
>  <cnnaffinity>  (1) 
-5.07508

>  <filename>  (1) 
[H]c1nc([H])c(-c2c([H])oc(=O)n2-c2c([H])c([H])c3c([H])c([H])n([H])c3c2[H])c([H])c1[H]

$$$$
