
     RDKit          3D

 40 41  0  0  0  0  0  0  0  0999 V2000
    4.9180    1.8003   16.9786 H   0  0  0  0  0  0  0  0  0  0  0  0
    5.3941    1.2952   17.8175 C   0  0  0  0  0  0  0  0  0  0  0  0
    6.5521    0.6746   17.5543 N   0  0  0  0  0  0  0  0  0  0  0  0
    7.1711    0.0642   18.5764 C   0  0  0  0  0  0  0  0  0  0  0  0
    8.1156   -0.4154   18.3230 H   0  0  0  0  0  0  0  0  0  0  0  0
    6.6854    0.0295   19.8997 C   0  0  0  0  0  0  0  0  0  0  0  0
    7.3634   -0.7218   21.0650 C   0  0  0  0  0  0  0  0  0  0  0  0
    7.3785    0.1643   22.3775 C   0  0  0  0  0  0  0  0  0  0  0  0
    6.8863   -0.2124   23.4239 O   0  0  0  0  0  0  0  0  0  0  0  0
    8.0374    1.3772   22.2761 N   0  0  0  0  0  0  0  0  0  0  0  0
    8.1462    1.7548   21.3506 H   0  0  0  0  0  0  0  0  0  0  0  0
    8.3086    2.2421   23.3608 C   0  0  0  0  0  0  0  0  0  0  0  0
    8.7007    1.6902   24.5845 C   0  0  0  0  0  0  0  0  0  0  0  0
    8.7688    0.6137   24.6609 H   0  0  0  0  0  0  0  0  0  0  0  0
    8.9731    2.5209   25.6679 C   0  0  0  0  0  0  0  0  0  0  0  0
    9.2554    2.0692   26.6133 H   0  0  0  0  0  0  0  0  0  0  0  0
    8.8695    3.9074   25.5539 C   0  0  0  0  0  0  0  0  0  0  0  0
    9.0990    4.5270   26.4189 H   0  0  0  0  0  0  0  0  0  0  0  0
    8.4929    4.4686   24.3195 C   0  0  0  0  0  0  0  0  0  0  0  0
    8.4188    6.2664   24.1585 S   0  0  0  0  0  0  0  0  0  0  0  0
    8.6496    6.6351   22.7686 O   0  0  0  0  0  0  0  0  0  0  0  0
    9.1945    6.8587   25.2443 O   0  0  0  0  0  0  0  0  0  0  0  0
    6.7459    6.6975   24.4935 C   0  0  0  0  0  0  0  0  0  0  0  0
    6.5214    6.3970   25.5138 H   0  0  0  0  0  0  0  0  0  0  0  0
    6.1234    6.2128   23.7455 H   0  0  0  0  0  0  0  0  0  0  0  0
    6.7285    7.7818   24.3829 H   0  0  0  0  0  0  0  0  0  0  0  0
    8.2241    3.6331   23.2127 C   0  0  0  0  0  0  0  0  0  0  0  0
    7.9581    4.0351   22.2360 H   0  0  0  0  0  0  0  0  0  0  0  0
    6.5486   -2.0211   21.3089 C   0  0  0  0  0  0  0  0  0  0  0  0
    5.5136   -1.8010   21.5894 H   0  0  0  0  0  0  0  0  0  0  0  0
    6.5216   -2.6266   20.3959 H   0  0  0  0  0  0  0  0  0  0  0  0
    6.9926   -2.6202   22.1089 H   0  0  0  0  0  0  0  0  0  0  0  0
    8.8248   -1.1263   20.7440 C   0  0  0  0  0  0  0  0  0  0  0  0
    8.8613   -1.8625   19.9412 H   0  0  0  0  0  0  0  0  0  0  0  0
    9.4437   -0.2780   20.4322 H   0  0  0  0  0  0  0  0  0  0  0  0
    9.2860   -1.5908   21.6204 H   0  0  0  0  0  0  0  0  0  0  0  0
    5.4531    0.6616   20.1369 C   0  0  0  0  0  0  0  0  0  0  0  0
    5.0229    0.6400   21.1421 H   0  0  0  0  0  0  0  0  0  0  0  0
    4.8052    1.3137   19.0865 C   0  0  0  0  0  0  0  0  0  0  0  0
    3.8714    1.8420   19.2410 H   0  0  0  0  0  0  0  0  0  0  0  0
  1  2  1  0
  2  3  2  0
  3  4  1  0
  4  5  1  0
  4  6  2  0
  6  7  1  0
  7  8  1  0
  8  9  2  0
  8 10  1  0
 10 11  1  0
 10 12  1  0
 12 13  2  0
 13 14  1  0
 13 15  1  0
 15 16  1  0
 15 17  2  0
 17 18  1  0
 17 19  1  0
 19 20  1  0
 20 21  2  0
 20 22  2  0
 20 23  1  0
 23 24  1  0
 23 25  1  0
 23 26  1  0
 19 27  2  0
 27 28  1  0
  7 29  1  0
 29 30  1  0
 29 31  1  0
 29 32  1  0
  7 33  1  0
 33 34  1  0
 33 35  1  0
 33 36  1  0
  6 37  1  0
 37 38  1  0
 37 39  2  0
 39 40  1  0
 39  2  1  0
 27 12  1  0
M  END
>  <cnnaffinity>  (1) 
-4.7966

>  <filename>  (1) 
[H]c1nc([H])c(C(C(=O)N([H])c2c([H])c([H])c([H])c(S(=O)(=O)C([H])([H])[H])c2[H])(C([H])([H])[H])C([H])([H])[H])c([H])c1[H]

$$$$
