
     RDKit          3D

 43 45  0  0  0  0  0  0  0  0999 V2000
   11.2084   -1.5944   22.6248 C   0  0  0  0  0  0  0  0  0  0  0  0
   10.0518   -2.4955   22.2063 C   0  0  0  0  0  0  0  0  0  0  0  0
    8.7941   -1.8045   22.0017 N   0  0  0  0  0  0  0  0  0  0  0  0
    8.5011   -1.3308   20.7712 N   0  0  0  0  0  0  0  0  0  0  0  0
    7.3599   -0.7023   20.9684 C   0  0  0  0  0  0  0  0  0  0  0  0
    6.6507   -0.0008   19.9096 C   0  0  0  0  0  0  0  0  0  0  0  0
    5.4355    0.6513   20.1622 C   0  0  0  0  0  0  0  0  0  0  0  0
    4.8109    1.3022   19.1045 C   0  0  0  0  0  0  0  0  0  0  0  0
    5.4203    1.2783   17.8443 C   0  0  0  0  0  0  0  0  0  0  0  0
    6.5819    0.6555   17.5926 N   0  0  0  0  0  0  0  0  0  0  0  0
    7.1855    0.0383   18.6124 C   0  0  0  0  0  0  0  0  0  0  0  0
    8.1362   -0.4404   18.3794 H   0  0  0  0  0  0  0  0  0  0  0  0
    4.9571    1.7826   16.9997 H   0  0  0  0  0  0  0  0  0  0  0  0
    3.8774    1.8371   19.2434 H   0  0  0  0  0  0  0  0  0  0  0  0
    5.0054    0.6427   21.1666 H   0  0  0  0  0  0  0  0  0  0  0  0
    6.9013   -0.7545   22.2456 N   0  0  0  0  0  0  0  0  0  0  0  0
    7.8298   -1.4457   22.8739 C   0  0  0  0  0  0  0  0  0  0  0  0
    7.7814   -1.8846   24.2957 C   0  0  0  0  0  0  0  0  0  0  0  0
    7.0826   -3.2431   24.4668 C   0  0  0  0  0  0  0  0  0  0  0  0
    6.9736   -3.6341   25.8559 N   0  0  0  0  0  0  0  0  0  0  0  0
    8.1348   -4.2392   26.4885 C   0  0  0  0  0  0  0  0  0  0  0  0
    8.9864   -4.1596   25.8058 H   0  0  0  0  0  0  0  0  0  0  0  0
    8.3877   -3.7228   27.4263 H   0  0  0  0  0  0  0  0  0  0  0  0
    7.9838   -5.3048   26.7239 H   0  0  0  0  0  0  0  0  0  0  0  0
    5.8409   -3.3806   26.5841 C   0  0  0  0  0  0  0  0  0  0  0  0
    5.5481   -4.1350   27.7341 C   0  0  0  0  0  0  0  0  0  0  0  0
    4.3810   -3.8604   28.4292 C   0  0  0  0  0  0  0  0  0  0  0  0
    3.5103   -2.9036   28.0818 N   0  0  0  0  0  0  0  0  0  0  0  0
    3.8014   -2.1815   26.9920 C   0  0  0  0  0  0  0  0  0  0  0  0
    4.9277   -2.3777   26.2051 C   0  0  0  0  0  0  0  0  0  0  0  0
    5.1089   -1.7619   25.3306 H   0  0  0  0  0  0  0  0  0  0  0  0
    3.0782   -1.4045   26.7339 H   0  0  0  0  0  0  0  0  0  0  0  0
    4.1244   -4.4419   29.3181 H   0  0  0  0  0  0  0  0  0  0  0  0
    6.2185   -4.9232   28.0522 H   0  0  0  0  0  0  0  0  0  0  0  0
    7.6440   -4.0286   23.9352 H   0  0  0  0  0  0  0  0  0  0  0  0
    6.0816   -3.2094   24.0192 H   0  0  0  0  0  0  0  0  0  0  0  0
    8.7975   -1.9466   24.7033 H   0  0  0  0  0  0  0  0  0  0  0  0
    7.2516   -1.1197   24.8719 H   0  0  0  0  0  0  0  0  0  0  0  0
    9.8960   -3.3137   22.9215 H   0  0  0  0  0  0  0  0  0  0  0  0
   10.2520   -2.9181   21.2252 H   0  0  0  0  0  0  0  0  0  0  0  0
   11.3982   -0.8474   21.8504 H   0  0  0  0  0  0  0  0  0  0  0  0
   12.1024   -2.2147   22.7207 H   0  0  0  0  0  0  0  0  0  0  0  0
   11.0342   -1.0672   23.5719 H   0  0  0  0  0  0  0  0  0  0  0  0
  1  2  1  0
  2  3  1  0
  3  4  1  0
  4  5  2  0
  5  6  1  0
  6  7  2  0
  7  8  1  0
  8  9  2  0
  9 10  1  0
 10 11  2  0
 11 12  1  0
  9 13  1  0
  8 14  1  0
  7 15  1  0
  5 16  1  0
 16 17  2  0
 17 18  1  0
 18 19  1  0
 19 20  1  0
 20 21  1  0
 21 22  1  0
 21 23  1  0
 21 24  1  0
 20 25  1  0
 25 26  2  0
 26 27  1  0
 27 28  2  0
 28 29  1  0
 29 30  2  0
 30 31  1  0
 29 32  1  0
 27 33  1  0
 26 34  1  0
 19 35  1  0
 19 36  1  0
 18 37  1  0
 18 38  1  0
  2 39  1  0
  2 40  1  0
  1 41  1  0
  1 42  1  0
  1 43  1  0
 17  3  1  0
 30 25  1  0
 11  6  1  0
M  END
>  <cnnaffinity>  (1) 
-5.59546

>  <filename>  (1) 
[H]c1nc([H])c(-c2nc(C([H])([H])C([H])([H])N(c3c([H])c([H])nc([H])c3[H])C([H])([H])[H])n(C([H])([H])C([H])([H])[H])n2)c([H])c1[H]

$$$$
