
     RDKit          3D

 38 40  0  0  0  0  0  0  0  0999 V2000
    4.9233    1.8095   16.9837 H   0  0  0  0  0  0  0  0  0  0  0  0
    5.3913    1.3000   17.8212 C   0  0  0  0  0  0  0  0  0  0  0  0
    6.5480    0.6729   17.5585 N   0  0  0  0  0  0  0  0  0  0  0  0
    7.1470    0.0538   18.5852 C   0  0  0  0  0  0  0  0  0  0  0  0
    8.0967   -0.4356   18.3614 H   0  0  0  0  0  0  0  0  0  0  0  0
    6.6392    0.0156   19.9024 C   0  0  0  0  0  0  0  0  0  0  0  0
    7.4042   -0.6867   21.0079 C   0  0  0  0  0  0  0  0  0  0  0  0
    8.6222    0.0551   21.6059 C   0  0  0  0  0  0  0  0  0  0  0  0
    9.7194   -0.4743   21.6015 O   0  0  0  0  0  0  0  0  0  0  0  0
    8.5053    1.4619   22.1147 C   0  0  0  0  0  0  0  0  0  0  0  0
    9.5470    2.3727   21.8860 C   0  0  0  0  0  0  0  0  0  0  0  0
   10.4037    2.0836   21.2817 H   0  0  0  0  0  0  0  0  0  0  0  0
    9.5080    3.6595   22.4102 C   0  0  0  0  0  0  0  0  0  0  0  0
   10.3505    4.3228   22.2627 H   0  0  0  0  0  0  0  0  0  0  0  0
    8.3706    4.0955   23.0997 C   0  0  0  0  0  0  0  0  0  0  0  0
    8.1772    5.3613   23.5546 O   0  0  0  0  0  0  0  0  0  0  0  0
    9.1055    6.3599   23.1746 C   0  0  0  0  0  0  0  0  0  0  0  0
    9.1503    6.4784   22.0829 H   0  0  0  0  0  0  0  0  0  0  0  0
   10.1095    6.1203   23.5461 H   0  0  0  0  0  0  0  0  0  0  0  0
    8.7668    7.2929   23.6256 H   0  0  0  0  0  0  0  0  0  0  0  0
    7.3451    3.1940   23.3888 C   0  0  0  0  0  0  0  0  0  0  0  0
    6.4978    3.5397   23.9676 H   0  0  0  0  0  0  0  0  0  0  0  0
    7.4331    1.8783   22.9322 C   0  0  0  0  0  0  0  0  0  0  0  0
    6.5384    0.9179   23.2785 O   0  0  0  0  0  0  0  0  0  0  0  0
    5.4652    1.2461   24.1321 C   0  0  0  0  0  0  0  0  0  0  0  0
    5.8096    1.6406   25.0959 H   0  0  0  0  0  0  0  0  0  0  0  0
    4.7945    1.9778   23.6664 H   0  0  0  0  0  0  0  0  0  0  0  0
    4.9183    0.3250   24.3217 H   0  0  0  0  0  0  0  0  0  0  0  0
    6.6626   -1.6382   21.9312 C   0  0  0  0  0  0  0  0  0  0  0  0
    6.9916   -1.7165   22.9655 H   0  0  0  0  0  0  0  0  0  0  0  0
    5.5900   -1.7136   21.7759 H   0  0  0  0  0  0  0  0  0  0  0  0
    7.5205   -2.1969   20.8542 C   0  0  0  0  0  0  0  0  0  0  0  0
    6.9579   -2.6215   20.0281 H   0  0  0  0  0  0  0  0  0  0  0  0
    8.4727   -2.6711   21.0797 H   0  0  0  0  0  0  0  0  0  0  0  0
    5.4241    0.6667   20.1401 C   0  0  0  0  0  0  0  0  0  0  0  0
    5.0126    0.6628   21.1504 H   0  0  0  0  0  0  0  0  0  0  0  0
    4.7876    1.3204   19.0831 C   0  0  0  0  0  0  0  0  0  0  0  0
    3.8535    1.8513   19.2265 H   0  0  0  0  0  0  0  0  0  0  0  0
  1  2  1  0
  2  3  2  0
  3  4  1  0
  4  5  1  0
  4  6  2  0
  6  7  1  0
  7  8  1  0
  8  9  2  0
  8 10  1  0
 10 11  2  0
 11 12  1  0
 11 13  1  0
 13 14  1  0
 13 15  2  0
 15 16  1  0
 16 17  1  0
 17 18  1  0
 17 19  1  0
 17 20  1  0
 15 21  1  0
 21 22  1  0
 21 23  2  0
 23 24  1  0
 24 25  1  0
 25 26  1  0
 25 27  1  0
 25 28  1  0
  7 29  1  0
 29 30  1  0
 29 31  1  0
 29 32  1  0
 32 33  1  0
 32 34  1  0
  6 35  1  0
 35 36  1  0
 35 37  2  0
 37 38  1  0
 37  2  1  0
 32  7  1  0
 23 10  1  0
M  END
>  <cnnaffinity>  (1) 
-5.01568

>  <filename>  (1) 
[H]c1nc([H])c(C2(C(=O)c3c([H])c([H])c(OC([H])([H])[H])c([H])c3OC([H])([H])[H])C([H])([H])C2([H])[H])c([H])c1[H]

$$$$
