
     RDKit          3D

 30 32  0  0  0  0  0  0  0  0999 V2000
    7.5964    0.7546   22.8320 O   0  0  0  0  0  0  0  0  0  0  0  0
    8.2190    0.4646   21.8335 C   0  0  0  0  0  0  0  0  0  0  0  0
    9.3885    1.0819   21.4458 N   0  0  0  0  0  0  0  0  0  0  0  0
    9.9511    2.2572   22.0065 C   0  0  0  0  0  0  0  0  0  0  0  0
    9.1304    3.3057   22.4832 C   0  0  0  0  0  0  0  0  0  0  0  0
    9.7078    4.4687   22.9796 C   0  0  0  0  0  0  0  0  0  0  0  0
   11.1111    4.5595   23.0502 C   0  0  0  0  0  0  0  0  0  0  0  0
   12.1042    5.8161   23.7235 S   0  0  0  0  0  0  0  0  0  0  0  0
   13.5560    5.0496   23.3321 N   0  0  0  0  0  0  0  0  0  0  0  0
   13.3358    3.9224   22.7314 C   0  0  0  0  0  0  0  0  0  0  0  0
   11.9430    3.5321   22.5530 C   0  0  0  0  0  0  0  0  0  0  0  0
   11.3379    2.3667   22.0157 C   0  0  0  0  0  0  0  0  0  0  0  0
   11.9230    1.5363   21.6234 H   0  0  0  0  0  0  0  0  0  0  0  0
   14.2020    3.3453   22.4126 H   0  0  0  0  0  0  0  0  0  0  0  0
    9.0718    5.2831   23.3134 H   0  0  0  0  0  0  0  0  0  0  0  0
    8.0526    3.1950   22.4473 H   0  0  0  0  0  0  0  0  0  0  0  0
   10.0263    0.5321   20.8939 H   0  0  0  0  0  0  0  0  0  0  0  0
    7.6550   -0.6231   20.8124 C   0  0  0  0  0  0  0  0  0  0  0  0
    6.9665   -1.5643   21.5046 F   0  0  0  0  0  0  0  0  0  0  0  0
    8.7180   -1.2850   20.2304 F   0  0  0  0  0  0  0  0  0  0  0  0
    6.7615   -0.0360   19.7357 C   0  0  0  0  0  0  0  0  0  0  0  0
    5.5843    0.6558   20.0595 C   0  0  0  0  0  0  0  0  0  0  0  0
    4.9150    1.3228   19.0319 C   0  0  0  0  0  0  0  0  0  0  0  0
    5.4331    1.2691   17.7342 C   0  0  0  0  0  0  0  0  0  0  0  0
    6.5204    0.5550   17.4097 N   0  0  0  0  0  0  0  0  0  0  0  0
    7.1514   -0.0927   18.3902 C   0  0  0  0  0  0  0  0  0  0  0  0
    8.0285   -0.6638   18.0995 H   0  0  0  0  0  0  0  0  0  0  0  0
    4.9602    1.8182   16.9204 H   0  0  0  0  0  0  0  0  0  0  0  0
    4.0154    1.8965   19.2173 H   0  0  0  0  0  0  0  0  0  0  0  0
    5.2219    0.6897   21.0883 H   0  0  0  0  0  0  0  0  0  0  0  0
  1  2  2  0
  2  3  1  0
  3  4  1  0
  4  5  2  0
  5  6  1  0
  6  7  2  0
  7  8  1  0
  8  9  1  0
  9 10  2  0
 10 11  1  0
 11 12  2  0
 12 13  1  0
 10 14  1  0
  6 15  1  0
  5 16  1  0
  3 17  1  0
  2 18  1  0
 18 19  1  0
 18 20  1  0
 18 21  1  0
 21 22  2  0
 22 23  1  0
 23 24  2  0
 24 25  1  0
 25 26  2  0
 26 27  1  0
 24 28  1  0
 23 29  1  0
 22 30  1  0
 12  4  1  0
 26 21  1  0
 11  7  1  0
M  END
>  <cnnaffinity>  (1) 
-4.73325

>  <filename>  (1) 
[H]c1nc([H])c(C(F)(F)C(=O)N([H])c2c([H])c([H])c3snc([H])c3c2[H])c([H])c1[H]

$$$$
