
     RDKit          3D

 35 36  0  0  0  0  0  0  0  0999 V2000
    6.6711   -2.1341   21.2774 C   0  0  0  0  0  0  0  0  0  0  0  0
    7.4134   -0.8527   20.9240 C   0  0  0  0  0  0  0  0  0  0  0  0
    7.6708   -0.1181   22.1559 N   0  0  0  0  0  0  0  0  0  0  0  0
    8.3590    1.0821   22.0985 C   0  0  0  0  0  0  0  0  0  0  0  0
    8.8478    1.5767   21.1058 O   0  0  0  0  0  0  0  0  0  0  0  0
    8.4316    1.5913   23.3749 N   0  0  0  0  0  0  0  0  0  0  0  0
    8.7790    2.8742   23.7410 C   0  0  0  0  0  0  0  0  0  0  0  0
    9.3106    3.0981   25.0075 C   0  0  0  0  0  0  0  0  0  0  0  0
    9.5136    4.4202   25.3996 C   0  0  0  0  0  0  0  0  0  0  0  0
    9.2433    5.4660   24.6178 N   0  0  0  0  0  0  0  0  0  0  0  0
    8.7834    5.2314   23.3747 C   0  0  0  0  0  0  0  0  0  0  0  0
    8.5664    6.4734   22.4830 C   0  0  0  0  0  0  0  0  0  0  0  0
    7.4553    7.1505   22.8256 F   0  0  0  0  0  0  0  0  0  0  0  0
    9.5999    7.3192   22.5696 F   0  0  0  0  0  0  0  0  0  0  0  0
    8.4431    6.1504   21.1808 F   0  0  0  0  0  0  0  0  0  0  0  0
    8.5288    3.9499   22.8889 C   0  0  0  0  0  0  0  0  0  0  0  0
    8.1420    3.7602   21.8953 H   0  0  0  0  0  0  0  0  0  0  0  0
    9.9149    4.6700   26.3798 H   0  0  0  0  0  0  0  0  0  0  0  0
    9.6192    2.2616   25.6226 H   0  0  0  0  0  0  0  0  0  0  0  0
    8.3728    0.8983   24.0992 H   0  0  0  0  0  0  0  0  0  0  0  0
    6.8900   -0.0590   22.7942 H   0  0  0  0  0  0  0  0  0  0  0  0
    6.6834   -0.0390   19.8665 C   0  0  0  0  0  0  0  0  0  0  0  0
    5.4782    0.6353   20.1129 C   0  0  0  0  0  0  0  0  0  0  0  0
    4.8722    1.3280   19.0629 C   0  0  0  0  0  0  0  0  0  0  0  0
    5.4782    1.3063   17.8011 C   0  0  0  0  0  0  0  0  0  0  0  0
    6.6253    0.6629   17.5403 N   0  0  0  0  0  0  0  0  0  0  0  0
    7.2028    0.0219   18.5673 C   0  0  0  0  0  0  0  0  0  0  0  0
    8.1453   -0.4849   18.3443 H   0  0  0  0  0  0  0  0  0  0  0  0
    5.0175    1.8228   16.9616 H   0  0  0  0  0  0  0  0  0  0  0  0
    3.9546    1.8851   19.2123 H   0  0  0  0  0  0  0  0  0  0  0  0
    5.0254    0.6355   21.1094 H   0  0  0  0  0  0  0  0  0  0  0  0
    8.3964   -1.1229   20.5153 H   0  0  0  0  0  0  0  0  0  0  0  0
    7.2280   -2.6815   22.0419 H   0  0  0  0  0  0  0  0  0  0  0  0
    6.5658   -2.7728   20.3969 H   0  0  0  0  0  0  0  0  0  0  0  0
    5.6663   -1.9249   21.6627 H   0  0  0  0  0  0  0  0  0  0  0  0
  1  2  1  0
  2  3  1  0
  3  4  1  0
  4  5  2  0
  4  6  1  0
  6  7  1  0
  7  8  2  0
  8  9  1  0
  9 10  2  0
 10 11  1  0
 11 12  1  0
 12 13  1  0
 12 14  1  0
 12 15  1  0
 11 16  2  0
 16 17  1  0
  9 18  1  0
  8 19  1  0
  6 20  1  0
  3 21  1  0
  2 22  1  0
 22 23  2  0
 23 24  1  0
 24 25  2  0
 25 26  1  0
 26 27  2  0
 27 28  1  0
 25 29  1  0
 24 30  1  0
 23 31  1  0
  2 32  1  0
  1 33  1  0
  1 34  1  0
  1 35  1  0
 16  7  1  0
 27 22  1  0
M  END
>  <cnnaffinity>  (1) 
-4.72292

>  <filename>  (1) 
[H]c1nc([H])c(C([H])(N([H])C(=O)N([H])c2c([H])c([H])nc(C(F)(F)F)c2[H])C([H])([H])[H])c([H])c1[H]

$$$$
