
     RDKit          3D

 35 37  0  0  0  0  0  0  0  0999 V2000
    9.8972   -0.3790   24.9994 C   0  0  0  0  0  0  0  0  0  0  0  0
    8.4423   -0.8061   24.9807 C   0  0  0  0  0  0  0  0  0  0  0  0
    7.5089   -0.2296   25.8657 C   0  0  0  0  0  0  0  0  0  0  0  0
    8.0024    1.0310   26.9700 Cl  0  0  0  0  0  0  0  0  0  0  0  0
    6.1688   -0.6207   25.9149 C   0  0  0  0  0  0  0  0  0  0  0  0
    5.7245   -1.6176   25.0518 C   0  0  0  0  0  0  0  0  0  0  0  0
    6.6123   -2.1874   24.1372 C   0  0  0  0  0  0  0  0  0  0  0  0
    7.9509   -1.7766   24.0733 C   0  0  0  0  0  0  0  0  0  0  0  0
    8.8453   -2.3913   23.0102 C   0  0  0  0  0  0  0  0  0  0  0  0
    9.3709   -1.4284   22.0496 N   0  0  0  0  0  0  0  0  0  0  0  0
   10.6784   -1.0632   21.8872 C   0  0  0  0  0  0  0  0  0  0  0  0
   10.8073   -0.1360   20.9902 N   0  0  0  0  0  0  0  0  0  0  0  0
    9.5469    0.1273   20.4968 N   0  0  0  0  0  0  0  0  0  0  0  0
    8.7093   -0.6408   21.1428 C   0  0  0  0  0  0  0  0  0  0  0  0
    7.3554   -0.7199   20.9272 N   0  0  0  0  0  0  0  0  0  0  0  0
    6.6722   -0.0137   19.9038 C   0  0  0  0  0  0  0  0  0  0  0  0
    5.4508    0.6226   20.1625 C   0  0  0  0  0  0  0  0  0  0  0  0
    4.8146    1.2985   19.1105 C   0  0  0  0  0  0  0  0  0  0  0  0
    5.3890    1.2956   17.8362 C   0  0  0  0  0  0  0  0  0  0  0  0
    6.5487    0.6764   17.5615 N   0  0  0  0  0  0  0  0  0  0  0  0
    7.1744    0.0608   18.5734 C   0  0  0  0  0  0  0  0  0  0  0  0
    8.1326   -0.4084   18.3654 H   0  0  0  0  0  0  0  0  0  0  0  0
    4.9133    1.7964   16.9966 H   0  0  0  0  0  0  0  0  0  0  0  0
    3.8887    1.8310   19.2682 H   0  0  0  0  0  0  0  0  0  0  0  0
    5.0335    0.6150   21.1695 H   0  0  0  0  0  0  0  0  0  0  0  0
    6.8296   -1.0867   21.7049 H   0  0  0  0  0  0  0  0  0  0  0  0
   11.5010   -1.4820   22.4509 H   0  0  0  0  0  0  0  0  0  0  0  0
    9.7043   -2.8993   23.4667 H   0  0  0  0  0  0  0  0  0  0  0  0
    8.2870   -3.1562   22.4639 H   0  0  0  0  0  0  0  0  0  0  0  0
    6.2612   -2.9568   23.4533 H   0  0  0  0  0  0  0  0  0  0  0  0
    4.6866   -1.9349   25.0705 H   0  0  0  0  0  0  0  0  0  0  0  0
    5.5058   -0.1416   26.6285 H   0  0  0  0  0  0  0  0  0  0  0  0
   10.0700    0.4426   24.2943 H   0  0  0  0  0  0  0  0  0  0  0  0
   10.1942   -0.0181   25.9872 H   0  0  0  0  0  0  0  0  0  0  0  0
   10.5648   -1.1989   24.7175 H   0  0  0  0  0  0  0  0  0  0  0  0
  1  2  1  0
  2  3  2  0
  3  4  1  0
  3  5  1  0
  5  6  2  0
  6  7  1  0
  7  8  2  0
  8  9  1  0
  9 10  1  0
 10 11  1  0
 11 12  2  0
 12 13  1  0
 13 14  2  0
 14 15  1  0
 15 16  1  0
 16 17  2  0
 17 18  1  0
 18 19  2  0
 19 20  1  0
 20 21  2  0
 21 22  1  0
 19 23  1  0
 18 24  1  0
 17 25  1  0
 15 26  1  0
 11 27  1  0
  9 28  1  0
  9 29  1  0
  7 30  1  0
  6 31  1  0
  5 32  1  0
  1 33  1  0
  1 34  1  0
  1 35  1  0
  8  2  1  0
 14 10  1  0
 21 16  1  0
M  END
>  <cnnaffinity>  (1) 
-5.52788

>  <filename>  (1) 
[H]c1nc([H])c(N([H])c2nnc([H])n2C([H])([H])c2c([H])c([H])c([H])c(Cl)c2C([H])([H])[H])c([H])c1[H]

$$$$
