
     RDKit          3D

 40 42  0  0  0  0  0  0  0  0999 V2000
   13.0761   -0.8314   22.6043 F   0  0  0  0  0  0  0  0  0  0  0  0
   12.2426   -1.7023   22.0102 C   0  0  0  0  0  0  0  0  0  0  0  0
   12.2892   -2.8645   22.6885 F   0  0  0  0  0  0  0  0  0  0  0  0
   12.7294   -1.9134   20.7744 F   0  0  0  0  0  0  0  0  0  0  0  0
   10.8304   -1.1753   21.9934 C   0  0  0  0  0  0  0  0  0  0  0  0
    9.7823   -2.2971   21.9078 C   0  0  0  0  0  0  0  0  0  0  0  0
    8.4418   -1.7447   21.8415 N   0  0  0  0  0  0  0  0  0  0  0  0
    8.0738   -1.2703   20.6397 N   0  0  0  0  0  0  0  0  0  0  0  0
    6.9963   -0.5532   20.9015 C   0  0  0  0  0  0  0  0  0  0  0  0
    6.3472    0.1716   19.8198 C   0  0  0  0  0  0  0  0  0  0  0  0
    5.1478    0.8818   19.9635 C   0  0  0  0  0  0  0  0  0  0  0  0
    4.6364    1.5076   18.8283 C   0  0  0  0  0  0  0  0  0  0  0  0
    5.3410    1.4140   17.6215 C   0  0  0  0  0  0  0  0  0  0  0  0
    6.4957    0.7470   17.4808 N   0  0  0  0  0  0  0  0  0  0  0  0
    6.9822    0.1469   18.5662 C   0  0  0  0  0  0  0  0  0  0  0  0
    7.9266   -0.3819   18.4458 H   0  0  0  0  0  0  0  0  0  0  0  0
    4.9686    1.8993   16.7248 H   0  0  0  0  0  0  0  0  0  0  0  0
    3.7185    2.0832   18.8645 H   0  0  0  0  0  0  0  0  0  0  0  0
    4.6507    0.9433   20.9346 H   0  0  0  0  0  0  0  0  0  0  0  0
    6.6424   -0.5441   22.2030 N   0  0  0  0  0  0  0  0  0  0  0  0
    7.5622   -1.3072   22.7840 C   0  0  0  0  0  0  0  0  0  0  0  0
    7.6544   -1.8176   24.2104 C   0  0  0  0  0  0  0  0  0  0  0  0
    6.9838   -3.2121   24.3770 C   0  0  0  0  0  0  0  0  0  0  0  0
    6.9375   -3.6404   25.8483 C   0  0  0  0  0  0  0  0  0  0  0  0
    6.3273   -2.5148   26.6914 C   0  0  0  0  0  0  0  0  0  0  0  0
    7.1136   -1.2263   26.4591 C   0  0  0  0  0  0  0  0  0  0  0  0
    7.0923   -0.8562   25.0896 O   0  0  0  0  0  0  0  0  0  0  0  0
    6.6783   -0.3808   26.9995 H   0  0  0  0  0  0  0  0  0  0  0  0
    8.1536   -1.3502   26.8157 H   0  0  0  0  0  0  0  0  0  0  0  0
    5.2846   -2.3493   26.3869 H   0  0  0  0  0  0  0  0  0  0  0  0
    6.3190   -2.7679   27.7569 H   0  0  0  0  0  0  0  0  0  0  0  0
    6.3599   -4.5660   25.9563 H   0  0  0  0  0  0  0  0  0  0  0  0
    7.9510   -3.8670   26.2138 H   0  0  0  0  0  0  0  0  0  0  0  0
    7.5202   -3.9469   23.7649 H   0  0  0  0  0  0  0  0  0  0  0  0
    5.9611   -3.1384   23.9871 H   0  0  0  0  0  0  0  0  0  0  0  0
    8.7241   -1.9216   24.4622 H   0  0  0  0  0  0  0  0  0  0  0  0
    9.9029   -2.8338   20.9663 H   0  0  0  0  0  0  0  0  0  0  0  0
    9.8493   -3.0239   22.7224 H   0  0  0  0  0  0  0  0  0  0  0  0
   10.7458   -0.5390   21.1120 H   0  0  0  0  0  0  0  0  0  0  0  0
   10.6879   -0.5358   22.8724 H   0  0  0  0  0  0  0  0  0  0  0  0
  1  2  1  0
  2  3  1  0
  2  4  1  0
  2  5  1  0
  5  6  1  0
  6  7  1  0
  7  8  1  0
  8  9  2  0
  9 10  1  0
 10 11  2  0
 11 12  1  0
 12 13  2  0
 13 14  1  0
 14 15  2  0
 15 16  1  0
 13 17  1  0
 12 18  1  0
 11 19  1  0
  9 20  1  0
 20 21  2  0
 21 22  1  0
 22 23  1  0
 23 24  1  0
 24 25  1  0
 25 26  1  0
 26 27  1  0
 26 28  1  0
 26 29  1  0
 25 30  1  0
 25 31  1  0
 24 32  1  0
 24 33  1  0
 23 34  1  0
 23 35  1  0
 22 36  1  0
  6 37  1  0
  6 38  1  0
  5 39  1  0
  5 40  1  0
 21  7  1  0
 27 22  1  0
 15 10  1  0
M  END
>  <cnnaffinity>  (1) 
-6.02286

>  <filename>  (1) 
[H]c1nc([H])c(-c2nc(C3([H])OC([H])([H])C([H])([H])C([H])([H])C3([H])[H])n(C([H])([H])C([H])([H])C(F)(F)F)n2)c([H])c1[H]

$$$$
