
     RDKit          3D

 32 34  0  0  0  0  0  0  0  0999 V2000
    4.9298    1.8136   16.9809 H   0  0  0  0  0  0  0  0  0  0  0  0
    5.3968    1.3075   17.8220 C   0  0  0  0  0  0  0  0  0  0  0  0
    6.5613    0.6883   17.5738 N   0  0  0  0  0  0  0  0  0  0  0  0
    7.1816    0.0874   18.5958 C   0  0  0  0  0  0  0  0  0  0  0  0
    8.1333   -0.3876   18.3594 H   0  0  0  0  0  0  0  0  0  0  0  0
    6.6719    0.0658   19.9109 C   0  0  0  0  0  0  0  0  0  0  0  0
    7.3776   -0.5879   20.9686 N   0  0  0  0  0  0  0  0  0  0  0  0
    7.7436   -1.9045   20.9602 C   0  0  0  0  0  0  0  0  0  0  0  0
    7.4659   -2.5281   20.1287 H   0  0  0  0  0  0  0  0  0  0  0  0
    8.2584   -2.3042   22.0914 N   0  0  0  0  0  0  0  0  0  0  0  0
    8.1745   -1.2252   22.9200 C   0  0  0  0  0  0  0  0  0  0  0  0
    8.4657   -1.2740   23.9604 H   0  0  0  0  0  0  0  0  0  0  0  0
    7.6387   -0.1558   22.2744 C   0  0  0  0  0  0  0  0  0  0  0  0
    7.3038    1.1195   22.9081 C   0  0  0  0  0  0  0  0  0  0  0  0
    7.0049    1.1597   24.0890 O   0  0  0  0  0  0  0  0  0  0  0  0
    7.3797    2.2174   22.1041 N   0  0  0  0  0  0  0  0  0  0  0  0
    7.5911    2.0442   21.1388 H   0  0  0  0  0  0  0  0  0  0  0  0
    6.9562    3.5113   22.4567 C   0  0  0  0  0  0  0  0  0  0  0  0
    6.2866    4.2933   21.5154 C   0  0  0  0  0  0  0  0  0  0  0  0
    6.0834    3.8674   20.5381 H   0  0  0  0  0  0  0  0  0  0  0  0
    5.8359    5.5723   21.8667 C   0  0  0  0  0  0  0  0  0  0  0  0
    5.3115    6.1817   21.1305 H   0  0  0  0  0  0  0  0  0  0  0  0
    6.0524    6.0537   23.1648 C   0  0  0  0  0  0  0  0  0  0  0  0
    5.6823    7.0343   23.4525 H   0  0  0  0  0  0  0  0  0  0  0  0
    6.7298    5.2620   24.1017 C   0  0  0  0  0  0  0  0  0  0  0  0
    6.8879    5.6163   25.1192 H   0  0  0  0  0  0  0  0  0  0  0  0
    7.1847    3.9914   23.7472 C   0  0  0  0  0  0  0  0  0  0  0  0
    7.6869    3.3393   24.4468 H   0  0  0  0  0  0  0  0  0  0  0  0
    5.4283    0.6672   20.1423 C   0  0  0  0  0  0  0  0  0  0  0  0
    4.9894    0.6331   21.1395 H   0  0  0  0  0  0  0  0  0  0  0  0
    4.7905    1.3169   19.0828 C   0  0  0  0  0  0  0  0  0  0  0  0
    3.8549    1.8470   19.2324 H   0  0  0  0  0  0  0  0  0  0  0  0
  1  2  1  0
  2  3  2  0
  3  4  1  0
  4  5  1  0
  4  6  2  0
  6  7  1  0
  7  8  1  0
  8  9  1  0
  8 10  2  0
 10 11  1  0
 11 12  1  0
 11 13  2  0
 13 14  1  0
 14 15  2  0
 14 16  1  0
 16 17  1  0
 16 18  1  0
 18 19  2  0
 19 20  1  0
 19 21  1  0
 21 22  1  0
 21 23  2  0
 23 24  1  0
 23 25  1  0
 25 26  1  0
 25 27  2  0
 27 28  1  0
  6 29  1  0
 29 30  1  0
 29 31  2  0
 31 32  1  0
 31  2  1  0
 13  7  1  0
 27 18  1  0
M  END
>  <cnnaffinity>  (1) 
-4.83928

>  <filename>  (1) 
[H]c1nc([H])c(-n2c([H])nc([H])c2C(=O)N([H])c2c([H])c([H])c([H])c([H])c2[H])c([H])c1[H]

$$$$
