
     RDKit          3D

 25 26  0  0  0  0  0  0  0  0999 V2000
    4.9266    1.7866   16.9924 H   0  0  0  0  0  0  0  0  0  0  0  0
    5.4008    1.2913   17.8394 C   0  0  0  0  0  0  0  0  0  0  0  0
    6.5623    0.6722   17.5817 N   0  0  0  0  0  0  0  0  0  0  0  0
    7.1757    0.0629   18.6014 C   0  0  0  0  0  0  0  0  0  0  0  0
    8.1149   -0.4390   18.3740 H   0  0  0  0  0  0  0  0  0  0  0  0
    6.6622    0.0390   19.9018 C   0  0  0  0  0  0  0  0  0  0  0  0
    7.5278   -0.9351   21.1663 S   0  0  0  0  0  4  0  0  0  0  0  0
    6.4920   -1.8412   21.7668 O   0  0  0  0  0  0  0  0  0  0  0  0
    7.9589    0.4935   22.4024 C   0  0  0  0  0  0  0  0  0  0  0  0
    7.0901    1.0610   23.0081 O   0  0  0  0  0  0  0  0  0  0  0  0
    9.4081    0.8236   22.5634 C   0  0  0  0  0  0  0  0  0  0  0  0
    9.7455    1.7602   23.5705 C   0  0  0  0  0  0  0  0  0  0  0  0
    8.9465    2.1898   24.1694 H   0  0  0  0  0  0  0  0  0  0  0  0
   11.0667    2.1358   23.8019 C   0  0  0  0  0  0  0  0  0  0  0  0
   11.3506    2.8580   24.5615 H   0  0  0  0  0  0  0  0  0  0  0  0
   12.0537    1.5430   23.0176 C   0  0  0  0  0  0  0  0  0  0  0  0
   13.3350    1.8835   23.2177 F   0  0  0  0  0  0  0  0  0  0  0  0
   11.7603    0.5878   22.0481 C   0  0  0  0  0  0  0  0  0  0  0  0
   12.5894    0.0911   21.5735 H   0  0  0  0  0  0  0  0  0  0  0  0
   10.4331    0.2395   21.7995 C   0  0  0  0  0  0  0  0  0  0  0  0
   10.2125   -0.5027   21.0303 H   0  0  0  0  0  0  0  0  0  0  0  0
    5.4428    0.6623   20.1740 C   0  0  0  0  0  0  0  0  0  0  0  0
    5.0080    0.6312   21.1728 H   0  0  0  0  0  0  0  0  0  0  0  0
    4.8109    1.3102   19.1077 C   0  0  0  0  0  0  0  0  0  0  0  0
    3.8767    1.8376   19.2469 H   0  0  0  0  0  0  0  0  0  0  0  0
  1  2  1  0
  2  3  2  0
  3  4  1  0
  4  5  1  0
  4  6  2  0
  6  7  1  0
  7  8  2  0
  7  9  1  6
  9 10  2  0
  9 11  1  0
 11 12  2  0
 12 13  1  0
 12 14  1  0
 14 15  1  0
 14 16  2  0
 16 17  1  0
 16 18  1  0
 18 19  1  0
 18 20  2  0
 20 21  1  0
  6 22  1  0
 22 23  1  0
 22 24  2  0
 24 25  1  0
 24  2  1  0
 20 11  1  0
M  END
>  <cnnaffinity>  (1) 
-4.85616

>  <filename>  (1) 
[H]c1nc([H])c([S@@](=O)C(=O)c2c([H])c([H])c(F)c([H])c2[H])c([H])c1[H]

$$$$
