
     RDKit          3D

 34 36  0  0  0  0  0  0  0  0999 V2000
    5.6149   -1.5261   21.7345 H   0  0  0  0  0  0  0  0  0  0  0  0
    6.7004   -1.4789   21.8455 C   0  0  0  0  0  0  0  0  0  0  0  0
    7.3848   -0.7175   20.9717 C   0  0  0  0  0  0  0  0  0  0  0  0
    6.6476   -0.0161   19.8751 C   0  0  0  0  0  0  0  0  0  0  0  0
    7.1685    0.0596   18.5693 C   0  0  0  0  0  0  0  0  0  0  0  0
    8.1179   -0.4223   18.3420 H   0  0  0  0  0  0  0  0  0  0  0  0
    6.5798    0.6888   17.5432 N   0  0  0  0  0  0  0  0  0  0  0  0
    5.4158    1.3086   17.7949 C   0  0  0  0  0  0  0  0  0  0  0  0
    4.9479    1.8248   16.9589 H   0  0  0  0  0  0  0  0  0  0  0  0
    4.8065    1.3081   19.0547 C   0  0  0  0  0  0  0  0  0  0  0  0
    3.8705    1.8360   19.1972 H   0  0  0  0  0  0  0  0  0  0  0  0
    5.4207    0.6344   20.1070 C   0  0  0  0  0  0  0  0  0  0  0  0
    4.9856    0.6494   21.1083 H   0  0  0  0  0  0  0  0  0  0  0  0
    8.8730   -0.4630   21.0804 C   0  0  0  0  0  0  0  0  0  0  0  0
    9.4668   -1.1841   20.5050 H   0  0  0  0  0  0  0  0  0  0  0  0
    9.1145    0.5339   20.7011 H   0  0  0  0  0  0  0  0  0  0  0  0
    9.2063   -0.5231   22.1224 H   0  0  0  0  0  0  0  0  0  0  0  0
    7.2473   -2.2735   22.9755 C   0  0  0  0  0  0  0  0  0  0  0  0
    6.5843   -2.2956   24.2206 C   0  0  0  0  0  0  0  0  0  0  0  0
    5.6929   -1.6996   24.3794 H   0  0  0  0  0  0  0  0  0  0  0  0
    7.0834   -3.0277   25.3053 C   0  0  0  0  0  0  0  0  0  0  0  0
    6.5735   -3.0365   26.2648 H   0  0  0  0  0  0  0  0  0  0  0  0
    8.2684   -3.7563   25.1658 C   0  0  0  0  0  0  0  0  0  0  0  0
    8.9694   -3.7002   23.9409 C   0  0  0  0  0  0  0  0  0  0  0  0
    8.4210   -3.0352   22.8465 C   0  0  0  0  0  0  0  0  0  0  0  0
    8.9083   -3.1362   21.8849 H   0  0  0  0  0  0  0  0  0  0  0  0
   10.1965   -4.2887   23.7950 O   0  0  0  0  0  0  0  0  0  0  0  0
   10.8006   -4.7808   24.9949 C   0  0  0  0  0  0  0  0  0  0  0  0
   11.2338   -3.9621   25.5797 H   0  0  0  0  0  0  0  0  0  0  0  0
   11.6027   -5.4479   24.6786 H   0  0  0  0  0  0  0  0  0  0  0  0
    9.7428   -5.4754   25.8361 C   0  0  0  0  0  0  0  0  0  0  0  0
   10.1492   -5.8748   26.7626 H   0  0  0  0  0  0  0  0  0  0  0  0
    9.3076   -6.2960   25.2517 H   0  0  0  0  0  0  0  0  0  0  0  0
    8.7263   -4.5285   26.2081 O   0  0  0  0  0  0  0  0  0  0  0  0
  1  2  1  0
  2  3  2  3
  3  4  1  0
  4  5  2  0
  5  6  1  0
  5  7  1  0
  7  8  2  0
  8  9  1  0
  8 10  1  0
 10 11  1  0
 10 12  2  0
 12 13  1  0
  3 14  1  0
 14 15  1  0
 14 16  1  0
 14 17  1  0
  2 18  1  0
 18 19  2  0
 19 20  1  0
 19 21  1  0
 21 22  1  0
 21 23  2  0
 23 24  1  0
 24 25  2  0
 25 26  1  0
 24 27  1  0
 27 28  1  0
 28 29  1  0
 28 30  1  0
 28 31  1  0
 31 32  1  0
 31 33  1  0
 31 34  1  0
 12  4  1  0
 25 18  1  0
 34 23  1  0
M  END
>  <cnnaffinity>  (1) 
-5.00846

>  <filename>  (1) 
[H]C(=C(c1c([H])nc([H])c([H])c1[H])C([H])([H])[H])c1c([H])c([H])c2c(c1[H])OC([H])([H])C([H])([H])O2

$$$$
