
     RDKit          3D

 37 40  0  0  0  0  0  0  0  0999 V2000
    4.9831    1.8477   16.9150 H   0  0  0  0  0  0  0  0  0  0  0  0
    5.4243    1.3248   17.7599 C   0  0  0  0  0  0  0  0  0  0  0  0
    6.5902    0.7034   17.5185 N   0  0  0  0  0  0  0  0  0  0  0  0
    7.1624    0.0583   18.5423 C   0  0  0  0  0  0  0  0  0  0  0  0
    8.1168   -0.4333   18.3377 H   0  0  0  0  0  0  0  0  0  0  0  0
    6.6132   -0.0141   19.8365 C   0  0  0  0  0  0  0  0  0  0  0  0
    7.3422   -0.6916   20.9876 C   0  0  2  0  0  0  0  0  0  0  0  0
    8.1667   -1.2816   20.5731 H   0  0  0  0  0  0  0  0  0  0  0  0
    6.4942   -1.7112   21.7643 C   0  0  0  0  0  0  0  0  0  0  0  0
    5.8569   -2.6449   21.3258 O   0  0  0  0  0  0  0  0  0  0  0  0
    6.5506   -1.3843   23.0729 N   0  0  0  0  0  0  0  0  0  0  0  0
    5.8703   -1.8480   23.6537 H   0  0  0  0  0  0  0  0  0  0  0  0
    7.2522   -0.1683   23.4119 C   0  0  0  0  0  0  0  0  0  0  0  0
    6.5615    0.5738   23.8323 H   0  0  0  0  0  0  0  0  0  0  0  0
    8.0313   -0.3711   24.1583 H   0  0  0  0  0  0  0  0  0  0  0  0
    7.8432    0.3330   22.0612 C   0  0  1  0  0  0  0  0  0  0  0  0
    7.4358    1.3311   21.8468 H   0  0  0  0  0  0  0  0  0  0  0  0
    9.3511    0.4736   22.0780 C   0  0  0  0  0  0  0  0  0  0  0  0
   10.0101    1.6774   21.9156 C   0  0  0  0  0  0  0  0  0  0  0  0
    9.4329    2.5951   21.7953 H   0  0  0  0  0  0  0  0  0  0  0  0
   11.4260    1.7419   21.8627 C   0  0  0  0  0  0  0  0  0  0  0  0
   11.9052    2.7131   21.7574 H   0  0  0  0  0  0  0  0  0  0  0  0
   12.1911    0.5982   21.9491 C   0  0  0  0  0  0  0  0  0  0  0  0
   13.2792    0.6568   21.8925 H   0  0  0  0  0  0  0  0  0  0  0  0
   11.5544   -0.6606   22.1640 C   0  0  0  0  0  0  0  0  0  0  0  0
   12.2573   -1.8802   22.3953 C   0  0  0  0  0  0  0  0  0  0  0  0
   13.3401   -1.9065   22.2619 H   0  0  0  0  0  0  0  0  0  0  0  0
   11.5569   -2.9465   22.9137 C   0  0  0  0  0  0  0  0  0  0  0  0
   12.0526   -3.7949   23.3577 H   0  0  0  0  0  0  0  0  0  0  0  0
   10.1496   -2.8876   23.0184 C   0  0  0  0  0  0  0  0  0  0  0  0
    9.5968   -3.7380   23.4107 H   0  0  0  0  0  0  0  0  0  0  0  0
    9.4551   -1.8513   22.6283 N   0  0  0  0  0  0  0  0  0  0  0  0
   10.1304   -0.7062   22.2864 C   0  0  0  0  0  0  0  0  0  0  0  0
    5.3939    0.6367   20.0607 C   0  0  0  0  0  0  0  0  0  0  0  0
    4.9389    0.6172   21.0537 H   0  0  0  0  0  0  0  0  0  0  0  0
    4.7873    1.3195   19.0055 C   0  0  0  0  0  0  0  0  0  0  0  0
    3.8557    1.8585   19.1379 H   0  0  0  0  0  0  0  0  0  0  0  0
  1  2  1  0
  2  3  2  0
  3  4  1  0
  4  5  1  0
  4  6  2  0
  6  7  1  0
  7  8  1  6
  7  9  1  0
  9 10  2  0
  9 11  1  0
 11 12  1  0
 11 13  1  0
 13 14  1  0
 13 15  1  0
 13 16  1  0
 16 17  1  6
 16 18  1  0
 18 19  2  0
 19 20  1  0
 19 21  1  0
 21 22  1  0
 21 23  2  0
 23 24  1  0
 23 25  1  0
 25 26  2  0
 26 27  1  0
 26 28  1  0
 28 29  1  0
 28 30  2  0
 30 31  1  0
 30 32  1  0
 32 33  2  0
  6 34  1  0
 34 35  1  0
 34 36  2  0
 36 37  1  0
 36  2  1  0
 16  7  1  0
 33 18  1  0
 33 25  1  0
M  END
>  <cnnaffinity>  (1) 
-5.87579

>  <filename>  (1) 
[H]c1nc([H])c([C@]2([H])C(=O)N([H])C([H])([H])[C@@]2([H])c2c([H])c([H])c([H])c3c([H])c([H])c([H])nc23)c([H])c1[H]

$$$$
