
     RDKit          3D

 33 34  0  0  0  0  0  0  0  0999 V2000
    4.9154    1.7893   16.9868 H   0  0  0  0  0  0  0  0  0  0  0  0
    5.3941    1.2986   17.8305 C   0  0  0  0  0  0  0  0  0  0  0  0
    6.5582    0.6854   17.5652 N   0  0  0  0  0  0  0  0  0  0  0  0
    7.1565    0.0588   18.5835 C   0  0  0  0  0  0  0  0  0  0  0  0
    8.1112   -0.4177   18.3579 H   0  0  0  0  0  0  0  0  0  0  0  0
    6.6454   -0.0110   19.8856 C   0  0  0  0  0  0  0  0  0  0  0  0
    7.4072   -0.6905   20.9936 C   0  0  0  0  0  0  0  0  0  0  0  0
    7.8772   -1.6052   20.6063 H   0  0  0  0  0  0  0  0  0  0  0  0
    6.7195   -0.9928   21.7971 H   0  0  0  0  0  0  0  0  0  0  0  0
    8.5033    0.1993   21.5956 C   0  0  1  0  0  0  0  0  0  0  0  0
    9.2275    0.4568   20.8115 H   0  0  0  0  0  0  0  0  0  0  0  0
    7.9180    1.4086   21.9800 F   0  0  0  0  0  0  0  0  0  0  0  0
    9.1949   -0.4021   22.8278 C   0  0  0  0  0  0  0  0  0  0  0  0
    8.3839   -0.6395   23.5327 H   0  0  0  0  0  0  0  0  0  0  0  0
    9.9713   -1.6987   22.5057 C   0  0  0  0  0  0  0  0  0  0  0  0
    9.3290   -2.4253   21.9939 H   0  0  0  0  0  0  0  0  0  0  0  0
   10.2530   -2.1693   23.4559 H   0  0  0  0  0  0  0  0  0  0  0  0
   11.2467   -1.4380   21.6886 C   0  0  0  0  0  0  0  0  0  0  0  0
   11.7915   -2.3739   21.5390 H   0  0  0  0  0  0  0  0  0  0  0  0
   10.9724   -1.0714   20.6928 H   0  0  0  0  0  0  0  0  0  0  0  0
   12.1576   -0.4022   22.3576 C   0  0  0  0  0  0  0  0  0  0  0  0
   13.0477   -0.2096   21.7523 H   0  0  0  0  0  0  0  0  0  0  0  0
   12.5564   -0.8010   23.2861 H   0  0  0  0  0  0  0  0  0  0  0  0
   11.4127    0.8916   22.6984 C   0  0  0  0  0  0  0  0  0  0  0  0
   12.0746    1.5614   23.2589 H   0  0  0  0  0  0  0  0  0  0  0  0
   11.1526    1.4153   21.7703 H   0  0  0  0  0  0  0  0  0  0  0  0
   10.1383    0.6147   23.5136 C   0  0  0  0  0  0  0  0  0  0  0  0
    9.6028    1.5499   23.7074 H   0  0  0  0  0  0  0  0  0  0  0  0
   10.4198    0.2048   24.4928 H   0  0  0  0  0  0  0  0  0  0  0  0
    5.4330    0.6458   20.1450 C   0  0  0  0  0  0  0  0  0  0  0  0
    5.0193    0.6388   21.1575 H   0  0  0  0  0  0  0  0  0  0  0  0
    4.8005    1.3137   19.0940 C   0  0  0  0  0  0  0  0  0  0  0  0
    3.8720    1.8470   19.2512 H   0  0  0  0  0  0  0  0  0  0  0  0
  1  2  1  0
  2  3  2  0
  3  4  1  0
  4  5  1  0
  4  6  2  0
  6  7  1  0
  7  8  1  0
  7  9  1  0
  7 10  1  0
 10 11  1  6
 10 12  1  0
 10 13  1  0
 13 14  1  0
 13 15  1  0
 15 16  1  0
 15 17  1  0
 15 18  1  0
 18 19  1  0
 18 20  1  0
 18 21  1  0
 21 22  1  0
 21 23  1  0
 21 24  1  0
 24 25  1  0
 24 26  1  0
 24 27  1  0
 27 28  1  0
 27 29  1  0
  6 30  1  0
 30 31  1  0
 30 32  2  0
 32 33  1  0
 32  2  1  0
 27 13  1  0
M  END
>  <cnnaffinity>  (1) 
-4.64779

>  <filename>  (1) 
[H]c1nc([H])c(C([H])([H])[C@@]([H])(F)C2([H])C([H])([H])C([H])([H])C([H])([H])C([H])([H])C2([H])[H])c([H])c1[H]

$$$$
