
     RDKit          3D

 44 47  0  0  0  0  0  0  0  0999 V2000
    9.3241    5.6133   27.0864 F   0  0  0  0  0  0  0  0  0  0  0  0
    9.2485    4.7405   26.0691 C   0  0  0  0  0  0  0  0  0  0  0  0
    8.8461    3.4335   26.3625 C   0  0  0  0  0  0  0  0  0  0  0  0
    8.8244    2.4790   25.3439 C   0  0  0  0  0  0  0  0  0  0  0  0
    9.1646    2.8079   24.0341 C   0  0  0  0  0  0  0  0  0  0  0  0
    9.0760    1.8144   22.9533 C   0  0  0  0  0  0  0  0  0  0  0  0
    8.0354    1.0175   22.7629 N   0  0  0  0  0  0  0  0  0  0  0  0
    8.3624    0.3385   21.6387 C   0  0  0  0  0  0  0  0  0  0  0  0
    7.4477   -0.6562   20.9840 C   0  0  0  0  0  0  0  0  0  0  0  0
    6.6501   -0.0339   19.8389 C   0  0  0  0  0  0  0  0  0  0  0  0
    5.4438    0.6332   20.1010 C   0  0  0  0  0  0  0  0  0  0  0  0
    4.7984    1.3039   19.0624 C   0  0  0  0  0  0  0  0  0  0  0  0
    5.3893    1.2969   17.7970 C   0  0  0  0  0  0  0  0  0  0  0  0
    6.5381    0.6632   17.5132 N   0  0  0  0  0  0  0  0  0  0  0  0
    7.1447    0.0233   18.5205 C   0  0  0  0  0  0  0  0  0  0  0  0
    8.0935   -0.4566   18.2707 H   0  0  0  0  0  0  0  0  0  0  0  0
    4.9258    1.8389   16.9780 H   0  0  0  0  0  0  0  0  0  0  0  0
    3.8723    1.8479   19.2248 H   0  0  0  0  0  0  0  0  0  0  0  0
    5.0252    0.6452   21.1101 H   0  0  0  0  0  0  0  0  0  0  0  0
    8.0566   -1.4972   20.6324 H   0  0  0  0  0  0  0  0  0  0  0  0
    6.7835   -1.0405   21.7691 H   0  0  0  0  0  0  0  0  0  0  0  0
    9.5436    0.6469   21.1350 N   0  0  0  0  0  0  0  0  0  0  0  0
   10.0019    1.5986   21.9867 N   0  0  0  0  0  0  0  0  0  0  0  0
   11.4049    1.9760   21.9115 C   0  0  0  0  0  0  0  0  0  0  0  0
   12.3318    0.9320   22.5597 C   0  0  0  0  0  0  0  0  0  0  0  0
   12.1535    0.7707   24.0662 C   0  0  0  0  0  0  0  0  0  0  0  0
   11.1123   -0.0161   24.3933 F   0  0  0  0  0  0  0  0  0  0  0  0
   13.2398    0.2258   24.6421 F   0  0  0  0  0  0  0  0  0  0  0  0
   11.9588    1.9667   24.6576 F   0  0  0  0  0  0  0  0  0  0  0  0
   12.1745   -0.0444   22.0910 H   0  0  0  0  0  0  0  0  0  0  0  0
   13.3673    1.2341   22.3806 H   0  0  0  0  0  0  0  0  0  0  0  0
   11.5225    2.9578   22.3681 H   0  0  0  0  0  0  0  0  0  0  0  0
   11.6346    2.0926   20.8494 H   0  0  0  0  0  0  0  0  0  0  0  0
    9.5077    4.1447   23.7935 C   0  0  0  0  0  0  0  0  0  0  0  0
    9.5761    5.1302   24.7767 C   0  0  0  0  0  0  0  0  0  0  0  0
    9.9714    6.4385   24.1156 C   0  0  0  0  0  0  0  0  0  0  0  0
   10.0620    6.0104   22.6308 C   0  0  0  0  0  0  0  0  0  0  0  0
    9.7739    4.6009   22.5642 O   0  0  0  0  0  0  0  0  0  0  0  0
    9.3413    6.5215   21.9872 H   0  0  0  0  0  0  0  0  0  0  0  0
   11.0580    6.1473   22.2065 H   0  0  0  0  0  0  0  0  0  0  0  0
   10.9285    6.8301   24.4775 H   0  0  0  0  0  0  0  0  0  0  0  0
    9.2239    7.2265   24.2514 H   0  0  0  0  0  0  0  0  0  0  0  0
    8.5538    1.4491   25.5626 H   0  0  0  0  0  0  0  0  0  0  0  0
    8.5447    3.1875   27.3713 H   0  0  0  0  0  0  0  0  0  0  0  0
  1  2  1  0
  2  3  2  0
  3  4  1  0
  4  5  2  0
  5  6  1  0
  6  7  2  0
  7  8  1  0
  8  9  1  0
  9 10  1  0
 10 11  2  0
 11 12  1  0
 12 13  2  0
 13 14  1  0
 14 15  2  0
 15 16  1  0
 13 17  1  0
 12 18  1  0
 11 19  1  0
  9 20  1  0
  9 21  1  0
  8 22  2  0
 22 23  1  0
 23 24  1  0
 24 25  1  0
 25 26  1  0
 26 27  1  0
 26 28  1  0
 26 29  1  0
 25 30  1  0
 25 31  1  0
 24 32  1  0
 24 33  1  0
  5 34  1  0
 34 35  2  0
 35 36  1  0
 36 37  1  0
 37 38  1  0
 37 39  1  0
 37 40  1  0
 36 41  1  0
 36 42  1  0
  4 43  1  0
  3 44  1  0
 35  2  1  0
 23  6  1  0
 38 34  1  0
 15 10  1  0
M  END
>  <cnnaffinity>  (1) 
-5.77383

>  <filename>  (1) 
[H]c1nc([H])c(C([H])([H])c2nc(-c3c([H])c([H])c(F)c4c3OC([H])([H])C4([H])[H])n(C([H])([H])C([H])([H])C(F)(F)F)n2)c([H])c1[H]

$$$$
