
     RDKit          3D

 39 42  0  0  0  0  0  0  0  0999 V2000
   10.0401   -1.5311   22.8525 H   0  0  0  0  0  0  0  0  0  0  0  0
    9.0680   -1.3289   22.4265 C   0  0  0  0  0  0  0  0  0  0  0  0
    7.9086   -1.8328   22.8932 C   0  0  0  0  0  0  0  0  0  0  0  0
    7.7482   -2.4995   24.1063 N   0  0  0  0  0  0  0  0  0  0  0  0
    6.6197   -3.4011   24.3055 C   0  0  0  0  0  0  0  0  0  0  0  0
    5.7287   -2.8302   24.6274 H   0  0  0  0  0  0  0  0  0  0  0  0
    6.3638   -3.8265   23.3253 H   0  0  0  0  0  0  0  0  0  0  0  0
    6.8994   -4.5318   25.2966 C   0  0  0  0  0  0  0  0  0  0  0  0
    5.9444   -5.5445   25.4935 C   0  0  0  0  0  0  0  0  0  0  0  0
    5.0247   -5.5431   24.9087 H   0  0  0  0  0  0  0  0  0  0  0  0
    6.1385   -6.5349   26.4611 C   0  0  0  0  0  0  0  0  0  0  0  0
    5.4105   -7.3334   26.5782 H   0  0  0  0  0  0  0  0  0  0  0  0
    7.2865   -6.5081   27.2619 C   0  0  0  0  0  0  0  0  0  0  0  0
    7.4186   -7.2141   28.0809 H   0  0  0  0  0  0  0  0  0  0  0  0
    8.2775   -5.5611   27.0134 C   0  0  0  0  0  0  0  0  0  0  0  0
    9.2164   -5.6065   27.5621 H   0  0  0  0  0  0  0  0  0  0  0  0
    8.0899   -4.5585   26.0546 C   0  0  0  0  0  0  0  0  0  0  0  0
    9.1538   -3.4955   25.8430 C   0  0  0  0  0  0  0  0  0  0  0  0
    9.8986   -3.8746   25.1297 H   0  0  0  0  0  0  0  0  0  0  0  0
    9.6732   -3.3032   26.7899 H   0  0  0  0  0  0  0  0  0  0  0  0
    8.5465   -2.1980   25.2962 C   0  0  0  0  0  0  0  0  0  0  0  0
    7.9029   -1.7439   26.0706 H   0  0  0  0  0  0  0  0  0  0  0  0
    9.3268   -1.4663   25.0547 H   0  0  0  0  0  0  0  0  0  0  0  0
    6.8288   -1.5466   21.8479 C   0  0  0  0  0  0  0  0  0  0  0  0
    5.7191   -2.0293   21.6927 O   0  0  0  0  0  0  0  0  0  0  0  0
    7.4239   -0.6433   20.9579 N   0  0  0  0  0  0  0  0  0  0  0  0
    6.7166    0.0186   19.9165 C   0  0  0  0  0  0  0  0  0  0  0  0
    7.2108    0.0682   18.5928 C   0  0  0  0  0  0  0  0  0  0  0  0
    8.1503   -0.4263   18.3485 H   0  0  0  0  0  0  0  0  0  0  0  0
    6.5779    0.6663   17.5768 N   0  0  0  0  0  0  0  0  0  0  0  0
    5.4142    1.2802   17.8461 C   0  0  0  0  0  0  0  0  0  0  0  0
    4.9355    1.7845   17.0112 H   0  0  0  0  0  0  0  0  0  0  0  0
    4.8308    1.2912   19.1174 C   0  0  0  0  0  0  0  0  0  0  0  0
    3.8931    1.8170   19.2721 H   0  0  0  0  0  0  0  0  0  0  0  0
    5.4786    0.6362   20.1695 C   0  0  0  0  0  0  0  0  0  0  0  0
    5.0367    0.5869   21.1621 H   0  0  0  0  0  0  0  0  0  0  0  0
    8.8741   -0.6260   21.1201 C   0  0  0  0  0  0  0  0  0  0  0  0
    9.3018    0.3884   21.1051 H   0  0  0  0  0  0  0  0  0  0  0  0
    9.3686   -1.1748   20.2987 H   0  0  0  0  0  0  0  0  0  0  0  0
  1  2  1  0
  2  3  2  0
  3  4  1  0
  4  5  1  0
  5  6  1  0
  5  7  1  0
  5  8  1  0
  8  9  2  0
  9 10  1  0
  9 11  1  0
 11 12  1  0
 11 13  2  0
 13 14  1  0
 13 15  1  0
 15 16  1  0
 15 17  2  0
 17 18  1  0
 18 19  1  0
 18 20  1  0
 18 21  1  0
 21 22  1  0
 21 23  1  0
  3 24  1  0
 24 25  2  0
 24 26  1  0
 26 27  1  0
 27 28  2  0
 28 29  1  0
 28 30  1  0
 30 31  2  0
 31 32  1  0
 31 33  1  0
 33 34  1  0
 33 35  2  0
 35 36  1  0
 26 37  1  0
 37 38  1  0
 37 39  1  0
 37  2  1  0
 21  4  1  0
 35 27  1  0
 17  8  1  0
M  END
>  <cnnaffinity>  (1) 
-5.08009

>  <filename>  (1) 
[H]C1=C(N2C([H])([H])c3c([H])c([H])c([H])c([H])c3C([H])([H])C2([H])[H])C(=O)N(c2c([H])nc([H])c([H])c2[H])C1([H])[H]

$$$$
