
     RDKit          3D

 40 41  0  0  0  0  0  0  0  0999 V2000
    8.4249   -4.1255   24.6272 C   0  0  0  0  0  0  0  0  0  0  0  0
    7.1905   -3.2887   24.9188 N   0  0  0  0  0  4  0  0  0  0  0  0
    6.7946   -2.4395   23.7378 C   0  0  0  0  0  0  0  0  0  0  0  0
    7.8706   -1.4325   23.3256 C   0  0  0  0  0  0  0  0  0  0  0  0
    7.2094   -0.3988   22.4324 C   0  0  0  0  0  0  0  0  0  0  0  0
    6.5647    0.5089   22.9168 O   0  0  0  0  0  0  0  0  0  0  0  0
    7.3213   -0.6471   21.0794 N   0  0  0  0  0  0  0  0  0  0  0  0
    6.6995    0.0287   19.9896 C   0  0  0  0  0  0  0  0  0  0  0  0
    5.5207    0.7681   20.1688 C   0  0  0  0  0  0  0  0  0  0  0  0
    4.9253    1.3502   19.0425 C   0  0  0  0  0  0  0  0  0  0  0  0
    5.5280    1.2114   17.7896 C   0  0  0  0  0  0  0  0  0  0  0  0
    6.6690    0.5269   17.6047 N   0  0  0  0  0  0  0  0  0  0  0  0
    7.2355   -0.0402   18.6767 C   0  0  0  0  0  0  0  0  0  0  0  0
    8.1788   -0.5554   18.4907 H   0  0  0  0  0  0  0  0  0  0  0  0
    5.0844    1.6694   16.9072 H   0  0  0  0  0  0  0  0  0  0  0  0
    4.0191    1.9379   19.1342 H   0  0  0  0  0  0  0  0  0  0  0  0
    5.1190    0.8946   21.1717 H   0  0  0  0  0  0  0  0  0  0  0  0
    7.9905   -1.3687   20.8556 H   0  0  0  0  0  0  0  0  0  0  0  0
    8.7258   -1.9177   22.8465 H   0  0  0  0  0  0  0  0  0  0  0  0
    8.2137   -0.9139   24.2236 H   0  0  0  0  0  0  0  0  0  0  0  0
    6.5410   -3.0963   22.8921 H   0  0  0  0  0  0  0  0  0  0  0  0
    5.8852   -1.8833   23.9925 H   0  0  0  0  0  0  0  0  0  0  0  0
    6.0256   -4.1856   25.3280 C   0  0  0  0  0  0  0  0  0  0  0  0
    6.0719   -4.7418   26.7390 C   0  0  0  0  0  0  0  0  0  0  0  0
    5.9311   -3.9212   27.8687 C   0  0  0  0  0  0  0  0  0  0  0  0
    5.8113   -4.4824   29.1472 C   0  0  0  0  0  0  0  0  0  0  0  0
    5.8475   -5.8679   29.3251 C   0  0  0  0  0  0  0  0  0  0  0  0
    5.6574   -6.5427   30.9108 Cl  0  0  0  0  0  0  0  0  0  0  0  0
    5.9903   -6.6895   28.2020 C   0  0  0  0  0  0  0  0  0  0  0  0
    6.0009   -8.0176   28.3411 F   0  0  0  0  0  0  0  0  0  0  0  0
    6.0944   -6.1364   26.9244 C   0  0  0  0  0  0  0  0  0  0  0  0
    6.1816   -6.8295   26.0911 H   0  0  0  0  0  0  0  0  0  0  0  0
    5.6953   -3.8471   30.0196 H   0  0  0  0  0  0  0  0  0  0  0  0
    5.8770   -2.8353   27.7890 H   0  0  0  0  0  0  0  0  0  0  0  0
    5.9795   -5.0225   24.6204 H   0  0  0  0  0  0  0  0  0  0  0  0
    5.1073   -3.6041   25.1877 H   0  0  0  0  0  0  0  0  0  0  0  0
    7.3840   -2.6676   25.7454 H   0  0  0  0  0  0  0  0  0  0  0  0
    8.6328   -4.7942   25.4632 H   0  0  0  0  0  0  0  0  0  0  0  0
    8.2618   -4.7439   23.7342 H   0  0  0  0  0  0  0  0  0  0  0  0
    9.3022   -3.4965   24.4551 H   0  0  0  0  0  0  0  0  0  0  0  0
  1  2  1  0
  2  3  1  0
  3  4  1  0
  4  5  1  0
  5  6  2  0
  5  7  1  0
  7  8  1  0
  8  9  2  0
  9 10  1  0
 10 11  2  0
 11 12  1  0
 12 13  2  0
 13 14  1  0
 11 15  1  0
 10 16  1  0
  9 17  1  0
  7 18  1  0
  4 19  1  0
  4 20  1  0
  3 21  1  0
  3 22  1  0
  2 23  1  0
 23 24  1  0
 24 25  2  0
 25 26  1  0
 26 27  2  0
 27 28  1  0
 27 29  1  0
 29 30  1  0
 29 31  2  0
 31 32  1  0
 26 33  1  0
 25 34  1  0
 23 35  1  0
 23 36  1  0
  2 37  1  0
  1 38  1  0
  1 39  1  0
  1 40  1  0
 13  8  1  0
 31 24  1  0
M  CHG  1   2   1
M  END
>  <cnnaffinity>  (1) 
-5.30995

>  <filename>  (1) 
[H]c1nc([H])c(N([H])C(=O)C([H])([H])C([H])([H])[N+]([H])(C([H])([H])[H])C([H])([H])c2c([H])c([H])c(Cl)c(F)c2[H])c([H])c1[H]

$$$$
