
     RDKit          3D

 35 37  0  0  0  0  0  0  0  0999 V2000
    4.9709    1.8448   16.9852 H   0  0  0  0  0  0  0  0  0  0  0  0
    5.4110    1.2944   17.8156 C   0  0  0  0  0  0  0  0  0  0  0  0
    6.5586    0.6441   17.5548 N   0  0  0  0  0  0  0  0  0  0  0  0
    7.1638    0.0101   18.5633 C   0  0  0  0  0  0  0  0  0  0  0  0
    8.0918   -0.5127   18.3414 H   0  0  0  0  0  0  0  0  0  0  0  0
    6.6616    0.0128   19.8759 C   0  0  0  0  0  0  0  0  0  0  0  0
    7.3969   -0.6437   20.9130 N   0  0  0  0  0  0  0  0  0  0  0  0
    7.7655   -1.9394   20.7900 N   0  0  0  0  0  0  0  0  0  0  0  0
    8.3091   -2.2793   21.8981 N   0  0  0  0  0  0  0  0  0  0  0  0
    8.3306   -1.2476   22.7684 N   0  0  0  0  0  0  0  0  0  0  0  0
    7.7828   -0.2257   22.1516 C   0  0  0  0  0  0  0  0  0  0  0  0
    7.7089    1.1577   22.7133 C   0  0  0  0  0  0  0  0  0  0  0  0
    7.1211    1.7873   22.0417 H   0  0  0  0  0  0  0  0  0  0  0  0
    8.7172    1.5827   22.7196 H   0  0  0  0  0  0  0  0  0  0  0  0
    7.1264    1.2111   24.1451 C   0  0  1  0  0  0  0  0  0  0  0  0
    7.7521    0.5660   24.7791 H   0  0  0  0  0  0  0  0  0  0  0  0
    7.2050    2.6079   24.7477 C   0  0  0  0  0  0  0  0  0  0  0  0
    6.5814    3.7216   24.1639 C   0  0  0  0  0  0  0  0  0  0  0  0
    5.9971    3.6071   23.2525 H   0  0  0  0  0  0  0  0  0  0  0  0
    6.6966    4.9894   24.7489 C   0  0  0  0  0  0  0  0  0  0  0  0
    6.2124    5.8428   24.2893 H   0  0  0  0  0  0  0  0  0  0  0  0
    7.4194    5.1637   25.9321 C   0  0  0  0  0  0  0  0  0  0  0  0
    7.5065    6.1437   26.3983 H   0  0  0  0  0  0  0  0  0  0  0  0
    8.0208    4.0576   26.5302 C   0  0  0  0  0  0  0  0  0  0  0  0
    8.5512    4.1758   27.4629 H   0  0  0  0  0  0  0  0  0  0  0  0
    7.9152    2.7950   25.9445 C   0  0  0  0  0  0  0  0  0  0  0  0
    8.3830    1.9348   26.4179 H   0  0  0  0  0  0  0  0  0  0  0  0
    5.7043    0.6335   24.1721 C   0  0  0  0  0  0  0  0  0  0  0  0
    5.0465    1.0908   23.4162 H   0  0  0  0  0  0  0  0  0  0  0  0
    5.7582   -0.4429   23.9783 H   0  0  0  0  0  0  0  0  0  0  0  0
    5.2444    0.7469   25.1551 H   0  0  0  0  0  0  0  0  0  0  0  0
    5.4395    0.6448   20.1338 C   0  0  0  0  0  0  0  0  0  0  0  0
    5.0024    0.6174   21.1340 H   0  0  0  0  0  0  0  0  0  0  0  0
    4.7984    1.2989   19.0716 C   0  0  0  0  0  0  0  0  0  0  0  0
    3.8652    1.8330   19.2168 H   0  0  0  0  0  0  0  0  0  0  0  0
  1  2  1  0
  2  3  2  0
  3  4  1  0
  4  5  1  0
  4  6  2  0
  6  7  1  0
  7  8  1  0
  8  9  2  0
  9 10  1  0
 10 11  2  0
 11 12  1  0
 12 13  1  0
 12 14  1  0
 12 15  1  0
 15 16  1  1
 15 17  1  0
 17 18  2  0
 18 19  1  0
 18 20  1  0
 20 21  1  0
 20 22  2  0
 22 23  1  0
 22 24  1  0
 24 25  1  0
 24 26  2  0
 26 27  1  0
 15 28  1  0
 28 29  1  0
 28 30  1  0
 28 31  1  0
  6 32  1  0
 32 33  1  0
 32 34  2  0
 34 35  1  0
 34  2  1  0
 11  7  1  0
 26 17  1  0
M  END
>  <cnnaffinity>  (1) 
-4.8239

>  <filename>  (1) 
[H]c1nc([H])c(-n2nnnc2C([H])([H])[C@@]([H])(c2c([H])c([H])c([H])c([H])c2[H])C([H])([H])[H])c([H])c1[H]

$$$$
