
     RDKit          3D

 45 47  0  0  0  0  0  0  0  0999 V2000
    5.4051    1.3848   16.7382 H   0  0  0  0  0  0  0  0  0  0  0  0
    5.7668    1.0510   17.7091 C   0  0  0  0  0  0  0  0  0  0  0  0
    6.8587    0.2756   17.6977 N   0  0  0  0  0  0  0  0  0  0  0  0
    7.3147   -0.1733   18.8797 C   0  0  0  0  0  0  0  0  0  0  0  0
    8.2115   -0.7880   18.8191 H   0  0  0  0  0  0  0  0  0  0  0  0
    6.7169    0.1040   20.1248 C   0  0  0  0  0  0  0  0  0  0  0  0
    7.2013   -0.4180   21.4868 C   0  0  1  0  0  0  0  0  0  0  0  0
    6.2994   -0.4281   22.1199 H   0  0  0  0  0  0  0  0  0  0  0  0
    7.7815   -1.8544   21.5383 C   0  0  0  0  0  0  0  0  0  0  0  0
    7.1576   -2.5251   20.9358 H   0  0  0  0  0  0  0  0  0  0  0  0
    7.6841   -2.1952   22.5805 H   0  0  0  0  0  0  0  0  0  0  0  0
    9.2591   -1.9723   21.1225 C   0  0  0  0  0  0  0  0  0  0  0  0
    9.3424   -1.8141   20.0436 H   0  0  0  0  0  0  0  0  0  0  0  0
    9.6015   -2.9927   21.3288 H   0  0  0  0  0  0  0  0  0  0  0  0
   10.1906   -0.9678   21.8260 C   0  0  0  0  0  0  0  0  0  0  0  0
   10.3492   -1.2768   22.8714 H   0  0  0  0  0  0  0  0  0  0  0  0
   11.1786   -0.9809   21.3426 H   0  0  0  0  0  0  0  0  0  0  0  0
    9.6306    0.4706   21.7987 C   0  0  0  0  0  0  0  0  0  0  0  0
   10.2161    1.1224   22.4688 H   0  0  0  0  0  0  0  0  0  0  0  0
    9.7148    0.8905   20.7874 H   0  0  0  0  0  0  0  0  0  0  0  0
    8.1578    0.5676   22.2255 C   0  0  2  0  0  0  0  0  0  0  0  0
    7.7952    1.5818   22.0026 H   0  0  0  0  0  0  0  0  0  0  0  0
    8.0676    0.2790   23.6568 N   0  0  0  0  0  0  0  0  0  0  0  0
    8.8810   -0.0458   24.1565 H   0  0  0  0  0  0  0  0  0  0  0  0
    7.5046    1.3497   24.7576 S   0  0  0  0  0  0  0  0  0  0  0  0
    8.0834    0.8025   25.9710 O   0  0  0  0  0  0  0  0  0  0  0  0
    6.0834    1.5183   24.5534 O   0  0  0  0  0  0  0  0  0  0  0  0
    8.3491    2.8494   24.3187 C   0  0  0  0  0  0  0  0  0  0  0  0
    9.6777    3.0435   24.7154 C   0  0  0  0  0  0  0  0  0  0  0  0
   10.1640    2.3611   25.4115 H   0  0  0  0  0  0  0  0  0  0  0  0
   10.3823    4.1446   24.2273 C   0  0  0  0  0  0  0  0  0  0  0  0
   11.4173    4.2884   24.5278 H   0  0  0  0  0  0  0  0  0  0  0  0
    9.7851    5.0637   23.3527 C   0  0  0  0  0  0  0  0  0  0  0  0
   10.5061    6.3037   22.8968 C   0  0  0  0  0  0  0  0  0  0  0  0
   10.5608    6.3575   21.8031 H   0  0  0  0  0  0  0  0  0  0  0  0
   11.5246    6.3530   23.2946 H   0  0  0  0  0  0  0  0  0  0  0  0
    9.9687    7.1954   23.2432 H   0  0  0  0  0  0  0  0  0  0  0  0
    8.4613    4.8280   22.9442 C   0  0  0  0  0  0  0  0  0  0  0  0
    8.0009    5.4863   22.2121 H   0  0  0  0  0  0  0  0  0  0  0  0
    7.7293    3.7551   23.4447 C   0  0  0  0  0  0  0  0  0  0  0  0
    6.6864    3.6387   23.1501 H   0  0  0  0  0  0  0  0  0  0  0  0
    5.5907    0.9508   20.1018 C   0  0  0  0  0  0  0  0  0  0  0  0
    5.1021    1.2329   21.0386 H   0  0  0  0  0  0  0  0  0  0  0  0
    5.1065    1.4267   18.8822 C   0  0  0  0  0  0  0  0  0  0  0  0
    4.2407    2.0794   18.8297 H   0  0  0  0  0  0  0  0  0  0  0  0
  1  2  1  0
  2  3  2  0
  3  4  1  0
  4  5  1  0
  4  6  2  0
  6  7  1  0
  7  8  1  1
  7  9  1  0
  9 10  1  0
  9 11  1  0
  9 12  1  0
 12 13  1  0
 12 14  1  0
 12 15  1  0
 15 16  1  0
 15 17  1  0
 15 18  1  0
 18 19  1  0
 18 20  1  0
 18 21  1  0
 21 22  1  1
 21 23  1  0
 23 24  1  0
 23 25  1  0
 25 26  2  0
 25 27  2  0
 25 28  1  0
 28 29  2  0
 29 30  1  0
 29 31  1  0
 31 32  1  0
 31 33  2  0
 33 34  1  0
 34 35  1  0
 34 36  1  0
 34 37  1  0
 33 38  1  0
 38 39  1  0
 38 40  2  0
 40 41  1  0
  6 42  1  0
 42 43  1  0
 42 44  2  0
 44 45  1  0
 44  2  1  0
 21  7  1  0
 40 28  1  0
M  END
>  <cnnaffinity>  (1) 
-5.4046

>  <filename>  (1) 
[H]c1nc([H])c([C@@]2([H])C([H])([H])C([H])([H])C([H])([H])C([H])([H])[C@]2([H])N([H])S(=O)(=O)c2c([H])c([H])c(C([H])([H])[H])c([H])c2[H])c([H])c1[H]

$$$$
