
     RDKit          3D

 36 39  0  0  0  0  0  0  0  0999 V2000
    5.0498    1.7783   16.8009 H   0  0  0  0  0  0  0  0  0  0  0  0
    5.4418    1.3035   17.6982 C   0  0  0  0  0  0  0  0  0  0  0  0
    6.5700    0.5948   17.5371 N   0  0  0  0  0  0  0  0  0  0  0  0
    7.0696    0.0112   18.6302 C   0  0  0  0  0  0  0  0  0  0  0  0
    7.9830   -0.5631   18.4791 H   0  0  0  0  0  0  0  0  0  0  0  0
    6.5247    0.1160   19.9285 C   0  0  0  0  0  0  0  0  0  0  0  0
    7.2248   -0.4898   21.0746 C   0  0  0  0  0  0  0  0  0  0  0  0
    7.3324   -0.0199   22.3506 C   0  0  0  0  0  0  0  0  0  0  0  0
    7.1362    1.3881   22.7678 C   0  0  0  0  0  0  0  0  0  0  0  0
    6.4192    1.7540   23.9275 C   0  0  0  0  0  0  0  0  0  0  0  0
    5.9033    0.7814   24.7050 F   0  0  0  0  0  0  0  0  0  0  0  0
    6.1945    3.0720   24.3166 C   0  0  0  0  0  0  0  0  0  0  0  0
    5.5989    3.2599   25.2049 H   0  0  0  0  0  0  0  0  0  0  0  0
    6.7407    4.1042   23.5486 C   0  0  0  0  0  0  0  0  0  0  0  0
    6.5686    5.1412   23.8302 H   0  0  0  0  0  0  0  0  0  0  0  0
    7.5073    3.8062   22.4200 C   0  0  0  0  0  0  0  0  0  0  0  0
    7.9759    4.5704   21.8063 H   0  0  0  0  0  0  0  0  0  0  0  0
    7.6831    2.4760   22.0531 C   0  0  0  0  0  0  0  0  0  0  0  0
    8.4523    2.2398   20.9708 F   0  0  0  0  0  0  0  0  0  0  0  0
    7.8223   -1.1001   23.2962 C   0  0  0  0  0  0  0  0  0  0  0  0
    7.0032   -1.4783   23.9245 H   0  0  0  0  0  0  0  0  0  0  0  0
    8.5813   -0.7029   23.9843 H   0  0  0  0  0  0  0  0  0  0  0  0
    8.3919   -2.1763   22.3495 C   0  0  0  0  0  0  0  0  0  0  0  0
    7.9139   -1.8218   20.9337 C   0  0  0  0  0  0  0  0  0  0  0  0
    8.7533   -1.7355   20.2297 H   0  0  0  0  0  0  0  0  0  0  0  0
    7.2277   -2.5805   20.5285 H   0  0  0  0  0  0  0  0  0  0  0  0
    8.5596   -3.6286   22.6864 C   0  0  0  0  0  0  0  0  0  0  0  0
    8.3511   -4.3607   21.9121 H   0  0  0  0  0  0  0  0  0  0  0  0
    8.2905   -3.9763   23.6813 H   0  0  0  0  0  0  0  0  0  0  0  0
    9.7693   -2.7452   22.5560 C   0  0  0  0  0  0  0  0  0  0  0  0
   10.4424   -2.8056   21.7031 H   0  0  0  0  0  0  0  0  0  0  0  0
   10.2786   -2.5313   23.4904 H   0  0  0  0  0  0  0  0  0  0  0  0
    5.3126    0.8215   20.0592 C   0  0  0  0  0  0  0  0  0  0  0  0
    4.8115    0.8976   21.0303 H   0  0  0  0  0  0  0  0  0  0  0  0
    4.7685    1.4222   18.9210 C   0  0  0  0  0  0  0  0  0  0  0  0
    3.8487    1.9948   18.9737 H   0  0  0  0  0  0  0  0  0  0  0  0
  1  2  1  0
  2  3  2  0
  3  4  1  0
  4  5  1  0
  4  6  2  0
  6  7  1  0
  7  8  2  0
  8  9  1  0
  9 10  2  0
 10 11  1  0
 10 12  1  0
 12 13  1  0
 12 14  2  0
 14 15  1  0
 14 16  1  0
 16 17  1  0
 16 18  2  0
 18 19  1  0
  8 20  1  0
 20 21  1  0
 20 22  1  0
 20 23  1  0
 23 24  1  0
 24 25  1  0
 24 26  1  0
 23 27  1  0
 27 28  1  0
 27 29  1  0
 27 30  1  0
 30 31  1  0
 30 32  1  0
  6 33  1  0
 33 34  1  0
 33 35  2  0
 35 36  1  0
 35  2  1  0
 24  7  1  0
 18  9  1  0
 30 23  1  0
M  END
>  <cnnaffinity>  (1) 
-5.36883

>  <filename>  (1) 
[H]c1nc([H])c(C2=C(c3c(F)c([H])c([H])c([H])c3F)C([H])([H])C3(C2([H])[H])C([H])([H])C3([H])[H])c([H])c1[H]

$$$$
