
     RDKit          3D

 43 44  0  0  0  0  0  0  0  0999 V2000
    5.1719   -3.7471   31.3357 C   0  0  0  0  0  0  0  0  0  0  0  0
    3.9751   -4.1449   30.7157 O   0  0  0  0  0  0  0  0  0  0  0  0
    3.8263   -3.7645   29.3617 C   0  0  0  0  0  0  0  0  0  0  0  0
    4.5269   -4.7588   28.4291 C   0  0  0  0  0  0  0  0  0  0  0  0
    4.2663   -4.4525   27.0738 O   0  0  0  0  0  0  0  0  0  0  0  0
    5.2029   -3.6445   26.3862 C   0  0  0  0  0  0  0  0  0  0  0  0
    6.1724   -4.5387   25.6150 C   0  0  0  0  0  0  0  0  0  0  0  0
    7.2585   -3.7959   24.8468 C   0  0  0  0  0  0  0  0  0  0  0  0
    6.6790   -3.0884   23.7304 N   0  0  0  0  0  0  0  0  0  0  0  0
    7.3814   -2.2629   22.8838 C   0  0  0  0  0  0  0  0  0  0  0  0
    8.7692   -2.0753   23.0238 C   0  0  0  0  0  0  0  0  0  0  0  0
    9.4504   -1.2323   22.1464 C   0  0  0  0  0  0  0  0  0  0  0  0
    8.7695   -0.5671   21.1243 C   0  0  0  0  0  0  0  0  0  0  0  0
    7.3791   -0.7342   20.9770 C   0  0  0  0  0  0  0  0  0  0  0  0
    6.6409   -0.0104   19.9008 C   0  0  0  0  0  0  0  0  0  0  0  0
    5.4225    0.6512   20.1268 C   0  0  0  0  0  0  0  0  0  0  0  0
    4.8116    1.3194   19.0644 C   0  0  0  0  0  0  0  0  0  0  0  0
    5.4211    1.3024   17.8054 C   0  0  0  0  0  0  0  0  0  0  0  0
    6.5737    0.6616   17.5595 N   0  0  0  0  0  0  0  0  0  0  0  0
    7.1554    0.0366   18.5920 C   0  0  0  0  0  0  0  0  0  0  0  0
    8.0854   -0.4794   18.3614 H   0  0  0  0  0  0  0  0  0  0  0  0
    4.9668    1.8210   16.9621 H   0  0  0  0  0  0  0  0  0  0  0  0
    3.8820    1.8553   19.1969 H   0  0  0  0  0  0  0  0  0  0  0  0
    4.9764    0.6601   21.1240 H   0  0  0  0  0  0  0  0  0  0  0  0
    6.7027   -1.5910   21.8498 C   0  0  0  0  0  0  0  0  0  0  0  0
    5.6364   -1.7537   21.7296 H   0  0  0  0  0  0  0  0  0  0  0  0
    9.3140    0.0947   20.4585 H   0  0  0  0  0  0  0  0  0  0  0  0
   10.5218   -1.0978   22.2637 H   0  0  0  0  0  0  0  0  0  0  0  0
    9.2995   -2.5863   23.8211 H   0  0  0  0  0  0  0  0  0  0  0  0
    5.6781   -3.0833   23.6300 H   0  0  0  0  0  0  0  0  0  0  0  0
    8.0005   -4.5259   24.4823 H   0  0  0  0  0  0  0  0  0  0  0  0
    7.7971   -3.0971   25.5145 H   0  0  0  0  0  0  0  0  0  0  0  0
    6.6440   -5.2397   26.3172 H   0  0  0  0  0  0  0  0  0  0  0  0
    5.5897   -5.1513   24.9152 H   0  0  0  0  0  0  0  0  0  0  0  0
    4.6086   -3.0218   25.7020 H   0  0  0  0  0  0  0  0  0  0  0  0
    5.7411   -2.9673   27.0769 H   0  0  0  0  0  0  0  0  0  0  0  0
    5.6041   -4.7951   28.6708 H   0  0  0  0  0  0  0  0  0  0  0  0
    4.1240   -5.7599   28.6037 H   0  0  0  0  0  0  0  0  0  0  0  0
    2.7497   -3.7794   29.1608 H   0  0  0  0  0  0  0  0  0  0  0  0
    4.1925   -2.7397   29.1680 H   0  0  0  0  0  0  0  0  0  0  0  0
    5.2269   -2.6502   31.4060 H   0  0  0  0  0  0  0  0  0  0  0  0
    6.0748   -4.1235   30.8222 H   0  0  0  0  0  0  0  0  0  0  0  0
    5.1589   -4.1585   32.3484 H   0  0  0  0  0  0  0  0  0  0  0  0
  1  2  1  0
  2  3  1  0
  3  4  1  0
  4  5  1  0
  5  6  1  0
  6  7  1  0
  7  8  1  0
  8  9  1  0
  9 10  1  0
 10 11  2  0
 11 12  1  0
 12 13  2  0
 13 14  1  0
 14 15  1  0
 15 16  2  0
 16 17  1  0
 17 18  2  0
 18 19  1  0
 19 20  2  0
 20 21  1  0
 18 22  1  0
 17 23  1  0
 16 24  1  0
 14 25  2  0
 25 26  1  0
 13 27  1  0
 12 28  1  0
 11 29  1  0
  9 30  1  0
  8 31  1  0
  8 32  1  0
  7 33  1  0
  7 34  1  0
  6 35  1  0
  6 36  1  0
  4 37  1  0
  4 38  1  0
  3 39  1  0
  3 40  1  0
  1 41  1  0
  1 42  1  0
  1 43  1  0
 25 10  1  0
 20 15  1  0
M  END
>  <cnnaffinity>  (1) 
-4.40219

>  <filename>  (1) 
[H]c1nc([H])c(-c2c([H])c([H])c([H])c(N([H])C([H])([H])C([H])([H])C([H])([H])OC([H])([H])C([H])([H])OC([H])([H])[H])c2[H])c([H])c1[H]

$$$$
