
     RDKit          3D

 39 41  0  0  0  0  0  0  0  0999 V2000
    7.2113   -2.1793   21.0204 C   0  0  0  0  0  0  0  0  0  0  0  0
    7.1092   -0.6634   21.2191 C   0  0  1  0  0  0  0  0  0  0  0  0
    8.4447   -0.0694   21.4676 N   0  0  0  0  0  4  0  0  0  0  0  0
    9.2335   -0.5470   22.6221 C   0  0  0  0  0  0  0  0  0  0  0  0
   10.5097    0.2495   22.6847 C   0  0  0  0  0  0  0  0  0  0  0  0
   11.7520   -0.3893   22.2958 C   0  0  0  0  0  0  0  0  0  0  0  0
   12.9513    0.2746   22.3054 C   0  0  0  0  0  0  0  0  0  0  0  0
   12.9769    1.6680   22.7215 C   0  0  0  0  0  0  0  0  0  0  0  0
   14.0375    2.5028   22.7636 C   0  0  0  0  0  0  0  0  0  0  0  0
   13.4864    4.3173   23.1317 C   0  0  0  0  0  0  0  0  0  0  0  0
   13.4163    4.0564   23.3710 C   0  0  0  0  0  0  0  0  0  0  0  0
   11.8630    3.6819   23.5763 C   0  0  0  0  0  0  0  0  0  0  0  0
   11.7223    2.3225   23.1510 C   0  0  0  0  0  0  0  0  0  0  0  0
   10.5119    1.5713   23.1084 C   0  0  0  0  0  0  0  0  0  0  0  0
    9.5910    2.0662   23.4118 H   0  0  0  0  0  0  0  0  0  0  0  0
   11.5238    3.8986   24.5913 H   0  0  0  0  0  0  0  0  0  0  0  0
   14.1869    4.8484   24.0145 H   0  0  0  0  0  0  0  0  0  0  0  0
   13.4953    4.8926   22.1141 H   0  0  0  0  0  0  0  0  0  0  0  0
   15.0847    2.2492   22.5139 H   0  0  0  0  0  0  0  0  0  0  0  0
   13.8578   -0.2459   21.9908 H   0  0  0  0  0  0  0  0  0  0  0  0
   11.7149   -1.4259   21.9692 H   0  0  0  0  0  0  0  0  0  0  0  0
    8.6708   -0.4475   23.5620 H   0  0  0  0  0  0  0  0  0  0  0  0
    9.4894   -1.6072   22.5176 H   0  0  0  0  0  0  0  0  0  0  0  0
    9.0153   -0.2327   20.6034 H   0  0  0  0  0  0  0  0  0  0  0  0
    8.3365    0.9743   21.5415 H   0  0  0  0  0  0  0  0  0  0  0  0
    6.5602    0.0876   20.0374 C   0  0  0  0  0  0  0  0  0  0  0  0
    5.3503    0.7885   20.1320 C   0  0  0  0  0  0  0  0  0  0  0  0
    4.8424    1.4237   18.9978 C   0  0  0  0  0  0  0  0  0  0  0  0
    5.5678    1.3400   17.8053 C   0  0  0  0  0  0  0  0  0  0  0  0
    6.7322    0.6847   17.6977 N   0  0  0  0  0  0  0  0  0  0  0  0
    7.2126    0.0897   18.7979 C   0  0  0  0  0  0  0  0  0  0  0  0
    8.1647   -0.4223   18.6596 H   0  0  0  0  0  0  0  0  0  0  0  0
    5.1939    1.8139   16.8962 H   0  0  0  0  0  0  0  0  0  0  0  0
    3.9107    1.9826   19.0228 H   0  0  0  0  0  0  0  0  0  0  0  0
    4.8269    0.8395   21.0883 H   0  0  0  0  0  0  0  0  0  0  0  0
    6.4510   -0.4704   22.0771 H   0  0  0  0  0  0  0  0  0  0  0  0
    7.2208   -2.6981   21.9850 H   0  0  0  0  0  0  0  0  0  0  0  0
    8.1446   -2.4288   20.5114 H   0  0  0  0  0  0  0  0  0  0  0  0
    6.3797   -2.5626   20.4266 H   0  0  0  0  0  0  0  0  0  0  0  0
  1  2  1  0
  2  3  1  0
  3  4  1  0
  4  5  1  0
  5  6  2  0
  6  7  1  0
  7  8  2  0
  8  9  1  0
  9 10  2  0
 10 11  1  0
 11 12  2  0
 12 13  1  0
 13 14  2  0
 14 15  1  0
 12 16  1  0
 11 17  1  0
 10 18  1  0
  9 19  1  0
  7 20  1  0
  6 21  1  0
  4 22  1  0
  4 23  1  0
  3 24  1  0
  3 25  1  0
  2 26  1  0
 26 27  2  0
 27 28  1  0
 28 29  2  0
 29 30  1  0
 30 31  2  0
 31 32  1  0
 29 33  1  0
 28 34  1  0
 27 35  1  0
  2 36  1  1
  1 37  1  0
  1 38  1  0
  1 39  1  0
 14  5  1  0
 31 26  1  0
 13  8  1  0
M  CHG  1   3   1
M  END
>  <cnnaffinity>  (1) 
-5.12062

>  <filename>  (1) 
[H]c1nc([H])c([C@@]([H])(C([H])([H])[H])[N+]([H])([H])C([H])([H])c2c([H])c([H])c3c([H])c([H])c([H])c([H])c3c2[H])c([H])c1[H]

$$$$
