
     RDKit          3D

 24 25  0  0  0  0  0  0  0  0999 V2000
    6.2141    0.5448   23.1854 H   0  0  0  0  0  0  0  0  0  0  0  0
    7.1423    1.0998   23.0481 C   0  0  0  0  0  0  0  0  0  0  0  0
    7.4458    2.2129   23.7421 C   0  0  0  0  0  0  0  0  0  0  0  0
    6.4092    3.0236   24.9091 S   0  0  0  0  0  0  0  0  0  0  0  0
    7.6553    4.2906   25.1590 C   0  0  0  0  0  0  0  0  0  0  0  0
    7.5835    5.2206   25.9065 O   0  0  0  0  0  0  0  0  0  0  0  0
    8.7325    4.0270   24.3525 N   0  0  0  0  0  0  0  0  0  0  0  0
    9.5196    4.6459   24.3701 H   0  0  0  0  0  0  0  0  0  0  0  0
    8.7286    2.8934   23.5911 C   0  0  0  0  0  0  0  0  0  0  0  0
    9.6874    2.5394   22.9246 O   0  0  0  0  0  0  0  0  0  0  0  0
    8.0156    0.6121   22.1108 N   0  0  0  0  0  0  0  0  0  0  0  0
    8.9513    1.0227   22.1171 H   0  0  0  0  0  0  0  0  0  0  0  0
    7.6121   -0.7508   21.2140 S   0  0  0  0  0  4  0  0  0  0  0  0
    6.5971   -1.4646   22.0257 O   0  0  0  0  0  0  0  0  0  0  0  0
    6.6808    0.0639   19.9407 C   0  0  0  0  0  0  0  0  0  0  0  0
    7.2295    0.0761   18.6667 C   0  0  0  0  0  0  0  0  0  0  0  0
    8.1801   -0.4244   18.4753 H   0  0  0  0  0  0  0  0  0  0  0  0
    6.6334    0.6780   17.6335 N   0  0  0  0  0  0  0  0  0  0  0  0
    5.4609    1.2918   17.8598 C   0  0  0  0  0  0  0  0  0  0  0  0
    4.9951    1.7686   16.9988 H   0  0  0  0  0  0  0  0  0  0  0  0
    4.8291    1.3041   19.1085 C   0  0  0  0  0  0  0  0  0  0  0  0
    3.8818    1.8142   19.2301 H   0  0  0  0  0  0  0  0  0  0  0  0
    5.4367    0.6510   20.1796 C   0  0  0  0  0  0  0  0  0  0  0  0
    4.9354    0.5961   21.1471 H   0  0  0  0  0  0  0  0  0  0  0  0
  1  2  1  0
  2  3  2  3
  3  4  1  0
  4  5  1  0
  5  6  2  0
  5  7  1  0
  7  8  1  0
  7  9  1  0
  9 10  2  0
  2 11  1  0
 11 12  1  0
 13 11  1  1
 13 14  2  0
 13 15  1  0
 15 16  2  0
 16 17  1  0
 16 18  1  0
 18 19  2  0
 19 20  1  0
 19 21  1  0
 21 22  1  0
 21 23  2  0
 23 24  1  0
  9  3  1  0
 23 15  1  0
M  END
>  <cnnaffinity>  (1) 
-4.26164

>  <filename>  (1) 
[H]C(=C1SC(=O)N([H])C1=O)N([H])[S@@](=O)c1c([H])nc([H])c([H])c1[H]

$$$$
