
     RDKit          3D

 33 33  0  0  0  0  0  0  0  0999 V2000
    5.0387    1.7541   16.8937 H   0  0  0  0  0  0  0  0  0  0  0  0
    5.4983    1.2623   17.7474 C   0  0  0  0  0  0  0  0  0  0  0  0
    6.6663    0.6368   17.5159 N   0  0  0  0  0  0  0  0  0  0  0  0
    7.2530    0.0304   18.5549 C   0  0  0  0  0  0  0  0  0  0  0  0
    8.1961   -0.4713   18.3557 H   0  0  0  0  0  0  0  0  0  0  0  0
    6.7156   -0.0037   19.8681 C   0  0  0  0  0  0  0  0  0  0  0  0
    7.3739   -0.6596   20.9096 N   0  0  0  0  0  0  0  0  0  0  0  0
    8.7585   -0.6728   20.8671 N   0  0  0  0  0  0  0  0  0  0  0  0
    9.2252    0.1745   21.1847 H   0  0  0  0  0  0  0  0  0  0  0  0
    9.5315   -1.7843   21.1028 C   0  0  0  0  0  0  0  0  0  0  0  0
    9.1099   -2.9195   21.2046 O   0  0  0  0  0  0  0  0  0  0  0  0
   10.9823   -1.4337   21.3246 C   0  0  0  0  0  0  0  0  0  0  0  0
   11.5433   -2.3419   21.5209 H   0  0  0  0  0  0  0  0  0  0  0  0
   11.3965   -0.8734   20.4909 H   0  0  0  0  0  0  0  0  0  0  0  0
   10.9186   -0.5147   22.5112 C   0  0  0  0  0  0  0  0  0  0  0  0
   10.7657    0.6856   22.3094 O   0  0  0  0  0  0  0  0  0  0  0  0
   10.8607   -1.0666   23.7553 N   0  0  0  0  0  0  0  0  0  0  0  0
   10.5296   -2.4792   23.9854 C   0  0  0  0  0  0  0  0  0  0  0  0
   10.3213   -2.6326   25.0446 H   0  0  0  0  0  0  0  0  0  0  0  0
   11.3404   -3.1655   23.7065 H   0  0  0  0  0  0  0  0  0  0  0  0
    9.6353   -2.7641   23.4303 H   0  0  0  0  0  0  0  0  0  0  0  0
   11.0979   -0.1723   24.8933 C   0  0  0  0  0  0  0  0  0  0  0  0
   12.1721   -0.0231   25.0941 H   0  0  0  0  0  0  0  0  0  0  0  0
   10.6270   -0.5779   25.7942 H   0  0  0  0  0  0  0  0  0  0  0  0
   10.6473    0.8000   24.6624 H   0  0  0  0  0  0  0  0  0  0  0  0
    6.7034   -1.1450   22.1037 C   0  0  0  0  0  0  0  0  0  0  0  0
    7.3149   -1.9364   22.5487 H   0  0  0  0  0  0  0  0  0  0  0  0
    5.7429   -1.5841   21.8191 H   0  0  0  0  0  0  0  0  0  0  0  0
    6.5349   -0.3496   22.8465 H   0  0  0  0  0  0  0  0  0  0  0  0
    5.4907    0.6539   20.0827 C   0  0  0  0  0  0  0  0  0  0  0  0
    5.0471    0.6591   21.0790 H   0  0  0  0  0  0  0  0  0  0  0  0
    4.8808    1.2996   19.0017 C   0  0  0  0  0  0  0  0  0  0  0  0
    3.9388    1.8256   19.1320 H   0  0  0  0  0  0  0  0  0  0  0  0
  1  2  1  0
  2  3  2  0
  3  4  1  0
  4  5  1  0
  4  6  2  0
  6  7  1  0
  7  8  1  0
  8  9  1  0
  8 10  1  0
 10 11  2  0
 10 12  1  0
 12 13  1  0
 12 14  1  0
 12 15  1  0
 15 16  2  0
 15 17  1  0
 17 18  1  0
 18 19  1  0
 18 20  1  0
 18 21  1  0
 17 22  1  0
 22 23  1  0
 22 24  1  0
 22 25  1  0
  7 26  1  0
 26 27  1  0
 26 28  1  0
 26 29  1  0
  6 30  1  0
 30 31  1  0
 30 32  2  0
 32 33  1  0
 32  2  1  0
M  END
>  <cnnaffinity>  (1) 
-4.75266

>  <filename>  (1) 
[H]c1nc([H])c(N(N([H])C(=O)C([H])([H])C(=O)N(C([H])([H])[H])C([H])([H])[H])C([H])([H])[H])c([H])c1[H]

$$$$
