
     RDKit          3D

 35 36  0  0  0  0  0  0  0  0999 V2000
    4.9134    1.7852   16.9955 H   0  0  0  0  0  0  0  0  0  0  0  0
    5.3965    1.2965   17.8381 C   0  0  0  0  0  0  0  0  0  0  0  0
    6.5607    0.6816   17.5727 N   0  0  0  0  0  0  0  0  0  0  0  0
    7.1731    0.0597   18.5908 C   0  0  0  0  0  0  0  0  0  0  0  0
    8.1218   -0.4297   18.3760 H   0  0  0  0  0  0  0  0  0  0  0  0
    6.6632   -0.0128   19.9115 C   0  0  0  0  0  0  0  0  0  0  0  0
    7.3267   -0.7091   20.9280 N   0  0  0  0  0  0  0  0  0  0  0  0
    6.7624   -1.1256   21.6577 H   0  0  0  0  0  0  0  0  0  0  0  0
    8.7138   -0.7044   21.1346 C   0  0  0  0  0  0  0  0  0  0  0  0
    9.6918    0.1976   20.6600 C   0  0  0  0  0  0  0  0  0  0  0  0
    9.5198    1.0265   19.9953 H   0  0  0  0  0  0  0  0  0  0  0  0
   10.9056   -0.0767   21.1290 N   0  0  0  0  0  0  0  0  0  0  0  0
   10.7064   -1.1606   21.8930 N   0  0  0  0  0  0  0  0  0  0  0  0
   11.4862   -1.5485   22.3983 H   0  0  0  0  0  0  0  0  0  0  0  0
    9.4164   -1.5866   21.9289 C   0  0  0  0  0  0  0  0  0  0  0  0
    8.9190   -2.6700   22.8093 C   0  0  0  0  0  0  0  0  0  0  0  0
    8.0696   -3.1501   22.3061 H   0  0  0  0  0  0  0  0  0  0  0  0
    9.6897   -3.4424   22.9303 H   0  0  0  0  0  0  0  0  0  0  0  0
    8.4676   -2.1290   24.1728 C   0  0  0  0  0  0  0  0  0  0  0  0
    7.8058   -1.2662   24.0086 H   0  0  0  0  0  0  0  0  0  0  0  0
    9.3380   -1.7282   24.7120 H   0  0  0  0  0  0  0  0  0  0  0  0
    7.7574   -3.1636   25.0473 C   0  0  0  0  0  0  0  0  0  0  0  0
    6.9406   -3.5997   24.4512 H   0  0  0  0  0  0  0  0  0  0  0  0
    8.6977   -4.2977   25.4686 C   0  0  0  0  0  0  0  0  0  0  0  0
    9.0587   -4.8781   24.6131 H   0  0  0  0  0  0  0  0  0  0  0  0
    9.5754   -3.8984   25.9942 H   0  0  0  0  0  0  0  0  0  0  0  0
    8.1944   -4.9919   26.1498 H   0  0  0  0  0  0  0  0  0  0  0  0
    7.1321   -2.4927   26.2703 C   0  0  0  0  0  0  0  0  0  0  0  0
    6.5948   -3.2225   26.8857 H   0  0  0  0  0  0  0  0  0  0  0  0
    7.9054   -2.0286   26.8962 H   0  0  0  0  0  0  0  0  0  0  0  0
    6.4233   -1.7091   25.9778 H   0  0  0  0  0  0  0  0  0  0  0  0
    5.4412    0.6313   20.1633 C   0  0  0  0  0  0  0  0  0  0  0  0
    5.0180    0.6232   21.1680 H   0  0  0  0  0  0  0  0  0  0  0  0
    4.8117    1.3054   19.1092 C   0  0  0  0  0  0  0  0  0  0  0  0
    3.8816    1.8379   19.2641 H   0  0  0  0  0  0  0  0  0  0  0  0
  1  2  1  0
  2  3  2  0
  3  4  1  0
  4  5  1  0
  4  6  2  0
  6  7  1  0
  7  8  1  0
  7  9  1  0
  9 10  1  0
 10 11  1  0
 10 12  2  0
 12 13  1  0
 13 14  1  0
 13 15  1  0
 15 16  1  0
 16 17  1  0
 16 18  1  0
 16 19  1  0
 19 20  1  0
 19 21  1  0
 19 22  1  0
 22 23  1  0
 22 24  1  0
 24 25  1  0
 24 26  1  0
 24 27  1  0
 22 28  1  0
 28 29  1  0
 28 30  1  0
 28 31  1  0
  6 32  1  0
 32 33  1  0
 32 34  2  0
 34 35  1  0
 34  2  1  0
 15  9  2  0
M  END
>  <cnnaffinity>  (1) 
-5.46654

>  <filename>  (1) 
[H]c1nc([H])c(N([H])c2c([H])nn([H])c2C([H])([H])C([H])([H])C([H])(C([H])([H])[H])C([H])([H])[H])c([H])c1[H]

$$$$
