
     RDKit          3D

 51 55  0  0  0  0  0  0  0  0999 V2000
   14.5293    0.8877   23.0566 F   0  0  0  0  0  0  0  0  0  0  0  0
   13.5037    1.6960   22.7729 C   0  0  0  0  0  0  0  0  0  0  0  0
   12.2544    1.1674   22.5512 C   0  0  0  0  0  0  0  0  0  0  0  0
   11.1288    2.0266   22.3645 C   0  0  0  0  0  0  0  0  0  0  0  0
    9.7866    1.4111   22.2607 C   0  0  0  0  0  0  0  0  0  0  0  0
    9.4272    0.4218   21.4592 N   0  0  0  0  0  0  0  0  0  0  0  0
    8.1157    0.2487   21.7545 C   0  0  0  0  0  0  0  0  0  0  0  0
    7.2670   -0.7232   20.9845 C   0  0  0  0  0  0  0  0  0  0  0  0
    6.5473   -0.0648   19.8187 C   0  0  0  0  0  0  0  0  0  0  0  0
    5.3595    0.6340   20.0501 C   0  0  0  0  0  0  0  0  0  0  0  0
    4.7722    1.3343   18.9962 C   0  0  0  0  0  0  0  0  0  0  0  0
    5.4039    1.3109   17.7489 C   0  0  0  0  0  0  0  0  0  0  0  0
    6.5387    0.6362   17.5017 N   0  0  0  0  0  0  0  0  0  0  0  0
    7.0858   -0.0357   18.5218 C   0  0  0  0  0  0  0  0  0  0  0  0
    8.0069   -0.5848   18.3092 H   0  0  0  0  0  0  0  0  0  0  0  0
    4.9814    1.8462   16.9022 H   0  0  0  0  0  0  0  0  0  0  0  0
    3.8563    1.8968   19.1331 H   0  0  0  0  0  0  0  0  0  0  0  0
    4.9363    0.6240   21.0562 H   0  0  0  0  0  0  0  0  0  0  0  0
    6.5403   -1.1635   21.6763 H   0  0  0  0  0  0  0  0  0  0  0  0
    7.9302   -1.5180   20.6262 H   0  0  0  0  0  0  0  0  0  0  0  0
    7.6569    1.0410   22.7065 N   0  0  0  0  0  0  0  0  0  0  0  0
    8.7417    1.7855   23.0384 N   0  0  0  0  0  0  0  0  0  0  0  0
    8.6782    2.8473   24.0443 C   0  0  0  0  0  0  0  0  0  0  0  0
    8.0861    4.1769   23.5138 C   0  0  0  0  0  0  0  0  0  0  0  0
    8.6316    5.3872   24.3261 C   0  0  0  0  0  0  0  0  0  0  0  0
    7.6764    6.5923   24.2994 C   0  0  0  0  0  0  0  0  0  0  0  0
    6.2859    6.2322   24.8931 C   0  0  0  0  0  0  0  0  0  0  0  0
    5.9381    4.7271   24.7734 C   0  0  0  0  0  0  0  0  0  0  0  0
    6.5323    4.1065   23.5038 C   0  0  0  0  0  0  0  0  0  0  0  0
    6.2133    3.0636   23.3884 H   0  0  0  0  0  0  0  0  0  0  0  0
    6.1463    4.6316   22.6188 H   0  0  0  0  0  0  0  0  0  0  0  0
    4.8538    4.5762   24.8108 H   0  0  0  0  0  0  0  0  0  0  0  0
    6.3462    4.1822   25.6370 H   0  0  0  0  0  0  0  0  0  0  0  0
    6.2472    6.5191   25.9512 H   0  0  0  0  0  0  0  0  0  0  0  0
    5.5150    6.8275   24.3869 H   0  0  0  0  0  0  0  0  0  0  0  0
    7.5608    6.9372   23.2626 H   0  0  0  0  0  0  0  0  0  0  0  0
    8.1095    7.4428   24.8400 H   0  0  0  0  0  0  0  0  0  0  0  0
    9.6250    5.6702   23.9490 H   0  0  0  0  0  0  0  0  0  0  0  0
    8.7848    5.0957   25.3758 H   0  0  0  0  0  0  0  0  0  0  0  0
    8.4052    4.3053   22.4700 H   0  0  0  0  0  0  0  0  0  0  0  0
    8.0729    2.4954   24.8838 H   0  0  0  0  0  0  0  0  0  0  0  0
    9.6871    2.9949   24.4353 H   0  0  0  0  0  0  0  0  0  0  0  0
   11.2977    3.4124   22.3563 C   0  0  0  0  0  0  0  0  0  0  0  0
   12.5919    3.9466   22.4536 C   0  0  0  0  0  0  0  0  0  0  0  0
   13.6738    3.0924   22.6730 C   0  0  0  0  0  0  0  0  0  0  0  0
   14.7298    3.9341   22.6966 N   0  0  0  0  0  0  0  0  0  0  0  0
   14.3387    5.2109   22.5669 N   0  0  0  0  0  0  0  0  0  0  0  0
   13.0632    5.2410   22.4081 N   0  0  0  0  0  0  0  0  0  0  0  0
   15.6946    3.6992   22.8857 H   0  0  0  0  0  0  0  0  0  0  0  0
   10.4761    4.1110   22.3352 H   0  0  0  0  0  0  0  0  0  0  0  0
   12.1534    0.0871   22.5619 H   0  0  0  0  0  0  0  0  0  0  0  0
  1  2  1  0
  2  3  2  0
  3  4  1  0
  4  5  1  0
  5  6  2  0
  6  7  1  0
  7  8  1  0
  8  9  1  0
  9 10  2  0
 10 11  1  0
 11 12  2  0
 12 13  1  0
 13 14  2  0
 14 15  1  0
 12 16  1  0
 11 17  1  0
 10 18  1  0
  8 19  1  0
  8 20  1  0
  7 21  2  0
 21 22  1  0
 22 23  1  0
 23 24  1  0
 24 25  1  0
 25 26  1  0
 26 27  1  0
 27 28  1  0
 28 29  1  0
 29 30  1  0
 29 31  1  0
 28 32  1  0
 28 33  1  0
 27 34  1  0
 27 35  1  0
 26 36  1  0
 26 37  1  0
 25 38  1  0
 25 39  1  0
 24 40  1  0
 23 41  1  0
 23 42  1  0
  4 43  2  0
 43 44  1  0
 44 45  2  0
 45 46  1  0
 46 47  1  0
 47 48  2  0
 46 49  1  0
 43 50  1  0
  3 51  1  0
 45  2  1  0
 22  5  1  0
 29 24  1  0
 48 44  1  0
 14  9  1  0
M  END
>  <cnnaffinity>  (1) 
-6.83854

>  <filename>  (1) 
[H]c1nc([H])c(C([H])([H])c2nc(-c3c([H])c(F)c4c(nnn4[H])c3[H])n(C([H])([H])C3([H])C([H])([H])C([H])([H])C([H])([H])C([H])([H])C3([H])[H])n2)c([H])c1[H]

$$$$
