
     RDKit          3D

 32 35  0  0  0  0  0  0  0  0999 V2000
    4.9676    1.7720   16.9549 H   0  0  0  0  0  0  0  0  0  0  0  0
    5.4258    1.2959   17.8206 C   0  0  0  0  0  0  0  0  0  0  0  0
    6.5941    0.6703   17.6116 N   0  0  0  0  0  0  0  0  0  0  0  0
    7.1596    0.0602   18.6618 C   0  0  0  0  0  0  0  0  0  0  0  0
    8.1060   -0.4388   18.4629 H   0  0  0  0  0  0  0  0  0  0  0  0
    6.6224    0.0463   19.9643 C   0  0  0  0  0  0  0  0  0  0  0  0
    7.3046   -0.6890   21.0448 C   0  0  0  0  0  0  0  0  0  0  0  0
    7.7316   -1.9596   21.0636 C   0  0  0  0  0  0  0  0  0  0  0  0
    7.6078   -2.7932   20.3964 H   0  0  0  0  0  0  0  0  0  0  0  0
    8.3144   -2.2598   22.2603 O   0  0  0  0  0  0  0  0  0  0  0  0
    8.2272   -1.1694   23.0791 C   0  0  0  0  0  0  0  0  0  0  0  0
    8.6239   -1.1604   24.2118 O   0  0  0  0  0  0  0  0  0  0  0  0
    7.6012   -0.1735   22.3323 N   0  0  0  0  0  0  0  0  0  0  0  0
    7.2032    1.0726   22.9122 C   0  0  0  0  0  0  0  0  0  0  0  0
    7.5197    2.2854   22.2466 C   0  0  0  0  0  0  0  0  0  0  0  0
    8.0318    2.2326   21.2919 H   0  0  0  0  0  0  0  0  0  0  0  0
    7.1521    3.5137   22.7804 C   0  0  0  0  0  0  0  0  0  0  0  0
    7.3633    4.4547   22.2750 H   0  0  0  0  0  0  0  0  0  0  0  0
    6.4726    3.5106   24.0107 C   0  0  0  0  0  0  0  0  0  0  0  0
    6.1482    2.3154   24.6980 C   0  0  0  0  0  0  0  0  0  0  0  0
    6.5292    1.0850   24.1331 C   0  0  0  0  0  0  0  0  0  0  0  0
    6.3254    0.1529   24.6467 H   0  0  0  0  0  0  0  0  0  0  0  0
    5.4715    2.7053   25.9102 C   0  0  0  0  0  0  0  0  0  0  0  0
    5.0747    2.0441   26.6751 H   0  0  0  0  0  0  0  0  0  0  0  0
    5.4159    4.0694   25.9141 C   0  0  0  0  0  0  0  0  0  0  0  0
    5.0028    4.7487   26.6534 H   0  0  0  0  0  0  0  0  0  0  0  0
    6.0140    4.5588   24.7667 N   0  0  0  0  0  0  0  0  0  0  0  0
    6.1199    5.5226   24.4969 H   0  0  0  0  0  0  0  0  0  0  0  0
    5.4026    0.7206   20.1549 C   0  0  0  0  0  0  0  0  0  0  0  0
    4.9771    0.7702   21.1574 H   0  0  0  0  0  0  0  0  0  0  0  0
    4.7908    1.3373   19.0653 C   0  0  0  0  0  0  0  0  0  0  0  0
    3.8405    1.8474   19.1678 H   0  0  0  0  0  0  0  0  0  0  0  0
  1  2  1  0
  2  3  2  0
  3  4  1  0
  4  5  1  0
  4  6  2  0
  6  7  1  0
  7  8  2  0
  8  9  1  0
  8 10  1  0
 10 11  1  0
 11 12  2  0
 11 13  1  0
 13 14  1  0
 14 15  2  0
 15 16  1  0
 15 17  1  0
 17 18  1  0
 17 19  2  0
 19 20  1  0
 20 21  2  0
 21 22  1  0
 20 23  1  0
 23 24  1  0
 23 25  2  0
 25 26  1  0
 25 27  1  0
 27 28  1  0
  6 29  1  0
 29 30  1  0
 29 31  2  0
 31 32  1  0
 31  2  1  0
 13  7  1  0
 21 14  1  0
 27 19  1  0
M  END
>  <cnnaffinity>  (1) 
-4.95868

>  <filename>  (1) 
[H]c1nc([H])c(-c2c([H])oc(=O)n2-c2c([H])c([H])c3c(c2[H])c([H])c([H])n3[H])c([H])c1[H]

$$$$
