
     RDKit          3D

 35 37  0  0  0  0  0  0  0  0999 V2000
    8.0210   -0.0963   25.7294 C   0  0  0  0  0  0  0  0  0  0  0  0
    7.6946    1.3058   25.3008 C   0  0  0  0  0  0  0  0  0  0  0  0
    7.5527    1.9208   24.0662 C   0  0  0  0  0  0  0  0  0  0  0  0
    7.6797    1.3486   22.7231 C   0  0  0  0  0  0  0  0  0  0  0  0
    8.0222    1.9382   21.7164 O   0  0  0  0  0  0  0  0  0  0  0  0
    7.3297    0.0233   22.6442 N   0  0  0  0  0  0  0  0  0  0  0  0
    7.5674   -0.7470   21.2385 S   0  0  0  0  0  0  0  0  0  0  0  0
    8.9627   -0.6294   20.8772 O   0  0  0  0  0  0  0  0  0  0  0  0
    6.9317   -2.0195   21.4974 O   0  0  0  0  0  0  0  0  0  0  0  0
    6.6350    0.1515   20.0884 C   0  0  0  0  0  0  0  0  0  0  0  0
    5.3872    0.7590   20.2760 C   0  0  0  0  0  0  0  0  0  0  0  0
    4.8105    1.3271   19.1421 C   0  0  0  0  0  0  0  0  0  0  0  0
    5.4761    1.2458   17.9142 C   0  0  0  0  0  0  0  0  0  0  0  0
    6.6579    0.6350   17.7534 N   0  0  0  0  0  0  0  0  0  0  0  0
    7.2234    0.1047   18.8328 C   0  0  0  0  0  0  0  0  0  0  0  0
    8.1817   -0.3906   18.6939 H   0  0  0  0  0  0  0  0  0  0  0  0
    5.0411    1.6772   17.0141 H   0  0  0  0  0  0  0  0  0  0  0  0
    3.8546    1.8363   19.1842 H   0  0  0  0  0  0  0  0  0  0  0  0
    4.8612    0.8156   21.2351 H   0  0  0  0  0  0  0  0  0  0  0  0
    6.7147   -0.4769   23.2562 H   0  0  0  0  0  0  0  0  0  0  0  0
    7.3006    3.3244   24.3053 C   0  0  0  0  0  0  0  0  0  0  0  0
    7.0880    4.4262   23.4439 C   0  0  0  0  0  0  0  0  0  0  0  0
    6.8380    5.6611   24.0279 C   0  0  0  0  0  0  0  0  0  0  0  0
    6.5659    7.0542   23.0212 Cl  0  0  0  0  0  0  0  0  0  0  0  0
    6.8024    5.8297   25.4350 C   0  0  0  0  0  0  0  0  0  0  0  0
    7.0250    4.7473   26.2799 C   0  0  0  0  0  0  0  0  0  0  0  0
    7.2739    3.4922   25.7019 C   0  0  0  0  0  0  0  0  0  0  0  0
    7.5125    2.2576   26.2692 N   0  0  0  0  0  0  0  0  0  0  0  0
    7.6086    2.0750   27.2557 H   0  0  0  0  0  0  0  0  0  0  0  0
    7.0096    4.8700   27.3589 H   0  0  0  0  0  0  0  0  0  0  0  0
    6.6104    6.8196   25.8402 H   0  0  0  0  0  0  0  0  0  0  0  0
    7.1251    4.3006   22.3647 H   0  0  0  0  0  0  0  0  0  0  0  0
    7.1200   -0.7179   25.7763 H   0  0  0  0  0  0  0  0  0  0  0  0
    8.4772   -0.0962   26.7291 H   0  0  0  0  0  0  0  0  0  0  0  0
    8.7166   -0.5780   25.0376 H   0  0  0  0  0  0  0  0  0  0  0  0
  1  2  1  0
  2  3  2  0
  3  4  1  0
  4  5  2  0
  4  6  1  0
  6  7  1  0
  7  8  2  0
  7  9  2  0
  7 10  1  0
 10 11  2  0
 11 12  1  0
 12 13  2  0
 13 14  1  0
 14 15  2  0
 15 16  1  0
 13 17  1  0
 12 18  1  0
 11 19  1  0
  6 20  1  0
  3 21  1  0
 21 22  2  0
 22 23  1  0
 23 24  1  0
 23 25  2  0
 25 26  1  0
 26 27  2  0
 27 28  1  0
 28 29  1  0
 26 30  1  0
 25 31  1  0
 22 32  1  0
  1 33  1  0
  1 34  1  0
  1 35  1  0
 28  2  1  0
 15 10  1  0
 27 21  1  0
M  END
>  <cnnaffinity>  (1) 
-5.29504

>  <filename>  (1) 
[H]c1nc([H])c(S(=O)(=O)N([H])C(=O)c2c(C([H])([H])[H])n([H])c3c([H])c([H])c(Cl)c([H])c23)c([H])c1[H]

$$$$
