
     RDKit          3D

 39 42  0  0  0  0  0  0  0  0999 V2000
   10.1416   -0.4544   24.0174 H   0  0  0  0  0  0  0  0  0  0  0  0
   10.4619    0.2495   23.2498 C   0  0  0  0  0  0  0  0  0  0  0  0
   11.7575    0.6024   23.2617 C   0  0  0  0  0  0  0  0  0  0  0  0
   12.6370    1.4671   22.0031 S   0  0  0  0  0  0  0  0  0  0  0  0
   14.2116    0.9559   22.7057 C   0  0  0  0  0  0  0  0  0  0  0  0
   15.2923    1.0127   22.2051 O   0  0  0  0  0  0  0  0  0  0  0  0
   13.9889    0.4882   23.9639 N   0  0  0  0  0  0  0  0  0  0  0  0
   14.7624    0.2758   24.5616 H   0  0  0  0  0  0  0  0  0  0  0  0
   12.7026    0.2721   24.3607 C   0  0  0  0  0  0  0  0  0  0  0  0
   12.4229   -0.1440   25.4548 O   0  0  0  0  0  0  0  0  0  0  0  0
    9.5150    0.6818   22.1601 C   0  0  2  0  0  0  0  0  0  0  0  0
    9.8668    1.6808   21.8552 H   0  0  0  0  0  0  0  0  0  0  0  0
    8.0432    0.8270   22.6341 C   0  0  0  0  0  0  0  0  0  0  0  0
    8.0269    1.0921   23.6978 H   0  0  0  0  0  0  0  0  0  0  0  0
    7.5808    1.6565   22.0843 H   0  0  0  0  0  0  0  0  0  0  0  0
    7.1557   -0.4163   22.3891 C   0  0  1  0  0  0  0  0  0  0  0  0
    6.1253   -0.1904   22.6830 H   0  0  0  0  0  0  0  0  0  0  0  0
    7.2356   -0.8115   20.9695 N   0  0  0  0  0  0  0  0  0  0  0  0
    6.6505   -0.0577   19.9355 C   0  0  0  0  0  0  0  0  0  0  0  0
    7.1702   -0.0045   18.6072 C   0  0  0  0  0  0  0  0  0  0  0  0
    8.1019   -0.5129   18.3669 H   0  0  0  0  0  0  0  0  0  0  0  0
    6.5997    0.6538   17.5883 N   0  0  0  0  0  0  0  0  0  0  0  0
    5.4575    1.3112   17.8344 C   0  0  0  0  0  0  0  0  0  0  0  0
    5.0124    1.8321   16.9907 H   0  0  0  0  0  0  0  0  0  0  0  0
    4.8443    1.3234   19.0904 C   0  0  0  0  0  0  0  0  0  0  0  0
    3.9155    1.8682   19.2300 H   0  0  0  0  0  0  0  0  0  0  0  0
    5.4409    0.6351   20.1497 C   0  0  0  0  0  0  0  0  0  0  0  0
    4.9725    0.6168   21.1323 H   0  0  0  0  0  0  0  0  0  0  0  0
    8.5903   -1.3669   20.8607 C   0  0  2  0  0  0  0  0  0  0  0  0
    8.7165   -1.8835   19.9132 H   0  0  0  0  0  0  0  0  0  0  0  0
    8.6173   -2.3400   22.0551 C   0  0  0  0  0  0  0  0  0  0  0  0
    9.6301   -2.5046   22.4344 H   0  0  0  0  0  0  0  0  0  0  0  0
    8.2325   -3.3127   21.7342 H   0  0  0  0  0  0  0  0  0  0  0  0
    7.6549   -1.6978   23.0866 C   0  0  0  0  0  0  0  0  0  0  0  0
    8.1204   -1.4961   24.0556 H   0  0  0  0  0  0  0  0  0  0  0  0
    6.8015   -2.3546   23.2840 H   0  0  0  0  0  0  0  0  0  0  0  0
    9.6445   -0.2445   20.9157 C   0  0  0  0  0  0  0  0  0  0  0  0
    9.5332    0.3528   20.0029 H   0  0  0  0  0  0  0  0  0  0  0  0
   10.6452   -0.6931   20.8776 H   0  0  0  0  0  0  0  0  0  0  0  0
  1  2  1  0
  2  3  2  3
  3  4  1  0
  4  5  1  0
  5  6  2  0
  5  7  1  0
  7  8  1  0
  7  9  1  0
  9 10  2  0
  2 11  1  0
 11 12  1  6
 11 13  1  0
 13 14  1  0
 13 15  1  0
 13 16  1  0
 16 17  1  1
 16 18  1  0
 18 19  1  0
 19 20  2  0
 20 21  1  0
 20 22  1  0
 22 23  2  0
 23 24  1  0
 23 25  1  0
 25 26  1  0
 25 27  2  0
 27 28  1  0
 18 29  1  0
 29 30  1  6
 29 31  1  0
 31 32  1  0
 31 33  1  0
 31 34  1  0
 34 35  1  0
 34 36  1  0
 29 37  1  0
 37 38  1  0
 37 39  1  0
  9  3  1  0
 37 11  1  0
 34 16  1  0
 27 19  1  0
M  END
>  <cnnaffinity>  (1) 
-5.87302

>  <filename>  (1) 
[H]C(=C1SC(=O)N([H])C1=O)[C@]1([H])C([H])([H])[C@@]2([H])N(c3c([H])nc([H])c([H])c3[H])[C@]([H])(C([H])([H])C2([H])[H])C1([H])[H]

$$$$
