
     RDKit          3D

 38 40  0  0  0  0  0  0  0  0999 V2000
    7.8323   -4.4398   23.1137 C   0  0  0  0  0  0  0  0  0  0  0  0
    8.7294   -3.5535   22.2390 C   0  0  0  0  0  0  0  0  0  0  0  0
    8.2247   -2.1770   21.9745 C   0  0  0  0  0  0  0  0  0  0  0  0
    7.7315   -1.8610   20.7995 N   0  0  0  0  0  0  0  0  0  0  0  0
    7.3541   -0.5723   20.9615 N   0  0  0  0  0  0  0  0  0  0  0  0
    6.6441    0.0814   19.9193 C   0  0  0  0  0  0  0  0  0  0  0  0
    5.4308    0.7400   20.1427 C   0  0  0  0  0  0  0  0  0  0  0  0
    4.8165    1.3636   19.0537 C   0  0  0  0  0  0  0  0  0  0  0  0
    5.4344    1.3101   17.7991 C   0  0  0  0  0  0  0  0  0  0  0  0
    6.5824    0.6440   17.5746 N   0  0  0  0  0  0  0  0  0  0  0  0
    7.1561    0.0268   18.6101 C   0  0  0  0  0  0  0  0  0  0  0  0
    8.0638   -0.5400   18.4107 H   0  0  0  0  0  0  0  0  0  0  0  0
    4.9849    1.7986   16.9391 H   0  0  0  0  0  0  0  0  0  0  0  0
    3.8697    1.8796   19.1667 H   0  0  0  0  0  0  0  0  0  0  0  0
    4.9669    0.7265   21.1310 H   0  0  0  0  0  0  0  0  0  0  0  0
    7.7082   -0.1592   22.2141 C   0  0  0  0  0  0  0  0  0  0  0  0
    7.6466    1.2694   22.6515 C   0  0  0  0  0  0  0  0  0  0  0  0
    8.5999    2.1969   21.8556 C   0  0  0  0  0  0  0  0  0  0  0  0
    8.4988    3.6489   22.2726 C   0  0  0  0  0  0  0  0  0  0  0  0
    9.3827    4.2369   23.1910 C   0  0  0  0  0  0  0  0  0  0  0  0
    9.2293    5.5874   23.5312 C   0  0  0  0  0  0  0  0  0  0  0  0
    8.2665    6.3741   23.0336 N   0  0  0  0  0  0  0  0  0  0  0  0
    7.4111    5.8087   22.1681 C   0  0  0  0  0  0  0  0  0  0  0  0
    7.4692    4.4677   21.7882 C   0  0  0  0  0  0  0  0  0  0  0  0
    6.6997    4.1021   21.1138 H   0  0  0  0  0  0  0  0  0  0  0  0
    6.6160    6.4311   21.7594 H   0  0  0  0  0  0  0  0  0  0  0  0
    9.9237    6.0643   24.2280 H   0  0  0  0  0  0  0  0  0  0  0  0
   10.1507    3.6453   23.6770 H   0  0  0  0  0  0  0  0  0  0  0  0
    9.6298    1.8320   21.9619 H   0  0  0  0  0  0  0  0  0  0  0  0
    8.3643    2.0988   20.7891 H   0  0  0  0  0  0  0  0  0  0  0  0
    7.8878    1.2953   23.7164 H   0  0  0  0  0  0  0  0  0  0  0  0
    6.6204    1.6350   22.5433 H   0  0  0  0  0  0  0  0  0  0  0  0
    8.2434   -1.1638   22.8811 N   0  0  0  0  0  0  0  0  0  0  0  0
    8.8298   -4.0018   21.2502 H   0  0  0  0  0  0  0  0  0  0  0  0
    9.7179   -3.4548   22.6986 H   0  0  0  0  0  0  0  0  0  0  0  0
    6.8826   -4.6572   22.6137 H   0  0  0  0  0  0  0  0  0  0  0  0
    8.3337   -5.3933   23.3134 H   0  0  0  0  0  0  0  0  0  0  0  0
    7.6229   -3.9605   24.0761 H   0  0  0  0  0  0  0  0  0  0  0  0
  1  2  1  0
  2  3  1  0
  3  4  2  0
  4  5  1  0
  5  6  1  0
  6  7  2  0
  7  8  1  0
  8  9  2  0
  9 10  1  0
 10 11  2  0
 11 12  1  0
  9 13  1  0
  8 14  1  0
  7 15  1  0
  5 16  1  0
 16 17  1  0
 17 18  1  0
 18 19  1  0
 19 20  2  0
 20 21  1  0
 21 22  2  0
 22 23  1  0
 23 24  2  0
 24 25  1  0
 23 26  1  0
 21 27  1  0
 20 28  1  0
 18 29  1  0
 18 30  1  0
 17 31  1  0
 17 32  1  0
 16 33  2  0
  2 34  1  0
  2 35  1  0
  1 36  1  0
  1 37  1  0
  1 38  1  0
 33  3  1  0
 11  6  1  0
 24 19  1  0
M  END
>  <cnnaffinity>  (1) 
-5.12658

>  <filename>  (1) 
[H]c1nc([H])c(-n2nc(C([H])([H])C([H])([H])[H])nc2C([H])([H])C([H])([H])c2c([H])c([H])nc([H])c2[H])c([H])c1[H]

$$$$
