
     RDKit          3D

 32 34  0  0  0  0  0  0  0  0999 V2000
    4.9744    1.7686   17.0085 H   0  0  0  0  0  0  0  0  0  0  0  0
    5.4324    1.2640   17.8569 C   0  0  0  0  0  0  0  0  0  0  0  0
    6.5899    0.6340   17.6122 N   0  0  0  0  0  0  0  0  0  0  0  0
    7.2001    0.0390   18.6401 C   0  0  0  0  0  0  0  0  0  0  0  0
    8.1551   -0.4363   18.4277 H   0  0  0  0  0  0  0  0  0  0  0  0
    6.6757    0.0021   19.9364 C   0  0  0  0  0  0  0  0  0  0  0  0
    7.4362   -0.7249   20.9730 C   0  0  0  0  0  0  0  0  0  0  0  0
    8.7439   -0.7103   20.8760 N   0  0  0  0  0  0  0  0  0  0  0  0
    9.4650   -1.3259   21.8537 C   0  0  0  0  0  0  0  0  0  0  0  0
   10.6719   -1.3424   21.9331 O   0  0  0  0  0  0  0  0  0  0  0  0
    8.7752   -2.0114   22.8427 N   0  0  0  0  0  0  0  0  0  0  0  0
    9.3759   -2.3723   23.5531 H   0  0  0  0  0  0  0  0  0  0  0  0
    7.4454   -2.0134   22.9503 C   0  0  0  0  0  0  0  0  0  0  0  0
    6.8912   -2.6431   24.0126 N   0  0  0  0  0  0  0  0  0  0  0  0
    5.9278   -2.3802   24.1353 H   0  0  0  0  0  0  0  0  0  0  0  0
    7.3136   -3.8615   24.5968 C   0  0  0  0  0  0  0  0  0  0  0  0
    6.9491   -4.1202   25.9222 C   0  0  0  0  0  0  0  0  0  0  0  0
    6.2894   -3.4143   26.4100 H   0  0  0  0  0  0  0  0  0  0  0  0
    7.4617   -5.2281   26.6040 C   0  0  0  0  0  0  0  0  0  0  0  0
    7.1964   -5.4620   27.6310 H   0  0  0  0  0  0  0  0  0  0  0  0
    8.3342   -6.0720   25.9245 C   0  0  0  0  0  0  0  0  0  0  0  0
    8.9237   -7.0758   26.5779 F   0  0  0  0  0  0  0  0  0  0  0  0
    8.6321   -5.9044   24.5785 C   0  0  0  0  0  0  0  0  0  0  0  0
    9.2596   -6.6454   24.0918 H   0  0  0  0  0  0  0  0  0  0  0  0
    8.1102   -4.7953   23.9129 C   0  0  0  0  0  0  0  0  0  0  0  0
    8.3137   -4.6345   22.8624 H   0  0  0  0  0  0  0  0  0  0  0  0
    6.7197   -1.3933   21.9824 C   0  0  0  0  0  0  0  0  0  0  0  0
    5.6522   -1.4941   21.9328 H   0  0  0  0  0  0  0  0  0  0  0  0
    5.4498    0.6475   20.1783 C   0  0  0  0  0  0  0  0  0  0  0  0
    5.0043    0.6704   21.1774 H   0  0  0  0  0  0  0  0  0  0  0  0
    4.8208    1.2964   19.1169 C   0  0  0  0  0  0  0  0  0  0  0  0
    3.8847    1.8322   19.2495 H   0  0  0  0  0  0  0  0  0  0  0  0
  1  2  1  0
  2  3  2  0
  3  4  1  0
  4  5  1  0
  4  6  2  0
  6  7  1  0
  7  8  2  0
  8  9  1  0
  9 10  2  0
  9 11  1  0
 11 12  1  0
 11 13  1  0
 13 14  1  0
 14 15  1  0
 14 16  1  0
 16 17  2  0
 17 18  1  0
 17 19  1  0
 19 20  1  0
 19 21  2  0
 21 22  1  0
 21 23  1  0
 23 24  1  0
 23 25  2  0
 25 26  1  0
 13 27  2  0
 27 28  1  0
  6 29  1  0
 29 30  1  0
 29 31  2  0
 31 32  1  0
 31  2  1  0
 27  7  1  0
 25 16  1  0
M  END
>  <cnnaffinity>  (1) 
-5.16975

>  <filename>  (1) 
[H]c1nc([H])c(-c2nc(=O)n([H])c(N([H])c3c([H])c([H])c(F)c([H])c3[H])c2[H])c([H])c1[H]

$$$$
