
     RDKit          3D

 30 32  0  0  0  0  0  0  0  0999 V2000
    4.9095    1.8566   16.9198 H   0  0  0  0  0  0  0  0  0  0  0  0
    5.3919    1.3699   17.7652 C   0  0  0  0  0  0  0  0  0  0  0  0
    6.5619    0.7636   17.5133 N   0  0  0  0  0  0  0  0  0  0  0  0
    7.1706    0.1492   18.5375 C   0  0  0  0  0  0  0  0  0  0  0  0
    8.1023   -0.3687   18.3008 H   0  0  0  0  0  0  0  0  0  0  0  0
    6.6725    0.1314   19.8535 C   0  0  0  0  0  0  0  0  0  0  0  0
    7.3662   -0.5722   20.9422 C   0  0  0  0  0  0  0  0  0  0  0  0
    7.2390   -1.9098   21.1745 C   0  0  0  0  0  0  0  0  0  0  0  0
    6.3230   -2.8520   20.4807 C   0  0  0  0  0  0  0  0  0  0  0  0
    5.9615   -2.6261   19.3379 O   0  0  0  0  0  0  0  0  0  0  0  0
    5.7897   -4.0645   21.2067 C   0  0  0  0  0  0  0  0  0  0  0  0
    5.6427   -5.2338   20.5176 O   0  0  0  0  0  0  0  0  0  0  0  0
    5.0694   -6.1318   21.3538 C   0  0  0  0  0  0  0  0  0  0  0  0
    4.9131   -7.1220   20.9434 H   0  0  0  0  0  0  0  0  0  0  0  0
    4.8057   -5.5563   22.5566 C   0  0  0  0  0  0  0  0  0  0  0  0
    4.2911   -5.9941   23.4021 H   0  0  0  0  0  0  0  0  0  0  0  0
    5.3136   -4.2214   22.4741 C   0  0  0  0  0  0  0  0  0  0  0  0
    5.3761   -3.4629   23.2493 H   0  0  0  0  0  0  0  0  0  0  0  0
    8.1649   -2.3241   22.2471 C   0  0  0  0  0  0  0  0  0  0  0  0
    8.4501   -3.4505   22.5849 O   0  0  0  0  0  0  0  0  0  0  0  0
    8.6961   -1.0525   22.9062 C   0  0  0  0  0  0  0  0  0  0  0  0
    8.2938   -1.0363   23.9261 H   0  0  0  0  0  0  0  0  0  0  0  0
    9.7840   -1.1189   22.9844 H   0  0  0  0  0  0  0  0  0  0  0  0
    8.1835    0.1052   22.0199 C   0  0  0  0  0  0  0  0  0  0  0  0
    7.5337    0.7991   22.5746 H   0  0  0  0  0  0  0  0  0  0  0  0
    8.9931    0.7054   21.5809 H   0  0  0  0  0  0  0  0  0  0  0  0
    5.4450    0.7697   20.0868 C   0  0  0  0  0  0  0  0  0  0  0  0
    5.0106    0.7619   21.0897 H   0  0  0  0  0  0  0  0  0  0  0  0
    4.7869    1.3876   19.0252 C   0  0  0  0  0  0  0  0  0  0  0  0
    3.8251    1.8697   19.1607 H   0  0  0  0  0  0  0  0  0  0  0  0
  1  2  1  0
  2  3  2  0
  3  4  1  0
  4  5  1  0
  4  6  2  0
  6  7  1  0
  7  8  2  0
  8  9  1  0
  9 10  2  0
  9 11  1  0
 11 12  1  0
 12 13  1  0
 13 14  1  0
 13 15  2  0
 15 16  1  0
 15 17  1  0
 17 18  1  0
  8 19  1  0
 19 20  2  0
 19 21  1  0
 21 22  1  0
 21 23  1  0
 21 24  1  0
 24 25  1  0
 24 26  1  0
  6 27  1  0
 27 28  1  0
 27 29  2  0
 29 30  1  0
 29  2  1  0
 24  7  1  0
 17 11  2  0
M  END
>  <cnnaffinity>  (1) 
-4.82807

>  <filename>  (1) 
[H]c1nc([H])c(C2=C(C(=O)c3oc([H])c([H])c3[H])C(=O)C([H])([H])C2([H])[H])c([H])c1[H]

$$$$
