
     RDKit          3D

 45 47  0  0  0  0  0  0  0  0999 V2000
    3.8318   -6.9912   26.9451 H   0  0  0  0  0  0  0  0  0  0  0  0
    3.9150   -7.0202   25.8594 C   0  0  0  0  0  0  0  0  0  0  0  0
    4.5296   -5.9720   25.3171 N   0  0  0  0  0  0  0  0  0  0  0  0
    4.7293   -5.9922   23.9931 C   0  0  0  0  0  0  0  0  0  0  0  0
    5.4781   -4.9491   23.5009 N   0  0  0  0  0  0  0  0  0  0  0  0
    6.1680   -5.0326   22.2122 C   0  0  0  0  0  0  0  0  0  0  0  0
    5.4961   -4.7092   21.3944 H   0  0  0  0  0  0  0  0  0  0  0  0
    6.4698   -6.0693   22.0147 H   0  0  0  0  0  0  0  0  0  0  0  0
    7.4164   -4.1200   22.2073 C   0  0  0  0  0  0  0  0  0  0  0  0
    8.1571   -4.4995   22.9301 H   0  0  0  0  0  0  0  0  0  0  0  0
    7.8670   -4.1315   21.2062 H   0  0  0  0  0  0  0  0  0  0  0  0
    7.1115   -2.7362   22.5751 N   0  0  0  0  0  0  0  0  0  0  0  0
    6.5337   -1.9118   21.5058 C   0  0  0  0  0  0  0  0  0  0  0  0
    5.5631   -1.4869   21.7954 H   0  0  0  0  0  0  0  0  0  0  0  0
    6.3432   -2.5311   20.6138 H   0  0  0  0  0  0  0  0  0  0  0  0
    7.4240   -0.7121   21.0294 C   0  0  2  0  0  0  0  0  0  0  0  0
    6.6726    0.0106   19.9011 C   0  0  0  0  0  0  0  0  0  0  0  0
    7.1660    0.0603   18.5888 C   0  0  0  0  0  0  0  0  0  0  0  0
    8.1115   -0.4097   18.3327 H   0  0  0  0  0  0  0  0  0  0  0  0
    6.5545    0.6718   17.5651 N   0  0  0  0  0  0  0  0  0  0  0  0
    5.3980    1.2940   17.8189 C   0  0  0  0  0  0  0  0  0  0  0  0
    4.9338    1.8045   16.9754 H   0  0  0  0  0  0  0  0  0  0  0  0
    4.8001    1.3121   19.0837 C   0  0  0  0  0  0  0  0  0  0  0  0
    3.8645    1.8460   19.2305 H   0  0  0  0  0  0  0  0  0  0  0  0
    5.4428    0.6577   20.1376 C   0  0  0  0  0  0  0  0  0  0  0  0
    4.9831    0.6717   21.1294 H   0  0  0  0  0  0  0  0  0  0  0  0
    8.7349   -1.1981   20.5829 N   0  0  0  0  0  0  0  0  0  0  0  0
    9.2845   -0.4296   20.2239 H   0  0  0  0  0  0  0  0  0  0  0  0
    8.6138   -1.8768   19.8358 H   0  0  0  0  0  0  0  0  0  0  0  0
    7.6601    0.2440   22.2099 C   0  0  0  0  0  0  0  0  0  0  0  0
    8.2639   -0.2518   22.9745 H   0  0  0  0  0  0  0  0  0  0  0  0
    6.7153    0.5629   22.6680 H   0  0  0  0  0  0  0  0  0  0  0  0
    8.1811    1.1439   21.8666 H   0  0  0  0  0  0  0  0  0  0  0  0
    6.4627   -2.7004   23.8879 C   0  0  0  0  0  0  0  0  0  0  0  0
    7.2004   -3.0693   24.6195 H   0  0  0  0  0  0  0  0  0  0  0  0
    6.2098   -1.6624   24.1491 H   0  0  0  0  0  0  0  0  0  0  0  0
    5.1954   -3.5789   23.9601 C   0  0  0  0  0  0  0  0  0  0  0  0
    4.4168   -3.1344   23.3133 H   0  0  0  0  0  0  0  0  0  0  0  0
    4.8081   -3.6093   24.9831 H   0  0  0  0  0  0  0  0  0  0  0  0
    4.2199   -7.0032   23.1484 C   0  0  0  0  0  0  0  0  0  0  0  0
    4.3854   -6.8935   22.0820 H   0  0  0  0  0  0  0  0  0  0  0  0
    3.5232   -8.0606   23.7273 C   0  0  0  0  0  0  0  0  0  0  0  0
    3.0930   -8.8502   23.1086 H   0  0  0  0  0  0  0  0  0  0  0  0
    3.3901   -8.0840   25.1237 C   0  0  0  0  0  0  0  0  0  0  0  0
    2.8822   -8.8807   25.6517 H   0  0  0  0  0  0  0  0  0  0  0  0
  1  2  1  0
  2  3  2  0
  3  4  1  0
  4  5  1  0
  5  6  1  0
  6  7  1  0
  6  8  1  0
  6  9  1  0
  9 10  1  0
  9 11  1  0
  9 12  1  0
 12 13  1  0
 13 14  1  0
 13 15  1  0
 13 16  1  0
 16 17  1  0
 17 18  2  0
 18 19  1  0
 18 20  1  0
 20 21  2  0
 21 22  1  0
 21 23  1  0
 23 24  1  0
 23 25  2  0
 25 26  1  0
 16 27  1  6
 27 28  1  0
 27 29  1  0
 16 30  1  0
 30 31  1  0
 30 32  1  0
 30 33  1  0
 12 34  1  0
 34 35  1  0
 34 36  1  0
 34 37  1  0
 37 38  1  0
 37 39  1  0
  4 40  2  0
 40 41  1  0
 40 42  1  0
 42 43  1  0
 42 44  2  0
 44 45  1  0
 44  2  1  0
 37  5  1  0
 25 17  1  0
M  END
>  <cnnaffinity>  (1) 
-5.06191

>  <filename>  (1) 
[H]c1nc(N2C([H])([H])C([H])([H])N(C([H])([H])[C@](c3c([H])nc([H])c([H])c3[H])(N([H])[H])C([H])([H])[H])C([H])([H])C2([H])[H])c([H])c([H])c1[H]

$$$$
