
     RDKit          3D

 41 43  0  0  0  0  0  0  0  0999 V2000
    5.0643    1.7728   17.0851 H   0  0  0  0  0  0  0  0  0  0  0  0
    5.4528    1.1830   17.9140 C   0  0  0  0  0  0  0  0  0  0  0  0
    6.5878    0.5092   17.6774 N   0  0  0  0  0  0  0  0  0  0  0  0
    7.1123   -0.1812   18.6996 C   0  0  0  0  0  0  0  0  0  0  0  0
    8.0418   -0.7062   18.4824 H   0  0  0  0  0  0  0  0  0  0  0  0
    6.5575   -0.2462   19.9976 C   0  0  0  0  0  0  0  0  0  0  0  0
    7.2988   -0.8866   21.1574 C   0  0  0  0  0  0  0  0  0  0  0  0
    7.0067   -2.3444   21.5278 C   0  0  0  0  0  0  0  0  0  0  0  0
    7.8260   -3.1980   21.7316 O   0  0  0  0  0  0  0  0  0  0  0  0
    5.6641   -2.5377   21.7338 O   0  0  0  0  0  0  0  0  0  0  0  0
    5.2586   -3.8656   21.8484 C   0  0  0  0  0  0  0  0  0  0  0  0
    5.5823   -4.7466   21.1037 O   0  0  0  0  0  0  0  0  0  0  0  0
    4.3811   -3.9001   22.8852 N   0  0  0  0  0  0  0  0  0  0  0  0
    4.5429   -3.1052   23.4813 H   0  0  0  0  0  0  0  0  0  0  0  0
    3.9166   -5.1624   23.4537 C   0  0  0  0  0  0  0  0  0  0  0  0
    3.8349   -5.8794   22.6225 H   0  0  0  0  0  0  0  0  0  0  0  0
    2.5277   -4.9958   24.0829 C   0  0  0  0  0  0  0  0  0  0  0  0
    1.8603   -4.5222   23.3580 H   0  0  0  0  0  0  0  0  0  0  0  0
    2.6171   -4.2967   24.9299 H   0  0  0  0  0  0  0  0  0  0  0  0
    1.9717   -6.3500   24.5602 C   0  0  0  0  0  0  0  0  0  0  0  0
    0.9751   -6.2205   25.0021 H   0  0  0  0  0  0  0  0  0  0  0  0
    1.8371   -7.0040   23.6839 H   0  0  0  0  0  0  0  0  0  0  0  0
    2.9291   -7.0236   25.5594 C   0  0  0  0  0  0  0  0  0  0  0  0
    2.9222   -6.4553   26.4995 H   0  0  0  0  0  0  0  0  0  0  0  0
    2.5639   -8.0247   25.8153 H   0  0  0  0  0  0  0  0  0  0  0  0
    4.3715   -7.1102   25.0250 C   0  0  0  0  0  0  0  0  0  0  0  0
    5.0470   -7.4759   25.8079 H   0  0  0  0  0  0  0  0  0  0  0  0
    4.4111   -7.8489   24.2109 H   0  0  0  0  0  0  0  0  0  0  0  0
    4.8851   -5.7580   24.4912 C   0  0  0  0  0  0  0  0  0  0  0  0
    5.0012   -5.0450   25.3226 H   0  0  0  0  0  0  0  0  0  0  0  0
    5.8749   -5.8693   24.0352 H   0  0  0  0  0  0  0  0  0  0  0  0
    8.7146   -0.3846   21.3798 C   0  0  0  0  0  0  0  0  0  0  0  0
    9.4675   -1.1052   21.6952 H   0  0  0  0  0  0  0  0  0  0  0  0
    9.0664    0.3860   20.6921 H   0  0  0  0  0  0  0  0  0  0  0  0
    7.6441    0.0221   22.3450 C   0  0  0  0  0  0  0  0  0  0  0  0
    7.2752    1.0494   22.3100 H   0  0  0  0  0  0  0  0  0  0  0  0
    7.6364   -0.3997   23.3483 H   0  0  0  0  0  0  0  0  0  0  0  0
    5.3278    0.4009   20.1868 C   0  0  0  0  0  0  0  0  0  0  0  0
    4.8276    0.3413   21.1538 H   0  0  0  0  0  0  0  0  0  0  0  0
    4.7787    1.1452   19.1379 C   0  0  0  0  0  0  0  0  0  0  0  0
    3.8676    1.7220   19.2587 H   0  0  0  0  0  0  0  0  0  0  0  0
  1  2  1  0
  2  3  2  0
  3  4  1  0
  4  5  1  0
  4  6  2  0
  6  7  1  0
  7  8  1  0
  8  9  2  0
  8 10  1  0
 10 11  1  0
 11 12  2  0
 11 13  1  0
 13 14  1  0
 13 15  1  0
 15 16  1  0
 15 17  1  0
 17 18  1  0
 17 19  1  0
 17 20  1  0
 20 21  1  0
 20 22  1  0
 20 23  1  0
 23 24  1  0
 23 25  1  0
 23 26  1  0
 26 27  1  0
 26 28  1  0
 26 29  1  0
 29 30  1  0
 29 31  1  0
  7 32  1  0
 32 33  1  0
 32 34  1  0
 32 35  1  0
 35 36  1  0
 35 37  1  0
  6 38  1  0
 38 39  1  0
 38 40  2  0
 40 41  1  0
 40  2  1  0
 35  7  1  0
 29 15  1  0
M  END
>  <cnnaffinity>  (1) 
-5.47961

>  <filename>  (1) 
[H]c1nc([H])c(C2(C(=O)OC(=O)N([H])C3([H])C([H])([H])C([H])([H])C([H])([H])C([H])([H])C3([H])[H])C([H])([H])C2([H])[H])c([H])c1[H]

$$$$
