
     RDKit          3D

 33 35  0  0  0  0  0  0  0  0999 V2000
    8.0803   -0.5502   25.1550 N   0  0  0  0  0  4  0  0  0  0  0  0
    8.2963   -1.7383   24.2907 C   0  0  0  0  0  0  0  0  0  0  0  0
    7.3839   -2.8570   24.7416 C   0  0  0  0  0  0  0  0  0  0  0  0
    7.9270   -4.0595   25.2257 C   0  0  0  0  0  0  0  0  0  0  0  0
    7.0919   -5.1184   25.6092 C   0  0  0  0  0  0  0  0  0  0  0  0
    5.7024   -5.0023   25.5059 C   0  0  0  0  0  0  0  0  0  0  0  0
    4.5654   -6.4471   26.0438 Br  0  0  0  0  0  0  0  0  0  0  0  0
    5.1538   -3.8181   25.0080 C   0  0  0  0  0  0  0  0  0  0  0  0
    5.9877   -2.7593   24.6292 C   0  0  0  0  0  0  0  0  0  0  0  0
    5.5507   -1.8501   24.2422 H   0  0  0  0  0  0  0  0  0  0  0  0
    4.0759   -3.7209   24.9242 H   0  0  0  0  0  0  0  0  0  0  0  0
    7.5180   -6.0387   25.9960 H   0  0  0  0  0  0  0  0  0  0  0  0
    9.0032   -4.1845   25.3036 H   0  0  0  0  0  0  0  0  0  0  0  0
    8.0672   -1.4473   22.8134 C   0  0  0  0  0  0  0  0  0  0  0  0
    7.1789   -0.5735   22.2593 C   0  0  0  0  0  0  0  0  0  0  0  0
    7.3772   -0.6848   20.8991 N   0  0  0  0  0  0  0  0  0  0  0  0
    6.6701    0.0043   19.9081 C   0  0  0  0  0  0  0  0  0  0  0  0
    5.4540    0.6523   20.1704 C   0  0  0  0  0  0  0  0  0  0  0  0
    4.8240    1.3072   19.1084 C   0  0  0  0  0  0  0  0  0  0  0  0
    5.4020    1.2951   17.8316 C   0  0  0  0  0  0  0  0  0  0  0  0
    6.5651    0.6720   17.5829 N   0  0  0  0  0  0  0  0  0  0  0  0
    7.1812    0.0477   18.6002 C   0  0  0  0  0  0  0  0  0  0  0  0
    8.1275   -0.4424   18.3994 H   0  0  0  0  0  0  0  0  0  0  0  0
    4.8890    1.7978   17.0142 H   0  0  0  0  0  0  0  0  0  0  0  0
    3.8864    1.8313   19.2567 H   0  0  0  0  0  0  0  0  0  0  0  0
    5.0044    0.6401   21.1661 H   0  0  0  0  0  0  0  0  0  0  0  0
    8.3735   -1.5859   20.6628 N   0  0  0  0  0  0  0  0  0  0  0  0
    8.7870   -2.0533   21.7915 N   0  0  0  0  0  0  0  0  0  0  0  0
    6.4703    0.0767   22.7670 H   0  0  0  0  0  0  0  0  0  0  0  0
    9.3328   -2.0838   24.3930 H   0  0  0  0  0  0  0  0  0  0  0  0
    7.1082   -0.2547   25.0741 H   0  0  0  0  0  0  0  0  0  0  0  0
    8.6959    0.2101   24.8610 H   0  0  0  0  0  0  0  0  0  0  0  0
    8.2765   -0.7921   26.1269 H   0  0  0  0  0  0  0  0  0  0  0  0
  1  2  1  0
  2  3  1  0
  3  4  2  0
  4  5  1  0
  5  6  2  0
  6  7  1  0
  6  8  1  0
  8  9  2  0
  9 10  1  0
  8 11  1  0
  5 12  1  0
  4 13  1  0
  2 14  1  0
 14 15  2  0
 15 16  1  0
 16 17  1  0
 17 18  2  0
 18 19  1  0
 19 20  2  0
 20 21  1  0
 21 22  2  0
 22 23  1  0
 20 24  1  0
 19 25  1  0
 18 26  1  0
 16 27  1  0
 27 28  2  0
 15 29  1  0
  2 30  1  0
  1 31  1  0
  1 32  1  0
  1 33  1  0
  9  3  1  0
 28 14  1  0
 22 17  1  0
M  CHG  1   1   1
M  END
>  <cnnaffinity>  (1) 
-5.43978

>  <filename>  (1) 
[H]c1nc([H])c(-n2nnc(C([H])(c3c([H])c([H])c(Br)c([H])c3[H])[N+]([H])([H])[H])c2[H])c([H])c1[H]

$$$$
