
     RDKit          3D

 33 35  0  0  0  0  0  0  0  0999 V2000
   13.1661    0.9799   23.4876 H   0  0  0  0  0  0  0  0  0  0  0  0
   12.3106    1.1805   22.8393 C   0  0  0  0  0  0  0  0  0  0  0  0
   11.2613    0.3675   22.9862 N   0  0  0  0  0  0  0  0  0  0  0  0
   10.1862    0.6337   22.2249 C   0  0  0  0  0  0  0  0  0  0  0  0
    9.1501   -0.1985   22.5163 N   0  0  0  0  0  0  0  0  0  0  0  0
    9.5283   -0.9197   23.1091 H   0  0  0  0  0  0  0  0  0  0  0  0
    7.7367    0.0060   22.2816 C   0  0  2  0  0  0  0  0  0  0  0  0
    7.5596    1.0760   22.1169 H   0  0  0  0  0  0  0  0  0  0  0  0
    6.8282   -0.4879   23.4344 C   0  0  0  0  0  0  0  0  0  0  0  0
    5.9704    0.1950   23.5358 H   0  0  0  0  0  0  0  0  0  0  0  0
    7.3439   -0.5080   24.3977 H   0  0  0  0  0  0  0  0  0  0  0  0
    6.4272   -1.8233   23.0247 N   0  0  0  0  0  0  0  0  0  0  0  0
    5.6491   -2.3055   23.4512 H   0  0  0  0  0  0  0  0  0  0  0  0
    6.4335   -1.9557   21.6669 C   0  0  0  0  0  0  0  0  0  0  0  0
    5.8729   -2.8577   21.0802 O   0  0  0  0  0  0  0  0  0  0  0  0
    7.2694   -0.8255   21.0610 C   0  0  1  0  0  0  0  0  0  0  0  0
    8.1353   -1.3296   20.6235 H   0  0  0  0  0  0  0  0  0  0  0  0
    6.5977   -0.0337   19.9421 C   0  0  0  0  0  0  0  0  0  0  0  0
    7.2046    0.0608   18.6707 C   0  0  0  0  0  0  0  0  0  0  0  0
    8.1614   -0.4358   18.4963 H   0  0  0  0  0  0  0  0  0  0  0  0
    6.6871    0.7198   17.6276 N   0  0  0  0  0  0  0  0  0  0  0  0
    5.5146    1.3426   17.8237 C   0  0  0  0  0  0  0  0  0  0  0  0
    5.1037    1.8679   16.9639 H   0  0  0  0  0  0  0  0  0  0  0  0
    4.8280    1.3311   19.0421 C   0  0  0  0  0  0  0  0  0  0  0  0
    3.8928    1.8719   19.1326 H   0  0  0  0  0  0  0  0  0  0  0  0
    5.3810    0.6371   20.1234 C   0  0  0  0  0  0  0  0  0  0  0  0
    4.8718    0.6205   21.0911 H   0  0  0  0  0  0  0  0  0  0  0  0
   10.1509    1.6249   21.2244 C   0  0  0  0  0  0  0  0  0  0  0  0
    9.2432    1.7495   20.6435 H   0  0  0  0  0  0  0  0  0  0  0  0
   11.2803    2.4223   21.0573 C   0  0  0  0  0  0  0  0  0  0  0  0
   11.3361    3.1874   20.2801 H   0  0  0  0  0  0  0  0  0  0  0  0
   12.3656    2.2262   21.9170 C   0  0  0  0  0  0  0  0  0  0  0  0
   13.2355    2.8668   21.8722 H   0  0  0  0  0  0  0  0  0  0  0  0
  1  2  1  0
  2  3  2  0
  3  4  1  0
  4  5  1  0
  5  6  1  0
  5  7  1  0
  7  8  1  6
  7  9  1  0
  9 10  1  0
  9 11  1  0
  9 12  1  0
 12 13  1  0
 12 14  1  0
 14 15  2  0
 14 16  1  0
 16 17  1  6
 16 18  1  0
 18 19  2  0
 19 20  1  0
 19 21  1  0
 21 22  2  0
 22 23  1  0
 22 24  1  0
 24 25  1  0
 24 26  2  0
 26 27  1  0
  4 28  2  0
 28 29  1  0
 28 30  1  0
 30 31  1  0
 30 32  2  0
 32 33  1  0
 32  2  1  0
 16  7  1  0
 26 18  1  0
M  END
>  <cnnaffinity>  (1) 
-5.0496

>  <filename>  (1) 
[H]c1nc(N([H])[C@]2([H])C([H])([H])N([H])C(=O)[C@@]2([H])c2c([H])nc([H])c([H])c2[H])c([H])c([H])c1[H]

$$$$
