
     RDKit          3D

 36 38  0  0  0  0  0  0  0  0999 V2000
    4.9430    1.8305   16.9561 H   0  0  0  0  0  0  0  0  0  0  0  0
    5.4075    1.3261   17.8005 C   0  0  0  0  0  0  0  0  0  0  0  0
    6.5816    0.7218   17.5625 N   0  0  0  0  0  0  0  0  0  0  0  0
    7.1869    0.1189   18.6000 C   0  0  0  0  0  0  0  0  0  0  0  0
    8.1292   -0.3706   18.3459 H   0  0  0  0  0  0  0  0  0  0  0  0
    6.6580    0.0406   19.8977 C   0  0  0  0  0  0  0  0  0  0  0  0
    7.3417   -0.7100   21.0622 C   0  0  0  0  0  0  0  0  0  0  0  0
    6.4660   -1.8803   21.4704 C   0  0  0  0  0  0  0  0  0  0  0  0
    5.8367   -2.8092   20.5656 C   0  0  0  0  0  0  0  0  0  0  0  0
    5.7130   -2.7980   19.0659 C   0  0  0  0  0  0  0  0  0  0  0  0
    5.7628   -3.8081   18.6643 H   0  0  0  0  0  0  0  0  0  0  0  0
    6.4794   -2.1918   18.5824 H   0  0  0  0  0  0  0  0  0  0  0  0
    4.7513   -2.3655   18.7873 H   0  0  0  0  0  0  0  0  0  0  0  0
    5.2522   -3.7782   21.2254 N   0  0  0  0  0  0  0  0  0  0  0  0
    5.4492   -3.5097   22.5574 O   0  0  0  0  0  0  0  0  0  0  0  0
    6.1578   -2.3817   22.7047 C   0  0  0  0  0  0  0  0  0  0  0  0
    6.3531   -1.9429   24.1249 C   0  0  0  0  0  0  0  0  0  0  0  0
    5.9428   -2.6775   24.8193 H   0  0  0  0  0  0  0  0  0  0  0  0
    7.4096   -1.8026   24.3561 H   0  0  0  0  0  0  0  0  0  0  0  0
    5.8412   -0.9929   24.3144 H   0  0  0  0  0  0  0  0  0  0  0  0
    7.6025    0.3033   22.2302 C   0  0  0  0  0  0  0  0  0  0  0  0
    7.6692    1.3088   21.8023 H   0  0  0  0  0  0  0  0  0  0  0  0
    6.7607    0.3277   22.9269 H   0  0  0  0  0  0  0  0  0  0  0  0
    8.9548   -0.0406   22.8979 C   0  0  0  0  0  0  0  0  0  0  0  0
    8.8806   -0.1810   23.9825 H   0  0  0  0  0  0  0  0  0  0  0  0
    9.6456    0.7985   22.7515 H   0  0  0  0  0  0  0  0  0  0  0  0
    9.4731   -1.2805   22.1589 C   0  0  0  0  0  0  0  0  0  0  0  0
    9.1654   -2.2007   22.6728 H   0  0  0  0  0  0  0  0  0  0  0  0
   10.5672   -1.3150   22.0875 H   0  0  0  0  0  0  0  0  0  0  0  0
    8.7995   -1.1910   20.7857 C   0  0  0  0  0  0  0  0  0  0  0  0
    9.3052   -0.4349   20.1747 H   0  0  0  0  0  0  0  0  0  0  0  0
    8.8444   -2.1460   20.2604 H   0  0  0  0  0  0  0  0  0  0  0  0
    5.4155    0.6637   20.1097 C   0  0  0  0  0  0  0  0  0  0  0  0
    4.9475    0.6373   21.0973 H   0  0  0  0  0  0  0  0  0  0  0  0
    4.7857    1.3251   19.0531 C   0  0  0  0  0  0  0  0  0  0  0  0
    3.8461    1.8532   19.1934 H   0  0  0  0  0  0  0  0  0  0  0  0
  1  2  1  0
  2  3  2  0
  3  4  1  0
  4  5  1  0
  4  6  2  0
  6  7  1  0
  7  8  1  0
  8  9  1  0
  9 10  1  0
 10 11  1  0
 10 12  1  0
 10 13  1  0
  9 14  2  0
 14 15  1  0
 15 16  1  0
 16 17  1  0
 17 18  1  0
 17 19  1  0
 17 20  1  0
  7 21  1  0
 21 22  1  0
 21 23  1  0
 21 24  1  0
 24 25  1  0
 24 26  1  0
 24 27  1  0
 27 28  1  0
 27 29  1  0
 27 30  1  0
 30 31  1  0
 30 32  1  0
  6 33  1  0
 33 34  1  0
 33 35  2  0
 35 36  1  0
 35  2  1  0
 30  7  1  0
 16  8  2  0
M  END
>  <cnnaffinity>  (1) 
-4.76389

>  <filename>  (1) 
[H]c1nc([H])c(C2(c3c(C([H])([H])[H])noc3C([H])([H])[H])C([H])([H])C([H])([H])C([H])([H])C2([H])[H])c([H])c1[H]

$$$$
