
     RDKit          3D

 43 46  0  0  0  0  0  0  0  0999 V2000
   11.6239    3.3695   22.3815 C   0  0  0  0  0  0  0  0  0  0  0  0
   11.4934    1.8557   22.1861 C   0  0  0  0  0  0  0  0  0  0  0  0
   10.0975    1.3901   22.2574 N   0  0  0  0  0  0  0  0  0  0  0  0
    9.7129    0.3678   21.4473 N   0  0  0  0  0  0  0  0  0  0  0  0
    8.4197    0.2638   21.6871 C   0  0  0  0  0  0  0  0  0  0  0  0
    7.4860   -0.6722   20.9641 C   0  0  0  0  0  0  0  0  0  0  0  0
    6.6907   -0.0194   19.8359 C   0  0  0  0  0  0  0  0  0  0  0  0
    5.4812    0.6358   20.1052 C   0  0  0  0  0  0  0  0  0  0  0  0
    4.8257    1.3043   19.0690 C   0  0  0  0  0  0  0  0  0  0  0  0
    5.4006    1.2996   17.7960 C   0  0  0  0  0  0  0  0  0  0  0  0
    6.5461    0.6608   17.5084 N   0  0  0  0  0  0  0  0  0  0  0  0
    7.1597    0.0207   18.5111 C   0  0  0  0  0  0  0  0  0  0  0  0
    8.0864   -0.4923   18.2498 H   0  0  0  0  0  0  0  0  0  0  0  0
    4.9202    1.8221   16.9685 H   0  0  0  0  0  0  0  0  0  0  0  0
    3.8924    1.8299   19.2362 H   0  0  0  0  0  0  0  0  0  0  0  0
    5.0703    0.6245   21.1185 H   0  0  0  0  0  0  0  0  0  0  0  0
    6.7801   -1.0599   21.7091 H   0  0  0  0  0  0  0  0  0  0  0  0
    8.0660   -1.5169   20.5827 H   0  0  0  0  0  0  0  0  0  0  0  0
    7.9496    1.1320   22.6191 N   0  0  0  0  0  0  0  0  0  0  0  0
    9.0080    1.8461   22.9375 C   0  0  0  0  0  0  0  0  0  0  0  0
    8.9669    2.9355   23.9265 C   0  0  0  0  0  0  0  0  0  0  0  0
    9.2706    2.6945   25.2540 C   0  0  0  0  0  0  0  0  0  0  0  0
    9.1929    3.6542   26.2150 N   0  0  0  0  0  0  0  0  0  0  0  0
    8.8495    4.8818   25.9255 N   0  0  0  0  0  0  0  0  0  0  0  0
    8.5116    5.2145   24.6373 C   0  0  0  0  0  0  0  0  0  0  0  0
    8.1425    6.5665   24.3599 C   0  0  0  0  0  0  0  0  0  0  0  0
    7.7443    6.9203   23.0942 C   0  0  0  0  0  0  0  0  0  0  0  0
    7.7073    5.9619   22.0425 C   0  0  0  0  0  0  0  0  0  0  0  0
    8.0906    4.6539   22.2805 C   0  0  0  0  0  0  0  0  0  0  0  0
    8.5143    4.2481   23.5847 C   0  0  0  0  0  0  0  0  0  0  0  0
    8.0843    3.9129   21.4857 H   0  0  0  0  0  0  0  0  0  0  0  0
    7.3783    6.2652   21.0524 H   0  0  0  0  0  0  0  0  0  0  0  0
    7.4427    7.9425   22.8830 H   0  0  0  0  0  0  0  0  0  0  0  0
    8.1938    7.2687   25.1853 H   0  0  0  0  0  0  0  0  0  0  0  0
    9.6158    1.7269   25.6158 H   0  0  0  0  0  0  0  0  0  0  0  0
   12.4153    1.0957   23.1591 C   0  0  0  0  0  0  0  0  0  0  0  0
   12.1515    1.4096   24.4472 F   0  0  0  0  0  0  0  0  0  0  0  0
   12.3217   -0.2245   23.0380 F   0  0  0  0  0  0  0  0  0  0  0  0
   13.6993    1.4328   22.9133 F   0  0  0  0  0  0  0  0  0  0  0  0
   11.8347    1.5427   21.1939 H   0  0  0  0  0  0  0  0  0  0  0  0
   10.7037    3.8746   22.0993 H   0  0  0  0  0  0  0  0  0  0  0  0
   11.8230    3.6202   23.4277 H   0  0  0  0  0  0  0  0  0  0  0  0
   12.4258    3.7863   21.7701 H   0  0  0  0  0  0  0  0  0  0  0  0
  1  2  1  0
  2  3  1  0
  3  4  1  0
  4  5  2  0
  5  6  1  0
  6  7  1  0
  7  8  2  0
  8  9  1  0
  9 10  2  0
 10 11  1  0
 11 12  2  0
 12 13  1  0
 10 14  1  0
  9 15  1  0
  8 16  1  0
  6 17  1  0
  6 18  1  0
  5 19  1  0
 19 20  2  0
 20 21  1  0
 21 22  2  0
 22 23  1  0
 23 24  2  0
 24 25  1  0
 25 26  2  0
 26 27  1  0
 27 28  2  0
 28 29  1  0
 29 30  2  0
 29 31  1  0
 28 32  1  0
 27 33  1  0
 26 34  1  0
 22 35  1  0
  2 36  1  0
 36 37  1  0
 36 38  1  0
 36 39  1  0
  2 40  1  0
  1 41  1  0
  1 42  1  0
  1 43  1  0
 20  3  1  0
 30 21  1  0
 12  7  1  0
 30 25  1  0
M  END
>  <cnnaffinity>  (1) 
-6.07869

>  <filename>  (1) 
[H]c1nc([H])c(C([H])([H])c2nc(-c3c([H])nnc4c([H])c([H])c([H])c([H])c34)n(C([H])(C([H])([H])[H])C(F)(F)F)n2)c([H])c1[H]

$$$$
