
     RDKit          3D

 26 28  0  0  0  0  0  0  0  0999 V2000
    7.7980    5.1648   22.7762 F   0  0  0  0  0  0  0  0  0  0  0  0
    6.6769    4.4701   23.0237 C   0  0  0  0  0  0  0  0  0  0  0  0
    5.8511    4.6554   21.9882 F   0  0  0  0  0  0  0  0  0  0  0  0
    6.0957    5.0171   24.0972 F   0  0  0  0  0  0  0  0  0  0  0  0
    6.9991    2.9858   23.2242 C   0  0  0  0  0  0  0  0  0  0  0  0
    7.2960    2.5018   24.3936 N   0  0  0  0  0  0  0  0  0  0  0  0
    7.5644    1.1785   24.1406 O   0  0  0  0  0  0  0  0  0  0  0  0
    7.3956    0.9833   22.8225 C   0  0  0  0  0  0  0  0  0  0  0  0
    7.6435   -0.3155   22.2700 C   0  0  0  0  0  0  0  0  0  0  0  0
    8.2849   -1.3746   22.8751 C   0  0  0  0  0  0  0  0  0  0  0  0
    8.3723   -2.3132   21.9224 N   0  0  0  0  0  0  0  0  0  0  0  0
    7.8497   -1.9487   20.7446 N   0  0  0  0  0  0  0  0  0  0  0  0
    7.3729   -0.7269   20.9432 C   0  0  0  0  0  0  0  0  0  0  0  0
    6.6534    0.0027   19.9014 C   0  0  0  0  0  0  0  0  0  0  0  0
    5.4317    0.6399   20.1547 C   0  0  0  0  0  0  0  0  0  0  0  0
    4.8036    1.3040   19.1062 C   0  0  0  0  0  0  0  0  0  0  0  0
    5.4065    1.2906   17.8444 C   0  0  0  0  0  0  0  0  0  0  0  0
    6.5721    0.6768   17.5865 N   0  0  0  0  0  0  0  0  0  0  0  0
    7.1732    0.0504   18.5999 C   0  0  0  0  0  0  0  0  0  0  0  0
    8.1205   -0.4341   18.3727 H   0  0  0  0  0  0  0  0  0  0  0  0
    4.9191    1.7766   17.0018 H   0  0  0  0  0  0  0  0  0  0  0  0
    3.8753    1.8427   19.2638 H   0  0  0  0  0  0  0  0  0  0  0  0
    5.0074    0.6465   21.1611 H   0  0  0  0  0  0  0  0  0  0  0  0
    8.7975   -3.2207   22.0055 H   0  0  0  0  0  0  0  0  0  0  0  0
    8.6791   -1.4839   23.8795 H   0  0  0  0  0  0  0  0  0  0  0  0
    7.0456    2.0694   22.1939 N   0  0  0  0  0  0  0  0  0  0  0  0
  1  2  1  0
  2  3  1  0
  2  4  1  0
  2  5  1  0
  5  6  2  0
  6  7  1  0
  7  8  1  0
  8  9  1  0
  9 10  2  0
 10 11  1  0
 11 12  1  0
 12 13  2  0
 13 14  1  0
 14 15  2  0
 15 16  1  0
 16 17  2  0
 17 18  1  0
 18 19  2  0
 19 20  1  0
 17 21  1  0
 16 22  1  0
 15 23  1  0
 11 24  1  0
 10 25  1  0
  8 26  2  0
 26  5  1  0
 13  9  1  0
 19 14  1  0
M  END
>  <cnnaffinity>  (1) 
-4.94907

>  <filename>  (1) 
[H]c1nc([H])c(-c2nn([H])c([H])c2-c2nc(C(F)(F)F)no2)c([H])c1[H]

$$$$
