
     RDKit          3D

 48 52  0  0  0  0  0  0  0  0999 V2000
    8.4262    6.8596   26.9748 C   0  0  0  0  0  0  0  0  0  0  0  0
    7.4673    5.8536   27.1346 C   0  0  0  0  0  0  0  0  0  0  0  0
    7.3143    4.9160   26.1114 C   0  0  0  0  0  0  0  0  0  0  0  0
    8.1162    5.0207   24.9646 C   0  0  0  0  0  0  0  0  0  0  0  0
    8.0318    4.0100   23.8566 C   0  0  0  0  0  0  0  0  0  0  0  0
    8.8289    2.7427   24.2058 C   0  0  0  0  0  0  0  0  0  0  0  0
    8.8978    1.8155   23.0819 N   0  0  0  0  0  0  0  0  0  0  0  0
    7.8157    1.0625   22.7626 N   0  0  0  0  0  0  0  0  0  0  0  0
    8.2363    0.3613   21.7295 C   0  0  0  0  0  0  0  0  0  0  0  0
    7.3857   -0.6332   20.9990 C   0  0  0  0  0  0  0  0  0  0  0  0
    6.6144   -0.0234   19.8379 C   0  0  0  0  0  0  0  0  0  0  0  0
    5.4048    0.6418   20.0736 C   0  0  0  0  0  0  0  0  0  0  0  0
    4.7844    1.3165   19.0217 C   0  0  0  0  0  0  0  0  0  0  0  0
    5.3994    1.3019   17.7668 C   0  0  0  0  0  0  0  0  0  0  0  0
    6.5419    0.6456   17.5072 N   0  0  0  0  0  0  0  0  0  0  0  0
    7.1222    0.0020   18.5275 C   0  0  0  0  0  0  0  0  0  0  0  0
    8.0504   -0.5239   18.2951 H   0  0  0  0  0  0  0  0  0  0  0  0
    4.9584    1.8384   16.9298 H   0  0  0  0  0  0  0  0  0  0  0  0
    3.8590    1.8639   19.1663 H   0  0  0  0  0  0  0  0  0  0  0  0
    4.9772    0.6381   21.0783 H   0  0  0  0  0  0  0  0  0  0  0  0
    6.6951   -1.0730   21.7261 H   0  0  0  0  0  0  0  0  0  0  0  0
    8.0531   -1.4273   20.6479 H   0  0  0  0  0  0  0  0  0  0  0  0
    9.5174    0.6113   21.3576 N   0  0  0  0  0  0  0  0  0  0  0  0
    9.9074    1.5336   22.2217 C   0  0  0  0  0  0  0  0  0  0  0  0
   11.2432    2.1055   22.3244 C   0  0  0  0  0  0  0  0  0  0  0  0
   11.4406    3.4799   22.4133 C   0  0  0  0  0  0  0  0  0  0  0  0
   12.6291    4.0605   22.6699 N   0  0  0  0  0  0  0  0  0  0  0  0
   13.7055    3.2895   22.7990 C   0  0  0  0  0  0  0  0  0  0  0  0
   13.6280    1.8875   22.6404 C   0  0  0  0  0  0  0  0  0  0  0  0
   12.3840    1.2778   22.3812 C   0  0  0  0  0  0  0  0  0  0  0  0
   12.6201   -0.1258   22.2463 C   0  0  0  0  0  0  0  0  0  0  0  0
   13.9630   -0.3206   22.3936 C   0  0  0  0  0  0  0  0  0  0  0  0
   14.5759    0.8867   22.6480 N   0  0  0  0  0  0  0  0  0  0  0  0
   15.5724    1.0457   22.6052 H   0  0  0  0  0  0  0  0  0  0  0  0
   14.5338   -1.2378   22.3703 H   0  0  0  0  0  0  0  0  0  0  0  0
   11.8342   -0.8467   22.0648 H   0  0  0  0  0  0  0  0  0  0  0  0
   14.6373    3.8107   23.0061 H   0  0  0  0  0  0  0  0  0  0  0  0
   10.6121    4.1755   22.3084 H   0  0  0  0  0  0  0  0  0  0  0  0
    9.8484    2.9995   24.5056 H   0  0  0  0  0  0  0  0  0  0  0  0
    8.3658    2.2231   25.0503 H   0  0  0  0  0  0  0  0  0  0  0  0
    6.9972    3.7236   23.6377 H   0  0  0  0  0  0  0  0  0  0  0  0
    8.4456    4.4597   22.9495 H   0  0  0  0  0  0  0  0  0  0  0  0
    9.0596    5.9653   24.8278 N   0  0  0  0  0  0  0  0  0  0  0  0
    9.1921    6.8667   25.8064 C   0  0  0  0  0  0  0  0  0  0  0  0
    9.9505    7.6297   25.6393 H   0  0  0  0  0  0  0  0  0  0  0  0
    6.5948    4.1041   26.1798 H   0  0  0  0  0  0  0  0  0  0  0  0
    6.8511    5.8013   28.0322 H   0  0  0  0  0  0  0  0  0  0  0  0
    8.5842    7.6267   27.7241 H   0  0  0  0  0  0  0  0  0  0  0  0
  1  2  2  0
  2  3  1  0
  3  4  2  0
  4  5  1  0
  5  6  1  0
  6  7  1  0
  7  8  1  0
  8  9  2  0
  9 10  1  0
 10 11  1  0
 11 12  2  0
 12 13  1  0
 13 14  2  0
 14 15  1  0
 15 16  2  0
 16 17  1  0
 14 18  1  0
 13 19  1  0
 12 20  1  0
 10 21  1  0
 10 22  1  0
  9 23  1  0
 23 24  2  0
 24 25  1  0
 25 26  2  0
 26 27  1  0
 27 28  2  0
 28 29  1  0
 29 30  2  0
 30 31  1  0
 31 32  2  0
 32 33  1  0
 33 34  1  0
 32 35  1  0
 31 36  1  0
 28 37  1  0
 26 38  1  0
  6 39  1  0
  6 40  1  0
  5 41  1  0
  5 42  1  0
  4 43  1  0
 43 44  2  0
 44 45  1  0
  3 46  1  0
  2 47  1  0
  1 48  1  0
 44  1  1  0
 24  7  1  0
 30 25  1  0
 16 11  1  0
 33 29  1  0
M  END
>  <cnnaffinity>  (1) 
-6.85091

>  <filename>  (1) 
[H]c1nc(C([H])([H])C([H])([H])n2nc(C([H])([H])c3c([H])nc([H])c([H])c3[H])nc2-c2c([H])nc([H])c3c2c([H])c([H])n3[H])c([H])c([H])c1[H]

$$$$
