
     RDKit          3D

 49 53  0  0  0  0  0  0  0  0999 V2000
    8.5227    4.9860   26.2811 C   0  0  0  0  0  0  0  0  0  0  0  0
    8.1304    3.5111   26.1926 C   0  0  0  0  0  0  0  0  0  0  0  0
    7.5089    3.1021   24.8558 C   0  0  0  0  0  0  0  0  0  0  0  0
    8.7503    2.8953   23.9837 C   0  0  0  0  0  0  0  0  0  0  0  0
    8.6287    1.9790   22.8186 C   0  0  0  0  0  0  0  0  0  0  0  0
    7.6802    1.0984   22.5688 N   0  0  0  0  0  0  0  0  0  0  0  0
    8.1628    0.4148   21.5036 C   0  0  0  0  0  0  0  0  0  0  0  0
    7.4107   -0.6933   20.8263 C   0  0  0  0  0  0  0  0  0  0  0  0
    6.6041   -0.1165   19.6771 C   0  0  0  0  0  0  0  0  0  0  0  0
    5.4296    0.5850   19.9687 C   0  0  0  0  0  0  0  0  0  0  0  0
    4.7985    1.2966   18.9489 C   0  0  0  0  0  0  0  0  0  0  0  0
    5.3764    1.2904   17.6752 C   0  0  0  0  0  0  0  0  0  0  0  0
    6.4889    0.6070   17.3669 N   0  0  0  0  0  0  0  0  0  0  0  0
    7.0803   -0.0759   18.3564 C   0  0  0  0  0  0  0  0  0  0  0  0
    7.9946   -0.6095   18.0900 H   0  0  0  0  0  0  0  0  0  0  0  0
    4.9291    1.8697   16.8705 H   0  0  0  0  0  0  0  0  0  0  0  0
    3.9020    1.8751   19.1382 H   0  0  0  0  0  0  0  0  0  0  0  0
    5.0517    0.5974   20.9938 H   0  0  0  0  0  0  0  0  0  0  0  0
    6.7637   -1.1646   21.5739 H   0  0  0  0  0  0  0  0  0  0  0  0
    8.1251   -1.4454   20.4790 H   0  0  0  0  0  0  0  0  0  0  0  0
    9.3309    0.8205   21.0559 N   0  0  0  0  0  0  0  0  0  0  0  0
    9.6583    1.8211   21.9326 N   0  0  0  0  0  0  0  0  0  0  0  0
   11.0105    2.2445   22.1159 C   0  0  0  0  0  0  0  0  0  0  0  0
   11.3254    3.5808   22.3180 C   0  0  0  0  0  0  0  0  0  0  0  0
   12.6630    3.9314   22.6052 C   0  0  0  0  0  0  0  0  0  0  0  0
   13.6572    3.0780   22.6759 N   0  0  0  0  0  0  0  0  0  0  0  0
   13.3592    1.7488   22.4893 C   0  0  0  0  0  0  0  0  0  0  0  0
   14.4508    0.8365   22.5684 C   0  0  0  0  0  0  0  0  0  0  0  0
   14.2413   -0.5196   22.5671 C   0  0  0  0  0  0  0  0  0  0  0  0
   12.9306   -1.0225   22.3709 C   0  0  0  0  0  0  0  0  0  0  0  0
   11.8641   -0.1723   22.1923 C   0  0  0  0  0  0  0  0  0  0  0  0
   12.0447    1.2522   22.2386 C   0  0  0  0  0  0  0  0  0  0  0  0
   10.8686   -0.5664   22.0220 H   0  0  0  0  0  0  0  0  0  0  0  0
   12.7517   -2.0958   22.3855 H   0  0  0  0  0  0  0  0  0  0  0  0
   15.0441   -1.2335   22.7503 H   0  0  0  0  0  0  0  0  0  0  0  0
   15.4178    1.3237   22.5886 H   0  0  0  0  0  0  0  0  0  0  0  0
   12.8996    4.9790   22.8074 H   0  0  0  0  0  0  0  0  0  0  0  0
   10.5785    4.3652   22.2796 H   0  0  0  0  0  0  0  0  0  0  0  0
    9.8118    2.4172   25.0113 C   0  0  0  0  0  0  0  0  0  0  0  0
    9.2809    2.6822   26.2880 O   0  0  0  0  0  0  0  0  0  0  0  0
   10.0203    1.3414   24.9424 H   0  0  0  0  0  0  0  0  0  0  0  0
   10.7671    2.9384   24.8608 H   0  0  0  0  0  0  0  0  0  0  0  0
    9.0573    3.8712   23.5959 H   0  0  0  0  0  0  0  0  0  0  0  0
    6.9789    2.1528   24.9746 H   0  0  0  0  0  0  0  0  0  0  0  0
    6.8094    3.8419   24.4550 H   0  0  0  0  0  0  0  0  0  0  0  0
    7.4942    3.2496   27.0477 H   0  0  0  0  0  0  0  0  0  0  0  0
    9.0483    5.1773   27.2202 H   0  0  0  0  0  0  0  0  0  0  0  0
    9.1960    5.2744   25.4661 H   0  0  0  0  0  0  0  0  0  0  0  0
    7.6362    5.6273   26.2325 H   0  0  0  0  0  0  0  0  0  0  0  0
  1  2  1  0
  2  3  1  0
  3  4  1  0
  4  5  1  0
  5  6  2  0
  6  7  1  0
  7  8  1  0
  8  9  1  0
  9 10  2  0
 10 11  1  0
 11 12  2  0
 12 13  1  0
 13 14  2  0
 14 15  1  0
 12 16  1  0
 11 17  1  0
 10 18  1  0
  8 19  1  0
  8 20  1  0
  7 21  2  0
 21 22  1  0
 22 23  1  0
 23 24  2  0
 24 25  1  0
 25 26  2  0
 26 27  1  0
 27 28  2  0
 28 29  1  0
 29 30  2  0
 30 31  1  0
 31 32  2  0
 31 33  1  0
 30 34  1  0
 29 35  1  0
 28 36  1  0
 25 37  1  0
 24 38  1  0
  4 39  1  0
 39 40  1  0
 39 41  1  0
 39 42  1  0
  4 43  1  0
  3 44  1  0
  3 45  1  0
  2 46  1  0
  1 47  1  0
  1 48  1  0
  1 49  1  0
 40  2  1  0
 22  5  1  0
 32 23  1  0
 14  9  1  0
 32 27  1  0
M  END
>  <cnnaffinity>  (1) 
-6.58616

>  <filename>  (1) 
[H]c1nc([H])c(C([H])([H])c2nc(C3([H])C([H])([H])OC([H])(C([H])([H])[H])C3([H])[H])n(-c3c([H])c([H])nc4c([H])c([H])c([H])c([H])c34)n2)c([H])c1[H]

$$$$
