
     RDKit          3D

 38 40  0  0  0  0  0  0  0  0999 V2000
    7.9328   -5.0121   24.3218 C   0  0  0  0  0  0  0  0  0  0  0  0
    6.7311   -4.1896   23.8267 C   0  0  0  0  0  0  0  0  0  0  0  0
    6.6028   -2.8299   24.5449 C   0  0  0  0  0  0  0  0  0  0  0  0
    7.7504   -1.8420   24.2643 C   0  0  0  0  0  0  0  0  0  0  0  0
    7.9085   -1.5015   22.8261 C   0  0  0  0  0  0  0  0  0  0  0  0
    8.8561   -1.8622   22.0283 N   0  0  0  0  0  0  0  0  0  0  0  0
    8.5334   -1.3474   20.7795 N   0  0  0  0  0  0  0  0  0  0  0  0
    7.4149   -0.7137   20.9214 C   0  0  0  0  0  0  0  0  0  0  0  0
    6.6469    0.0128   19.9098 C   0  0  0  0  0  0  0  0  0  0  0  0
    5.4254    0.6568   20.1714 C   0  0  0  0  0  0  0  0  0  0  0  0
    4.8022    1.3102   19.1093 C   0  0  0  0  0  0  0  0  0  0  0  0
    5.4050    1.2890   17.8441 C   0  0  0  0  0  0  0  0  0  0  0  0
    6.5664    0.6716   17.5853 N   0  0  0  0  0  0  0  0  0  0  0  0
    7.1693    0.0595   18.6071 C   0  0  0  0  0  0  0  0  0  0  0  0
    8.1160   -0.4267   18.3859 H   0  0  0  0  0  0  0  0  0  0  0  0
    4.9285    1.7792   16.9975 H   0  0  0  0  0  0  0  0  0  0  0  0
    3.8706    1.8454   19.2525 H   0  0  0  0  0  0  0  0  0  0  0  0
    4.9860    0.6451   21.1726 H   0  0  0  0  0  0  0  0  0  0  0  0
    6.9545   -0.7727   22.1951 O   0  0  0  0  0  0  0  0  0  0  0  0
    7.6046   -0.9252   24.8454 H   0  0  0  0  0  0  0  0  0  0  0  0
    8.7058   -2.2643   24.5797 H   0  0  0  0  0  0  0  0  0  0  0  0
    5.6522   -2.3693   24.2607 H   0  0  0  0  0  0  0  0  0  0  0  0
    6.5319   -3.0010   25.6258 H   0  0  0  0  0  0  0  0  0  0  0  0
    5.4316   -4.9744   23.9463 C   0  0  0  0  0  0  0  0  0  0  0  0
    4.6631   -5.2666   22.8080 C   0  0  0  0  0  0  0  0  0  0  0  0
    3.4669   -5.9865   22.9121 C   0  0  0  0  0  0  0  0  0  0  0  0
    3.0230   -6.4233   24.1652 C   0  0  0  0  0  0  0  0  0  0  0  0
    3.7801   -6.1384   25.3076 C   0  0  0  0  0  0  0  0  0  0  0  0
    4.9737   -5.4203   25.1960 C   0  0  0  0  0  0  0  0  0  0  0  0
    5.5542   -5.2053   26.0918 H   0  0  0  0  0  0  0  0  0  0  0  0
    3.4444   -6.4698   26.2871 H   0  0  0  0  0  0  0  0  0  0  0  0
    2.0934   -6.9809   24.2540 H   0  0  0  0  0  0  0  0  0  0  0  0
    2.8875   -6.2048   22.0176 H   0  0  0  0  0  0  0  0  0  0  0  0
    5.0157   -4.9291   21.8351 H   0  0  0  0  0  0  0  0  0  0  0  0
    6.8903   -3.9855   22.7584 H   0  0  0  0  0  0  0  0  0  0  0  0
    8.8880   -4.5457   24.0562 H   0  0  0  0  0  0  0  0  0  0  0  0
    7.9104   -5.1323   25.4106 H   0  0  0  0  0  0  0  0  0  0  0  0
    7.9189   -6.0173   23.8909 H   0  0  0  0  0  0  0  0  0  0  0  0
  1  2  1  0
  2  3  1  0
  3  4  1  0
  4  5  1  0
  5  6  2  0
  6  7  1  0
  7  8  2  0
  8  9  1  0
  9 10  2  0
 10 11  1  0
 11 12  2  0
 12 13  1  0
 13 14  2  0
 14 15  1  0
 12 16  1  0
 11 17  1  0
 10 18  1  0
  8 19  1  0
  4 20  1  0
  4 21  1  0
  3 22  1  0
  3 23  1  0
  2 24  1  0
 24 25  2  0
 25 26  1  0
 26 27  2  0
 27 28  1  0
 28 29  2  0
 29 30  1  0
 28 31  1  0
 27 32  1  0
 26 33  1  0
 25 34  1  0
  2 35  1  0
  1 36  1  0
  1 37  1  0
  1 38  1  0
 19  5  1  0
 29 24  1  0
 14  9  1  0
M  END
>  <cnnaffinity>  (1) 
-5.41018

>  <filename>  (1) 
[H]c1nc([H])c(-c2nnc(C([H])([H])C([H])([H])C([H])(c3c([H])c([H])c([H])c([H])c3[H])C([H])([H])[H])o2)c([H])c1[H]

$$$$
