
     RDKit          3D

 29 30  0  0  0  0  0  0  0  0999 V2000
    5.0745    1.7338   17.0554 H   0  0  0  0  0  0  0  0  0  0  0  0
    5.4722    1.1805   17.9052 C   0  0  0  0  0  0  0  0  0  0  0  0
    6.6167    0.5157   17.6822 N   0  0  0  0  0  0  0  0  0  0  0  0
    7.1582   -0.1387   18.7113 C   0  0  0  0  0  0  0  0  0  0  0  0
    8.0991   -0.6518   18.5108 H   0  0  0  0  0  0  0  0  0  0  0  0
    6.5957   -0.1814   19.9918 C   0  0  0  0  0  0  0  0  0  0  0  0
    7.4058   -0.7567   21.0852 C   0  0  0  0  0  0  0  0  0  0  0  0
    9.0188   -0.5362   21.2188 S   0  0  0  0  0  0  0  0  0  0  0  0
    6.7362   -1.4800   22.0438 N   0  0  0  0  0  0  0  0  0  0  0  0
    7.1662   -1.4721   22.9599 H   0  0  0  0  0  0  0  0  0  0  0  0
    5.9015   -2.5631   21.7705 C   0  0  0  0  0  0  0  0  0  0  0  0
    5.6923   -2.9267   20.6309 O   0  0  0  0  0  0  0  0  0  0  0  0
    5.2291   -3.2503   22.9910 C   0  0  0  0  0  0  0  0  0  0  0  0
    5.4764   -2.7873   24.2356 N   0  0  0  0  0  0  0  0  0  0  0  0
    4.6573   -3.1440   25.2393 C   0  0  0  0  0  0  0  0  0  0  0  0
    4.9345   -2.6336   26.6701 C   0  0  0  0  0  0  0  0  0  0  0  0
    3.8478   -2.0027   27.1710 F   0  0  0  0  0  0  0  0  0  0  0  0
    5.9762   -1.8078   26.7838 F   0  0  0  0  0  0  0  0  0  0  0  0
    5.1694   -3.6768   27.4951 F   0  0  0  0  0  0  0  0  0  0  0  0
    3.5545   -3.9925   25.0368 C   0  0  0  0  0  0  0  0  0  0  0  0
    2.8948   -4.2392   25.8616 H   0  0  0  0  0  0  0  0  0  0  0  0
    3.3720   -4.5669   23.7763 C   0  0  0  0  0  0  0  0  0  0  0  0
    2.5373   -5.2468   23.6018 H   0  0  0  0  0  0  0  0  0  0  0  0
    4.2558   -4.2438   22.7473 C   0  0  0  0  0  0  0  0  0  0  0  0
    4.1887   -4.7268   21.7780 H   0  0  0  0  0  0  0  0  0  0  0  0
    5.3642    0.4643   20.1995 C   0  0  0  0  0  0  0  0  0  0  0  0
    4.8694    0.4322   21.1705 H   0  0  0  0  0  0  0  0  0  0  0  0
    4.8085    1.1764   19.1359 C   0  0  0  0  0  0  0  0  0  0  0  0
    3.9010    1.7581   19.2492 H   0  0  0  0  0  0  0  0  0  0  0  0
  1  2  1  0
  2  3  2  0
  3  4  1  0
  4  5  1  0
  4  6  2  0
  6  7  1  0
  7  8  2  0
  7  9  1  0
  9 10  1  0
  9 11  1  0
 11 12  2  0
 11 13  1  0
 13 14  2  0
 14 15  1  0
 15 16  1  0
 16 17  1  0
 16 18  1  0
 16 19  1  0
 15 20  2  0
 20 21  1  0
 20 22  1  0
 22 23  1  0
 22 24  2  0
 24 25  1  0
  6 26  1  0
 26 27  1  0
 26 28  2  0
 28 29  1  0
 28  2  1  0
 24 13  1  0
M  END
>  <cnnaffinity>  (1) 
-5.33595

>  <filename>  (1) 
[H]c1nc([H])c(C(=S)N([H])C(=O)c2nc(C(F)(F)F)c([H])c([H])c2[H])c([H])c1[H]

$$$$
