
     RDKit          3D

 35 37  0  0  0  0  0  0  0  0999 V2000
    5.1562    1.5528   16.8868 H   0  0  0  0  0  0  0  0  0  0  0  0
    5.5602    1.1569   17.8170 C   0  0  0  0  0  0  0  0  0  0  0  0
    6.7505    0.5416   17.7288 N   0  0  0  0  0  0  0  0  0  0  0  0
    7.2797    0.0496   18.8608 C   0  0  0  0  0  0  0  0  0  0  0  0
    8.2371   -0.4551   18.7702 H   0  0  0  0  0  0  0  0  0  0  0  0
    6.6645    0.1402   20.1328 C   0  0  0  0  0  0  0  0  0  0  0  0
    7.2593   -0.3386   21.3108 N   0  0  0  0  0  0  0  0  0  0  0  0
    6.6131   -0.3973   22.1011 H   0  0  0  0  0  0  0  0  0  0  0  0
    8.2668   -1.2993   21.2235 N   0  0  0  0  0  0  0  0  0  0  0  0
    9.4939   -0.9657   21.9368 C   0  0  0  0  0  0  0  0  0  0  0  0
    9.3887   -1.0325   23.0319 H   0  0  0  0  0  0  0  0  0  0  0  0
    9.7736    0.0599   21.6640 H   0  0  0  0  0  0  0  0  0  0  0  0
   10.2947   -1.6450   21.6099 H   0  0  0  0  0  0  0  0  0  0  0  0
    7.8910   -2.6690   21.0174 C   0  0  0  0  0  0  0  0  0  0  0  0
    7.1715   -2.6771   20.1925 H   0  0  0  0  0  0  0  0  0  0  0  0
    8.7900   -3.2280   20.7404 H   0  0  0  0  0  0  0  0  0  0  0  0
    7.2576   -3.3393   22.1240 N   0  0  0  0  0  0  0  0  0  0  0  0
    5.8876   -3.3476   22.3010 C   0  0  0  0  0  0  0  0  0  0  0  0
    5.1113   -2.9072   21.4877 O   0  0  0  0  0  0  0  0  0  0  0  0
    5.6305   -4.0273   23.6096 C   0  0  0  0  0  0  0  0  0  0  0  0
    4.4406   -4.3047   24.2959 C   0  0  0  0  0  0  0  0  0  0  0  0
    3.4700   -4.0102   23.9090 H   0  0  0  0  0  0  0  0  0  0  0  0
    4.5260   -4.9899   25.5135 C   0  0  0  0  0  0  0  0  0  0  0  0
    3.6190   -5.2215   26.0706 H   0  0  0  0  0  0  0  0  0  0  0  0
    5.7723   -5.3927   26.0316 C   0  0  0  0  0  0  0  0  0  0  0  0
    5.8073   -5.9397   26.9748 H   0  0  0  0  0  0  0  0  0  0  0  0
    6.9589   -5.0988   25.3478 C   0  0  0  0  0  0  0  0  0  0  0  0
    7.9140   -5.4163   25.7593 H   0  0  0  0  0  0  0  0  0  0  0  0
    6.8679   -4.3989   24.1359 C   0  0  0  0  0  0  0  0  0  0  0  0
    7.9242   -3.9106   23.1873 C   0  0  0  0  0  0  0  0  0  0  0  0
    9.1286   -3.9848   23.2625 O   0  0  0  0  0  0  0  0  0  0  0  0
    5.4163    0.7872   20.1987 C   0  0  0  0  0  0  0  0  0  0  0  0
    4.8939    0.8716   21.1536 H   0  0  0  0  0  0  0  0  0  0  0  0
    4.8581    1.2976   19.0202 C   0  0  0  0  0  0  0  0  0  0  0  0
    3.9011    1.8147   19.0180 H   0  0  0  0  0  0  0  0  0  0  0  0
  1  2  1  0
  2  3  2  0
  3  4  1  0
  4  5  1  0
  4  6  2  0
  6  7  1  0
  7  8  1  0
  7  9  1  0
  9 10  1  0
 10 11  1  0
 10 12  1  0
 10 13  1  0
  9 14  1  0
 14 15  1  0
 14 16  1  0
 14 17  1  0
 17 18  1  0
 18 19  2  0
 18 20  1  0
 20 21  2  0
 21 22  1  0
 21 23  1  0
 23 24  1  0
 23 25  2  0
 25 26  1  0
 25 27  1  0
 27 28  1  0
 27 29  2  0
 29 30  1  0
 30 31  2  0
  6 32  1  0
 32 33  1  0
 32 34  2  0
 34 35  1  0
 34  2  1  0
 30 17  1  0
 29 20  1  0
M  END
>  <cnnaffinity>  (1) 
-5.05421

>  <filename>  (1) 
[H]c1nc([H])c(N([H])N(C([H])([H])[H])C([H])([H])N2C(=O)c3c([H])c([H])c([H])c([H])c3C2=O)c([H])c1[H]

$$$$
