
     RDKit          3D

 29 31  0  0  0  0  0  0  0  0999 V2000
    4.9411    1.7985   16.9753 H   0  0  0  0  0  0  0  0  0  0  0  0
    5.3993    1.3001   17.8283 C   0  0  0  0  0  0  0  0  0  0  0  0
    6.5638    0.6760   17.5920 N   0  0  0  0  0  0  0  0  0  0  0  0
    7.1595    0.0646   18.6173 C   0  0  0  0  0  0  0  0  0  0  0  0
    8.0968   -0.4421   18.3930 H   0  0  0  0  0  0  0  0  0  0  0  0
    6.6423    0.0543   19.9199 C   0  0  0  0  0  0  0  0  0  0  0  0
    7.3755   -0.6794   20.9541 C   0  0  0  0  0  0  0  0  0  0  0  0
    7.9193   -1.8512   20.7844 N   0  0  0  0  0  0  0  0  0  0  0  0
    8.3864   -2.2847   22.0017 N   0  0  0  0  0  0  0  0  0  0  0  0
    8.1277   -1.3564   22.8743 C   0  0  0  0  0  0  0  0  0  0  0  0
    8.3826   -1.3963   23.9261 H   0  0  0  0  0  0  0  0  0  0  0  0
    7.5072   -0.2926   22.2673 N   0  0  0  0  0  0  0  0  0  0  0  0
    7.2113    0.9383   22.8647 C   0  0  0  0  0  0  0  0  0  0  0  0
    6.8014    0.8523   24.1262 N   0  0  0  0  0  0  0  0  0  0  0  0
    6.4670    1.9896   24.7582 C   0  0  0  0  0  0  0  0  0  0  0  0
    5.9477    1.9427   26.2199 C   0  0  0  0  0  0  0  0  0  0  0  0
    5.8253    0.7208   26.7415 F   0  0  0  0  0  0  0  0  0  0  0  0
    4.7369    2.5389   26.3117 F   0  0  0  0  0  0  0  0  0  0  0  0
    6.7729    2.6446   27.0293 F   0  0  0  0  0  0  0  0  0  0  0  0
    6.6012    3.2464   24.1491 C   0  0  0  0  0  0  0  0  0  0  0  0
    6.3465    4.1374   24.7028 H   0  0  0  0  0  0  0  0  0  0  0  0
    7.0825    3.3230   22.8342 C   0  0  0  0  0  0  0  0  0  0  0  0
    7.2030    4.2905   22.3437 H   0  0  0  0  0  0  0  0  0  0  0  0
    7.3968    2.1423   22.1671 C   0  0  0  0  0  0  0  0  0  0  0  0
    7.7569    2.1128   21.1418 H   0  0  0  0  0  0  0  0  0  0  0  0
    5.4042    0.6738   20.1479 C   0  0  0  0  0  0  0  0  0  0  0  0
    4.9541    0.6543   21.1418 H   0  0  0  0  0  0  0  0  0  0  0  0
    4.7829    1.3207   19.0838 C   0  0  0  0  0  0  0  0  0  0  0  0
    3.8491    1.8514   19.2202 H   0  0  0  0  0  0  0  0  0  0  0  0
  1  2  1  0
  2  3  2  0
  3  4  1  0
  4  5  1  0
  4  6  2  0
  6  7  1  0
  7  8  2  0
  8  9  1  0
  9 10  2  0
 10 11  1  0
 10 12  1  0
 12 13  1  0
 13 14  2  0
 14 15  1  0
 15 16  1  0
 16 17  1  0
 16 18  1  0
 16 19  1  0
 15 20  2  0
 20 21  1  0
 20 22  1  0
 22 23  1  0
 22 24  2  0
 24 25  1  0
  6 26  1  0
 26 27  1  0
 26 28  2  0
 28 29  1  0
 28  2  1  0
 12  7  1  0
 24 13  1  0
M  END
>  <cnnaffinity>  (1) 
-5.1863

>  <filename>  (1) 
[H]c1nc([H])c(-c2nnc([H])n2-c2nc(C(F)(F)F)c([H])c([H])c2[H])c([H])c1[H]

$$$$
