
     RDKit          3D

 41 44  0  0  0  0  0  0  0  0999 V2000
   12.3087   -2.3548   22.4063 F   0  0  0  0  0  0  0  0  0  0  0  0
   11.2219   -1.5649   22.3460 C   0  0  0  0  0  0  0  0  0  0  0  0
   11.4380   -0.6916   21.3572 F   0  0  0  0  0  0  0  0  0  0  0  0
   11.1138   -0.8840   23.5062 F   0  0  0  0  0  0  0  0  0  0  0  0
   10.0148   -2.4614   22.1324 C   0  0  0  0  0  0  0  0  0  0  0  0
    8.7471   -1.7843   22.0186 N   0  0  0  0  0  0  0  0  0  0  0  0
    8.4463   -1.2923   20.8004 N   0  0  0  0  0  0  0  0  0  0  0  0
    7.3061   -0.6698   21.0016 C   0  0  0  0  0  0  0  0  0  0  0  0
    6.6145    0.0143   19.9220 C   0  0  0  0  0  0  0  0  0  0  0  0
    5.4008    0.6700   20.1486 C   0  0  0  0  0  0  0  0  0  0  0  0
    4.8007    1.3144   19.0747 C   0  0  0  0  0  0  0  0  0  0  0  0
    5.4315    1.2834   17.8267 C   0  0  0  0  0  0  0  0  0  0  0  0
    6.5952    0.6487   17.6001 N   0  0  0  0  0  0  0  0  0  0  0  0
    7.1747    0.0327   18.6343 C   0  0  0  0  0  0  0  0  0  0  0  0
    8.1261   -0.4613   18.4245 H   0  0  0  0  0  0  0  0  0  0  0  0
    4.9846    1.7884   16.9736 H   0  0  0  0  0  0  0  0  0  0  0  0
    3.8668    1.8486   19.2038 H   0  0  0  0  0  0  0  0  0  0  0  0
    4.9786    0.6660   21.1549 H   0  0  0  0  0  0  0  0  0  0  0  0
    6.8566   -0.7221   22.2840 N   0  0  0  0  0  0  0  0  0  0  0  0
    7.7855   -1.4223   22.9049 C   0  0  0  0  0  0  0  0  0  0  0  0
    7.7997   -1.9046   24.3155 C   0  0  0  0  0  0  0  0  0  0  0  0
    7.1926   -3.3090   24.4713 C   0  0  0  0  0  0  0  0  0  0  0  0
    5.7039   -3.3824   24.0571 C   0  0  0  0  0  0  0  0  0  0  0  0
    5.0300   -3.8612   25.3146 C   0  0  0  0  0  0  0  0  0  0  0  0
    3.6949   -4.0976   25.6433 C   0  0  0  0  0  0  0  0  0  0  0  0
    3.3833   -4.5459   26.9359 C   0  0  0  0  0  0  0  0  0  0  0  0
    4.3951   -4.7422   27.8828 C   0  0  0  0  0  0  0  0  0  0  0  0
    5.7363   -4.4777   27.5683 C   0  0  0  0  0  0  0  0  0  0  0  0
    6.0173   -4.0204   26.2880 C   0  0  0  0  0  0  0  0  0  0  0  0
    7.2630   -3.6709   25.8601 O   0  0  0  0  0  0  0  0  0  0  0  0
    6.5479   -4.6127   28.2733 H   0  0  0  0  0  0  0  0  0  0  0  0
    4.1442   -5.0948   28.8817 H   0  0  0  0  0  0  0  0  0  0  0  0
    2.3454   -4.7340   27.2081 H   0  0  0  0  0  0  0  0  0  0  0  0
    2.9044   -3.9267   24.9139 H   0  0  0  0  0  0  0  0  0  0  0  0
    5.3635   -2.3850   23.7936 H   0  0  0  0  0  0  0  0  0  0  0  0
    5.5437   -4.0047   23.1711 H   0  0  0  0  0  0  0  0  0  0  0  0
    7.7983   -4.0534   23.9430 H   0  0  0  0  0  0  0  0  0  0  0  0
    8.8183   -1.9013   24.7199 H   0  0  0  0  0  0  0  0  0  0  0  0
    7.2077   -1.2267   24.9322 H   0  0  0  0  0  0  0  0  0  0  0  0
   10.1527   -2.9352   21.1703 H   0  0  0  0  0  0  0  0  0  0  0  0
    9.9961   -3.2197   22.9168 H   0  0  0  0  0  0  0  0  0  0  0  0
  1  2  1  0
  2  3  1  0
  2  4  1  0
  2  5  1  0
  5  6  1  0
  6  7  1  0
  7  8  2  0
  8  9  1  0
  9 10  2  0
 10 11  1  0
 11 12  2  0
 12 13  1  0
 13 14  2  0
 14 15  1  0
 12 16  1  0
 11 17  1  0
 10 18  1  0
  8 19  1  0
 19 20  2  0
 20 21  1  0
 21 22  1  0
 22 23  1  0
 23 24  1  0
 24 25  2  0
 25 26  1  0
 26 27  2  0
 27 28  1  0
 28 29  2  0
 29 30  1  0
 28 31  1  0
 27 32  1  0
 26 33  1  0
 25 34  1  0
 23 35  1  0
 23 36  1  0
 22 37  1  0
 21 38  1  0
 21 39  1  0
  5 40  1  0
  5 41  1  0
 20  6  1  0
 30 22  1  0
 14  9  1  0
 29 24  1  0
M  END
>  <cnnaffinity>  (1) 
-6.13775

>  <filename>  (1) 
[H]c1nc([H])c(-c2nc(C([H])([H])C3([H])Oc4c([H])c([H])c([H])c([H])c4C3([H])[H])n(C([H])([H])C(F)(F)F)n2)c([H])c1[H]

$$$$
