
     RDKit          3D

 27 29  0  0  0  0  0  0  0  0999 V2000
    5.7203   -2.1499   21.5855 O   0  0  0  0  0  0  0  0  0  0  0  0
    6.7917   -1.6177   21.8145 C   0  0  0  0  0  0  0  0  0  0  0  0
    7.3715   -0.7107   20.9344 N   0  0  0  0  0  0  0  0  0  0  0  0
    6.6999   -0.0254   19.8710 C   0  0  0  0  0  0  0  0  0  0  0  0
    5.4827    0.6203   20.1233 C   0  0  0  0  0  0  0  0  0  0  0  0
    4.8464    1.2980   19.0778 C   0  0  0  0  0  0  0  0  0  0  0  0
    5.4379    1.2987   17.8112 C   0  0  0  0  0  0  0  0  0  0  0  0
    6.6054    0.6902   17.5445 N   0  0  0  0  0  0  0  0  0  0  0  0
    7.2244    0.0618   18.5546 C   0  0  0  0  0  0  0  0  0  0  0  0
    8.1688   -0.4217   18.3014 H   0  0  0  0  0  0  0  0  0  0  0  0
    4.9526    1.8050   16.9823 H   0  0  0  0  0  0  0  0  0  0  0  0
    3.9053    1.8094   19.2397 H   0  0  0  0  0  0  0  0  0  0  0  0
    5.0611    0.5814   21.1272 H   0  0  0  0  0  0  0  0  0  0  0  0
    8.3371   -0.4759   21.1349 H   0  0  0  0  0  0  0  0  0  0  0  0
    7.6107   -1.9489   23.0872 C   0  0  0  0  0  0  0  0  0  0  0  0
    8.9097   -1.7752   23.1045 N   0  0  0  0  0  0  0  0  0  0  0  0
    9.5921   -2.2614   24.5500 S   0  0  0  0  0  0  0  0  0  0  0  0
    8.0767   -2.7290   25.2625 C   0  0  0  0  0  0  0  0  0  0  0  0
    7.8079   -3.2676   26.5341 C   0  0  0  0  0  0  0  0  0  0  0  0
    6.4829   -3.5064   26.8772 C   0  0  0  0  0  0  0  0  0  0  0  0
    5.4348   -3.2450   25.9625 C   0  0  0  0  0  0  0  0  0  0  0  0
    5.7037   -2.7770   24.6835 C   0  0  0  0  0  0  0  0  0  0  0  0
    7.0453   -2.4936   24.3260 C   0  0  0  0  0  0  0  0  0  0  0  0
    4.9185   -2.6594   23.9376 H   0  0  0  0  0  0  0  0  0  0  0  0
    4.4068   -3.4203   26.2737 H   0  0  0  0  0  0  0  0  0  0  0  0
    6.2506   -3.9250   27.8542 H   0  0  0  0  0  0  0  0  0  0  0  0
    8.6125   -3.5232   27.2188 H   0  0  0  0  0  0  0  0  0  0  0  0
  1  2  2  0
  2  3  1  0
  3  4  1  0
  4  5  2  0
  5  6  1  0
  6  7  2  0
  7  8  1  0
  8  9  2  0
  9 10  1  0
  7 11  1  0
  6 12  1  0
  5 13  1  0
  3 14  1  0
  2 15  1  0
 15 16  2  0
 16 17  1  0
 17 18  1  0
 18 19  2  0
 19 20  1  0
 20 21  2  0
 21 22  1  0
 22 23  2  0
 22 24  1  0
 21 25  1  0
 20 26  1  0
 19 27  1  0
  9  4  1  0
 23 15  1  0
 23 18  1  0
M  END
>  <cnnaffinity>  (1) 
-4.94617

>  <filename>  (1) 
[H]c1nc([H])c(N([H])C(=O)c2nsc3c([H])c([H])c([H])c([H])c23)c([H])c1[H]

$$$$
