
     RDKit          3D

 35 38  0  0  0  0  0  0  0  0999 V2000
    8.9303    2.7908   24.0859 C   0  0  0  0  0  0  0  0  0  0  0  0
    8.8505    1.8406   22.9672 N   0  0  0  0  0  0  0  0  0  0  0  0
    7.7495    1.1280   22.6323 N   0  0  0  0  0  0  0  0  0  0  0  0
    8.1927    0.3229   21.6943 C   0  0  0  0  0  0  0  0  0  0  0  0
    7.3316   -0.6793   20.9607 C   0  0  0  0  0  0  0  0  0  0  0  0
    6.5928   -0.0311   19.8062 C   0  0  0  0  0  0  0  0  0  0  0  0
    5.3945    0.6327   20.0528 C   0  0  0  0  0  0  0  0  0  0  0  0
    4.7949    1.3097   18.9939 C   0  0  0  0  0  0  0  0  0  0  0  0
    5.3885    1.2929   17.7266 C   0  0  0  0  0  0  0  0  0  0  0  0
    6.5226    0.6151   17.4706 N   0  0  0  0  0  0  0  0  0  0  0  0
    7.1106   -0.0302   18.4951 C   0  0  0  0  0  0  0  0  0  0  0  0
    8.0411   -0.5575   18.3078 H   0  0  0  0  0  0  0  0  0  0  0  0
    4.9171    1.8510   16.9238 H   0  0  0  0  0  0  0  0  0  0  0  0
    3.8823    1.8713   19.1498 H   0  0  0  0  0  0  0  0  0  0  0  0
    4.9611    0.6358   21.0522 H   0  0  0  0  0  0  0  0  0  0  0  0
    7.9681   -1.4857   20.5877 H   0  0  0  0  0  0  0  0  0  0  0  0
    6.6129   -1.1133   21.6633 H   0  0  0  0  0  0  0  0  0  0  0  0
    9.5475    0.4576   21.4177 N   0  0  0  0  0  0  0  0  0  0  0  0
    9.9306    1.4244   22.2114 C   0  0  0  0  0  0  0  0  0  0  0  0
   11.3000    1.9782   22.3750 C   0  0  0  0  0  0  0  0  0  0  0  0
   12.4237    1.1569   22.4881 C   0  0  0  0  0  0  0  0  0  0  0  0
   12.6522   -0.2787   22.4466 C   0  0  0  0  0  0  0  0  0  0  0  0
   13.9214   -0.5752   22.6217 N   0  0  0  0  0  0  0  0  0  0  0  0
   14.5218    0.6418   22.7865 N   0  0  0  0  0  0  0  0  0  0  0  0
   13.6561    1.7062   22.7225 C   0  0  0  0  0  0  0  0  0  0  0  0
   13.8966    3.0155   22.8216 N   0  0  0  0  0  0  0  0  0  0  0  0
   12.8567    3.8449   22.6727 C   0  0  0  0  0  0  0  0  0  0  0  0
   13.1885    5.7309   22.7164 Br  0  0  0  0  0  0  0  0  0  0  0  0
   11.5501    3.3615   22.4828 C   0  0  0  0  0  0  0  0  0  0  0  0
   10.7511    4.0862   22.3842 H   0  0  0  0  0  0  0  0  0  0  0  0
   15.5011    0.7786   22.9898 H   0  0  0  0  0  0  0  0  0  0  0  0
   11.8804   -1.0257   22.2970 H   0  0  0  0  0  0  0  0  0  0  0  0
    8.6803    3.8004   23.7468 H   0  0  0  0  0  0  0  0  0  0  0  0
    8.2377    2.4965   24.8805 H   0  0  0  0  0  0  0  0  0  0  0  0
    9.9427    2.8004   24.5047 H   0  0  0  0  0  0  0  0  0  0  0  0
  1  2  1  0
  2  3  1  0
  3  4  2  0
  4  5  1  0
  5  6  1  0
  6  7  2  0
  7  8  1  0
  8  9  2  0
  9 10  1  0
 10 11  2  0
 11 12  1  0
  9 13  1  0
  8 14  1  0
  7 15  1  0
  5 16  1  0
  5 17  1  0
  4 18  1  0
 18 19  2  0
 19 20  1  0
 20 21  2  0
 21 22  1  0
 22 23  2  0
 23 24  1  0
 24 25  1  0
 25 26  2  0
 26 27  1  0
 27 28  1  0
 27 29  2  0
 29 30  1  0
 24 31  1  0
 22 32  1  0
  1 33  1  0
  1 34  1  0
  1 35  1  0
 19  2  1  0
 29 20  1  0
 11  6  1  0
 25 21  1  0
M  END
>  <cnnaffinity>  (1) 
-6.42329

>  <filename>  (1) 
[H]c1nc([H])c(C([H])([H])c2nc(-c3c([H])c(Br)nc4c3c([H])nn4[H])n(C([H])([H])[H])n2)c([H])c1[H]

$$$$
