
     RDKit          3D

 40 42  0  0  0  0  0  0  0  0999 V2000
    6.5901   -1.3652   22.2179 O   0  0  0  0  0  0  0  0  0  0  0  0
    7.5229   -0.8957   21.2233 S   0  0  0  0  0  0  0  0  0  0  0  0
    8.4862   -1.7376   20.5501 O   0  0  0  0  0  0  0  0  0  0  0  0
    8.3817    0.2200   22.0431 N   0  0  0  0  0  0  0  0  0  0  0  0
    9.3244    1.1221   21.4175 C   0  0  0  0  0  0  0  0  0  0  0  0
   10.5738    1.2174   22.3072 C   0  0  0  0  0  0  0  0  0  0  0  0
   10.3873    2.1448   23.5054 C   0  0  0  0  0  0  0  0  0  0  0  0
    9.8899    3.4326   23.0374 N   0  0  0  0  0  0  0  0  0  0  0  0
   10.3698    4.6173   23.5732 C   0  0  0  0  0  0  0  0  0  0  0  0
    9.5185    5.5870   24.1079 C   0  0  0  0  0  0  0  0  0  0  0  0
   10.0820    6.6936   24.7228 C   0  0  0  0  0  0  0  0  0  0  0  0
   11.3992    6.9221   24.7927 N   0  0  0  0  0  0  0  0  0  0  0  0
   12.2017    6.0236   24.2108 C   0  0  0  0  0  0  0  0  0  0  0  0
   11.7494    4.8665   23.5961 C   0  0  0  0  0  0  0  0  0  0  0  0
   12.4312    4.1757   23.1228 H   0  0  0  0  0  0  0  0  0  0  0  0
   13.2692    6.2339   24.2642 H   0  0  0  0  0  0  0  0  0  0  0  0
    9.4453    7.4402   25.1958 H   0  0  0  0  0  0  0  0  0  0  0  0
    8.4479    5.4462   24.0778 H   0  0  0  0  0  0  0  0  0  0  0  0
    8.5609    3.3357   22.4482 C   0  0  0  0  0  0  0  0  0  0  0  0
    8.6463    2.4736   21.1883 C   0  0  0  0  0  0  0  0  0  0  0  0
    9.2186    3.0281   20.4592 H   0  0  0  0  0  0  0  0  0  0  0  0
    7.6484    2.3400   20.7593 H   0  0  0  0  0  0  0  0  0  0  0  0
    8.2002    4.3372   22.1798 H   0  0  0  0  0  0  0  0  0  0  0  0
    7.8365    2.8999   23.1638 H   0  0  0  0  0  0  0  0  0  0  0  0
   11.3385    2.2883   24.0316 H   0  0  0  0  0  0  0  0  0  0  0  0
    9.6857    1.7053   24.2412 H   0  0  0  0  0  0  0  0  0  0  0  0
   10.8405    0.2152   22.6515 H   0  0  0  0  0  0  0  0  0  0  0  0
   11.4155    1.5850   21.7120 H   0  0  0  0  0  0  0  0  0  0  0  0
    9.6388    0.7031   20.4522 H   0  0  0  0  0  0  0  0  0  0  0  0
    7.7095    0.5923   22.6887 H   0  0  0  0  0  0  0  0  0  0  0  0
    6.6421   -0.0026   20.0285 C   0  0  0  0  0  0  0  0  0  0  0  0
    5.4208    0.6513   20.2361 C   0  0  0  0  0  0  0  0  0  0  0  0
    4.8804    1.3060   19.1335 C   0  0  0  0  0  0  0  0  0  0  0  0
    5.5669    1.2827   17.9161 C   0  0  0  0  0  0  0  0  0  0  0  0
    6.7389    0.6571   17.7487 N   0  0  0  0  0  0  0  0  0  0  0  0
    7.2728    0.0309   18.7934 C   0  0  0  0  0  0  0  0  0  0  0  0
    8.2169   -0.4813   18.6120 H   0  0  0  0  0  0  0  0  0  0  0  0
    5.1573    1.7762   17.0382 H   0  0  0  0  0  0  0  0  0  0  0  0
    3.9378    1.8334   19.1934 H   0  0  0  0  0  0  0  0  0  0  0  0
    4.9031    0.6723   21.1992 H   0  0  0  0  0  0  0  0  0  0  0  0
  1  2  2  0
  2  3  2  0
  2  4  1  0
  4  5  1  0
  5  6  1  0
  6  7  1  0
  7  8  1  0
  8  9  1  0
  9 10  2  0
 10 11  1  0
 11 12  2  0
 12 13  1  0
 13 14  2  0
 14 15  1  0
 13 16  1  0
 11 17  1  0
 10 18  1  0
  8 19  1  0
 19 20  1  0
 20 21  1  0
 20 22  1  0
 19 23  1  0
 19 24  1  0
  7 25  1  0
  7 26  1  0
  6 27  1  0
  6 28  1  0
  5 29  1  0
  4 30  1  0
  2 31  1  0
 31 32  2  0
 32 33  1  0
 33 34  2  0
 34 35  1  0
 35 36  2  0
 36 37  1  0
 34 38  1  0
 33 39  1  0
 32 40  1  0
 20  5  1  0
 36 31  1  0
 14  9  1  0
M  END
>  <cnnaffinity>  (1) 
-5.00152

>  <filename>  (1) 
[H]c1nc([H])c(S(=O)(=O)N([H])C2([H])C([H])([H])C([H])([H])N(c3c([H])c([H])nc([H])c3[H])C([H])([H])C2([H])[H])c([H])c1[H]

$$$$
