
     RDKit          3D

 31 33  0  0  0  0  0  0  0  0999 V2000
    8.3114    1.2816   21.6140 H   0  0  0  0  0  0  0  0  0  0  0  0
    7.9229    0.3283   21.9193 C   0  0  0  0  0  0  0  0  0  0  0  0
    7.7160    0.0394   23.2352 C   0  0  0  0  0  0  0  0  0  0  0  0
    7.8432    1.0886   24.2403 C   0  0  0  0  0  0  0  0  0  0  0  0
    7.9604    2.0730   23.7724 H   0  0  0  0  0  0  0  0  0  0  0  0
    7.8280    1.0672   25.5971 C   0  0  0  0  0  0  0  0  0  0  0  0
    7.7539    2.5634   26.5571 S   0  0  0  0  0  0  0  0  0  0  0  0
    7.8566    1.6536   28.0980 C   0  0  0  0  0  0  0  0  0  0  0  0
    7.7795    2.1114   29.2033 O   0  0  0  0  0  0  0  0  0  0  0  0
    8.0260    0.3250   27.8150 N   0  0  0  0  0  0  0  0  0  0  0  0
    8.1922   -0.3321   28.5544 H   0  0  0  0  0  0  0  0  0  0  0  0
    7.9463   -0.1036   26.5251 C   0  0  0  0  0  0  0  0  0  0  0  0
    7.9613   -1.2875   26.2437 O   0  0  0  0  0  0  0  0  0  0  0  0
    7.3017   -1.2528   23.5407 N   0  0  0  0  0  0  0  0  0  0  0  0
    7.3419   -1.5998   24.4944 H   0  0  0  0  0  0  0  0  0  0  0  0
    6.7791   -2.1136   22.6295 C   0  0  0  0  0  0  0  0  0  0  0  0
    5.9666   -3.4898   23.0701 S   0  0  0  0  0  0  0  0  0  0  0  0
    6.9691   -1.8160   21.3360 N   0  0  0  0  0  0  0  0  0  0  0  0
    6.5161   -2.4672   20.7219 H   0  0  0  0  0  0  0  0  0  0  0  0
    7.6193   -0.6193   20.8215 C   0  0  1  0  0  0  0  0  0  0  0  0
    8.5698   -0.9223   20.3427 H   0  0  0  0  0  0  0  0  0  0  0  0
    6.7629    0.0085   19.7176 C   0  0  0  0  0  0  0  0  0  0  0  0
    7.2437    0.0595   18.4072 C   0  0  0  0  0  0  0  0  0  0  0  0
    8.2032   -0.3933   18.1634 H   0  0  0  0  0  0  0  0  0  0  0  0
    6.6041    0.6401   17.3836 N   0  0  0  0  0  0  0  0  0  0  0  0
    5.4187    1.2071   17.6511 C   0  0  0  0  0  0  0  0  0  0  0  0
    4.9166    1.6909   16.8125 H   0  0  0  0  0  0  0  0  0  0  0  0
    4.8272    1.1944   18.9222 C   0  0  0  0  0  0  0  0  0  0  0  0
    3.8726    1.6911   19.0739 H   0  0  0  0  0  0  0  0  0  0  0  0
    5.5103    0.5831   19.9764 C   0  0  0  0  0  0  0  0  0  0  0  0
    5.0951    0.5712   20.9882 H   0  0  0  0  0  0  0  0  0  0  0  0
  1  2  1  0
  2  3  2  0
  3  4  1  0
  4  5  1  0
  4  6  2  3
  6  7  1  0
  7  8  1  0
  8  9  2  0
  8 10  1  0
 10 11  1  0
 10 12  1  0
 12 13  2  0
  3 14  1  0
 14 15  1  0
 14 16  1  0
 16 17  2  0
 16 18  1  0
 18 19  1  0
 18 20  1  0
 20 21  1  6
 20 22  1  0
 22 23  2  0
 23 24  1  0
 23 25  1  0
 25 26  2  0
 26 27  1  0
 26 28  1  0
 28 29  1  0
 28 30  2  0
 30 31  1  0
 20  2  1  0
 30 22  1  0
 12  6  1  0
M  END
>  <cnnaffinity>  (1) 
-4.72937

>  <filename>  (1) 
[H]C(=C1SC(=O)N([H])C1=O)C1=C([H])[C@]([H])(c2c([H])nc([H])c([H])c2[H])N([H])C(=S)N1[H]

$$$$
