
     RDKit          3D

 49 53  0  0  0  0  0  0  0  0999 V2000
    5.3863    2.4756   25.0206 C   0  0  0  0  0  0  0  0  0  0  0  0
    6.5379    3.4662   24.9132 C   0  0  0  0  0  0  0  0  0  0  0  0
    6.6197    4.1356   23.5202 C   0  0  0  0  0  0  0  0  0  0  0  0
    8.1151    4.3434   23.2666 C   0  0  0  0  0  0  0  0  0  0  0  0
    8.7704    3.0940   23.8878 C   0  0  0  0  0  0  0  0  0  0  0  0
    8.8230    1.9693   22.9368 N   0  0  0  0  0  0  0  0  0  0  0  0
    7.7228    1.2603   22.5882 N   0  0  0  0  0  0  0  0  0  0  0  0
    8.1942    0.3618   21.7397 C   0  0  0  0  0  0  0  0  0  0  0  0
    7.3323   -0.6304   21.0060 C   0  0  0  0  0  0  0  0  0  0  0  0
    6.5786   -0.0214   19.8306 C   0  0  0  0  0  0  0  0  0  0  0  0
    5.3698    0.6460   20.0481 C   0  0  0  0  0  0  0  0  0  0  0  0
    4.7688    1.3277   18.9868 C   0  0  0  0  0  0  0  0  0  0  0  0
    5.4020    1.3032   17.7407 C   0  0  0  0  0  0  0  0  0  0  0  0
    6.5391    0.6336   17.4959 N   0  0  0  0  0  0  0  0  0  0  0  0
    7.1004   -0.0172   18.5241 C   0  0  0  0  0  0  0  0  0  0  0  0
    8.0202   -0.5640   18.3075 H   0  0  0  0  0  0  0  0  0  0  0  0
    4.9776    1.8385   16.8941 H   0  0  0  0  0  0  0  0  0  0  0  0
    3.8467    1.8831   19.1170 H   0  0  0  0  0  0  0  0  0  0  0  0
    4.9318    0.6373   21.0485 H   0  0  0  0  0  0  0  0  0  0  0  0
    6.6225   -1.0518   21.7266 H   0  0  0  0  0  0  0  0  0  0  0  0
    7.9856   -1.4413   20.6660 H   0  0  0  0  0  0  0  0  0  0  0  0
    9.5276    0.4318   21.5290 N   0  0  0  0  0  0  0  0  0  0  0  0
    9.8929    1.4753   22.2760 C   0  0  0  0  0  0  0  0  0  0  0  0
   11.2170    2.0802   22.4459 C   0  0  0  0  0  0  0  0  0  0  0  0
   11.4713    3.4414   22.4287 C   0  0  0  0  0  0  0  0  0  0  0  0
   12.7978    3.9403   22.5203 C   0  0  0  0  0  0  0  0  0  0  0  0
   13.8624    3.0765   22.6099 C   0  0  0  0  0  0  0  0  0  0  0  0
   13.6233    1.6691   22.5866 C   0  0  0  0  0  0  0  0  0  0  0  0
   14.3895    0.5292   22.4960 C   0  0  0  0  0  0  0  0  0  0  0  0
   13.6192   -0.5922   22.5108 N   0  0  0  0  0  0  0  0  0  0  0  0
   12.3775   -0.1759   22.5672 C   0  0  0  0  0  0  0  0  0  0  0  0
   12.2974    1.2035   22.5512 N   0  0  0  0  0  0  0  0  0  0  0  0
   11.4823   -0.7820   22.6629 H   0  0  0  0  0  0  0  0  0  0  0  0
   15.4524    0.4974   22.3307 H   0  0  0  0  0  0  0  0  0  0  0  0
   14.8785    3.4452   22.5762 H   0  0  0  0  0  0  0  0  0  0  0  0
   12.9619    5.0126   22.5270 H   0  0  0  0  0  0  0  0  0  0  0  0
   10.6630    4.1534   22.3201 H   0  0  0  0  0  0  0  0  0  0  0  0
    7.9222    2.7943   25.1388 C   0  0  0  0  0  0  0  0  0  0  0  0
    8.4161    3.2062   26.0294 H   0  0  0  0  0  0  0  0  0  0  0  0
    7.8600    1.7140   25.2987 H   0  0  0  0  0  0  0  0  0  0  0  0
    9.7948    3.2777   24.2018 H   0  0  0  0  0  0  0  0  0  0  0  0
    8.3500    4.4695   22.2026 H   0  0  0  0  0  0  0  0  0  0  0  0
    8.4836    5.2330   23.7937 H   0  0  0  0  0  0  0  0  0  0  0  0
    6.0297    5.0564   23.4518 H   0  0  0  0  0  0  0  0  0  0  0  0
    6.2314    3.4548   22.7537 H   0  0  0  0  0  0  0  0  0  0  0  0
    6.4094    4.2484   25.6744 H   0  0  0  0  0  0  0  0  0  0  0  0
    5.5050    1.7003   24.2526 H   0  0  0  0  0  0  0  0  0  0  0  0
    5.3738    1.9863   26.0000 H   0  0  0  0  0  0  0  0  0  0  0  0
    4.4173    2.9632   24.8730 H   0  0  0  0  0  0  0  0  0  0  0  0
  1  2  1  0
  2  3  1  0
  3  4  1  0
  4  5  1  0
  5  6  1  0
  6  7  1  0
  7  8  2  0
  8  9  1  0
  9 10  1  0
 10 11  2  0
 11 12  1  0
 12 13  2  0
 13 14  1  0
 14 15  2  0
 15 16  1  0
 13 17  1  0
 12 18  1  0
 11 19  1  0
  9 20  1  0
  9 21  1  0
  8 22  1  0
 22 23  2  0
 23 24  1  0
 24 25  2  0
 25 26  1  0
 26 27  2  0
 27 28  1  0
 28 29  2  0
 29 30  1  0
 30 31  2  0
 31 32  1  0
 31 33  1  0
 29 34  1  0
 27 35  1  0
 26 36  1  0
 25 37  1  0
  5 38  1  0
 38 39  1  0
 38 40  1  0
  5 41  1  0
  4 42  1  0
  4 43  1  0
  3 44  1  0
  3 45  1  0
  2 46  1  0
  1 47  1  0
  1 48  1  0
  1 49  1  0
 38  2  1  0
 23  6  1  0
 32 24  1  0
 15 10  1  0
 32 28  1  0
M  END
>  <cnnaffinity>  (1) 
-6.65424

>  <filename>  (1) 
[H]c1nc([H])c(C([H])([H])c2nc(-c3c([H])c([H])c([H])c4c([H])nc([H])n34)n(C3([H])C([H])([H])C([H])([H])C([H])(C([H])([H])[H])C3([H])[H])n2)c([H])c1[H]

$$$$
