
     RDKit          3D

 38 40  0  0  0  0  0  0  0  0999 V2000
    4.9662    1.8217   16.9539 H   0  0  0  0  0  0  0  0  0  0  0  0
    5.4181    1.3002   17.7953 C   0  0  0  0  0  0  0  0  0  0  0  0
    6.5637    0.6471   17.5505 N   0  0  0  0  0  0  0  0  0  0  0  0
    7.1361   -0.0016   18.5716 C   0  0  0  0  0  0  0  0  0  0  0  0
    8.0648   -0.5251   18.3509 H   0  0  0  0  0  0  0  0  0  0  0  0
    6.6212   -0.0116   19.8733 C   0  0  0  0  0  0  0  0  0  0  0  0
    7.3765   -0.7205   20.9161 C   0  0  0  0  0  0  0  0  0  0  0  0
    8.0704   -1.8058   20.7374 N   0  0  0  0  0  0  0  0  0  0  0  0
    8.5496   -2.0917   21.9937 N   0  0  0  0  0  0  0  0  0  0  0  0
    9.0781   -2.9154   22.2308 H   0  0  0  0  0  0  0  0  0  0  0  0
    8.2007   -1.2099   22.9592 C   0  0  0  0  0  0  0  0  0  0  0  0
    8.5097   -1.2450   24.1445 O   0  0  0  0  0  0  0  0  0  0  0  0
    7.4232   -0.2776   22.2282 N   0  0  0  0  0  0  0  0  0  0  0  0
    6.8202    0.9037   22.6678 N   0  0  0  0  0  0  0  0  0  0  0  0
    6.3320    0.9251   24.0526 C   0  0  0  0  0  0  0  0  0  0  0  0
    7.0595    0.4408   24.7220 H   0  0  0  0  0  0  0  0  0  0  0  0
    5.3853    0.3782   24.1295 H   0  0  0  0  0  0  0  0  0  0  0  0
    6.1511    2.4215   24.3036 C   0  0  0  0  0  0  0  0  0  0  0  0
    5.1714    2.7352   23.9369 H   0  0  0  0  0  0  0  0  0  0  0  0
    6.1865    2.6724   25.3646 H   0  0  0  0  0  0  0  0  0  0  0  0
    7.2658    3.1277   23.4933 C   0  0  1  0  0  0  0  0  0  0  0  0
    6.8652    4.0399   23.0368 H   0  0  0  0  0  0  0  0  0  0  0  0
    8.4596    3.5270   24.2528 N   0  0  0  0  0  0  0  0  0  0  0  0
    8.2922    4.7614   25.0026 C   0  0  0  0  0  0  0  0  0  0  0  0
    9.2543    5.0798   25.4168 H   0  0  0  0  0  0  0  0  0  0  0  0
    7.9560    5.5636   24.3329 H   0  0  0  0  0  0  0  0  0  0  0  0
    7.5735    4.7045   25.8433 H   0  0  0  0  0  0  0  0  0  0  0  0
    9.0872    2.4535   25.0172 C   0  0  0  0  0  0  0  0  0  0  0  0
    9.1574    1.5343   24.4191 H   0  0  0  0  0  0  0  0  0  0  0  0
    8.5594    2.1955   25.9551 H   0  0  0  0  0  0  0  0  0  0  0  0
   10.1085    2.7460   25.2768 H   0  0  0  0  0  0  0  0  0  0  0  0
    7.5932    2.1204   22.3679 C   0  0  0  0  0  0  0  0  0  0  0  0
    7.2887    2.5004   21.3840 H   0  0  0  0  0  0  0  0  0  0  0  0
    8.6713    1.9163   22.3239 H   0  0  0  0  0  0  0  0  0  0  0  0
    5.4268    0.6909   20.1202 C   0  0  0  0  0  0  0  0  0  0  0  0
    5.0163    0.7583   21.1304 H   0  0  0  0  0  0  0  0  0  0  0  0
    4.8067    1.3309   19.0535 C   0  0  0  0  0  0  0  0  0  0  0  0
    3.8709    1.8594   19.1855 H   0  0  0  0  0  0  0  0  0  0  0  0
  1  2  1  0
  2  3  2  0
  3  4  1  0
  4  5  1  0
  4  6  2  0
  6  7  1  0
  7  8  2  0
  8  9  1  0
  9 10  1  0
  9 11  1  0
 11 12  2  0
 11 13  1  0
 13 14  1  0
 14 15  1  0
 15 16  1  0
 15 17  1  0
 15 18  1  0
 18 19  1  0
 18 20  1  0
 18 21  1  0
 21 22  1  6
 21 23  1  0
 23 24  1  0
 24 25  1  0
 24 26  1  0
 24 27  1  0
 23 28  1  0
 28 29  1  0
 28 30  1  0
 28 31  1  0
 21 32  1  0
 32 33  1  0
 32 34  1  0
  6 35  1  0
 35 36  1  0
 35 37  2  0
 37 38  1  0
 37  2  1  0
 13  7  1  0
 32 14  1  0
M  END
>  <cnnaffinity>  (1) 
-4.87179

>  <filename>  (1) 
[H]c1nc([H])c(-c2nn([H])c(=O)n2N2C([H])([H])C([H])([H])[C@@]([H])(N(C([H])([H])[H])C([H])([H])[H])C2([H])[H])c([H])c1[H]

$$$$
