
     RDKit          3D

 25 26  0  0  0  0  0  0  0  0999 V2000
    8.4902   -6.1155   23.2698 H   0  0  0  0  0  0  0  0  0  0  0  0
    8.2737   -5.1054   22.9402 C   0  0  0  0  0  0  0  0  0  0  0  0
    8.1817   -4.1026   23.7446 N   0  0  0  0  0  0  0  0  0  0  0  0
    7.9096   -2.9623   23.0185 C   0  0  0  0  0  0  0  0  0  0  0  0
    7.7857   -2.0232   23.5346 H   0  0  0  0  0  0  0  0  0  0  0  0
    7.8018   -3.0986   21.6634 C   0  0  0  0  0  0  0  0  0  0  0  0
    7.5443   -2.1334   20.7068 N   0  0  0  0  0  0  0  0  0  0  0  0
    7.4562   -2.4172   19.7445 H   0  0  0  0  0  0  0  0  0  0  0  0
    7.4017   -0.7230   21.0084 C   0  0  2  0  0  0  0  0  0  0  0  0
    6.7992   -0.6389   21.9230 H   0  0  0  0  0  0  0  0  0  0  0  0
    6.6460   -0.0217   19.9055 C   0  0  0  0  0  0  0  0  0  0  0  0
    7.1659    0.0422   18.6083 C   0  0  0  0  0  0  0  0  0  0  0  0
    8.1202   -0.4270   18.3692 H   0  0  0  0  0  0  0  0  0  0  0  0
    6.5695    0.6724   17.5869 N   0  0  0  0  0  0  0  0  0  0  0  0
    5.4061    1.2891   17.8410 C   0  0  0  0  0  0  0  0  0  0  0  0
    4.9207    1.7776   16.9973 H   0  0  0  0  0  0  0  0  0  0  0  0
    4.8064    1.3105   19.1056 C   0  0  0  0  0  0  0  0  0  0  0  0
    3.8728    1.8454   19.2582 H   0  0  0  0  0  0  0  0  0  0  0  0
    5.4402    0.6466   20.1565 C   0  0  0  0  0  0  0  0  0  0  0  0
    5.0028    0.6370   21.1599 H   0  0  0  0  0  0  0  0  0  0  0  0
    8.7583   -0.0722   21.2688 C   0  0  0  0  0  0  0  0  0  0  0  0
    8.6341    0.9978   21.4531 H   0  0  0  0  0  0  0  0  0  0  0  0
    9.4234   -0.1944   20.4092 H   0  0  0  0  0  0  0  0  0  0  0  0
    9.2376   -0.5312   22.1384 H   0  0  0  0  0  0  0  0  0  0  0  0
    8.0122   -4.7721   21.2491 S   0  0  0  0  0  0  0  0  0  0  0  0
  1  2  1  0
  2  3  2  0
  3  4  1  0
  4  5  1  0
  4  6  2  0
  6  7  1  0
  7  8  1  0
  7  9  1  0
  9 10  1  1
  9 11  1  0
 11 12  2  0
 12 13  1  0
 12 14  1  0
 14 15  2  0
 15 16  1  0
 15 17  1  0
 17 18  1  0
 17 19  2  0
 19 20  1  0
  9 21  1  0
 21 22  1  0
 21 23  1  0
 21 24  1  0
  6 25  1  0
 25  2  1  0
 19 11  1  0
M  END
>  <cnnaffinity>  (1) 
-4.28995

>  <filename>  (1) 
[H]c1nc([H])c(N([H])[C@]([H])(c2c([H])nc([H])c([H])c2[H])C([H])([H])[H])s1

$$$$
