
     RDKit          3D

 30 32  0  0  0  0  0  0  0  0999 V2000
    6.9674   -3.4382   23.1333 H   0  0  0  0  0  0  0  0  0  0  0  0
    6.9170   -2.4475   23.5976 C   0  0  0  0  0  0  0  0  0  0  0  0
    5.9898   -2.2530   24.5447 C   0  0  0  0  0  0  0  0  0  0  0  0
    5.7193   -0.7682   25.4708 S   0  0  0  0  0  0  0  0  0  0  0  0
    4.3502   -1.5209   26.3651 C   0  0  0  0  0  0  0  0  0  0  0  0
    3.6617   -1.0069   27.1973 O   0  0  0  0  0  0  0  0  0  0  0  0
    4.1965   -2.8099   25.9469 N   0  0  0  0  0  0  0  0  0  0  0  0
    3.4784   -3.3783   26.3511 H   0  0  0  0  0  0  0  0  0  0  0  0
    5.0183   -3.3101   24.9801 C   0  0  0  0  0  0  0  0  0  0  0  0
    4.9281   -4.4447   24.5756 O   0  0  0  0  0  0  0  0  0  0  0  0
    7.8964   -1.4024   23.1583 C   0  0  0  0  0  0  0  0  0  0  0  0
    7.3377   -0.3131   22.2387 C   0  0  0  0  0  0  0  0  0  0  0  0
    6.9766    0.7696   22.6161 O   0  0  0  0  0  0  0  0  0  0  0  0
    7.3376   -0.7142   20.9234 O   0  0  0  0  0  0  0  0  0  0  0  0
    6.6606    0.0185   19.9355 C   0  0  0  0  0  0  0  0  0  0  0  0
    7.1862    0.0450   18.6248 C   0  0  0  0  0  0  0  0  0  0  0  0
    8.1298   -0.4448   18.3958 H   0  0  0  0  0  0  0  0  0  0  0  0
    6.5754    0.6630   17.6033 N   0  0  0  0  0  0  0  0  0  0  0  0
    5.4083    1.2828   17.8467 C   0  0  0  0  0  0  0  0  0  0  0  0
    4.9348    1.7787   17.0010 H   0  0  0  0  0  0  0  0  0  0  0  0
    4.8115    1.2977   19.1093 C   0  0  0  0  0  0  0  0  0  0  0  0
    3.8802    1.8313   19.2573 H   0  0  0  0  0  0  0  0  0  0  0  0
    5.4402    0.6514   20.1788 C   0  0  0  0  0  0  0  0  0  0  0  0
    5.0056    0.6403   21.1747 H   0  0  0  0  0  0  0  0  0  0  0  0
    9.3377   -1.8324   22.9930 C   0  0  0  0  0  0  0  0  0  0  0  0
    9.5626   -2.8808   23.1876 H   0  0  0  0  0  0  0  0  0  0  0  0
    9.9061   -1.3962   22.1776 H   0  0  0  0  0  0  0  0  0  0  0  0
    8.9597   -0.9748   24.1614 C   0  0  0  0  0  0  0  0  0  0  0  0
    8.9159   -1.4364   25.1477 H   0  0  0  0  0  0  0  0  0  0  0  0
    9.2496    0.0758   24.1698 H   0  0  0  0  0  0  0  0  0  0  0  0
  1  2  1  0
  2  3  2  3
  3  4  1  0
  4  5  1  0
  5  6  2  0
  5  7  1  0
  7  8  1  0
  7  9  1  0
  9 10  2  0
  2 11  1  0
 11 12  1  0
 12 13  2  0
 12 14  1  0
 14 15  1  0
 15 16  2  0
 16 17  1  0
 16 18  1  0
 18 19  2  0
 19 20  1  0
 19 21  1  0
 21 22  1  0
 21 23  2  0
 23 24  1  0
 11 25  1  0
 25 26  1  0
 25 27  1  0
 25 28  1  0
 28 29  1  0
 28 30  1  0
  9  3  1  0
 28 11  1  0
 23 15  1  0
M  END
>  <cnnaffinity>  (1) 
-4.89012

>  <filename>  (1) 
[H]C(=C1SC(=O)N([H])C1=O)C1(C(=O)Oc2c([H])nc([H])c([H])c2[H])C([H])([H])C1([H])[H]

$$$$
