
     RDKit          3D

 34 36  0  0  0  0  0  0  0  0999 V2000
    4.9026    1.7246   17.0318 H   0  0  0  0  0  0  0  0  0  0  0  0
    5.4254    1.3588   17.9123 C   0  0  0  0  0  0  0  0  0  0  0  0
    6.6670    0.8970   17.7088 N   0  0  0  0  0  0  0  0  0  0  0  0
    7.3294    0.4300   18.7761 C   0  0  0  0  0  0  0  0  0  0  0  0
    8.3376    0.0844   18.5698 H   0  0  0  0  0  0  0  0  0  0  0  0
    6.8133    0.3402   20.0898 C   0  0  0  0  0  0  0  0  0  0  0  0
    7.6059   -0.3327   21.1881 C   0  0  0  0  0  0  0  0  0  0  0  0
    6.7977   -0.6249   22.4669 C   0  0  0  0  0  0  0  0  0  0  0  0
    5.9184   -1.1979   22.1593 H   0  0  0  0  0  0  0  0  0  0  0  0
    6.4573    0.3232   22.9028 H   0  0  0  0  0  0  0  0  0  0  0  0
    7.4705   -1.3991   23.5775 C   0  0  0  0  0  0  0  0  0  0  0  0
    8.3569   -0.7368   24.3341 N   0  0  0  0  0  0  0  0  0  0  0  0
    8.9672   -1.3939   25.3091 C   0  0  0  0  0  0  0  0  0  0  0  0
    9.8679   -0.7469   26.0788 O   0  0  0  0  0  0  0  0  0  0  0  0
   10.1540    0.6176   25.7704 C   0  0  0  0  0  0  0  0  0  0  0  0
   10.9068    0.9278   26.4921 H   0  0  0  0  0  0  0  0  0  0  0  0
    9.2556    1.2407   25.8589 H   0  0  0  0  0  0  0  0  0  0  0  0
   10.5445    0.7193   24.7486 H   0  0  0  0  0  0  0  0  0  0  0  0
    8.7452   -2.7553   25.6001 C   0  0  0  0  0  0  0  0  0  0  0  0
    9.3153   -3.2037   26.3996 H   0  0  0  0  0  0  0  0  0  0  0  0
    7.8030   -3.4387   24.8449 C   0  0  0  0  0  0  0  0  0  0  0  0
    7.5840   -4.4934   25.0327 H   0  0  0  0  0  0  0  0  0  0  0  0
    7.1404   -2.7351   23.8239 C   0  0  0  0  0  0  0  0  0  0  0  0
    6.3803   -3.2088   23.2193 H   0  0  0  0  0  0  0  0  0  0  0  0
    9.0767   -0.0111   21.3276 C   0  0  0  0  0  0  0  0  0  0  0  0
    9.5029    0.7448   20.6726 H   0  0  0  0  0  0  0  0  0  0  0  0
    9.4902   -0.0022   22.3322 H   0  0  0  0  0  0  0  0  0  0  0  0
    8.6610   -1.3484   20.7927 C   0  0  0  0  0  0  0  0  0  0  0  0
    8.8265   -1.5633   19.7402 H   0  0  0  0  0  0  0  0  0  0  0  0
    8.7979   -2.2003   21.4529 H   0  0  0  0  0  0  0  0  0  0  0  0
    5.5249    0.8820   20.2702 C   0  0  0  0  0  0  0  0  0  0  0  0
    5.0646    0.9264   21.2590 H   0  0  0  0  0  0  0  0  0  0  0  0
    4.8211    1.3786   19.1706 C   0  0  0  0  0  0  0  0  0  0  0  0
    3.8158    1.7738   19.2724 H   0  0  0  0  0  0  0  0  0  0  0  0
  1  2  1  0
  2  3  2  0
  3  4  1  0
  4  5  1  0
  4  6  2  0
  6  7  1  0
  7  8  1  0
  8  9  1  0
  8 10  1  0
  8 11  1  0
 11 12  2  0
 12 13  1  0
 13 14  1  0
 14 15  1  0
 15 16  1  0
 15 17  1  0
 15 18  1  0
 13 19  2  0
 19 20  1  0
 19 21  1  0
 21 22  1  0
 21 23  2  0
 23 24  1  0
  7 25  1  0
 25 26  1  0
 25 27  1  0
 25 28  1  0
 28 29  1  0
 28 30  1  0
  6 31  1  0
 31 32  1  0
 31 33  2  0
 33 34  1  0
 33  2  1  0
 28  7  1  0
 23 11  1  0
M  END
>  <cnnaffinity>  (1) 
-4.84055

>  <filename>  (1) 
[H]c1nc([H])c(C2(C([H])([H])c3nc(OC([H])([H])[H])c([H])c([H])c3[H])C([H])([H])C2([H])[H])c([H])c1[H]

$$$$
