
     RDKit          3D

 30 33  0  0  0  0  0  0  0  0999 V2000
    4.9294    1.7801   16.9971 H   0  0  0  0  0  0  0  0  0  0  0  0
    5.4035    1.2894   17.8440 C   0  0  0  0  0  0  0  0  0  0  0  0
    6.5650    0.6725   17.5839 N   0  0  0  0  0  0  0  0  0  0  0  0
    7.1699    0.0594   18.6043 C   0  0  0  0  0  0  0  0  0  0  0  0
    8.1166   -0.4265   18.3847 H   0  0  0  0  0  0  0  0  0  0  0  0
    6.6486    0.0137   19.9068 C   0  0  0  0  0  0  0  0  0  0  0  0
    7.4122   -0.7121   20.9189 C   0  0  0  0  0  0  0  0  0  0  0  0
    8.5360   -1.3401   20.7918 N   0  0  0  0  0  0  0  0  0  0  0  0
    8.8343   -1.8731   22.0380 N   0  0  0  0  0  0  0  0  0  0  0  0
    7.8723   -1.5299   22.8279 C   0  0  0  0  0  0  0  0  0  0  0  0
    7.7564   -1.8388   24.2812 C   0  0  0  0  0  0  0  0  0  0  0  0
    7.1189   -3.1487   24.5930 C   0  0  0  0  0  0  0  0  0  0  0  0
    5.4185   -3.3115   24.8715 S   0  0  0  0  0  0  0  0  0  0  0  0
    5.5899   -5.0166   25.1175 C   0  0  0  0  0  0  0  0  0  0  0  0
    4.2304   -6.0083   25.4527 Cl  0  0  0  0  0  0  0  0  0  0  0  0
    6.8804   -5.4325   25.0088 C   0  0  0  0  0  0  0  0  0  0  0  0
    7.2102   -6.4438   25.1909 H   0  0  0  0  0  0  0  0  0  0  0  0
    7.7525   -4.3539   24.6922 C   0  0  0  0  0  0  0  0  0  0  0  0
    8.8238   -4.4707   24.5674 H   0  0  0  0  0  0  0  0  0  0  0  0
    8.9123   -1.3846   25.1655 C   0  0  0  0  0  0  0  0  0  0  0  0
    9.2294   -2.0390   25.9734 H   0  0  0  0  0  0  0  0  0  0  0  0
    9.7345   -0.8684   24.6754 H   0  0  0  0  0  0  0  0  0  0  0  0
    7.5918   -0.6966   25.2665 C   0  0  0  0  0  0  0  0  0  0  0  0
    7.4933    0.3091   24.8657 H   0  0  0  0  0  0  0  0  0  0  0  0
    6.9736   -0.8902   26.1382 H   0  0  0  0  0  0  0  0  0  0  0  0
    6.9278   -0.7880   22.1867 O   0  0  0  0  0  0  0  0  0  0  0  0
    5.4260    0.6565   20.1713 C   0  0  0  0  0  0  0  0  0  0  0  0
    4.9883    0.6435   21.1739 H   0  0  0  0  0  0  0  0  0  0  0  0
    4.8022    1.3104   19.1090 C   0  0  0  0  0  0  0  0  0  0  0  0
    3.8712    1.8451   19.2511 H   0  0  0  0  0  0  0  0  0  0  0  0
  1  2  1  0
  2  3  2  0
  3  4  1  0
  4  5  1  0
  4  6  2  0
  6  7  1  0
  7  8  2  0
  8  9  1  0
  9 10  2  0
 10 11  1  0
 11 12  1  0
 12 13  1  0
 13 14  1  0
 14 15  1  0
 14 16  2  0
 16 17  1  0
 16 18  1  0
 18 19  1  0
 11 20  1  0
 20 21  1  0
 20 22  1  0
 20 23  1  0
 23 24  1  0
 23 25  1  0
 10 26  1  0
  6 27  1  0
 27 28  1  0
 27 29  2  0
 29 30  1  0
 29  2  1  0
 26  7  1  0
 23 11  1  0
 18 12  2  0
M  END
>  <cnnaffinity>  (1) 
-5.38946

>  <filename>  (1) 
[H]c1nc([H])c(-c2nnc(C3(c4sc(Cl)c([H])c4[H])C([H])([H])C3([H])[H])o2)c([H])c1[H]

$$$$
