
     RDKit          3D

 29 30  0  0  0  0  0  0  0  0999 V2000
    4.9665    1.7900   16.9720 H   0  0  0  0  0  0  0  0  0  0  0  0
    5.4072    1.2775   17.8281 C   0  0  0  0  0  0  0  0  0  0  0  0
    6.5789    0.6595   17.6173 N   0  0  0  0  0  0  0  0  0  0  0  0
    7.1506    0.0470   18.6550 C   0  0  0  0  0  0  0  0  0  0  0  0
    8.1178   -0.4124   18.4610 H   0  0  0  0  0  0  0  0  0  0  0  0
    6.5726   -0.0300   19.9356 C   0  0  0  0  0  0  0  0  0  0  0  0
    7.3376   -0.7303   21.0490 C   0  0  0  0  0  0  0  0  0  0  0  0
    7.0532   -0.0855   22.2311 F   0  0  0  0  0  0  0  0  0  0  0  0
    8.6683   -0.5577   20.8130 F   0  0  0  0  0  0  0  0  0  0  0  0
    7.0966   -2.2914   21.3292 C   0  0  0  0  0  0  0  0  0  0  0  0
    8.0290   -3.0768   21.3012 O   0  0  0  0  0  0  0  0  0  0  0  0
    5.8263   -2.6966   21.6375 N   0  0  0  0  0  0  0  0  0  0  0  0
    5.0529   -2.0704   21.7929 H   0  0  0  0  0  0  0  0  0  0  0  0
    5.3792   -4.0021   21.8851 C   0  0  0  0  0  0  0  0  0  0  0  0
    4.2035   -4.1433   22.1390 O   0  0  0  0  0  0  0  0  0  0  0  0
    6.3046   -4.9649   21.7651 N   0  0  0  0  0  0  0  0  0  0  0  0
    7.2509   -4.6315   21.6005 H   0  0  0  0  0  0  0  0  0  0  0  0
    5.9797   -6.3539   21.7519 C   0  0  0  0  0  0  0  0  0  0  0  0
    5.5713   -6.7795   20.8292 H   0  0  0  0  0  0  0  0  0  0  0  0
    5.4921   -6.9283   23.0507 C   0  0  0  0  0  0  0  0  0  0  0  0
    4.7428   -7.7166   23.0345 H   0  0  0  0  0  0  0  0  0  0  0  0
    5.3834   -6.2091   23.8585 H   0  0  0  0  0  0  0  0  0  0  0  0
    6.8902   -7.2129   22.5671 C   0  0  0  0  0  0  0  0  0  0  0  0
    7.7019   -6.7035   23.0860 H   0  0  0  0  0  0  0  0  0  0  0  0
    7.1373   -8.2089   22.2021 H   0  0  0  0  0  0  0  0  0  0  0  0
    5.3681    0.6536   20.1536 C   0  0  0  0  0  0  0  0  0  0  0  0
    4.9308    0.7318   21.1505 H   0  0  0  0  0  0  0  0  0  0  0  0
    4.7723    1.3029   19.0722 C   0  0  0  0  0  0  0  0  0  0  0  0
    3.8504    1.8601   19.1905 H   0  0  0  0  0  0  0  0  0  0  0  0
  1  2  1  0
  2  3  2  0
  3  4  1  0
  4  5  1  0
  4  6  2  0
  6  7  1  0
  7  8  1  0
  7  9  1  0
  7 10  1  0
 10 11  2  0
 10 12  1  0
 12 13  1  0
 12 14  1  0
 14 15  2  0
 14 16  1  0
 16 17  1  0
 16 18  1  0
 18 19  1  0
 18 20  1  0
 20 21  1  0
 20 22  1  0
 20 23  1  0
 23 24  1  0
 23 25  1  0
  6 26  1  0
 26 27  1  0
 26 28  2  0
 28 29  1  0
 28  2  1  0
 23 18  1  0
M  END
>  <cnnaffinity>  (1) 
-4.71389

>  <filename>  (1) 
[H]c1nc([H])c(C(F)(F)C(=O)N([H])C(=O)N([H])C2([H])C([H])([H])C2([H])[H])c([H])c1[H]

$$$$
