
     RDKit          3D

 42 45  0  0  0  0  0  0  0  0999 V2000
    8.3891    5.2694   24.2407 C   0  0  0  0  0  0  0  0  0  0  0  0
    8.1710    4.0832   23.6789 C   0  0  0  0  0  0  0  0  0  0  0  0
    8.8667    2.8015   24.1195 C   0  0  0  0  0  0  0  0  0  0  0  0
    8.2948    2.1883   25.4062 C   0  0  0  0  0  0  0  0  0  0  0  0
    8.3783    2.8981   26.2362 H   0  0  0  0  0  0  0  0  0  0  0  0
    8.8574    1.2913   25.6778 H   0  0  0  0  0  0  0  0  0  0  0  0
    7.2427    1.9127   25.2979 H   0  0  0  0  0  0  0  0  0  0  0  0
    8.9046    1.8266   23.0100 N   0  0  0  0  0  0  0  0  0  0  0  0
    7.8246    1.0619   22.7152 N   0  0  0  0  0  0  0  0  0  0  0  0
    8.2453    0.3115   21.7174 C   0  0  0  0  0  0  0  0  0  0  0  0
    7.3630   -0.6664   20.9928 C   0  0  0  0  0  0  0  0  0  0  0  0
    6.5983   -0.0299   19.8354 C   0  0  0  0  0  0  0  0  0  0  0  0
    5.3905    0.6387   20.0700 C   0  0  0  0  0  0  0  0  0  0  0  0
    4.7745    1.3230   19.0203 C   0  0  0  0  0  0  0  0  0  0  0  0
    5.3911    1.3075   17.7665 C   0  0  0  0  0  0  0  0  0  0  0  0
    6.5302    0.6475   17.5062 N   0  0  0  0  0  0  0  0  0  0  0  0
    7.1083   -0.0012   18.5246 C   0  0  0  0  0  0  0  0  0  0  0  0
    8.0333   -0.5306   18.2869 H   0  0  0  0  0  0  0  0  0  0  0  0
    4.9554    1.8466   16.9293 H   0  0  0  0  0  0  0  0  0  0  0  0
    3.8536    1.8787   19.1648 H   0  0  0  0  0  0  0  0  0  0  0  0
    4.9557    0.6262   21.0706 H   0  0  0  0  0  0  0  0  0  0  0  0
    8.0130   -1.4707   20.6328 H   0  0  0  0  0  0  0  0  0  0  0  0
    6.6646   -1.1019   21.7172 H   0  0  0  0  0  0  0  0  0  0  0  0
    9.5321    0.5338   21.3465 N   0  0  0  0  0  0  0  0  0  0  0  0
    9.9164    1.5086   22.1602 C   0  0  0  0  0  0  0  0  0  0  0  0
   11.2475    2.1412   22.2523 C   0  0  0  0  0  0  0  0  0  0  0  0
   11.4231    3.5307   22.2818 C   0  0  0  0  0  0  0  0  0  0  0  0
   12.6920    4.1030   22.4817 C   0  0  0  0  0  0  0  0  0  0  0  0
   13.8109    3.3196   22.7401 C   0  0  0  0  0  0  0  0  0  0  0  0
   13.6317    1.9291   22.7068 C   0  0  0  0  0  0  0  0  0  0  0  0
   12.4085    1.3409   22.3936 C   0  0  0  0  0  0  0  0  0  0  0  0
   12.7329   -0.0606   22.4013 C   0  0  0  0  0  0  0  0  0  0  0  0
   13.9824   -0.2707   22.7014 N   0  0  0  0  0  0  0  0  0  0  0  0
   14.5661    0.9767   22.9059 O   0  0  0  0  0  0  0  0  0  0  0  0
   12.0869   -0.8994   22.1886 H   0  0  0  0  0  0  0  0  0  0  0  0
   14.7764    3.7745   22.8952 H   0  0  0  0  0  0  0  0  0  0  0  0
   12.7971    5.1813   22.4581 H   0  0  0  0  0  0  0  0  0  0  0  0
   10.5608    4.1831   22.2100 H   0  0  0  0  0  0  0  0  0  0  0  0
    9.9045    3.0588   24.3555 H   0  0  0  0  0  0  0  0  0  0  0  0
    7.4473    3.9842   22.8692 H   0  0  0  0  0  0  0  0  0  0  0  0
    9.0917    5.3858   25.0659 H   0  0  0  0  0  0  0  0  0  0  0  0
    7.8750    6.1744   23.9197 H   0  0  0  0  0  0  0  0  0  0  0  0
  1  2  2  3
  2  3  1  0
  3  4  1  0
  4  5  1  0
  4  6  1  0
  4  7  1  0
  3  8  1  0
  8  9  1  0
  9 10  2  0
 10 11  1  0
 11 12  1  0
 12 13  2  0
 13 14  1  0
 14 15  2  0
 15 16  1  0
 16 17  2  0
 17 18  1  0
 15 19  1  0
 14 20  1  0
 13 21  1  0
 11 22  1  0
 11 23  1  0
 10 24  1  0
 24 25  2  0
 25 26  1  0
 26 27  2  0
 27 28  1  0
 28 29  2  0
 29 30  1  0
 30 31  2  0
 31 32  1  0
 32 33  2  0
 33 34  1  0
 32 35  1  0
 29 36  1  0
 28 37  1  0
 27 38  1  0
  3 39  1  0
  2 40  1  0
  1 41  1  0
  1 42  1  0
 25  8  1  0
 31 26  1  0
 17 12  1  0
 34 30  1  0
M  END
>  <cnnaffinity>  (1) 
-6.48805

>  <filename>  (1) 
[H]C([H])=C([H])C([H])(n1nc(C([H])([H])c2c([H])nc([H])c([H])c2[H])nc1-c1c([H])c([H])c([H])c2onc([H])c12)C([H])([H])[H]

$$$$
