
     RDKit          3D

 32 35  0  0  0  0  0  0  0  0999 V2000
    4.7201    1.4056   18.9377 C   0  0  0  0  0  0  0  0  0  0  0  0
    5.4270    1.3239   17.7312 C   0  0  0  0  0  0  0  0  0  0  0  0
    6.5806    0.6548   17.5932 N   0  0  0  0  0  0  0  0  0  0  0  0
    7.0780    0.0611   18.6794 C   0  0  0  0  0  0  0  0  0  0  0  0
    6.4612    0.1032   19.9392 C   0  0  0  0  0  0  0  0  0  0  0  0
    7.1604   -0.5635   21.0325 C   0  0  0  0  0  0  0  0  0  0  0  0
    6.7419   -0.6354   22.2682 N   0  0  0  0  0  0  0  0  0  0  0  0
    7.7384   -1.3860   22.8913 O   0  0  0  0  0  0  0  0  0  0  0  0
    8.6366   -1.6775   21.9619 C   0  0  0  0  0  0  0  0  0  0  0  0
    9.8113   -2.5420   22.2485 C   0  0  0  0  0  0  0  0  0  0  0  0
   11.0334   -1.7935   22.3665 N   0  0  0  0  0  0  0  0  0  0  0  0
   12.0457   -1.9335   21.4872 N   0  0  0  0  0  0  0  0  0  0  0  0
   12.9382   -1.0125   21.7898 C   0  0  0  0  0  0  0  0  0  0  0  0
   12.5064   -0.1984   22.8900 C   0  0  0  0  0  0  0  0  0  0  0  0
   12.9346    0.9627   23.6004 C   0  0  0  0  0  0  0  0  0  0  0  0
   12.1822    1.3426   24.6974 C   0  0  0  0  0  0  0  0  0  0  0  0
   11.0590    0.5938   25.1513 C   0  0  0  0  0  0  0  0  0  0  0  0
   10.5941   -0.5032   24.4586 C   0  0  0  0  0  0  0  0  0  0  0  0
   11.2874   -0.8140   23.2692 C   0  0  0  0  0  0  0  0  0  0  0  0
    9.7455   -1.0939   24.8024 H   0  0  0  0  0  0  0  0  0  0  0  0
   10.5656    0.8960   26.0701 H   0  0  0  0  0  0  0  0  0  0  0  0
   12.4111    2.2458   25.2369 H   0  0  0  0  0  0  0  0  0  0  0  0
   13.7917    1.5545   23.2746 H   0  0  0  0  0  0  0  0  0  0  0  0
   13.8713   -0.9717   21.2419 H   0  0  0  0  0  0  0  0  0  0  0  0
    9.9090   -3.1414   21.3561 H   0  0  0  0  0  0  0  0  0  0  0  0
    9.6436   -3.1835   23.1114 H   0  0  0  0  0  0  0  0  0  0  0  0
    8.3596   -1.1995   20.7963 N   0  0  0  0  0  0  0  0  0  0  0  0
    5.2398    0.7834   20.0721 C   0  0  0  0  0  0  0  0  0  0  0  0
    4.7195    0.8331   21.0319 H   0  0  0  0  0  0  0  0  0  0  0  0
    8.0151   -0.4758   18.5495 H   0  0  0  0  0  0  0  0  0  0  0  0
    5.0488    1.8080   16.8330 H   0  0  0  0  0  0  0  0  0  0  0  0
    3.7895    1.9637   18.9696 H   0  0  0  0  0  0  0  0  0  0  0  0
  1  2  2  0
  2  3  1  0
  3  4  2  0
  4  5  1  0
  5  6  1  0
  6  7  2  0
  7  8  1  0
  8  9  1  0
  9 10  1  0
 10 11  1  0
 11 12  1  0
 12 13  2  0
 13 14  1  0
 14 15  2  0
 15 16  1  0
 16 17  2  0
 17 18  1  0
 18 19  2  0
 18 20  1  0
 17 21  1  0
 16 22  1  0
 15 23  1  0
 13 24  1  0
 10 25  1  0
 10 26  1  0
  9 27  2  0
  5 28  2  0
 28 29  1  0
  4 30  1  0
  2 31  1  0
  1 32  1  0
 28  1  1  0
 27  6  1  0
 19 11  1  0
 19 14  1  0
M  END
>  <cnnaffinity>  (1) 
-5.6531

>  <filename>  (1) 
[H]c1nc([H])c(-c2noc(C([H])([H])n3nc([H])c4c([H])c([H])c([H])c([H])c43)n2)c([H])c1[H]

$$$$
