
     RDKit          3D

 42 44  0  0  0  0  0  0  0  0999 V2000
    4.9132    1.7891   16.9909 H   0  0  0  0  0  0  0  0  0  0  0  0
    5.3992    1.2961   17.8290 C   0  0  0  0  0  0  0  0  0  0  0  0
    6.5628    0.6866   17.5627 N   0  0  0  0  0  0  0  0  0  0  0  0
    7.1759    0.0706   18.5787 C   0  0  0  0  0  0  0  0  0  0  0  0
    8.1202   -0.4188   18.3466 H   0  0  0  0  0  0  0  0  0  0  0  0
    6.6680    0.0127   19.8866 C   0  0  0  0  0  0  0  0  0  0  0  0
    7.3972   -0.6888   21.0046 C   0  0  2  0  0  0  0  0  0  0  0  0
    8.1900   -1.3215   20.5851 H   0  0  0  0  0  0  0  0  0  0  0  0
    6.5205   -1.6576   21.8145 C   0  0  0  0  0  0  0  0  0  0  0  0
    5.8020   -2.5526   21.4181 O   0  0  0  0  0  0  0  0  0  0  0  0
    6.7172   -1.3543   23.1190 N   0  0  0  0  0  0  0  0  0  0  0  0
    6.2387   -1.9374   23.7821 H   0  0  0  0  0  0  0  0  0  0  0  0
    7.6902   -0.3358   23.4348 C   0  0  0  0  0  0  0  0  0  0  0  0
    8.5911   -0.7793   23.8912 H   0  0  0  0  0  0  0  0  0  0  0  0
    7.2980    0.3981   24.1519 H   0  0  0  0  0  0  0  0  0  0  0  0
    7.9870    0.2890   22.0514 C   0  0  1  0  0  0  0  0  0  0  0  0
    7.4569    1.2512   21.9966 H   0  0  0  0  0  0  0  0  0  0  0  0
    9.4707    0.5712   21.8263 C   0  0  0  0  0  0  0  0  0  0  0  0
    9.6436    0.9430   20.7960 H   0  0  0  0  0  0  0  0  0  0  0  0
   10.0067   -0.3866   21.8917 H   0  0  0  0  0  0  0  0  0  0  0  0
    9.9850    1.4911   22.8357 N   0  0  0  0  0  0  0  0  0  0  0  0
    9.7807    2.8994   22.4511 C   0  0  0  0  0  0  0  0  0  0  0  0
    8.7187    3.0859   22.2595 H   0  0  0  0  0  0  0  0  0  0  0  0
   10.3140    3.1099   21.5063 H   0  0  0  0  0  0  0  0  0  0  0  0
   10.2817    3.8622   23.5459 C   0  0  0  0  0  0  0  0  0  0  0  0
   10.1455    4.8974   23.2112 H   0  0  0  0  0  0  0  0  0  0  0  0
    9.6568    3.7247   24.4369 H   0  0  0  0  0  0  0  0  0  0  0  0
   11.6952    3.6712   23.9345 N   0  0  0  0  0  0  0  0  0  0  0  0
   12.6240    4.1896   22.9318 C   0  0  0  0  0  0  0  0  0  0  0  0
   13.6511    4.0706   23.2945 H   0  0  0  0  0  0  0  0  0  0  0  0
   12.4391    5.2596   22.7858 H   0  0  0  0  0  0  0  0  0  0  0  0
   12.5610    3.7041   21.9404 H   0  0  0  0  0  0  0  0  0  0  0  0
   11.9109    2.2375   24.2154 C   0  0  0  0  0  0  0  0  0  0  0  0
   11.3940    1.9878   25.1503 H   0  0  0  0  0  0  0  0  0  0  0  0
   12.9805    2.0639   24.3751 H   0  0  0  0  0  0  0  0  0  0  0  0
   11.4127    1.2807   23.1158 C   0  0  0  0  0  0  0  0  0  0  0  0
   11.5550    0.2491   23.4567 H   0  0  0  0  0  0  0  0  0  0  0  0
   12.0417    1.4059   22.2085 H   0  0  0  0  0  0  0  0  0  0  0  0
    5.4488    0.6523   20.1486 C   0  0  0  0  0  0  0  0  0  0  0  0
    5.0175    0.6251   21.1523 H   0  0  0  0  0  0  0  0  0  0  0  0
    4.8084    1.3100   19.0971 C   0  0  0  0  0  0  0  0  0  0  0  0
    3.8812    1.8394   19.2531 H   0  0  0  0  0  0  0  0  0  0  0  0
  1  2  1  0
  2  3  2  0
  3  4  1  0
  4  5  1  0
  4  6  2  0
  6  7  1  0
  7  8  1  6
  7  9  1  0
  9 10  2  0
  9 11  1  0
 11 12  1  0
 11 13  1  0
 13 14  1  0
 13 15  1  0
 13 16  1  0
 16 17  1  1
 16 18  1  0
 18 19  1  0
 18 20  1  0
 18 21  1  0
 21 22  1  0
 22 23  1  0
 22 24  1  0
 22 25  1  0
 25 26  1  0
 25 27  1  0
 25 28  1  0
 28 29  1  0
 29 30  1  0
 29 31  1  0
 29 32  1  0
 28 33  1  0
 33 34  1  0
 33 35  1  0
 33 36  1  0
 36 37  1  0
 36 38  1  0
  6 39  1  0
 39 40  1  0
 39 41  2  0
 41 42  1  0
 41  2  1  0
 16  7  1  0
 36 21  1  0
M  END
>  <cnnaffinity>  (1) 
-4.89936

>  <filename>  (1) 
[H]c1nc([H])c([C@]2([H])C(=O)N([H])C([H])([H])[C@@]2([H])C([H])([H])N2C([H])([H])C([H])([H])N(C([H])([H])[H])C([H])([H])C2([H])[H])c([H])c1[H]

$$$$
