
     RDKit          3D

 46 50  0  0  0  0  0  0  0  0999 V2000
    4.9392    1.7787   18.3891 C   0  0  0  0  0  0  0  0  0  0  0  0
    5.5661    1.2856   17.2427 C   0  0  0  0  0  0  0  0  0  0  0  0
    6.3173    0.1748   17.2302 N   0  0  0  0  0  0  0  0  0  0  0  0
    6.4894   -0.4638   18.3969 C   0  0  0  0  0  0  0  0  0  0  0  0
    5.9566   -0.0241   19.6229 C   0  0  0  0  0  0  0  0  0  0  0  0
    6.2331   -0.6931   20.9690 C   0  0  0  0  0  0  0  0  0  0  0  0
    6.9282    0.1973   21.9713 C   0  0  0  0  0  0  0  0  0  0  0  0
    8.2383    0.2859   21.9562 N   0  0  0  0  0  0  0  0  0  0  0  0
    8.5077    1.2124   22.9156 N   0  0  0  0  0  0  0  0  0  0  0  0
    9.8709    1.5790   23.1620 C   0  0  0  0  0  0  0  0  0  0  0  0
   10.2813    2.9357   23.3458 C   0  0  0  0  0  0  0  0  0  0  0  0
   11.6304    3.2706   23.4010 C   0  0  0  0  0  0  0  0  0  0  0  0
   12.5721    2.2228   23.2777 C   0  0  0  0  0  0  0  0  0  0  0  0
   13.9276    2.1969   23.2090 N   0  0  0  0  0  0  0  0  0  0  0  0
   14.4335    0.9461   23.0986 N   0  0  0  0  0  0  0  0  0  0  0  0
   13.3952    0.1442   23.0652 C   0  0  0  0  0  0  0  0  0  0  0  0
   12.1728    0.8744   23.1736 C   0  0  0  0  0  0  0  0  0  0  0  0
   10.7989    0.5485   23.1369 C   0  0  0  0  0  0  0  0  0  0  0  0
   10.4358   -0.4714   23.0878 H   0  0  0  0  0  0  0  0  0  0  0  0
   13.5348   -0.9231   22.9730 H   0  0  0  0  0  0  0  0  0  0  0  0
   14.5639    2.9744   23.3162 H   0  0  0  0  0  0  0  0  0  0  0  0
   11.9442    4.3004   23.5451 H   0  0  0  0  0  0  0  0  0  0  0  0
    9.5626    3.7417   23.4515 H   0  0  0  0  0  0  0  0  0  0  0  0
    7.3350    1.5951   23.4992 C   0  0  0  0  0  0  0  0  0  0  0  0
    7.2152    2.5590   24.6423 C   0  0  0  0  0  0  0  0  0  0  0  0
    6.9322    4.0505   24.2537 C   0  0  0  0  0  0  0  0  0  0  0  0
    7.5642    5.0204   25.2163 C   0  0  0  0  0  0  0  0  0  0  0  0
    7.0865    5.5209   26.3949 C   0  0  0  0  0  0  0  0  0  0  0  0
    8.1068    6.2875   26.9187 N   0  0  0  0  0  0  0  0  0  0  0  0
    9.1483    6.2094   26.0513 C   0  0  0  0  0  0  0  0  0  0  0  0
    8.8587    5.4522   25.0287 N   0  0  0  0  0  0  0  0  0  0  0  0
   10.0829    6.7311   26.2087 H   0  0  0  0  0  0  0  0  0  0  0  0
    8.1138    6.7863   27.7913 H   0  0  0  0  0  0  0  0  0  0  0  0
    6.1331    5.3858   26.8833 H   0  0  0  0  0  0  0  0  0  0  0  0
    5.8518    4.2283   24.1885 H   0  0  0  0  0  0  0  0  0  0  0  0
    7.3338    4.2715   23.2533 H   0  0  0  0  0  0  0  0  0  0  0  0
    8.1444    2.5137   25.2186 H   0  0  0  0  0  0  0  0  0  0  0  0
    6.4218    2.1952   25.3047 H   0  0  0  0  0  0  0  0  0  0  0  0
    6.3224    0.9705   22.9164 N   0  0  0  0  0  0  0  0  0  0  0  0
    6.8424   -1.5953   20.8382 H   0  0  0  0  0  0  0  0  0  0  0  0
    5.2850   -0.9914   21.4166 H   0  0  0  0  0  0  0  0  0  0  0  0
    5.1435    1.1155   19.6000 C   0  0  0  0  0  0  0  0  0  0  0  0
    4.6954    1.4816   20.5248 H   0  0  0  0  0  0  0  0  0  0  0  0
    7.0987   -1.3683   18.3628 H   0  0  0  0  0  0  0  0  0  0  0  0
    5.4681    1.8153   16.2982 H   0  0  0  0  0  0  0  0  0  0  0  0
    4.3274    2.6718   18.3285 H   0  0  0  0  0  0  0  0  0  0  0  0
  1  2  2  0
  2  3  1  0
  3  4  2  0
  4  5  1  0
  5  6  1  0
  6  7  1  0
  7  8  2  0
  8  9  1  0
  9 10  1  0
 10 11  2  0
 11 12  1  0
 12 13  2  0
 13 14  1  0
 14 15  1  0
 15 16  2  0
 16 17  1  0
 17 18  2  0
 18 19  1  0
 16 20  1  0
 14 21  1  0
 12 22  1  0
 11 23  1  0
  9 24  1  0
 24 25  1  0
 25 26  1  0
 26 27  1  0
 27 28  2  0
 28 29  1  0
 29 30  1  0
 30 31  2  0
 30 32  1  0
 29 33  1  0
 28 34  1  0
 26 35  1  0
 26 36  1  0
 25 37  1  0
 25 38  1  0
 24 39  2  0
  6 40  1  0
  6 41  1  0
  5 42  2  0
 42 43  1  0
  4 44  1  0
  2 45  1  0
  1 46  1  0
 42  1  1  0
 39  7  1  0
 18 10  1  0
 31 27  1  0
 17 13  1  0
M  END
>  <cnnaffinity>  (1) 
-6.32935

>  <filename>  (1) 
[H]c1nc([H])c(C([H])([H])c2nc(C([H])([H])C([H])([H])c3nc([H])n([H])c3[H])n(-c3c([H])c([H])c4c(c([H])nn4[H])c3[H])n2)c([H])c1[H]

$$$$
