
     RDKit          3D

 48 52  0  0  0  0  0  0  0  0999 V2000
    6.6388    2.4234   25.6812 C   0  0  0  0  0  0  0  0  0  0  0  0
    6.7216    3.6193   24.7753 C   0  0  0  0  0  0  0  0  0  0  0  0
    5.6566    4.5147   24.6471 C   0  0  0  0  0  0  0  0  0  0  0  0
    5.7675    5.5939   23.7716 C   0  0  0  0  0  0  0  0  0  0  0  0
    6.8602    5.8373   23.0433 N   0  0  0  0  0  0  0  0  0  0  0  0
    7.8822    4.9821   23.1667 C   0  0  0  0  0  0  0  0  0  0  0  0
    7.8824    3.8697   24.0186 C   0  0  0  0  0  0  0  0  0  0  0  0
    9.0425    2.8956   24.0503 C   0  0  0  0  0  0  0  0  0  0  0  0
    8.9603    1.8307   22.9835 C   0  0  0  0  0  0  0  0  0  0  0  0
    7.9050    1.0913   22.6948 N   0  0  0  0  0  0  0  0  0  0  0  0
    8.3548    0.2598   21.7186 C   0  0  0  0  0  0  0  0  0  0  0  0
    7.4437   -0.6829   20.9835 C   0  0  0  0  0  0  0  0  0  0  0  0
    6.6690   -0.0259   19.8463 C   0  0  0  0  0  0  0  0  0  0  0  0
    5.4621    0.6352   20.1067 C   0  0  0  0  0  0  0  0  0  0  0  0
    4.8193    1.3072   19.0646 C   0  0  0  0  0  0  0  0  0  0  0  0
    5.4082    1.2974   17.7969 C   0  0  0  0  0  0  0  0  0  0  0  0
    6.5542    0.6577   17.5185 N   0  0  0  0  0  0  0  0  0  0  0  0
    7.1572    0.0162   18.5281 C   0  0  0  0  0  0  0  0  0  0  0  0
    8.0881   -0.4951   18.2819 H   0  0  0  0  0  0  0  0  0  0  0  0
    4.9369    1.8198   16.9658 H   0  0  0  0  0  0  0  0  0  0  0  0
    3.8887    1.8393   19.2235 H   0  0  0  0  0  0  0  0  0  0  0  0
    5.0416    0.6288   21.1153 H   0  0  0  0  0  0  0  0  0  0  0  0
    6.7377   -1.0709   21.7230 H   0  0  0  0  0  0  0  0  0  0  0  0
    8.0374   -1.5237   20.6120 H   0  0  0  0  0  0  0  0  0  0  0  0
    9.6365    0.3908   21.4304 N   0  0  0  0  0  0  0  0  0  0  0  0
   10.0107    1.4406   22.2138 N   0  0  0  0  0  0  0  0  0  0  0  0
   11.3220    1.9712   22.2488 C   0  0  0  0  0  0  0  0  0  0  0  0
   11.6026    3.3378   22.1580 C   0  0  0  0  0  0  0  0  0  0  0  0
   12.9122    3.8332   22.3302 C   0  0  0  0  0  0  0  0  0  0  0  0
   13.9621    2.9760   22.6273 C   0  0  0  0  0  0  0  0  0  0  0  0
   13.7038    1.5885   22.7037 C   0  0  0  0  0  0  0  0  0  0  0  0
   12.4042    1.1054   22.4683 C   0  0  0  0  0  0  0  0  0  0  0  0
   12.5150   -0.2646   22.4880 N   0  0  0  0  0  0  0  0  0  0  0  0
   13.8347   -0.5438   22.6925 C   0  0  0  0  0  0  0  0  0  0  0  0
   14.5740    0.5180   22.8382 N   0  0  0  0  0  0  0  0  0  0  0  0
   14.2158   -1.5571   22.7190 H   0  0  0  0  0  0  0  0  0  0  0  0
   11.7803   -0.8860   22.1864 H   0  0  0  0  0  0  0  0  0  0  0  0
   14.9803    3.3468   22.6227 H   0  0  0  0  0  0  0  0  0  0  0  0
   13.1038    4.8988   22.2372 H   0  0  0  0  0  0  0  0  0  0  0  0
   10.7922    4.0411   22.0091 H   0  0  0  0  0  0  0  0  0  0  0  0
    9.9749    3.4516   23.9658 H   0  0  0  0  0  0  0  0  0  0  0  0
    9.0946    2.3868   25.0234 H   0  0  0  0  0  0  0  0  0  0  0  0
    8.7543    5.1963   22.5391 H   0  0  0  0  0  0  0  0  0  0  0  0
    4.9388    6.2960   23.6598 H   0  0  0  0  0  0  0  0  0  0  0  0
    4.7479    4.3654   25.2175 H   0  0  0  0  0  0  0  0  0  0  0  0
    7.3580    2.5115   26.5045 H   0  0  0  0  0  0  0  0  0  0  0  0
    6.8824    1.5129   25.1203 H   0  0  0  0  0  0  0  0  0  0  0  0
    5.6423    2.3193   26.1142 H   0  0  0  0  0  0  0  0  0  0  0  0
  1  2  1  0
  2  3  2  0
  3  4  1  0
  4  5  2  0
  5  6  1  0
  6  7  2  0
  7  8  1  0
  8  9  1  0
  9 10  2  0
 10 11  1  0
 11 12  1  0
 12 13  1  0
 13 14  2  0
 14 15  1  0
 15 16  2  0
 16 17  1  0
 17 18  2  0
 18 19  1  0
 16 20  1  0
 15 21  1  0
 14 22  1  0
 12 23  1  0
 12 24  1  0
 11 25  2  0
 25 26  1  0
 26 27  1  0
 27 28  2  0
 28 29  1  0
 29 30  2  0
 30 31  1  0
 31 32  2  0
 32 33  1  0
 33 34  1  0
 34 35  2  0
 34 36  1  0
 33 37  1  0
 30 38  1  0
 29 39  1  0
 28 40  1  0
  8 41  1  0
  8 42  1  0
  6 43  1  0
  4 44  1  0
  3 45  1  0
  1 46  1  0
  1 47  1  0
  1 48  1  0
  7  2  1  0
 26  9  1  0
 32 27  1  0
 18 13  1  0
 35 31  1  0
M  END
>  <cnnaffinity>  (1) 
-6.69593

>  <filename>  (1) 
[H]c1nc([H])c(C([H])([H])c2nc(C([H])([H])c3c([H])nc([H])c([H])c3C([H])([H])[H])n(-c3c([H])c([H])c([H])c4nc([H])n([H])c34)n2)c([H])c1[H]

$$$$
