
     RDKit          3D

 32 34  0  0  0  0  0  0  0  0999 V2000
    6.8094   -0.4430   22.0596 H   0  0  0  0  0  0  0  0  0  0  0  0
    7.2509   -0.6563   21.0824 C   0  0  0  0  0  0  0  0  0  0  0  0
    8.2849   -1.5025   20.9488 C   0  0  0  0  0  0  0  0  0  0  0  0
    8.7781   -1.6092   19.9829 H   0  0  0  0  0  0  0  0  0  0  0  0
    8.9161   -2.3110   22.0564 C   0  0  0  0  0  0  0  0  0  0  0  0
    8.1805   -2.6315   22.8062 H   0  0  0  0  0  0  0  0  0  0  0  0
    9.3848   -3.2027   21.6375 H   0  0  0  0  0  0  0  0  0  0  0  0
    9.9476   -1.5412   22.7502 N   0  0  0  0  0  0  0  0  0  0  0  0
    9.5831   -0.5648   23.6793 C   0  0  0  0  0  0  0  0  0  0  0  0
    8.5219   -0.5465   24.2573 O   0  0  0  0  0  0  0  0  0  0  0  0
   10.7020    0.4055   23.7581 C   0  0  0  0  0  0  0  0  0  0  0  0
   10.8118    1.5896   24.4848 C   0  0  0  0  0  0  0  0  0  0  0  0
   10.0532    1.8668   25.2117 H   0  0  0  0  0  0  0  0  0  0  0  0
   11.9250    2.3957   24.2440 C   0  0  0  0  0  0  0  0  0  0  0  0
   11.9747    3.3640   24.7355 H   0  0  0  0  0  0  0  0  0  0  0  0
   12.9336    1.9913   23.3394 C   0  0  0  0  0  0  0  0  0  0  0  0
   13.7866    2.6468   23.1735 H   0  0  0  0  0  0  0  0  0  0  0  0
   12.8253    0.7796   22.6403 C   0  0  0  0  0  0  0  0  0  0  0  0
   13.6092    0.4609   21.9534 H   0  0  0  0  0  0  0  0  0  0  0  0
   11.6769    0.0101   22.8463 C   0  0  0  0  0  0  0  0  0  0  0  0
   11.1840   -1.2274   22.1730 C   0  0  0  0  0  0  0  0  0  0  0  0
   11.7098   -1.8597   21.2884 O   0  0  0  0  0  0  0  0  0  0  0  0
    6.5930    0.0462   19.9554 C   0  0  0  0  0  0  0  0  0  0  0  0
    7.1270    0.0549   18.6499 C   0  0  0  0  0  0  0  0  0  0  0  0
    8.0684   -0.4507   18.4441 H   0  0  0  0  0  0  0  0  0  0  0  0
    6.5703    0.6600   17.5966 N   0  0  0  0  0  0  0  0  0  0  0  0
    5.4120    1.3079   17.8013 C   0  0  0  0  0  0  0  0  0  0  0  0
    4.9689    1.7918   16.9354 H   0  0  0  0  0  0  0  0  0  0  0  0
    4.7756    1.3672   19.0474 C   0  0  0  0  0  0  0  0  0  0  0  0
    3.8339    1.9027   19.1462 H   0  0  0  0  0  0  0  0  0  0  0  0
    5.3796    0.7392   20.1382 C   0  0  0  0  0  0  0  0  0  0  0  0
    4.9183    0.7853   21.1284 H   0  0  0  0  0  0  0  0  0  0  0  0
  1  2  1  0
  2  3  2  3
  3  4  1  0
  3  5  1  0
  5  6  1  0
  5  7  1  0
  5  8  1  0
  8  9  1  0
  9 10  2  0
  9 11  1  0
 11 12  2  0
 12 13  1  0
 12 14  1  0
 14 15  1  0
 14 16  2  0
 16 17  1  0
 16 18  1  0
 18 19  1  0
 18 20  2  0
 20 21  1  0
 21 22  2  0
  2 23  1  0
 23 24  2  0
 24 25  1  0
 24 26  1  0
 26 27  2  0
 27 28  1  0
 27 29  1  0
 29 30  1  0
 29 31  2  0
 31 32  1  0
 21  8  1  0
 31 23  1  0
 20 11  1  0
M  END
>  <cnnaffinity>  (1) 
-5.19394

>  <filename>  (1) 
[H]C(=C([H])C([H])([H])N1C(=O)c2c([H])c([H])c([H])c([H])c2C1=O)c1c([H])nc([H])c([H])c1[H]

$$$$
