
     RDKit          3D

 34 36  0  0  0  0  0  0  0  0999 V2000
    5.0866    2.0326   16.5507 H   0  0  0  0  0  0  0  0  0  0  0  0
    5.3913    1.3136   17.3109 C   0  0  0  0  0  0  0  0  0  0  0  0
    6.6656    0.8950   17.2508 N   0  0  0  0  0  0  0  0  0  0  0  0
    7.0864    0.0410   18.1898 C   0  0  0  0  0  0  0  0  0  0  0  0
    8.1281   -0.2696   18.1363 H   0  0  0  0  0  0  0  0  0  0  0  0
    6.2564   -0.4537   19.2175 C   0  0  0  0  0  0  0  0  0  0  0  0
    6.7655   -1.3122   20.2461 N   0  0  0  0  0  0  0  0  0  0  0  0
    7.8574   -1.0650   21.0729 C   0  0  0  0  0  0  0  0  0  0  0  0
    8.5333    0.1365   20.9927 N   0  0  0  0  0  0  0  0  0  0  0  0
    8.0152    0.9766   20.7866 H   0  0  0  0  0  0  0  0  0  0  0  0
    9.8014    0.4501   21.4122 C   0  0  0  0  0  0  0  0  0  0  0  0
   10.2048    2.0408   21.5764 S   0  0  0  0  0  0  0  0  0  0  0  0
   10.5822   -0.6414   21.5829 N   0  0  0  0  0  0  0  0  0  0  0  0
   10.2283   -1.4518   21.0859 H   0  0  0  0  0  0  0  0  0  0  0  0
   11.9017   -0.6743   21.9627 C   0  0  0  0  0  0  0  0  0  0  0  0
   12.8063   -1.5459   21.3122 C   0  0  0  0  0  0  0  0  0  0  0  0
   12.4701   -2.1511   20.4609 H   0  0  0  0  0  0  0  0  0  0  0  0
   14.0919   -1.6338   21.7066 C   0  0  0  0  0  0  0  0  0  0  0  0
   14.7704   -2.2958   21.1771 H   0  0  0  0  0  0  0  0  0  0  0  0
   13.7827    0.2690   23.4173 C   0  0  0  0  0  0  0  0  0  0  0  0
   14.4543   -0.7508   23.0842 H   0  0  0  0  0  0  0  0  0  0  0  0
   13.4968    0.5348   23.3960 C   0  0  0  0  0  0  0  0  0  0  0  0
   14.2615    1.2560   22.8825 H   0  0  0  0  0  0  0  0  0  0  0  0
   12.3037    0.0608   23.1340 C   0  0  0  0  0  0  0  0  0  0  0  0
   11.8552    0.9908   23.2941 H   0  0  0  0  0  0  0  0  0  0  0  0
    8.0210   -2.1303   21.8720 C   0  0  0  0  0  0  0  0  0  0  0  0
    8.6684   -2.3092   22.7178 H   0  0  0  0  0  0  0  0  0  0  0  0
    7.0558   -3.0694   21.5614 O   0  0  0  0  0  0  0  0  0  0  0  0
    6.2676   -2.5841   20.5583 C   0  0  0  0  0  0  0  0  0  0  0  0
    5.3498   -3.1895   20.0722 O   0  0  0  0  0  0  0  0  0  0  0  0
    4.9212   -0.0427   19.2478 C   0  0  0  0  0  0  0  0  0  0  0  0
    4.2672   -0.4182   20.0320 H   0  0  0  0  0  0  0  0  0  0  0  0
    4.4835    0.8640   18.2777 C   0  0  0  0  0  0  0  0  0  0  0  0
    3.4623    1.2292   18.2660 H   0  0  0  0  0  0  0  0  0  0  0  0
  1  2  1  0
  2  3  2  0
  3  4  1  0
  4  5  1  0
  4  6  2  0
  6  7  1  0
  7  8  1  0
  8  9  1  0
  9 10  1  0
  9 11  1  0
 11 12  2  0
 11 13  1  0
 13 14  1  0
 13 15  1  0
 15 16  2  0
 16 17  1  0
 16 18  1  0
 18 19  1  0
 18 20  2  0
 20 21  1  0
 20 22  1  0
 22 23  1  0
 22 24  2  0
 24 25  1  0
  8 26  2  0
 26 27  1  0
 26 28  1  0
 28 29  1  0
 29 30  2  0
  6 31  1  0
 31 32  1  0
 31 33  2  0
 33 34  1  0
 33  2  1  0
 29  7  1  0
 24 15  1  0
M  END
>  <cnnaffinity>  (1) 
-5.69775

>  <filename>  (1) 
[H]c1nc([H])c(-n2c(N([H])C(=S)N([H])c3c([H])c([H])c([H])c([H])c3[H])c([H])oc2=O)c([H])c1[H]

$$$$
