
     RDKit          3D

 32 34  0  0  0  0  0  0  0  0999 V2000
    5.0565    1.9877   16.9035 H   0  0  0  0  0  0  0  0  0  0  0  0
    5.5125    1.3904   17.6899 C   0  0  0  0  0  0  0  0  0  0  0  0
    6.6778    0.7921   17.3869 N   0  0  0  0  0  0  0  0  0  0  0  0
    7.2667    0.0606   18.3389 C   0  0  0  0  0  0  0  0  0  0  0  0
    8.2218   -0.3828   18.0797 H   0  0  0  0  0  0  0  0  0  0  0  0
    6.7078   -0.1444   19.6204 C   0  0  0  0  0  0  0  0  0  0  0  0
    7.3393   -0.9140   20.6242 N   0  0  0  0  0  0  0  0  0  0  0  0
    6.7845   -1.9352   21.4371 C   0  0  0  0  0  0  0  0  0  0  0  0
    5.6160   -2.2774   21.4839 O   0  0  0  0  0  0  0  0  0  0  0  0
    7.9411   -2.4432   22.1556 C   0  0  0  0  0  0  0  0  0  0  0  0
    7.8538   -3.2310   22.8833 H   0  0  0  0  0  0  0  0  0  0  0  0
    9.0450   -1.7756   21.7502 C   0  0  0  0  0  0  0  0  0  0  0  0
   10.4375   -1.7838   22.2772 C   0  0  0  0  0  0  0  0  0  0  0  0
   11.1344   -1.5841   21.4598 H   0  0  0  0  0  0  0  0  0  0  0  0
   10.6620   -2.7831   22.6597 H   0  0  0  0  0  0  0  0  0  0  0  0
   10.5953   -0.7548   23.3859 C   0  0  0  0  0  0  0  0  0  0  0  0
   10.1896   -1.0972   24.6833 C   0  0  0  0  0  0  0  0  0  0  0  0
    9.8495   -2.1140   24.8541 H   0  0  0  0  0  0  0  0  0  0  0  0
   10.1657   -0.1643   25.7187 C   0  0  0  0  0  0  0  0  0  0  0  0
    9.7944   -0.4621   26.6952 H   0  0  0  0  0  0  0  0  0  0  0  0
   10.5795    1.1461   25.4693 C   0  0  0  0  0  0  0  0  0  0  0  0
   10.5624    1.8843   26.2626 H   0  0  0  0  0  0  0  0  0  0  0  0
   11.0398    1.5069   24.2024 C   0  0  0  0  0  0  0  0  0  0  0  0
   11.3909    2.5106   23.9900 H   0  0  0  0  0  0  0  0  0  0  0  0
   11.0455    0.5574   23.1753 C   0  0  0  0  0  0  0  0  0  0  0  0
   11.6240    1.0601   21.6055 Cl  0  0  0  0  0  0  0  0  0  0  0  0
    8.7338   -0.8378   20.7688 N   0  0  0  0  0  0  0  0  0  0  0  0
    9.0376    0.1163   21.0021 H   0  0  0  0  0  0  0  0  0  0  0  0
    5.4920    0.4766   19.9190 C   0  0  0  0  0  0  0  0  0  0  0  0
    5.0608    0.3128   20.9039 H   0  0  0  0  0  0  0  0  0  0  0  0
    4.8961    1.2787   18.9421 C   0  0  0  0  0  0  0  0  0  0  0  0
    3.9752    1.8156   19.1460 H   0  0  0  0  0  0  0  0  0  0  0  0
  1  2  1  0
  2  3  2  0
  3  4  1  0
  4  5  1  0
  4  6  2  0
  6  7  1  0
  7  8  1  0
  8  9  2  0
  8 10  1  0
 10 11  1  0
 10 12  2  0
 12 13  1  0
 13 14  1  0
 13 15  1  0
 13 16  1  0
 16 17  2  0
 17 18  1  0
 17 19  1  0
 19 20  1  0
 19 21  2  0
 21 22  1  0
 21 23  1  0
 23 24  1  0
 23 25  2  0
 25 26  1  0
 12 27  1  0
 27 28  1  0
  6 29  1  0
 29 30  1  0
 29 31  2  0
 31 32  1  0
 31  2  1  0
 27  7  1  0
 25 16  1  0
M  END
>  <cnnaffinity>  (1) 
-5.14194

>  <filename>  (1) 
[H]c1nc([H])c(-n2c(=O)c([H])c(C([H])([H])c3c([H])c([H])c([H])c([H])c3Cl)n2[H])c([H])c1[H]

$$$$
