
     RDKit          3D

 28 29  0  0  0  0  0  0  0  0999 V2000
   12.6485    0.7694   23.5390 H   0  0  0  0  0  0  0  0  0  0  0  0
   13.4565    0.1590   23.1380 C   0  0  0  0  0  0  0  0  0  0  0  0
   14.4704    0.4931   23.3087 H   0  0  0  0  0  0  0  0  0  0  0  0
   13.2063   -0.9793   22.4937 C   0  0  0  0  0  0  0  0  0  0  0  0
   14.0044   -1.6505   22.1698 H   0  0  0  0  0  0  0  0  0  0  0  0
   11.8377   -1.5794   22.3830 C   0  0  0  0  0  0  0  0  0  0  0  0
   11.6559   -2.7503   22.6497 O   0  0  0  0  0  0  0  0  0  0  0  0
   10.8178   -0.7162   22.0436 N   0  0  0  0  0  0  0  0  0  0  0  0
   11.0250    0.0820   21.4657 H   0  0  0  0  0  0  0  0  0  0  0  0
    9.4700   -1.0686   22.0036 C   0  0  0  0  0  0  0  0  0  0  0  0
    8.7816   -0.4493   21.0085 N   0  0  0  0  0  0  0  0  0  0  0  0
    7.4879   -0.7018   20.8963 C   0  0  0  0  0  0  0  0  0  0  0  0
    6.7389    0.0353   19.8729 C   0  0  0  0  0  0  0  0  0  0  0  0
    7.2666    0.1286   18.5723 C   0  0  0  0  0  0  0  0  0  0  0  0
    8.2262   -0.3284   18.3323 H   0  0  0  0  0  0  0  0  0  0  0  0
    6.6300    0.7214   17.5591 N   0  0  0  0  0  0  0  0  0  0  0  0
    5.4485    1.3002   17.8250 C   0  0  0  0  0  0  0  0  0  0  0  0
    4.9536    1.7823   16.9849 H   0  0  0  0  0  0  0  0  0  0  0  0
    4.8547    1.2990   19.0898 C   0  0  0  0  0  0  0  0  0  0  0  0
    3.9102    1.8074   19.2413 H   0  0  0  0  0  0  0  0  0  0  0  0
    5.5026    0.6459   20.1360 C   0  0  0  0  0  0  0  0  0  0  0  0
    5.0566    0.5999   21.1311 H   0  0  0  0  0  0  0  0  0  0  0  0
    6.7617   -1.7210   21.7699 C   0  0  0  0  0  0  0  0  0  0  0  0
    5.6390   -2.1832   21.6673 O   0  0  0  0  0  0  0  0  0  0  0  0
    7.5639   -2.1937   22.8112 N   0  0  0  0  0  0  0  0  0  0  0  0
    7.0331   -2.8308   23.4003 H   0  0  0  0  0  0  0  0  0  0  0  0
    8.9073   -1.9300   22.9171 C   0  0  0  0  0  0  0  0  0  0  0  0
    9.5050   -2.4120   23.6827 H   0  0  0  0  0  0  0  0  0  0  0  0
  1  2  1  0
  2  3  1  0
  2  4  2  3
  4  5  1  0
  4  6  1  0
  6  7  2  0
  6  8  1  0
  8  9  1  0
  8 10  1  0
 10 11  1  0
 11 12  2  0
 12 13  1  0
 13 14  2  0
 14 15  1  0
 14 16  1  0
 16 17  2  0
 17 18  1  0
 17 19  1  0
 19 20  1  0
 19 21  2  0
 21 22  1  0
 12 23  1  0
 23 24  2  0
 23 25  1  0
 25 26  1  0
 25 27  1  0
 27 28  1  0
 27 10  2  0
 21 13  1  0
M  END
>  <cnnaffinity>  (1) 
-5.36552

>  <filename>  (1) 
[H]C([H])=C([H])C(=O)N([H])c1nc(-c2c([H])nc([H])c([H])c2[H])c(=O)n([H])c1[H]

$$$$
