
     RDKit          3D

 46 50  0  0  0  0  0  0  0  0999 V2000
   13.5065    3.1941   22.8138 C   0  0  0  0  0  0  0  0  0  0  0  0
   12.4045    4.0186   22.5813 C   0  0  0  0  0  0  0  0  0  0  0  0
   11.1677    3.4595   22.2532 C   0  0  0  0  0  0  0  0  0  0  0  0
   11.0376    2.0658   22.1748 C   0  0  0  0  0  0  0  0  0  0  0  0
    9.7370    1.4889   22.0632 N   0  0  0  0  0  0  0  0  0  0  0  0
    9.4258    0.4897   21.1985 N   0  0  0  0  0  0  0  0  0  0  0  0
    8.1976    0.1743   21.5588 C   0  0  0  0  0  0  0  0  0  0  0  0
    7.3851   -0.8189   20.7851 C   0  0  0  0  0  0  0  0  0  0  0  0
    6.6048   -0.1394   19.6669 C   0  0  0  0  0  0  0  0  0  0  0  0
    5.4388    0.5705   19.9824 C   0  0  0  0  0  0  0  0  0  0  0  0
    4.8060    1.3134   18.9835 C   0  0  0  0  0  0  0  0  0  0  0  0
    5.3710    1.3259   17.7042 C   0  0  0  0  0  0  0  0  0  0  0  0
    6.4764    0.6400   17.3759 N   0  0  0  0  0  0  0  0  0  0  0  0
    7.0684   -0.0722   18.3433 C   0  0  0  0  0  0  0  0  0  0  0  0
    7.9650   -0.6202   18.0478 H   0  0  0  0  0  0  0  0  0  0  0  0
    4.9125    1.9003   16.9009 H   0  0  0  0  0  0  0  0  0  0  0  0
    3.9025    1.8813   19.1807 H   0  0  0  0  0  0  0  0  0  0  0  0
    5.0564    0.5407   21.0057 H   0  0  0  0  0  0  0  0  0  0  0  0
    8.0677   -1.5823   20.4006 H   0  0  0  0  0  0  0  0  0  0  0  0
    6.6939   -1.2999   21.4852 H   0  0  0  0  0  0  0  0  0  0  0  0
    7.7071    0.8586   22.6232 N   0  0  0  0  0  0  0  0  0  0  0  0
    8.7061    1.6598   22.9423 C   0  0  0  0  0  0  0  0  0  0  0  0
    8.7529    2.6521   24.0344 C   0  0  2  0  0  0  0  0  0  0  0  0
    9.9837    2.7518   24.8837 C   0  0  0  0  0  0  0  0  0  0  0  0
    8.7103    2.2815   25.5096 C   0  0  1  0  0  0  0  0  0  0  0  0
    8.0131    3.1331   26.5161 C   0  0  0  0  0  0  0  0  0  0  0  0
    7.1248    2.5366   27.4164 C   0  0  0  0  0  0  0  0  0  0  0  0
    6.4922    3.3200   28.3810 C   0  0  0  0  0  0  0  0  0  0  0  0
    6.6906    4.6384   28.5123 N   0  0  0  0  0  0  0  0  0  0  0  0
    7.5380    5.2097   27.6483 C   0  0  0  0  0  0  0  0  0  0  0  0
    8.2110    4.5142   26.6461 C   0  0  0  0  0  0  0  0  0  0  0  0
    8.8739    5.0602   25.9884 H   0  0  0  0  0  0  0  0  0  0  0  0
    7.6852    6.2837   27.7622 H   0  0  0  0  0  0  0  0  0  0  0  0
    5.7911    2.8686   29.0807 H   0  0  0  0  0  0  0  0  0  0  0  0
    6.9251    1.4747   27.3679 H   0  0  0  0  0  0  0  0  0  0  0  0
    8.6245    1.2167   25.7300 H   0  0  0  0  0  0  0  0  0  0  0  0
   10.7901    2.0470   24.7053 H   0  0  0  0  0  0  0  0  0  0  0  0
   10.3173    3.7659   25.0547 H   0  0  0  0  0  0  0  0  0  0  0  0
    8.2337    3.5749   23.7696 H   0  0  0  0  0  0  0  0  0  0  0  0
   12.1428    1.2330   22.3969 C   0  0  0  0  0  0  0  0  0  0  0  0
   13.3780    1.8012   22.7270 C   0  0  0  0  0  0  0  0  0  0  0  0
   14.2368    1.1666   22.9289 H   0  0  0  0  0  0  0  0  0  0  0  0
   12.0109    0.1563   22.3438 H   0  0  0  0  0  0  0  0  0  0  0  0
   10.2909    4.0906   22.1617 H   0  0  0  0  0  0  0  0  0  0  0  0
   12.5179    5.0961   22.6352 H   0  0  0  0  0  0  0  0  0  0  0  0
   14.4624    3.6574   23.0239 H   0  0  0  0  0  0  0  0  0  0  0  0
  1  2  2  0
  2  3  1  0
  3  4  2  0
  4  5  1  0
  5  6  1  0
  6  7  2  0
  7  8  1  0
  8  9  1  0
  9 10  2  0
 10 11  1  0
 11 12  2  0
 12 13  1  0
 13 14  2  0
 14 15  1  0
 12 16  1  0
 11 17  1  0
 10 18  1  0
  8 19  1  0
  8 20  1  0
  7 21  1  0
 21 22  2  0
 22 23  1  0
 23 24  1  0
 24 25  1  0
 25 26  1  0
 26 27  2  0
 27 28  1  0
 28 29  2  0
 29 30  1  0
 30 31  2  0
 31 32  1  0
 30 33  1  0
 28 34  1  0
 27 35  1  0
 25 36  1  6
 24 37  1  0
 24 38  1  0
 23 39  1  6
  4 40  1  0
 40 41  2  0
 41 42  1  0
 40 43  1  0
  3 44  1  0
  2 45  1  0
  1 46  1  0
 41  1  1  0
 22  5  1  0
 25 23  1  0
 31 26  1  0
 14  9  1  0
M  END
>  <cnnaffinity>  (1) 
-5.81301

>  <filename>  (1) 
[H]c1nc([H])c(C([H])([H])c2nc([C@]3([H])C([H])([H])[C@@]3([H])c3c([H])c([H])nc([H])c3[H])n(-c3c([H])c([H])c([H])c([H])c3[H])n2)c([H])c1[H]

$$$$
