
     RDKit          3D

 35 38  0  0  0  0  0  0  0  0999 V2000
    8.7633    0.8512   20.5871 H   0  0  0  0  0  0  0  0  0  0  0  0
    9.0930   -0.0888   21.0307 C   0  0  0  0  0  0  0  0  0  0  0  0
    8.1884   -1.0210   21.3759 C   0  0  0  0  0  0  0  0  0  0  0  0
    6.7591   -1.0402   21.0023 C   0  0  0  0  0  0  0  0  0  0  0  0
    6.2391   -0.2217   19.8873 C   0  0  0  0  0  0  0  0  0  0  0  0
    6.9914   -0.1621   18.7079 C   0  0  0  0  0  0  0  0  0  0  0  0
    7.9174   -0.7317   18.6222 H   0  0  0  0  0  0  0  0  0  0  0  0
    6.6634    0.5839   17.6505 N   0  0  0  0  0  0  0  0  0  0  0  0
    5.5552    1.3316   17.7488 C   0  0  0  0  0  0  0  0  0  0  0  0
    5.3182    1.9452   16.8824 H   0  0  0  0  0  0  0  0  0  0  0  0
    4.7318    1.3417   18.8809 C   0  0  0  0  0  0  0  0  0  0  0  0
    3.8651    1.9920   18.8969 H   0  0  0  0  0  0  0  0  0  0  0  0
    5.0623    0.5340   19.9687 C   0  0  0  0  0  0  0  0  0  0  0  0
    4.4378    0.4931   20.8630 H   0  0  0  0  0  0  0  0  0  0  0  0
    6.0452   -1.8156   21.7262 N   0  0  0  0  0  0  0  0  0  0  0  0
    6.8913   -2.3811   22.7935 C   0  0  0  0  0  0  0  0  0  0  0  0
    6.6485   -3.4335   22.9584 H   0  0  0  0  0  0  0  0  0  0  0  0
    6.6684   -1.8481   23.7293 H   0  0  0  0  0  0  0  0  0  0  0  0
    8.3562   -2.1458   22.3697 C   0  0  0  0  0  0  0  0  0  0  0  0
    8.7497   -3.0404   21.8725 H   0  0  0  0  0  0  0  0  0  0  0  0
    9.0284   -1.8933   23.1913 H   0  0  0  0  0  0  0  0  0  0  0  0
   10.5271   -0.1936   21.2970 C   0  0  0  0  0  0  0  0  0  0  0  0
   11.1857   -1.4282   21.2315 C   0  0  0  0  0  0  0  0  0  0  0  0
   10.6498   -2.2761   20.8182 H   0  0  0  0  0  0  0  0  0  0  0  0
   12.5100   -1.5801   21.6622 C   0  0  0  0  0  0  0  0  0  0  0  0
   13.0381   -2.5141   21.5687 H   0  0  0  0  0  0  0  0  0  0  0  0
   13.1362   -0.4662   22.1794 C   0  0  0  0  0  0  0  0  0  0  0  0
   12.5074    0.7832   22.1790 C   0  0  0  0  0  0  0  0  0  0  0  0
   11.2334    0.9632   21.7024 C   0  0  0  0  0  0  0  0  0  0  0  0
   10.7957    1.9529   21.6597 H   0  0  0  0  0  0  0  0  0  0  0  0
   13.3608    1.7273   22.6656 O   0  0  0  0  0  0  0  0  0  0  0  0
   14.4459    0.9832   23.1937 C   0  0  0  0  0  0  0  0  0  0  0  0
   15.3754    1.4586   22.8861 H   0  0  0  0  0  0  0  0  0  0  0  0
   14.3340    0.9371   24.2846 H   0  0  0  0  0  0  0  0  0  0  0  0
   14.4056   -0.3374   22.6642 O   0  0  0  0  0  0  0  0  0  0  0  0
  1  2  1  0
  2  3  2  3
  3  4  1  0
  4  5  1  0
  5  6  2  0
  6  7  1  0
  6  8  1  0
  8  9  2  0
  9 10  1  0
  9 11  1  0
 11 12  1  0
 11 13  2  0
 13 14  1  0
  4 15  2  0
 15 16  1  0
 16 17  1  0
 16 18  1  0
 16 19  1  0
 19 20  1  0
 19 21  1  0
  2 22  1  0
 22 23  2  0
 23 24  1  0
 23 25  1  0
 25 26  1  0
 25 27  2  0
 27 28  1  0
 28 29  2  0
 29 30  1  0
 28 31  1  0
 31 32  1  0
 32 33  1  0
 32 34  1  0
 32 35  1  0
 19  3  1  0
 29 22  1  0
 13  5  1  0
 35 27  1  0
M  END
>  <cnnaffinity>  (1) 
-5.85239

>  <filename>  (1) 
[H]C(=C1C(c2c([H])nc([H])c([H])c2[H])=NC([H])([H])C1([H])[H])c1c([H])c([H])c2c(c1[H])OC([H])([H])O2

$$$$
