
     RDKit          3D

 29 31  0  0  0  0  0  0  0  0999 V2000
   13.8654    1.2295   24.0726 F   0  0  0  0  0  0  0  0  0  0  0  0
   12.9136    0.3717   23.6793 C   0  0  0  0  0  0  0  0  0  0  0  0
   11.8019    0.1799   24.5012 C   0  0  0  0  0  0  0  0  0  0  0  0
   10.8020   -0.7028   24.0872 C   0  0  0  0  0  0  0  0  0  0  0  0
   10.9440   -1.4064   22.8805 C   0  0  0  0  0  0  0  0  0  0  0  0
    9.9168   -2.4091   22.4032 C   0  0  0  0  0  0  0  0  0  0  0  0
    9.6611   -3.3785   23.3584 F   0  0  0  0  0  0  0  0  0  0  0  0
    8.6523   -1.7310   21.9761 C   0  0  0  0  0  0  0  0  0  0  0  0
    8.3632   -1.3248   20.7787 N   0  0  0  0  0  0  0  0  0  0  0  0
    7.1745   -0.6564   20.9999 C   0  0  0  0  0  0  0  0  0  0  0  0
    6.4924    0.0396   19.9191 C   0  0  0  0  0  0  0  0  0  0  0  0
    5.2878    0.7365   20.0863 C   0  0  0  0  0  0  0  0  0  0  0  0
    4.7507    1.3742   18.9719 C   0  0  0  0  0  0  0  0  0  0  0  0
    5.4360    1.3151   17.7519 C   0  0  0  0  0  0  0  0  0  0  0  0
    6.5948    0.6574   17.5902 N   0  0  0  0  0  0  0  0  0  0  0  0
    7.1052    0.0373   18.6576 C   0  0  0  0  0  0  0  0  0  0  0  0
    8.0469   -0.4879   18.5237 H   0  0  0  0  0  0  0  0  0  0  0  0
    5.0361    1.8151   16.8702 H   0  0  0  0  0  0  0  0  0  0  0  0
    3.8217    1.9269   19.0378 H   0  0  0  0  0  0  0  0  0  0  0  0
    4.8081    0.7867   21.0659 H   0  0  0  0  0  0  0  0  0  0  0  0
    6.7721   -0.6738   22.2404 N   0  0  0  0  0  0  0  0  0  0  0  0
    7.7622   -1.3866   22.8930 O   0  0  0  0  0  0  0  0  0  0  0  0
   10.2886   -2.8982   21.5077 H   0  0  0  0  0  0  0  0  0  0  0  0
   12.0501   -1.1570   22.0571 C   0  0  0  0  0  0  0  0  0  0  0  0
   13.0640   -0.2857   22.4576 C   0  0  0  0  0  0  0  0  0  0  0  0
   13.9214   -0.0801   21.8244 H   0  0  0  0  0  0  0  0  0  0  0  0
   12.1283   -1.6429   21.0830 H   0  0  0  0  0  0  0  0  0  0  0  0
    9.9057   -0.8192   24.6973 H   0  0  0  0  0  0  0  0  0  0  0  0
   11.7274    0.7072   25.4467 H   0  0  0  0  0  0  0  0  0  0  0  0
  1  2  1  0
  2  3  2  0
  3  4  1  0
  4  5  2  0
  5  6  1  0
  6  7  1  0
  6  8  1  0
  8  9  2  0
  9 10  1  0
 10 11  1  0
 11 12  2  0
 12 13  1  0
 13 14  2  0
 14 15  1  0
 15 16  2  0
 16 17  1  0
 14 18  1  0
 13 19  1  0
 12 20  1  0
 10 21  2  0
 21 22  1  0
  6 23  1  0
  5 24  1  0
 24 25  2  0
 25 26  1  0
 24 27  1  0
  4 28  1  0
  3 29  1  0
 25  2  1  0
 22  8  1  0
 16 11  1  0
M  END
>  <cnnaffinity>  (1) 
-5.27675

>  <filename>  (1) 
[H]c1nc([H])c(-c2noc(C([H])(F)c3c([H])c([H])c(F)c([H])c3[H])n2)c([H])c1[H]

$$$$
