
     RDKit          3D

 28 30  0  0  0  0  0  0  0  0999 V2000
    4.9308    1.8126   16.9870 H   0  0  0  0  0  0  0  0  0  0  0  0
    5.3913    1.2964   17.8267 C   0  0  0  0  0  0  0  0  0  0  0  0
    6.5536    0.6805   17.5595 N   0  0  0  0  0  0  0  0  0  0  0  0
    7.1496    0.0305   18.5647 C   0  0  0  0  0  0  0  0  0  0  0  0
    8.1064   -0.4376   18.3367 H   0  0  0  0  0  0  0  0  0  0  0  0
    6.6365   -0.0515   19.8712 C   0  0  0  0  0  0  0  0  0  0  0  0
    7.5979   -0.8803   21.1154 S   0  0  0  0  0  0  0  0  0  0  0  0
    8.6141    0.5523   21.6670 C   0  0  0  0  0  0  0  0  0  0  0  0
    9.3435    0.1479   22.3727 H   0  0  0  0  0  0  0  0  0  0  0  0
    9.1373    0.9535   20.7946 H   0  0  0  0  0  0  0  0  0  0  0  0
    7.8242    1.6275   22.3403 C   0  0  0  0  0  0  0  0  0  0  0  0
    7.3469    1.5555   23.5521 N   0  0  0  0  0  0  0  0  0  0  0  0
    6.5845    2.7045   23.7015 C   0  0  0  0  0  0  0  0  0  0  0  0
    5.8253    3.1367   24.7994 C   0  0  0  0  0  0  0  0  0  0  0  0
    5.8020    2.5061   25.6843 H   0  0  0  0  0  0  0  0  0  0  0  0
    5.1492    4.3513   24.6978 C   0  0  0  0  0  0  0  0  0  0  0  0
    4.5695    4.7055   25.5445 H   0  0  0  0  0  0  0  0  0  0  0  0
    5.2112    5.1256   23.5147 C   0  0  0  0  0  0  0  0  0  0  0  0
    4.6731    6.0719   23.4714 H   0  0  0  0  0  0  0  0  0  0  0  0
    5.9479    4.7019   22.4096 C   0  0  0  0  0  0  0  0  0  0  0  0
    5.9915    5.2876   21.4940 H   0  0  0  0  0  0  0  0  0  0  0  0
    6.6364    3.4870   22.5327 C   0  0  0  0  0  0  0  0  0  0  0  0
    7.4720    2.7814   21.6870 N   0  0  0  0  0  0  0  0  0  0  0  0
    7.6266    2.9916   20.7172 H   0  0  0  0  0  0  0  0  0  0  0  0
    5.4228    0.6024   20.1413 C   0  0  0  0  0  0  0  0  0  0  0  0
    5.0238    0.6161   21.1572 H   0  0  0  0  0  0  0  0  0  0  0  0
    4.7956    1.2890   19.0928 C   0  0  0  0  0  0  0  0  0  0  0  0
    3.8726    1.8373   19.2391 H   0  0  0  0  0  0  0  0  0  0  0  0
  1  2  1  0
  2  3  2  0
  3  4  1  0
  4  5  1  0
  4  6  2  0
  6  7  1  0
  7  8  1  0
  8  9  1  0
  8 10  1  0
  8 11  1  0
 11 12  2  0
 12 13  1  0
 13 14  2  0
 14 15  1  0
 14 16  1  0
 16 17  1  0
 16 18  2  0
 18 19  1  0
 18 20  1  0
 20 21  1  0
 20 22  2  0
 22 23  1  0
 23 24  1  0
  6 25  1  0
 25 26  1  0
 25 27  2  0
 27 28  1  0
 27  2  1  0
 23 11  1  0
 22 13  1  0
M  END
>  <cnnaffinity>  (1) 
-4.75517

>  <filename>  (1) 
[H]c1nc([H])c(SC([H])([H])c2nc3c([H])c([H])c([H])c([H])c3n2[H])c([H])c1[H]

$$$$
