
     RDKit          3D

 44 47  0  0  0  0  0  0  0  0999 V2000
   11.8640    3.2431   22.4238 C   0  0  0  0  0  0  0  0  0  0  0  0
   11.5599    1.7584   22.2013 C   0  0  0  0  0  0  0  0  0  0  0  0
   10.1284    1.4053   22.2094 N   0  0  0  0  0  0  0  0  0  0  0  0
    9.7710    0.3640   21.4100 N   0  0  0  0  0  0  0  0  0  0  0  0
    8.4636    0.3055   21.5492 C   0  0  0  0  0  0  0  0  0  0  0  0
    7.5708   -0.6841   20.8506 C   0  0  0  0  0  0  0  0  0  0  0  0
    6.7369   -0.0703   19.7291 C   0  0  0  0  0  0  0  0  0  0  0  0
    5.5481    0.6046   20.0399 C   0  0  0  0  0  0  0  0  0  0  0  0
    4.8765    1.2886   19.0229 C   0  0  0  0  0  0  0  0  0  0  0  0
    5.4189    1.2788   17.7351 C   0  0  0  0  0  0  0  0  0  0  0  0
    6.5415    0.6195   17.4079 N   0  0  0  0  0  0  0  0  0  0  0  0
    7.1685   -0.0394   18.3907 C   0  0  0  0  0  0  0  0  0  0  0  0
    8.0807   -0.5645   18.1046 H   0  0  0  0  0  0  0  0  0  0  0  0
    4.9299    1.8231   16.9283 H   0  0  0  0  0  0  0  0  0  0  0  0
    3.9609    1.8361   19.2181 H   0  0  0  0  0  0  0  0  0  0  0  0
    5.1881    0.6136   21.0725 H   0  0  0  0  0  0  0  0  0  0  0  0
    6.9031   -1.0837   21.6229 H   0  0  0  0  0  0  0  0  0  0  0  0
    8.1825   -1.5166   20.4925 H   0  0  0  0  0  0  0  0  0  0  0  0
    7.9493    1.2183   22.4069 N   0  0  0  0  0  0  0  0  0  0  0  0
    9.0038    1.8940   22.8174 C   0  0  0  0  0  0  0  0  0  0  0  0
    8.9392    2.9322   23.8799 C   0  0  0  0  0  0  0  0  0  0  0  0
    8.8820    2.5216   25.2277 C   0  0  0  0  0  0  0  0  0  0  0  0
    8.8216    3.4619   26.2606 C   0  0  0  0  0  0  0  0  0  0  0  0
    8.8403    4.8194   25.9471 C   0  0  0  0  0  0  0  0  0  0  0  0
    8.8943    6.0606   26.8021 C   0  0  0  0  0  0  0  0  0  0  0  0
    8.6919    7.1763   25.7471 C   0  0  0  0  0  0  0  0  0  0  0  0
    8.8367    6.5713   24.4464 O   0  0  0  0  0  0  0  0  0  0  0  0
    8.8406    5.2210   24.6093 C   0  0  0  0  0  0  0  0  0  0  0  0
    8.8905    4.3054   23.5625 C   0  0  0  0  0  0  0  0  0  0  0  0
    8.8921    4.6569   22.5337 H   0  0  0  0  0  0  0  0  0  0  0  0
    9.4398    7.9747   25.8055 H   0  0  0  0  0  0  0  0  0  0  0  0
    7.6834    7.6035   25.8145 H   0  0  0  0  0  0  0  0  0  0  0  0
    8.1200    6.0682   27.5737 H   0  0  0  0  0  0  0  0  0  0  0  0
    9.8591    6.1560   27.3122 H   0  0  0  0  0  0  0  0  0  0  0  0
    8.7463    3.1253   27.2926 H   0  0  0  0  0  0  0  0  0  0  0  0
    8.8804    1.4546   25.4622 H   0  0  0  0  0  0  0  0  0  0  0  0
   12.3704    0.8226   23.1257 C   0  0  0  0  0  0  0  0  0  0  0  0
   13.6837    1.1260   23.0282 F   0  0  0  0  0  0  0  0  0  0  0  0
   12.2509   -0.4665   22.7991 F   0  0  0  0  0  0  0  0  0  0  0  0
   12.0136    0.9544   24.4182 F   0  0  0  0  0  0  0  0  0  0  0  0
   11.8784    1.4946   21.1901 H   0  0  0  0  0  0  0  0  0  0  0  0
   11.9748    3.5040   23.4816 H   0  0  0  0  0  0  0  0  0  0  0  0
   11.0582    3.8536   22.0206 H   0  0  0  0  0  0  0  0  0  0  0  0
   12.7735    3.5250   21.8820 H   0  0  0  0  0  0  0  0  0  0  0  0
  1  2  1  0
  2  3  1  0
  3  4  1  0
  4  5  2  0
  5  6  1  0
  6  7  1  0
  7  8  2  0
  8  9  1  0
  9 10  2  0
 10 11  1  0
 11 12  2  0
 12 13  1  0
 10 14  1  0
  9 15  1  0
  8 16  1  0
  6 17  1  0
  6 18  1  0
  5 19  1  0
 19 20  2  0
 20 21  1  0
 21 22  2  0
 22 23  1  0
 23 24  2  0
 24 25  1  0
 25 26  1  0
 26 27  1  0
 27 28  1  0
 28 29  2  0
 29 30  1  0
 26 31  1  0
 26 32  1  0
 25 33  1  0
 25 34  1  0
 23 35  1  0
 22 36  1  0
  2 37  1  0
 37 38  1  0
 37 39  1  0
 37 40  1  0
  2 41  1  0
  1 42  1  0
  1 43  1  0
  1 44  1  0
 20  3  1  0
 29 21  1  0
 12  7  1  0
 28 24  1  0
M  END
>  <cnnaffinity>  (1) 
-5.95977

>  <filename>  (1) 
[H]c1nc([H])c(C([H])([H])c2nc(-c3c([H])c([H])c4c(c3[H])OC([H])([H])C4([H])[H])n(C([H])(C([H])([H])[H])C(F)(F)F)n2)c([H])c1[H]

$$$$
