
     RDKit          3D

 39 42  0  0  0  0  0  0  0  0999 V2000
   11.0146   -1.0134   23.5422 F   0  0  0  0  0  0  0  0  0  0  0  0
   11.1985   -1.5802   22.3347 C   0  0  0  0  0  0  0  0  0  0  0  0
   12.2960   -2.3526   22.3921 F   0  0  0  0  0  0  0  0  0  0  0  0
   11.4543   -0.6004   21.4642 F   0  0  0  0  0  0  0  0  0  0  0  0
   10.0082   -2.4649   21.9906 C   0  0  0  0  0  0  0  0  0  0  0  0
    8.7396   -1.7765   21.9366 N   0  0  0  0  0  0  0  0  0  0  0  0
    8.4291   -1.2736   20.7271 N   0  0  0  0  0  0  0  0  0  0  0  0
    7.3019   -0.6343   20.9443 C   0  0  0  0  0  0  0  0  0  0  0  0
    6.5969    0.0484   19.8815 C   0  0  0  0  0  0  0  0  0  0  0  0
    5.3826    0.7035   20.1100 C   0  0  0  0  0  0  0  0  0  0  0  0
    4.7847    1.3410   19.0292 C   0  0  0  0  0  0  0  0  0  0  0  0
    5.4229    1.3070   17.7826 C   0  0  0  0  0  0  0  0  0  0  0  0
    6.5842    0.6709   17.5584 N   0  0  0  0  0  0  0  0  0  0  0  0
    7.1548    0.0565   18.5966 C   0  0  0  0  0  0  0  0  0  0  0  0
    8.1003   -0.4529   18.4109 H   0  0  0  0  0  0  0  0  0  0  0  0
    4.9923    1.8116   16.9217 H   0  0  0  0  0  0  0  0  0  0  0  0
    3.8472    1.8729   19.1399 H   0  0  0  0  0  0  0  0  0  0  0  0
    4.9497    0.7059   21.1132 H   0  0  0  0  0  0  0  0  0  0  0  0
    6.8690   -0.6812   22.2250 N   0  0  0  0  0  0  0  0  0  0  0  0
    7.7746   -1.4175   22.8354 C   0  0  0  0  0  0  0  0  0  0  0  0
    7.7461   -1.8884   24.2609 C   0  0  0  0  0  0  0  0  0  0  0  0
    7.2275   -0.8075   25.2582 C   0  0  0  0  0  0  0  0  0  0  0  0
    6.1929   -1.5124   26.0951 C   0  0  0  0  0  0  0  0  0  0  0  0
    5.4368   -1.0212   27.1679 C   0  0  0  0  0  0  0  0  0  0  0  0
    4.4953   -1.8745   27.7523 C   0  0  0  0  0  0  0  0  0  0  0  0
    4.2829   -3.1331   27.3416 N   0  0  0  0  0  0  0  0  0  0  0  0
    5.0164   -3.5918   26.3164 C   0  0  0  0  0  0  0  0  0  0  0  0
    5.9846   -2.8180   25.6622 C   0  0  0  0  0  0  0  0  0  0  0  0
    6.8630   -3.1669   24.4838 C   0  0  0  0  0  0  0  0  0  0  0  0
    6.2521   -3.4188   23.6075 H   0  0  0  0  0  0  0  0  0  0  0  0
    7.4906   -4.0426   24.6928 H   0  0  0  0  0  0  0  0  0  0  0  0
    4.8098   -4.6205   26.0105 H   0  0  0  0  0  0  0  0  0  0  0  0
    3.8793   -1.5250   28.5838 H   0  0  0  0  0  0  0  0  0  0  0  0
    5.5541   -0.0126   27.5445 H   0  0  0  0  0  0  0  0  0  0  0  0
    8.0512   -0.4230   25.8695 H   0  0  0  0  0  0  0  0  0  0  0  0
    6.7751    0.0475   24.7428 H   0  0  0  0  0  0  0  0  0  0  0  0
    8.7833   -2.1297   24.5232 H   0  0  0  0  0  0  0  0  0  0  0  0
   10.1668   -2.8377   20.9801 H   0  0  0  0  0  0  0  0  0  0  0  0
    9.9818   -3.2876   22.7051 H   0  0  0  0  0  0  0  0  0  0  0  0
  1  2  1  0
  2  3  1  0
  2  4  1  0
  2  5  1  0
  5  6  1  0
  6  7  1  0
  7  8  2  0
  8  9  1  0
  9 10  2  0
 10 11  1  0
 11 12  2  0
 12 13  1  0
 13 14  2  0
 14 15  1  0
 12 16  1  0
 11 17  1  0
 10 18  1  0
  8 19  1  0
 19 20  2  0
 20 21  1  0
 21 22  1  0
 22 23  1  0
 23 24  2  0
 24 25  1  0
 25 26  2  0
 26 27  1  0
 27 28  2  0
 28 29  1  0
 29 30  1  0
 29 31  1  0
 27 32  1  0
 25 33  1  0
 24 34  1  0
 22 35  1  0
 22 36  1  0
 21 37  1  0
  5 38  1  0
  5 39  1  0
 20  6  1  0
 29 21  1  0
 14  9  1  0
 28 23  1  0
M  END
>  <cnnaffinity>  (1) 
-6.25902

>  <filename>  (1) 
[H]c1nc([H])c(-c2nc(C3([H])C([H])([H])c4c([H])nc([H])c([H])c4C3([H])[H])n(C([H])([H])C(F)(F)F)n2)c([H])c1[H]

$$$$
