
     RDKit          3D

 46 50  0  0  0  0  0  0  0  0999 V2000
    8.0338    4.5858   22.5632 C   0  0  0  0  0  0  0  0  0  0  0  0
    8.0691    4.3447   22.2890 C   0  0  0  0  0  0  0  0  0  0  0  0
    7.2962    3.8408   23.7697 C   0  0  0  0  0  0  0  0  0  0  0  0
    8.0237    2.6808   24.4439 C   0  0  0  0  0  0  0  0  0  0  0  0
    8.2182    1.6238   23.4067 C   0  0  0  0  0  0  0  0  0  0  0  0
    7.2107    0.9226   22.9249 N   0  0  0  0  0  0  0  0  0  0  0  0
    7.7839    0.1472   21.9720 C   0  0  0  0  0  0  0  0  0  0  0  0
    6.9986   -0.7748   21.0803 C   0  0  0  0  0  0  0  0  0  0  0  0
    6.4601   -0.0883   19.8277 C   0  0  0  0  0  0  0  0  0  0  0  0
    5.3553    0.7684   19.9243 C   0  0  0  0  0  0  0  0  0  0  0  0
    4.8968    1.4181   18.7764 C   0  0  0  0  0  0  0  0  0  0  0  0
    5.5670    1.2010   17.5700 C   0  0  0  0  0  0  0  0  0  0  0  0
    6.6281    0.3889   17.4518 N   0  0  0  0  0  0  0  0  0  0  0  0
    7.0531   -0.2317   18.5613 C   0  0  0  0  0  0  0  0  0  0  0  0
    7.9204   -0.8826   18.4407 H   0  0  0  0  0  0  0  0  0  0  0  0
    5.2444    1.7046   16.6597 H   0  0  0  0  0  0  0  0  0  0  0  0
    4.0508    2.0967   18.8059 H   0  0  0  0  0  0  0  0  0  0  0  0
    4.8802    0.9266   20.8942 H   0  0  0  0  0  0  0  0  0  0  0  0
    7.6459   -1.6187   20.8213 H   0  0  0  0  0  0  0  0  0  0  0  0
    6.1676   -1.1642   21.6793 H   0  0  0  0  0  0  0  0  0  0  0  0
    9.0776    0.3342   21.8146 N   0  0  0  0  0  0  0  0  0  0  0  0
    9.3734    1.2642   22.7688 N   0  0  0  0  0  0  0  0  0  0  0  0
   10.6735    1.8928   22.7456 C   0  0  0  0  0  0  0  0  0  0  0  0
   11.6883    1.5459   23.6960 C   0  0  0  0  0  0  0  0  0  0  0  0
   12.9302    2.1657   23.6528 C   0  0  0  0  0  0  0  0  0  0  0  0
   13.1425    3.1606   22.6746 C   0  0  0  0  0  0  0  0  0  0  0  0
   14.2221    3.9447   22.3937 N   0  0  0  0  0  0  0  0  0  0  0  0
   14.0134    4.7591   21.3288 N   0  0  0  0  0  0  0  0  0  0  0  0
   12.7809    4.5103   20.9274 C   0  0  0  0  0  0  0  0  0  0  0  0
   12.1602    3.4949   21.7212 C   0  0  0  0  0  0  0  0  0  0  0  0
   10.9460    2.7593   21.7016 C   0  0  0  0  0  0  0  0  0  0  0  0
   10.2882    2.7656   20.8438 H   0  0  0  0  0  0  0  0  0  0  0  0
   12.3523    5.0463   20.0901 H   0  0  0  0  0  0  0  0  0  0  0  0
   15.1490    3.8206   22.7757 H   0  0  0  0  0  0  0  0  0  0  0  0
   13.7251    1.8716   24.3221 H   0  0  0  0  0  0  0  0  0  0  0  0
   11.4911    0.7750   24.4372 H   0  0  0  0  0  0  0  0  0  0  0  0
    8.9770    3.0200   24.8458 H   0  0  0  0  0  0  0  0  0  0  0  0
    7.3792    2.2793   25.2244 H   0  0  0  0  0  0  0  0  0  0  0  0
    6.1499    4.1344   24.2251 N   0  0  0  0  0  0  0  0  0  0  0  0
    5.4218    5.1513   23.5305 C   0  0  0  0  0  0  0  0  0  0  0  0
    5.8758    5.8221   22.5443 N   0  0  0  0  0  0  0  0  0  0  0  0
    5.1754    6.4685   22.1912 H   0  0  0  0  0  0  0  0  0  0  0  0
    4.4224    5.2812   23.9525 H   0  0  0  0  0  0  0  0  0  0  0  0
    7.8391    3.2818   21.3846 H   0  0  0  0  0  0  0  0  0  0  0  0
    9.2210    4.3739   22.5474 H   0  0  0  0  0  0  0  0  0  0  0  0
    7.9171    5.2809   21.5509 H   0  0  0  0  0  0  0  0  0  0  0  0
  1  2  1  0
  2  3  2  0
  3  4  1  0
  4  5  1  0
  5  6  2  0
  6  7  1  0
  7  8  1  0
  8  9  1  0
  9 10  2  0
 10 11  1  0
 11 12  2  0
 12 13  1  0
 13 14  2  0
 14 15  1  0
 12 16  1  0
 11 17  1  0
 10 18  1  0
  8 19  1  0
  8 20  1  0
  7 21  2  0
 21 22  1  0
 22 23  1  0
 23 24  2  0
 24 25  1  0
 25 26  2  0
 26 27  1  0
 27 28  1  0
 28 29  2  0
 29 30  1  0
 30 31  2  0
 31 32  1  0
 29 33  1  0
 27 34  1  0
 25 35  1  0
 24 36  1  0
  4 37  1  0
  4 38  1  0
  3 39  1  0
 39 40  2  0
 40 41  1  0
 41 42  1  0
 40 43  1  0
  1 44  1  0
  1 45  1  0
  1 46  1  0
 41  2  1  0
 22  5  1  0
 31 23  1  0
 14  9  1  0
 30 26  1  0
M  END
>  <cnnaffinity>  (1) 
-6.45992

>  <filename>  (1) 
[H]c1nc([H])c(C([H])([H])c2nc(C([H])([H])c3nc([H])n([H])c3C([H])([H])[H])n(-c3c([H])c([H])c4c(c([H])nn4[H])c3[H])n2)c([H])c1[H]

$$$$
