
     RDKit          3D

 40 43  0  0  0  0  0  0  0  0999 V2000
    7.5715    1.7712   22.2618 O   0  0  0  0  0  0  0  0  0  0  0  0
    8.0307    1.8139   23.3787 C   0  0  0  0  0  0  0  0  0  0  0  0
    7.9887    2.9221   24.3578 C   0  0  0  0  0  0  0  0  0  0  0  0
    8.3211    2.5015   25.6447 C   0  0  0  0  0  0  0  0  0  0  0  0
    8.2373    3.3379   26.7588 C   0  0  0  0  0  0  0  0  0  0  0  0
    7.9348    4.6797   26.5160 C   0  0  0  0  0  0  0  0  0  0  0  0
    7.6520    5.1509   25.2201 C   0  0  0  0  0  0  0  0  0  0  0  0
    7.6875    4.2725   24.1401 C   0  0  0  0  0  0  0  0  0  0  0  0
    7.4331    4.7145   22.9094 F   0  0  0  0  0  0  0  0  0  0  0  0
    7.4037    6.1907   25.0281 H   0  0  0  0  0  0  0  0  0  0  0  0
    7.9423    5.3778   27.3471 H   0  0  0  0  0  0  0  0  0  0  0  0
    8.3988    2.9830   27.7710 H   0  0  0  0  0  0  0  0  0  0  0  0
    9.0285    0.8952   25.5717 S   0  0  0  0  0  0  0  0  0  0  0  0
   10.4694    0.9666   25.7268 O   0  0  0  0  0  0  0  0  0  0  0  0
    8.2736   -0.0771   26.3396 O   0  0  0  0  0  0  0  0  0  0  0  0
    8.6761    0.7420   23.9513 N   0  0  0  0  0  0  0  0  0  0  0  0
    8.8964   -0.5198   23.2684 C   0  0  0  0  0  0  0  0  0  0  0  0
    7.6353   -1.3479   23.1408 C   0  0  0  0  0  0  0  0  0  0  0  0
    7.0983   -2.0299   24.2448 C   0  0  0  0  0  0  0  0  0  0  0  0
    6.0433   -2.9332   24.0749 C   0  0  0  0  0  0  0  0  0  0  0  0
    5.4894   -3.1392   22.8075 C   0  0  0  0  0  0  0  0  0  0  0  0
    5.9566   -2.4036   21.7110 C   0  0  0  0  0  0  0  0  0  0  0  0
    7.0032   -1.4955   21.8909 C   0  0  0  0  0  0  0  0  0  0  0  0
    7.5452   -0.8107   20.8174 O   0  0  0  0  0  0  0  0  0  0  0  0
    6.7709   -0.1042   19.9265 C   0  0  0  0  0  0  0  0  0  0  0  0
    5.6016    0.5930   20.2484 C   0  0  0  0  0  0  0  0  0  0  0  0
    4.9408    1.2615   19.2059 C   0  0  0  0  0  0  0  0  0  0  0  0
    5.4744    1.2263   17.9141 C   0  0  0  0  0  0  0  0  0  0  0  0
    6.6127    0.5797   17.6086 N   0  0  0  0  0  0  0  0  0  0  0  0
    7.2447   -0.0563   18.6009 C   0  0  0  0  0  0  0  0  0  0  0  0
    8.1763   -0.5630   18.3561 H   0  0  0  0  0  0  0  0  0  0  0  0
    4.9735    1.7302   17.0898 H   0  0  0  0  0  0  0  0  0  0  0  0
    4.0268    1.8192   19.3822 H   0  0  0  0  0  0  0  0  0  0  0  0
    5.2351    0.6247   21.2753 H   0  0  0  0  0  0  0  0  0  0  0  0
    5.5265   -2.5031   20.7201 H   0  0  0  0  0  0  0  0  0  0  0  0
    4.6668   -3.8379   22.6857 H   0  0  0  0  0  0  0  0  0  0  0  0
    5.6590   -3.4762   24.9348 H   0  0  0  0  0  0  0  0  0  0  0  0
    7.5009   -1.8460   25.2390 H   0  0  0  0  0  0  0  0  0  0  0  0
    9.6649   -1.0854   23.8095 H   0  0  0  0  0  0  0  0  0  0  0  0
    9.2739   -0.2867   22.2673 H   0  0  0  0  0  0  0  0  0  0  0  0
  1  2  2  0
  2  3  1  0
  3  4  2  0
  4  5  1  0
  5  6  2  0
  6  7  1  0
  7  8  2  0
  8  9  1  0
  7 10  1  0
  6 11  1  0
  5 12  1  0
  4 13  1  0
 13 14  2  0
 13 15  2  0
 13 16  1  0
 16 17  1  0
 17 18  1  0
 18 19  2  0
 19 20  1  0
 20 21  2  0
 21 22  1  0
 22 23  2  0
 23 24  1  0
 24 25  1  0
 25 26  2  0
 26 27  1  0
 27 28  2  0
 28 29  1  0
 29 30  2  0
 30 31  1  0
 28 32  1  0
 27 33  1  0
 26 34  1  0
 22 35  1  0
 21 36  1  0
 20 37  1  0
 19 38  1  0
 17 39  1  0
 17 40  1  0
 16  2  1  0
 23 18  1  0
 30 25  1  0
  8  3  1  0
M  END
>  <cnnaffinity>  (1) 
-5.64022

>  <filename>  (1) 
[H]c1nc([H])c(Oc2c([H])c([H])c([H])c([H])c2C([H])([H])N2C(=O)c3c(F)c([H])c([H])c([H])c3S2(=O)=O)c([H])c1[H]

$$$$
