
     RDKit          3D

 34 35  0  0  0  0  0  0  0  0999 V2000
    4.9326    1.7764   16.9967 H   0  0  0  0  0  0  0  0  0  0  0  0
    5.4089    1.2873   17.8431 C   0  0  0  0  0  0  0  0  0  0  0  0
    6.5740    0.6661   17.5972 N   0  0  0  0  0  0  0  0  0  0  0  0
    7.1708    0.0524   18.6199 C   0  0  0  0  0  0  0  0  0  0  0  0
    8.1142   -0.4390   18.3857 H   0  0  0  0  0  0  0  0  0  0  0  0
    6.6532    0.0317   19.9177 C   0  0  0  0  0  0  0  0  0  0  0  0
    7.4105   -0.7015   20.9467 C   0  0  0  0  0  0  0  0  0  0  0  0
    8.0652   -1.7719   20.6882 N   0  0  0  0  0  0  0  0  0  0  0  0
    8.6457   -2.2317   21.9522 C   0  0  0  0  0  0  0  0  0  0  0  0
    9.7266   -2.3385   21.8327 H   0  0  0  0  0  0  0  0  0  0  0  0
    8.2636   -3.2247   22.2153 H   0  0  0  0  0  0  0  0  0  0  0  0
    8.2961   -1.1895   23.0308 C   0  0  0  0  0  0  0  0  0  0  0  0
    7.7516   -1.6144   23.8876 H   0  0  0  0  0  0  0  0  0  0  0  0
    9.1846   -0.6784   23.4385 H   0  0  0  0  0  0  0  0  0  0  0  0
    7.4502   -0.2787   22.2784 N   0  0  0  0  0  0  0  0  0  0  0  0
    7.0378    0.9669   22.7868 N   0  0  0  0  0  0  0  0  0  0  0  0
    6.2301    0.8252   24.0073 C   0  0  0  0  0  0  0  0  0  0  0  0
    6.8718    0.7474   24.9047 H   0  0  0  0  0  0  0  0  0  0  0  0
    5.7032   -0.1266   23.9482 H   0  0  0  0  0  0  0  0  0  0  0  0
    5.2166    1.9518   24.1865 C   0  0  0  0  0  0  0  0  0  0  0  0
    4.5611    1.7406   25.0395 H   0  0  0  0  0  0  0  0  0  0  0  0
    5.6966    2.9190   24.3715 H   0  0  0  0  0  0  0  0  0  0  0  0
    4.5896    2.0491   23.2946 H   0  0  0  0  0  0  0  0  0  0  0  0
    8.1469    1.9222   22.9380 C   0  0  0  0  0  0  0  0  0  0  0  0
    7.7377    2.8470   23.3613 H   0  0  0  0  0  0  0  0  0  0  0  0
    8.8915    1.5535   23.6649 H   0  0  0  0  0  0  0  0  0  0  0  0
    8.8251    2.2510   21.6169 C   0  0  0  0  0  0  0  0  0  0  0  0
    9.5699    3.0409   21.7602 H   0  0  0  0  0  0  0  0  0  0  0  0
    8.0914    2.5867   20.8793 H   0  0  0  0  0  0  0  0  0  0  0  0
    9.3334    1.3741   21.2037 H   0  0  0  0  0  0  0  0  0  0  0  0
    5.4311    0.6724   20.1694 C   0  0  0  0  0  0  0  0  0  0  0  0
    4.9930    0.6574   21.1727 H   0  0  0  0  0  0  0  0  0  0  0  0
    4.8040    1.3077   19.1059 C   0  0  0  0  0  0  0  0  0  0  0  0
    3.8710    1.8413   19.2542 H   0  0  0  0  0  0  0  0  0  0  0  0
  1  2  1  0
  2  3  2  0
  3  4  1  0
  4  5  1  0
  4  6  2  0
  6  7  1  0
  7  8  2  0
  8  9  1  0
  9 10  1  0
  9 11  1  0
  9 12  1  0
 12 13  1  0
 12 14  1  0
 12 15  1  0
 15 16  1  0
 16 17  1  0
 17 18  1  0
 17 19  1  0
 17 20  1  0
 20 21  1  0
 20 22  1  0
 20 23  1  0
 16 24  1  0
 24 25  1  0
 24 26  1  0
 24 27  1  0
 27 28  1  0
 27 29  1  0
 27 30  1  0
  6 31  1  0
 31 32  1  0
 31 33  2  0
 33 34  1  0
 33  2  1  0
 15  7  1  0
M  END
>  <cnnaffinity>  (1) 
-4.49989

>  <filename>  (1) 
[H]c1nc([H])c(C2=NC([H])([H])C([H])([H])N2N(C([H])([H])C([H])([H])[H])C([H])([H])C([H])([H])[H])c([H])c1[H]

$$$$
