
     RDKit          3D

 43 46  0  0  0  0  0  0  0  0999 V2000
    4.9821    1.7547   17.0004 H   0  0  0  0  0  0  0  0  0  0  0  0
    5.4594    1.2527   17.8401 C   0  0  0  0  0  0  0  0  0  0  0  0
    6.6195    0.6294   17.5840 N   0  0  0  0  0  0  0  0  0  0  0  0
    7.2409    0.0429   18.6197 C   0  0  0  0  0  0  0  0  0  0  0  0
    8.1683   -0.4664   18.3757 H   0  0  0  0  0  0  0  0  0  0  0  0
    6.7751    0.0408   19.9737 C   0  0  0  0  0  0  0  0  0  0  0  0
    7.4936   -0.4853   21.0386 N   0  0  0  0  0  0  0  0  0  0  0  0
    8.7622   -1.1870   20.8675 C   0  0  0  0  0  0  0  0  0  0  0  0
    8.7102   -1.9017   20.0383 H   0  0  0  0  0  0  0  0  0  0  0  0
    9.5666   -0.4796   20.6293 H   0  0  0  0  0  0  0  0  0  0  0  0
    9.0232   -1.8820   22.1886 C   0  0  1  0  0  0  0  0  0  0  0  0
   10.0497   -1.9835   22.5122 H   0  0  0  0  0  0  0  0  0  0  0  0
    7.9055   -1.5305   23.1213 C   0  0  1  0  0  0  0  0  0  0  0  0
    8.0665   -1.3055   24.1697 H   0  0  0  0  0  0  0  0  0  0  0  0
    6.8867   -0.7137   22.3508 C   0  0  0  0  0  0  0  0  0  0  0  0
    5.9477   -1.2790   22.2456 H   0  0  0  0  0  0  0  0  0  0  0  0
    6.6562    0.2331   22.8546 H   0  0  0  0  0  0  0  0  0  0  0  0
    8.0892   -2.9585   22.6772 C   0  0  1  0  0  0  0  0  0  0  0  0
    8.5053   -3.5863   23.4575 H   0  0  0  0  0  0  0  0  0  0  0  0
    7.0824   -3.6877   21.8085 C   0  0  0  0  0  0  0  0  0  0  0  0
    7.5909   -4.5370   21.3266 H   0  0  0  0  0  0  0  0  0  0  0  0
    6.7358   -3.0310   21.0002 H   0  0  0  0  0  0  0  0  0  0  0  0
    5.8495   -4.1751   22.6080 C   0  0  0  0  0  0  0  0  0  0  0  0
    5.6120   -3.4438   23.3972 H   0  0  0  0  0  0  0  0  0  0  0  0
    4.9701   -4.2010   21.9490 H   0  0  0  0  0  0  0  0  0  0  0  0
    5.9908   -5.5689   23.2570 C   0  0  0  0  0  0  0  0  0  0  0  0
    5.0309   -5.8509   23.7128 H   0  0  0  0  0  0  0  0  0  0  0  0
    6.1840   -6.3072   22.4649 H   0  0  0  0  0  0  0  0  0  0  0  0
    7.1008   -5.6625   24.2836 C   0  0  0  0  0  0  0  0  0  0  0  0
    8.3545   -6.1752   23.9122 C   0  0  0  0  0  0  0  0  0  0  0  0
    8.5003   -6.5406   22.8952 H   0  0  0  0  0  0  0  0  0  0  0  0
    9.3964   -6.2424   24.8388 C   0  0  0  0  0  0  0  0  0  0  0  0
   10.3467   -6.6575   24.5430 H   0  0  0  0  0  0  0  0  0  0  0  0
    9.2125   -5.7905   26.1482 C   0  0  0  0  0  0  0  0  0  0  0  0
   10.0341   -5.8367   26.8573 H   0  0  0  0  0  0  0  0  0  0  0  0
    7.9744   -5.2667   26.5301 C   0  0  0  0  0  0  0  0  0  0  0  0
    7.8287   -4.9093   27.5478 H   0  0  0  0  0  0  0  0  0  0  0  0
    6.9313   -5.1968   25.6005 C   0  0  0  0  0  0  0  0  0  0  0  0
    5.9756   -4.7745   25.9045 H   0  0  0  0  0  0  0  0  0  0  0  0
    5.5153    0.6518   20.1822 C   0  0  0  0  0  0  0  0  0  0  0  0
    5.0702    0.6425   21.1755 H   0  0  0  0  0  0  0  0  0  0  0  0
    4.8649    1.2672   19.1073 C   0  0  0  0  0  0  0  0  0  0  0  0
    3.9088    1.7686   19.2517 H   0  0  0  0  0  0  0  0  0  0  0  0
  1  2  1  0
  2  3  2  0
  3  4  1  0
  4  5  1  0
  4  6  2  0
  6  7  1  0
  7  8  1  0
  8  9  1  0
  8 10  1  0
  8 11  1  0
 11 12  1  1
 11 13  1  0
 13 14  1  1
 13 15  1  0
 15 16  1  0
 15 17  1  0
 13 18  1  0
 18 19  1  1
 18 20  1  0
 20 21  1  0
 20 22  1  0
 20 23  1  0
 23 24  1  0
 23 25  1  0
 23 26  1  0
 26 27  1  0
 26 28  1  0
 26 29  1  0
 29 30  2  0
 30 31  1  0
 30 32  1  0
 32 33  1  0
 32 34  2  0
 34 35  1  0
 34 36  1  0
 36 37  1  0
 36 38  2  0
 38 39  1  0
  6 40  1  0
 40 41  1  0
 40 42  2  0
 42 43  1  0
 42  2  1  0
 15  7  1  0
 38 29  1  0
 18 11  1  0
M  END
>  <cnnaffinity>  (1) 
-5.34445

>  <filename>  (1) 
[H]c1nc([H])c(N2C([H])([H])[C@@]3([H])[C@@]([H])(C2([H])[H])[C@@]3([H])C([H])([H])C([H])([H])C([H])([H])c2c([H])c([H])c([H])c([H])c2[H])c([H])c1[H]

$$$$
