
     RDKit          3D

 33 35  0  0  0  0  0  0  0  0999 V2000
   10.3980   -1.5860   22.1703 H   0  0  0  0  0  0  0  0  0  0  0  0
    9.3175   -1.4985   22.0523 C   0  0  0  0  0  0  0  0  0  0  0  0
    8.5847   -2.1520   22.9572 N   0  0  0  0  0  0  0  0  0  0  0  0
    7.2692   -1.9723   22.8556 C   0  0  0  0  0  0  0  0  0  0  0  0
    6.2481   -2.7004   24.1096 S   0  0  0  0  0  0  0  0  0  0  0  0
    6.0220   -1.2054   25.1690 C   0  0  0  0  0  0  0  0  0  0  0  0
    5.5492   -0.4064   24.5826 H   0  0  0  0  0  0  0  0  0  0  0  0
    5.3002   -1.5265   25.9295 H   0  0  0  0  0  0  0  0  0  0  0  0
    7.3093   -0.7205   25.8045 C   0  0  0  0  0  0  0  0  0  0  0  0
    7.8237   -1.3724   26.9381 C   0  0  0  0  0  0  0  0  0  0  0  0
    7.2614   -2.1890   27.3867 H   0  0  0  0  0  0  0  0  0  0  0  0
    9.0598   -1.0024   27.4713 C   0  0  0  0  0  0  0  0  0  0  0  0
    9.3961   -1.4349   28.3988 H   0  0  0  0  0  0  0  0  0  0  0  0
    9.8418   -0.0319   26.8413 C   0  0  0  0  0  0  0  0  0  0  0  0
   10.8505    0.1861   27.1863 H   0  0  0  0  0  0  0  0  0  0  0  0
    9.3092    0.6796   25.7661 C   0  0  0  0  0  0  0  0  0  0  0  0
    9.8730    1.5044   25.3388 H   0  0  0  0  0  0  0  0  0  0  0  0
    8.0403    0.3579   25.2729 C   0  0  0  0  0  0  0  0  0  0  0  0
    7.6202    0.9691   24.4780 H   0  0  0  0  0  0  0  0  0  0  0  0
    6.6332   -1.2911   21.9195 N   0  0  0  0  0  0  0  0  0  0  0  0
    7.3750   -0.7034   20.9820 C   0  0  0  0  0  0  0  0  0  0  0  0
    6.6395    0.0157   19.9350 C   0  0  0  0  0  0  0  0  0  0  0  0
    7.1699    0.0298   18.6431 C   0  0  0  0  0  0  0  0  0  0  0  0
    8.0995   -0.4981   18.4262 H   0  0  0  0  0  0  0  0  0  0  0  0
    6.5929    0.6410   17.6058 N   0  0  0  0  0  0  0  0  0  0  0  0
    5.4392    1.2857   17.8342 C   0  0  0  0  0  0  0  0  0  0  0  0
    4.9943    1.7990   16.9848 H   0  0  0  0  0  0  0  0  0  0  0  0
    4.8123    1.3158   19.0831 C   0  0  0  0  0  0  0  0  0  0  0  0
    3.8791    1.8508   19.2055 H   0  0  0  0  0  0  0  0  0  0  0  0
    5.4101    0.6595   20.1539 C   0  0  0  0  0  0  0  0  0  0  0  0
    4.9426    0.6399   21.1396 H   0  0  0  0  0  0  0  0  0  0  0  0
    8.7676   -0.7594   21.0230 C   0  0  0  0  0  0  0  0  0  0  0  0
    9.3917   -0.2401   20.3145 H   0  0  0  0  0  0  0  0  0  0  0  0
  1  2  1  0
  2  3  2  0
  3  4  1  0
  4  5  1  0
  5  6  1  0
  6  7  1  0
  6  8  1  0
  6  9  1  0
  9 10  2  0
 10 11  1  0
 10 12  1  0
 12 13  1  0
 12 14  2  0
 14 15  1  0
 14 16  1  0
 16 17  1  0
 16 18  2  0
 18 19  1  0
  4 20  2  0
 20 21  1  0
 21 22  1  0
 22 23  2  0
 23 24  1  0
 23 25  1  0
 25 26  2  0
 26 27  1  0
 26 28  1  0
 28 29  1  0
 28 30  2  0
 30 31  1  0
 21 32  2  0
 32 33  1  0
 32  2  1  0
 18  9  1  0
 30 22  1  0
M  END
>  <cnnaffinity>  (1) 
-4.89024

>  <filename>  (1) 
[H]c1nc(SC([H])([H])c2c([H])c([H])c([H])c([H])c2[H])nc(-c2c([H])nc([H])c([H])c2[H])c1[H]

$$$$
