
     RDKit          3D

 55 58  0  0  0  0  0  0  0  0999 V2000
    8.6688    2.0828   25.4459 C   0  0  0  0  0  0  0  0  0  0  0  0
    8.7106    2.7414   24.0620 C   0  0  0  0  0  0  0  0  0  0  0  0
    8.7258    1.6839   23.0089 N   0  0  0  0  0  0  0  0  0  0  0  0
    7.5881    1.1094   22.5444 N   0  0  0  0  0  0  0  0  0  0  0  0
    8.0234    0.0756   21.8465 C   0  0  0  0  0  0  0  0  0  0  0  0
    7.1350   -0.7913   20.9844 C   0  0  0  0  0  0  0  0  0  0  0  0
    6.4659   -0.0771   19.8002 C   0  0  0  0  0  0  0  0  0  0  0  0
    5.2812    0.6494   19.9874 C   0  0  0  0  0  0  0  0  0  0  0  0
    4.7392    1.3603   18.9127 C   0  0  0  0  0  0  0  0  0  0  0  0
    5.3897    1.3166   17.6800 C   0  0  0  0  0  0  0  0  0  0  0  0
    6.5089    0.6092   17.4631 N   0  0  0  0  0  0  0  0  0  0  0  0
    7.0186   -0.0658   18.5017 C   0  0  0  0  0  0  0  0  0  0  0  0
    7.9371   -0.6156   18.2895 H   0  0  0  0  0  0  0  0  0  0  0  0
    4.9997    1.8727   16.8289 H   0  0  0  0  0  0  0  0  0  0  0  0
    3.8384    1.9529   19.0188 H   0  0  0  0  0  0  0  0  0  0  0  0
    4.7995    0.6693   20.9666 H   0  0  0  0  0  0  0  0  0  0  0  0
    7.7601   -1.6227   20.6397 H   0  0  0  0  0  0  0  0  0  0  0  0
    6.3723   -1.2299   21.6383 H   0  0  0  0  0  0  0  0  0  0  0  0
    9.3653   -0.1089   21.8948 N   0  0  0  0  0  0  0  0  0  0  0  0
    9.7912    0.9373   22.5823 C   0  0  0  0  0  0  0  0  0  0  0  0
   11.1797    1.4526   22.6345 C   0  0  0  0  0  0  0  0  0  0  0  0
   12.3152    0.6373   22.8552 C   0  0  0  0  0  0  0  0  0  0  0  0
   13.6061    1.1911   22.8715 C   0  0  0  0  0  0  0  0  0  0  0  0
   13.7401    2.5623   22.6588 C   0  0  0  0  0  0  0  0  0  0  0  0
   14.8159    3.4282   22.4506 N   0  0  0  0  0  0  0  0  0  0  0  0
   14.3997    4.7215   22.2392 C   0  0  0  0  0  0  0  0  0  0  0  0
   15.0664    5.7324   22.1321 O   0  0  0  0  0  0  0  0  0  0  0  0
   13.0257    4.6380   22.2055 N   0  0  0  0  0  0  0  0  0  0  0  0
   12.2208    5.7980   22.0744 C   0  0  0  0  0  0  0  0  0  0  0  0
   12.6832    6.3764   21.2790 H   0  0  0  0  0  0  0  0  0  0  0  0
   11.1897    5.5572   21.8236 H   0  0  0  0  0  0  0  0  0  0  0  0
   12.1925    6.3920   22.9950 H   0  0  0  0  0  0  0  0  0  0  0  0
   12.6114    3.3494   22.4116 C   0  0  0  0  0  0  0  0  0  0  0  0
   11.3520    2.8135   22.3473 C   0  0  0  0  0  0  0  0  0  0  0  0
   10.5123    3.4337   22.0511 H   0  0  0  0  0  0  0  0  0  0  0  0
   15.7685    3.2841   22.7142 H   0  0  0  0  0  0  0  0  0  0  0  0
   14.4810    0.5632   23.0118 H   0  0  0  0  0  0  0  0  0  0  0  0
   12.1822   -0.4327   23.0070 H   0  0  0  0  0  0  0  0  0  0  0  0
    7.6781    3.9136   23.8378 C   0  0  0  0  0  0  0  0  0  0  0  0
    7.7552    4.4218   22.3840 C   0  0  0  0  0  0  0  0  0  0  0  0
    7.5752    3.6144   21.6700 H   0  0  0  0  0  0  0  0  0  0  0  0
    7.0083    5.2084   22.2164 H   0  0  0  0  0  0  0  0  0  0  0  0
    8.7299    4.8732   22.1584 H   0  0  0  0  0  0  0  0  0  0  0  0
    8.0523    5.1046   24.7533 C   0  0  0  0  0  0  0  0  0  0  0  0
    9.0406    5.5116   24.5059 H   0  0  0  0  0  0  0  0  0  0  0  0
    8.0578    4.8478   25.8187 H   0  0  0  0  0  0  0  0  0  0  0  0
    7.3308    5.9216   24.6281 H   0  0  0  0  0  0  0  0  0  0  0  0
    6.2335    3.4914   24.1569 C   0  0  0  0  0  0  0  0  0  0  0  0
    5.5442    4.3280   23.9818 H   0  0  0  0  0  0  0  0  0  0  0  0
    6.1253    3.2019   25.2087 H   0  0  0  0  0  0  0  0  0  0  0  0
    5.9197    2.6479   23.5358 H   0  0  0  0  0  0  0  0  0  0  0  0
    9.6855    3.2203   24.0001 H   0  0  0  0  0  0  0  0  0  0  0  0
    7.7799    1.4590   25.5883 H   0  0  0  0  0  0  0  0  0  0  0  0
    8.6903    2.8464   26.2298 H   0  0  0  0  0  0  0  0  0  0  0  0
    9.5571    1.4582   25.5916 H   0  0  0  0  0  0  0  0  0  0  0  0
  1  2  1  0
  2  3  1  0
  3  4  1  0
  4  5  2  0
  5  6  1  0
  6  7  1  0
  7  8  2  0
  8  9  1  0
  9 10  2  0
 10 11  1  0
 11 12  2  0
 12 13  1  0
 10 14  1  0
  9 15  1  0
  8 16  1  0
  6 17  1  0
  6 18  1  0
  5 19  1  0
 19 20  2  0
 20 21  1  0
 21 22  2  0
 22 23  1  0
 23 24  2  0
 24 25  1  0
 25 26  1  0
 26 27  2  0
 26 28  1  0
 28 29  1  0
 29 30  1  0
 29 31  1  0
 29 32  1  0
 28 33  1  0
 33 34  2  0
 34 35  1  0
 25 36  1  0
 23 37  1  0
 22 38  1  0
  2 39  1  0
 39 40  1  0
 40 41  1  0
 40 42  1  0
 40 43  1  0
 39 44  1  0
 44 45  1  0
 44 46  1  0
 44 47  1  0
 39 48  1  0
 48 49  1  0
 48 50  1  0
 48 51  1  0
  2 52  1  0
  1 53  1  0
  1 54  1  0
  1 55  1  0
 20  3  1  0
 34 21  1  0
 12  7  1  0
 33 24  1  0
M  END
>  <cnnaffinity>  (1) 
-6.84072

>  <filename>  (1) 
[H]c1nc([H])c(C([H])([H])c2nc(-c3c([H])c([H])c4c(c3[H])n(C([H])([H])[H])c(=O)n4[H])n(C([H])(C([H])([H])[H])C(C([H])([H])[H])(C([H])([H])[H])C([H])([H])[H])n2)c([H])c1[H]

$$$$
