
     RDKit          3D

 29 31  0  0  0  0  0  0  0  0999 V2000
    5.0695    1.7811   17.0436 H   0  0  0  0  0  0  0  0  0  0  0  0
    5.4984    1.2535   17.8900 C   0  0  0  0  0  0  0  0  0  0  0  0
    6.6413    0.5844   17.6552 N   0  0  0  0  0  0  0  0  0  0  0  0
    7.1976   -0.0693   18.6780 C   0  0  0  0  0  0  0  0  0  0  0  0
    8.1224   -0.6068   18.4674 H   0  0  0  0  0  0  0  0  0  0  0  0
    6.6618   -0.0864   19.9768 C   0  0  0  0  0  0  0  0  0  0  0  0
    7.3599   -0.8216   21.0579 C   0  0  0  0  0  0  0  0  0  0  0  0
    7.9838   -2.3129   20.8955 S   0  0  0  0  0  0  0  0  0  0  0  0
    7.5332   -0.0784   22.3661 C   0  0  0  0  0  0  0  0  0  0  0  0
    6.5542    0.2994   22.6864 H   0  0  0  0  0  0  0  0  0  0  0  0
    7.8501   -0.8150   23.1098 H   0  0  0  0  0  0  0  0  0  0  0  0
    8.5420    1.0620   22.2387 C   0  0  0  0  0  0  0  0  0  0  0  0
    8.1235    2.3954   22.1786 C   0  0  0  0  0  0  0  0  0  0  0  0
    7.0655    2.6277   22.0755 H   0  0  0  0  0  0  0  0  0  0  0  0
    9.0332    3.4663   22.2167 C   0  0  0  0  0  0  0  0  0  0  0  0
    8.7042    4.5021   22.1711 H   0  0  0  0  0  0  0  0  0  0  0  0
   10.3751    3.1414   22.2668 C   0  0  0  0  0  0  0  0  0  0  0  0
   10.8210    1.8130   22.2136 C   0  0  0  0  0  0  0  0  0  0  0  0
    9.9270    0.7626   22.1876 C   0  0  0  0  0  0  0  0  0  0  0  0
   10.2756   -0.2613   22.0983 H   0  0  0  0  0  0  0  0  0  0  0  0
   12.1929    1.8004   22.2209 O   0  0  0  0  0  0  0  0  0  0  0  0
   12.5341    3.1521   21.9232 C   0  0  0  0  0  0  0  0  0  0  0  0
   12.6627    3.2609   20.8386 H   0  0  0  0  0  0  0  0  0  0  0  0
   13.4393    3.4471   22.4541 H   0  0  0  0  0  0  0  0  0  0  0  0
   11.4577    3.9756   22.3419 O   0  0  0  0  0  0  0  0  0  0  0  0
    5.4683    0.6231   20.2032 C   0  0  0  0  0  0  0  0  0  0  0  0
    5.0061    0.6191   21.1905 H   0  0  0  0  0  0  0  0  0  0  0  0
    4.8693    1.2918   19.1388 C   0  0  0  0  0  0  0  0  0  0  0  0
    3.9441    1.8479   19.2643 H   0  0  0  0  0  0  0  0  0  0  0  0
  1  2  1  0
  2  3  2  0
  3  4  1  0
  4  5  1  0
  4  6  2  0
  6  7  1  0
  7  8  2  0
  7  9  1  0
  9 10  1  0
  9 11  1  0
  9 12  1  0
 12 13  2  0
 13 14  1  0
 13 15  1  0
 15 16  1  0
 15 17  2  0
 17 18  1  0
 18 19  2  0
 19 20  1  0
 18 21  1  0
 21 22  1  0
 22 23  1  0
 22 24  1  0
 22 25  1  0
  6 26  1  0
 26 27  1  0
 26 28  2  0
 28 29  1  0
 28  2  1  0
 19 12  1  0
 25 17  1  0
M  END
>  <cnnaffinity>  (1) 
-4.98738

>  <filename>  (1) 
[H]c1nc([H])c(C(=S)C([H])([H])c2c([H])c([H])c3c(c2[H])OC([H])([H])O3)c([H])c1[H]

$$$$
