
     RDKit          3D

 34 36  0  0  0  0  0  0  0  0999 V2000
   10.0640   -1.3092   22.8835 H   0  0  0  0  0  0  0  0  0  0  0  0
    9.1087   -1.3158   22.3644 C   0  0  0  0  0  0  0  0  0  0  0  0
    7.9662   -1.8788   22.7796 C   0  0  0  0  0  0  0  0  0  0  0  0
    7.6637   -2.4688   24.1241 C   0  0  0  0  0  0  0  0  0  0  0  0
    7.2549   -1.7098   24.8060 H   0  0  0  0  0  0  0  0  0  0  0  0
    8.5855   -2.8661   24.5826 H   0  0  0  0  0  0  0  0  0  0  0  0
    6.6668   -3.4689   24.0709 O   0  0  0  0  0  0  0  0  0  0  0  0
    6.9427   -4.6516   23.4438 C   0  0  0  0  0  0  0  0  0  0  0  0
    8.1925   -5.0165   22.9170 C   0  0  0  0  0  0  0  0  0  0  0  0
    9.0205   -4.3115   22.9156 H   0  0  0  0  0  0  0  0  0  0  0  0
    8.3600   -6.2937   22.3714 C   0  0  0  0  0  0  0  0  0  0  0  0
    9.3393   -6.5909   22.0085 H   0  0  0  0  0  0  0  0  0  0  0  0
    7.2908   -7.1892   22.3020 C   0  0  0  0  0  0  0  0  0  0  0  0
    7.4260   -8.1842   21.8907 H   0  0  0  0  0  0  0  0  0  0  0  0
    6.0389   -6.8059   22.7924 C   0  0  0  0  0  0  0  0  0  0  0  0
    5.2078   -7.5053   22.7449 H   0  0  0  0  0  0  0  0  0  0  0  0
    5.8608   -5.5453   23.3620 C   0  0  0  0  0  0  0  0  0  0  0  0
    4.8964   -5.2325   23.7519 H   0  0  0  0  0  0  0  0  0  0  0  0
    6.9172   -1.7389   21.7292 C   0  0  0  0  0  0  0  0  0  0  0  0
    5.8165   -2.2320   21.6268 O   0  0  0  0  0  0  0  0  0  0  0  0
    7.4917   -0.8557   20.7944 N   0  0  0  0  0  0  0  0  0  0  0  0
    6.7728   -0.1073   19.8260 C   0  0  0  0  0  0  0  0  0  0  0  0
    7.2814    0.0574   18.5163 C   0  0  0  0  0  0  0  0  0  0  0  0
    8.2378   -0.3936   18.2620 H   0  0  0  0  0  0  0  0  0  0  0  0
    6.6512    0.7160   17.5379 N   0  0  0  0  0  0  0  0  0  0  0  0
    5.4734    1.2865   17.8408 C   0  0  0  0  0  0  0  0  0  0  0  0
    4.9781    1.8121   17.0283 H   0  0  0  0  0  0  0  0  0  0  0  0
    4.8968    1.2284   19.1161 C   0  0  0  0  0  0  0  0  0  0  0  0
    3.9592    1.7468   19.3009 H   0  0  0  0  0  0  0  0  0  0  0  0
    5.5551    0.5248   20.1332 C   0  0  0  0  0  0  0  0  0  0  0  0
    5.1552    0.4705   21.1465 H   0  0  0  0  0  0  0  0  0  0  0  0
    8.9095   -0.6502   21.0380 C   0  0  0  0  0  0  0  0  0  0  0  0
    9.1592    0.4194   21.0679 H   0  0  0  0  0  0  0  0  0  0  0  0
    9.5262   -1.1113   20.2507 H   0  0  0  0  0  0  0  0  0  0  0  0
  1  2  1  0
  2  3  2  0
  3  4  1  0
  4  5  1  0
  4  6  1  0
  4  7  1  0
  7  8  1  0
  8  9  2  0
  9 10  1  0
  9 11  1  0
 11 12  1  0
 11 13  2  0
 13 14  1  0
 13 15  1  0
 15 16  1  0
 15 17  2  0
 17 18  1  0
  3 19  1  0
 19 20  2  0
 19 21  1  0
 21 22  1  0
 22 23  2  0
 23 24  1  0
 23 25  1  0
 25 26  2  0
 26 27  1  0
 26 28  1  0
 28 29  1  0
 28 30  2  0
 30 31  1  0
 21 32  1  0
 32 33  1  0
 32 34  1  0
 32  2  1  0
 17  8  1  0
 30 22  1  0
M  END
>  <cnnaffinity>  (1) 
-5.0482

>  <filename>  (1) 
[H]C1=C(C([H])([H])Oc2c([H])c([H])c([H])c([H])c2[H])C(=O)N(c2c([H])nc([H])c([H])c2[H])C1([H])[H]

$$$$
