
     RDKit          3D

 34 36  0  0  0  0  0  0  0  0999 V2000
    4.9371    1.8154   16.9496 H   0  0  0  0  0  0  0  0  0  0  0  0
    5.4041    1.3208   17.8054 C   0  0  0  0  0  0  0  0  0  0  0  0
    6.5773    0.7079   17.5840 N   0  0  0  0  0  0  0  0  0  0  0  0
    7.1611    0.0893   18.6195 C   0  0  0  0  0  0  0  0  0  0  0  0
    8.1115   -0.3938   18.4008 H   0  0  0  0  0  0  0  0  0  0  0  0
    6.6317    0.0382   19.9295 C   0  0  0  0  0  0  0  0  0  0  0  0
    7.3102   -0.6987   21.0259 C   0  0  0  0  0  0  0  0  0  0  0  0
    7.7864   -1.9871   21.1117 C   0  0  0  0  0  0  0  0  0  0  0  0
    7.7188   -2.7957   20.4140 H   0  0  0  0  0  0  0  0  0  0  0  0
    8.3248   -2.2050   22.3316 N   0  0  0  0  0  0  0  0  0  0  0  0
    8.1970   -1.1331   23.0364 N   0  0  0  0  0  0  0  0  0  0  0  0
    7.5698   -0.2060   22.2842 N   0  0  0  0  0  0  0  0  0  0  0  0
    7.2287    1.0409   22.9008 C   0  0  0  0  0  0  0  0  0  0  0  0
    6.6714    1.0299   24.1924 C   0  0  0  0  0  0  0  0  0  0  0  0
    6.5328    0.0810   24.7033 H   0  0  0  0  0  0  0  0  0  0  0  0
    6.3075    2.2319   24.7964 C   0  0  0  0  0  0  0  0  0  0  0  0
    5.8639    2.2274   25.7884 H   0  0  0  0  0  0  0  0  0  0  0  0
    6.5312    3.4490   24.1555 C   0  0  0  0  0  0  0  0  0  0  0  0
    6.2829    4.3910   24.6295 H   0  0  0  0  0  0  0  0  0  0  0  0
    7.0935    3.4452   22.8790 C   0  0  0  0  0  0  0  0  0  0  0  0
    7.3061    4.6434   22.1897 N   0  0  0  0  0  0  0  0  0  0  0  0
    7.1952    4.6160   21.1934 H   0  0  0  0  0  0  0  0  0  0  0  0
    7.6608    5.8298   22.7645 C   0  0  0  0  0  0  0  0  0  0  0  0
    7.9843    5.9343   23.9326 O   0  0  0  0  0  0  0  0  0  0  0  0
    7.6336    6.9876   21.8084 C   0  0  0  0  0  0  0  0  0  0  0  0
    7.5081    7.9022   22.3791 H   0  0  0  0  0  0  0  0  0  0  0  0
    8.5883    7.0308   21.2857 H   0  0  0  0  0  0  0  0  0  0  0  0
    6.8247    6.9040   21.0790 H   0  0  0  0  0  0  0  0  0  0  0  0
    7.4321    2.2528   22.2405 C   0  0  0  0  0  0  0  0  0  0  0  0
    7.8260    2.2870   21.2326 H   0  0  0  0  0  0  0  0  0  0  0  0
    5.4033    0.6860   20.1298 C   0  0  0  0  0  0  0  0  0  0  0  0
    4.9571    0.6930   21.1236 H   0  0  0  0  0  0  0  0  0  0  0  0
    4.7844    1.3306   19.0567 C   0  0  0  0  0  0  0  0  0  0  0  0
    3.8370    1.8394   19.1770 H   0  0  0  0  0  0  0  0  0  0  0  0
  1  2  1  0
  2  3  2  0
  3  4  1  0
  4  5  1  0
  4  6  2  0
  6  7  1  0
  7  8  2  0
  8  9  1  0
  8 10  1  0
 10 11  2  0
 11 12  1  0
 12 13  1  0
 13 14  2  0
 14 15  1  0
 14 16  1  0
 16 17  1  0
 16 18  2  0
 18 19  1  0
 18 20  1  0
 20 21  1  0
 21 22  1  0
 21 23  1  0
 23 24  2  0
 23 25  1  0
 25 26  1  0
 25 27  1  0
 25 28  1  0
 20 29  2  0
 29 30  1  0
  6 31  1  0
 31 32  1  0
 31 33  2  0
 33 34  1  0
 33  2  1  0
 12  7  1  0
 29 13  1  0
M  END
>  <cnnaffinity>  (1) 
-5.22488

>  <filename>  (1) 
[H]c1nc([H])c(-c2c([H])nnn2-c2c([H])c([H])c([H])c(N([H])C(=O)C([H])([H])[H])c2[H])c([H])c1[H]

$$$$
