
     RDKit          3D

 29 32  0  0  0  0  0  0  0  0999 V2000
    6.2950    2.2589   24.9053 H   0  0  0  0  0  0  0  0  0  0  0  0
    6.6987    1.3639   25.3530 C   0  0  0  0  0  0  0  0  0  0  0  0
    6.7547    1.2958   26.7005 C   0  0  0  0  0  0  0  0  0  0  0  0
    7.2400   -0.0748   27.6798 S   0  0  0  0  0  0  0  0  0  0  0  0
    6.7462    0.7534   29.1783 C   0  0  0  0  0  0  0  0  0  0  0  0
    6.7489    0.1912   30.7086 S   0  0  0  0  0  0  0  0  0  0  0  0
    6.3022    2.0001   28.8770 N   0  0  0  0  0  0  0  0  0  0  0  0
    6.0077    2.6362   29.6002 H   0  0  0  0  0  0  0  0  0  0  0  0
    6.2844    2.4221   27.5730 C   0  0  0  0  0  0  0  0  0  0  0  0
    5.9294    3.5254   27.2393 O   0  0  0  0  0  0  0  0  0  0  0  0
    7.0928    0.3854   24.3624 C   0  0  0  0  0  0  0  0  0  0  0  0
    6.8144    0.6058   23.1103 N   0  0  0  0  0  0  0  0  0  0  0  0
    7.3400   -0.3921   22.3669 N   0  0  0  0  0  0  0  0  0  0  0  0
    7.5114   -0.5987   20.9978 C   0  0  0  0  0  0  0  0  0  0  0  0
    6.7190    0.0733   19.9398 C   0  0  0  0  0  0  0  0  0  0  0  0
    7.1877    0.0954   18.6036 C   0  0  0  0  0  0  0  0  0  0  0  0
    8.1243   -0.3997   18.3588 H   0  0  0  0  0  0  0  0  0  0  0  0
    6.5689    0.6839   17.5738 N   0  0  0  0  0  0  0  0  0  0  0  0
    5.4040    1.2986   17.8318 C   0  0  0  0  0  0  0  0  0  0  0  0
    4.9230    1.7965   16.9894 H   0  0  0  0  0  0  0  0  0  0  0  0
    4.8146    1.3079   19.0996 C   0  0  0  0  0  0  0  0  0  0  0  0
    3.8632    1.8114   19.2315 H   0  0  0  0  0  0  0  0  0  0  0  0
    5.4683    0.6891   20.1691 C   0  0  0  0  0  0  0  0  0  0  0  0
    5.0208    0.6871   21.1633 H   0  0  0  0  0  0  0  0  0  0  0  0
    8.4478   -1.6138   20.9673 C   0  0  0  0  0  0  0  0  0  0  0  0
    8.9127   -2.0477   20.0923 H   0  0  0  0  0  0  0  0  0  0  0  0
    8.8078   -2.0671   22.2096 N   0  0  0  0  0  0  0  0  0  0  0  0
    8.1123   -1.3094   23.0191 C   0  0  0  0  0  0  0  0  0  0  0  0
    7.9907   -1.0855   24.7406 S   0  0  0  0  0  0  0  0  0  0  0  0
  1  2  1  0
  2  3  2  3
  3  4  1  0
  4  5  1  0
  5  6  2  0
  5  7  1  0
  7  8  1  0
  7  9  1  0
  9 10  2  0
  2 11  1  0
 11 12  2  0
 12 13  1  0
 13 14  1  0
 14 15  1  0
 15 16  2  0
 16 17  1  0
 16 18  1  0
 18 19  2  0
 19 20  1  0
 19 21  1  0
 21 22  1  0
 21 23  2  0
 23 24  1  0
 14 25  2  0
 25 26  1  0
 25 27  1  0
 27 28  2  0
 28 29  1  0
  9  3  1  0
 29 11  1  0
 28 13  1  0
 23 15  1  0
M  END
>  <cnnaffinity>  (1) 
-5.1707

>  <filename>  (1) 
[H]C(=C1SC(=S)N([H])C1=O)c1nn2c(-c3c([H])nc([H])c([H])c3[H])c([H])nc2s1

$$$$
