
     RDKit          3D

 37 39  0  0  0  0  0  0  0  0999 V2000
    4.9342    1.7974   16.9814 H   0  0  0  0  0  0  0  0  0  0  0  0
    5.4005    1.2905   17.8254 C   0  0  0  0  0  0  0  0  0  0  0  0
    6.5615    0.6630   17.5712 N   0  0  0  0  0  0  0  0  0  0  0  0
    7.1597    0.0345   18.5880 C   0  0  0  0  0  0  0  0  0  0  0  0
    8.1180   -0.4332   18.3589 H   0  0  0  0  0  0  0  0  0  0  0  0
    6.6466    0.0027   19.8991 C   0  0  0  0  0  0  0  0  0  0  0  0
    7.3604   -0.6657   20.9916 C   0  0  0  0  0  0  0  0  0  0  0  0
    7.6250   -0.0896   22.2192 C   0  0  0  0  0  0  0  0  0  0  0  0
    7.2162    1.2435   22.5149 N   0  0  0  0  0  0  0  0  0  0  0  0
    7.4684    1.9700   21.8603 H   0  0  0  0  0  0  0  0  0  0  0  0
    6.8772    1.8495   23.6911 C   0  0  0  0  0  0  0  0  0  0  0  0
    7.0165    3.4951   23.7960 S   0  0  0  0  0  0  0  0  0  0  0  0
    6.3625    1.0037   24.6156 N   0  0  0  0  0  0  0  0  0  0  0  0
    5.9049    0.2008   24.2161 H   0  0  0  0  0  0  0  0  0  0  0  0
    6.3426    1.1715   26.0159 C   0  0  0  0  0  0  0  0  0  0  0  0
    5.2565    0.7005   26.7600 C   0  0  0  0  0  0  0  0  0  0  0  0
    4.4266    0.2236   26.2469 H   0  0  0  0  0  0  0  0  0  0  0  0
    5.2555    0.8513   28.1524 C   0  0  0  0  0  0  0  0  0  0  0  0
    4.4156    0.4819   28.7339 H   0  0  0  0  0  0  0  0  0  0  0  0
    6.3380    1.4579   28.7965 C   0  0  0  0  0  0  0  0  0  0  0  0
    6.3442    1.5702   29.8758 H   0  0  0  0  0  0  0  0  0  0  0  0
    7.4224    1.9155   28.0442 C   0  0  0  0  0  0  0  0  0  0  0  0
    8.2719    2.3754   28.5344 H   0  0  0  0  0  0  0  0  0  0  0  0
    7.4276    1.7799   26.6566 C   0  0  0  0  0  0  0  0  0  0  0  0
    8.2610    2.1313   26.0567 H   0  0  0  0  0  0  0  0  0  0  0  0
    8.3398   -0.8662   23.1905 C   0  0  0  0  0  0  0  0  0  0  0  0
    8.5839   -0.3740   24.1289 H   0  0  0  0  0  0  0  0  0  0  0  0
    8.6821   -2.1717   22.9547 C   0  0  0  0  0  0  0  0  0  0  0  0
    9.1702   -2.8100   23.6819 H   0  0  0  0  0  0  0  0  0  0  0  0
    8.3322   -2.8120   21.6907 C   0  0  0  0  0  0  0  0  0  0  0  0
    8.4775   -3.9809   21.3778 O   0  0  0  0  0  0  0  0  0  0  0  0
    7.7665   -1.9569   20.7612 N   0  0  0  0  0  0  0  0  0  0  0  0
    7.5100   -2.4696   19.9324 H   0  0  0  0  0  0  0  0  0  0  0  0
    5.4304    0.6585   20.1433 C   0  0  0  0  0  0  0  0  0  0  0  0
    5.0066    0.6549   21.1464 H   0  0  0  0  0  0  0  0  0  0  0  0
    4.7977    1.3081   19.0874 C   0  0  0  0  0  0  0  0  0  0  0  0
    3.8696    1.8477   19.2355 H   0  0  0  0  0  0  0  0  0  0  0  0
  1  2  1  0
  2  3  2  0
  3  4  1  0
  4  5  1  0
  4  6  2  0
  6  7  1  0
  7  8  2  0
  8  9  1  0
  9 10  1  0
  9 11  1  0
 11 12  2  0
 11 13  1  0
 13 14  1  0
 13 15  1  0
 15 16  2  0
 16 17  1  0
 16 18  1  0
 18 19  1  0
 18 20  2  0
 20 21  1  0
 20 22  1  0
 22 23  1  0
 22 24  2  0
 24 25  1  0
  8 26  1  0
 26 27  1  0
 26 28  2  0
 28 29  1  0
 28 30  1  0
 30 31  2  0
 30 32  1  0
 32 33  1  0
  6 34  1  0
 34 35  1  0
 34 36  2  0
 36 37  1  0
 36  2  1  0
 32  7  1  0
 24 15  1  0
M  END
>  <cnnaffinity>  (1) 
-5.79374

>  <filename>  (1) 
[H]c1nc([H])c(-c2c(N([H])C(=S)N([H])c3c([H])c([H])c([H])c([H])c3[H])c([H])c([H])c(=O)n2[H])c([H])c1[H]

$$$$
