
     RDKit          3D

 29 31  0  0  0  0  0  0  0  0999 V2000
    4.9192    1.7727   17.0033 H   0  0  0  0  0  0  0  0  0  0  0  0
    5.4094    1.2872   17.8442 C   0  0  0  0  0  0  0  0  0  0  0  0
    6.5744    0.6728   17.5834 N   0  0  0  0  0  0  0  0  0  0  0  0
    7.1855    0.0555   18.6013 C   0  0  0  0  0  0  0  0  0  0  0  0
    8.1306   -0.4329   18.3744 H   0  0  0  0  0  0  0  0  0  0  0  0
    6.6559    0.0129   19.8937 C   0  0  0  0  0  0  0  0  0  0  0  0
    7.3494   -0.6816   20.9605 C   0  0  0  0  0  0  0  0  0  0  0  0
    6.9203   -0.7568   22.1776 N   0  0  0  0  0  0  0  0  0  0  0  0
    7.8800   -1.5098   22.8492 C   0  0  0  0  0  0  0  0  0  0  0  0
    7.8674   -1.9458   24.2842 C   0  0  0  0  0  0  0  0  0  0  0  0
    8.6660   -2.7917   24.6530 O   0  0  0  0  0  0  0  0  0  0  0  0
    6.8586   -1.3440   25.2285 C   0  0  0  0  0  0  0  0  0  0  0  0
    6.3482   -2.1522   26.2598 C   0  0  0  0  0  0  0  0  0  0  0  0
    6.6807   -3.1829   26.3447 H   0  0  0  0  0  0  0  0  0  0  0  0
    5.4330   -1.6459   27.1779 C   0  0  0  0  0  0  0  0  0  0  0  0
    5.0389   -2.2605   27.9794 H   0  0  0  0  0  0  0  0  0  0  0  0
    5.0340   -0.3169   27.0555 C   0  0  0  0  0  0  0  0  0  0  0  0
    4.1523    0.1786   27.9349 F   0  0  0  0  0  0  0  0  0  0  0  0
    5.5245    0.5172   26.0538 C   0  0  0  0  0  0  0  0  0  0  0  0
    5.1932    1.5475   25.9915 H   0  0  0  0  0  0  0  0  0  0  0  0
    6.4420   -0.0002   25.1419 C   0  0  0  0  0  0  0  0  0  0  0  0
    6.8307    0.6482   24.3591 H   0  0  0  0  0  0  0  0  0  0  0  0
    8.8587   -1.8349   21.9711 C   0  0  0  0  0  0  0  0  0  0  0  0
    9.7756   -2.3982   22.0657 H   0  0  0  0  0  0  0  0  0  0  0  0
    8.5330   -1.3084   20.7573 O   0  0  0  0  0  0  0  0  0  0  0  0
    5.4353    0.6558   20.1592 C   0  0  0  0  0  0  0  0  0  0  0  0
    5.0113    0.6280   21.1690 H   0  0  0  0  0  0  0  0  0  0  0  0
    4.8041    1.3108   19.1093 C   0  0  0  0  0  0  0  0  0  0  0  0
    3.8716    1.8450   19.2624 H   0  0  0  0  0  0  0  0  0  0  0  0
  1  2  1  0
  2  3  2  0
  3  4  1  0
  4  5  1  0
  4  6  2  0
  6  7  1  0
  7  8  2  0
  8  9  1  0
  9 10  1  0
 10 11  2  0
 10 12  1  0
 12 13  2  0
 13 14  1  0
 13 15  1  0
 15 16  1  0
 15 17  2  0
 17 18  1  0
 17 19  1  0
 19 20  1  0
 19 21  2  0
 21 22  1  0
  9 23  2  0
 23 24  1  0
 23 25  1  0
  6 26  1  0
 26 27  1  0
 26 28  2  0
 28 29  1  0
 28  2  1  0
 25  7  1  0
 21 12  1  0
M  END
>  <cnnaffinity>  (1) 
-4.85373

>  <filename>  (1) 
[H]c1nc([H])c(-c2nc(C(=O)c3c([H])c([H])c(F)c([H])c3[H])c([H])o2)c([H])c1[H]

$$$$
