
     RDKit          3D

 30 32  0  0  0  0  0  0  0  0999 V2000
    6.7003   -0.4422   21.8281 H   0  0  0  0  0  0  0  0  0  0  0  0
    7.1705   -0.5264   20.8404 C   0  0  0  0  0  0  0  0  0  0  0  0
    8.2598   -1.1693   20.6874 N   0  0  0  0  0  0  0  0  0  0  0  0
    8.8013   -1.8147   21.8177 C   0  0  0  0  0  0  0  0  0  0  0  0
   10.2219   -1.7943   21.9000 C   0  0  0  0  0  0  0  0  0  0  0  0
   10.7509   -1.2483   21.1237 H   0  0  0  0  0  0  0  0  0  0  0  0
   10.8500   -2.5014   22.8866 C   0  0  0  0  0  0  0  0  0  0  0  0
   11.9314   -2.5567   22.9177 H   0  0  0  0  0  0  0  0  0  0  0  0
   10.0958   -3.2228   23.8655 C   0  0  0  0  0  0  0  0  0  0  0  0
   10.7350   -4.0141   24.8542 C   0  0  0  0  0  0  0  0  0  0  0  0
   11.8104   -4.1180   24.8203 H   0  0  0  0  0  0  0  0  0  0  0  0
   10.0149   -4.6660   25.8234 C   0  0  0  0  0  0  0  0  0  0  0  0
   10.5440   -5.2444   26.5719 H   0  0  0  0  0  0  0  0  0  0  0  0
    8.5954   -4.5788   25.8404 C   0  0  0  0  0  0  0  0  0  0  0  0
    8.0352   -5.1337   26.5911 H   0  0  0  0  0  0  0  0  0  0  0  0
    7.9360   -3.8427   24.8794 C   0  0  0  0  0  0  0  0  0  0  0  0
    6.8485   -3.7907   24.8711 H   0  0  0  0  0  0  0  0  0  0  0  0
    8.6660   -3.1708   23.8437 C   0  0  0  0  0  0  0  0  0  0  0  0
    8.0435   -2.4901   22.7582 C   0  0  0  0  0  0  0  0  0  0  0  0
    6.9706   -2.5390   22.6100 H   0  0  0  0  0  0  0  0  0  0  0  0
    6.4856    0.1498   19.7516 C   0  0  0  0  0  0  0  0  0  0  0  0
    7.0319    0.1308   18.4592 C   0  0  0  0  0  0  0  0  0  0  0  0
    7.9563   -0.4130   18.2795 H   0  0  0  0  0  0  0  0  0  0  0  0
    6.4763    0.7517   17.4198 N   0  0  0  0  0  0  0  0  0  0  0  0
    5.3349    1.4223   17.6408 C   0  0  0  0  0  0  0  0  0  0  0  0
    4.9182    1.9382   16.7806 H   0  0  0  0  0  0  0  0  0  0  0  0
    4.6913    1.4725   18.8823 C   0  0  0  0  0  0  0  0  0  0  0  0
    3.7682    2.0298   18.9875 H   0  0  0  0  0  0  0  0  0  0  0  0
    5.2738    0.8207   19.9640 C   0  0  0  0  0  0  0  0  0  0  0  0
    4.8060    0.8332   20.9507 H   0  0  0  0  0  0  0  0  0  0  0  0
  1  2  1  0
  2  3  2  3
  3  4  1  0
  4  5  2  0
  5  6  1  0
  5  7  1  0
  7  8  1  0
  7  9  2  0
  9 10  1  0
 10 11  1  0
 10 12  2  0
 12 13  1  0
 12 14  1  0
 14 15  1  0
 14 16  2  0
 16 17  1  0
 16 18  1  0
 18 19  2  0
 19 20  1  0
  2 21  1  0
 21 22  2  0
 22 23  1  0
 22 24  1  0
 24 25  2  0
 25 26  1  0
 25 27  1  0
 27 28  1  0
 27 29  2  0
 29 30  1  0
 19  4  1  0
 29 21  1  0
 18  9  1  0
M  END
>  <cnnaffinity>  (1) 
-4.92147

>  <filename>  (1) 
[H]C(=Nc1c([H])c([H])c2c([H])c([H])c([H])c([H])c2c1[H])c1c([H])nc([H])c([H])c1[H]

$$$$
