
     RDKit          3D

 39 41  0  0  0  0  0  0  0  0999 V2000
   11.1285   -1.5387   22.6258 C   0  0  0  0  0  0  0  0  0  0  0  0
    9.9824   -2.4011   22.1183 C   0  0  0  0  0  0  0  0  0  0  0  0
    8.7705   -1.6114   21.9087 N   0  0  0  0  0  0  0  0  0  0  0  0
    8.4370   -1.1302   20.6956 N   0  0  0  0  0  0  0  0  0  0  0  0
    7.2839   -0.5575   20.9180 C   0  0  0  0  0  0  0  0  0  0  0  0
    6.5538    0.0797   19.8634 C   0  0  0  0  0  0  0  0  0  0  0  0
    5.3342    0.7263   20.0674 C   0  0  0  0  0  0  0  0  0  0  0  0
    4.7735    1.3661   18.9696 C   0  0  0  0  0  0  0  0  0  0  0  0
    5.4218    1.3217   17.7298 C   0  0  0  0  0  0  0  0  0  0  0  0
    6.5744    0.6558   17.5410 N   0  0  0  0  0  0  0  0  0  0  0  0
    7.1281    0.0479   18.5967 C   0  0  0  0  0  0  0  0  0  0  0  0
    8.0658   -0.4846   18.4538 H   0  0  0  0  0  0  0  0  0  0  0  0
    4.9806    1.8442   16.8880 H   0  0  0  0  0  0  0  0  0  0  0  0
    3.8470    1.9163   19.0705 H   0  0  0  0  0  0  0  0  0  0  0  0
    4.8510    0.7457   21.0467 H   0  0  0  0  0  0  0  0  0  0  0  0
    6.8394   -0.6222   22.2182 N   0  0  0  0  0  0  0  0  0  0  0  0
    7.7793   -1.2864   22.8178 C   0  0  0  0  0  0  0  0  0  0  0  0
    7.6492   -1.6590   24.2609 C   0  0  0  0  0  0  0  0  0  0  0  0
    6.5737   -2.7468   24.3860 C   0  0  0  0  0  0  0  0  0  0  0  0
    7.1462   -4.0625   23.9119 C   0  0  0  0  0  0  0  0  0  0  0  0
    8.0240   -4.7350   24.7642 C   0  0  0  0  0  0  0  0  0  0  0  0
    8.6314   -5.9299   24.3960 C   0  0  0  0  0  0  0  0  0  0  0  0
    9.8014   -6.7809   25.6438 Br  0  0  0  0  0  0  0  0  0  0  0  0
    8.3699   -6.4752   23.1377 C   0  0  0  0  0  0  0  0  0  0  0  0
    7.5061   -5.8134   22.2520 C   0  0  0  0  0  0  0  0  0  0  0  0
    6.8952   -4.6050   22.6384 C   0  0  0  0  0  0  0  0  0  0  0  0
    6.2470   -4.0832   21.9410 H   0  0  0  0  0  0  0  0  0  0  0  0
    7.3131   -6.2380   21.2708 H   0  0  0  0  0  0  0  0  0  0  0  0
    8.8423   -7.4169   22.8710 H   0  0  0  0  0  0  0  0  0  0  0  0
    8.2715   -4.3245   25.7336 H   0  0  0  0  0  0  0  0  0  0  0  0
    5.6819   -2.4805   23.8127 H   0  0  0  0  0  0  0  0  0  0  0  0
    6.2515   -2.8283   25.4281 H   0  0  0  0  0  0  0  0  0  0  0  0
    7.3581   -0.7760   24.8380 H   0  0  0  0  0  0  0  0  0  0  0  0
    8.6023   -2.0192   24.6558 H   0  0  0  0  0  0  0  0  0  0  0  0
   10.2527   -2.8005   21.1430 H   0  0  0  0  0  0  0  0  0  0  0  0
    9.7973   -3.2444   22.7914 H   0  0  0  0  0  0  0  0  0  0  0  0
   10.9339   -1.2178   23.6537 H   0  0  0  0  0  0  0  0  0  0  0  0
   11.2450   -0.6513   21.9929 H   0  0  0  0  0  0  0  0  0  0  0  0
   12.0595   -2.1161   22.5949 H   0  0  0  0  0  0  0  0  0  0  0  0
  1  2  1  0
  2  3  1  0
  3  4  1  0
  4  5  2  0
  5  6  1  0
  6  7  2  0
  7  8  1  0
  8  9  2  0
  9 10  1  0
 10 11  2  0
 11 12  1  0
  9 13  1  0
  8 14  1  0
  7 15  1  0
  5 16  1  0
 16 17  2  0
 17 18  1  0
 18 19  1  0
 19 20  1  0
 20 21  2  0
 21 22  1  0
 22 23  1  0
 22 24  2  0
 24 25  1  0
 25 26  2  0
 26 27  1  0
 25 28  1  0
 24 29  1  0
 21 30  1  0
 19 31  1  0
 19 32  1  0
 18 33  1  0
 18 34  1  0
  2 35  1  0
  2 36  1  0
  1 37  1  0
  1 38  1  0
  1 39  1  0
 17  3  1  0
 26 20  1  0
 11  6  1  0
M  END
>  <cnnaffinity>  (1) 
-5.87206

>  <filename>  (1) 
[H]c1nc([H])c(-c2nc(C([H])([H])C([H])([H])c3c([H])c([H])c([H])c(Br)c3[H])n(C([H])([H])C([H])([H])[H])n2)c([H])c1[H]

$$$$
