
     RDKit          3D

 31 33  0  0  0  0  0  0  0  0999 V2000
    4.5075   -5.6959   27.3373 H   0  0  0  0  0  0  0  0  0  0  0  0
    5.5463   -5.5252   27.0753 C   0  0  0  0  0  0  0  0  0  0  0  0
    5.7555   -4.6281   26.1075 N   0  0  0  0  0  0  0  0  0  0  0  0
    7.0326   -4.4184   25.7443 C   0  0  0  0  0  0  0  0  0  0  0  0
    7.2626   -3.5065   24.6583 C   0  0  0  0  0  0  0  0  0  0  0  0
    7.5591   -2.8009   23.7330 C   0  0  0  0  0  0  0  0  0  0  0  0
    7.8352   -2.0618   22.6315 N   0  0  0  0  0  0  0  0  0  0  0  0
    6.8800   -1.7704   21.6438 C   0  0  0  0  0  0  0  0  0  0  0  0
    5.7895   -2.2650   21.5350 O   0  0  0  0  0  0  0  0  0  0  0  0
    7.4692   -0.8370   20.8099 N   0  0  0  0  0  0  0  0  0  0  0  0
    6.7614   -0.0756   19.8535 C   0  0  0  0  0  0  0  0  0  0  0  0
    7.2887    0.0695   18.5536 C   0  0  0  0  0  0  0  0  0  0  0  0
    8.2479   -0.4031   18.3326 H   0  0  0  0  0  0  0  0  0  0  0  0
    6.6637    0.7176   17.5675 N   0  0  0  0  0  0  0  0  0  0  0  0
    5.4806    1.2825   17.8590 C   0  0  0  0  0  0  0  0  0  0  0  0
    5.0018    1.7999   17.0347 H   0  0  0  0  0  0  0  0  0  0  0  0
    4.8896    1.2321   19.1281 C   0  0  0  0  0  0  0  0  0  0  0  0
    3.9512    1.7469   19.2953 H   0  0  0  0  0  0  0  0  0  0  0  0
    5.5311    0.5340   20.1558 C   0  0  0  0  0  0  0  0  0  0  0  0
    5.1082    0.4659   21.1604 H   0  0  0  0  0  0  0  0  0  0  0  0
    8.8815   -0.6691   21.0776 C   0  0  0  0  0  0  0  0  0  0  0  0
    9.5375   -1.0784   20.2965 H   0  0  0  0  0  0  0  0  0  0  0  0
    9.1431    0.3801   21.2275 H   0  0  0  0  0  0  0  0  0  0  0  0
    9.0659   -1.4518   22.3516 C   0  0  0  0  0  0  0  0  0  0  0  0
   10.0682   -1.5427   22.9967 O   0  0  0  0  0  0  0  0  0  0  0  0
    8.1310   -5.0713   26.3378 C   0  0  0  0  0  0  0  0  0  0  0  0
    9.1359   -4.8549   25.9889 H   0  0  0  0  0  0  0  0  0  0  0  0
    7.8839   -5.9973   27.3464 C   0  0  0  0  0  0  0  0  0  0  0  0
    8.6967   -6.5325   27.8229 H   0  0  0  0  0  0  0  0  0  0  0  0
    6.5610   -6.2337   27.7221 C   0  0  0  0  0  0  0  0  0  0  0  0
    6.3138   -6.9625   28.4843 H   0  0  0  0  0  0  0  0  0  0  0  0
  1  2  1  0
  2  3  2  0
  3  4  1  0
  4  5  1  0
  5  6  3  0
  6  7  1  0
  7  8  1  0
  8  9  2  0
  8 10  1  0
 10 11  1  0
 11 12  2  0
 12 13  1  0
 12 14  1  0
 14 15  2  0
 15 16  1  0
 15 17  1  0
 17 18  1  0
 17 19  2  0
 19 20  1  0
 10 21  1  0
 21 22  1  0
 21 23  1  0
 21 24  1  0
 24 25  2  0
  4 26  2  0
 26 27  1  0
 26 28  1  0
 28 29  1  0
 28 30  2  0
 30 31  1  0
 30  2  1  0
 24  7  1  0
 19 11  1  0
M  END
>  <cnnaffinity>  (1) 
-5.01987

>  <filename>  (1) 
[H]c1nc(C#CN2C(=O)N(c3c([H])nc([H])c([H])c3[H])C([H])([H])C2=O)c([H])c([H])c1[H]

$$$$
