
     RDKit          3D

 31 32  0  0  0  0  0  0  0  0999 V2000
    6.7902   -2.6094   23.3624 H   0  0  0  0  0  0  0  0  0  0  0  0
    7.3857   -2.0688   22.6409 C   0  0  0  0  0  0  0  0  0  0  0  0
    8.6653   -2.3363   22.4049 C   0  0  0  0  0  0  0  0  0  0  0  0
    9.3871   -3.3761   22.9178 O   0  0  0  0  0  0  0  0  0  0  0  0
    8.8187   -4.2287   23.8892 C   0  0  0  0  0  0  0  0  0  0  0  0
    8.2641   -3.6664   24.6514 H   0  0  0  0  0  0  0  0  0  0  0  0
    9.6632   -4.7369   24.3592 H   0  0  0  0  0  0  0  0  0  0  0  0
    7.8784   -5.3360   23.3831 C   0  0  0  0  0  0  0  0  0  0  0  0
    8.4284   -6.1188   22.4494 F   0  0  0  0  0  0  0  0  0  0  0  0
    7.5887   -6.0766   24.4672 F   0  0  0  0  0  0  0  0  0  0  0  0
    6.7025   -4.9052   22.8926 F   0  0  0  0  0  0  0  0  0  0  0  0
    9.5003   -1.5285   21.4415 C   0  0  0  0  0  0  0  0  0  0  0  0
   10.4741   -1.3163   21.8932 H   0  0  0  0  0  0  0  0  0  0  0  0
    9.6773   -2.1667   20.5700 H   0  0  0  0  0  0  0  0  0  0  0  0
    8.7780   -0.2460   21.0154 C   0  0  0  0  0  0  0  0  0  0  0  0
    9.2801    0.2416   20.1736 H   0  0  0  0  0  0  0  0  0  0  0  0
    8.7966    0.4896   21.8369 H   0  0  0  0  0  0  0  0  0  0  0  0
    7.3878   -0.5831   20.6872 N   0  0  0  0  0  0  0  0  0  0  0  0
    6.6944    0.0750   19.6568 C   0  0  0  0  0  0  0  0  0  0  0  0
    7.2133    0.1789   18.3349 C   0  0  0  0  0  0  0  0  0  0  0  0
    8.1586   -0.3094   18.0954 H   0  0  0  0  0  0  0  0  0  0  0  0
    6.6143    0.8341   17.3325 N   0  0  0  0  0  0  0  0  0  0  0  0
    5.4372    1.4325   17.5901 C   0  0  0  0  0  0  0  0  0  0  0  0
    4.9823    1.9910   16.7769 H   0  0  0  0  0  0  0  0  0  0  0  0
    4.8040    1.3468   18.8318 C   0  0  0  0  0  0  0  0  0  0  0  0
    3.8487    1.8366   18.9930 H   0  0  0  0  0  0  0  0  0  0  0  0
    5.4234    0.6482   19.8650 C   0  0  0  0  0  0  0  0  0  0  0  0
    4.9570    0.5567   20.8412 H   0  0  0  0  0  0  0  0  0  0  0  0
    6.6555   -1.0006   21.8799 C   0  0  0  0  0  0  0  0  0  0  0  0
    5.6694   -1.3900   21.5977 H   0  0  0  0  0  0  0  0  0  0  0  0
    6.4734   -0.1442   22.5581 H   0  0  0  0  0  0  0  0  0  0  0  0
  1  2  1  0
  2  3  2  0
  3  4  1  0
  4  5  1  0
  5  6  1  0
  5  7  1  0
  5  8  1  0
  8  9  1  0
  8 10  1  0
  8 11  1  0
  3 12  1  0
 12 13  1  0
 12 14  1  0
 12 15  1  0
 15 16  1  0
 15 17  1  0
 15 18  1  0
 18 19  1  0
 19 20  2  0
 20 21  1  0
 20 22  1  0
 22 23  2  0
 23 24  1  0
 23 25  1  0
 25 26  1  0
 25 27  2  0
 27 28  1  0
 18 29  1  0
 29 30  1  0
 29 31  1  0
 29  2  1  0
 27 19  1  0
M  END
>  <cnnaffinity>  (1) 
-4.713

>  <filename>  (1) 
[H]C1=C(OC([H])([H])C(F)(F)F)C([H])([H])C([H])([H])N(c2c([H])nc([H])c([H])c2[H])C1([H])[H]

$$$$
