
     RDKit          3D

 35 36  0  0  0  0  0  0  0  0999 V2000
    6.9828    0.4005   22.9698 C   0  0  0  0  0  0  0  0  0  0  0  0
    6.9577   -0.9466   22.2434 C   0  0  0  0  0  0  0  0  0  0  0  0
    7.5299   -0.8699   20.8245 C   0  0  0  0  0  0  0  0  0  0  0  0
    8.7747   -0.1663   20.8440 N   0  0  0  0  0  0  0  0  0  0  0  0
    9.9395   -0.8155   21.0665 C   0  0  0  0  0  0  0  0  0  0  0  0
   10.0480   -2.0250   20.9837 O   0  0  0  0  0  0  0  0  0  0  0  0
   10.8735    0.0110   21.5940 N   0  0  0  0  0  0  0  0  0  0  0  0
   12.1374   -0.3773   21.9292 C   0  0  0  0  0  0  0  0  0  0  0  0
   12.7199   -1.4699   21.3154 C   0  0  0  0  0  0  0  0  0  0  0  0
   14.0225   -1.7968   21.6312 C   0  0  0  0  0  0  0  0  0  0  0  0
   14.7193   -1.0783   22.5199 N   0  0  0  0  0  0  0  0  0  0  0  0
   14.1563   -0.0133   23.1088 C   0  0  0  0  0  0  0  0  0  0  0  0
   12.8469    0.3642   22.8606 C   0  0  0  0  0  0  0  0  0  0  0  0
   11.9350    2.0813   24.0026 I   0  0  0  0  0  0  0  0  0  0  0  0
   14.7258    0.5767   23.8228 H   0  0  0  0  0  0  0  0  0  0  0  0
   14.5003   -2.6449   21.1501 H   0  0  0  0  0  0  0  0  0  0  0  0
   12.1896   -2.0636   20.5867 H   0  0  0  0  0  0  0  0  0  0  0  0
   10.5192    0.8759   21.9694 H   0  0  0  0  0  0  0  0  0  0  0  0
    8.7529    0.8041   21.1205 H   0  0  0  0  0  0  0  0  0  0  0  0
    6.7427   -0.1010   19.8124 C   0  0  0  0  0  0  0  0  0  0  0  0
    5.5495    0.5461   20.1239 C   0  0  0  0  0  0  0  0  0  0  0  0
    4.9409    1.2850   19.1137 C   0  0  0  0  0  0  0  0  0  0  0  0
    5.5128    1.3432   17.8396 C   0  0  0  0  0  0  0  0  0  0  0  0
    6.6607    0.7158   17.5351 N   0  0  0  0  0  0  0  0  0  0  0  0
    7.2629    0.0198   18.5123 C   0  0  0  0  0  0  0  0  0  0  0  0
    8.2159   -0.4495   18.2892 H   0  0  0  0  0  0  0  0  0  0  0  0
    5.0086    1.9182   17.0695 H   0  0  0  0  0  0  0  0  0  0  0  0
    4.0350    1.8433   19.3042 H   0  0  0  0  0  0  0  0  0  0  0  0
    5.1270    0.5013   21.1260 H   0  0  0  0  0  0  0  0  0  0  0  0
    7.6769   -1.8908   20.4644 H   0  0  0  0  0  0  0  0  0  0  0  0
    5.9379   -1.3192   22.1732 H   0  0  0  0  0  0  0  0  0  0  0  0
    7.5324   -1.6726   22.8285 H   0  0  0  0  0  0  0  0  0  0  0  0
    8.0190    0.6974   23.1605 H   0  0  0  0  0  0  0  0  0  0  0  0
    6.4544    0.3362   23.9232 H   0  0  0  0  0  0  0  0  0  0  0  0
    6.5068    1.1733   22.3625 H   0  0  0  0  0  0  0  0  0  0  0  0
  1  2  1  0
  2  3  1  0
  3  4  1  0
  4  5  1  0
  5  6  2  0
  5  7  1  0
  7  8  1  0
  8  9  2  0
  9 10  1  0
 10 11  2  0
 11 12  1  0
 12 13  2  0
 13 14  1  0
 12 15  1  0
 10 16  1  0
  9 17  1  0
  7 18  1  0
  4 19  1  0
  3 20  1  0
 20 21  2  0
 21 22  1  0
 22 23  2  0
 23 24  1  0
 24 25  2  0
 25 26  1  0
 23 27  1  0
 22 28  1  0
 21 29  1  0
  3 30  1  0
  2 31  1  0
  2 32  1  0
  1 33  1  0
  1 34  1  0
  1 35  1  0
 13  8  1  0
 25 20  1  0
M  END
>  <cnnaffinity>  (1) 
-6.17505

>  <filename>  (1) 
[H]c1nc([H])c(C([H])(N([H])C(=O)N([H])c2c([H])c([H])nc([H])c2I)C([H])([H])C([H])([H])[H])c([H])c1[H]

$$$$
