
     RDKit          3D

 35 36  0  0  0  0  0  0  0  0999 V2000
    5.0621    1.7700   16.9122 H   0  0  0  0  0  0  0  0  0  0  0  0
    5.4769    1.2599   17.7798 C   0  0  0  0  0  0  0  0  0  0  0  0
    6.6057    0.5644   17.5783 N   0  0  0  0  0  0  0  0  0  0  0  0
    7.1511   -0.0465   18.6414 C   0  0  0  0  0  0  0  0  0  0  0  0
    8.0829   -0.5779   18.4618 H   0  0  0  0  0  0  0  0  0  0  0  0
    6.6148   -0.0101   19.9560 C   0  0  0  0  0  0  0  0  0  0  0  0
    7.2319   -0.6547   21.0995 N   0  0  0  0  0  0  0  0  0  0  0  0
    7.8513   -1.9736   20.8987 C   0  0  0  0  0  0  0  0  0  0  0  0
    8.0565   -2.4578   21.8565 H   0  0  0  0  0  0  0  0  0  0  0  0
    8.7868   -1.9554   20.3194 H   0  0  0  0  0  0  0  0  0  0  0  0
    7.1097   -2.5791   20.3713 H   0  0  0  0  0  0  0  0  0  0  0  0
    7.9487    0.3714   22.2326 S   0  0  0  0  0  0  0  0  0  0  0  0
    8.7833   -0.4304   23.1048 O   0  0  0  0  0  0  0  0  0  0  0  0
    8.4713    1.5705   21.6215 O   0  0  0  0  0  0  0  0  0  0  0  0
    6.5751    0.8713   22.9955 N   0  0  0  0  0  0  0  0  0  0  0  0
    6.6468    1.8705   23.0811 H   0  0  0  0  0  0  0  0  0  0  0  0
    6.2502    0.2928   24.2088 C   0  0  0  0  0  0  0  0  0  0  0  0
    5.7107    1.3107   25.3734 S   0  0  0  0  0  0  0  0  0  0  0  0
    6.3378   -1.0390   24.2038 N   0  0  0  0  0  0  0  0  0  0  0  0
    6.4783   -1.4160   23.2786 H   0  0  0  0  0  0  0  0  0  0  0  0
    5.8880   -1.9431   25.1922 C   0  0  0  0  0  0  0  0  0  0  0  0
    6.1088   -1.6821   26.5487 C   0  0  0  0  0  0  0  0  0  0  0  0
    6.6557   -0.7909   26.8326 H   0  0  0  0  0  0  0  0  0  0  0  0
    5.5869   -2.5504   27.5097 C   0  0  0  0  0  0  0  0  0  0  0  0
    5.6941   -2.3006   28.5621 H   0  0  0  0  0  0  0  0  0  0  0  0
    4.9190   -3.7175   27.1299 C   0  0  0  0  0  0  0  0  0  0  0  0
    4.5440   -4.4061   27.8859 H   0  0  0  0  0  0  0  0  0  0  0  0
    4.7542   -4.0020   25.7695 C   0  0  0  0  0  0  0  0  0  0  0  0
    4.2526   -4.9118   25.4555 H   0  0  0  0  0  0  0  0  0  0  0  0
    5.2400   -3.1172   24.7981 C   0  0  0  0  0  0  0  0  0  0  0  0
    5.0939   -3.3114   23.7394 H   0  0  0  0  0  0  0  0  0  0  0  0
    5.4273    0.7139   20.1354 C   0  0  0  0  0  0  0  0  0  0  0  0
    4.9939    0.7631   21.1329 H   0  0  0  0  0  0  0  0  0  0  0  0
    4.8483    1.3526   19.0277 C   0  0  0  0  0  0  0  0  0  0  0  0
    3.9329    1.9267   19.1245 H   0  0  0  0  0  0  0  0  0  0  0  0
  1  2  1  0
  2  3  2  0
  3  4  1  0
  4  5  1  0
  4  6  2  0
  6  7  1  0
  7  8  1  0
  8  9  1  0
  8 10  1  0
  8 11  1  0
  7 12  1  0
 12 13  2  0
 12 14  2  0
 12 15  1  0
 15 16  1  0
 15 17  1  0
 17 18  2  0
 17 19  1  0
 19 20  1  0
 19 21  1  0
 21 22  2  0
 22 23  1  0
 22 24  1  0
 24 25  1  0
 24 26  2  0
 26 27  1  0
 26 28  1  0
 28 29  1  0
 28 30  2  0
 30 31  1  0
  6 32  1  0
 32 33  1  0
 32 34  2  0
 34 35  1  0
 34  2  1  0
 30 21  1  0
M  END
>  <cnnaffinity>  (1) 
-4.23802

>  <filename>  (1) 
[H]c1nc([H])c(N(C([H])([H])[H])S(=O)(=O)N([H])C(=S)N([H])c2c([H])c([H])c([H])c([H])c2[H])c([H])c1[H]

$$$$
