
     RDKit          3D

 34 35  0  0  0  0  0  0  0  0999 V2000
    6.7076   -1.4183   21.5551 H   0  0  0  0  0  0  0  0  0  0  0  0
    7.3296   -0.7140   20.9944 C   0  0  0  0  0  0  0  0  0  0  0  0
    8.5886   -0.4696   21.3684 C   0  0  0  0  0  0  0  0  0  0  0  0
    9.3404   -1.0834   22.4873 C   0  0  0  0  0  0  0  0  0  0  0  0
    8.7393   -2.1911   23.3418 C   0  0  1  0  0  0  0  0  0  0  0  0
    8.1149   -2.8239   22.6943 H   0  0  0  0  0  0  0  0  0  0  0  0
    9.8378   -3.0939   23.9065 C   0  0  0  0  0  0  0  0  0  0  0  0
   10.4066   -3.5551   23.0956 H   0  0  0  0  0  0  0  0  0  0  0  0
    9.4188   -3.8882   24.5317 H   0  0  0  0  0  0  0  0  0  0  0  0
   10.5470   -2.5176   24.5054 H   0  0  0  0  0  0  0  0  0  0  0  0
    7.8105   -1.6235   24.4450 C   0  0  0  0  0  0  0  0  0  0  0  0
    7.3753   -2.4651   25.0003 H   0  0  0  0  0  0  0  0  0  0  0  0
    6.9623   -1.1071   23.9783 H   0  0  0  0  0  0  0  0  0  0  0  0
    8.4890   -0.6763   25.4324 C   0  0  0  0  0  0  0  0  0  0  0  0
    7.7747   -0.2991   26.1703 H   0  0  0  0  0  0  0  0  0  0  0  0
    8.9258    0.1843   24.9186 H   0  0  0  0  0  0  0  0  0  0  0  0
    9.2987   -1.1723   25.9775 H   0  0  0  0  0  0  0  0  0  0  0  0
   10.4816   -0.5491   22.7060 N   0  0  0  0  0  0  0  0  0  0  0  0
   10.7040    0.5406   21.7494 C   0  0  0  0  0  0  0  0  0  0  0  0
   11.6337    0.3367   21.2182 H   0  0  0  0  0  0  0  0  0  0  0  0
   10.8393    1.4762   22.2984 H   0  0  0  0  0  0  0  0  0  0  0  0
    9.4830    0.6087   20.8087 C   0  0  0  0  0  0  0  0  0  0  0  0
    8.9963    1.5888   20.8030 H   0  0  0  0  0  0  0  0  0  0  0  0
    9.7005    0.3750   19.7675 H   0  0  0  0  0  0  0  0  0  0  0  0
    6.6401   -0.0078   19.8915 C   0  0  0  0  0  0  0  0  0  0  0  0
    7.1637    0.0691   18.5876 C   0  0  0  0  0  0  0  0  0  0  0  0
    8.1068   -0.4290   18.3748 H   0  0  0  0  0  0  0  0  0  0  0  0
    6.5622    0.6861   17.5631 N   0  0  0  0  0  0  0  0  0  0  0  0
    5.3998    1.2997   17.8325 C   0  0  0  0  0  0  0  0  0  0  0  0
    4.9135    1.7851   16.9920 H   0  0  0  0  0  0  0  0  0  0  0  0
    4.7995    1.3146   19.1002 C   0  0  0  0  0  0  0  0  0  0  0  0
    3.8673    1.8494   19.2560 H   0  0  0  0  0  0  0  0  0  0  0  0
    5.4229    0.6369   20.1454 C   0  0  0  0  0  0  0  0  0  0  0  0
    5.0075    0.6238   21.1599 H   0  0  0  0  0  0  0  0  0  0  0  0
  1  2  1  0
  2  3  2  3
  3  4  1  0
  4  5  1  0
  5  6  1  6
  5  7  1  0
  7  8  1  0
  7  9  1  0
  7 10  1  0
  5 11  1  0
 11 12  1  0
 11 13  1  0
 11 14  1  0
 14 15  1  0
 14 16  1  0
 14 17  1  0
  4 18  2  0
 18 19  1  0
 19 20  1  0
 19 21  1  0
 19 22  1  0
 22 23  1  0
 22 24  1  0
  2 25  1  0
 25 26  2  0
 26 27  1  0
 26 28  1  0
 28 29  2  0
 29 30  1  0
 29 31  1  0
 31 32  1  0
 31 33  2  0
 33 34  1  0
 22  3  1  0
 33 25  1  0
M  END
>  <cnnaffinity>  (1) 
-5.06163

>  <filename>  (1) 
[H]C(=C1C([C@@]([H])(C([H])([H])[H])C([H])([H])C([H])([H])[H])=NC([H])([H])C1([H])[H])c1c([H])nc([H])c([H])c1[H]

$$$$
