
     RDKit          3D

 37 39  0  0  0  0  0  0  0  0999 V2000
    4.8272    1.4075   18.8885 C   0  0  0  0  0  0  0  0  0  0  0  0
    5.4004    1.3859   17.6140 C   0  0  0  0  0  0  0  0  0  0  0  0
    6.5419    0.7393   17.3313 N   0  0  0  0  0  0  0  0  0  0  0  0
    7.1737    0.1306   18.3360 C   0  0  0  0  0  0  0  0  0  0  0  0
    6.7179    0.1480   19.6557 C   0  0  0  0  0  0  0  0  0  0  0  0
    7.4805   -0.4729   20.7327 C   0  0  0  0  0  0  0  0  0  0  0  0
    6.9646   -0.7764   21.9010 N   0  0  0  0  0  0  0  0  0  0  0  0
    7.9914   -1.3580   22.5603 C   0  0  0  0  0  0  0  0  0  0  0  0
    7.7496   -2.0993   24.1333 S   0  0  0  0  0  0  0  0  0  0  0  0
    6.8368   -3.5973   23.5769 C   0  0  0  0  0  0  0  0  0  0  0  0
    6.3424   -4.4289   24.7497 C   0  0  0  0  0  0  0  0  0  0  0  0
    7.4492   -5.1480   25.4217 N   0  0  0  0  0  4  0  0  0  0  0  0
    7.0591   -6.0752   26.5312 C   0  0  0  0  0  0  0  0  0  0  0  0
    8.4203   -6.5632   26.9937 C   0  0  0  0  0  0  0  0  0  0  0  0
    9.3119   -5.3093   26.9583 C   0  0  0  0  0  0  0  0  0  0  0  0
    8.5441   -4.3115   26.0830 C   0  0  0  0  0  0  0  0  0  0  0  0
    8.0568   -3.5477   26.7003 H   0  0  0  0  0  0  0  0  0  0  0  0
    9.1519   -3.8128   25.3285 H   0  0  0  0  0  0  0  0  0  0  0  0
    9.4614   -4.8821   27.9522 H   0  0  0  0  0  0  0  0  0  0  0  0
   10.3045   -5.5380   26.5534 H   0  0  0  0  0  0  0  0  0  0  0  0
    8.7918   -7.2810   26.2462 H   0  0  0  0  0  0  0  0  0  0  0  0
    8.3666   -7.0445   27.9759 H   0  0  0  0  0  0  0  0  0  0  0  0
    6.5391   -5.5007   27.3111 H   0  0  0  0  0  0  0  0  0  0  0  0
    6.3800   -6.8609   26.1882 H   0  0  0  0  0  0  0  0  0  0  0  0
    7.9199   -5.7497   24.7089 H   0  0  0  0  0  0  0  0  0  0  0  0
    5.6038   -5.1521   24.3697 H   0  0  0  0  0  0  0  0  0  0  0  0
    5.8150   -3.7844   25.4664 H   0  0  0  0  0  0  0  0  0  0  0  0
    7.4948   -4.1907   22.9343 H   0  0  0  0  0  0  0  0  0  0  0  0
    5.9956   -3.2437   22.9764 H   0  0  0  0  0  0  0  0  0  0  0  0
    9.1252   -1.4194   21.8902 N   0  0  0  0  0  0  0  0  0  0  0  0
    8.7718   -0.8428   20.7149 N   0  0  0  0  0  0  0  0  0  0  0  0
    9.4376   -0.7413   19.9654 H   0  0  0  0  0  0  0  0  0  0  0  0
    5.4903    0.7697   19.9295 C   0  0  0  0  0  0  0  0  0  0  0  0
    5.0780    0.7363   20.9403 H   0  0  0  0  0  0  0  0  0  0  0  0
    8.0762   -0.4083   18.0484 H   0  0  0  0  0  0  0  0  0  0  0  0
    4.9233    1.9020   16.7838 H   0  0  0  0  0  0  0  0  0  0  0  0
    3.8911    1.9290   19.0518 H   0  0  0  0  0  0  0  0  0  0  0  0
  1  2  2  0
  2  3  1  0
  3  4  2  0
  4  5  1  0
  5  6  1  0
  6  7  2  0
  7  8  1  0
  8  9  1  0
  9 10  1  0
 10 11  1  0
 11 12  1  0
 12 13  1  0
 13 14  1  0
 14 15  1  0
 15 16  1  0
 16 17  1  0
 16 18  1  0
 15 19  1  0
 15 20  1  0
 14 21  1  0
 14 22  1  0
 13 23  1  0
 13 24  1  0
 12 25  1  0
 11 26  1  0
 11 27  1  0
 10 28  1  0
 10 29  1  0
  8 30  2  0
 30 31  1  0
 31 32  1  0
  5 33  2  0
 33 34  1  0
  4 35  1  0
  2 36  1  0
  1 37  1  0
 33  1  1  0
 31  6  1  0
 16 12  1  0
M  CHG  1  12   1
M  END
>  <cnnaffinity>  (1) 
-4.82504

>  <filename>  (1) 
[H]c1nc([H])c(-c2nc(SC([H])([H])C([H])([H])[N+]3([H])C([H])([H])C([H])([H])C([H])([H])C3([H])[H])nn2[H])c([H])c1[H]

$$$$
