
     RDKit          3D

 40 42  0  0  0  0  0  0  0  0999 V2000
   10.4027   -5.5920   24.5611 H   0  0  0  0  0  0  0  0  0  0  0  0
    9.3322   -5.5190   24.7435 C   0  0  0  0  0  0  0  0  0  0  0  0
    8.6968   -4.5607   24.0555 N   0  0  0  0  0  0  0  0  0  0  0  0
    7.3684   -4.4063   24.2550 C   0  0  0  0  0  0  0  0  0  0  0  0
    6.5859   -3.2596   23.5625 C   0  0  0  0  0  0  0  0  0  0  0  0
    5.3825   -3.1173   23.7587 O   0  0  0  0  0  0  0  0  0  0  0  0
    7.3032   -2.4412   22.7453 N   0  0  0  0  0  0  0  0  0  0  0  0
    8.3004   -2.6092   22.7413 H   0  0  0  0  0  0  0  0  0  0  0  0
    6.7414   -1.2066   22.2034 C   0  0  1  0  0  0  0  0  0  0  0  0
    5.7271   -1.4655   21.8875 H   0  0  0  0  0  0  0  0  0  0  0  0
    6.6431   -0.1167   23.2974 C   0  0  0  0  0  0  0  0  0  0  0  0
    5.9429    0.6527   22.9513 H   0  0  0  0  0  0  0  0  0  0  0  0
    6.2001   -0.5604   24.1989 H   0  0  0  0  0  0  0  0  0  0  0  0
    7.9774    0.5725   23.6103 C   0  0  0  0  0  0  0  0  0  0  0  0
    8.6686   -0.1358   24.0922 H   0  0  0  0  0  0  0  0  0  0  0  0
    7.8073    1.3760   24.3372 H   0  0  0  0  0  0  0  0  0  0  0  0
    8.6009    1.1269   22.3218 C   0  0  0  0  0  0  0  0  0  0  0  0
    9.5403    1.6497   22.5423 H   0  0  0  0  0  0  0  0  0  0  0  0
    7.9196    1.8686   21.8788 H   0  0  0  0  0  0  0  0  0  0  0  0
    8.8363   -0.0002   21.3080 C   0  0  0  0  0  0  0  0  0  0  0  0
    9.3027    0.3937   20.3965 H   0  0  0  0  0  0  0  0  0  0  0  0
    9.5594   -0.7096   21.7357 H   0  0  0  0  0  0  0  0  0  0  0  0
    7.5289   -0.7627   20.9397 C   0  0  2  0  0  0  0  0  0  0  0  0
    7.8354   -1.6957   20.4438 H   0  0  0  0  0  0  0  0  0  0  0  0
    6.6793   -0.0124   19.9021 C   0  0  0  0  0  0  0  0  0  0  0  0
    7.1580    0.0387   18.5737 C   0  0  0  0  0  0  0  0  0  0  0  0
    8.0885   -0.4719   18.3244 H   0  0  0  0  0  0  0  0  0  0  0  0
    6.5607    0.6687   17.5551 N   0  0  0  0  0  0  0  0  0  0  0  0
    5.4121    1.3069   17.8247 C   0  0  0  0  0  0  0  0  0  0  0  0
    4.9435    1.8357   16.9961 H   0  0  0  0  0  0  0  0  0  0  0  0
    4.8245    1.3081   19.0903 C   0  0  0  0  0  0  0  0  0  0  0  0
    3.8928    1.8358   19.2474 H   0  0  0  0  0  0  0  0  0  0  0  0
    5.4588    0.6371   20.1408 C   0  0  0  0  0  0  0  0  0  0  0  0
    4.9893    0.6300   21.1246 H   0  0  0  0  0  0  0  0  0  0  0  0
    6.6407   -5.2282   25.1305 C   0  0  0  0  0  0  0  0  0  0  0  0
    5.5793   -5.0406   25.2456 H   0  0  0  0  0  0  0  0  0  0  0  0
    7.3130   -6.1995   25.8693 C   0  0  0  0  0  0  0  0  0  0  0  0
    6.7866   -6.8061   26.6079 H   0  0  0  0  0  0  0  0  0  0  0  0
    8.6859   -6.3508   25.6639 C   0  0  0  0  0  0  0  0  0  0  0  0
    9.2596   -7.0660   26.2367 H   0  0  0  0  0  0  0  0  0  0  0  0
  1  2  1  0
  2  3  2  0
  3  4  1  0
  4  5  1  0
  5  6  2  0
  5  7  1  0
  7  8  1  0
  7  9  1  0
  9 10  1  6
  9 11  1  0
 11 12  1  0
 11 13  1  0
 11 14  1  0
 14 15  1  0
 14 16  1  0
 14 17  1  0
 17 18  1  0
 17 19  1  0
 17 20  1  0
 20 21  1  0
 20 22  1  0
 20 23  1  0
 23 24  1  6
 23 25  1  0
 25 26  2  0
 26 27  1  0
 26 28  1  0
 28 29  2  0
 29 30  1  0
 29 31  1  0
 31 32  1  0
 31 33  2  0
 33 34  1  0
  4 35  2  0
 35 36  1  0
 35 37  1  0
 37 38  1  0
 37 39  2  0
 39 40  1  0
 39  2  1  0
 23  9  1  0
 33 25  1  0
M  END
>  <cnnaffinity>  (1) 
-4.89326

>  <filename>  (1) 
[H]c1nc(C(=O)N([H])[C@@]2([H])C([H])([H])C([H])([H])C([H])([H])C([H])([H])[C@]2([H])c2c([H])nc([H])c([H])c2[H])c([H])c([H])c1[H]

$$$$
