
     RDKit          3D

 32 33  0  0  0  0  0  0  0  0999 V2000
    4.9265    1.7856   16.9900 H   0  0  0  0  0  0  0  0  0  0  0  0
    5.4047    1.2970   17.8336 C   0  0  0  0  0  0  0  0  0  0  0  0
    6.5643    0.6791   17.5750 N   0  0  0  0  0  0  0  0  0  0  0  0
    7.1638    0.0497   18.5901 C   0  0  0  0  0  0  0  0  0  0  0  0
    8.1107   -0.4308   18.3645 H   0  0  0  0  0  0  0  0  0  0  0  0
    6.6411    0.0085   19.8902 C   0  0  0  0  0  0  0  0  0  0  0  0
    7.4159   -0.6525   21.0010 C   0  0  0  0  0  0  0  0  0  0  0  0
    6.5435   -1.1858   21.9072 F   0  0  0  0  0  0  0  0  0  0  0  0
    8.1412   -1.7095   20.5000 F   0  0  0  0  0  0  0  0  0  0  0  0
    8.3838    0.3142   21.7203 C   0  0  0  0  0  0  0  0  0  0  0  0
    9.1404    0.5647   20.9691 H   0  0  0  0  0  0  0  0  0  0  0  0
    7.8475    1.2458   21.9133 H   0  0  0  0  0  0  0  0  0  0  0  0
    9.0326   -0.1519   22.9320 N   0  0  0  0  0  0  0  0  0  0  0  0
    8.4577    0.0384   24.1955 C   0  0  0  0  0  0  0  0  0  0  0  0
    7.1420    0.5328   24.3654 C   0  0  0  0  0  0  0  0  0  0  0  0
    6.5133    0.7158   23.5023 H   0  0  0  0  0  0  0  0  0  0  0  0
    6.6321    0.7762   25.6429 C   0  0  0  0  0  0  0  0  0  0  0  0
    5.6222    1.1662   25.7472 H   0  0  0  0  0  0  0  0  0  0  0  0
    7.3997    0.5305   26.7832 C   0  0  0  0  0  0  0  0  0  0  0  0
    6.9997    0.7214   27.7778 H   0  0  0  0  0  0  0  0  0  0  0  0
    8.6922    0.0291   26.6267 C   0  0  0  0  0  0  0  0  0  0  0  0
    9.3098   -0.1685   27.4997 H   0  0  0  0  0  0  0  0  0  0  0  0
    9.2127   -0.2214   25.3582 C   0  0  0  0  0  0  0  0  0  0  0  0
   10.2182   -0.6074   25.2418 H   0  0  0  0  0  0  0  0  0  0  0  0
   10.1709   -1.0412   22.7549 C   0  0  0  0  0  0  0  0  0  0  0  0
   10.0293   -2.0201   23.2319 H   0  0  0  0  0  0  0  0  0  0  0  0
   11.0886   -0.5944   23.1542 H   0  0  0  0  0  0  0  0  0  0  0  0
   10.3291   -1.2327   21.6916 H   0  0  0  0  0  0  0  0  0  0  0  0
    5.4259    0.6557   20.1540 C   0  0  0  0  0  0  0  0  0  0  0  0
    4.9900    0.6357   21.1567 H   0  0  0  0  0  0  0  0  0  0  0  0
    4.8026    1.3170   19.0971 C   0  0  0  0  0  0  0  0  0  0  0  0
    3.8716    1.8468   19.2509 H   0  0  0  0  0  0  0  0  0  0  0  0
  1  2  1  0
  2  3  2  0
  3  4  1  0
  4  5  1  0
  4  6  2  0
  6  7  1  0
  7  8  1  0
  7  9  1  0
  7 10  1  0
 10 11  1  0
 10 12  1  0
 10 13  1  0
 13 14  1  0
 14 15  2  0
 15 16  1  0
 15 17  1  0
 17 18  1  0
 17 19  2  0
 19 20  1  0
 19 21  1  0
 21 22  1  0
 21 23  2  0
 23 24  1  0
 13 25  1  0
 25 26  1  0
 25 27  1  0
 25 28  1  0
  6 29  1  0
 29 30  1  0
 29 31  2  0
 31 32  1  0
 31  2  1  0
 23 14  1  0
M  END
>  <cnnaffinity>  (1) 
-4.64424

>  <filename>  (1) 
[H]c1nc([H])c(C(F)(F)C([H])([H])N(c2c([H])c([H])c([H])c([H])c2[H])C([H])([H])[H])c([H])c1[H]

$$$$
