
     RDKit          3D

 27 29  0  0  0  0  0  0  0  0999 V2000
    7.3189   -0.5894   21.0209 C   0  0  0  0  0  0  0  0  0  0  0  0
    8.3456   -1.4476   20.9326 C   0  0  0  0  0  0  0  0  0  0  0  0
    8.8677   -2.2375   22.0523 C   0  0  0  0  0  0  0  0  0  0  0  0
   10.1492   -2.4865   22.0352 N   0  0  0  0  0  0  0  0  0  0  0  0
   10.6459   -3.2527   23.4343 S   0  0  0  0  0  0  0  0  0  0  0  0
    9.0618   -3.3023   24.1404 C   0  0  0  0  0  0  0  0  0  0  0  0
    8.6684   -3.7895   25.4010 C   0  0  0  0  0  0  0  0  0  0  0  0
    7.3301   -3.7119   25.7516 C   0  0  0  0  0  0  0  0  0  0  0  0
    6.3911   -3.1723   24.8433 C   0  0  0  0  0  0  0  0  0  0  0  0
    6.7689   -2.7011   23.5930 C   0  0  0  0  0  0  0  0  0  0  0  0
    8.1425   -2.7267   23.2348 C   0  0  0  0  0  0  0  0  0  0  0  0
    6.0138   -2.3217   22.9031 H   0  0  0  0  0  0  0  0  0  0  0  0
    5.3525   -3.0939   25.1406 H   0  0  0  0  0  0  0  0  0  0  0  0
    7.0044   -4.0662   26.7299 H   0  0  0  0  0  0  0  0  0  0  0  0
    9.3951   -4.2118   26.0869 H   0  0  0  0  0  0  0  0  0  0  0  0
    8.9312   -1.5627   20.0178 H   0  0  0  0  0  0  0  0  0  0  0  0
    6.6366    0.0766   19.9040 C   0  0  0  0  0  0  0  0  0  0  0  0
    5.4098    0.7340   20.1243 C   0  0  0  0  0  0  0  0  0  0  0  0
    4.7700    1.3502   19.0516 C   0  0  0  0  0  0  0  0  0  0  0  0
    5.3889    1.3046   17.7971 C   0  0  0  0  0  0  0  0  0  0  0  0
    6.5450    0.6669   17.5541 N   0  0  0  0  0  0  0  0  0  0  0  0
    7.1438    0.0723   18.5908 C   0  0  0  0  0  0  0  0  0  0  0  0
    8.0877   -0.4297   18.3712 H   0  0  0  0  0  0  0  0  0  0  0  0
    4.9431    1.8109   16.9477 H   0  0  0  0  0  0  0  0  0  0  0  0
    3.8292    1.8794   19.1719 H   0  0  0  0  0  0  0  0  0  0  0  0
    4.9684    0.7497   21.1234 H   0  0  0  0  0  0  0  0  0  0  0  0
    6.9176   -0.3373   22.0050 H   0  0  0  0  0  0  0  0  0  0  0  0
  1  2  2  3
  2  3  1  0
  3  4  2  0
  4  5  1  0
  5  6  1  0
  6  7  2  0
  7  8  1  0
  8  9  2  0
  9 10  1  0
 10 11  2  0
 10 12  1  0
  9 13  1  0
  8 14  1  0
  7 15  1  0
  2 16  1  0
  1 17  1  0
 17 18  2  0
 18 19  1  0
 19 20  2  0
 20 21  1  0
 21 22  2  0
 22 23  1  0
 20 24  1  0
 19 25  1  0
 18 26  1  0
  1 27  1  0
 11  3  1  0
 22 17  1  0
 11  6  1  0
M  END
>  <cnnaffinity>  (1) 
-5.31643

>  <filename>  (1) 
[H]C(=C([H])c1nsc2c([H])c([H])c([H])c([H])c12)c1c([H])nc([H])c([H])c1[H]

$$$$
