
     RDKit          3D

 29 31  0  0  0  0  0  0  0  0999 V2000
    6.6650   -1.3266   21.6417 H   0  0  0  0  0  0  0  0  0  0  0  0
    7.3172   -0.7264   21.0015 C   0  0  0  0  0  0  0  0  0  0  0  0
    8.6010   -0.5508   21.3495 C   0  0  0  0  0  0  0  0  0  0  0  0
    9.3641   -1.1696   22.4399 C   0  0  0  0  0  0  0  0  0  0  0  0
    8.8727   -2.2980   23.1263 N   0  0  0  0  0  0  0  0  0  0  0  0
    9.1886   -2.5999   24.4252 C   0  0  0  0  0  0  0  0  0  0  0  0
    9.7935   -1.9526   25.0461 H   0  0  0  0  0  0  0  0  0  0  0  0
    8.6736   -3.7364   24.7943 N   0  0  0  0  0  0  0  0  0  0  0  0
    7.9933   -4.2228   23.7030 C   0  0  0  0  0  0  0  0  0  0  0  0
    7.4848   -5.1807   23.7329 H   0  0  0  0  0  0  0  0  0  0  0  0
    8.0916   -3.3584   22.6565 C   0  0  0  0  0  0  0  0  0  0  0  0
    7.7393   -3.4176   21.6384 H   0  0  0  0  0  0  0  0  0  0  0  0
   10.4815   -0.6088   22.7278 N   0  0  0  0  0  0  0  0  0  0  0  0
   10.6911    0.4832   21.7695 C   0  0  0  0  0  0  0  0  0  0  0  0
   11.6624    0.3655   21.2797 H   0  0  0  0  0  0  0  0  0  0  0  0
   10.7292    1.4325   22.3152 H   0  0  0  0  0  0  0  0  0  0  0  0
    9.5134    0.4886   20.7616 C   0  0  0  0  0  0  0  0  0  0  0  0
    9.7568    0.1661   19.7464 H   0  0  0  0  0  0  0  0  0  0  0  0
    9.0393    1.4726   20.6493 H   0  0  0  0  0  0  0  0  0  0  0  0
    6.6438   -0.0195   19.8995 C   0  0  0  0  0  0  0  0  0  0  0  0
    7.1640    0.0635   18.5917 C   0  0  0  0  0  0  0  0  0  0  0  0
    8.1080   -0.4280   18.3686 H   0  0  0  0  0  0  0  0  0  0  0  0
    6.5623    0.6864   17.5705 N   0  0  0  0  0  0  0  0  0  0  0  0
    5.3986    1.2999   17.8339 C   0  0  0  0  0  0  0  0  0  0  0  0
    4.9160    1.7875   16.9907 H   0  0  0  0  0  0  0  0  0  0  0  0
    4.7998    1.3130   19.1000 C   0  0  0  0  0  0  0  0  0  0  0  0
    3.8704    1.8481   19.2536 H   0  0  0  0  0  0  0  0  0  0  0  0
    5.4214    0.6328   20.1460 C   0  0  0  0  0  0  0  0  0  0  0  0
    5.0059    0.6227   21.1575 H   0  0  0  0  0  0  0  0  0  0  0  0
  1  2  1  0
  2  3  2  3
  3  4  1  0
  4  5  1  0
  5  6  1  0
  6  7  1  0
  6  8  2  0
  8  9  1  0
  9 10  1  0
  9 11  2  0
 11 12  1  0
  4 13  2  0
 13 14  1  0
 14 15  1  0
 14 16  1  0
 14 17  1  0
 17 18  1  0
 17 19  1  0
  2 20  1  0
 20 21  2  0
 21 22  1  0
 21 23  1  0
 23 24  2  0
 24 25  1  0
 24 26  1  0
 26 27  1  0
 26 28  2  0
 28 29  1  0
 17  3  1  0
 28 20  1  0
 11  5  1  0
M  END
>  <cnnaffinity>  (1) 
-5.06066

>  <filename>  (1) 
[H]C(=C1C(n2c([H])nc([H])c2[H])=NC([H])([H])C1([H])[H])c1c([H])nc([H])c([H])c1[H]

$$$$
