
     RDKit          3D

 20 21  0  0  0  0  0  0  0  0999 V2000
    4.9167    1.7829   16.9942 H   0  0  0  0  0  0  0  0  0  0  0  0
    5.3988    1.2937   17.8384 C   0  0  0  0  0  0  0  0  0  0  0  0
    6.5641    0.6781   17.5757 N   0  0  0  0  0  0  0  0  0  0  0  0
    7.1750    0.0614   18.5937 C   0  0  0  0  0  0  0  0  0  0  0  0
    8.1213   -0.4256   18.3696 H   0  0  0  0  0  0  0  0  0  0  0  0
    6.6643    0.0046   19.9085 C   0  0  0  0  0  0  0  0  0  0  0  0
    7.3660   -0.6927   20.9564 C   0  0  0  0  0  0  0  0  0  0  0  0
    7.9504   -1.2758   21.8428 C   0  0  0  0  0  0  0  0  0  0  0  0
    8.6147   -1.9384   22.8449 N   0  0  0  0  0  0  0  0  0  0  0  0
    9.7124   -2.7227   22.6270 N   0  0  0  0  0  0  0  0  0  0  0  0
   10.0410   -3.1631   23.8187 C   0  0  0  0  0  0  0  0  0  0  0  0
   10.8962   -3.8170   23.9266 H   0  0  0  0  0  0  0  0  0  0  0  0
    9.1704   -2.6849   24.8333 C   0  0  0  0  0  0  0  0  0  0  0  0
    9.2196   -2.8994   25.8876 H   0  0  0  0  0  0  0  0  0  0  0  0
    8.2695   -1.9037   24.1714 C   0  0  0  0  0  0  0  0  0  0  0  0
    7.4189   -1.3282   24.5127 H   0  0  0  0  0  0  0  0  0  0  0  0
    5.4400    0.6519   20.1597 C   0  0  0  0  0  0  0  0  0  0  0  0
    5.0121    0.6307   21.1631 H   0  0  0  0  0  0  0  0  0  0  0  0
    4.8043    1.3111   19.1054 C   0  0  0  0  0  0  0  0  0  0  0  0
    3.8711    1.8453   19.2544 H   0  0  0  0  0  0  0  0  0  0  0  0
  1  2  1  0
  2  3  2  0
  3  4  1  0
  4  5  1  0
  4  6  2  0
  6  7  1  0
  7  8  3  0
  8  9  1  0
  9 10  1  0
 10 11  2  0
 11 12  1  0
 11 13  1  0
 13 14  1  0
 13 15  2  0
 15 16  1  0
  6 17  1  0
 17 18  1  0
 17 19  2  0
 19 20  1  0
 19  2  1  0
 15  9  1  0
M  END
>  <cnnaffinity>  (1) 
-4.20641

>  <filename>  (1) 
[H]c1nc([H])c(C#Cn2nc([H])c([H])c2[H])c([H])c1[H]

$$$$
