
     RDKit          3D

 36 39  0  0  0  0  0  0  0  0999 V2000
   11.1531   -1.3044   22.6637 C   0  0  0  0  0  0  0  0  0  0  0  0
   10.1268   -2.3459   22.2300 C   0  0  0  0  0  0  0  0  0  0  0  0
    8.8010   -1.7900   21.9748 N   0  0  0  0  0  0  0  0  0  0  0  0
    8.4991   -1.3550   20.7279 N   0  0  0  0  0  0  0  0  0  0  0  0
    7.3787   -0.6898   20.9244 C   0  0  0  0  0  0  0  0  0  0  0  0
    6.6551   -0.0037   19.8764 C   0  0  0  0  0  0  0  0  0  0  0  0
    5.4423    0.6463   20.1445 C   0  0  0  0  0  0  0  0  0  0  0  0
    4.8109    1.3009   19.0935 C   0  0  0  0  0  0  0  0  0  0  0  0
    5.4186    1.2823   17.8306 C   0  0  0  0  0  0  0  0  0  0  0  0
    6.5790    0.6602   17.5686 N   0  0  0  0  0  0  0  0  0  0  0  0
    7.1857    0.0385   18.5826 C   0  0  0  0  0  0  0  0  0  0  0  0
    8.1392   -0.4390   18.3589 H   0  0  0  0  0  0  0  0  0  0  0  0
    4.9542    1.7943   16.9912 H   0  0  0  0  0  0  0  0  0  0  0  0
    3.8768    1.8371   19.2390 H   0  0  0  0  0  0  0  0  0  0  0  0
    5.0231    0.6377   21.1541 H   0  0  0  0  0  0  0  0  0  0  0  0
    6.9462   -0.6555   22.2038 N   0  0  0  0  0  0  0  0  0  0  0  0
    7.8472   -1.3730   22.8442 C   0  0  0  0  0  0  0  0  0  0  0  0
    7.8216   -1.7241   24.2641 C   0  0  0  0  0  0  0  0  0  0  0  0
    7.6835   -0.8607   25.3233 C   0  0  0  0  0  0  0  0  0  0  0  0
    7.6975   -1.5713   26.4962 N   0  0  0  0  0  0  0  0  0  0  0  0
    7.8160   -2.8953   26.2282 C   0  0  0  0  0  0  0  0  0  0  0  0
    7.8041   -3.8432   27.1699 N   0  0  0  0  0  0  0  0  0  0  0  0
    7.8837   -5.0679   26.6819 C   0  0  0  0  0  0  0  0  0  0  0  0
    7.8543   -6.3598   27.8416 Cl  0  0  0  0  0  0  0  0  0  0  0  0
    7.9754   -5.4038   25.3085 C   0  0  0  0  0  0  0  0  0  0  0  0
    7.9900   -4.3814   24.3625 C   0  0  0  0  0  0  0  0  0  0  0  0
    7.9101   -3.0561   24.8260 C   0  0  0  0  0  0  0  0  0  0  0  0
    8.0519   -4.5893   23.2928 H   0  0  0  0  0  0  0  0  0  0  0  0
    8.0368   -6.4463   25.0424 H   0  0  0  0  0  0  0  0  0  0  0  0
    7.5819   -1.2747   27.4492 H   0  0  0  0  0  0  0  0  0  0  0  0
    7.5909    0.2200   25.2981 H   0  0  0  0  0  0  0  0  0  0  0  0
   10.4040   -2.7722   21.2694 H   0  0  0  0  0  0  0  0  0  0  0  0
   10.0314   -3.1474   22.9723 H   0  0  0  0  0  0  0  0  0  0  0  0
   11.2153   -0.5012   21.9247 H   0  0  0  0  0  0  0  0  0  0  0  0
   10.9187   -0.8632   23.6373 H   0  0  0  0  0  0  0  0  0  0  0  0
   12.1286   -1.7901   22.7199 H   0  0  0  0  0  0  0  0  0  0  0  0
  1  2  1  0
  2  3  1  0
  3  4  1  0
  4  5  2  0
  5  6  1  0
  6  7  2  0
  7  8  1  0
  8  9  2  0
  9 10  1  0
 10 11  2  0
 11 12  1  0
  9 13  1  0
  8 14  1  0
  7 15  1  0
  5 16  1  0
 16 17  2  0
 17 18  1  0
 18 19  2  0
 19 20  1  0
 20 21  1  0
 21 22  2  0
 22 23  1  0
 23 24  1  0
 23 25  2  0
 25 26  1  0
 26 27  2  0
 26 28  1  0
 25 29  1  0
 20 30  1  0
 19 31  1  0
  2 32  1  0
  2 33  1  0
  1 34  1  0
  1 35  1  0
  1 36  1  0
 17  3  1  0
 27 18  1  0
 11  6  1  0
 27 21  1  0
M  END
>  <cnnaffinity>  (1) 
-5.75711

>  <filename>  (1) 
[H]c1nc([H])c(-c2nc(-c3c([H])n([H])c4nc(Cl)c([H])c([H])c34)n(C([H])([H])C([H])([H])[H])n2)c([H])c1[H]

$$$$
