
     RDKit          3D

 38 40  0  0  0  0  0  0  0  0999 V2000
    4.9123    1.8029   16.9761 H   0  0  0  0  0  0  0  0  0  0  0  0
    5.3872    1.3038   17.8184 C   0  0  0  0  0  0  0  0  0  0  0  0
    6.5480    0.6868   17.5508 N   0  0  0  0  0  0  0  0  0  0  0  0
    7.1668    0.0794   18.5714 C   0  0  0  0  0  0  0  0  0  0  0  0
    8.1057   -0.4190   18.3266 H   0  0  0  0  0  0  0  0  0  0  0  0
    6.6676    0.0287   19.8852 C   0  0  0  0  0  0  0  0  0  0  0  0
    7.4002   -0.6884   20.9638 C   0  0  0  0  0  0  0  0  0  0  0  0
    6.7068   -1.5508   21.8664 C   0  0  0  0  0  0  0  0  0  0  0  0
    5.6358   -1.6651   21.7150 H   0  0  0  0  0  0  0  0  0  0  0  0
    7.3373   -2.2364   22.8704 C   0  0  0  0  0  0  0  0  0  0  0  0
    6.5931   -3.1017   23.8500 C   0  0  0  0  0  0  0  0  0  0  0  0
    7.2284   -3.9429   24.1576 H   0  0  0  0  0  0  0  0  0  0  0  0
    5.6873   -3.5268   23.3919 H   0  0  0  0  0  0  0  0  0  0  0  0
    6.1536   -2.3180   25.1033 C   0  0  0  0  0  0  0  0  0  0  0  0
    5.4565   -1.5214   24.8248 H   0  0  0  0  0  0  0  0  0  0  0  0
    7.0182   -1.8505   25.5981 H   0  0  0  0  0  0  0  0  0  0  0  0
    5.4127   -3.1180   26.0142 O   0  0  0  0  0  0  0  0  0  0  0  0
    6.0297   -4.0208   26.8289 C   0  0  0  0  0  0  0  0  0  0  0  0
    5.1552   -4.8149   27.5859 C   0  0  0  0  0  0  0  0  0  0  0  0
    4.0887   -4.6496   27.4569 H   0  0  0  0  0  0  0  0  0  0  0  0
    5.6568   -5.7716   28.4625 C   0  0  0  0  0  0  0  0  0  0  0  0
    4.9714   -6.3852   29.0417 H   0  0  0  0  0  0  0  0  0  0  0  0
    7.0426   -5.9412   28.5962 C   0  0  0  0  0  0  0  0  0  0  0  0
    7.4299   -6.6942   29.2743 H   0  0  0  0  0  0  0  0  0  0  0  0
    7.9096   -5.1483   27.8460 C   0  0  0  0  0  0  0  0  0  0  0  0
    8.9839   -5.2852   27.9473 H   0  0  0  0  0  0  0  0  0  0  0  0
    7.4172   -4.1835   26.9543 C   0  0  0  0  0  0  0  0  0  0  0  0
    8.0974   -3.5813   26.3568 H   0  0  0  0  0  0  0  0  0  0  0  0
    8.7855   -2.0465   23.0511 C   0  0  0  0  0  0  0  0  0  0  0  0
    9.5108   -2.5344   23.9077 O   0  0  0  0  0  0  0  0  0  0  0  0
    9.3899   -1.2034   22.1237 N   0  0  0  0  0  0  0  0  0  0  0  0
   10.3769   -1.1629   22.3325 H   0  0  0  0  0  0  0  0  0  0  0  0
    8.7509   -0.5397   21.1140 C   0  0  0  0  0  0  0  0  0  0  0  0
    9.3382    0.1023   20.4668 H   0  0  0  0  0  0  0  0  0  0  0  0
    5.4425    0.6600   20.1360 C   0  0  0  0  0  0  0  0  0  0  0  0
    5.0221    0.6386   21.1434 H   0  0  0  0  0  0  0  0  0  0  0  0
    4.8001    1.3203   19.0877 C   0  0  0  0  0  0  0  0  0  0  0  0
    3.8676    1.8462   19.2415 H   0  0  0  0  0  0  0  0  0  0  0  0
  1  2  1  0
  2  3  2  0
  3  4  1  0
  4  5  1  0
  4  6  2  0
  6  7  1  0
  7  8  1  0
  8  9  1  0
  8 10  2  0
 10 11  1  0
 11 12  1  0
 11 13  1  0
 11 14  1  0
 14 15  1  0
 14 16  1  0
 14 17  1  0
 17 18  1  0
 18 19  2  0
 19 20  1  0
 19 21  1  0
 21 22  1  0
 21 23  2  0
 23 24  1  0
 23 25  1  0
 25 26  1  0
 25 27  2  0
 27 28  1  0
 10 29  1  0
 29 30  2  0
 29 31  1  0
 31 32  1  0
 31 33  1  0
 33 34  1  0
  6 35  1  0
 35 36  1  0
 35 37  2  0
 37 38  1  0
 37  2  1  0
 33  7  2  0
 27 18  1  0
M  END
>  <cnnaffinity>  (1) 
-5.30226

>  <filename>  (1) 
[H]c1nc([H])c(-c2c([H])c(C([H])([H])C([H])([H])Oc3c([H])c([H])c([H])c([H])c3[H])c(=O)n([H])c2[H])c([H])c1[H]

$$$$
