
     RDKit          3D

 30 32  0  0  0  0  0  0  0  0999 V2000
    5.0508    1.7414   17.0219 H   0  0  0  0  0  0  0  0  0  0  0  0
    5.4759    1.2657   17.9031 C   0  0  0  0  0  0  0  0  0  0  0  0
    6.6463    0.6289   17.7320 N   0  0  0  0  0  0  0  0  0  0  0  0
    7.1803    0.0047   18.7881 C   0  0  0  0  0  0  0  0  0  0  0  0
    8.1445   -0.4777   18.6212 H   0  0  0  0  0  0  0  0  0  0  0  0
    6.5788   -0.0298   20.0666 C   0  0  0  0  0  0  0  0  0  0  0  0
    7.1651   -0.7834   21.1383 N   0  0  0  0  0  0  0  0  0  0  0  0
    7.4680   -2.1192   21.0676 C   0  0  0  0  0  0  0  0  0  0  0  0
    7.1460   -2.6909   20.2090 H   0  0  0  0  0  0  0  0  0  0  0  0
    8.0907   -2.5682   22.1272 N   0  0  0  0  0  0  0  0  0  0  0  0
    8.1720   -1.4833   22.9608 C   0  0  0  0  0  0  0  0  0  0  0  0
    8.7141   -1.5385   23.8993 H   0  0  0  0  0  0  0  0  0  0  0  0
    7.5590   -0.3720   22.4202 C   0  0  0  0  0  0  0  0  0  0  0  0
    7.2657    0.9364   22.9835 C   0  0  0  0  0  0  0  0  0  0  0  0
    6.5697    1.2753   24.2008 C   0  0  0  0  0  0  0  0  0  0  0  0
    6.0020    0.3732   25.2438 C   0  0  0  0  0  0  0  0  0  0  0  0
    6.7794   -0.0354   25.8963 H   0  0  0  0  0  0  0  0  0  0  0  0
    5.3073    0.9430   25.8625 H   0  0  0  0  0  0  0  0  0  0  0  0
    5.4826   -0.4708   24.7869 H   0  0  0  0  0  0  0  0  0  0  0  0
    6.4460    2.5696   24.3331 N   0  0  0  0  0  0  0  0  0  0  0  0
    7.0738    3.1256   23.2357 O   0  0  0  0  0  0  0  0  0  0  0  0
    7.5755    2.1638   22.4625 C   0  0  0  0  0  0  0  0  0  0  0  0
    8.3502    2.5466   21.2539 C   0  0  0  0  0  0  0  0  0  0  0  0
    7.7730    2.3193   20.3567 H   0  0  0  0  0  0  0  0  0  0  0  0
    8.5792    3.6113   21.2618 H   0  0  0  0  0  0  0  0  0  0  0  0
    9.2691    1.9551   21.2042 H   0  0  0  0  0  0  0  0  0  0  0  0
    5.3778    0.6705   20.2380 C   0  0  0  0  0  0  0  0  0  0  0  0
    4.9174    0.7064   21.2249 H   0  0  0  0  0  0  0  0  0  0  0  0
    4.8141    1.3153   19.1337 C   0  0  0  0  0  0  0  0  0  0  0  0
    3.8766    1.8557   19.2155 H   0  0  0  0  0  0  0  0  0  0  0  0
  1  2  1  0
  2  3  2  0
  3  4  1  0
  4  5  1  0
  4  6  2  0
  6  7  1  0
  7  8  1  0
  8  9  1  0
  8 10  2  0
 10 11  1  0
 11 12  1  0
 11 13  2  0
 13 14  1  0
 14 15  1  0
 15 16  1  0
 16 17  1  0
 16 18  1  0
 16 19  1  0
 15 20  2  0
 20 21  1  0
 21 22  1  0
 22 23  1  0
 23 24  1  0
 23 25  1  0
 23 26  1  0
  6 27  1  0
 27 28  1  0
 27 29  2  0
 29 30  1  0
 29  2  1  0
 13  7  1  0
 22 14  2  0
M  END
>  <cnnaffinity>  (1) 
-4.9147

>  <filename>  (1) 
[H]c1nc([H])c(-n2c([H])nc([H])c2-c2c(C([H])([H])[H])noc2C([H])([H])[H])c([H])c1[H]

$$$$
