
     RDKit          3D

 52 56  0  0  0  0  0  0  0  0999 V2000
    8.2747    5.4183   27.2813 C   0  0  0  0  0  0  0  0  0  0  0  0
    8.6035    4.4781   26.2037 N   0  0  0  0  0  4  0  0  0  0  0  0
    8.0386    5.0090   24.8932 C   0  0  0  0  0  0  0  0  0  0  0  0
    7.9866    3.9243   23.8156 C   0  0  0  0  0  0  0  0  0  0  0  0
    8.9586    2.7792   24.1189 C   0  0  0  0  0  0  0  0  0  0  0  0
    8.9656    1.8232   23.0194 N   0  0  0  0  0  0  0  0  0  0  0  0
    7.8652    1.0922   22.7148 N   0  0  0  0  0  0  0  0  0  0  0  0
    8.2805    0.3488   21.7067 C   0  0  0  0  0  0  0  0  0  0  0  0
    7.3918   -0.6270   21.0000 C   0  0  0  0  0  0  0  0  0  0  0  0
    6.6197   -0.0120   19.8391 C   0  0  0  0  0  0  0  0  0  0  0  0
    5.4069    0.6472   20.0733 C   0  0  0  0  0  0  0  0  0  0  0  0
    4.7833    1.3228   19.0230 C   0  0  0  0  0  0  0  0  0  0  0  0
    5.3960    1.3077   17.7670 C   0  0  0  0  0  0  0  0  0  0  0  0
    6.5390    0.6540   17.5076 N   0  0  0  0  0  0  0  0  0  0  0  0
    7.1247    0.0123   18.5257 C   0  0  0  0  0  0  0  0  0  0  0  0
    8.0516   -0.5127   18.2870 H   0  0  0  0  0  0  0  0  0  0  0  0
    4.9529    1.8433   16.9306 H   0  0  0  0  0  0  0  0  0  0  0  0
    3.8577    1.8693   19.1666 H   0  0  0  0  0  0  0  0  0  0  0  0
    4.9722    0.6321   21.0744 H   0  0  0  0  0  0  0  0  0  0  0  0
    6.7012   -1.0329   21.7460 H   0  0  0  0  0  0  0  0  0  0  0  0
    8.0372   -1.4404   20.6562 H   0  0  0  0  0  0  0  0  0  0  0  0
    9.5716    0.5466   21.3458 N   0  0  0  0  0  0  0  0  0  0  0  0
    9.9749    1.4898   22.1840 C   0  0  0  0  0  0  0  0  0  0  0  0
   11.2974    2.0790   22.3055 C   0  0  0  0  0  0  0  0  0  0  0  0
   11.4750    3.4589   22.3947 C   0  0  0  0  0  0  0  0  0  0  0  0
   12.6465    4.0524   22.6848 N   0  0  0  0  0  0  0  0  0  0  0  0
   13.7320    3.2931   22.8227 C   0  0  0  0  0  0  0  0  0  0  0  0
   13.6718    1.8916   22.6588 C   0  0  0  0  0  0  0  0  0  0  0  0
   12.4395    1.2655   22.3796 C   0  0  0  0  0  0  0  0  0  0  0  0
   12.6881   -0.1378   22.2566 C   0  0  0  0  0  0  0  0  0  0  0  0
   14.0312   -0.3149   22.4073 C   0  0  0  0  0  0  0  0  0  0  0  0
   14.6337    0.9006   22.6643 N   0  0  0  0  0  0  0  0  0  0  0  0
   15.6242    1.0781   22.5857 H   0  0  0  0  0  0  0  0  0  0  0  0
   14.6133   -1.2278   22.3773 H   0  0  0  0  0  0  0  0  0  0  0  0
   11.9086   -0.8691   22.0711 H   0  0  0  0  0  0  0  0  0  0  0  0
   14.6591    3.8261   23.0161 H   0  0  0  0  0  0  0  0  0  0  0  0
   10.6390    4.1448   22.2889 H   0  0  0  0  0  0  0  0  0  0  0  0
    8.7027    2.0927   25.4750 C   0  0  0  0  0  0  0  0  0  0  0  0
    8.1416    3.0712   26.5099 C   0  0  0  0  0  0  0  0  0  0  0  0
    8.4508    2.7988   27.5248 H   0  0  0  0  0  0  0  0  0  0  0  0
    7.0465    3.0598   26.4879 H   0  0  0  0  0  0  0  0  0  0  0  0
    9.6523    1.6649   25.8167 H   0  0  0  0  0  0  0  0  0  0  0  0
    8.0070    1.2606   25.3439 H   0  0  0  0  0  0  0  0  0  0  0  0
    9.9566    3.2048   24.2020 H   0  0  0  0  0  0  0  0  0  0  0  0
    8.2293    4.3595   22.8410 H   0  0  0  0  0  0  0  0  0  0  0  0
    6.9765    3.5112   23.7267 H   0  0  0  0  0  0  0  0  0  0  0  0
    7.0339    5.3988   25.0928 H   0  0  0  0  0  0  0  0  0  0  0  0
    8.6562    5.8591   24.5775 H   0  0  0  0  0  0  0  0  0  0  0  0
    9.6353    4.4125   26.0735 H   0  0  0  0  0  0  0  0  0  0  0  0
    8.6286    6.4284   27.0501 H   0  0  0  0  0  0  0  0  0  0  0  0
    8.6927    5.1049   28.2396 H   0  0  0  0  0  0  0  0  0  0  0  0
    7.1827    5.4665   27.3982 H   0  0  0  0  0  0  0  0  0  0  0  0
  1  2  1  0
  2  3  1  0
  3  4  1  0
  4  5  1  0
  5  6  1  0
  6  7  1  0
  7  8  2  0
  8  9  1  0
  9 10  1  0
 10 11  2  0
 11 12  1  0
 12 13  2  0
 13 14  1  0
 14 15  2  0
 15 16  1  0
 13 17  1  0
 12 18  1  0
 11 19  1  0
  9 20  1  0
  9 21  1  0
  8 22  1  0
 22 23  2  0
 23 24  1  0
 24 25  2  0
 25 26  1  0
 26 27  2  0
 27 28  1  0
 28 29  2  0
 29 30  1  0
 30 31  2  0
 31 32  1  0
 32 33  1  0
 31 34  1  0
 30 35  1  0
 27 36  1  0
 25 37  1  0
  5 38  1  0
 38 39  1  0
 39 40  1  0
 39 41  1  0
 38 42  1  0
 38 43  1  0
  5 44  1  0
  4 45  1  0
  4 46  1  0
  3 47  1  0
  3 48  1  0
  2 49  1  0
  1 50  1  0
  1 51  1  0
  1 52  1  0
 39  2  1  0
 23  6  1  0
 29 24  1  0
 15 10  1  0
 32 28  1  0
M  CHG  1   2   1
M  END
>  <cnnaffinity>  (1) 
-6.62027

>  <filename>  (1) 
[H]c1nc([H])c(C([H])([H])c2nc(-c3c([H])nc([H])c4c3c([H])c([H])n4[H])n(C3([H])C([H])([H])C([H])([H])[N+]([H])(C([H])([H])[H])C([H])([H])C3([H])[H])n2)c([H])c1[H]

$$$$
