
     RDKit          3D

 40 42  0  0  0  0  0  0  0  0999 V2000
    5.7203    0.6170   24.8405 C   0  0  0  0  0  0  0  0  0  0  0  0
    6.3854    0.7655   23.6063 O   0  0  0  0  0  0  0  0  0  0  0  0
    7.7891    0.9407   23.7266 C   0  0  0  0  0  0  0  0  0  0  0  0
    8.3751    1.2628   22.3382 C   0  0  0  0  0  0  0  0  0  0  0  0
    8.6882    0.0136   21.4481 N   0  0  0  0  0  4  0  0  0  0  0  0
    7.5173   -0.7966   21.0762 C   0  0  0  0  0  0  0  0  0  0  0  0
    6.7933   -0.0584   19.9760 C   0  0  0  0  0  0  0  0  0  0  0  0
    5.6032    0.6400   20.2204 C   0  0  0  0  0  0  0  0  0  0  0  0
    4.9906    1.3198   19.1631 C   0  0  0  0  0  0  0  0  0  0  0  0
    5.5998    1.2885   17.9062 C   0  0  0  0  0  0  0  0  0  0  0  0
    6.7491    0.6420   17.6592 N   0  0  0  0  0  0  0  0  0  0  0  0
    7.3336    0.0063   18.6811 C   0  0  0  0  0  0  0  0  0  0  0  0
    8.2699   -0.5004   18.4395 H   0  0  0  0  0  0  0  0  0  0  0  0
    5.1502    1.8078   17.0599 H   0  0  0  0  0  0  0  0  0  0  0  0
    4.0653    1.8704   19.2947 H   0  0  0  0  0  0  0  0  0  0  0  0
    5.1877    0.6666   21.2298 H   0  0  0  0  0  0  0  0  0  0  0  0
    7.8202   -1.8040   20.7718 H   0  0  0  0  0  0  0  0  0  0  0  0
    6.8468   -0.8930   21.9348 H   0  0  0  0  0  0  0  0  0  0  0  0
    9.4222   -0.5004   21.9674 H   0  0  0  0  0  0  0  0  0  0  0  0
    9.0913    0.4324   20.5777 H   0  0  0  0  0  0  0  0  0  0  0  0
    9.6681    2.0154   22.3688 C   0  0  0  0  0  0  0  0  0  0  0  0
    9.8454    3.3585   22.3773 C   0  0  0  0  0  0  0  0  0  0  0  0
   11.2238    3.7632   22.4712 C   0  0  0  0  0  0  0  0  0  0  0  0
   11.7742    5.0630   22.4132 C   0  0  0  0  0  0  0  0  0  0  0  0
   13.1456    5.2268   22.5425 C   0  0  0  0  0  0  0  0  0  0  0  0
   13.9869    4.1057   22.7308 C   0  0  0  0  0  0  0  0  0  0  0  0
   13.4678    2.8132   22.7462 C   0  0  0  0  0  0  0  0  0  0  0  0
   12.0831    2.6530   22.6008 C   0  0  0  0  0  0  0  0  0  0  0  0
   11.1898    1.1585   22.5131 S   0  0  0  0  0  0  0  0  0  0  0  0
   14.1116    1.9430   22.8323 H   0  0  0  0  0  0  0  0  0  0  0  0
   15.0532    4.2524   22.8628 H   0  0  0  0  0  0  0  0  0  0  0  0
   13.5784    6.2215   22.4865 H   0  0  0  0  0  0  0  0  0  0  0  0
   11.1112    5.9090   22.2370 H   0  0  0  0  0  0  0  0  0  0  0  0
    9.0291    4.0707   22.3162 H   0  0  0  0  0  0  0  0  0  0  0  0
    7.6108    1.8538   21.8303 H   0  0  0  0  0  0  0  0  0  0  0  0
    8.2587    0.0297   24.1286 H   0  0  0  0  0  0  0  0  0  0  0  0
    8.0233    1.7628   24.4175 H   0  0  0  0  0  0  0  0  0  0  0  0
    5.8258    1.5188   25.4631 H   0  0  0  0  0  0  0  0  0  0  0  0
    6.0870   -0.2466   25.4179 H   0  0  0  0  0  0  0  0  0  0  0  0
    4.6610    0.4604   24.6263 H   0  0  0  0  0  0  0  0  0  0  0  0
  1  2  1  0
  2  3  1  0
  3  4  1  0
  4  5  1  0
  5  6  1  0
  6  7  1  0
  7  8  2  0
  8  9  1  0
  9 10  2  0
 10 11  1  0
 11 12  2  0
 12 13  1  0
 10 14  1  0
  9 15  1  0
  8 16  1  0
  6 17  1  0
  6 18  1  0
  5 19  1  0
  5 20  1  0
  4 21  1  0
 21 22  2  0
 22 23  1  0
 23 24  2  0
 24 25  1  0
 25 26  2  0
 26 27  1  0
 27 28  2  0
 28 29  1  0
 27 30  1  0
 26 31  1  0
 25 32  1  0
 24 33  1  0
 22 34  1  0
  4 35  1  0
  3 36  1  0
  3 37  1  0
  1 38  1  0
  1 39  1  0
  1 40  1  0
 12  7  1  0
 29 21  1  0
 28 23  1  0
M  CHG  1   5   1
M  END
>  <cnnaffinity>  (1) 
-4.9245

>  <filename>  (1) 
[H]c1nc([H])c(C([H])([H])[N+]([H])([H])C([H])(c2sc3c([H])c([H])c([H])c([H])c3c2[H])C([H])([H])OC([H])([H])[H])c([H])c1[H]

$$$$
