
     RDKit          3D

 32 34  0  0  0  0  0  0  0  0999 V2000
    4.9312    1.7810   17.0066 H   0  0  0  0  0  0  0  0  0  0  0  0
    5.4037    1.2845   17.8507 C   0  0  0  0  0  0  0  0  0  0  0  0
    6.5611    0.6595   17.5881 N   0  0  0  0  0  0  0  0  0  0  0  0
    7.1785    0.0440   18.6016 C   0  0  0  0  0  0  0  0  0  0  0  0
    8.1327   -0.4277   18.3807 H   0  0  0  0  0  0  0  0  0  0  0  0
    6.6708   -0.0016   19.9166 C   0  0  0  0  0  0  0  0  0  0  0  0
    7.3699   -0.6734   20.9582 N   0  0  0  0  0  0  0  0  0  0  0  0
    6.6719   -1.2048   22.0155 N   0  0  0  0  0  0  0  0  0  0  0  0
    7.5204   -1.7625   22.8173 C   0  0  0  0  0  0  0  0  0  0  0  0
    7.0947   -2.4762   24.0685 C   0  0  0  0  0  0  0  0  0  0  0  0
    7.9851   -2.7570   24.6411 H   0  0  0  0  0  0  0  0  0  0  0  0
    6.4879   -1.8080   24.6902 H   0  0  0  0  0  0  0  0  0  0  0  0
    6.3337   -3.6953   23.8288 N   0  0  0  0  0  0  0  0  0  0  0  0
    4.9481   -3.7025   23.7428 N   0  0  0  0  0  0  0  0  0  0  0  0
    4.6987   -4.8988   23.3598 C   0  0  0  0  0  0  0  0  0  0  0  0
    3.4821   -5.3671   23.1627 O   0  0  0  0  0  0  0  0  0  0  0  0
    3.2251   -6.7170   22.7572 C   0  0  0  0  0  0  0  0  0  0  0  0
    3.6402   -6.9359   21.7674 H   0  0  0  0  0  0  0  0  0  0  0  0
    2.1366   -6.7628   22.7092 H   0  0  0  0  0  0  0  0  0  0  0  0
    3.5851   -7.4523   23.4872 H   0  0  0  0  0  0  0  0  0  0  0  0
    5.7696   -5.6907   23.1416 O   0  0  0  0  0  0  0  0  0  0  0  0
    6.8631   -4.8900   23.4312 C   0  0  0  0  0  0  0  0  0  0  0  0
    8.0092   -5.2245   23.3165 O   0  0  0  0  0  0  0  0  0  0  0  0
    8.9394   -1.6078   22.3699 C   0  0  0  0  0  0  0  0  0  0  0  0
    9.4321   -2.5684   22.1727 H   0  0  0  0  0  0  0  0  0  0  0  0
    9.5829   -1.0457   23.0574 H   0  0  0  0  0  0  0  0  0  0  0  0
    8.7535   -0.8224   21.0906 C   0  0  0  0  0  0  0  0  0  0  0  0
    9.6094   -0.4015   20.3476 O   0  0  0  0  0  0  0  0  0  0  0  0
    5.4507    0.6382   20.1775 C   0  0  0  0  0  0  0  0  0  0  0  0
    5.0312    0.6020   21.1825 H   0  0  0  0  0  0  0  0  0  0  0  0
    4.8192    1.3009   19.1222 C   0  0  0  0  0  0  0  0  0  0  0  0
    3.8876    1.8322   19.2689 H   0  0  0  0  0  0  0  0  0  0  0  0
  1  2  1  0
  2  3  2  0
  3  4  1  0
  4  5  1  0
  4  6  2  0
  6  7  1  0
  7  8  1  0
  8  9  2  0
  9 10  1  0
 10 11  1  0
 10 12  1  0
 10 13  1  0
 13 14  1  0
 14 15  2  0
 15 16  1  0
 16 17  1  0
 17 18  1  0
 17 19  1  0
 17 20  1  0
 15 21  1  0
 21 22  1  0
 22 23  2  0
  9 24  1  0
 24 25  1  0
 24 26  1  0
 24 27  1  0
 27 28  2  0
  6 29  1  0
 29 30  1  0
 29 31  2  0
 31 32  1  0
 31  2  1  0
 27  7  1  0
 22 13  1  0
M  END
>  <cnnaffinity>  (1) 
-5.28365

>  <filename>  (1) 
[H]c1nc([H])c(N2N=C(C([H])([H])n3nc(OC([H])([H])[H])oc3=O)C([H])([H])C2=O)c([H])c1[H]

$$$$
