
     RDKit          3D

 46 49  0  0  0  0  0  0  0  0999 V2000
    8.0310   -4.0775   25.0431 C   0  0  0  0  0  0  0  0  0  0  0  0
    7.2027   -4.3816   23.7961 C   0  0  0  0  0  0  0  0  0  0  0  0
    8.0169   -4.6271   22.5121 C   0  0  0  0  0  0  0  0  0  0  0  0
    7.1136   -5.0699   21.3610 C   0  0  0  0  0  0  0  0  0  0  0  0
    7.7190   -5.3557   20.4952 H   0  0  0  0  0  0  0  0  0  0  0  0
    6.5012   -5.9336   21.6397 H   0  0  0  0  0  0  0  0  0  0  0  0
    6.4464   -4.2598   21.0440 H   0  0  0  0  0  0  0  0  0  0  0  0
    8.8844   -3.4195   22.0678 C   0  0  0  0  0  0  0  0  0  0  0  0
    8.1981   -2.1045   21.9275 C   0  0  0  0  0  0  0  0  0  0  0  0
    7.7182   -1.7335   20.7638 N   0  0  0  0  0  0  0  0  0  0  0  0
    7.2122   -0.5012   20.9884 N   0  0  0  0  0  0  0  0  0  0  0  0
    6.5196    0.1183   19.9120 C   0  0  0  0  0  0  0  0  0  0  0  0
    5.2873    0.7610   20.0658 C   0  0  0  0  0  0  0  0  0  0  0  0
    4.7229    1.3582   18.9333 C   0  0  0  0  0  0  0  0  0  0  0  0
    5.4091    1.2970   17.7167 C   0  0  0  0  0  0  0  0  0  0  0  0
    6.5718    0.6393   17.5593 N   0  0  0  0  0  0  0  0  0  0  0  0
    7.0920    0.0379   18.6296 C   0  0  0  0  0  0  0  0  0  0  0  0
    8.0014   -0.5433   18.4801 H   0  0  0  0  0  0  0  0  0  0  0  0
    5.0036    1.7649   16.8241 H   0  0  0  0  0  0  0  0  0  0  0  0
    3.7734    1.8807   18.9860 H   0  0  0  0  0  0  0  0  0  0  0  0
    4.7970    0.8103   21.0404 H   0  0  0  0  0  0  0  0  0  0  0  0
    7.4510   -0.1562   22.2925 C   0  0  0  0  0  0  0  0  0  0  0  0
    7.1376    1.2008   22.8674 C   0  0  0  0  0  0  0  0  0  0  0  0
    7.4569    2.2751   22.1478 N   0  0  0  0  0  0  0  0  0  0  0  0
    7.2196    3.5097   22.6588 C   0  0  0  0  0  0  0  0  0  0  0  0
    6.6525    3.7298   23.8945 C   0  0  0  0  0  0  0  0  0  0  0  0
    6.3061    2.6208   24.6984 C   0  0  0  0  0  0  0  0  0  0  0  0
    5.7348    2.7342   25.9918 C   0  0  0  0  0  0  0  0  0  0  0  0
    5.4086    1.5860   26.6725 C   0  0  0  0  0  0  0  0  0  0  0  0
    5.5897    0.3327   26.1882 N   0  0  0  0  0  0  0  0  0  0  0  0
    6.1281    0.2132   24.9892 C   0  0  0  0  0  0  0  0  0  0  0  0
    6.5330    1.3144   24.1767 C   0  0  0  0  0  0  0  0  0  0  0  0
    6.2787   -0.7930   24.6016 H   0  0  0  0  0  0  0  0  0  0  0  0
    4.9620    1.6372   27.6625 H   0  0  0  0  0  0  0  0  0  0  0  0
    5.5537    3.7142   26.4270 H   0  0  0  0  0  0  0  0  0  0  0  0
    6.4513    4.7352   24.2442 H   0  0  0  0  0  0  0  0  0  0  0  0
    7.5039    4.3429   22.0199 H   0  0  0  0  0  0  0  0  0  0  0  0
    8.0417   -1.1921   22.9072 N   0  0  0  0  0  0  0  0  0  0  0  0
    9.2353   -3.5785   21.0453 H   0  0  0  0  0  0  0  0  0  0  0  0
    9.7494   -3.2940   22.7237 H   0  0  0  0  0  0  0  0  0  0  0  0
    8.7103   -5.4572   22.7302 H   0  0  0  0  0  0  0  0  0  0  0  0
    6.6013   -5.2804   23.9962 H   0  0  0  0  0  0  0  0  0  0  0  0
    6.4821   -3.5684   23.6250 H   0  0  0  0  0  0  0  0  0  0  0  0
    7.3810   -3.9451   25.9138 H   0  0  0  0  0  0  0  0  0  0  0  0
    8.6151   -3.1590   24.9301 H   0  0  0  0  0  0  0  0  0  0  0  0
    8.7264   -4.8934   25.2753 H   0  0  0  0  0  0  0  0  0  0  0  0
  1  2  1  0
  2  3  1  0
  3  4  1  0
  4  5  1  0
  4  6  1  0
  4  7  1  0
  3  8  1  0
  8  9  1  0
  9 10  2  0
 10 11  1  0
 11 12  1  0
 12 13  2  0
 13 14  1  0
 14 15  2  0
 15 16  1  0
 16 17  2  0
 17 18  1  0
 15 19  1  0
 14 20  1  0
 13 21  1  0
 11 22  1  0
 22 23  1  0
 23 24  2  0
 24 25  1  0
 25 26  2  0
 26 27  1  0
 27 28  2  0
 28 29  1  0
 29 30  2  0
 30 31  1  0
 31 32  2  0
 31 33  1  0
 29 34  1  0
 28 35  1  0
 26 36  1  0
 25 37  1  0
 22 38  2  0
  8 39  1  0
  8 40  1  0
  3 41  1  0
  2 42  1  0
  2 43  1  0
  1 44  1  0
  1 45  1  0
  1 46  1  0
 38  9  1  0
 17 12  1  0
 32 23  1  0
 32 27  1  0
M  END
>  <cnnaffinity>  (1) 
-6.05945

>  <filename>  (1) 
[H]c1nc([H])c(-n2nc(C([H])([H])C([H])(C([H])([H])[H])C([H])([H])C([H])([H])[H])nc2-c2nc([H])c([H])c3c([H])c([H])nc([H])c23)c([H])c1[H]

$$$$
