
     RDKit          3D

 30 32  0  0  0  0  0  0  0  0999 V2000
    4.8605    1.8452   16.9456 H   0  0  0  0  0  0  0  0  0  0  0  0
    5.3596    1.2745   17.7237 C   0  0  0  0  0  0  0  0  0  0  0  0
    6.4705    0.6199   17.3552 N   0  0  0  0  0  0  0  0  0  0  0  0
    7.1289   -0.0567   18.3025 C   0  0  0  0  0  0  0  0  0  0  0  0
    8.0366   -0.5692   17.9889 H   0  0  0  0  0  0  0  0  0  0  0  0
    6.7258   -0.1068   19.6533 C   0  0  0  0  0  0  0  0  0  0  0  0
    7.7907   -0.9123   20.8626 S   0  0  0  0  0  0  0  0  0  0  0  0
    8.5886    0.5253   21.5461 C   0  0  0  0  0  0  0  0  0  0  0  0
    9.8428    0.9026   21.3954 N   0  0  0  0  0  0  0  0  0  0  0  0
    9.9336    2.1275   21.9603 N   0  0  0  0  0  0  0  0  0  0  0  0
    8.8092    2.5067   22.4518 N   0  0  0  0  0  0  0  0  0  0  0  0
    7.9565    1.5073   22.2137 N   0  0  0  0  0  0  0  0  0  0  0  0
    6.6727    1.4462   22.6527 O   0  0  0  0  0  0  0  0  0  0  0  0
    6.2454    2.5098   23.5301 C   0  0  0  0  0  0  0  0  0  0  0  0
    6.3926    3.4813   23.0520 H   0  0  0  0  0  0  0  0  0  0  0  0
    5.1780    2.3046   23.5876 H   0  0  0  0  0  0  0  0  0  0  0  0
    6.8553    2.4855   24.9116 C   0  0  0  0  0  0  0  0  0  0  0  0
    6.6252    1.4243   25.7967 C   0  0  0  0  0  0  0  0  0  0  0  0
    6.0804    0.5422   25.4739 H   0  0  0  0  0  0  0  0  0  0  0  0
    7.0973    1.5246   27.1103 C   0  0  0  0  0  0  0  0  0  0  0  0
    6.8775    0.7402   27.8296 H   0  0  0  0  0  0  0  0  0  0  0  0
    7.8005    2.5664   27.5744 N   0  0  0  0  0  0  0  0  0  0  0  0
    8.0767    3.5502   26.7103 C   0  0  0  0  0  0  0  0  0  0  0  0
    8.6664    4.3773   27.1050 H   0  0  0  0  0  0  0  0  0  0  0  0
    7.6205    3.5581   25.3876 C   0  0  0  0  0  0  0  0  0  0  0  0
    7.8621    4.3798   24.7201 H   0  0  0  0  0  0  0  0  0  0  0  0
    5.5266    0.5269   20.0095 C   0  0  0  0  0  0  0  0  0  0  0  0
    5.1548    0.4906   21.0310 H   0  0  0  0  0  0  0  0  0  0  0  0
    4.8446    1.2474   19.0232 C   0  0  0  0  0  0  0  0  0  0  0  0
    3.9478    1.8074   19.2641 H   0  0  0  0  0  0  0  0  0  0  0  0
  1  2  1  0
  2  3  2  0
  3  4  1  0
  4  5  1  0
  4  6  2  0
  6  7  1  0
  7  8  1  0
  8  9  2  0
  9 10  1  0
 10 11  2  0
 11 12  1  0
 12 13  1  0
 13 14  1  0
 14 15  1  0
 14 16  1  0
 14 17  1  0
 17 18  2  0
 18 19  1  0
 18 20  1  0
 20 21  1  0
 20 22  2  0
 22 23  1  0
 23 24  1  0
 23 25  2  0
 25 26  1  0
  6 27  1  0
 27 28  1  0
 27 29  2  0
 29 30  1  0
 29  2  1  0
 12  8  1  0
 25 17  1  0
M  END
>  <cnnaffinity>  (1) 
-4.58747

>  <filename>  (1) 
[H]c1nc([H])c(Sc2nnnn2OC([H])([H])c2c([H])c([H])nc([H])c2[H])c([H])c1[H]

$$$$
