
     RDKit          3D

 27 28  0  0  0  0  0  0  0  0999 V2000
   11.0332   -3.3449   22.6012 H   0  0  0  0  0  0  0  0  0  0  0  0
   10.6108   -2.3873   22.8857 C   0  0  0  0  0  0  0  0  0  0  0  0
   10.4095   -1.5073   21.9159 N   0  0  0  0  0  0  0  0  0  0  0  0
    9.7436   -0.4132   22.2770 C   0  0  0  0  0  0  0  0  0  0  0  0
    8.9675    0.2949   21.2404 C   0  0  0  0  0  0  0  0  0  0  0  0
    8.7442    1.3151   21.5414 H   0  0  0  0  0  0  0  0  0  0  0  0
    9.4572    0.2101   20.2753 H   0  0  0  0  0  0  0  0  0  0  0  0
    7.4676   -0.7501   21.2451 S   0  0  0  0  0  4  0  0  0  0  0  0
    7.9414   -2.0589   20.7095 O   0  0  0  0  0  0  0  0  0  0  0  0
    6.6183    0.0667   19.9133 C   0  0  0  0  0  0  0  0  0  0  0  0
    7.1336   -0.0456   18.6192 C   0  0  0  0  0  0  0  0  0  0  0  0
    8.0232   -0.6385   18.4117 H   0  0  0  0  0  0  0  0  0  0  0  0
    6.5736    0.5650   17.5697 N   0  0  0  0  0  0  0  0  0  0  0  0
    5.4540    1.2761   17.7787 C   0  0  0  0  0  0  0  0  0  0  0  0
    5.0266    1.7733   16.9104 H   0  0  0  0  0  0  0  0  0  0  0  0
    4.8365    1.3805   19.0299 C   0  0  0  0  0  0  0  0  0  0  0  0
    3.9155    1.9410   19.1307 H   0  0  0  0  0  0  0  0  0  0  0  0
    5.4291    0.7614   20.1303 C   0  0  0  0  0  0  0  0  0  0  0  0
    4.9886    0.8173   21.1260 H   0  0  0  0  0  0  0  0  0  0  0  0
    9.5702    0.0135   23.5193 N   0  0  0  0  0  0  0  0  0  0  0  0
    9.8747   -0.8287   24.5182 C   0  0  0  0  0  0  0  0  0  0  0  0
    9.7494   -0.2751   25.9673 C   0  0  0  0  0  0  0  0  0  0  0  0
   10.9360    0.2131   26.3706 F   0  0  0  0  0  0  0  0  0  0  0  0
    8.8521    0.7043   26.1055 F   0  0  0  0  0  0  0  0  0  0  0  0
    9.3997   -1.2536   26.8277 F   0  0  0  0  0  0  0  0  0  0  0  0
   10.3206   -2.1219   24.2299 C   0  0  0  0  0  0  0  0  0  0  0  0
   10.4615   -2.8923   24.9798 H   0  0  0  0  0  0  0  0  0  0  0  0
  1  2  1  0
  2  3  2  0
  3  4  1  0
  4  5  1  0
  5  6  1  0
  5  7  1  0
  8  5  1  1
  8  9  2  0
  8 10  1  0
 10 11  2  0
 11 12  1  0
 11 13  1  0
 13 14  2  0
 14 15  1  0
 14 16  1  0
 16 17  1  0
 16 18  2  0
 18 19  1  0
  4 20  2  0
 20 21  1  0
 21 22  1  0
 22 23  1  0
 22 24  1  0
 22 25  1  0
 21 26  2  0
 26 27  1  0
 26  2  1  0
 18 10  1  0
M  END
>  <cnnaffinity>  (1) 
-4.77259

>  <filename>  (1) 
[H]c1nc(C([H])([H])[S@@](=O)c2c([H])nc([H])c([H])c2[H])nc(C(F)(F)F)c1[H]

$$$$
