
     RDKit          3D

 32 34  0  0  0  0  0  0  0  0999 V2000
   12.6010    1.7837   24.6262 H   0  0  0  0  0  0  0  0  0  0  0  0
   12.6866    0.9965   23.8742 C   0  0  0  0  0  0  0  0  0  0  0  0
   11.5991    0.7690   23.1317 N   0  0  0  0  0  0  0  0  0  0  0  0
   11.6632   -0.1966   22.1859 C   0  0  0  0  0  0  0  0  0  0  0  0
   10.4122   -0.5068   21.3335 C   0  0  0  0  0  0  0  0  0  0  0  0
   10.2035   -1.6169   20.8677 O   0  0  0  0  0  0  0  0  0  0  0  0
    9.5574    0.5341   21.0819 N   0  0  0  0  0  0  0  0  0  0  0  0
    9.6149    1.3036   21.7324 H   0  0  0  0  0  0  0  0  0  0  0  0
    8.3271    0.2908   20.3480 C   0  0  0  0  0  0  0  0  0  0  0  0
    7.8044    1.2335   20.1431 H   0  0  0  0  0  0  0  0  0  0  0  0
    8.5877   -0.1339   19.3693 H   0  0  0  0  0  0  0  0  0  0  0  0
    7.3546   -0.6712   20.9961 C   0  0  0  0  0  0  0  0  0  0  0  0
    7.4564   -1.3623   22.1006 N   0  0  0  0  0  0  0  0  0  0  0  0
    6.3371   -2.1192   22.1760 N   0  0  0  0  0  0  0  0  0  0  0  0
    5.5609   -1.9055   21.1779 N   0  0  0  0  0  0  0  0  0  0  0  0
    6.1803   -0.9972   20.4027 N   0  0  0  0  0  0  0  0  0  0  0  0
    5.5806   -0.2972   19.3171 C   0  0  0  0  0  0  0  0  0  0  0  0
    6.0477   -0.4670   18.0071 C   0  0  0  0  0  0  0  0  0  0  0  0
    6.7156   -1.2936   17.7697 H   0  0  0  0  0  0  0  0  0  0  0  0
    5.7595    0.3833   17.0180 N   0  0  0  0  0  0  0  0  0  0  0  0
    4.9455    1.4107   17.2984 C   0  0  0  0  0  0  0  0  0  0  0  0
    4.7820    2.1209   16.4923 H   0  0  0  0  0  0  0  0  0  0  0  0
    4.3345    1.5920   18.5434 C   0  0  0  0  0  0  0  0  0  0  0  0
    3.6333    2.4074   18.6894 H   0  0  0  0  0  0  0  0  0  0  0  0
    4.6716    0.7264   19.5864 C   0  0  0  0  0  0  0  0  0  0  0  0
    4.2893    0.8475   20.5979 H   0  0  0  0  0  0  0  0  0  0  0  0
   12.8232   -0.9638   21.9601 C   0  0  0  0  0  0  0  0  0  0  0  0
   12.8200   -1.7457   21.2085 H   0  0  0  0  0  0  0  0  0  0  0  0
   13.9587   -0.7100   22.7268 C   0  0  0  0  0  0  0  0  0  0  0  0
   14.8588   -1.3123   22.5958 H   0  0  0  0  0  0  0  0  0  0  0  0
   13.8827    0.2928   23.6988 C   0  0  0  0  0  0  0  0  0  0  0  0
   14.7203    0.5212   24.3263 H   0  0  0  0  0  0  0  0  0  0  0  0
  1  2  1  0
  2  3  2  0
  3  4  1  0
  4  5  1  0
  5  6  2  0
  5  7  1  0
  7  8  1  0
  7  9  1  0
  9 10  1  0
  9 11  1  0
  9 12  1  0
 12 13  2  0
 13 14  1  0
 14 15  2  0
 15 16  1  0
 16 17  1  0
 17 18  2  0
 18 19  1  0
 18 20  1  0
 20 21  2  0
 21 22  1  0
 21 23  1  0
 23 24  1  0
 23 25  2  0
 25 26  1  0
  4 27  2  0
 27 28  1  0
 27 29  1  0
 29 30  1  0
 29 31  2  0
 31 32  1  0
 31  2  1  0
 16 12  1  0
 25 17  1  0
M  END
>  <cnnaffinity>  (1) 
-5.36818

>  <filename>  (1) 
[H]c1nc(C(=O)N([H])C([H])([H])c2nnnn2-c2c([H])nc([H])c([H])c2[H])c([H])c([H])c1[H]

$$$$
