
     RDKit          3D

 36 37  0  0  0  0  0  0  0  0999 V2000
    8.6456    1.2642   21.7691 C   0  0  0  0  0  0  0  0  0  0  0  0
    8.6669   -0.2181   21.3794 C   0  0  0  0  0  0  0  0  0  0  0  0
    7.2582   -0.7968   21.1040 C   0  0  0  0  0  0  0  0  0  0  0  0
    7.2783   -2.2089   20.8175 N   0  0  0  0  0  0  0  0  0  0  0  0
    7.4039   -3.2125   21.7435 C   0  0  0  0  0  0  0  0  0  0  0  0
    7.4990   -4.5474   21.3138 C   0  0  0  0  0  0  0  0  0  0  0  0
    7.6887   -5.5681   22.2419 C   0  0  0  0  0  0  0  0  0  0  0  0
    7.7797   -5.2791   23.6070 C   0  0  0  0  0  0  0  0  0  0  0  0
    7.6102   -3.9567   24.0406 C   0  0  0  0  0  0  0  0  0  0  0  0
    7.6063   -3.5744   25.7816 S   0  0  0  0  0  0  0  0  0  0  0  0
    9.3681   -3.2897   26.0402 C   0  0  0  0  0  0  0  0  0  0  0  0
    9.8029   -2.2865   25.2331 F   0  0  0  0  0  0  0  0  0  0  0  0
   10.0988   -4.3981   25.7613 F   0  0  0  0  0  0  0  0  0  0  0  0
    9.5369   -3.0090   27.0851 H   0  0  0  0  0  0  0  0  0  0  0  0
    7.4163   -2.9301   23.1173 C   0  0  0  0  0  0  0  0  0  0  0  0
    7.3052   -1.9046   23.4452 H   0  0  0  0  0  0  0  0  0  0  0  0
    7.9833   -6.0697   24.3240 H   0  0  0  0  0  0  0  0  0  0  0  0
    7.7503   -6.5960   21.8978 H   0  0  0  0  0  0  0  0  0  0  0  0
    7.3789   -4.7589   20.2580 H   0  0  0  0  0  0  0  0  0  0  0  0
    7.3813   -2.4603   19.8513 H   0  0  0  0  0  0  0  0  0  0  0  0
    6.5840   -0.1247   19.9349 C   0  0  0  0  0  0  0  0  0  0  0  0
    5.4076    0.6155   20.0824 C   0  0  0  0  0  0  0  0  0  0  0  0
    4.8921    1.2761   18.9652 C   0  0  0  0  0  0  0  0  0  0  0  0
    5.5675    1.1662   17.7456 C   0  0  0  0  0  0  0  0  0  0  0  0
    6.6752    0.4273   17.5793 N   0  0  0  0  0  0  0  0  0  0  0  0
    7.1570   -0.2046   18.6576 C   0  0  0  0  0  0  0  0  0  0  0  0
    8.0589   -0.7988   18.4840 H   0  0  0  0  0  0  0  0  0  0  0  0
    5.2089    1.6989   16.8660 H   0  0  0  0  0  0  0  0  0  0  0  0
    4.0005    1.8864   19.0380 H   0  0  0  0  0  0  0  0  0  0  0  0
    4.9115    0.6678   21.0556 H   0  0  0  0  0  0  0  0  0  0  0  0
    6.6403   -0.6298   22.0002 H   0  0  0  0  0  0  0  0  0  0  0  0
    9.2809   -0.3581   20.4812 H   0  0  0  0  0  0  0  0  0  0  0  0
    9.1424   -0.8249   22.1604 H   0  0  0  0  0  0  0  0  0  0  0  0
    9.6569    1.6810   21.8511 H   0  0  0  0  0  0  0  0  0  0  0  0
    8.1438    1.4116   22.7333 H   0  0  0  0  0  0  0  0  0  0  0  0
    8.1005    1.8504   21.0185 H   0  0  0  0  0  0  0  0  0  0  0  0
  1  2  1  0
  2  3  1  0
  3  4  1  0
  4  5  1  0
  5  6  2  0
  6  7  1  0
  7  8  2  0
  8  9  1  0
  9 10  1  0
 10 11  1  0
 11 12  1  0
 11 13  1  0
 11 14  1  0
  9 15  2  0
 15 16  1  0
  8 17  1  0
  7 18  1  0
  6 19  1  0
  4 20  1  0
  3 21  1  0
 21 22  2  0
 22 23  1  0
 23 24  2  0
 24 25  1  0
 25 26  2  0
 26 27  1  0
 24 28  1  0
 23 29  1  0
 22 30  1  0
  3 31  1  0
  2 32  1  0
  2 33  1  0
  1 34  1  0
  1 35  1  0
  1 36  1  0
 15  5  1  0
 26 21  1  0
M  END
>  <cnnaffinity>  (1) 
-5.16706

>  <filename>  (1) 
[H]c1nc([H])c(C([H])(N([H])c2c([H])c([H])c([H])c(SC([H])(F)F)c2[H])C([H])([H])C([H])([H])[H])c([H])c1[H]

$$$$
