
     RDKit          3D

 28 30  0  0  0  0  0  0  0  0999 V2000
    4.9437    1.8259   16.9871 H   0  0  0  0  0  0  0  0  0  0  0  0
    5.3956    1.2965   17.8274 C   0  0  0  0  0  0  0  0  0  0  0  0
    6.5447    0.6520   17.5740 N   0  0  0  0  0  0  0  0  0  0  0  0
    7.1596    0.0143   18.5826 C   0  0  0  0  0  0  0  0  0  0  0  0
    8.1009   -0.4551   18.3088 H   0  0  0  0  0  0  0  0  0  0  0  0
    6.6525   -0.0366   19.9056 C   0  0  0  0  0  0  0  0  0  0  0  0
    7.2961   -0.7331   20.9984 N   0  0  0  0  0  0  0  0  0  0  0  0
    6.7172   -1.6063   21.8985 C   0  0  0  0  0  0  0  0  0  0  0  0
    5.6683   -1.8679   21.9118 H   0  0  0  0  0  0  0  0  0  0  0  0
    7.5959   -2.0826   22.7310 N   0  0  0  0  0  0  0  0  0  0  0  0
    8.8052   -1.5161   22.4301 N   0  0  0  0  0  0  0  0  0  0  0  0
    8.6190   -0.7118   21.4225 C   0  0  0  0  0  0  0  0  0  0  0  0
    9.8835    0.3214   20.7722 S   0  0  0  0  0  0  0  0  0  0  0  0
    9.4727    1.8198   21.6704 C   0  0  0  0  0  0  0  0  0  0  0  0
    8.4589    2.6567   21.1952 C   0  0  0  0  0  0  0  0  0  0  0  0
    7.9117    2.3778   20.2991 H   0  0  0  0  0  0  0  0  0  0  0  0
    8.1238    3.8139   21.9058 C   0  0  0  0  0  0  0  0  0  0  0  0
    7.3895    4.5077   21.5022 H   0  0  0  0  0  0  0  0  0  0  0  0
    8.7405    4.0816   23.1302 C   0  0  0  0  0  0  0  0  0  0  0  0
    8.4288    4.9561   23.6929 H   0  0  0  0  0  0  0  0  0  0  0  0
    9.7118    3.2114   23.6375 C   0  0  0  0  0  0  0  0  0  0  0  0
   10.1310    3.3908   24.6260 H   0  0  0  0  0  0  0  0  0  0  0  0
   10.0953    2.0849   22.8988 C   0  0  0  0  0  0  0  0  0  0  0  0
   10.8356    1.3861   23.2839 H   0  0  0  0  0  0  0  0  0  0  0  0
    5.4493    0.6395   20.1467 C   0  0  0  0  0  0  0  0  0  0  0  0
    5.0503    0.6613   21.1592 H   0  0  0  0  0  0  0  0  0  0  0  0
    4.8070    1.3088   19.0940 C   0  0  0  0  0  0  0  0  0  0  0  0
    3.8726    1.8437   19.2384 H   0  0  0  0  0  0  0  0  0  0  0  0
  1  2  1  0
  2  3  2  0
  3  4  1  0
  4  5  1  0
  4  6  2  0
  6  7  1  0
  7  8  1  0
  8  9  1  0
  8 10  2  0
 10 11  1  0
 11 12  2  0
 12 13  1  0
 13 14  1  0
 14 15  2  0
 15 16  1  0
 15 17  1  0
 17 18  1  0
 17 19  2  0
 19 20  1  0
 19 21  1  0
 21 22  1  0
 21 23  2  0
 23 24  1  0
  6 25  1  0
 25 26  1  0
 25 27  2  0
 27 28  1  0
 27  2  1  0
 12  7  1  0
 23 14  1  0
M  END
>  <cnnaffinity>  (1) 
-5.02412

>  <filename>  (1) 
[H]c1nc([H])c(-n2c([H])nnc2Sc2c([H])c([H])c([H])c([H])c2[H])c([H])c1[H]

$$$$
