
     RDKit          3D

 35 38  0  0  0  0  0  0  0  0999 V2000
   10.7019    1.8418   25.1760 Cl  0  0  0  0  0  0  0  0  0  0  0  0
   11.6717    2.9075   24.2026 C   0  0  0  0  0  0  0  0  0  0  0  0
   11.3754    4.2705   24.2302 C   0  0  0  0  0  0  0  0  0  0  0  0
   12.1978    5.1488   23.5263 C   0  0  0  0  0  0  0  0  0  0  0  0
   13.2895    4.6321   22.8301 C   0  0  0  0  0  0  0  0  0  0  0  0
   13.5540    3.3231   22.7672 N   0  0  0  0  0  0  0  0  0  0  0  0
   12.7485    2.4596   23.3994 C   0  0  0  0  0  0  0  0  0  0  0  0
   13.0990    0.7216   23.1830 S   0  0  0  0  0  0  0  0  0  0  0  0
   11.8924    0.2623   21.8852 C   0  0  0  0  0  0  0  0  0  0  0  0
   10.4180    0.0933   22.2576 C   0  0  0  0  0  0  0  0  0  0  0  0
    9.5441   -0.0436   20.9960 C   0  0  0  0  0  0  0  0  0  0  0  0
    8.3525   -0.7235   21.4435 N   0  0  0  0  0  0  0  0  0  0  0  0
    8.4656   -1.5515   22.5129 C   0  0  0  0  0  0  0  0  0  0  0  0
    7.3418   -2.1628   22.7662 N   0  0  0  0  0  0  0  0  0  0  0  0
    6.4364   -1.7002   21.8262 N   0  0  0  0  0  0  0  0  0  0  0  0
    7.0493   -0.8344   21.0586 C   0  0  0  0  0  0  0  0  0  0  0  0
    6.4962   -0.0386   19.9545 C   0  0  0  0  0  0  0  0  0  0  0  0
    5.2877    0.6656   20.0521 C   0  0  0  0  0  0  0  0  0  0  0  0
    4.8415    1.3601   18.9261 C   0  0  0  0  0  0  0  0  0  0  0  0
    5.6079    1.3273   17.7563 C   0  0  0  0  0  0  0  0  0  0  0  0
    6.7735    0.6706   17.6579 N   0  0  0  0  0  0  0  0  0  0  0  0
    7.2039    0.0242   18.7457 C   0  0  0  0  0  0  0  0  0  0  0  0
    8.1598   -0.4875   18.6467 H   0  0  0  0  0  0  0  0  0  0  0  0
    5.2760    1.8471   16.8581 H   0  0  0  0  0  0  0  0  0  0  0  0
    3.9215    1.9327   18.9411 H   0  0  0  0  0  0  0  0  0  0  0  0
    4.7177    0.6799   20.9845 H   0  0  0  0  0  0  0  0  0  0  0  0
   10.0684   -1.4566   23.2289 S   0  0  0  0  0  0  0  0  0  0  0  0
   10.0682   -0.6640   20.2575 H   0  0  0  0  0  0  0  0  0  0  0  0
    9.3057    0.9114   20.5202 H   0  0  0  0  0  0  0  0  0  0  0  0
   10.0459    0.9295   22.8620 H   0  0  0  0  0  0  0  0  0  0  0  0
   11.9658    1.0334   21.1117 H   0  0  0  0  0  0  0  0  0  0  0  0
   12.2666   -0.6883   21.4754 H   0  0  0  0  0  0  0  0  0  0  0  0
   13.9730    5.2924   22.2975 H   0  0  0  0  0  0  0  0  0  0  0  0
   11.9837    6.2089   23.5064 H   0  0  0  0  0  0  0  0  0  0  0  0
   10.5037    4.6175   24.7791 H   0  0  0  0  0  0  0  0  0  0  0  0
  1  2  1  0
  2  3  2  0
  3  4  1  0
  4  5  2  0
  5  6  1  0
  6  7  2  0
  7  8  1  0
  8  9  1  0
  9 10  1  0
 10 11  1  0
 11 12  1  0
 12 13  1  0
 13 14  2  0
 14 15  1  0
 15 16  2  0
 16 17  1  0
 17 18  2  0
 18 19  1  0
 19 20  2  0
 20 21  1  0
 21 22  2  0
 22 23  1  0
 20 24  1  0
 19 25  1  0
 18 26  1  0
 13 27  1  0
 11 28  1  0
 11 29  1  0
 10 30  1  0
  9 31  1  0
  9 32  1  0
  5 33  1  0
  4 34  1  0
  3 35  1  0
  7  2  1  0
 27 10  1  0
 16 12  1  0
 22 17  1  0
M  END
>  <cnnaffinity>  (1) 
-6.44195

>  <filename>  (1) 
[H]c1nc(SC([H])([H])C2([H])Sc3nnc(-c4c([H])nc([H])c([H])c4[H])n3C2([H])[H])c(Cl)c([H])c1[H]

$$$$
