
     RDKit          3D

 37 39  0  0  0  0  0  0  0  0999 V2000
    5.7953   -1.3044   22.2126 H   0  0  0  0  0  0  0  0  0  0  0  0
    6.8521   -1.2290   22.0318 C   0  0  0  0  0  0  0  0  0  0  0  0
    7.3976   -0.6860   20.9481 C   0  0  0  0  0  0  0  0  0  0  0  0
    6.6674    0.0158   19.8936 C   0  0  0  0  0  0  0  0  0  0  0  0
    7.1680    0.0761   18.5804 C   0  0  0  0  0  0  0  0  0  0  0  0
    8.1129   -0.4114   18.3505 H   0  0  0  0  0  0  0  0  0  0  0  0
    6.5573    0.6827   17.5598 N   0  0  0  0  0  0  0  0  0  0  0  0
    5.3953    1.2981   17.8248 C   0  0  0  0  0  0  0  0  0  0  0  0
    4.9182    1.7916   16.9842 H   0  0  0  0  0  0  0  0  0  0  0  0
    4.8046    1.3124   19.0936 C   0  0  0  0  0  0  0  0  0  0  0  0
    3.8752    1.8413   19.2491 H   0  0  0  0  0  0  0  0  0  0  0  0
    5.4345    0.6530   20.1469 C   0  0  0  0  0  0  0  0  0  0  0  0
    5.0083    0.6504   21.1546 H   0  0  0  0  0  0  0  0  0  0  0  0
    8.8993   -0.9139   20.9373 C   0  0  0  0  0  0  0  0  0  0  0  0
    9.4351    0.0279   20.7838 H   0  0  0  0  0  0  0  0  0  0  0  0
    9.1836   -1.5617   20.0983 H   0  0  0  0  0  0  0  0  0  0  0  0
    9.1983   -1.5691   22.3137 C   0  0  0  0  0  0  0  0  0  0  0  0
    9.7889   -2.4824   22.2178 H   0  0  0  0  0  0  0  0  0  0  0  0
    9.7498   -0.8793   22.9604 H   0  0  0  0  0  0  0  0  0  0  0  0
    7.8189   -1.8976   22.9588 C   0  0  2  0  0  0  0  0  0  0  0  0
    7.7193   -1.4426   23.9520 H   0  0  0  0  0  0  0  0  0  0  0  0
    7.5219   -3.3208   23.1327 N   0  0  0  0  0  0  0  0  0  0  0  0
    7.6222   -3.9266   24.3930 C   0  0  0  0  0  0  0  0  0  0  0  0
    8.6201   -3.5511   25.3169 C   0  0  0  0  0  0  0  0  0  0  0  0
    9.3389   -2.7929   25.0194 H   0  0  0  0  0  0  0  0  0  0  0  0
    8.6869   -4.1598   26.5713 C   0  0  0  0  0  0  0  0  0  0  0  0
    9.4637   -3.8567   27.2686 H   0  0  0  0  0  0  0  0  0  0  0  0
    7.7578   -5.1410   26.9313 C   0  0  0  0  0  0  0  0  0  0  0  0
    7.8092   -5.6128   27.9093 H   0  0  0  0  0  0  0  0  0  0  0  0
    6.7663   -5.5195   26.0207 C   0  0  0  0  0  0  0  0  0  0  0  0
    6.0403   -6.2833   26.2877 H   0  0  0  0  0  0  0  0  0  0  0  0
    6.7031   -4.9283   24.7587 C   0  0  0  0  0  0  0  0  0  0  0  0
    5.9319   -5.1948   24.0427 H   0  0  0  0  0  0  0  0  0  0  0  0
    7.3702   -4.1557   21.9521 C   0  0  0  0  0  0  0  0  0  0  0  0
    8.0545   -5.0157   21.9674 H   0  0  0  0  0  0  0  0  0  0  0  0
    6.3495   -4.5493   21.8350 H   0  0  0  0  0  0  0  0  0  0  0  0
    7.5884   -3.5645   21.0579 H   0  0  0  0  0  0  0  0  0  0  0  0
  1  2  1  0
  2  3  2  0
  3  4  1  0
  4  5  2  0
  5  6  1  0
  5  7  1  0
  7  8  2  0
  8  9  1  0
  8 10  1  0
 10 11  1  0
 10 12  2  0
 12 13  1  0
  3 14  1  0
 14 15  1  0
 14 16  1  0
 14 17  1  0
 17 18  1  0
 17 19  1  0
 17 20  1  0
 20 21  1  1
 20 22  1  0
 22 23  1  0
 23 24  2  0
 24 25  1  0
 24 26  1  0
 26 27  1  0
 26 28  2  0
 28 29  1  0
 28 30  1  0
 30 31  1  0
 30 32  2  0
 32 33  1  0
 22 34  1  0
 34 35  1  0
 34 36  1  0
 34 37  1  0
 20  2  1  0
 32 23  1  0
 12  4  1  0
M  END
>  <cnnaffinity>  (1) 
-5.08142

>  <filename>  (1) 
[H]C1=C(c2c([H])nc([H])c([H])c2[H])C([H])([H])C([H])([H])[C@]1([H])N(c1c([H])c([H])c([H])c([H])c1[H])C([H])([H])[H]

$$$$
