
     RDKit          3D

 30 32  0  0  0  0  0  0  0  0999 V2000
    9.0499   -3.2157   22.3757 H   0  0  0  0  0  0  0  0  0  0  0  0
    8.4812   -2.3255   22.1421 C   0  0  0  0  0  0  0  0  0  0  0  0
    8.0724   -1.4205   23.0370 C   0  0  0  0  0  0  0  0  0  0  0  0
    8.3288   -1.4351   24.4862 C   0  0  0  0  0  0  0  0  0  0  0  0
    8.8633   -0.2843   25.0863 C   0  0  0  0  0  0  0  0  0  0  0  0
    9.0309    0.5917   24.4697 H   0  0  0  0  0  0  0  0  0  0  0  0
    9.1711   -0.2599   26.4410 C   0  0  0  0  0  0  0  0  0  0  0  0
    9.5788    0.6386   26.8857 H   0  0  0  0  0  0  0  0  0  0  0  0
    8.9465   -1.3830   27.2337 C   0  0  0  0  0  0  0  0  0  0  0  0
    9.1838   -1.3563   28.2905 H   0  0  0  0  0  0  0  0  0  0  0  0
    8.4075   -2.5403   26.6652 C   0  0  0  0  0  0  0  0  0  0  0  0
    8.1426   -3.9232   27.6750 Cl  0  0  0  0  0  0  0  0  0  0  0  0
    8.0925   -2.5706   25.2966 C   0  0  0  0  0  0  0  0  0  0  0  0
    7.3665   -3.9966   24.6298 Cl  0  0  0  0  0  0  0  0  0  0  0  0
    7.3524   -0.3170   22.3283 C   0  0  0  0  0  0  0  0  0  0  0  0
    6.8715    0.7014   22.7803 O   0  0  0  0  0  0  0  0  0  0  0  0
    7.3521   -0.6873   20.9729 N   0  0  0  0  0  0  0  0  0  0  0  0
    6.6722   -0.0005   19.9283 C   0  0  0  0  0  0  0  0  0  0  0  0
    7.1765    0.0526   18.6041 C   0  0  0  0  0  0  0  0  0  0  0  0
    8.1230   -0.4287   18.3682 H   0  0  0  0  0  0  0  0  0  0  0  0
    6.5687    0.6729   17.5842 N   0  0  0  0  0  0  0  0  0  0  0  0
    5.4042    1.2899   17.8401 C   0  0  0  0  0  0  0  0  0  0  0  0
    4.9178    1.7804   16.9978 H   0  0  0  0  0  0  0  0  0  0  0  0
    4.8159    1.2998   19.1103 C   0  0  0  0  0  0  0  0  0  0  0  0
    3.8837    1.8353   19.2631 H   0  0  0  0  0  0  0  0  0  0  0  0
    5.4491    0.6454   20.1728 C   0  0  0  0  0  0  0  0  0  0  0  0
    5.0270    0.6338   21.1767 H   0  0  0  0  0  0  0  0  0  0  0  0
    8.0726   -1.9348   20.7660 C   0  0  0  0  0  0  0  0  0  0  0  0
    8.9542   -1.8085   20.1185 H   0  0  0  0  0  0  0  0  0  0  0  0
    7.4116   -2.6897   20.3263 H   0  0  0  0  0  0  0  0  0  0  0  0
  1  2  1  0
  2  3  2  0
  3  4  1  0
  4  5  2  0
  5  6  1  0
  5  7  1  0
  7  8  1  0
  7  9  2  0
  9 10  1  0
  9 11  1  0
 11 12  1  0
 11 13  2  0
 13 14  1  0
  3 15  1  0
 15 16  2  0
 15 17  1  0
 17 18  1  0
 18 19  2  0
 19 20  1  0
 19 21  1  0
 21 22  2  0
 22 23  1  0
 22 24  1  0
 24 25  1  0
 24 26  2  0
 26 27  1  0
 17 28  1  0
 28 29  1  0
 28 30  1  0
 28  2  1  0
 13  4  1  0
 26 18  1  0
M  END
>  <cnnaffinity>  (1) 
-5.21225

>  <filename>  (1) 
[H]C1=C(c2c([H])c([H])c([H])c(Cl)c2Cl)C(=O)N(c2c([H])nc([H])c([H])c2[H])C1([H])[H]

$$$$
