
     RDKit          3D

 45 49  0  0  0  0  0  0  0  0999 V2000
   12.9214    5.3507   22.2179 F   0  0  0  0  0  0  0  0  0  0  0  0
   12.7738    4.0247   22.3958 C   0  0  0  0  0  0  0  0  0  0  0  0
   11.4899    3.4746   22.2966 C   0  0  0  0  0  0  0  0  0  0  0  0
   11.2933    2.0824   22.3391 C   0  0  0  0  0  0  0  0  0  0  0  0
    9.9530    1.4915   22.1854 C   0  0  0  0  0  0  0  0  0  0  0  0
    9.5361    0.5830   21.3168 N   0  0  0  0  0  0  0  0  0  0  0  0
    8.2601    0.3455   21.6993 C   0  0  0  0  0  0  0  0  0  0  0  0
    7.3848   -0.6539   20.9971 C   0  0  0  0  0  0  0  0  0  0  0  0
    6.6055   -0.0303   19.8506 C   0  0  0  0  0  0  0  0  0  0  0  0
    5.3974    0.6365   20.0916 C   0  0  0  0  0  0  0  0  0  0  0  0
    4.7787    1.3115   19.0384 C   0  0  0  0  0  0  0  0  0  0  0  0
    5.3915    1.3042   17.7828 C   0  0  0  0  0  0  0  0  0  0  0  0
    6.5377    0.6569   17.5233 N   0  0  0  0  0  0  0  0  0  0  0  0
    7.1208    0.0147   18.5434 C   0  0  0  0  0  0  0  0  0  0  0  0
    8.0615   -0.4885   18.3137 H   0  0  0  0  0  0  0  0  0  0  0  0
    4.9455    1.8469   16.9510 H   0  0  0  0  0  0  0  0  0  0  0  0
    3.8569    1.8626   19.1831 H   0  0  0  0  0  0  0  0  0  0  0  0
    4.9545    0.6471   21.0904 H   0  0  0  0  0  0  0  0  0  0  0  0
    8.0156   -1.4772   20.6420 H   0  0  0  0  0  0  0  0  0  0  0  0
    6.6939   -1.0758   21.7320 H   0  0  0  0  0  0  0  0  0  0  0  0
    7.8485    1.0790   22.7179 N   0  0  0  0  0  0  0  0  0  0  0  0
    8.9293    1.8408   23.0092 N   0  0  0  0  0  0  0  0  0  0  0  0
    8.8593    2.8672   24.0469 C   0  0  0  0  0  0  0  0  0  0  0  0
    8.3881    4.2286   23.5460 C   0  0  0  0  0  0  0  0  0  0  0  0
    9.1088    5.4073   23.7693 C   0  0  0  0  0  0  0  0  0  0  0  0
    8.6006    6.6274   23.3072 C   0  0  0  0  0  0  0  0  0  0  0  0
    7.4359    6.7499   22.6624 N   0  0  0  0  0  0  0  0  0  0  0  0
    6.7487    5.6200   22.4435 C   0  0  0  0  0  0  0  0  0  0  0  0
    7.1765    4.3566   22.8586 C   0  0  0  0  0  0  0  0  0  0  0  0
    6.5729    3.4876   22.6329 H   0  0  0  0  0  0  0  0  0  0  0  0
    5.8023    5.7183   21.9147 H   0  0  0  0  0  0  0  0  0  0  0  0
    9.1656    7.5439   23.4653 H   0  0  0  0  0  0  0  0  0  0  0  0
   10.0700    5.3960   24.2650 H   0  0  0  0  0  0  0  0  0  0  0  0
    8.1780    2.4938   24.8163 H   0  0  0  0  0  0  0  0  0  0  0  0
    9.8465    2.9680   24.5039 H   0  0  0  0  0  0  0  0  0  0  0  0
   12.4244    1.2592   22.5306 C   0  0  0  0  0  0  0  0  0  0  0  0
   12.5516   -0.1244   22.5352 N   0  0  0  0  0  0  0  0  0  0  0  0
   13.8285   -0.3389   22.6305 C   0  0  0  0  0  0  0  0  0  0  0  0
   14.5697    0.8071   22.7565 N   0  0  0  0  0  0  0  0  0  0  0  0
   13.6895    1.8633   22.6798 C   0  0  0  0  0  0  0  0  0  0  0  0
   13.9002    3.2500   22.6255 C   0  0  0  0  0  0  0  0  0  0  0  0
   14.8818    3.7024   22.6968 H   0  0  0  0  0  0  0  0  0  0  0  0
   15.5656    0.8841   22.6509 H   0  0  0  0  0  0  0  0  0  0  0  0
   14.2996   -1.3135   22.5735 H   0  0  0  0  0  0  0  0  0  0  0  0
   10.6367    4.1274   22.1876 H   0  0  0  0  0  0  0  0  0  0  0  0
  1  2  1  0
  2  3  2  0
  3  4  1  0
  4  5  1  0
  5  6  2  0
  6  7  1  0
  7  8  1  0
  8  9  1  0
  9 10  2  0
 10 11  1  0
 11 12  2  0
 12 13  1  0
 13 14  2  0
 14 15  1  0
 12 16  1  0
 11 17  1  0
 10 18  1  0
  8 19  1  0
  8 20  1  0
  7 21  2  0
 21 22  1  0
 22 23  1  0
 23 24  1  0
 24 25  2  0
 25 26  1  0
 26 27  2  0
 27 28  1  0
 28 29  2  0
 29 30  1  0
 28 31  1  0
 26 32  1  0
 25 33  1  0
 23 34  1  0
 23 35  1  0
  4 36  2  0
 36 37  1  0
 37 38  2  0
 38 39  1  0
 39 40  1  0
 40 41  2  0
 41 42  1  0
 39 43  1  0
 38 44  1  0
  3 45  1  0
 41  2  1  0
 22  5  1  0
 29 24  1  0
 40 36  1  0
 14  9  1  0
M  END
>  <cnnaffinity>  (1) 
-6.83788

>  <filename>  (1) 
[H]c1nc([H])c(C([H])([H])c2nc(-c3c([H])c(F)c([H])c4c3nc([H])n4[H])n(C([H])([H])c3c([H])c([H])nc([H])c3[H])n2)c([H])c1[H]

$$$$
