
     RDKit          3D

 25 27  0  0  0  0  0  0  0  0999 V2000
    4.9105    1.7761   17.0015 H   0  0  0  0  0  0  0  0  0  0  0  0
    5.4021    1.2935   17.8435 C   0  0  0  0  0  0  0  0  0  0  0  0
    6.5723    0.6799   17.5868 N   0  0  0  0  0  0  0  0  0  0  0  0
    7.1826    0.0518   18.5942 C   0  0  0  0  0  0  0  0  0  0  0  0
    8.1307   -0.4405   18.3823 H   0  0  0  0  0  0  0  0  0  0  0  0
    6.6509    0.0009   19.8940 C   0  0  0  0  0  0  0  0  0  0  0  0
    7.3465   -0.6930   20.9289 N   0  0  0  0  0  0  0  0  0  0  0  0
    7.7570   -1.9676   20.7739 N   0  0  0  0  0  0  0  0  0  0  0  0
    8.2647   -2.3323   21.8931 N   0  0  0  0  0  0  0  0  0  0  0  0
    8.2125   -1.3425   22.8014 N   0  0  0  0  0  0  0  0  0  0  0  0
    7.6540   -0.3134   22.1984 C   0  0  0  0  0  0  0  0  0  0  0  0
    7.4751    1.0280   22.7778 C   0  0  0  0  0  0  0  0  0  0  0  0
    7.2476    2.1546   21.9961 N   0  0  0  0  0  0  0  0  0  0  0  0
    7.1678    3.2152   22.7218 C   0  0  0  0  0  0  0  0  0  0  0  0
    6.9596    4.5934   22.1706 C   0  0  0  0  0  0  0  0  0  0  0  0
    7.9332    5.0590   21.9853 H   0  0  0  0  0  0  0  0  0  0  0  0
    6.4247    4.5358   21.2206 H   0  0  0  0  0  0  0  0  0  0  0  0
    6.4007    5.2280   22.8599 H   0  0  0  0  0  0  0  0  0  0  0  0
    7.3682    2.9294   24.4352 S   0  0  0  0  0  0  0  0  0  0  0  0
    7.5742    1.2604   24.1163 C   0  0  0  0  0  0  0  0  0  0  0  0
    7.7678    0.5263   24.8872 H   0  0  0  0  0  0  0  0  0  0  0  0
    5.4301    0.6230   20.1554 C   0  0  0  0  0  0  0  0  0  0  0  0
    5.0088    0.6317   21.1620 H   0  0  0  0  0  0  0  0  0  0  0  0
    4.8044    1.3032   19.1074 C   0  0  0  0  0  0  0  0  0  0  0  0
    3.8746    1.8430   19.2671 H   0  0  0  0  0  0  0  0  0  0  0  0
  1  2  1  0
  2  3  2  0
  3  4  1  0
  4  5  1  0
  4  6  2  0
  6  7  1  0
  7  8  1  0
  8  9  2  0
  9 10  1  0
 10 11  2  0
 11 12  1  0
 12 13  1  0
 13 14  2  0
 14 15  1  0
 15 16  1  0
 15 17  1  0
 15 18  1  0
 14 19  1  0
 19 20  1  0
 20 21  1  0
  6 22  1  0
 22 23  1  0
 22 24  2  0
 24 25  1  0
 24  2  1  0
 11  7  1  0
 20 12  2  0
M  END
>  <cnnaffinity>  (1) 
-4.75964

>  <filename>  (1) 
[H]c1nc([H])c(-n2nnnc2-c2nc(C([H])([H])[H])sc2[H])c([H])c1[H]

$$$$
