
     RDKit          3D

 44 47  0  0  0  0  0  0  0  0999 V2000
   11.2060   -0.5442   23.6633 F   0  0  0  0  0  0  0  0  0  0  0  0
   12.3484    0.1243   23.4632 C   0  0  0  0  0  0  0  0  0  0  0  0
   13.0642    0.0533   24.6077 F   0  0  0  0  0  0  0  0  0  0  0  0
   13.0192   -0.5435   22.5046 F   0  0  0  0  0  0  0  0  0  0  0  0
   12.1766    1.5890   23.1123 C   0  0  0  0  0  0  0  0  0  0  0  0
   11.3926    1.9485   21.8410 C   0  0  0  0  0  0  0  0  0  0  0  0
    9.9772    1.5782   21.9133 N   0  0  0  0  0  0  0  0  0  0  0  0
    9.4840    0.6476   21.0591 N   0  0  0  0  0  0  0  0  0  0  0  0
    8.3432    0.3014   21.6158 C   0  0  0  0  0  0  0  0  0  0  0  0
    7.4212   -0.6884   20.9686 C   0  0  0  0  0  0  0  0  0  0  0  0
    6.6339   -0.0502   19.8301 C   0  0  0  0  0  0  0  0  0  0  0  0
    5.4357    0.6237   20.0955 C   0  0  0  0  0  0  0  0  0  0  0  0
    4.7969    1.3025   19.0584 C   0  0  0  0  0  0  0  0  0  0  0  0
    5.3895    1.2979   17.7936 C   0  0  0  0  0  0  0  0  0  0  0  0
    6.5351    0.6608   17.5105 N   0  0  0  0  0  0  0  0  0  0  0  0
    7.1377    0.0128   18.5163 C   0  0  0  0  0  0  0  0  0  0  0  0
    8.0864   -0.4686   18.2694 H   0  0  0  0  0  0  0  0  0  0  0  0
    4.9264    1.8441   16.9762 H   0  0  0  0  0  0  0  0  0  0  0  0
    3.8760    1.8499   19.2225 H   0  0  0  0  0  0  0  0  0  0  0  0
    5.0122    0.6344   21.1023 H   0  0  0  0  0  0  0  0  0  0  0  0
    8.0260   -1.5288   20.6110 H   0  0  0  0  0  0  0  0  0  0  0  0
    6.7589   -1.0695   21.7529 H   0  0  0  0  0  0  0  0  0  0  0  0
    8.0524    0.9483   22.7701 N   0  0  0  0  0  0  0  0  0  0  0  0
    9.0791    1.7760   22.9106 C   0  0  0  0  0  0  0  0  0  0  0  0
    9.1910    2.8327   23.9391 C   0  0  0  0  0  0  0  0  0  0  0  0
    8.7921    2.5238   25.2513 C   0  0  0  0  0  0  0  0  0  0  0  0
    8.8747    3.4801   26.2619 C   0  0  0  0  0  0  0  0  0  0  0  0
    9.3848    4.7335   25.9433 C   0  0  0  0  0  0  0  0  0  0  0  0
    9.5514    5.7298   26.8489 O   0  0  0  0  0  0  0  0  0  0  0  0
   10.0699    6.8822   26.1571 C   0  0  0  0  0  0  0  0  0  0  0  0
   10.2496    6.5050   24.6666 C   0  0  0  0  0  0  0  0  0  0  0  0
    9.7789    5.0730   24.6478 C   0  0  0  0  0  0  0  0  0  0  0  0
    9.6659    4.1322   23.6336 C   0  0  0  0  0  0  0  0  0  0  0  0
    9.9164    4.3926   22.6052 H   0  0  0  0  0  0  0  0  0  0  0  0
    9.6369    7.1451   24.0232 H   0  0  0  0  0  0  0  0  0  0  0  0
   11.2952    6.6049   24.3568 H   0  0  0  0  0  0  0  0  0  0  0  0
    9.3597    7.7007   26.3015 H   0  0  0  0  0  0  0  0  0  0  0  0
   11.0110    7.1601   26.6382 H   0  0  0  0  0  0  0  0  0  0  0  0
    8.5442    3.2786   27.2710 H   0  0  0  0  0  0  0  0  0  0  0  0
    8.4226    1.5235   25.4792 H   0  0  0  0  0  0  0  0  0  0  0  0
   11.4718    3.0306   21.6878 H   0  0  0  0  0  0  0  0  0  0  0  0
   11.7874    1.4848   20.9338 H   0  0  0  0  0  0  0  0  0  0  0  0
   11.7043    2.0680   23.9725 H   0  0  0  0  0  0  0  0  0  0  0  0
   13.1840    2.0030   23.0378 H   0  0  0  0  0  0  0  0  0  0  0  0
  1  2  1  0
  2  3  1  0
  2  4  1  0
  2  5  1  0
  5  6  1  0
  6  7  1  0
  7  8  1  0
  8  9  2  0
  9 10  1  0
 10 11  1  0
 11 12  2  0
 12 13  1  0
 13 14  2  0
 14 15  1  0
 15 16  2  0
 16 17  1  0
 14 18  1  0
 13 19  1  0
 12 20  1  0
 10 21  1  0
 10 22  1  0
  9 23  1  0
 23 24  2  0
 24 25  1  0
 25 26  2  0
 26 27  1  0
 27 28  2  0
 28 29  1  0
 29 30  1  0
 30 31  1  0
 31 32  1  0
 32 33  2  0
 33 34  1  0
 31 35  1  0
 31 36  1  0
 30 37  1  0
 30 38  1  0
 27 39  1  0
 26 40  1  0
  6 41  1  0
  6 42  1  0
  5 43  1  0
  5 44  1  0
 24  7  1  0
 33 25  1  0
 16 11  1  0
 32 28  1  0
M  END
>  <cnnaffinity>  (1) 
-5.98934

>  <filename>  (1) 
[H]c1nc([H])c(C([H])([H])c2nc(-c3c([H])c([H])c4c(c3[H])C([H])([H])C([H])([H])O4)n(C([H])([H])C([H])([H])C(F)(F)F)n2)c([H])c1[H]

$$$$
