
     RDKit          3D

 30 32  0  0  0  0  0  0  0  0999 V2000
    4.8974    1.8876   16.9783 H   0  0  0  0  0  0  0  0  0  0  0  0
    5.4289    1.3563   17.7654 C   0  0  0  0  0  0  0  0  0  0  0  0
    6.5831    0.7691   17.4126 N   0  0  0  0  0  0  0  0  0  0  0  0
    7.2581    0.0998   18.3549 C   0  0  0  0  0  0  0  0  0  0  0  0
    8.2036   -0.3405   18.0504 H   0  0  0  0  0  0  0  0  0  0  0  0
    6.8006   -0.0437   19.6852 C   0  0  0  0  0  0  0  0  0  0  0  0
    7.4894   -0.8435   20.6747 N   0  0  0  0  0  0  0  0  0  0  0  0
    8.7964   -0.6384   21.1156 C   0  0  0  0  0  0  0  0  0  0  0  0
    9.5714    0.1718   20.6888 O   0  0  0  0  0  0  0  0  0  0  0  0
    8.9691   -1.6728   22.2601 C   0  0  0  0  0  0  0  0  0  0  0  0
    9.9567   -2.0716   22.8110 O   0  0  0  0  0  0  0  0  0  0  0  0
    7.6846   -2.1275   22.5225 N   0  0  0  0  0  0  0  0  0  0  0  0
    7.4030   -3.2586   23.3345 C   0  0  0  0  0  0  0  0  0  0  0  0
    6.7635   -4.1726   22.8869 O   0  0  0  0  0  0  0  0  0  0  0  0
    8.0349   -3.3011   24.7241 C   0  0  0  0  0  0  0  0  0  0  0  0
    8.2828   -2.1902   25.5577 C   0  0  0  0  0  0  0  0  0  0  0  0
    8.0136   -1.1729   25.2919 H   0  0  0  0  0  0  0  0  0  0  0  0
    8.9319   -2.4009   26.7817 C   0  0  0  0  0  0  0  0  0  0  0  0
    9.1954   -1.5601   27.4199 H   0  0  0  0  0  0  0  0  0  0  0  0
    9.2807   -3.6068   27.2418 N   0  0  0  0  0  0  0  0  0  0  0  0
    9.0214   -4.6667   26.4702 C   0  0  0  0  0  0  0  0  0  0  0  0
    9.3008   -5.6435   26.8575 H   0  0  0  0  0  0  0  0  0  0  0  0
    8.4043   -4.5656   25.2242 C   0  0  0  0  0  0  0  0  0  0  0  0
    8.2652   -5.4522   24.6157 H   0  0  0  0  0  0  0  0  0  0  0  0
    6.8412   -1.7973   21.4678 C   0  0  0  0  0  0  0  0  0  0  0  0
    5.7549   -2.2533   21.2870 O   0  0  0  0  0  0  0  0  0  0  0  0
    5.6067    0.5898   20.0411 C   0  0  0  0  0  0  0  0  0  0  0  0
    5.2448    0.5063   21.0646 H   0  0  0  0  0  0  0  0  0  0  0  0
    4.9090    1.3021   19.0615 C   0  0  0  0  0  0  0  0  0  0  0  0
    3.9774    1.8053   19.2898 H   0  0  0  0  0  0  0  0  0  0  0  0
  1  2  1  0
  2  3  2  0
  3  4  1  0
  4  5  1  0
  4  6  2  0
  6  7  1  0
  7  8  1  0
  8  9  2  0
  8 10  1  0
 10 11  2  0
 10 12  1  0
 12 13  1  0
 13 14  2  0
 13 15  1  0
 15 16  2  0
 16 17  1  0
 16 18  1  0
 18 19  1  0
 18 20  2  0
 20 21  1  0
 21 22  1  0
 21 23  2  0
 23 24  1  0
 12 25  1  0
 25 26  2  0
  6 27  1  0
 27 28  1  0
 27 29  2  0
 29 30  1  0
 29  2  1  0
 25  7  1  0
 23 15  1  0
M  END
>  <cnnaffinity>  (1) 
-5.47323

>  <filename>  (1) 
[H]c1nc([H])c(N2C(=O)C(=O)N(C(=O)c3c([H])c([H])nc([H])c3[H])C2=O)c([H])c1[H]

$$$$
