
     RDKit          3D

 32 34  0  0  0  0  0  0  0  0999 V2000
    5.4671    1.6282   24.6951 H   0  0  0  0  0  0  0  0  0  0  0  0
    6.4141    1.8761   24.2290 C   0  0  0  0  0  0  0  0  0  0  0  0
    6.8623    1.0171   23.3114 N   0  0  0  0  0  0  0  0  0  0  0  0
    8.0603    1.2290   22.7305 C   0  0  0  0  0  0  0  0  0  0  0  0
    8.5134    0.1070   21.7566 C   0  0  0  0  0  0  0  0  0  0  0  0
    9.6769   -0.1643   21.5452 O   0  0  0  0  0  0  0  0  0  0  0  0
    7.3786   -0.6751   21.0451 C   0  0  0  0  0  0  0  0  0  0  0  0
    6.6505    0.0362   19.9290 C   0  0  0  0  0  0  0  0  0  0  0  0
    7.1676    0.0619   18.6134 C   0  0  0  0  0  0  0  0  0  0  0  0
    8.1169   -0.4284   18.3876 H   0  0  0  0  0  0  0  0  0  0  0  0
    6.5676    0.6727   17.5829 N   0  0  0  0  0  0  0  0  0  0  0  0
    5.4068    1.2957   17.8342 C   0  0  0  0  0  0  0  0  0  0  0  0
    4.9379    1.7934   16.9909 H   0  0  0  0  0  0  0  0  0  0  0  0
    4.7981    1.3323   19.0928 C   0  0  0  0  0  0  0  0  0  0  0  0
    3.8554    1.8561   19.2237 H   0  0  0  0  0  0  0  0  0  0  0  0
    5.4370    0.6987   20.1584 C   0  0  0  0  0  0  0  0  0  0  0  0
    5.0294    0.7185   21.1687 H   0  0  0  0  0  0  0  0  0  0  0  0
    6.6296   -1.6597   21.9212 C   0  0  0  0  0  0  0  0  0  0  0  0
    6.8839   -1.6862   22.9800 H   0  0  0  0  0  0  0  0  0  0  0  0
    5.5708   -1.8032   21.7112 H   0  0  0  0  0  0  0  0  0  0  0  0
    7.5705   -2.1618   20.8731 C   0  0  0  0  0  0  0  0  0  0  0  0
    8.5449   -2.5875   21.0975 H   0  0  0  0  0  0  0  0  0  0  0  0
    7.0581   -2.5945   20.0184 H   0  0  0  0  0  0  0  0  0  0  0  0
    8.8150    2.3956   23.0300 C   0  0  0  0  0  0  0  0  0  0  0  0
   10.1169    2.6710   22.3162 C   0  0  0  0  0  0  0  0  0  0  0  0
   10.5664    3.9298   22.4978 F   0  0  0  0  0  0  0  0  0  0  0  0
    9.9719    2.4755   20.9948 F   0  0  0  0  0  0  0  0  0  0  0  0
   11.0925    1.8582   22.7418 F   0  0  0  0  0  0  0  0  0  0  0  0
    8.3192    3.3037   23.9734 C   0  0  0  0  0  0  0  0  0  0  0  0
    8.8557    4.2274   24.1892 H   0  0  0  0  0  0  0  0  0  0  0  0
    7.1045    3.0319   24.5967 C   0  0  0  0  0  0  0  0  0  0  0  0
    6.6944    3.6914   25.3512 H   0  0  0  0  0  0  0  0  0  0  0  0
  1  2  1  0
  2  3  2  0
  3  4  1  0
  4  5  1  0
  5  6  2  0
  5  7  1  0
  7  8  1  0
  8  9  2  0
  9 10  1  0
  9 11  1  0
 11 12  2  0
 12 13  1  0
 12 14  1  0
 14 15  1  0
 14 16  2  0
 16 17  1  0
  7 18  1  0
 18 19  1  0
 18 20  1  0
 18 21  1  0
 21 22  1  0
 21 23  1  0
  4 24  2  0
 24 25  1  0
 25 26  1  0
 25 27  1  0
 25 28  1  0
 24 29  1  0
 29 30  1  0
 29 31  2  0
 31 32  1  0
 31  2  1  0
 21  7  1  0
 16  8  1  0
M  END
>  <cnnaffinity>  (1) 
-5.46933

>  <filename>  (1) 
[H]c1nc(C(=O)C2(c3c([H])nc([H])c([H])c3[H])C([H])([H])C2([H])[H])c(C(F)(F)F)c([H])c1[H]

$$$$
