
     RDKit          3D

 46 50  0  0  0  0  0  0  0  0999 V2000
    4.9284    1.7108   18.3381 C   0  0  0  0  0  0  0  0  0  0  0  0
    5.5498    1.2003   17.1986 C   0  0  0  0  0  0  0  0  0  0  0  0
    6.3606    0.1324   17.2102 N   0  0  0  0  0  0  0  0  0  0  0  0
    6.5771   -0.4625   18.3903 C   0  0  0  0  0  0  0  0  0  0  0  0
    6.0099   -0.0278   19.6039 C   0  0  0  0  0  0  0  0  0  0  0  0
    6.2679   -0.6634   20.9660 C   0  0  0  0  0  0  0  0  0  0  0  0
    6.9472    0.2538   21.9462 C   0  0  0  0  0  0  0  0  0  0  0  0
    8.2542    0.2820   22.0192 N   0  0  0  0  0  0  0  0  0  0  0  0
    8.4986    1.2462   22.9449 N   0  0  0  0  0  0  0  0  0  0  0  0
    9.8536    1.6029   23.2186 C   0  0  0  0  0  0  0  0  0  0  0  0
   10.2643    2.9654   23.2998 C   0  0  0  0  0  0  0  0  0  0  0  0
   11.6119    3.3016   23.3113 C   0  0  0  0  0  0  0  0  0  0  0  0
   12.5454    2.2442   23.2619 C   0  0  0  0  0  0  0  0  0  0  0  0
   13.9009    2.2193   23.1533 N   0  0  0  0  0  0  0  0  0  0  0  0
   14.4036    0.9646   23.0861 N   0  0  0  0  0  0  0  0  0  0  0  0
   13.3623    0.1648   23.1512 C   0  0  0  0  0  0  0  0  0  0  0  0
   12.1446    0.8934   23.2760 C   0  0  0  0  0  0  0  0  0  0  0  0
   10.7717    0.5670   23.2765 C   0  0  0  0  0  0  0  0  0  0  0  0
   10.3964   -0.4508   23.3042 H   0  0  0  0  0  0  0  0  0  0  0  0
   13.4775   -0.9013   23.0539 H   0  0  0  0  0  0  0  0  0  0  0  0
   14.5266    3.0092   23.1217 H   0  0  0  0  0  0  0  0  0  0  0  0
   11.9680    4.3250   23.3286 H   0  0  0  0  0  0  0  0  0  0  0  0
    9.5023    3.7347   23.3240 H   0  0  0  0  0  0  0  0  0  0  0  0
    7.3110    1.7025   23.4306 C   0  0  0  0  0  0  0  0  0  0  0  0
    7.1985    2.6949   24.5388 C   0  0  0  0  0  0  0  0  0  0  0  0
    7.1371    4.1921   24.1028 C   0  0  0  0  0  0  0  0  0  0  0  0
    7.8676    5.0940   25.0722 C   0  0  0  0  0  0  0  0  0  0  0  0
    7.5542    5.2034   26.3968 C   0  0  0  0  0  0  0  0  0  0  0  0
    8.6589    6.1938   27.2615 S   0  0  0  0  0  0  0  0  0  0  0  0
    9.5615    6.5125   25.8366 C   0  0  0  0  0  0  0  0  0  0  0  0
    9.0265    5.8754   24.7570 C   0  0  0  0  0  0  0  0  0  0  0  0
    9.4216    5.9533   23.7477 H   0  0  0  0  0  0  0  0  0  0  0  0
   10.4389    7.1446   25.8751 H   0  0  0  0  0  0  0  0  0  0  0  0
    6.7235    4.7471   26.9190 H   0  0  0  0  0  0  0  0  0  0  0  0
    7.5665    4.3316   23.0990 H   0  0  0  0  0  0  0  0  0  0  0  0
    6.0863    4.4997   24.0049 H   0  0  0  0  0  0  0  0  0  0  0  0
    8.0539    2.5315   25.2045 H   0  0  0  0  0  0  0  0  0  0  0  0
    6.3085    2.4531   25.1237 H   0  0  0  0  0  0  0  0  0  0  0  0
    6.3116    1.1082   22.7977 N   0  0  0  0  0  0  0  0  0  0  0  0
    5.3189   -0.9496   21.4224 H   0  0  0  0  0  0  0  0  0  0  0  0
    6.8808   -1.5654   20.8769 H   0  0  0  0  0  0  0  0  0  0  0  0
    5.1689    1.0929   19.5617 C   0  0  0  0  0  0  0  0  0  0  0  0
    4.7406    1.4687   20.4945 H   0  0  0  0  0  0  0  0  0  0  0  0
    7.2483   -1.3250   18.3646 H   0  0  0  0  0  0  0  0  0  0  0  0
    5.3991    1.6842   16.2386 H   0  0  0  0  0  0  0  0  0  0  0  0
    4.2949    2.5879   18.2527 H   0  0  0  0  0  0  0  0  0  0  0  0
  1  2  2  0
  2  3  1  0
  3  4  2  0
  4  5  1  0
  5  6  1  0
  6  7  1  0
  7  8  2  0
  8  9  1  0
  9 10  1  0
 10 11  2  0
 11 12  1  0
 12 13  2  0
 13 14  1  0
 14 15  1  0
 15 16  2  0
 16 17  1  0
 17 18  2  0
 18 19  1  0
 16 20  1  0
 14 21  1  0
 12 22  1  0
 11 23  1  0
  9 24  1  0
 24 25  1  0
 25 26  1  0
 26 27  1  0
 27 28  2  0
 28 29  1  0
 29 30  1  0
 30 31  2  0
 31 32  1  0
 30 33  1  0
 28 34  1  0
 26 35  1  0
 26 36  1  0
 25 37  1  0
 25 38  1  0
 24 39  2  0
  6 40  1  0
  6 41  1  0
  5 42  2  0
 42 43  1  0
  4 44  1  0
  2 45  1  0
  1 46  1  0
 42  1  1  0
 39  7  1  0
 18 10  1  0
 31 27  1  0
 17 13  1  0
M  END
>  <cnnaffinity>  (1) 
-6.52042

>  <filename>  (1) 
[H]c1nc([H])c(C([H])([H])c2nc(C([H])([H])C([H])([H])c3c([H])sc([H])c3[H])n(-c3c([H])c([H])c4c(c([H])nn4[H])c3[H])n2)c([H])c1[H]

$$$$
