
     RDKit          3D

 31 33  0  0  0  0  0  0  0  0999 V2000
    4.9387    1.8033   16.9734 H   0  0  0  0  0  0  0  0  0  0  0  0
    5.4200    1.3007   17.8092 C   0  0  0  0  0  0  0  0  0  0  0  0
    6.5864    0.6871   17.5495 N   0  0  0  0  0  0  0  0  0  0  0  0
    7.2135    0.0748   18.5647 C   0  0  0  0  0  0  0  0  0  0  0  0
    8.1558   -0.4124   18.3086 H   0  0  0  0  0  0  0  0  0  0  0  0
    6.6968    0.0087   19.8814 C   0  0  0  0  0  0  0  0  0  0  0  0
    7.3616   -0.6673   20.9532 N   0  0  0  0  0  0  0  0  0  0  0  0
    8.3645   -0.5737   21.0451 H   0  0  0  0  0  0  0  0  0  0  0  0
    6.7448   -1.5581   21.8241 C   0  0  0  0  0  0  0  0  0  0  0  0
    5.6704   -2.0767   21.5889 O   0  0  0  0  0  0  0  0  0  0  0  0
    7.5955   -1.9043   23.1508 C   0  0  0  0  0  0  0  0  0  0  0  0
    8.8101   -1.7892   23.0792 O   0  0  0  0  0  0  0  0  0  0  0  0
    6.9302   -2.4085   24.3867 C   0  0  0  0  0  0  0  0  0  0  0  0
    5.6694   -2.1804   24.9005 C   0  0  0  0  0  0  0  0  0  0  0  0
    4.9075   -1.4592   24.6598 H   0  0  0  0  0  0  0  0  0  0  0  0
    5.4797   -2.9223   26.0313 N   0  0  0  0  0  0  0  0  0  0  0  0
    4.6307   -2.9750   26.5633 H   0  0  0  0  0  0  0  0  0  0  0  0
    6.6244   -3.6198   26.3248 C   0  0  0  0  0  0  0  0  0  0  0  0
    6.9157   -4.4400   27.4237 C   0  0  0  0  0  0  0  0  0  0  0  0
    6.1733   -4.6314   28.1917 H   0  0  0  0  0  0  0  0  0  0  0  0
    8.1991   -4.9642   27.5067 C   0  0  0  0  0  0  0  0  0  0  0  0
    8.4608   -5.5941   28.3516 H   0  0  0  0  0  0  0  0  0  0  0  0
    9.1691   -4.6842   26.5179 C   0  0  0  0  0  0  0  0  0  0  0  0
   10.1571   -5.1225   26.6238 H   0  0  0  0  0  0  0  0  0  0  0  0
    8.8679   -3.8671   25.4311 C   0  0  0  0  0  0  0  0  0  0  0  0
    9.6151   -3.6422   24.6814 H   0  0  0  0  0  0  0  0  0  0  0  0
    7.5720   -3.3188   25.3239 C   0  0  0  0  0  0  0  0  0  0  0  0
    5.4742    0.6488   20.1271 C   0  0  0  0  0  0  0  0  0  0  0  0
    5.0513    0.6052   21.1296 H   0  0  0  0  0  0  0  0  0  0  0  0
    4.8324    1.3109   19.0762 C   0  0  0  0  0  0  0  0  0  0  0  0
    3.8915    1.8247   19.2335 H   0  0  0  0  0  0  0  0  0  0  0  0
  1  2  1  0
  2  3  2  0
  3  4  1  0
  4  5  1  0
  4  6  2  0
  6  7  1  0
  7  8  1  0
  7  9  1  0
  9 10  2  0
  9 11  1  0
 11 12  2  0
 11 13  1  0
 13 14  2  0
 14 15  1  0
 14 16  1  0
 16 17  1  0
 16 18  1  0
 18 19  2  0
 19 20  1  0
 19 21  1  0
 21 22  1  0
 21 23  2  0
 23 24  1  0
 23 25  1  0
 25 26  1  0
 25 27  2  0
  6 28  1  0
 28 29  1  0
 28 30  2  0
 30 31  1  0
 30  2  1  0
 27 13  1  0
 27 18  1  0
M  END
>  <cnnaffinity>  (1) 
-4.9236

>  <filename>  (1) 
[H]c1nc([H])c(N([H])C(=O)C(=O)c2c([H])n([H])c3c([H])c([H])c([H])c([H])c23)c([H])c1[H]

$$$$
