
     RDKit          3D

 36 39  0  0  0  0  0  0  0  0999 V2000
    4.9435    1.7711   17.0242 H   0  0  0  0  0  0  0  0  0  0  0  0
    5.4205    1.2714   17.8631 C   0  0  0  0  0  0  0  0  0  0  0  0
    6.5847    0.6548   17.6032 N   0  0  0  0  0  0  0  0  0  0  0  0
    7.1979    0.0353   18.6202 C   0  0  0  0  0  0  0  0  0  0  0  0
    8.1460   -0.4401   18.3710 H   0  0  0  0  0  0  0  0  0  0  0  0
    6.6999   -0.0295   19.9589 C   0  0  0  0  0  0  0  0  0  0  0  0
    7.3682   -0.6855   20.9691 N   0  0  0  0  0  0  0  0  0  0  0  0
    7.0556   -0.8757   22.3704 C   0  0  0  0  0  0  0  0  0  0  0  0
    7.0096    0.0458   22.9638 H   0  0  0  0  0  0  0  0  0  0  0  0
    6.1421   -1.4442   22.5724 H   0  0  0  0  0  0  0  0  0  0  0  0
    8.3685   -1.6981   22.5005 C   0  0  0  0  0  0  0  0  0  0  0  0
    9.1198   -1.2475   23.1565 H   0  0  0  0  0  0  0  0  0  0  0  0
    8.2156   -3.1713   22.8745 C   0  0  0  0  0  0  0  0  0  0  0  0
    8.6283   -4.0353   22.1282 O   0  0  0  0  0  0  0  0  0  0  0  0
    7.5521   -3.5241   24.1875 C   0  0  0  0  0  0  0  0  0  0  0  0
    7.3345   -2.5656   25.2242 C   0  0  0  0  0  0  0  0  0  0  0  0
    7.6533   -1.5296   25.0987 H   0  0  0  0  0  0  0  0  0  0  0  0
    6.7123   -2.9130   26.4178 C   0  0  0  0  0  0  0  0  0  0  0  0
    6.5480   -2.1750   27.1957 H   0  0  0  0  0  0  0  0  0  0  0  0
    6.3030   -4.2480   26.5871 C   0  0  0  0  0  0  0  0  0  0  0  0
    6.5011   -5.2299   25.5808 C   0  0  0  0  0  0  0  0  0  0  0  0
    7.1405   -4.8553   24.3853 C   0  0  0  0  0  0  0  0  0  0  0  0
    7.3151   -5.5946   23.6083 H   0  0  0  0  0  0  0  0  0  0  0  0
    5.9496   -6.4571   26.0992 C   0  0  0  0  0  0  0  0  0  0  0  0
    5.8723   -7.4204   25.6179 H   0  0  0  0  0  0  0  0  0  0  0  0
    5.4770   -6.1915   27.3437 C   0  0  0  0  0  0  0  0  0  0  0  0
    5.0049   -6.8668   28.0472 H   0  0  0  0  0  0  0  0  0  0  0  0
    5.6830   -4.8617   27.6472 N   0  0  0  0  0  0  0  0  0  0  0  0
    5.4137   -4.3975   28.4975 H   0  0  0  0  0  0  0  0  0  0  0  0
    8.6271   -1.4136   20.9995 C   0  0  0  0  0  0  0  0  0  0  0  0
    8.6650   -2.3086   20.3818 H   0  0  0  0  0  0  0  0  0  0  0  0
    9.5149   -0.8144   20.7598 H   0  0  0  0  0  0  0  0  0  0  0  0
    5.4694    0.6249   20.1934 C   0  0  0  0  0  0  0  0  0  0  0  0
    5.0270    0.6198   21.1889 H   0  0  0  0  0  0  0  0  0  0  0  0
    4.8373    1.2818   19.1334 C   0  0  0  0  0  0  0  0  0  0  0  0
    3.9041    1.8137   19.2817 H   0  0  0  0  0  0  0  0  0  0  0  0
  1  2  1  0
  2  3  2  0
  3  4  1  0
  4  5  1  0
  4  6  2  0
  6  7  1  0
  7  8  1  0
  8  9  1  0
  8 10  1  0
  8 11  1  0
 11 12  1  0
 11 13  1  0
 13 14  2  0
 13 15  1  0
 15 16  2  0
 16 17  1  0
 16 18  1  0
 18 19  1  0
 18 20  2  0
 20 21  1  0
 21 22  2  0
 22 23  1  0
 21 24  1  0
 24 25  1  0
 24 26  2  0
 26 27  1  0
 26 28  1  0
 28 29  1  0
 11 30  1  0
 30 31  1  0
 30 32  1  0
  6 33  1  0
 33 34  1  0
 33 35  2  0
 35 36  1  0
 35  2  1  0
 30  7  1  0
 22 15  1  0
 28 20  1  0
M  END
>  <cnnaffinity>  (1) 
-5.28084

>  <filename>  (1) 
[H]c1nc([H])c(N2C([H])([H])C([H])(C(=O)c3c([H])c([H])c4c(c3[H])c([H])c([H])n4[H])C2([H])[H])c([H])c1[H]

$$$$
