
     RDKit          3D

 34 36  0  0  0  0  0  0  0  0999 V2000
    4.9732    1.8160   16.9922 H   0  0  0  0  0  0  0  0  0  0  0  0
    5.4157    1.2877   17.8331 C   0  0  0  0  0  0  0  0  0  0  0  0
    6.5703    0.6502   17.5891 N   0  0  0  0  0  0  0  0  0  0  0  0
    7.1521    0.0208   18.6136 C   0  0  0  0  0  0  0  0  0  0  0  0
    8.0976   -0.4721   18.3858 H   0  0  0  0  0  0  0  0  0  0  0  0
    6.6112   -0.0267   19.9041 C   0  0  0  0  0  0  0  0  0  0  0  0
    7.4505   -0.6262   20.9993 C   0  0  0  0  0  0  0  0  0  0  0  0
    6.6589   -1.0300   22.0419 F   0  0  0  0  0  0  0  0  0  0  0  0
    8.0795   -1.7551   20.5492 F   0  0  0  0  0  0  0  0  0  0  0  0
    8.5455    0.2762   21.5527 C   0  0  0  0  0  0  0  0  0  0  0  0
    9.0799   -0.2958   22.3141 H   0  0  0  0  0  0  0  0  0  0  0  0
    9.2306    0.5219   20.7409 H   0  0  0  0  0  0  0  0  0  0  0  0
    7.9903    1.5272   22.1223 C   0  0  0  0  0  0  0  0  0  0  0  0
    7.9062    2.6619   21.4933 N   0  0  0  0  0  0  0  0  0  0  0  0
    7.2055    3.4891   22.3609 C   0  0  0  0  0  0  0  0  0  0  0  0
    6.7990    4.8183   22.1906 C   0  0  0  0  0  0  0  0  0  0  0  0
    7.0106    5.3283   21.2537 H   0  0  0  0  0  0  0  0  0  0  0  0
    6.1135    5.4575   23.2347 C   0  0  0  0  0  0  0  0  0  0  0  0
    5.7276    6.8994   23.0704 C   0  0  0  0  0  0  0  0  0  0  0  0
    6.2197    7.6468   22.2476 O   0  0  0  0  0  0  0  0  0  0  0  0
    4.7912    7.4089   23.9433 N   0  0  0  0  0  0  0  0  0  0  0  0
    4.0545    6.7946   24.2414 H   0  0  0  0  0  0  0  0  0  0  0  0
    4.4893    8.2947   23.5712 H   0  0  0  0  0  0  0  0  0  0  0  0
    5.8472    4.7514   24.4427 C   0  0  0  0  0  0  0  0  0  0  0  0
    5.3611    5.2661   25.2689 H   0  0  0  0  0  0  0  0  0  0  0  0
    6.2255    3.4269   24.6154 C   0  0  0  0  0  0  0  0  0  0  0  0
    6.0171    2.9177   25.5514 H   0  0  0  0  0  0  0  0  0  0  0  0
    6.8949    2.8048   23.5547 C   0  0  0  0  0  0  0  0  0  0  0  0
    7.4230    1.5405   23.3645 N   0  0  0  0  0  0  0  0  0  0  0  0
    7.2852    0.7206   23.9238 H   0  0  0  0  0  0  0  0  0  0  0  0
    5.3927    0.6281   20.1441 C   0  0  0  0  0  0  0  0  0  0  0  0
    4.9521    0.6277   21.1422 H   0  0  0  0  0  0  0  0  0  0  0  0
    4.7868    1.2980   19.0817 C   0  0  0  0  0  0  0  0  0  0  0  0
    3.8582    1.8417   19.2145 H   0  0  0  0  0  0  0  0  0  0  0  0
  1  2  1  0
  2  3  2  0
  3  4  1  0
  4  5  1  0
  4  6  2  0
  6  7  1  0
  7  8  1  0
  7  9  1  0
  7 10  1  0
 10 11  1  0
 10 12  1  0
 10 13  1  0
 13 14  2  0
 14 15  1  0
 15 16  2  0
 16 17  1  0
 16 18  1  0
 18 19  1  0
 19 20  2  0
 19 21  1  0
 21 22  1  0
 21 23  1  0
 18 24  2  0
 24 25  1  0
 24 26  1  0
 26 27  1  0
 26 28  2  0
 28 29  1  0
 29 30  1  0
  6 31  1  0
 31 32  1  0
 31 33  2  0
 33 34  1  0
 33  2  1  0
 29 13  1  0
 28 15  1  0
M  END
>  <cnnaffinity>  (1) 
-5.14207

>  <filename>  (1) 
[H]c1nc([H])c(C(F)(F)C([H])([H])c2nc3c([H])c(C(=O)N([H])[H])c([H])c([H])c3n2[H])c([H])c1[H]

$$$$
