
     RDKit          3D

 32 33  0  0  0  0  0  0  0  0999 V2000
    6.2255   -2.8771   20.7757 O   0  0  0  0  0  0  0  0  0  0  0  0
    7.3497   -2.3489   21.0099 C   0  0  0  0  0  0  0  0  0  0  0  0
    8.3861   -3.0054   21.3159 O   0  0  0  0  0  1  0  0  0  0  0  0
    7.3888   -0.7566   21.0725 C   0  0  0  0  0  0  0  0  0  0  0  0
    8.6426    0.0642   21.2677 N   0  0  0  0  0  4  0  0  0  0  0  0
    9.3600   -0.4595   22.4480 C   0  0  0  0  0  0  0  0  0  0  0  0
   10.7044    0.1807   22.6065 C   0  0  0  0  0  0  0  0  0  0  0  0
   11.8528   -0.4981   22.1693 C   0  0  0  0  0  0  0  0  0  0  0  0
   13.1192    0.0616   22.3685 C   0  0  0  0  0  0  0  0  0  0  0  0
   13.2449    1.3009   23.0033 C   0  0  0  0  0  0  0  0  0  0  0  0
   12.1019    1.9675   23.4573 C   0  0  0  0  0  0  0  0  0  0  0  0
   10.8319    1.4136   23.2647 C   0  0  0  0  0  0  0  0  0  0  0  0
    9.0249    2.4814   24.0770 I   0  0  0  0  0  0  0  0  0  0  0  0
   12.1905    2.9173   23.9735 H   0  0  0  0  0  0  0  0  0  0  0  0
   14.2253    1.7454   23.1457 H   0  0  0  0  0  0  0  0  0  0  0  0
   14.0056   -0.4695   22.0351 H   0  0  0  0  0  0  0  0  0  0  0  0
   11.7628   -1.4717   21.6908 H   0  0  0  0  0  0  0  0  0  0  0  0
    9.4958   -1.5430   22.3591 H   0  0  0  0  0  0  0  0  0  0  0  0
    8.7631   -0.2921   23.3542 H   0  0  0  0  0  0  0  0  0  0  0  0
    9.2385    0.0269   20.4359 H   0  0  0  0  0  0  0  0  0  0  0  0
    8.3876    1.0445   21.4288 H   0  0  0  0  0  0  0  0  0  0  0  0
    6.7371   -0.0363   19.9164 C   0  0  0  0  0  0  0  0  0  0  0  0
    5.5197    0.5883   20.1570 C   0  0  0  0  0  0  0  0  0  0  0  0
    4.8971    1.2519   19.1040 C   0  0  0  0  0  0  0  0  0  0  0  0
    5.4939    1.2806   17.8419 C   0  0  0  0  0  0  0  0  0  0  0  0
    6.6806    0.6921   17.6074 N   0  0  0  0  0  0  0  0  0  0  0  0
    7.2930    0.0545   18.6250 C   0  0  0  0  0  0  0  0  0  0  0  0
    8.2468   -0.4209   18.4198 H   0  0  0  0  0  0  0  0  0  0  0  0
    4.9936    1.8042   17.0292 H   0  0  0  0  0  0  0  0  0  0  0  0
    3.9551    1.7600   19.2554 H   0  0  0  0  0  0  0  0  0  0  0  0
    5.0743    0.5593   21.1492 H   0  0  0  0  0  0  0  0  0  0  0  0
    6.7502   -0.6007   21.9492 H   0  0  0  0  0  0  0  0  0  0  0  0
  1  2  2  0
  2  3  1  0
  2  4  1  0
  4  5  1  0
  5  6  1  0
  6  7  1  0
  7  8  2  0
  8  9  1  0
  9 10  2  0
 10 11  1  0
 11 12  2  0
 12 13  1  0
 11 14  1  0
 10 15  1  0
  9 16  1  0
  8 17  1  0
  6 18  1  0
  6 19  1  0
  5 20  1  0
  5 21  1  0
  4 22  1  0
 22 23  2  0
 23 24  1  0
 24 25  2  0
 25 26  1  0
 26 27  2  0
 27 28  1  0
 25 29  1  0
 24 30  1  0
 23 31  1  0
  4 32  1  0
 12  7  1  0
 27 22  1  0
M  CHG  2   3  -1   5   1
M  END
>  <cnnaffinity>  (1) 
-4.97579

>  <filename>  (1) 
[H]c1nc([H])c(C([H])(C(=O)[O-])[N+]([H])([H])C([H])([H])c2c([H])c([H])c([H])c([H])c2I)c([H])c1[H]

$$$$
