
     RDKit          3D

 37 39  0  0  0  0  0  0  0  0999 V2000
    7.7388   -2.0592   20.7938 C   0  0  0  0  0  0  0  0  0  0  0  0
    7.3640   -0.6224   21.0380 C   0  0  0  0  0  0  0  0  0  0  0  0
    7.6405   -0.0074   22.1964 C   0  0  0  0  0  0  0  0  0  0  0  0
    8.4269   -0.5898   23.3038 C   0  0  0  0  0  0  0  0  0  0  0  0
    9.0156   -1.6624   23.2689 O   0  0  0  0  0  0  0  0  0  0  0  0
    8.4457    0.1918   24.4354 N   0  0  0  0  0  0  0  0  0  0  0  0
    8.9117   -0.3412   25.7223 C   0  0  0  0  0  0  0  0  0  0  0  0
    8.1515   -1.5254   26.3047 C   0  0  0  0  0  0  0  0  0  0  0  0
    7.0168   -1.3727   26.9326 N   0  0  0  0  0  0  0  0  0  0  0  0
    6.5757   -2.6333   27.3075 O   0  0  0  0  0  0  0  0  0  0  0  0
    7.4789   -3.5520   26.9066 C   0  0  0  0  0  0  0  0  0  0  0  0
    7.4152   -4.9467   27.0781 C   0  0  0  0  0  0  0  0  0  0  0  0
    8.4889   -5.6840   26.5915 C   0  0  0  0  0  0  0  0  0  0  0  0
    9.5797   -5.0571   25.9362 C   0  0  0  0  0  0  0  0  0  0  0  0
    9.6034   -3.6821   25.7385 C   0  0  0  0  0  0  0  0  0  0  0  0
    8.5329   -2.9194   26.2525 C   0  0  0  0  0  0  0  0  0  0  0  0
   10.4062   -3.2185   25.1701 H   0  0  0  0  0  0  0  0  0  0  0  0
   10.4043   -5.6728   25.5840 H   0  0  0  0  0  0  0  0  0  0  0  0
    8.4876   -6.7688   26.7008 H   0  0  0  0  0  0  0  0  0  0  0  0
    6.5590   -5.4253   27.5429 H   0  0  0  0  0  0  0  0  0  0  0  0
    9.9444   -0.6638   25.5805 H   0  0  0  0  0  0  0  0  0  0  0  0
    8.9413    0.4795   26.4442 H   0  0  0  0  0  0  0  0  0  0  0  0
    7.7274    0.8976   24.4467 H   0  0  0  0  0  0  0  0  0  0  0  0
    7.2688    0.9911   22.3901 H   0  0  0  0  0  0  0  0  0  0  0  0
    6.6465    0.1010   19.9551 C   0  0  0  0  0  0  0  0  0  0  0  0
    5.4198    0.7508   20.1698 C   0  0  0  0  0  0  0  0  0  0  0  0
    4.7843    1.3519   19.0848 C   0  0  0  0  0  0  0  0  0  0  0  0
    5.4075    1.3039   17.8317 C   0  0  0  0  0  0  0  0  0  0  0  0
    6.5740    0.6812   17.5993 N   0  0  0  0  0  0  0  0  0  0  0  0
    7.1606    0.0897   18.6458 C   0  0  0  0  0  0  0  0  0  0  0  0
    8.0977   -0.4330   18.4460 H   0  0  0  0  0  0  0  0  0  0  0  0
    4.9483    1.7855   16.9741 H   0  0  0  0  0  0  0  0  0  0  0  0
    3.8293    1.8563   19.1969 H   0  0  0  0  0  0  0  0  0  0  0  0
    4.9600    0.7341   21.1595 H   0  0  0  0  0  0  0  0  0  0  0  0
    7.5464   -2.6610   21.6877 H   0  0  0  0  0  0  0  0  0  0  0  0
    8.8093   -2.1398   20.5600 H   0  0  0  0  0  0  0  0  0  0  0  0
    7.1321   -2.4576   19.9784 H   0  0  0  0  0  0  0  0  0  0  0  0
  1  2  1  0
  2  3  2  3
  3  4  1  0
  4  5  2  0
  4  6  1  0
  6  7  1  0
  7  8  1  0
  8  9  2  0
  9 10  1  0
 10 11  1  0
 11 12  2  0
 12 13  1  0
 13 14  2  0
 14 15  1  0
 15 16  2  0
 15 17  1  0
 14 18  1  0
 13 19  1  0
 12 20  1  0
  7 21  1  0
  7 22  1  0
  6 23  1  0
  3 24  1  0
  2 25  1  0
 25 26  2  0
 26 27  1  0
 27 28  2  0
 28 29  1  0
 29 30  2  0
 30 31  1  0
 28 32  1  0
 27 33  1  0
 26 34  1  0
  1 35  1  0
  1 36  1  0
  1 37  1  0
 16  8  1  0
 30 25  1  0
 16 11  1  0
M  END
>  <cnnaffinity>  (1) 
-4.41295

>  <filename>  (1) 
[H]C(C(=O)N([H])C([H])([H])c1noc2c([H])c([H])c([H])c([H])c12)=C(c1c([H])nc([H])c([H])c1[H])C([H])([H])[H]

$$$$
