
     RDKit          3D

 44 46  0  0  0  0  0  0  0  0999 V2000
    7.3298    1.4547   26.0987 C   0  0  0  0  0  0  0  0  0  0  0  0
    8.0182    0.2626   25.4754 C   0  0  0  0  0  0  0  0  0  0  0  0
    9.2045    0.2846   25.1884 O   0  0  0  0  0  0  0  0  0  0  0  0
    7.2384   -0.8573   25.2210 N   0  0  0  0  0  0  0  0  0  0  0  0
    5.7631   -0.8313   25.3042 C   0  0  0  0  0  0  0  0  0  0  0  0
    5.1798   -2.2502   25.3525 C   0  0  0  0  0  0  0  0  0  0  0  0
    5.7152   -3.1097   24.3620 O   0  0  0  0  0  0  0  0  0  0  0  0
    7.1245   -3.1873   24.4658 C   0  0  0  0  0  0  0  0  0  0  0  0
    7.7713   -1.8148   24.2156 C   0  0  0  0  0  0  0  0  0  0  0  0
    7.5939   -1.3781   22.7587 C   0  0  0  0  0  0  0  0  0  0  0  0
    6.6843   -0.5967   22.1963 N   0  0  0  0  0  0  0  0  0  0  0  0
    7.0086   -0.6200   20.8834 C   0  0  0  0  0  0  0  0  0  0  0  0
    6.3509    0.1339   19.8256 C   0  0  0  0  0  0  0  0  0  0  0  0
    5.1597    0.8531   19.9952 C   0  0  0  0  0  0  0  0  0  0  0  0
    4.6388    1.4953   18.8739 C   0  0  0  0  0  0  0  0  0  0  0  0
    5.3294    1.4206   17.6592 C   0  0  0  0  0  0  0  0  0  0  0  0
    6.4881    0.7633   17.5013 N   0  0  0  0  0  0  0  0  0  0  0  0
    6.9824    0.1424   18.5714 C   0  0  0  0  0  0  0  0  0  0  0  0
    7.9327   -0.3699   18.4253 H   0  0  0  0  0  0  0  0  0  0  0  0
    4.9419    1.9127   16.7724 H   0  0  0  0  0  0  0  0  0  0  0  0
    3.7232    2.0742   18.9273 H   0  0  0  0  0  0  0  0  0  0  0  0
    4.6748    0.9252   20.9724 H   0  0  0  0  0  0  0  0  0  0  0  0
    8.0665   -1.3525   20.6038 N   0  0  0  0  0  0  0  0  0  0  0  0
    8.4366   -1.8442   21.8005 N   0  0  0  0  0  0  0  0  0  0  0  0
    9.7902   -2.3553   21.8777 C   0  0  0  0  0  0  0  0  0  0  0  0
   10.7999   -1.2096   22.0718 C   0  0  0  0  0  0  0  0  0  0  0  0
   12.2139   -1.7143   21.9752 C   0  0  0  0  0  0  0  0  0  0  0  0
   12.3434   -2.8720   22.6490 F   0  0  0  0  0  0  0  0  0  0  0  0
   13.0975   -0.8315   22.4719 F   0  0  0  0  0  0  0  0  0  0  0  0
   12.5647   -1.9558   20.6961 F   0  0  0  0  0  0  0  0  0  0  0  0
   10.6403   -0.7326   23.0497 H   0  0  0  0  0  0  0  0  0  0  0  0
   10.6868   -0.4555   21.2827 H   0  0  0  0  0  0  0  0  0  0  0  0
    9.9420   -2.8533   20.9222 H   0  0  0  0  0  0  0  0  0  0  0  0
    9.8558   -3.1106   22.6676 H   0  0  0  0  0  0  0  0  0  0  0  0
    8.8471   -1.8927   24.4155 H   0  0  0  0  0  0  0  0  0  0  0  0
    7.4267   -3.5417   25.4644 H   0  0  0  0  0  0  0  0  0  0  0  0
    7.4628   -3.9177   23.7254 H   0  0  0  0  0  0  0  0  0  0  0  0
    5.3452   -2.6843   26.3529 H   0  0  0  0  0  0  0  0  0  0  0  0
    4.0999   -2.2195   25.1738 H   0  0  0  0  0  0  0  0  0  0  0  0
    5.3603   -0.2910   24.4397 H   0  0  0  0  0  0  0  0  0  0  0  0
    5.4321   -0.3151   26.2104 H   0  0  0  0  0  0  0  0  0  0  0  0
    6.9361    1.2124   27.0894 H   0  0  0  0  0  0  0  0  0  0  0  0
    8.0515    2.2648   26.1771 H   0  0  0  0  0  0  0  0  0  0  0  0
    6.4950    1.7659   25.4643 H   0  0  0  0  0  0  0  0  0  0  0  0
  1  2  1  0
  2  3  2  0
  2  4  1  0
  4  5  1  0
  5  6  1  0
  6  7  1  0
  7  8  1  0
  8  9  1  0
  9 10  1  0
 10 11  2  0
 11 12  1  0
 12 13  1  0
 13 14  2  0
 14 15  1  0
 15 16  2  0
 16 17  1  0
 17 18  2  0
 18 19  1  0
 16 20  1  0
 15 21  1  0
 14 22  1  0
 12 23  2  0
 23 24  1  0
 24 25  1  0
 25 26  1  0
 26 27  1  0
 27 28  1  0
 27 29  1  0
 27 30  1  0
 26 31  1  0
 26 32  1  0
 25 33  1  0
 25 34  1  0
  9 35  1  0
  8 36  1  0
  8 37  1  0
  6 38  1  0
  6 39  1  0
  5 40  1  0
  5 41  1  0
  1 42  1  0
  1 43  1  0
  1 44  1  0
  9  4  1  0
 24 10  1  0
 18 13  1  0
M  END
>  <cnnaffinity>  (1) 
-5.80773

>  <filename>  (1) 
[H]c1nc([H])c(-c2nc(C3([H])N(C(=O)C([H])([H])[H])C([H])([H])C([H])([H])OC3([H])[H])n(C([H])([H])C([H])([H])C(F)(F)F)n2)c([H])c1[H]

$$$$
