
     RDKit          3D

 39 41  0  0  0  0  0  0  0  0999 V2000
    4.9425    1.7798   16.9464 H   0  0  0  0  0  0  0  0  0  0  0  0
    5.4097    1.2856   17.7966 C   0  0  0  0  0  0  0  0  0  0  0  0
    6.5565    0.6364   17.5492 N   0  0  0  0  0  0  0  0  0  0  0  0
    7.1588    0.0308   18.5858 C   0  0  0  0  0  0  0  0  0  0  0  0
    8.0881   -0.4749   18.3273 H   0  0  0  0  0  0  0  0  0  0  0  0
    6.6788    0.0328   19.9134 C   0  0  0  0  0  0  0  0  0  0  0  0
    7.3466   -0.7229   21.0969 C   0  0  0  0  0  0  0  0  0  0  0  0
    7.4173    0.2246   22.3647 C   0  0  0  0  0  0  0  0  0  0  0  0
    6.5810    0.1758   23.2472 O   0  0  0  0  0  0  0  0  0  0  0  0
    8.5620    1.2101   22.4429 C   0  0  0  0  0  0  0  0  0  0  0  0
    9.0911    1.7803   21.2719 C   0  0  0  0  0  0  0  0  0  0  0  0
    8.5668    1.6521   20.3275 H   0  0  0  0  0  0  0  0  0  0  0  0
   10.2559    2.5387   21.3178 C   0  0  0  0  0  0  0  0  0  0  0  0
   10.7486    2.8854   20.4188 H   0  0  0  0  0  0  0  0  0  0  0  0
   10.8025    2.8867   22.5517 C   0  0  0  0  0  0  0  0  0  0  0  0
   12.1546    3.9862   22.5901 Cl  0  0  0  0  0  0  0  0  0  0  0  0
   10.2485    2.3956   23.7360 C   0  0  0  0  0  0  0  0  0  0  0  0
   10.6465    2.7280   24.6880 H   0  0  0  0  0  0  0  0  0  0  0  0
    9.1407    1.5490   23.6817 C   0  0  0  0  0  0  0  0  0  0  0  0
    8.7161    1.1652   24.6105 H   0  0  0  0  0  0  0  0  0  0  0  0
    8.7764   -1.2418   20.7509 C   0  0  0  0  0  0  0  0  0  0  0  0
    9.4644   -0.4264   20.5211 H   0  0  0  0  0  0  0  0  0  0  0  0
    8.7069   -1.8216   19.8325 H   0  0  0  0  0  0  0  0  0  0  0  0
    9.3801   -2.1214   21.8495 C   0  0  0  0  0  0  0  0  0  0  0  0
    9.5619   -1.5095   22.7449 H   0  0  0  0  0  0  0  0  0  0  0  0
   10.3605   -2.4829   21.5175 H   0  0  0  0  0  0  0  0  0  0  0  0
    8.4661   -3.3044   22.1980 C   0  0  0  0  0  0  0  0  0  0  0  0
    8.4106   -3.9757   21.3280 H   0  0  0  0  0  0  0  0  0  0  0  0
    8.8946   -3.8888   23.0211 H   0  0  0  0  0  0  0  0  0  0  0  0
    7.0455   -2.8407   22.5446 C   0  0  0  0  0  0  0  0  0  0  0  0
    7.0553   -2.2591   23.4749 H   0  0  0  0  0  0  0  0  0  0  0  0
    6.3906   -3.7031   22.7219 H   0  0  0  0  0  0  0  0  0  0  0  0
    6.4696   -1.9782   21.4148 C   0  0  0  0  0  0  0  0  0  0  0  0
    6.4038   -2.5725   20.4920 H   0  0  0  0  0  0  0  0  0  0  0  0
    5.4477   -1.6640   21.6404 H   0  0  0  0  0  0  0  0  0  0  0  0
    5.4635    0.7066   20.1335 C   0  0  0  0  0  0  0  0  0  0  0  0
    5.0319    0.7310   21.1377 H   0  0  0  0  0  0  0  0  0  0  0  0
    4.8232    1.3395   19.0644 C   0  0  0  0  0  0  0  0  0  0  0  0
    3.8879    1.8712   19.1997 H   0  0  0  0  0  0  0  0  0  0  0  0
  1  2  1  0
  2  3  2  0
  3  4  1  0
  4  5  1  0
  4  6  2  0
  6  7  1  0
  7  8  1  0
  8  9  2  0
  8 10  1  0
 10 11  2  0
 11 12  1  0
 11 13  1  0
 13 14  1  0
 13 15  2  0
 15 16  1  0
 15 17  1  0
 17 18  1  0
 17 19  2  0
 19 20  1  0
  7 21  1  0
 21 22  1  0
 21 23  1  0
 21 24  1  0
 24 25  1  0
 24 26  1  0
 24 27  1  0
 27 28  1  0
 27 29  1  0
 27 30  1  0
 30 31  1  0
 30 32  1  0
 30 33  1  0
 33 34  1  0
 33 35  1  0
  6 36  1  0
 36 37  1  0
 36 38  2  0
 38 39  1  0
 38  2  1  0
 33  7  1  0
 19 10  1  0
M  END
>  <cnnaffinity>  (1) 
-5.32537

>  <filename>  (1) 
[H]c1nc([H])c(C2(C(=O)c3c([H])c([H])c(Cl)c([H])c3[H])C([H])([H])C([H])([H])C([H])([H])C([H])([H])C2([H])[H])c([H])c1[H]

$$$$
