
     RDKit          3D

 35 37  0  0  0  0  0  0  0  0999 V2000
    4.9083    1.8452   16.9357 H   0  0  0  0  0  0  0  0  0  0  0  0
    5.3655    1.3254   17.7743 C   0  0  0  0  0  0  0  0  0  0  0  0
    6.5277    0.7020   17.5250 N   0  0  0  0  0  0  0  0  0  0  0  0
    7.1404    0.0888   18.5485 C   0  0  0  0  0  0  0  0  0  0  0  0
    8.1008   -0.3749   18.3144 H   0  0  0  0  0  0  0  0  0  0  0  0
    6.6200    0.0240   19.8711 C   0  0  0  0  0  0  0  0  0  0  0  0
    7.2922   -0.5718   20.9645 N   0  0  0  0  0  0  0  0  0  0  0  0
    6.6639   -1.5718   21.8173 C   0  0  0  0  0  0  0  0  0  0  0  0
    5.6355   -1.7245   21.4732 H   0  0  0  0  0  0  0  0  0  0  0  0
    6.5948   -1.2194   22.8590 H   0  0  0  0  0  0  0  0  0  0  0  0
    7.3630   -2.9512   21.8215 C   0  0  0  0  0  0  0  0  0  0  0  0
    7.5686   -3.2585   20.7903 H   0  0  0  0  0  0  0  0  0  0  0  0
    6.6726   -3.6875   22.2378 H   0  0  0  0  0  0  0  0  0  0  0  0
    8.6014   -3.0237   22.5882 N   0  0  0  0  0  0  0  0  0  0  0  0
    8.5801   -3.4484   23.9058 C   0  0  0  0  0  0  0  0  0  0  0  0
    7.1245   -3.4595   24.8761 S   0  0  0  0  0  0  0  0  0  0  0  0
    8.0120   -4.0776   26.2309 C   0  0  0  0  0  0  0  0  0  0  0  0
    7.2041   -4.4408   27.7033 Cl  0  0  0  0  0  0  0  0  0  0  0  0
    9.3362   -4.2462   25.9677 C   0  0  0  0  0  0  0  0  0  0  0  0
   10.0436   -4.6111   26.7115 H   0  0  0  0  0  0  0  0  0  0  0  0
    9.6602   -3.8791   24.6259 C   0  0  0  0  0  0  0  0  0  0  0  0
   10.6428   -3.9266   24.1623 H   0  0  0  0  0  0  0  0  0  0  0  0
    9.8126   -2.3251   22.1651 C   0  0  0  0  0  0  0  0  0  0  0  0
   10.1709   -1.7283   23.0149 H   0  0  0  0  0  0  0  0  0  0  0  0
   10.6218   -3.0427   21.9797 H   0  0  0  0  0  0  0  0  0  0  0  0
    9.6523   -1.3801   20.9847 C   0  0  0  0  0  0  0  0  0  0  0  0
   10.6476   -0.9817   20.7498 H   0  0  0  0  0  0  0  0  0  0  0  0
    9.3083   -1.9446   20.1137 H   0  0  0  0  0  0  0  0  0  0  0  0
    8.6743   -0.2270   21.2522 C   0  0  0  0  0  0  0  0  0  0  0  0
    8.7744    0.1340   22.2940 H   0  0  0  0  0  0  0  0  0  0  0  0
    8.9419    0.6316   20.6323 H   0  0  0  0  0  0  0  0  0  0  0  0
    5.3835    0.6570   20.0855 C   0  0  0  0  0  0  0  0  0  0  0  0
    4.9853    0.6494   21.0979 H   0  0  0  0  0  0  0  0  0  0  0  0
    4.7540    1.3279   19.0339 C   0  0  0  0  0  0  0  0  0  0  0  0
    3.8219    1.8627   19.1832 H   0  0  0  0  0  0  0  0  0  0  0  0
  1  2  1  0
  2  3  2  0
  3  4  1  0
  4  5  1  0
  4  6  2  0
  6  7  1  0
  7  8  1  0
  8  9  1  0
  8 10  1  0
  8 11  1  0
 11 12  1  0
 11 13  1  0
 11 14  1  0
 14 15  1  0
 15 16  1  0
 16 17  1  0
 17 18  1  0
 17 19  2  0
 19 20  1  0
 19 21  1  0
 21 22  1  0
 14 23  1  0
 23 24  1  0
 23 25  1  0
 23 26  1  0
 26 27  1  0
 26 28  1  0
 26 29  1  0
 29 30  1  0
 29 31  1  0
  6 32  1  0
 32 33  1  0
 32 34  2  0
 34 35  1  0
 34  2  1  0
 29  7  1  0
 21 15  2  0
M  END
>  <cnnaffinity>  (1) 
-5.14855

>  <filename>  (1) 
[H]c1nc([H])c(N2C([H])([H])C([H])([H])N(c3sc(Cl)c([H])c3[H])C([H])([H])C([H])([H])C2([H])[H])c([H])c1[H]

$$$$
