
     RDKit          3D

 35 37  0  0  0  0  0  0  0  0999 V2000
    8.9461   -2.1192   23.0017 O   0  0  0  0  0  0  0  0  0  0  0  0
    7.7278   -2.0097   23.0500 C   0  0  0  0  0  0  0  0  0  0  0  0
    6.9230   -1.3057   22.0351 C   0  0  0  0  0  0  0  0  0  0  0  0
    7.4385   -0.7334   20.9432 C   0  0  0  0  0  0  0  0  0  0  0  0
    6.6638   -0.0073   19.9085 C   0  0  0  0  0  0  0  0  0  0  0  0
    5.4376    0.6455   20.1461 C   0  0  0  0  0  0  0  0  0  0  0  0
    4.7995    1.3050   19.0903 C   0  0  0  0  0  0  0  0  0  0  0  0
    5.4051    1.2923   17.8304 C   0  0  0  0  0  0  0  0  0  0  0  0
    6.5709    0.6760   17.5743 N   0  0  0  0  0  0  0  0  0  0  0  0
    7.1737    0.0604   18.5944 C   0  0  0  0  0  0  0  0  0  0  0  0
    8.1289   -0.4104   18.3574 H   0  0  0  0  0  0  0  0  0  0  0  0
    4.9423    1.8014   16.9880 H   0  0  0  0  0  0  0  0  0  0  0  0
    3.8635    1.8414   19.2293 H   0  0  0  0  0  0  0  0  0  0  0  0
    5.0007    0.6716   21.1456 H   0  0  0  0  0  0  0  0  0  0  0  0
    8.5140   -0.8361   20.7729 H   0  0  0  0  0  0  0  0  0  0  0  0
    5.8611   -1.3204   22.2085 H   0  0  0  0  0  0  0  0  0  0  0  0
    7.0120   -2.5621   24.0657 N   0  0  0  0  0  0  0  0  0  0  0  0
    7.7086   -3.2516   25.1342 C   0  0  0  0  0  0  0  0  0  0  0  0
    6.7511   -3.7818   26.1271 C   0  0  0  0  0  0  0  0  0  0  0  0
    5.9611   -4.9225   25.9942 C   0  0  0  0  0  0  0  0  0  0  0  0
    5.7321   -5.8960   24.9875 C   0  0  0  0  0  0  0  0  0  0  0  0
    4.8074   -6.8951   25.2191 C   0  0  0  0  0  0  0  0  0  0  0  0
    4.0898   -6.9570   26.4565 C   0  0  0  0  0  0  0  0  0  0  0  0
    4.3298   -6.0119   27.4242 C   0  0  0  0  0  0  0  0  0  0  0  0
    5.2472   -5.0179   27.1805 N   0  0  0  0  0  0  0  0  0  0  0  0
    5.5160   -4.0071   28.0341 N   0  0  0  0  0  0  0  0  0  0  0  0
    6.4101   -3.2691   27.3826 C   0  0  0  0  0  0  0  0  0  0  0  0
    6.7718   -2.3501   27.8279 H   0  0  0  0  0  0  0  0  0  0  0  0
    3.8617   -5.9253   28.3927 H   0  0  0  0  0  0  0  0  0  0  0  0
    3.3507   -7.7344   26.6315 H   0  0  0  0  0  0  0  0  0  0  0  0
    4.6133   -7.6445   24.4541 H   0  0  0  0  0  0  0  0  0  0  0  0
    6.3047   -5.8119   24.0712 H   0  0  0  0  0  0  0  0  0  0  0  0
    8.4346   -2.5715   25.6018 H   0  0  0  0  0  0  0  0  0  0  0  0
    8.3031   -4.0711   24.7060 H   0  0  0  0  0  0  0  0  0  0  0  0
    6.0258   -2.3928   24.1450 H   0  0  0  0  0  0  0  0  0  0  0  0
  1  2  2  0
  2  3  1  0
  3  4  2  3
  4  5  1  0
  5  6  2  0
  6  7  1  0
  7  8  2  0
  8  9  1  0
  9 10  2  0
 10 11  1  0
  8 12  1  0
  7 13  1  0
  6 14  1  0
  4 15  1  0
  3 16  1  0
  2 17  1  0
 17 18  1  0
 18 19  1  0
 19 20  2  0
 20 21  1  0
 21 22  2  0
 22 23  1  0
 23 24  2  0
 24 25  1  0
 25 26  1  0
 26 27  2  0
 27 28  1  0
 24 29  1  0
 23 30  1  0
 22 31  1  0
 21 32  1  0
 18 33  1  0
 18 34  1  0
 17 35  1  0
 10  5  1  0
 27 19  1  0
 25 20  1  0
M  END
>  <cnnaffinity>  (1) 
-4.9325

>  <filename>  (1) 
[H]C(C(=O)N([H])C([H])([H])c1c([H])nn2c([H])c([H])c([H])c([H])c12)=C([H])c1c([H])nc([H])c([H])c1[H]

$$$$
