
     RDKit          3D

 30 32  0  0  0  0  0  0  0  0999 V2000
    6.3727    1.3913   23.3672 H   0  0  0  0  0  0  0  0  0  0  0  0
    7.2574    1.0126   22.8650 C   0  0  0  0  0  0  0  0  0  0  0  0
    8.3145    1.8161   22.6612 C   0  0  0  0  0  0  0  0  0  0  0  0
    8.3593    3.5269   23.1386 S   0  0  0  0  0  0  0  0  0  0  0  0
   10.0939    3.6723   22.6984 C   0  0  0  0  0  0  0  0  0  0  0  0
   10.8135    4.5933   22.9551 O   0  0  0  0  0  0  0  0  0  0  0  0
   10.4743    2.5368   22.0395 N   0  0  0  0  0  0  0  0  0  0  0  0
   11.4204    2.4703   21.7115 H   0  0  0  0  0  0  0  0  0  0  0  0
    9.6418    1.4466   22.0328 C   0  0  0  0  0  0  0  0  0  0  0  0
    9.9765    0.3796   21.5761 O   0  0  0  0  0  0  0  0  0  0  0  0
    7.1385   -0.4255   22.4118 C   0  0  2  0  0  0  0  0  0  0  0  0
    6.1440   -0.8121   22.7078 H   0  0  0  0  0  0  0  0  0  0  0  0
    8.1256   -1.2052   23.0370 O   0  0  0  0  0  0  0  0  0  0  0  0
    8.4553   -2.2920   22.2001 C   0  0  0  0  0  0  0  0  0  0  0  0
    7.8699   -3.1858   22.4722 H   0  0  0  0  0  0  0  0  0  0  0  0
    9.5174   -2.4987   22.3441 H   0  0  0  0  0  0  0  0  0  0  0  0
    8.1269   -1.8326   20.7751 C   0  0  0  0  0  0  0  0  0  0  0  0
    7.4971   -2.5714   20.2737 H   0  0  0  0  0  0  0  0  0  0  0  0
    9.0162   -1.6275   20.1705 H   0  0  0  0  0  0  0  0  0  0  0  0
    7.3455   -0.6353   20.9858 N   0  0  0  0  0  0  0  0  0  0  0  0
    6.6857    0.0203   19.9452 C   0  0  0  0  0  0  0  0  0  0  0  0
    7.1817    0.0349   18.6057 C   0  0  0  0  0  0  0  0  0  0  0  0
    8.1177   -0.4732   18.3626 H   0  0  0  0  0  0  0  0  0  0  0  0
    6.5749    0.6496   17.5791 N   0  0  0  0  0  0  0  0  0  0  0  0
    5.4206    1.2892   17.8279 C   0  0  0  0  0  0  0  0  0  0  0  0
    4.9587    1.8014   16.9874 H   0  0  0  0  0  0  0  0  0  0  0  0
    4.8275    1.3159   19.0938 C   0  0  0  0  0  0  0  0  0  0  0  0
    3.8857    1.8348   19.2364 H   0  0  0  0  0  0  0  0  0  0  0  0
    5.4647    0.6856   20.1645 C   0  0  0  0  0  0  0  0  0  0  0  0
    5.0385    0.6894   21.1644 H   0  0  0  0  0  0  0  0  0  0  0  0
  1  2  1  0
  2  3  2  3
  3  4  1  0
  4  5  1  0
  5  6  2  0
  5  7  1  0
  7  8  1  0
  7  9  1  0
  9 10  2  0
  2 11  1  0
 11 12  1  1
 11 13  1  0
 13 14  1  0
 14 15  1  0
 14 16  1  0
 14 17  1  0
 17 18  1  0
 17 19  1  0
 17 20  1  0
 20 21  1  0
 21 22  2  0
 22 23  1  0
 22 24  1  0
 24 25  2  0
 25 26  1  0
 25 27  1  0
 27 28  1  0
 27 29  2  0
 29 30  1  0
  9  3  1  0
 20 11  1  0
 29 21  1  0
M  END
>  <cnnaffinity>  (1) 
-4.62338

>  <filename>  (1) 
[H]C(=C1SC(=O)N([H])C1=O)[C@]1([H])OC([H])([H])C([H])([H])N1c1c([H])nc([H])c([H])c1[H]

$$$$
