
     RDKit          3D

 30 32  0  0  0  0  0  0  0  0999 V2000
    4.9507    1.8111   16.9795 H   0  0  0  0  0  0  0  0  0  0  0  0
    5.4112    1.3007   17.8233 C   0  0  0  0  0  0  0  0  0  0  0  0
    6.5678    0.6661   17.5787 N   0  0  0  0  0  0  0  0  0  0  0  0
    7.1545    0.0416   18.6103 C   0  0  0  0  0  0  0  0  0  0  0  0
    8.0955   -0.4497   18.3670 H   0  0  0  0  0  0  0  0  0  0  0  0
    6.6286   -0.0291   19.9197 C   0  0  0  0  0  0  0  0  0  0  0  0
    7.3496   -0.7723   21.0085 C   0  0  0  0  0  0  0  0  0  0  0  0
    8.7324   -0.6134   21.1633 C   0  0  0  0  0  0  0  0  0  0  0  0
    9.3002    0.0542   20.5280 H   0  0  0  0  0  0  0  0  0  0  0  0
    9.3851   -1.3105   22.1805 C   0  0  0  0  0  0  0  0  0  0  0  0
   10.4556   -1.1867   22.3228 H   0  0  0  0  0  0  0  0  0  0  0  0
    8.7794   -2.1564   23.0176 N   0  0  0  0  0  0  0  0  0  0  0  0
    7.4434   -2.2950   22.9289 C   0  0  0  0  0  0  0  0  0  0  0  0
    6.7967   -3.2094   23.9534 C   0  0  0  0  0  0  0  0  0  0  0  0
    7.4705   -4.3469   24.4483 C   0  0  0  0  0  0  0  0  0  0  0  0
    8.5108   -4.5325   24.1898 H   0  0  0  0  0  0  0  0  0  0  0  0
    6.8395   -5.2254   25.3315 C   0  0  0  0  0  0  0  0  0  0  0  0
    7.3657   -6.0584   25.7771 H   0  0  0  0  0  0  0  0  0  0  0  0
    5.5188   -5.0276   25.7155 C   0  0  0  0  0  0  0  0  0  0  0  0
    4.9199   -5.8814   26.5554 F   0  0  0  0  0  0  0  0  0  0  0  0
    4.8410   -3.8990   25.2608 C   0  0  0  0  0  0  0  0  0  0  0  0
    3.5593   -3.7295   25.6138 F   0  0  0  0  0  0  0  0  0  0  0  0
    5.5036   -2.9587   24.4742 C   0  0  0  0  0  0  0  0  0  0  0  0
    5.0461   -1.9894   24.4148 H   0  0  0  0  0  0  0  0  0  0  0  0
    6.7080   -1.6290   21.9224 C   0  0  0  0  0  0  0  0  0  0  0  0
    5.6431   -1.7977   21.8407 H   0  0  0  0  0  0  0  0  0  0  0  0
    5.4126    0.6454   20.1396 C   0  0  0  0  0  0  0  0  0  0  0  0
    4.9743    0.6686   21.1387 H   0  0  0  0  0  0  0  0  0  0  0  0
    4.7991    1.3185   19.0799 C   0  0  0  0  0  0  0  0  0  0  0  0
    3.8672    1.8573   19.2134 H   0  0  0  0  0  0  0  0  0  0  0  0
  1  2  1  0
  2  3  2  0
  3  4  1  0
  4  5  1  0
  4  6  2  0
  6  7  1  0
  7  8  2  0
  8  9  1  0
  8 10  1  0
 10 11  1  0
 10 12  2  0
 12 13  1  0
 13 14  1  0
 14 15  2  0
 15 16  1  0
 15 17  1  0
 17 18  1  0
 17 19  2  0
 19 20  1  0
 19 21  1  0
 21 22  1  0
 21 23  2  0
 23 24  1  0
 13 25  2  0
 25 26  1  0
  6 27  1  0
 27 28  1  0
 27 29  2  0
 29 30  1  0
 29  2  1  0
 25  7  1  0
 23 14  1  0
M  END
>  <cnnaffinity>  (1) 
-5.0467

>  <filename>  (1) 
[H]c1nc([H])c(-c2c([H])c([H])nc(-c3c([H])c([H])c(F)c(F)c3[H])c2[H])c([H])c1[H]

$$$$
