
     RDKit          3D

 45 50  0  0  0  0  0  0  0  0999 V2000
    8.3905    5.1982   25.3341 C   0  0  0  0  0  0  0  0  0  0  0  0
    8.4897    3.8856   25.8056 C   0  0  0  0  0  0  0  0  0  0  0  0
    8.7226    2.8307   24.9190 C   0  0  0  0  0  0  0  0  0  0  0  0
    8.8684    3.0844   23.5486 C   0  0  0  0  0  0  0  0  0  0  0  0
    8.9884    1.9769   22.6299 N   0  0  0  0  0  0  0  0  0  0  0  0
    7.8836    1.2051   22.4100 N   0  0  0  0  0  0  0  0  0  0  0  0
    8.2439    0.4295   21.4131 C   0  0  0  0  0  0  0  0  0  0  0  0
    7.3084   -0.5863   20.8109 C   0  0  0  0  0  0  0  0  0  0  0  0
    6.5245   -0.0270   19.6322 C   0  0  0  0  0  0  0  0  0  0  0  0
    5.3581    0.7213   19.8393 C   0  0  0  0  0  0  0  0  0  0  0  0
    4.7659    1.3606   18.7494 C   0  0  0  0  0  0  0  0  0  0  0  0
    5.3605    1.2242   17.4922 C   0  0  0  0  0  0  0  0  0  0  0  0
    6.4598    0.4890   17.2637 N   0  0  0  0  0  0  0  0  0  0  0  0
    7.0085   -0.1240   18.3171 C   0  0  0  0  0  0  0  0  0  0  0  0
    7.8890   -0.7357   18.1097 H   0  0  0  0  0  0  0  0  0  0  0  0
    4.9335    1.7118   16.6209 H   0  0  0  0  0  0  0  0  0  0  0  0
    3.8722    1.9672   18.8600 H   0  0  0  0  0  0  0  0  0  0  0  0
    4.9384    0.8077   20.8446 H   0  0  0  0  0  0  0  0  0  0  0  0
    6.6257   -0.9271   21.5977 H   0  0  0  0  0  0  0  0  0  0  0  0
    7.9078   -1.4492   20.5042 H   0  0  0  0  0  0  0  0  0  0  0  0
    9.5060    0.6367   20.9627 N   0  0  0  0  0  0  0  0  0  0  0  0
    9.9764    1.5858   21.7652 C   0  0  0  0  0  0  0  0  0  0  0  0
   11.4206    1.9223   21.7302 C   0  0  0  0  0  0  0  0  0  0  0  0
   12.3777    1.5900   22.8937 C   0  0  0  0  0  0  0  0  0  0  0  0
   13.3370    0.4729   23.1002 C   0  0  0  0  0  0  0  0  0  0  0  0
   12.2902    0.8258   24.1626 C   0  0  0  0  0  0  0  0  0  0  0  0
   11.4092    0.2004   24.3174 H   0  0  0  0  0  0  0  0  0  0  0  0
   12.6566    1.3791   25.0239 H   0  0  0  0  0  0  0  0  0  0  0  0
   14.3681    0.7565   23.3062 H   0  0  0  0  0  0  0  0  0  0  0  0
   13.2130   -0.4278   22.4968 H   0  0  0  0  0  0  0  0  0  0  0  0
   12.2558    2.9981   22.4526 C   0  0  0  0  0  0  0  0  0  0  0  0
   13.2857    4.0294   22.1519 C   0  0  0  0  0  0  0  0  0  0  0  0
   12.0946    4.3485   23.0607 C   0  0  0  0  0  0  0  0  0  0  0  0
   11.2750    4.9403   22.6614 H   0  0  0  0  0  0  0  0  0  0  0  0
   12.2617    4.4257   24.1370 H   0  0  0  0  0  0  0  0  0  0  0  0
   13.3755    4.5140   21.1797 H   0  0  0  0  0  0  0  0  0  0  0  0
   14.2339    3.8182   22.6467 H   0  0  0  0  0  0  0  0  0  0  0  0
   11.8202    1.6573   20.7494 H   0  0  0  0  0  0  0  0  0  0  0  0
    8.7678    4.3997   23.0694 C   0  0  0  0  0  0  0  0  0  0  0  0
    8.5313    5.4518   23.9647 C   0  0  0  0  0  0  0  0  0  0  0  0
    8.4428    6.4655   23.5839 H   0  0  0  0  0  0  0  0  0  0  0  0
    8.8479    4.5939   22.0044 H   0  0  0  0  0  0  0  0  0  0  0  0
    8.7670    1.8031   25.2688 H   0  0  0  0  0  0  0  0  0  0  0  0
    8.3550    3.6728   26.8652 H   0  0  0  0  0  0  0  0  0  0  0  0
    8.2022    6.0110   26.0302 H   0  0  0  0  0  0  0  0  0  0  0  0
  1  2  2  0
  2  3  1  0
  3  4  2  0
  4  5  1  0
  5  6  1  0
  6  7  2  0
  7  8  1  0
  8  9  1  0
  9 10  2  0
 10 11  1  0
 11 12  2  0
 12 13  1  0
 13 14  2  0
 14 15  1  0
 12 16  1  0
 11 17  1  0
 10 18  1  0
  8 19  1  0
  8 20  1  0
  7 21  1  0
 21 22  2  0
 22 23  1  0
 23 24  1  0
 24 25  1  0
 25 26  1  0
 26 27  1  0
 26 28  1  0
 25 29  1  0
 25 30  1  0
 24 31  1  0
 31 32  1  0
 32 33  1  0
 33 34  1  0
 33 35  1  0
 32 36  1  0
 32 37  1  0
 23 38  1  0
  4 39  1  0
 39 40  2  0
 40 41  1  0
 39 42  1  0
  3 43  1  0
  2 44  1  0
  1 45  1  0
 40  1  1  0
 22  5  1  0
 31 23  1  0
 14  9  1  0
 26 24  1  0
 33 31  1  0
M  END
>  <cnnaffinity>  (1) 
-5.97809

>  <filename>  (1) 
[H]c1nc([H])c(C([H])([H])c2nc(C3([H])C4(C([H])([H])C4([H])[H])C34C([H])([H])C4([H])[H])n(-c3c([H])c([H])c([H])c([H])c3[H])n2)c([H])c1[H]

$$$$
