
     RDKit          3D

 35 38  0  0  0  0  0  0  0  0999 V2000
    4.9050    1.8185   16.9595 H   0  0  0  0  0  0  0  0  0  0  0  0
    5.3875    1.3219   17.7997 C   0  0  0  0  0  0  0  0  0  0  0  0
    6.5538    0.7118   17.5290 N   0  0  0  0  0  0  0  0  0  0  0  0
    7.1773    0.1046   18.5464 C   0  0  0  0  0  0  0  0  0  0  0  0
    8.1138   -0.3909   18.2942 H   0  0  0  0  0  0  0  0  0  0  0  0
    6.6755    0.0332   19.8671 C   0  0  0  0  0  0  0  0  0  0  0  0
    7.3944   -0.6867   20.9544 C   0  0  0  0  0  0  0  0  0  0  0  0
    8.7068   -0.4475   21.1936 C   0  0  0  0  0  0  0  0  0  0  0  0
    9.2975    0.2676   20.6200 H   0  0  0  0  0  0  0  0  0  0  0  0
    9.4196   -1.1057   22.1864 N   0  0  0  0  0  0  0  0  0  0  0  0
   10.8006   -0.7951   22.3543 C   0  0  0  0  0  0  0  0  0  0  0  0
   11.8178   -1.6921   22.4139 C   0  0  0  0  0  0  0  0  0  0  0  0
   11.7453   -2.7710   22.4313 H   0  0  0  0  0  0  0  0  0  0  0  0
   13.0175   -1.0210   22.5240 N   0  0  0  0  0  0  0  0  0  0  0  0
   13.9041   -1.4574   22.7289 H   0  0  0  0  0  0  0  0  0  0  0  0
   12.7744    0.3327   22.6097 C   0  0  0  0  0  0  0  0  0  0  0  0
   13.6523    1.4131   22.7919 C   0  0  0  0  0  0  0  0  0  0  0  0
   14.7169    1.2516   22.9086 H   0  0  0  0  0  0  0  0  0  0  0  0
   13.1179    2.6947   22.7895 C   0  0  0  0  0  0  0  0  0  0  0  0
   13.7848    3.5453   22.8890 H   0  0  0  0  0  0  0  0  0  0  0  0
   11.7298    2.9078   22.6338 C   0  0  0  0  0  0  0  0  0  0  0  0
   11.3452    3.9215   22.6086 H   0  0  0  0  0  0  0  0  0  0  0  0
   10.8592    1.8355   22.4924 C   0  0  0  0  0  0  0  0  0  0  0  0
    9.7900    2.0077   22.3970 H   0  0  0  0  0  0  0  0  0  0  0  0
   11.3766    0.5242   22.4777 C   0  0  0  0  0  0  0  0  0  0  0  0
    8.7943   -2.0445   23.0336 C   0  0  0  0  0  0  0  0  0  0  0  0
    9.3372   -2.6627   23.9178 O   0  0  0  0  0  0  0  0  0  0  0  0
    7.4740   -2.2299   22.7884 N   0  0  0  0  0  0  0  0  0  0  0  0
    7.0403   -2.9390   23.3422 H   0  0  0  0  0  0  0  0  0  0  0  0
    6.7061   -1.7291   21.7655 C   0  0  0  0  0  0  0  0  0  0  0  0
    5.6023   -2.2066   21.6100 O   0  0  0  0  0  0  0  0  0  0  0  0
    5.4455    0.6668   20.1118 C   0  0  0  0  0  0  0  0  0  0  0  0
    5.0181    0.6093   21.1135 H   0  0  0  0  0  0  0  0  0  0  0  0
    4.7950    1.3326   19.0680 C   0  0  0  0  0  0  0  0  0  0  0  0
    3.8521    1.8551   19.2185 H   0  0  0  0  0  0  0  0  0  0  0  0
  1  2  1  0
  2  3  2  0
  3  4  1  0
  4  5  1  0
  4  6  2  0
  6  7  1  0
  7  8  2  0
  8  9  1  0
  8 10  1  0
 10 11  1  0
 11 12  2  0
 12 13  1  0
 12 14  1  0
 14 15  1  0
 14 16  1  0
 16 17  2  0
 17 18  1  0
 17 19  1  0
 19 20  1  0
 19 21  2  0
 21 22  1  0
 21 23  1  0
 23 24  1  0
 23 25  2  0
 10 26  1  0
 26 27  2  0
 26 28  1  0
 28 29  1  0
 28 30  1  0
 30 31  2  0
  6 32  1  0
 32 33  1  0
 32 34  2  0
 34 35  1  0
 34  2  1  0
 30  7  1  0
 25 11  1  0
 25 16  1  0
M  END
>  <cnnaffinity>  (1) 
-5.47431

>  <filename>  (1) 
[H]c1nc([H])c(-c2c([H])n(-c3c([H])n([H])c4c([H])c([H])c([H])c([H])c34)c(=O)n([H])c2=O)c([H])c1[H]

$$$$
