
     RDKit          3D

 45 47  0  0  0  0  0  0  0  0999 V2000
   10.5138   -4.2577   25.2252 C   0  0  0  0  0  0  0  0  0  0  0  0
    9.5410   -4.7440   24.1845 C   0  0  0  0  0  0  0  0  0  0  0  0
    8.9661   -5.9263   24.3711 N   0  0  0  0  0  0  0  0  0  0  0  0
    8.1382   -6.0854   23.3273 N   0  0  0  0  0  0  0  0  0  0  0  0
    8.1533   -5.0394   22.4634 C   0  0  0  0  0  0  0  0  0  0  0  0
    7.2423   -4.9549   21.2822 C   0  0  0  0  0  0  0  0  0  0  0  0
    7.6973   -4.3235   20.5199 H   0  0  0  0  0  0  0  0  0  0  0  0
    6.2857   -4.4822   21.5395 H   0  0  0  0  0  0  0  0  0  0  0  0
    7.0279   -5.9449   20.8651 H   0  0  0  0  0  0  0  0  0  0  0  0
    9.0798   -4.1359   22.9706 C   0  0  0  0  0  0  0  0  0  0  0  0
    9.4786   -2.8640   22.2175 C   0  0  0  0  0  0  0  0  0  0  0  0
   10.7577   -2.1817   22.7486 C   0  0  0  0  0  0  0  0  0  0  0  0
   10.9424   -1.2301   22.2398 H   0  0  0  0  0  0  0  0  0  0  0  0
   10.6838   -1.9635   23.8193 H   0  0  0  0  0  0  0  0  0  0  0  0
   11.6332   -2.8204   22.5671 H   0  0  0  0  0  0  0  0  0  0  0  0
    8.3479   -1.8833   21.9733 C   0  0  0  0  0  0  0  0  0  0  0  0
    8.0576   -1.3979   20.7808 N   0  0  0  0  0  0  0  0  0  0  0  0
    7.0197   -0.5571   21.0235 C   0  0  0  0  0  0  0  0  0  0  0  0
    6.3765    0.1469   19.9173 C   0  0  0  0  0  0  0  0  0  0  0  0
    5.1716    0.8637   20.0145 C   0  0  0  0  0  0  0  0  0  0  0  0
    4.6814    1.4760   18.8620 C   0  0  0  0  0  0  0  0  0  0  0  0
    5.4082    1.3673   17.6714 C   0  0  0  0  0  0  0  0  0  0  0  0
    6.5533    0.6782   17.5696 N   0  0  0  0  0  0  0  0  0  0  0  0
    7.0145    0.0834   18.6703 C   0  0  0  0  0  0  0  0  0  0  0  0
    7.9441   -0.4689   18.5527 H   0  0  0  0  0  0  0  0  0  0  0  0
    5.0613    1.8455   16.7578 H   0  0  0  0  0  0  0  0  0  0  0  0
    3.7578    2.0440   18.8647 H   0  0  0  0  0  0  0  0  0  0  0  0
    4.6460    0.9438   20.9673 H   0  0  0  0  0  0  0  0  0  0  0  0
    6.6637   -0.4898   22.2909 N   0  0  0  0  0  0  0  0  0  0  0  0
    7.5390   -1.3298   22.8996 N   0  0  0  0  0  0  0  0  0  0  0  0
    7.4107   -1.6059   24.3206 C   0  0  0  0  0  0  0  0  0  0  0  0
    6.3531   -2.6890   24.5661 C   0  0  0  0  0  0  0  0  0  0  0  0
    6.3361   -3.2194   25.9772 C   0  0  0  0  0  0  0  0  0  0  0  0
    5.8328   -2.3133   26.8356 F   0  0  0  0  0  0  0  0  0  0  0  0
    5.5781   -4.3289   26.0630 F   0  0  0  0  0  0  0  0  0  0  0  0
    7.5653   -3.5437   26.4330 F   0  0  0  0  0  0  0  0  0  0  0  0
    5.3560   -2.2907   24.3652 H   0  0  0  0  0  0  0  0  0  0  0  0
    6.4972   -3.5414   23.8972 H   0  0  0  0  0  0  0  0  0  0  0  0
    7.1349   -0.6619   24.7989 H   0  0  0  0  0  0  0  0  0  0  0  0
    8.3888   -1.9156   24.7033 H   0  0  0  0  0  0  0  0  0  0  0  0
    9.6929   -3.1308   21.1741 H   0  0  0  0  0  0  0  0  0  0  0  0
    7.5130   -6.8751   23.3323 H   0  0  0  0  0  0  0  0  0  0  0  0
   11.3856   -3.7839   24.7653 H   0  0  0  0  0  0  0  0  0  0  0  0
   10.8582   -5.0947   25.8440 H   0  0  0  0  0  0  0  0  0  0  0  0
   10.0123   -3.5395   25.8830 H   0  0  0  0  0  0  0  0  0  0  0  0
  1  2  1  0
  2  3  2  0
  3  4  1  0
  4  5  1  0
  5  6  1  0
  6  7  1  0
  6  8  1  0
  6  9  1  0
  5 10  2  0
 10 11  1  0
 11 12  1  0
 12 13  1  0
 12 14  1  0
 12 15  1  0
 11 16  1  0
 16 17  2  0
 17 18  1  0
 18 19  1  0
 19 20  2  0
 20 21  1  0
 21 22  2  0
 22 23  1  0
 23 24  2  0
 24 25  1  0
 22 26  1  0
 21 27  1  0
 20 28  1  0
 18 29  2  0
 29 30  1  0
 30 31  1  0
 31 32  1  0
 32 33  1  0
 33 34  1  0
 33 35  1  0
 33 36  1  0
 32 37  1  0
 32 38  1  0
 31 39  1  0
 31 40  1  0
 11 41  1  0
  4 42  1  0
  1 43  1  0
  1 44  1  0
  1 45  1  0
 10  2  1  0
 30 16  1  0
 24 19  1  0
M  END
>  <cnnaffinity>  (1) 
-6.42595

>  <filename>  (1) 
[H]c1nc([H])c(-c2nc(C([H])(c3c(C([H])([H])[H])nn([H])c3C([H])([H])[H])C([H])([H])[H])n(C([H])([H])C([H])([H])C(F)(F)F)n2)c([H])c1[H]

$$$$
