
     RDKit          3D

 47 51  0  0  0  0  0  0  0  0999 V2000
   11.3584    3.6778   22.0396 F   0  0  0  0  0  0  0  0  0  0  0  0
   11.3458    2.2980   21.8496 C   0  0  0  0  0  0  0  0  0  0  0  0
    9.9539    1.7148   21.9261 C   0  0  0  0  0  0  0  0  0  0  0  0
    9.5625    0.7348   21.1234 N   0  0  0  0  0  0  0  0  0  0  0  0
    8.3598    0.3610   21.6373 C   0  0  0  0  0  0  0  0  0  0  0  0
    7.4637   -0.6497   20.9765 C   0  0  0  0  0  0  0  0  0  0  0  0
    6.6555   -0.0464   19.8334 C   0  0  0  0  0  0  0  0  0  0  0  0
    5.4565    0.6325   20.0845 C   0  0  0  0  0  0  0  0  0  0  0  0
    4.8270    1.3076   19.0347 C   0  0  0  0  0  0  0  0  0  0  0  0
    5.4171    1.2759   17.7671 C   0  0  0  0  0  0  0  0  0  0  0  0
    6.5530    0.6137   17.4972 N   0  0  0  0  0  0  0  0  0  0  0  0
    7.1428   -0.0251   18.5143 C   0  0  0  0  0  0  0  0  0  0  0  0
    8.0673   -0.5516   18.2730 H   0  0  0  0  0  0  0  0  0  0  0  0
    4.9636    1.8051   16.9297 H   0  0  0  0  0  0  0  0  0  0  0  0
    3.9118    1.8713   19.1863 H   0  0  0  0  0  0  0  0  0  0  0  0
    5.0331    0.6329   21.0919 H   0  0  0  0  0  0  0  0  0  0  0  0
    8.0839   -1.4718   20.6081 H   0  0  0  0  0  0  0  0  0  0  0  0
    6.7947   -1.0622   21.7391 H   0  0  0  0  0  0  0  0  0  0  0  0
    8.0091    1.0106   22.7280 N   0  0  0  0  0  0  0  0  0  0  0  0
    9.0142    1.9186   22.8929 N   0  0  0  0  0  0  0  0  0  0  0  0
    8.9110    2.9023   23.9231 C   0  0  0  0  0  0  0  0  0  0  0  0
    9.0743    4.2739   23.7176 C   0  0  0  0  0  0  0  0  0  0  0  0
    8.8946    5.1861   24.7875 C   0  0  0  0  0  0  0  0  0  0  0  0
    8.5735    4.7578   26.0746 C   0  0  0  0  0  0  0  0  0  0  0  0
    8.4098    3.3763   26.2908 C   0  0  0  0  0  0  0  0  0  0  0  0
    8.5538    2.4809   25.2188 C   0  0  0  0  0  0  0  0  0  0  0  0
    8.2995    1.2386   25.7564 N   0  0  0  0  0  0  0  0  0  0  0  0
    8.0373    1.4338   27.0841 C   0  0  0  0  0  0  0  0  0  0  0  0
    8.0821    2.6830   27.4464 N   0  0  0  0  0  0  0  0  0  0  0  0
    7.8165    0.6118   27.7529 H   0  0  0  0  0  0  0  0  0  0  0  0
    8.1143    0.4208   25.2033 H   0  0  0  0  0  0  0  0  0  0  0  0
    8.4218    5.4419   26.9028 H   0  0  0  0  0  0  0  0  0  0  0  0
    8.9929    6.2491   24.5847 H   0  0  0  0  0  0  0  0  0  0  0  0
    9.3049    4.6643   22.7302 H   0  0  0  0  0  0  0  0  0  0  0  0
   12.3633    1.7111   22.8382 C   0  0  0  0  0  0  0  0  0  0  0  0
   11.9350    1.5892   24.3105 C   0  0  0  0  0  0  0  0  0  0  0  0
   12.8262    0.4485   24.8320 C   0  0  0  0  0  0  0  0  0  0  0  0
   13.5088   -0.0792   23.7105 O   0  0  0  0  0  0  0  0  0  0  0  0
   12.7980    0.2781   22.5512 C   0  0  0  0  0  0  0  0  0  0  0  0
   13.5017    0.1561   21.7308 H   0  0  0  0  0  0  0  0  0  0  0  0
   11.9287   -0.3812   22.3867 H   0  0  0  0  0  0  0  0  0  0  0  0
   12.2255   -0.3364   25.3112 H   0  0  0  0  0  0  0  0  0  0  0  0
   13.5731    0.7711   25.5466 H   0  0  0  0  0  0  0  0  0  0  0  0
   10.9047    1.2384   24.3867 H   0  0  0  0  0  0  0  0  0  0  0  0
   12.0178    2.5251   24.8653 H   0  0  0  0  0  0  0  0  0  0  0  0
   13.2594    2.3381   22.7577 H   0  0  0  0  0  0  0  0  0  0  0  0
   11.6784    2.1251   20.8226 H   0  0  0  0  0  0  0  0  0  0  0  0
  1  2  1  0
  2  3  1  0
  3  4  2  0
  4  5  1  0
  5  6  1  0
  6  7  1  0
  7  8  2  0
  8  9  1  0
  9 10  2  0
 10 11  1  0
 11 12  2  0
 12 13  1  0
 10 14  1  0
  9 15  1  0
  8 16  1  0
  6 17  1  0
  6 18  1  0
  5 19  2  0
 19 20  1  0
 20 21  1  0
 21 22  2  0
 22 23  1  0
 23 24  2  0
 24 25  1  0
 25 26  2  0
 26 27  1  0
 27 28  1  0
 28 29  2  0
 28 30  1  0
 27 31  1  0
 24 32  1  0
 23 33  1  0
 22 34  1  0
  2 35  1  0
 35 36  1  0
 36 37  1  0
 37 38  1  0
 38 39  1  0
 39 40  1  0
 39 41  1  0
 37 42  1  0
 37 43  1  0
 36 44  1  0
 36 45  1  0
 35 46  1  0
  2 47  1  0
 20  3  1  0
 26 21  1  0
 39 35  1  0
 12  7  1  0
 29 25  1  0
M  END
>  <cnnaffinity>  (1) 
-5.93386

>  <filename>  (1) 
[H]c1nc([H])c(C([H])([H])c2nc(C([H])(F)C3([H])C([H])([H])OC([H])([H])C3([H])[H])n(-c3c([H])c([H])c([H])c4nc([H])n([H])c34)n2)c([H])c1[H]

$$$$
