
     RDKit          3D

 27 28  0  0  0  0  0  0  0  0999 V2000
   10.8957    2.7959   22.1997 H   0  0  0  0  0  0  0  0  0  0  0  0
    9.8159    2.6795   22.2551 C   0  0  0  0  0  0  0  0  0  0  0  0
    9.3514    1.4330   22.2919 N   0  0  0  0  0  0  0  0  0  0  0  0
    8.0232    1.3041   22.3498 C   0  0  0  0  0  0  0  0  0  0  0  0
    7.4541   -0.0728   22.3750 C   0  0  0  0  0  0  0  0  0  0  0  0
    6.4474   -0.0442   22.7941 H   0  0  0  0  0  0  0  0  0  0  0  0
    8.0834   -0.7042   22.9968 H   0  0  0  0  0  0  0  0  0  0  0  0
    7.4120   -0.6815   20.9945 C   0  0  0  0  0  0  0  0  0  0  0  0
    8.1568   -2.1036   20.7763 S   0  0  0  0  0  0  0  0  0  0  0  0
    6.6680    0.0253   19.9261 C   0  0  0  0  0  0  0  0  0  0  0  0
    7.1728    0.0580   18.6108 C   0  0  0  0  0  0  0  0  0  0  0  0
    8.1154   -0.4309   18.3728 H   0  0  0  0  0  0  0  0  0  0  0  0
    6.5665    0.6685   17.5910 N   0  0  0  0  0  0  0  0  0  0  0  0
    5.4033    1.2899   17.8439 C   0  0  0  0  0  0  0  0  0  0  0  0
    4.9279    1.7819   16.9970 H   0  0  0  0  0  0  0  0  0  0  0  0
    4.7993    1.3027   19.1033 C   0  0  0  0  0  0  0  0  0  0  0  0
    3.8721    1.8419   19.2535 H   0  0  0  0  0  0  0  0  0  0  0  0
    5.4281    0.6459   20.1606 C   0  0  0  0  0  0  0  0  0  0  0  0
    4.9911    0.6588   21.1636 H   0  0  0  0  0  0  0  0  0  0  0  0
    7.1490    2.3041   22.3885 N   0  0  0  0  0  0  0  0  0  0  0  0
    7.6187    3.5558   22.3182 C   0  0  0  0  0  0  0  0  0  0  0  0
    6.6262    4.7564   22.2966 C   0  0  0  0  0  0  0  0  0  0  0  0
    5.3409    4.4020   22.3629 F   0  0  0  0  0  0  0  0  0  0  0  0
    6.7930    5.5046   21.1866 F   0  0  0  0  0  0  0  0  0  0  0  0
    6.8744    5.5857   23.3341 F   0  0  0  0  0  0  0  0  0  0  0  0
    8.9884    3.7983   22.2807 C   0  0  0  0  0  0  0  0  0  0  0  0
    9.3901    4.7999   22.2358 H   0  0  0  0  0  0  0  0  0  0  0  0
  1  2  1  0
  2  3  2  0
  3  4  1  0
  4  5  1  0
  5  6  1  0
  5  7  1  0
  5  8  1  0
  8  9  2  0
  8 10  1  0
 10 11  2  0
 11 12  1  0
 11 13  1  0
 13 14  2  0
 14 15  1  0
 14 16  1  0
 16 17  1  0
 16 18  2  0
 18 19  1  0
  4 20  2  0
 20 21  1  0
 21 22  1  0
 22 23  1  0
 22 24  1  0
 22 25  1  0
 21 26  2  0
 26 27  1  0
 26  2  1  0
 18 10  1  0
M  END
>  <cnnaffinity>  (1) 
-4.74374

>  <filename>  (1) 
[H]c1nc(C([H])([H])C(=S)c2c([H])nc([H])c([H])c2[H])nc(C(F)(F)F)c1[H]

$$$$
