
     RDKit          3D

 48 52  0  0  0  0  0  0  0  0999 V2000
    6.0942    3.1575   26.5530 C   0  0  0  0  0  0  0  0  0  0  0  0
    6.7834    3.0611   25.1977 C   0  0  0  0  0  0  0  0  0  0  0  0
    6.9912    4.4075   24.4867 C   0  0  0  0  0  0  0  0  0  0  0  0
    8.1390    4.1710   23.4793 C   0  0  0  0  0  0  0  0  0  0  0  0
    8.8957    2.9032   23.9677 C   0  0  0  0  0  0  0  0  0  0  0  0
    8.9293    1.8374   22.9497 N   0  0  0  0  0  0  0  0  0  0  0  0
    7.8237    1.1184   22.6387 N   0  0  0  0  0  0  0  0  0  0  0  0
    8.2521    0.2962   21.6985 C   0  0  0  0  0  0  0  0  0  0  0  0
    7.3421   -0.6723   20.9884 C   0  0  0  0  0  0  0  0  0  0  0  0
    6.5778   -0.0414   19.8284 C   0  0  0  0  0  0  0  0  0  0  0  0
    5.3741    0.6356   20.0596 C   0  0  0  0  0  0  0  0  0  0  0  0
    4.7700    1.3273   19.0079 C   0  0  0  0  0  0  0  0  0  0  0  0
    5.3919    1.3114   17.7567 C   0  0  0  0  0  0  0  0  0  0  0  0
    6.5263    0.6403   17.5010 N   0  0  0  0  0  0  0  0  0  0  0  0
    7.0916   -0.0179   18.5201 C   0  0  0  0  0  0  0  0  0  0  0  0
    8.0127   -0.5573   18.2886 H   0  0  0  0  0  0  0  0  0  0  0  0
    4.9630    1.8590   16.9199 H   0  0  0  0  0  0  0  0  0  0  0  0
    3.8507    1.8877   19.1499 H   0  0  0  0  0  0  0  0  0  0  0  0
    4.9352    0.6264   21.0585 H   0  0  0  0  0  0  0  0  0  0  0  0
    6.6360   -1.0763   21.7225 H   0  0  0  0  0  0  0  0  0  0  0  0
    7.9614   -1.5008   20.6280 H   0  0  0  0  0  0  0  0  0  0  0  0
    9.5645    0.4355   21.3850 N   0  0  0  0  0  0  0  0  0  0  0  0
    9.9624    1.4271   22.1726 C   0  0  0  0  0  0  0  0  0  0  0  0
   11.3213    2.0291   22.3050 C   0  0  0  0  0  0  0  0  0  0  0  0
   11.5623    3.4136   22.3729 C   0  0  0  0  0  0  0  0  0  0  0  0
   12.8590    3.9173   22.6144 C   0  0  0  0  0  0  0  0  0  0  0  0
   13.9464    3.1683   22.7824 N   0  0  0  0  0  0  0  0  0  0  0  0
   13.7100    1.8539   22.6672 C   0  0  0  0  0  0  0  0  0  0  0  0
   12.4771    1.2200   22.4112 C   0  0  0  0  0  0  0  0  0  0  0  0
   12.8219   -0.1643   22.3492 C   0  0  0  0  0  0  0  0  0  0  0  0
   14.1116   -0.3604   22.5298 N   0  0  0  0  0  0  0  0  0  0  0  0
   14.6294    0.8682   22.7299 N   0  0  0  0  0  0  0  0  0  0  0  0
   15.6125    1.0390   22.8071 H   0  0  0  0  0  0  0  0  0  0  0  0
   12.1650   -1.0013   22.1595 H   0  0  0  0  0  0  0  0  0  0  0  0
   13.0108    4.9892   22.6931 H   0  0  0  0  0  0  0  0  0  0  0  0
   10.7656    4.1315   22.2425 H   0  0  0  0  0  0  0  0  0  0  0  0
    8.2044    2.4965   25.2829 C   0  0  0  0  0  0  0  0  0  0  0  0
    8.2275    1.4159   25.4560 H   0  0  0  0  0  0  0  0  0  0  0  0
    8.7370    2.9777   26.1170 H   0  0  0  0  0  0  0  0  0  0  0  0
    9.9366    3.1320   24.1901 H   0  0  0  0  0  0  0  0  0  0  0  0
    8.8166    5.0322   23.4354 H   0  0  0  0  0  0  0  0  0  0  0  0
    7.7535    4.0110   22.4654 H   0  0  0  0  0  0  0  0  0  0  0  0
    6.0728    4.7759   24.0123 H   0  0  0  0  0  0  0  0  0  0  0  0
    7.2892    5.1699   25.2212 H   0  0  0  0  0  0  0  0  0  0  0  0
    6.2076    2.4010   24.5321 H   0  0  0  0  0  0  0  0  0  0  0  0
    6.0132    2.1714   27.0242 H   0  0  0  0  0  0  0  0  0  0  0  0
    5.0865    3.5774   26.4669 H   0  0  0  0  0  0  0  0  0  0  0  0
    6.6678    3.8017   27.2328 H   0  0  0  0  0  0  0  0  0  0  0  0
  1  2  1  0
  2  3  1  0
  3  4  1  0
  4  5  1  0
  5  6  1  0
  6  7  1  0
  7  8  2  0
  8  9  1  0
  9 10  1  0
 10 11  2  0
 11 12  1  0
 12 13  2  0
 13 14  1  0
 14 15  2  0
 15 16  1  0
 13 17  1  0
 12 18  1  0
 11 19  1  0
  9 20  1  0
  9 21  1  0
  8 22  1  0
 22 23  2  0
 23 24  1  0
 24 25  2  0
 25 26  1  0
 26 27  2  0
 27 28  1  0
 28 29  2  0
 29 30  1  0
 30 31  2  0
 31 32  1  0
 32 33  1  0
 30 34  1  0
 26 35  1  0
 25 36  1  0
  5 37  1  0
 37 38  1  0
 37 39  1  0
  5 40  1  0
  4 41  1  0
  4 42  1  0
  3 43  1  0
  3 44  1  0
  2 45  1  0
  1 46  1  0
  1 47  1  0
  1 48  1  0
 37  2  1  0
 23  6  1  0
 29 24  1  0
 15 10  1  0
 32 28  1  0
M  END
>  <cnnaffinity>  (1) 
-6.94435

>  <filename>  (1) 
[H]c1nc([H])c(C([H])([H])c2nc(-c3c([H])c([H])nc4c3c([H])nn4[H])n(C3([H])C([H])([H])C([H])([H])C([H])(C([H])([H])[H])C3([H])[H])n2)c([H])c1[H]

$$$$
