
     RDKit          3D

 32 34  0  0  0  0  0  0  0  0999 V2000
    6.6848   -1.3547   21.6104 H   0  0  0  0  0  0  0  0  0  0  0  0
    7.3209   -0.7134   20.9949 C   0  0  0  0  0  0  0  0  0  0  0  0
    8.6048   -0.5286   21.3375 C   0  0  0  0  0  0  0  0  0  0  0  0
    9.3494   -1.1518   22.4393 C   0  0  0  0  0  0  0  0  0  0  0  0
    8.8191   -2.2878   23.2329 C   0  0  0  0  0  0  0  0  0  0  0  0
    8.8988   -2.2548   24.6327 C   0  0  0  0  0  0  0  0  0  0  0  0
    9.3400   -1.3840   25.1069 H   0  0  0  0  0  0  0  0  0  0  0  0
    8.4477   -3.3117   25.4144 C   0  0  0  0  0  0  0  0  0  0  0  0
    8.5192   -3.2951   26.4950 H   0  0  0  0  0  0  0  0  0  0  0  0
    7.9098   -4.4247   24.7742 C   0  0  0  0  0  0  0  0  0  0  0  0
    7.4733   -5.4514   25.5137 F   0  0  0  0  0  0  0  0  0  0  0  0
    7.8117   -4.5191   23.3918 C   0  0  0  0  0  0  0  0  0  0  0  0
    7.3916   -5.3951   22.9121 H   0  0  0  0  0  0  0  0  0  0  0  0
    8.2761   -3.4394   22.6488 C   0  0  0  0  0  0  0  0  0  0  0  0
    8.2064   -3.5430   21.3128 F   0  0  0  0  0  0  0  0  0  0  0  0
   10.4718   -0.5863   22.7031 N   0  0  0  0  0  0  0  0  0  0  0  0
   10.7058    0.4966   21.7427 C   0  0  0  0  0  0  0  0  0  0  0  0
   11.6707    0.3343   21.2576 H   0  0  0  0  0  0  0  0  0  0  0  0
   10.7717    1.4381   22.2966 H   0  0  0  0  0  0  0  0  0  0  0  0
    9.5167    0.5159   20.7490 C   0  0  0  0  0  0  0  0  0  0  0  0
    9.7554    0.1919   19.7377 H   0  0  0  0  0  0  0  0  0  0  0  0
    9.0373    1.4960   20.6690 H   0  0  0  0  0  0  0  0  0  0  0  0
    6.6435   -0.0106   19.8973 C   0  0  0  0  0  0  0  0  0  0  0  0
    7.1645    0.0665   18.5902 C   0  0  0  0  0  0  0  0  0  0  0  0
    8.1084   -0.4286   18.3718 H   0  0  0  0  0  0  0  0  0  0  0  0
    6.5624    0.6864   17.5684 N   0  0  0  0  0  0  0  0  0  0  0  0
    5.3984    1.2997   17.8338 C   0  0  0  0  0  0  0  0  0  0  0  0
    4.9148    1.7861   16.9913 H   0  0  0  0  0  0  0  0  0  0  0  0
    4.7986    1.3143   19.1000 C   0  0  0  0  0  0  0  0  0  0  0  0
    3.8691    1.8485   19.2544 H   0  0  0  0  0  0  0  0  0  0  0  0
    5.4204    0.6371   20.1462 C   0  0  0  0  0  0  0  0  0  0  0  0
    5.0063    0.6245   21.1581 H   0  0  0  0  0  0  0  0  0  0  0  0
  1  2  1  0
  2  3  2  3
  3  4  1  0
  4  5  1  0
  5  6  2  0
  6  7  1  0
  6  8  1  0
  8  9  1  0
  8 10  2  0
 10 11  1  0
 10 12  1  0
 12 13  1  0
 12 14  2  0
 14 15  1  0
  4 16  2  0
 16 17  1  0
 17 18  1  0
 17 19  1  0
 17 20  1  0
 20 21  1  0
 20 22  1  0
  2 23  1  0
 23 24  2  0
 24 25  1  0
 24 26  1  0
 26 27  2  0
 27 28  1  0
 27 29  1  0
 29 30  1  0
 29 31  2  0
 31 32  1  0
 20  3  1  0
 31 23  1  0
 14  5  1  0
M  END
>  <cnnaffinity>  (1) 
-5.37803

>  <filename>  (1) 
[H]C(=C1C(c2c([H])c([H])c(F)c([H])c2F)=NC([H])([H])C1([H])[H])c1c([H])nc([H])c([H])c1[H]

$$$$
