
     RDKit          3D

 45 48  0  0  0  0  0  0  0  0999 V2000
   11.8646    3.2193   22.5669 C   0  0  0  0  0  0  0  0  0  0  0  0
   11.5414    1.7626   22.2503 C   0  0  0  0  0  0  0  0  0  0  0  0
   10.1008    1.4583   22.1974 N   0  0  0  0  0  0  0  0  0  0  0  0
    9.7591    0.4415   21.3667 N   0  0  0  0  0  0  0  0  0  0  0  0
    8.4590    0.3333   21.5225 C   0  0  0  0  0  0  0  0  0  0  0  0
    7.6661   -0.6775   20.7380 C   0  0  0  0  0  0  0  0  0  0  0  0
    6.8221   -0.0740   19.6197 C   0  0  0  0  0  0  0  0  0  0  0  0
    5.6533    0.6257   19.9533 C   0  0  0  0  0  0  0  0  0  0  0  0
    4.9480    1.2858   18.9467 C   0  0  0  0  0  0  0  0  0  0  0  0
    5.4346    1.2164   17.6391 C   0  0  0  0  0  0  0  0  0  0  0  0
    6.5293    0.5242   17.2900 N   0  0  0  0  0  0  0  0  0  0  0  0
    7.1952   -0.1080   18.2645 C   0  0  0  0  0  0  0  0  0  0  0  0
    8.0909   -0.6539   17.9581 H   0  0  0  0  0  0  0  0  0  0  0  0
    4.9392    1.7558   16.8349 H   0  0  0  0  0  0  0  0  0  0  0  0
    4.0589    1.8666   19.1666 H   0  0  0  0  0  0  0  0  0  0  0  0
    5.3385    0.6737   20.9983 H   0  0  0  0  0  0  0  0  0  0  0  0
    8.3825   -1.4153   20.3628 H   0  0  0  0  0  0  0  0  0  0  0  0
    7.0169   -1.1947   21.4513 H   0  0  0  0  0  0  0  0  0  0  0  0
    7.9304    1.1931   22.4248 N   0  0  0  0  0  0  0  0  0  0  0  0
    8.9701    1.9041   22.8300 C   0  0  0  0  0  0  0  0  0  0  0  0
    8.8895    2.9555   23.8884 C   0  0  0  0  0  0  0  0  0  0  0  0
    8.9138    4.3115   23.5852 C   0  0  0  0  0  0  0  0  0  0  0  0
    8.7985    5.2616   24.6424 C   0  0  0  0  0  0  0  0  0  0  0  0
    8.8244    6.6004   24.5571 N   0  0  0  0  0  0  0  0  0  0  0  0
    8.6310    7.0054   25.8184 N   0  0  0  0  0  0  0  0  0  0  0  0
    8.6261    8.4306   26.0837 C   0  0  0  0  0  0  0  0  0  0  0  0
    7.9916    8.9303   25.3483 H   0  0  0  0  0  0  0  0  0  0  0  0
    9.6454    8.8184   26.0319 H   0  0  0  0  0  0  0  0  0  0  0  0
    8.2290    8.6043   27.0846 H   0  0  0  0  0  0  0  0  0  0  0  0
    8.5120    6.0050   26.7131 C   0  0  0  0  0  0  0  0  0  0  0  0
    8.6189    4.8188   25.9887 C   0  0  0  0  0  0  0  0  0  0  0  0
    8.5986    3.4250   26.2899 C   0  0  0  0  0  0  0  0  0  0  0  0
    8.7273    2.5266   25.2549 C   0  0  0  0  0  0  0  0  0  0  0  0
    8.6912    1.4574   25.4565 H   0  0  0  0  0  0  0  0  0  0  0  0
    8.4724    3.0665   27.3092 H   0  0  0  0  0  0  0  0  0  0  0  0
    8.3372    6.1857   27.7669 H   0  0  0  0  0  0  0  0  0  0  0  0
    8.9992    4.7049   22.5792 H   0  0  0  0  0  0  0  0  0  0  0  0
   12.3051    0.7358   23.1135 C   0  0  0  0  0  0  0  0  0  0  0  0
   11.8797    0.6872   24.3883 F   0  0  0  0  0  0  0  0  0  0  0  0
   13.6141    1.0746   23.1351 F   0  0  0  0  0  0  0  0  0  0  0  0
   12.2336   -0.4988   22.6060 F   0  0  0  0  0  0  0  0  0  0  0  0
   11.8959    1.5466   21.2377 H   0  0  0  0  0  0  0  0  0  0  0  0
   12.9018    3.4421   22.3000 H   0  0  0  0  0  0  0  0  0  0  0  0
   11.2221    3.8625   21.9676 H   0  0  0  0  0  0  0  0  0  0  0  0
   11.7229    3.4683   23.6223 H   0  0  0  0  0  0  0  0  0  0  0  0
  1  2  1  0
  2  3  1  0
  3  4  1  0
  4  5  2  0
  5  6  1  0
  6  7  1  0
  7  8  2  0
  8  9  1  0
  9 10  2  0
 10 11  1  0
 11 12  2  0
 12 13  1  0
 10 14  1  0
  9 15  1  0
  8 16  1  0
  6 17  1  0
  6 18  1  0
  5 19  1  0
 19 20  2  0
 20 21  1  0
 21 22  2  0
 22 23  1  0
 23 24  2  0
 24 25  1  0
 25 26  1  0
 26 27  1  0
 26 28  1  0
 26 29  1  0
 25 30  1  0
 30 31  2  0
 31 32  1  0
 32 33  2  0
 33 34  1  0
 32 35  1  0
 30 36  1  0
 22 37  1  0
  2 38  1  0
 38 39  1  0
 38 40  1  0
 38 41  1  0
  2 42  1  0
  1 43  1  0
  1 44  1  0
  1 45  1  0
 20  3  1  0
 33 21  1  0
 12  7  1  0
 31 23  1  0
M  END
>  <cnnaffinity>  (1) 
-6.0503

>  <filename>  (1) 
[H]c1nc([H])c(C([H])([H])c2nc(-c3c([H])c([H])c4c([H])n(C([H])([H])[H])nc4c3[H])n(C([H])(C([H])([H])[H])C(F)(F)F)n2)c([H])c1[H]

$$$$
