
     RDKit          3D

 48 51  0  0  0  0  0  0  0  0999 V2000
    8.2822    0.4880   26.2002 C   0  0  0  0  0  0  0  0  0  0  0  0
    9.5156    1.2057   25.6516 C   0  0  0  0  0  0  0  0  0  0  0  0
    9.1991    2.5963   25.1315 C   0  0  0  0  0  0  0  0  0  0  0  0
    8.9200    3.6463   26.0276 C   0  0  0  0  0  0  0  0  0  0  0  0
    8.8165    4.9339   25.6795 N   0  0  0  0  0  0  0  0  0  0  0  0
    8.9529    5.2191   24.3784 C   0  0  0  0  0  0  0  0  0  0  0  0
    9.1096    4.2443   23.3869 C   0  0  0  0  0  0  0  0  0  0  0  0
    9.1649    2.8872   23.7501 C   0  0  0  0  0  0  0  0  0  0  0  0
    9.0808    1.7617   22.7515 C   0  0  0  0  0  0  0  0  0  0  0  0
    7.9990    1.0097   22.5917 N   0  0  0  0  0  0  0  0  0  0  0  0
    8.3428    0.1829   21.5738 C   0  0  0  0  0  0  0  0  0  0  0  0
    7.3856   -0.7704   20.9176 C   0  0  0  0  0  0  0  0  0  0  0  0
    6.6143   -0.0949   19.7925 C   0  0  0  0  0  0  0  0  0  0  0  0
    5.4288    0.5987   20.0677 C   0  0  0  0  0  0  0  0  0  0  0  0
    4.8012    1.3070   19.0414 C   0  0  0  0  0  0  0  0  0  0  0  0
    5.3946    1.3073   17.7757 C   0  0  0  0  0  0  0  0  0  0  0  0
    6.5351    0.6581   17.4902 N   0  0  0  0  0  0  0  0  0  0  0  0
    7.1205   -0.0185   18.4851 C   0  0  0  0  0  0  0  0  0  0  0  0
    8.0564   -0.5251   18.2396 H   0  0  0  0  0  0  0  0  0  0  0  0
    4.9387    1.8512   16.9512 H   0  0  0  0  0  0  0  0  0  0  0  0
    3.8805    1.8571   19.2098 H   0  0  0  0  0  0  0  0  0  0  0  0
    5.0205    0.5869   21.0801 H   0  0  0  0  0  0  0  0  0  0  0  0
    6.6858   -1.1292   21.6801 H   0  0  0  0  0  0  0  0  0  0  0  0
    7.9591   -1.6252   20.5408 H   0  0  0  0  0  0  0  0  0  0  0  0
    9.5730    0.3448   21.1329 N   0  0  0  0  0  0  0  0  0  0  0  0
   10.0539    1.3615   21.8950 N   0  0  0  0  0  0  0  0  0  0  0  0
   11.4866    1.6912   21.8245 C   0  0  0  0  0  0  0  0  0  0  0  0
   11.7673    3.0288   21.1496 C   0  0  0  0  0  0  0  0  0  0  0  0
   11.3194    3.8407   21.7276 H   0  0  0  0  0  0  0  0  0  0  0  0
   12.8424    3.2190   21.1402 H   0  0  0  0  0  0  0  0  0  0  0  0
   11.3945    3.0516   20.1230 H   0  0  0  0  0  0  0  0  0  0  0  0
   12.1152    1.6968   23.2021 C   0  0  0  0  0  0  0  0  0  0  0  0
   13.5805    1.4311   23.3306 C   0  0  0  0  0  0  0  0  0  0  0  0
   12.5916    0.4356   23.8603 C   0  0  0  0  0  0  0  0  0  0  0  0
   12.4748   -0.4958   23.3102 H   0  0  0  0  0  0  0  0  0  0  0  0
   12.4891    0.3566   24.9398 H   0  0  0  0  0  0  0  0  0  0  0  0
   14.0996    2.0549   24.0338 H   0  0  0  0  0  0  0  0  0  0  0  0
   14.1534    1.1651   22.4451 H   0  0  0  0  0  0  0  0  0  0  0  0
   11.7115    2.4812   23.8421 H   0  0  0  0  0  0  0  0  0  0  0  0
   11.9271    0.8786   21.2301 H   0  0  0  0  0  0  0  0  0  0  0  0
    9.1384    4.5389   22.3450 H   0  0  0  0  0  0  0  0  0  0  0  0
    8.9148    6.2718   24.1154 H   0  0  0  0  0  0  0  0  0  0  0  0
    8.7816    3.4300   27.0854 H   0  0  0  0  0  0  0  0  0  0  0  0
   10.3102    1.2613   26.4095 H   0  0  0  0  0  0  0  0  0  0  0  0
    9.9398    0.6138   24.8305 H   0  0  0  0  0  0  0  0  0  0  0  0
    7.8428    1.0371   27.0432 H   0  0  0  0  0  0  0  0  0  0  0  0
    8.5433   -0.5188   26.5453 H   0  0  0  0  0  0  0  0  0  0  0  0
    7.5274    0.4043   25.4059 H   0  0  0  0  0  0  0  0  0  0  0  0
  1  2  1  0
  2  3  1  0
  3  4  2  0
  4  5  1  0
  5  6  2  0
  6  7  1  0
  7  8  2  0
  8  9  1  0
  9 10  2  0
 10 11  1  0
 11 12  1  0
 12 13  1  0
 13 14  2  0
 14 15  1  0
 15 16  2  0
 16 17  1  0
 17 18  2  0
 18 19  1  0
 16 20  1  0
 15 21  1  0
 14 22  1  0
 12 23  1  0
 12 24  1  0
 11 25  2  0
 25 26  1  0
 26 27  1  0
 27 28  1  0
 28 29  1  0
 28 30  1  0
 28 31  1  0
 27 32  1  0
 32 33  1  0
 33 34  1  0
 34 35  1  0
 34 36  1  0
 33 37  1  0
 33 38  1  0
 32 39  1  0
 27 40  1  0
  7 41  1  0
  6 42  1  0
  4 43  1  0
  2 44  1  0
  2 45  1  0
  1 46  1  0
  1 47  1  0
  1 48  1  0
  8  3  1  0
 26  9  1  0
 34 32  1  0
 18 13  1  0
M  END
>  <cnnaffinity>  (1) 
-6.49012

>  <filename>  (1) 
[H]c1nc([H])c(C([H])([H])c2nc(-c3c([H])c([H])nc([H])c3C([H])([H])C([H])([H])[H])n(C([H])(C([H])([H])[H])C3([H])C([H])([H])C3([H])[H])n2)c([H])c1[H]

$$$$
