
     RDKit          3D

 34 36  0  0  0  0  0  0  0  0999 V2000
    7.0210    1.7756   22.1530 H   0  0  0  0  0  0  0  0  0  0  0  0
    7.3452    0.9888   22.8206 C   0  0  0  0  0  0  0  0  0  0  0  0
    7.5729   -0.2685   22.3283 C   0  0  0  0  0  0  0  0  0  0  0  0
    7.3799   -0.7502   20.9383 C   0  0  0  0  0  0  0  0  0  0  0  0
    6.6502    0.0118   19.9076 C   0  0  0  0  0  0  0  0  0  0  0  0
    7.1681    0.0514   18.6062 C   0  0  0  0  0  0  0  0  0  0  0  0
    8.1117   -0.4377   18.3790 H   0  0  0  0  0  0  0  0  0  0  0  0
    6.5701    0.6762   17.5887 N   0  0  0  0  0  0  0  0  0  0  0  0
    5.4046    1.2916   17.8434 C   0  0  0  0  0  0  0  0  0  0  0  0
    4.9273    1.7809   16.9966 H   0  0  0  0  0  0  0  0  0  0  0  0
    4.8011    1.3100   19.1056 C   0  0  0  0  0  0  0  0  0  0  0  0
    3.8706    1.8443   19.2526 H   0  0  0  0  0  0  0  0  0  0  0  0
    5.4337    0.6605   20.1649 C   0  0  0  0  0  0  0  0  0  0  0  0
    5.0003    0.6467   21.1691 H   0  0  0  0  0  0  0  0  0  0  0  0
    7.8957   -1.9003   20.6988 N   0  0  0  0  0  0  0  0  0  0  0  0
    8.4893   -2.4305   21.9270 C   0  0  0  0  0  0  0  0  0  0  0  0
    8.0561   -3.4111   22.1446 H   0  0  0  0  0  0  0  0  0  0  0  0
    9.5585   -2.5781   21.7516 H   0  0  0  0  0  0  0  0  0  0  0  0
    8.2270   -1.4092   23.0599 C   0  0  0  0  0  0  0  0  0  0  0  0
    7.5685   -1.7985   23.8418 H   0  0  0  0  0  0  0  0  0  0  0  0
    9.1404   -1.0844   23.5677 H   0  0  0  0  0  0  0  0  0  0  0  0
    7.5748    1.4045   24.2135 C   0  0  0  0  0  0  0  0  0  0  0  0
    7.5345    0.4512   25.1629 N   0  0  0  0  0  0  0  0  0  0  0  0
    7.6880    0.7947   26.4381 C   0  0  0  0  0  0  0  0  0  0  0  0
    7.6169   -0.0126   27.1601 H   0  0  0  0  0  0  0  0  0  0  0  0
    7.9389    2.0981   26.8647 C   0  0  0  0  0  0  0  0  0  0  0  0
    8.0731    2.3110   27.9159 H   0  0  0  0  0  0  0  0  0  0  0  0
    8.0314    3.0996   25.9098 C   0  0  0  0  0  0  0  0  0  0  0  0
    8.2314    4.1371   26.1933 H   0  0  0  0  0  0  0  0  0  0  0  0
    7.8569    2.7485   24.5692 C   0  0  0  0  0  0  0  0  0  0  0  0
    7.9573    3.7862   23.4940 C   0  0  0  0  0  0  0  0  0  0  0  0
    8.7907    3.4364   22.4937 F   0  0  0  0  0  0  0  0  0  0  0  0
    8.3967    4.9671   23.9695 F   0  0  0  0  0  0  0  0  0  0  0  0
    6.7552    4.0141   22.9193 F   0  0  0  0  0  0  0  0  0  0  0  0
  1  2  1  0
  2  3  2  3
  3  4  1  0
  4  5  1  0
  5  6  2  0
  6  7  1  0
  6  8  1  0
  8  9  2  0
  9 10  1  0
  9 11  1  0
 11 12  1  0
 11 13  2  0
 13 14  1  0
  4 15  2  0
 15 16  1  0
 16 17  1  0
 16 18  1  0
 16 19  1  0
 19 20  1  0
 19 21  1  0
  2 22  1  0
 22 23  2  0
 23 24  1  0
 24 25  1  0
 24 26  2  0
 26 27  1  0
 26 28  1  0
 28 29  1  0
 28 30  2  0
 30 31  1  0
 31 32  1  0
 31 33  1  0
 31 34  1  0
 19  3  1  0
 30 22  1  0
 13  5  1  0
M  END
>  <cnnaffinity>  (1) 
-5.38648

>  <filename>  (1) 
[H]C(=C1C(c2c([H])nc([H])c([H])c2[H])=NC([H])([H])C1([H])[H])c1nc([H])c([H])c([H])c1C(F)(F)F

$$$$
