
     RDKit          3D

 32 34  0  0  0  0  0  0  0  0999 V2000
   12.1728    2.9013   21.7497 C   0  0  0  0  0  0  0  0  0  0  0  0
   11.2230    2.4481   20.8330 C   0  0  0  0  0  0  0  0  0  0  0  0
    9.9907    2.0010   21.3078 C   0  0  0  0  0  0  0  0  0  0  0  0
    9.7764    2.0663   22.6976 C   0  0  0  0  0  0  0  0  0  0  0  0
    8.5979    1.8177   23.3296 N   0  0  0  0  0  0  0  0  0  0  0  0
    7.4503    1.1716   22.7412 C   0  0  0  0  0  0  0  0  0  0  0  0
    7.7143   -0.2299   22.2400 C   0  0  0  0  0  0  0  0  0  0  0  0
    8.3356   -1.3086   22.8435 C   0  0  0  0  0  0  0  0  0  0  0  0
    8.3693   -2.3015   21.8470 C   0  0  0  0  0  0  0  0  0  0  0  0
    7.8192   -1.8929   20.7205 N   0  0  0  0  0  0  0  0  0  0  0  0
    7.3925   -0.6409   20.9705 N   0  0  0  0  0  0  0  0  0  0  0  0
    6.6680    0.0308   19.9522 C   0  0  0  0  0  0  0  0  0  0  0  0
    5.4383    0.6663   20.1750 C   0  0  0  0  0  0  0  0  0  0  0  0
    4.8240    1.3034   19.0908 C   0  0  0  0  0  0  0  0  0  0  0  0
    5.4539    1.2799   17.8417 C   0  0  0  0  0  0  0  0  0  0  0  0
    6.6079    0.6279   17.6147 N   0  0  0  0  0  0  0  0  0  0  0  0
    7.1824    0.0064   18.6465 C   0  0  0  0  0  0  0  0  0  0  0  0
    8.0891   -0.5507   18.4340 H   0  0  0  0  0  0  0  0  0  0  0  0
    5.0128    1.7891   16.9875 H   0  0  0  0  0  0  0  0  0  0  0  0
    3.8791    1.8273   19.2074 H   0  0  0  0  0  0  0  0  0  0  0  0
    4.9686    0.6487   21.1613 H   0  0  0  0  0  0  0  0  0  0  0  0
    8.7626   -3.3056   21.8995 H   0  0  0  0  0  0  0  0  0  0  0  0
    8.7349   -1.3764   23.8450 H   0  0  0  0  0  0  0  0  0  0  0  0
    7.0752    1.8003   21.9193 H   0  0  0  0  0  0  0  0  0  0  0  0
    6.6552    1.1461   23.5032 H   0  0  0  0  0  0  0  0  0  0  0  0
    8.8494    1.6852   24.2964 H   0  0  0  0  0  0  0  0  0  0  0  0
   10.7161    2.3992   23.5944 N   0  0  0  0  0  0  0  0  0  0  0  0
   11.8823    2.8209   23.1091 C   0  0  0  0  0  0  0  0  0  0  0  0
   12.6322    3.1216   23.8388 H   0  0  0  0  0  0  0  0  0  0  0  0
    9.2191    1.5981   20.6642 H   0  0  0  0  0  0  0  0  0  0  0  0
   11.4557    2.4825   19.7742 H   0  0  0  0  0  0  0  0  0  0  0  0
   13.1059    3.3310   21.4237 H   0  0  0  0  0  0  0  0  0  0  0  0
  1  2  2  0
  2  3  1  0
  3  4  2  0
  4  5  1  0
  5  6  1  0
  6  7  1  0
  7  8  2  0
  8  9  1  0
  9 10  2  0
 10 11  1  0
 11 12  1  0
 12 13  2  0
 13 14  1  0
 14 15  2  0
 15 16  1  0
 16 17  2  0
 17 18  1  0
 15 19  1  0
 14 20  1  0
 13 21  1  0
  9 22  1  0
  8 23  1  0
  6 24  1  0
  6 25  1  0
  5 26  1  0
  4 27  1  0
 27 28  2  0
 28 29  1  0
  3 30  1  0
  2 31  1  0
  1 32  1  0
 28  1  1  0
 11  7  1  0
 17 12  1  0
M  END
>  <cnnaffinity>  (1) 
-5.19192

>  <filename>  (1) 
[H]c1nc(N([H])C([H])([H])c2c([H])c([H])nn2-c2c([H])nc([H])c([H])c2[H])c([H])c([H])c1[H]

$$$$
