
     RDKit          3D

 34 36  0  0  0  0  0  0  0  0999 V2000
    4.9693    1.8184   16.9597 H   0  0  0  0  0  0  0  0  0  0  0  0
    5.4204    1.3022   17.8074 C   0  0  0  0  0  0  0  0  0  0  0  0
    6.5738    0.6589   17.5652 N   0  0  0  0  0  0  0  0  0  0  0  0
    7.1567    0.0384   18.6017 C   0  0  0  0  0  0  0  0  0  0  0  0
    8.0831   -0.4853   18.3770 H   0  0  0  0  0  0  0  0  0  0  0  0
    6.6472    0.0012   19.9155 C   0  0  0  0  0  0  0  0  0  0  0  0
    7.3576   -0.7181   21.0174 C   0  0  0  0  0  0  0  0  0  0  0  0
    8.7777   -0.6305   21.1986 C   0  0  0  0  0  0  0  0  0  0  0  0
    9.3685   -0.0234   20.5154 H   0  0  0  0  0  0  0  0  0  0  0  0
    9.3802   -1.2729   22.2422 C   0  0  0  0  0  0  0  0  0  0  0  0
   10.4422   -1.2678   22.4228 H   0  0  0  0  0  0  0  0  0  0  0  0
    8.6270   -2.0255   23.2146 C   0  0  0  0  0  0  0  0  0  0  0  0
    9.1238   -2.5518   24.2051 O   0  0  0  0  0  0  0  0  0  0  0  0
    7.2467   -2.1397   22.9613 N   0  0  0  0  0  0  0  0  0  0  0  0
    6.4879   -3.0572   23.7318 C   0  0  0  0  0  0  0  0  0  0  0  0
    5.6753   -3.7893   23.2093 O   0  0  0  0  0  0  0  0  0  0  0  0
    6.7114   -2.9363   25.0669 N   0  0  0  0  0  0  0  0  0  0  0  0
    7.6657   -2.6942   25.2867 H   0  0  0  0  0  0  0  0  0  0  0  0
    5.9762   -3.5987   26.0234 C   0  0  0  0  0  0  0  0  0  0  0  0
    6.5959   -3.9676   27.2127 C   0  0  0  0  0  0  0  0  0  0  0  0
    7.6414   -3.7428   27.3889 H   0  0  0  0  0  0  0  0  0  0  0  0
    5.8260   -4.6423   28.1577 C   0  0  0  0  0  0  0  0  0  0  0  0
    6.2782   -4.9679   29.0928 H   0  0  0  0  0  0  0  0  0  0  0  0
    4.5285   -4.9327   27.9960 N   0  0  0  0  0  0  0  0  0  0  0  0
    3.9575   -4.5436   26.8466 C   0  0  0  0  0  0  0  0  0  0  0  0
    2.9039   -4.7862   26.7262 H   0  0  0  0  0  0  0  0  0  0  0  0
    4.6263   -3.8800   25.8269 C   0  0  0  0  0  0  0  0  0  0  0  0
    4.1330   -3.5992   24.9106 H   0  0  0  0  0  0  0  0  0  0  0  0
    6.6523   -1.5096   21.8771 C   0  0  0  0  0  0  0  0  0  0  0  0
    5.5940   -1.6928   21.7266 H   0  0  0  0  0  0  0  0  0  0  0  0
    5.4211    0.6570   20.1302 C   0  0  0  0  0  0  0  0  0  0  0  0
    4.9653    0.6600   21.1225 H   0  0  0  0  0  0  0  0  0  0  0  0
    4.8066    1.3226   19.0654 C   0  0  0  0  0  0  0  0  0  0  0  0
    3.8714    1.8577   19.1934 H   0  0  0  0  0  0  0  0  0  0  0  0
  1  2  1  0
  2  3  2  0
  3  4  1  0
  4  5  1  0
  4  6  2  0
  6  7  1  0
  7  8  1  0
  8  9  1  0
  8 10  2  0
 10 11  1  0
 10 12  1  0
 12 13  2  0
 12 14  1  0
 14 15  1  0
 15 16  2  0
 15 17  1  0
 17 18  1  0
 17 19  1  0
 19 20  2  0
 20 21  1  0
 20 22  1  0
 22 23  1  0
 22 24  2  0
 24 25  1  0
 25 26  1  0
 25 27  2  0
 27 28  1  0
 14 29  1  0
 29 30  1  0
  6 31  1  0
 31 32  1  0
 31 33  2  0
 33 34  1  0
 33  2  1  0
 29  7  2  0
 27 19  1  0
M  END
>  <cnnaffinity>  (1) 
-5.22186

>  <filename>  (1) 
[H]c1nc([H])c(-c2c([H])c([H])c(=O)n(C(=O)N([H])c3c([H])c([H])nc([H])c3[H])c2[H])c([H])c1[H]

$$$$
