
     RDKit          3D

 28 29  0  0  0  0  0  0  0  0999 V2000
    5.0294    1.7552   16.9198 H   0  0  0  0  0  0  0  0  0  0  0  0
    5.4565    1.2943   17.8065 C   0  0  0  0  0  0  0  0  0  0  0  0
    6.6312    0.6495   17.6963 N   0  0  0  0  0  0  0  0  0  0  0  0
    7.1497    0.0921   18.8068 C   0  0  0  0  0  0  0  0  0  0  0  0
    8.0971   -0.4324   18.7266 H   0  0  0  0  0  0  0  0  0  0  0  0
    6.5261    0.1524   20.0663 C   0  0  0  0  0  0  0  0  0  0  0  0
    7.1874   -0.4795   21.2701 C   0  0  2  0  0  0  0  0  0  0  0  0
    6.6089   -0.2765   22.1796 H   0  0  0  0  0  0  0  0  0  0  0  0
    9.0215    0.2816   21.4505 Br  0  0  0  0  0  0  0  0  0  0  0  0
    7.2796   -1.9881   21.0530 C   0  0  0  0  0  0  0  0  0  0  0  0
    6.2964   -2.3907   20.7655 H   0  0  0  0  0  0  0  0  0  0  0  0
    7.9899   -2.1447   20.2442 H   0  0  0  0  0  0  0  0  0  0  0  0
    7.7677   -2.7356   22.2715 C   0  0  0  0  0  0  0  0  0  0  0  0
    9.1400   -2.7551   22.5690 C   0  0  0  0  0  0  0  0  0  0  0  0
    9.8274   -2.2230   21.9164 H   0  0  0  0  0  0  0  0  0  0  0  0
    9.6260   -3.4796   23.6708 C   0  0  0  0  0  0  0  0  0  0  0  0
   10.6957   -3.5123   23.8849 H   0  0  0  0  0  0  0  0  0  0  0  0
    8.7260   -4.1678   24.4970 C   0  0  0  0  0  0  0  0  0  0  0  0
    9.0950   -4.7026   25.3729 H   0  0  0  0  0  0  0  0  0  0  0  0
    7.3582   -4.1964   24.1790 C   0  0  0  0  0  0  0  0  0  0  0  0
    6.6803   -4.8145   24.7677 H   0  0  0  0  0  0  0  0  0  0  0  0
    6.8743   -3.4803   23.0661 C   0  0  0  0  0  0  0  0  0  0  0  0
    5.4898   -3.5646   22.7059 C   0  0  0  0  0  0  0  0  0  0  0  0
    4.3773   -3.6514   22.3684 N   0  0  0  0  0  0  0  0  0  0  0  0
    5.2976    0.8108   20.1736 C   0  0  0  0  0  0  0  0  0  0  0  0
    4.7735    0.8832   21.1267 H   0  0  0  0  0  0  0  0  0  0  0  0
    4.7610    1.3848   19.0185 C   0  0  0  0  0  0  0  0  0  0  0  0
    3.8147    1.9148   19.0408 H   0  0  0  0  0  0  0  0  0  0  0  0
  1  2  1  0
  2  3  2  0
  3  4  1  0
  4  5  1  0
  4  6  2  0
  6  7  1  0
  7  8  1  1
  7  9  1  0
  7 10  1  0
 10 11  1  0
 10 12  1  0
 10 13  1  0
 13 14  2  0
 14 15  1  0
 14 16  1  0
 16 17  1  0
 16 18  2  0
 18 19  1  0
 18 20  1  0
 20 21  1  0
 20 22  2  0
 22 23  1  0
 23 24  3  0
  6 25  1  0
 25 26  1  0
 25 27  2  0
 27 28  1  0
 27  2  1  0
 22 13  1  0
M  END
>  <cnnaffinity>  (1) 
-5.0151

>  <filename>  (1) 
[H]c1nc([H])c([C@]([H])(Br)C([H])([H])c2c([H])c([H])c([H])c([H])c2C#N)c([H])c1[H]

$$$$
