
     RDKit          3D

 44 46  0  0  0  0  0  0  0  0999 V2000
    5.9886   -2.7353   20.3385 O   0  0  0  0  0  0  0  0  0  0  0  0
    6.8331   -2.2743   21.0916 C   0  0  0  0  0  0  0  0  0  0  0  0
    7.3450   -0.8249   20.9613 C   0  0  0  0  0  0  0  0  0  0  0  0
    6.6860    0.0120   19.8774 C   0  0  0  0  0  0  0  0  0  0  0  0
    5.4660    0.6594   20.1266 C   0  0  0  0  0  0  0  0  0  0  0  0
    4.8191    1.3192   19.0794 C   0  0  0  0  0  0  0  0  0  0  0  0
    5.4156    1.3241   17.8169 C   0  0  0  0  0  0  0  0  0  0  0  0
    6.5849    0.7206   17.5503 N   0  0  0  0  0  0  0  0  0  0  0  0
    7.1927    0.0917   18.5656 C   0  0  0  0  0  0  0  0  0  0  0  0
    8.1376   -0.3962   18.3164 H   0  0  0  0  0  0  0  0  0  0  0  0
    4.9365    1.8272   16.9804 H   0  0  0  0  0  0  0  0  0  0  0  0
    3.8747    1.8282   19.2262 H   0  0  0  0  0  0  0  0  0  0  0  0
    5.0349    0.6459   21.1280 H   0  0  0  0  0  0  0  0  0  0  0  0
    7.1753   -0.3826   21.9506 H   0  0  0  0  0  0  0  0  0  0  0  0
    8.4309   -0.8873   20.8172 H   0  0  0  0  0  0  0  0  0  0  0  0
    7.3760   -3.0400   22.1161 N   0  0  0  0  0  0  0  0  0  0  0  0
    8.5261   -2.6345   22.9355 C   0  0  0  0  0  0  0  0  0  0  0  0
    8.2091   -1.6170   24.0264 C   0  0  0  0  0  0  0  0  0  0  0  0
    7.1536   -1.8663   24.9213 C   0  0  0  0  0  0  0  0  0  0  0  0
    6.8037   -0.9592   25.9204 C   0  0  0  0  0  0  0  0  0  0  0  0
    7.5133    0.2340   26.0576 C   0  0  0  0  0  0  0  0  0  0  0  0
    8.5793    0.5071   25.2015 C   0  0  0  0  0  0  0  0  0  0  0  0
    8.9247   -0.4175   24.2103 C   0  0  0  0  0  0  0  0  0  0  0  0
   10.2657    0.0243   23.1734 Cl  0  0  0  0  0  0  0  0  0  0  0  0
    9.1418    1.4315   25.2798 H   0  0  0  0  0  0  0  0  0  0  0  0
    7.2390    0.9514   26.8250 H   0  0  0  0  0  0  0  0  0  0  0  0
    5.9727   -1.1827   26.5828 H   0  0  0  0  0  0  0  0  0  0  0  0
    6.5836   -2.7857   24.8211 H   0  0  0  0  0  0  0  0  0  0  0  0
    9.3434   -2.2637   22.3119 H   0  0  0  0  0  0  0  0  0  0  0  0
    8.9326   -3.5365   23.4129 H   0  0  0  0  0  0  0  0  0  0  0  0
    6.7245   -4.3449   22.3881 C   0  0  0  0  0  0  0  0  0  0  0  0
    5.1992   -4.2591   22.6746 C   0  0  0  0  0  0  0  0  0  0  0  0
    4.6004   -5.5135   22.0212 C   0  0  0  0  0  0  0  0  0  0  0  0
    5.4629   -5.7364   20.7738 C   0  0  0  0  0  0  0  0  0  0  0  0
    6.8848   -5.3670   21.2272 C   0  0  0  0  0  0  0  0  0  0  0  0
    7.4630   -4.9365   20.4095 H   0  0  0  0  0  0  0  0  0  0  0  0
    7.4322   -6.2470   21.5887 H   0  0  0  0  0  0  0  0  0  0  0  0
    5.1775   -5.0531   19.9682 H   0  0  0  0  0  0  0  0  0  0  0  0
    5.3910   -6.7585   20.3917 H   0  0  0  0  0  0  0  0  0  0  0  0
    3.5349   -5.3981   21.8015 H   0  0  0  0  0  0  0  0  0  0  0  0
    4.6891   -6.3765   22.6942 H   0  0  0  0  0  0  0  0  0  0  0  0
    4.7884   -3.3701   22.1913 H   0  0  0  0  0  0  0  0  0  0  0  0
    4.9779   -4.1890   23.7482 H   0  0  0  0  0  0  0  0  0  0  0  0
    7.2134   -4.7548   23.2801 H   0  0  0  0  0  0  0  0  0  0  0  0
  1  2  2  0
  2  3  1  0
  3  4  1  0
  4  5  2  0
  5  6  1  0
  6  7  2  0
  7  8  1  0
  8  9  2  0
  9 10  1  0
  7 11  1  0
  6 12  1  0
  5 13  1  0
  3 14  1  0
  3 15  1  0
  2 16  1  0
 16 17  1  0
 17 18  1  0
 18 19  2  0
 19 20  1  0
 20 21  2  0
 21 22  1  0
 22 23  2  0
 23 24  1  0
 22 25  1  0
 21 26  1  0
 20 27  1  0
 19 28  1  0
 17 29  1  0
 17 30  1  0
 16 31  1  0
 31 32  1  0
 32 33  1  0
 33 34  1  0
 34 35  1  0
 35 36  1  0
 35 37  1  0
 34 38  1  0
 34 39  1  0
 33 40  1  0
 33 41  1  0
 32 42  1  0
 32 43  1  0
 31 44  1  0
  9  4  1  0
 23 18  1  0
 35 31  1  0
M  END
>  <cnnaffinity>  (1) 
-5.55576

>  <filename>  (1) 
[H]c1nc([H])c(C([H])([H])C(=O)N(C([H])([H])c2c([H])c([H])c([H])c([H])c2Cl)C2([H])C([H])([H])C([H])([H])C([H])([H])C2([H])[H])c([H])c1[H]

$$$$
