
     RDKit          3D

 31 32  0  0  0  0  0  0  0  0999 V2000
    4.9284    1.7942   16.9839 H   0  0  0  0  0  0  0  0  0  0  0  0
    5.3974    1.2920   17.8280 C   0  0  0  0  0  0  0  0  0  0  0  0
    6.5603    0.6705   17.5722 N   0  0  0  0  0  0  0  0  0  0  0  0
    7.1579    0.0374   18.5852 C   0  0  0  0  0  0  0  0  0  0  0  0
    8.1188   -0.4284   18.3609 H   0  0  0  0  0  0  0  0  0  0  0  0
    6.6432    0.0066   19.8966 C   0  0  0  0  0  0  0  0  0  0  0  0
    7.3736   -0.6508   20.9840 C   0  0  0  0  0  0  0  0  0  0  0  0
    7.6837   -0.0554   22.1917 C   0  0  0  0  0  0  0  0  0  0  0  0
    7.4128    1.3107   22.4662 N   0  0  0  0  0  0  0  0  0  0  0  0
    7.4709    1.9606   21.6964 H   0  0  0  0  0  0  0  0  0  0  0  0
    6.8786    1.7790   23.6442 C   0  0  0  0  0  0  0  0  0  0  0  0
    6.5362    1.0468   24.5529 O   0  0  0  0  0  0  0  0  0  0  0  0
    6.8024    3.2964   23.7728 C   0  0  0  0  0  0  0  0  0  0  0  0
    6.4230    3.7722   22.8543 H   0  0  0  0  0  0  0  0  0  0  0  0
    6.0619    3.4713   24.5604 H   0  0  0  0  0  0  0  0  0  0  0  0
    8.1588    3.9093   24.1832 C   0  0  0  0  0  0  0  0  0  0  0  0
    8.0746    4.9905   24.3401 H   0  0  0  0  0  0  0  0  0  0  0  0
    8.5266    3.4710   25.1191 H   0  0  0  0  0  0  0  0  0  0  0  0
    8.9236    3.7409   23.4157 H   0  0  0  0  0  0  0  0  0  0  0  0
    8.3575   -0.8404   23.1803 C   0  0  0  0  0  0  0  0  0  0  0  0
    8.5757   -0.3361   24.1233 H   0  0  0  0  0  0  0  0  0  0  0  0
    8.6880   -2.1447   22.9462 C   0  0  0  0  0  0  0  0  0  0  0  0
    9.1833   -2.7746   23.6720 H   0  0  0  0  0  0  0  0  0  0  0  0
    8.3392   -2.7949   21.6894 C   0  0  0  0  0  0  0  0  0  0  0  0
    8.5021   -3.9616   21.3778 O   0  0  0  0  0  0  0  0  0  0  0  0
    7.7555   -1.9476   20.7707 N   0  0  0  0  0  0  0  0  0  0  0  0
    7.5103   -2.4616   19.9394 H   0  0  0  0  0  0  0  0  0  0  0  0
    5.4268    0.6564   20.1483 C   0  0  0  0  0  0  0  0  0  0  0  0
    5.0133    0.6437   21.1581 H   0  0  0  0  0  0  0  0  0  0  0  0
    4.7969    1.3086   19.0913 C   0  0  0  0  0  0  0  0  0  0  0  0
    3.8694    1.8451   19.2400 H   0  0  0  0  0  0  0  0  0  0  0  0
  1  2  1  0
  2  3  2  0
  3  4  1  0
  4  5  1  0
  4  6  2  0
  6  7  1  0
  7  8  2  0
  8  9  1  0
  9 10  1  0
  9 11  1  0
 11 12  2  0
 11 13  1  0
 13 14  1  0
 13 15  1  0
 13 16  1  0
 16 17  1  0
 16 18  1  0
 16 19  1  0
  8 20  1  0
 20 21  1  0
 20 22  2  0
 22 23  1  0
 22 24  1  0
 24 25  2  0
 24 26  1  0
 26 27  1  0
  6 28  1  0
 28 29  1  0
 28 30  2  0
 30 31  1  0
 30  2  1  0
 26  7  1  0
M  END
>  <cnnaffinity>  (1) 
-4.93992

>  <filename>  (1) 
[H]c1nc([H])c(-c2c(N([H])C(=O)C([H])([H])C([H])([H])[H])c([H])c([H])c(=O)n2[H])c([H])c1[H]

$$$$
