
     RDKit          3D

 30 32  0  0  0  0  0  0  0  0999 V2000
    7.8922   -0.0891   28.3896 H   0  0  0  0  0  0  0  0  0  0  0  0
    7.3661   -0.4874   27.5269 C   0  0  0  0  0  0  0  0  0  0  0  0
    8.1480   -0.8307   26.5002 N   0  0  0  0  0  0  0  0  0  0  0  0
    7.5478   -1.2665   25.3959 C   0  0  0  0  0  0  0  0  0  0  0  0
    8.4867   -1.4824   24.3879 N   0  0  0  0  0  0  0  0  0  0  0  0
    9.3054   -1.0164   24.7895 H   0  0  0  0  0  0  0  0  0  0  0  0
    8.2094   -1.0848   23.0709 N   0  0  0  0  0  0  0  0  0  0  0  0
    7.2920   -0.2074   22.4232 C   0  0  0  0  0  0  0  0  0  0  0  0
    6.5811    0.6126   22.9803 O   0  0  0  0  0  0  0  0  0  0  0  0
    7.4650   -0.5627   20.9907 C   0  0  0  0  0  0  0  0  0  0  0  0
    6.7305    0.0565   19.8694 C   0  0  0  0  0  0  0  0  0  0  0  0
    7.2078    0.0530   18.5346 C   0  0  0  0  0  0  0  0  0  0  0  0
    8.1502   -0.4387   18.2890 H   0  0  0  0  0  0  0  0  0  0  0  0
    6.5835    0.6463   17.5098 N   0  0  0  0  0  0  0  0  0  0  0  0
    5.4215    1.2683   17.7775 C   0  0  0  0  0  0  0  0  0  0  0  0
    4.9385    1.7497   16.9300 H   0  0  0  0  0  0  0  0  0  0  0  0
    4.8432    1.3196   19.0507 C   0  0  0  0  0  0  0  0  0  0  0  0
    3.8995    1.8418   19.1925 H   0  0  0  0  0  0  0  0  0  0  0  0
    5.5114    0.7153   20.1152 C   0  0  0  0  0  0  0  0  0  0  0  0
    5.1269    0.7600   21.1339 H   0  0  0  0  0  0  0  0  0  0  0  0
    8.4026   -1.5454   20.9368 C   0  0  0  0  0  0  0  0  0  0  0  0
    8.8032   -2.0412   20.0668 H   0  0  0  0  0  0  0  0  0  0  0  0
    8.9248   -1.8280   22.1636 N   0  0  0  0  0  0  0  0  0  0  0  0
    9.1430   -2.7510   22.5246 H   0  0  0  0  0  0  0  0  0  0  0  0
    6.1693   -1.4772   25.2703 C   0  0  0  0  0  0  0  0  0  0  0  0
    5.7971   -1.8829   24.3409 H   0  0  0  0  0  0  0  0  0  0  0  0
    5.3676   -1.0953   26.3442 C   0  0  0  0  0  0  0  0  0  0  0  0
    4.2849   -1.1771   26.2703 H   0  0  0  0  0  0  0  0  0  0  0  0
    5.9758   -0.5846   27.4976 C   0  0  0  0  0  0  0  0  0  0  0  0
    5.4064   -0.2412   28.3526 H   0  0  0  0  0  0  0  0  0  0  0  0
  1  2  1  0
  2  3  2  0
  3  4  1  0
  4  5  1  0
  5  6  1  0
  5  7  1  0
  7  8  1  0
  8  9  2  0
  8 10  1  0
 10 11  1  0
 11 12  2  0
 12 13  1  0
 12 14  1  0
 14 15  2  0
 15 16  1  0
 15 17  1  0
 17 18  1  0
 17 19  2  0
 19 20  1  0
 10 21  2  0
 21 22  1  0
 21 23  1  0
 23 24  1  0
  4 25  2  0
 25 26  1  0
 25 27  1  0
 27 28  1  0
 27 29  2  0
 29 30  1  0
 29  2  1  0
 23  7  1  0
 19 11  1  0
M  END
>  <cnnaffinity>  (1) 
-4.64974

>  <filename>  (1) 
[H]c1nc(N([H])n2c(=O)c(-c3c([H])nc([H])c([H])c3[H])c([H])n2[H])c([H])c([H])c1[H]

$$$$
