
     RDKit          3D

 40 41  0  0  0  0  0  0  0  0999 V2000
    5.0486    1.7949   16.9651 H   0  0  0  0  0  0  0  0  0  0  0  0
    5.4674    1.2889   17.8303 C   0  0  0  0  0  0  0  0  0  0  0  0
    6.5996    0.5975   17.6189 N   0  0  0  0  0  0  0  0  0  0  0  0
    7.1252   -0.0553   18.6591 C   0  0  0  0  0  0  0  0  0  0  0  0
    8.0143   -0.6450   18.4392 H   0  0  0  0  0  0  0  0  0  0  0  0
    6.5974   -0.0084   19.9563 C   0  0  0  0  0  0  0  0  0  0  0  0
    7.3227   -0.7373   21.0262 C   0  0  0  0  0  0  0  0  0  0  0  0
    7.5028   -2.0458   20.7735 N   0  0  0  0  0  0  0  0  0  0  0  0
    8.0999   -2.7892   21.7076 C   0  0  0  0  0  0  0  0  0  0  0  0
    8.2274   -3.8388   21.4596 H   0  0  0  0  0  0  0  0  0  0  0  0
    8.5776   -2.2799   22.9170 C   0  0  0  0  0  0  0  0  0  0  0  0
    9.0848   -2.9300   23.6199 H   0  0  0  0  0  0  0  0  0  0  0  0
    8.4490   -0.9085   23.1501 C   0  0  0  0  0  0  0  0  0  0  0  0
    8.8779   -0.4428   24.0374 H   0  0  0  0  0  0  0  0  0  0  0  0
    7.8397   -0.0945   22.1838 C   0  0  0  0  0  0  0  0  0  0  0  0
    7.9800    1.4158   22.3340 C   0  0  0  0  0  0  0  0  0  0  0  0
    7.1172    1.9243   21.8971 H   0  0  0  0  0  0  0  0  0  0  0  0
    7.9994    1.6849   23.3974 H   0  0  0  0  0  0  0  0  0  0  0  0
    9.2508    1.9642   21.6462 C   0  0  0  0  0  0  0  0  0  0  0  0
    9.2381    1.5677   20.6219 H   0  0  0  0  0  0  0  0  0  0  0  0
    9.1647    3.0601   21.5475 H   0  0  0  0  0  0  0  0  0  0  0  0
   10.4976    1.6060   22.3204 N   0  0  0  0  0  0  0  0  0  0  0  0
   11.5374    0.9840   21.5078 C   0  0  0  0  0  0  0  0  0  0  0  0
   11.7086    1.5208   20.5515 H   0  0  0  0  0  0  0  0  0  0  0  0
   12.4909    1.0515   22.0467 H   0  0  0  0  0  0  0  0  0  0  0  0
   11.2251   -0.4890   21.2916 C   0  0  0  0  0  0  0  0  0  0  0  0
   11.9943   -0.9867   20.6932 H   0  0  0  0  0  0  0  0  0  0  0  0
   10.2636   -0.6147   20.7906 H   0  0  0  0  0  0  0  0  0  0  0  0
   11.1426   -0.9817   22.2677 H   0  0  0  0  0  0  0  0  0  0  0  0
   10.9811    2.5576   23.3104 C   0  0  0  0  0  0  0  0  0  0  0  0
   10.1310    2.8612   23.9353 H   0  0  0  0  0  0  0  0  0  0  0  0
   11.6707    2.0194   23.9725 H   0  0  0  0  0  0  0  0  0  0  0  0
   11.7216    3.7813   22.7602 C   0  0  0  0  0  0  0  0  0  0  0  0
   12.4187    3.4732   21.9739 H   0  0  0  0  0  0  0  0  0  0  0  0
   11.0454    4.5234   22.3290 H   0  0  0  0  0  0  0  0  0  0  0  0
   12.3060    4.2697   23.5447 H   0  0  0  0  0  0  0  0  0  0  0  0
    5.4038    0.6962   20.1631 C   0  0  0  0  0  0  0  0  0  0  0  0
    4.9273    0.7235   21.1454 H   0  0  0  0  0  0  0  0  0  0  0  0
    4.8241    1.3499   19.0720 C   0  0  0  0  0  0  0  0  0  0  0  0
    3.8998    1.9070   19.1699 H   0  0  0  0  0  0  0  0  0  0  0  0
  1  2  1  0
  2  3  2  0
  3  4  1  0
  4  5  1  0
  4  6  2  0
  6  7  1  0
  7  8  2  0
  8  9  1  0
  9 10  1  0
  9 11  2  0
 11 12  1  0
 11 13  1  0
 13 14  1  0
 13 15  2  0
 15 16  1  0
 16 17  1  0
 16 18  1  0
 16 19  1  0
 19 20  1  0
 19 21  1  0
 19 22  1  0
 22 23  1  0
 23 24  1  0
 23 25  1  0
 23 26  1  0
 26 27  1  0
 26 28  1  0
 26 29  1  0
 22 30  1  0
 30 31  1  0
 30 32  1  0
 30 33  1  0
 33 34  1  0
 33 35  1  0
 33 36  1  0
  6 37  1  0
 37 38  1  0
 37 39  2  0
 39 40  1  0
 39  2  1  0
 15  7  1  0
M  END
>  <cnnaffinity>  (1) 
-4.94734

>  <filename>  (1) 
[H]c1nc([H])c(-c2nc([H])c([H])c([H])c2C([H])([H])C([H])([H])N(C([H])([H])C([H])([H])[H])C([H])([H])C([H])([H])[H])c([H])c1[H]

$$$$
