
     RDKit          3D

 35 36  0  0  0  0  0  0  0  0999 V2000
    5.0038    1.7610   16.9291 H   0  0  0  0  0  0  0  0  0  0  0  0
    5.4436    1.2771   17.8010 C   0  0  0  0  0  0  0  0  0  0  0  0
    6.5834    0.5995   17.5946 N   0  0  0  0  0  0  0  0  0  0  0  0
    7.1494    0.0123   18.6550 C   0  0  0  0  0  0  0  0  0  0  0  0
    8.0777   -0.5218   18.4486 H   0  0  0  0  0  0  0  0  0  0  0  0
    6.6239    0.0630   19.9570 C   0  0  0  0  0  0  0  0  0  0  0  0
    7.3203   -0.6305   21.0780 C   0  0  0  0  0  0  0  0  0  0  0  0
    7.6769   -0.0970   22.1959 N   0  0  0  0  0  0  0  0  0  0  0  0
    7.3102    1.2424   22.5161 N   0  0  0  0  0  0  0  0  0  0  0  0
    7.6763    1.9777   21.9180 H   0  0  0  0  0  0  0  0  0  0  0  0
    7.7440    1.9921   23.9782 S   0  0  0  0  0  0  0  0  0  0  0  0
    6.9672    1.4448   25.0659 O   0  0  0  0  0  0  0  0  0  0  0  0
    7.6591    3.3840   23.5677 O   0  0  0  0  0  0  0  0  0  0  0  0
    9.4767    1.6096   24.1894 C   0  0  0  0  0  0  0  0  0  0  0  0
   10.4227    2.5056   23.6758 C   0  0  0  0  0  0  0  0  0  0  0  0
   10.1160    3.4584   23.2498 H   0  0  0  0  0  0  0  0  0  0  0  0
   11.7734    2.1679   23.6971 C   0  0  0  0  0  0  0  0  0  0  0  0
   12.4968    2.8810   23.3117 H   0  0  0  0  0  0  0  0  0  0  0  0
   12.2102    0.9396   24.2100 C   0  0  0  0  0  0  0  0  0  0  0  0
   13.6573    0.5213   24.1191 C   0  0  0  0  0  0  0  0  0  0  0  0
   13.7590   -0.3536   23.4641 H   0  0  0  0  0  0  0  0  0  0  0  0
   14.2833    1.3099   23.6856 H   0  0  0  0  0  0  0  0  0  0  0  0
   14.0528    0.2585   25.1097 H   0  0  0  0  0  0  0  0  0  0  0  0
   11.2487    0.0922   24.7888 C   0  0  0  0  0  0  0  0  0  0  0  0
   11.5637   -0.8259   25.2643 H   0  0  0  0  0  0  0  0  0  0  0  0
    9.8901    0.4060   24.7763 C   0  0  0  0  0  0  0  0  0  0  0  0
    9.1719   -0.2912   25.2000 H   0  0  0  0  0  0  0  0  0  0  0  0
    7.6980   -2.0777   20.8726 C   0  0  0  0  0  0  0  0  0  0  0  0
    7.0146   -2.5572   20.1716 H   0  0  0  0  0  0  0  0  0  0  0  0
    8.7121   -2.1419   20.4673 H   0  0  0  0  0  0  0  0  0  0  0  0
    7.6938   -2.6549   21.8010 H   0  0  0  0  0  0  0  0  0  0  0  0
    5.4247    0.7684   20.1541 C   0  0  0  0  0  0  0  0  0  0  0  0
    4.9784    0.8369   21.1482 H   0  0  0  0  0  0  0  0  0  0  0  0
    4.8184    1.3672   19.0503 C   0  0  0  0  0  0  0  0  0  0  0  0
    3.8934    1.9260   19.1513 H   0  0  0  0  0  0  0  0  0  0  0  0
  1  2  1  0
  2  3  2  0
  3  4  1  0
  4  5  1  0
  4  6  2  0
  6  7  1  0
  7  8  2  3
  8  9  1  0
  9 10  1  0
  9 11  1  0
 11 12  2  0
 11 13  2  0
 11 14  1  0
 14 15  2  0
 15 16  1  0
 15 17  1  0
 17 18  1  0
 17 19  2  0
 19 20  1  0
 20 21  1  0
 20 22  1  0
 20 23  1  0
 19 24  1  0
 24 25  1  0
 24 26  2  0
 26 27  1  0
  7 28  1  0
 28 29  1  0
 28 30  1  0
 28 31  1  0
  6 32  1  0
 32 33  1  0
 32 34  2  0
 34 35  1  0
 34  2  1  0
 26 14  1  0
M  END
>  <cnnaffinity>  (1) 
-4.88511

>  <filename>  (1) 
[H]c1nc([H])c(C(=NN([H])S(=O)(=O)c2c([H])c([H])c(C([H])([H])[H])c([H])c2[H])C([H])([H])[H])c([H])c1[H]

$$$$
