
     RDKit          3D

 37 38  0  0  0  0  0  0  0  0999 V2000
    7.6665   -2.1271   20.8102 C   0  0  0  0  0  0  0  0  0  0  0  0
    7.4046   -0.6583   20.9461 C   0  0  0  0  0  0  0  0  0  0  0  0
    7.6945   -0.0956   22.1640 C   0  0  0  0  0  0  0  0  0  0  0  0
    7.3836    1.2619   22.5698 C   0  0  0  0  0  0  0  0  0  0  0  0
    7.1795    1.4713   23.7526 O   0  0  0  0  0  0  0  0  0  0  0  0
    7.3919    2.3157   21.6712 N   0  0  0  0  0  0  0  0  0  0  0  0
    7.1926    3.7393   22.0395 C   0  0  0  0  0  0  0  0  0  0  0  0
    8.3600    4.4842   22.7374 C   0  0  0  0  0  0  0  0  0  0  0  0
    9.4682    3.9718   22.9030 O   0  0  0  0  0  0  0  0  0  0  0  0
    8.0238    5.7419   23.4120 C   0  0  0  0  0  0  0  0  0  0  0  0
    8.7742    6.2075   24.5033 C   0  0  0  0  0  0  0  0  0  0  0  0
    8.3847    7.3688   25.1754 C   0  0  0  0  0  0  0  0  0  0  0  0
    7.2533    8.0838   24.7727 C   0  0  0  0  0  0  0  0  0  0  0  0
    6.7575    9.6913   25.6872 Br  0  0  0  0  0  0  0  0  0  0  0  0
    6.5068    7.6243   23.6896 C   0  0  0  0  0  0  0  0  0  0  0  0
    6.8792    6.4568   23.0197 C   0  0  0  0  0  0  0  0  0  0  0  0
    6.2578    6.0992   22.2023 H   0  0  0  0  0  0  0  0  0  0  0  0
    5.6330    8.1812   23.3705 H   0  0  0  0  0  0  0  0  0  0  0  0
    8.9611    7.7237   26.0182 H   0  0  0  0  0  0  0  0  0  0  0  0
    9.6383    5.6463   24.8527 H   0  0  0  0  0  0  0  0  0  0  0  0
    6.3454    3.7777   22.7294 H   0  0  0  0  0  0  0  0  0  0  0  0
    6.8875    4.3361   21.1723 H   0  0  0  0  0  0  0  0  0  0  0  0
    7.7018    2.0805   20.7340 H   0  0  0  0  0  0  0  0  0  0  0  0
    8.1602   -0.7253   22.9117 H   0  0  0  0  0  0  0  0  0  0  0  0
    6.7131    0.0706   19.8828 C   0  0  0  0  0  0  0  0  0  0  0  0
    5.5176    0.7411   20.1460 C   0  0  0  0  0  0  0  0  0  0  0  0
    4.8689    1.3540   19.0770 C   0  0  0  0  0  0  0  0  0  0  0  0
    5.4290    1.3091   17.7985 C   0  0  0  0  0  0  0  0  0  0  0  0
    6.5773    0.6577   17.5417 N   0  0  0  0  0  0  0  0  0  0  0  0
    7.1993    0.0438   18.5654 C   0  0  0  0  0  0  0  0  0  0  0  0
    8.1196   -0.4927   18.3518 H   0  0  0  0  0  0  0  0  0  0  0  0
    4.9174    1.8138   16.9850 H   0  0  0  0  0  0  0  0  0  0  0  0
    3.9312    1.8717   19.2254 H   0  0  0  0  0  0  0  0  0  0  0  0
    5.0981    0.7548   21.1518 H   0  0  0  0  0  0  0  0  0  0  0  0
    6.9463   -2.5710   20.1160 H   0  0  0  0  0  0  0  0  0  0  0  0
    7.5412   -2.6249   21.7787 H   0  0  0  0  0  0  0  0  0  0  0  0
    8.6880   -2.2990   20.4590 H   0  0  0  0  0  0  0  0  0  0  0  0
  1  2  1  0
  2  3  2  3
  3  4  1  0
  4  5  2  0
  4  6  1  0
  6  7  1  0
  7  8  1  0
  8  9  2  0
  8 10  1  0
 10 11  2  0
 11 12  1  0
 12 13  2  0
 13 14  1  0
 13 15  1  0
 15 16  2  0
 16 17  1  0
 15 18  1  0
 12 19  1  0
 11 20  1  0
  7 21  1  0
  7 22  1  0
  6 23  1  0
  3 24  1  0
  2 25  1  0
 25 26  2  0
 26 27  1  0
 27 28  2  0
 28 29  1  0
 29 30  2  0
 30 31  1  0
 28 32  1  0
 27 33  1  0
 26 34  1  0
  1 35  1  0
  1 36  1  0
  1 37  1  0
 16 10  1  0
 30 25  1  0
M  END
>  <cnnaffinity>  (1) 
-4.61789

>  <filename>  (1) 
[H]C(C(=O)N([H])C([H])([H])C(=O)c1c([H])c([H])c(Br)c([H])c1[H])=C(c1c([H])nc([H])c([H])c1[H])C([H])([H])[H]

$$$$
