
     RDKit          3D

 39 40  0  0  0  0  0  0  0  0999 V2000
   10.5558    0.7220   21.9791 C   0  0  0  0  0  0  0  0  0  0  0  0
    9.2462    1.1133   21.2968 C   0  0  0  0  0  0  0  0  0  0  0  0
    8.0894    0.4440   21.9181 N   0  0  0  0  0  0  0  0  0  0  0  0
    7.7430    0.8555   23.1858 C   0  0  0  0  0  0  0  0  0  0  0  0
    8.0591    1.9559   23.6107 O   0  0  0  0  0  0  0  0  0  0  0  0
    6.9586   -0.1314   24.0616 C   0  0  0  0  0  0  0  0  0  0  0  0
    7.6499   -1.4783   24.2300 C   0  0  0  0  0  0  0  0  0  0  0  0
    7.0246   -2.7098   23.9915 C   0  0  0  0  0  0  0  0  0  0  0  0
    7.7720   -3.8885   24.1287 C   0  0  0  0  0  0  0  0  0  0  0  0
    9.0782   -3.9133   24.4165 N   0  0  0  0  0  0  0  0  0  0  0  0
    9.6776   -2.7358   24.6482 C   0  0  0  0  0  0  0  0  0  0  0  0
    9.0022   -1.5127   24.6026 C   0  0  0  0  0  0  0  0  0  0  0  0
    9.5326   -0.6044   24.8675 H   0  0  0  0  0  0  0  0  0  0  0  0
   10.7413   -2.7718   24.8830 H   0  0  0  0  0  0  0  0  0  0  0  0
    7.2971   -4.8619   24.0139 H   0  0  0  0  0  0  0  0  0  0  0  0
    5.9770   -2.7948   23.7159 H   0  0  0  0  0  0  0  0  0  0  0  0
    5.9563   -0.2298   23.6333 H   0  0  0  0  0  0  0  0  0  0  0  0
    6.8368    0.3598   25.0279 H   0  0  0  0  0  0  0  0  0  0  0  0
    7.3324   -0.5746   21.1757 C   0  0  0  0  0  0  0  0  0  0  0  0
    8.1971   -1.7862   20.8584 C   0  0  0  0  0  0  0  0  0  0  0  0
    8.9716   -1.5482   20.1217 H   0  0  0  0  0  0  0  0  0  0  0  0
    7.5551   -2.5922   20.4956 H   0  0  0  0  0  0  0  0  0  0  0  0
    8.6984   -2.1523   21.7586 H   0  0  0  0  0  0  0  0  0  0  0  0
    6.6121    0.0399   19.9817 C   0  0  0  0  0  0  0  0  0  0  0  0
    5.3839    0.6986   20.1554 C   0  0  0  0  0  0  0  0  0  0  0  0
    4.7890    1.3260   19.0585 C   0  0  0  0  0  0  0  0  0  0  0  0
    5.4393    1.2800   17.8201 C   0  0  0  0  0  0  0  0  0  0  0  0
    6.5963    0.6363   17.6245 N   0  0  0  0  0  0  0  0  0  0  0  0
    7.1557    0.0414   18.6908 C   0  0  0  0  0  0  0  0  0  0  0  0
    8.0962   -0.4679   18.4859 H   0  0  0  0  0  0  0  0  0  0  0  0
    5.0075    1.7722   16.9491 H   0  0  0  0  0  0  0  0  0  0  0  0
    3.8490    1.8573   19.1514 H   0  0  0  0  0  0  0  0  0  0  0  0
    4.9060    0.7410   21.1391 H   0  0  0  0  0  0  0  0  0  0  0  0
    6.5302   -0.9275   21.8298 H   0  0  0  0  0  0  0  0  0  0  0  0
    9.0874    2.1980   21.3661 H   0  0  0  0  0  0  0  0  0  0  0  0
    9.2700    0.8632   20.2310 H   0  0  0  0  0  0  0  0  0  0  0  0
   10.6976   -0.3667   21.9496 H   0  0  0  0  0  0  0  0  0  0  0  0
   10.5508    1.0494   23.0261 H   0  0  0  0  0  0  0  0  0  0  0  0
   11.4072    1.1985   21.4807 H   0  0  0  0  0  0  0  0  0  0  0  0
  1  2  1  0
  2  3  1  0
  3  4  1  0
  4  5  2  0
  4  6  1  0
  6  7  1  0
  7  8  2  0
  8  9  1  0
  9 10  2  0
 10 11  1  0
 11 12  2  0
 12 13  1  0
 11 14  1  0
  9 15  1  0
  8 16  1  0
  6 17  1  0
  6 18  1  0
  3 19  1  0
 19 20  1  0
 20 21  1  0
 20 22  1  0
 20 23  1  0
 19 24  1  0
 24 25  2  0
 25 26  1  0
 26 27  2  0
 27 28  1  0
 28 29  2  0
 29 30  1  0
 27 31  1  0
 26 32  1  0
 25 33  1  0
 19 34  1  0
  2 35  1  0
  2 36  1  0
  1 37  1  0
  1 38  1  0
  1 39  1  0
 12  7  1  0
 29 24  1  0
M  END
>  <cnnaffinity>  (1) 
-5.03493

>  <filename>  (1) 
[H]c1nc([H])c(C([H])(N(C(=O)C([H])([H])c2c([H])c([H])nc([H])c2[H])C([H])([H])C([H])([H])[H])C([H])([H])[H])c([H])c1[H]

$$$$
