
     RDKit          3D

 46 49  0  0  0  0  0  0  0  0999 V2000
    7.5820    1.8036   29.2462 C   0  0  0  0  0  0  0  0  0  0  0  0
    7.9147    2.1092   27.8114 C   0  0  0  0  0  0  0  0  0  0  0  0
    8.0986    1.0299   26.8533 C   0  0  0  0  0  0  0  0  0  0  0  0
    8.4268    1.2235   25.5990 N   0  0  0  0  0  0  0  0  0  0  0  0
    8.6496    2.5355   25.2184 C   0  0  0  0  0  0  0  0  0  0  0  0
    9.1100    2.8275   23.9036 C   0  0  0  0  0  0  0  0  0  0  0  0
    9.0416    1.7555   22.9034 C   0  0  0  0  0  0  0  0  0  0  0  0
    7.9539    1.1017   22.5342 N   0  0  0  0  0  0  0  0  0  0  0  0
    8.4038    0.2635   21.5766 C   0  0  0  0  0  0  0  0  0  0  0  0
    7.4735   -0.6850   20.8808 C   0  0  0  0  0  0  0  0  0  0  0  0
    6.6765   -0.0318   19.7638 C   0  0  0  0  0  0  0  0  0  0  0  0
    5.4741    0.6268   20.0507 C   0  0  0  0  0  0  0  0  0  0  0  0
    4.8176    1.3125   19.0267 C   0  0  0  0  0  0  0  0  0  0  0  0
    5.3905    1.3092   17.7527 C   0  0  0  0  0  0  0  0  0  0  0  0
    6.5248    0.6597   17.4461 N   0  0  0  0  0  0  0  0  0  0  0  0
    7.1387    0.0037   18.4387 C   0  0  0  0  0  0  0  0  0  0  0  0
    8.0539   -0.5292   18.1727 H   0  0  0  0  0  0  0  0  0  0  0  0
    4.9178    1.8451   16.9329 H   0  0  0  0  0  0  0  0  0  0  0  0
    3.8908    1.8478   19.2067 H   0  0  0  0  0  0  0  0  0  0  0  0
    5.0744    0.5974   21.0665 H   0  0  0  0  0  0  0  0  0  0  0  0
    8.0583   -1.5330   20.5124 H   0  0  0  0  0  0  0  0  0  0  0  0
    6.7855   -1.0529   21.6513 H   0  0  0  0  0  0  0  0  0  0  0  0
    9.6930    0.3663   21.3091 N   0  0  0  0  0  0  0  0  0  0  0  0
   10.1083    1.3173   22.1887 N   0  0  0  0  0  0  0  0  0  0  0  0
   11.5236    1.7316   22.2484 C   0  0  0  0  0  0  0  0  0  0  0  0
   11.8856    2.4550   20.9570 C   0  0  0  0  0  0  0  0  0  0  0  0
   12.7135    3.1537   21.0879 H   0  0  0  0  0  0  0  0  0  0  0  0
   11.0380    2.9826   20.5367 H   0  0  0  0  0  0  0  0  0  0  0  0
   12.1478    1.7130   20.2217 H   0  0  0  0  0  0  0  0  0  0  0  0
   12.4438    0.5296   22.5098 C   0  0  0  0  0  0  0  0  0  0  0  0
   12.3342    0.1547   23.5314 H   0  0  0  0  0  0  0  0  0  0  0  0
   12.2101   -0.2800   21.8073 H   0  0  0  0  0  0  0  0  0  0  0  0
   13.4911    0.8165   22.3656 H   0  0  0  0  0  0  0  0  0  0  0  0
   11.6171    2.4236   23.0910 H   0  0  0  0  0  0  0  0  0  0  0  0
    9.5961    4.1068   23.6223 C   0  0  0  0  0  0  0  0  0  0  0  0
    9.5340    5.1397   24.5885 C   0  0  0  0  0  0  0  0  0  0  0  0
    8.9806    4.9064   25.8381 C   0  0  0  0  0  0  0  0  0  0  0  0
    8.5361    3.6074   26.1851 C   0  0  0  0  0  0  0  0  0  0  0  0
    8.0791    3.3712   27.4696 N   0  0  0  0  0  0  0  0  0  0  0  0
    8.8813    5.6769   26.5981 H   0  0  0  0  0  0  0  0  0  0  0  0
    9.9230    6.1251   24.3341 H   0  0  0  0  0  0  0  0  0  0  0  0
    9.9730    4.3450   22.6242 H   0  0  0  0  0  0  0  0  0  0  0  0
    7.9798    0.0004   27.1887 H   0  0  0  0  0  0  0  0  0  0  0  0
    8.3268    1.1307   29.6903 H   0  0  0  0  0  0  0  0  0  0  0  0
    6.6033    1.3191   29.3208 H   0  0  0  0  0  0  0  0  0  0  0  0
    7.5782    2.7332   29.8178 H   0  0  0  0  0  0  0  0  0  0  0  0
  1  2  1  0
  2  3  2  0
  3  4  1  0
  4  5  2  0
  5  6  1  0
  6  7  1  0
  7  8  2  0
  8  9  1  0
  9 10  1  0
 10 11  1  0
 11 12  2  0
 12 13  1  0
 13 14  2  0
 14 15  1  0
 15 16  2  0
 16 17  1  0
 14 18  1  0
 13 19  1  0
 12 20  1  0
 10 21  1  0
 10 22  1  0
  9 23  2  0
 23 24  1  0
 24 25  1  0
 25 26  1  0
 26 27  1  0
 26 28  1  0
 26 29  1  0
 25 30  1  0
 30 31  1  0
 30 32  1  0
 30 33  1  0
 25 34  1  0
  6 35  2  0
 35 36  1  0
 36 37  2  0
 37 38  1  0
 38 39  2  0
 37 40  1  0
 36 41  1  0
 35 42  1  0
  3 43  1  0
  1 44  1  0
  1 45  1  0
  1 46  1  0
 39  2  1  0
 38  5  1  0
 24  7  1  0
 16 11  1  0
M  END
>  <cnnaffinity>  (1) 
-6.05953

>  <filename>  (1) 
[H]c1nc2c(-c3nc(C([H])([H])c4c([H])nc([H])c([H])c4[H])nn3C([H])(C([H])([H])[H])C([H])([H])[H])c([H])c([H])c([H])c2nc1C([H])([H])[H]

$$$$
