
     RDKit          3D

 47 47  0  0  0  0  0  0  0  0999 V2000
    4.9723    1.7056   16.9337 H   0  0  0  0  0  0  0  0  0  0  0  0
    5.4745    1.2463   17.7793 C   0  0  0  0  0  0  0  0  0  0  0  0
    6.6143    0.5981   17.5117 N   0  0  0  0  0  0  0  0  0  0  0  0
    7.2446    0.0095   18.5380 C   0  0  0  0  0  0  0  0  0  0  0  0
    8.1594   -0.5251   18.2786 H   0  0  0  0  0  0  0  0  0  0  0  0
    6.8018    0.0544   19.8790 C   0  0  0  0  0  0  0  0  0  0  0  0
    7.5356   -0.6495   21.0508 C   0  0  0  0  0  0  0  0  0  0  0  0
    6.6752   -1.8032   21.5815 C   0  0  0  0  0  0  0  0  0  0  0  0
    7.1372   -2.2675   22.4580 H   0  0  0  0  0  0  0  0  0  0  0  0
    6.5399   -2.5677   20.8097 H   0  0  0  0  0  0  0  0  0  0  0  0
    5.6895   -1.4269   21.8603 H   0  0  0  0  0  0  0  0  0  0  0  0
    8.9561   -1.1297   20.6871 C   0  0  0  0  0  0  0  0  0  0  0  0
    8.9242   -1.9125   19.9329 H   0  0  0  0  0  0  0  0  0  0  0  0
    9.4754   -1.5288   21.5626 H   0  0  0  0  0  0  0  0  0  0  0  0
    9.5863   -0.3306   20.2832 H   0  0  0  0  0  0  0  0  0  0  0  0
    7.7495    0.5190   22.5312 S   0  0  0  0  0  0  0  0  0  0  0  0
    8.6386   -0.1132   23.5112 O   0  0  0  0  0  0  0  0  0  0  0  0
    6.4647    1.0593   22.9797 O   0  0  0  0  0  0  0  0  0  0  0  0
    8.6327    1.8238   21.6947 C   0  0  0  0  0  0  0  0  0  0  0  0
    8.0486    2.0049   20.7911 H   0  0  0  0  0  0  0  0  0  0  0  0
    9.6078    1.4038   21.4455 H   0  0  0  0  0  0  0  0  0  0  0  0
    8.7794    3.1026   22.4855 C   0  0  0  0  0  0  0  0  0  0  0  0
    7.8056    3.4178   22.8751 H   0  0  0  0  0  0  0  0  0  0  0  0
    9.0829    3.8807   21.7780 H   0  0  0  0  0  0  0  0  0  0  0  0
    9.8057    3.0245   23.6092 C   0  0  0  0  0  0  0  0  0  0  0  0
   10.7383    2.5738   23.2448 H   0  0  0  0  0  0  0  0  0  0  0  0
    9.4408    2.3561   24.4018 H   0  0  0  0  0  0  0  0  0  0  0  0
   10.0734    4.4179   24.1737 C   0  0  0  0  0  0  0  0  0  0  0  0
   10.9716    4.4107   24.8040 H   0  0  0  0  0  0  0  0  0  0  0  0
   10.3076    5.1087   23.3478 H   0  0  0  0  0  0  0  0  0  0  0  0
    8.8591    4.9309   24.9594 C   0  0  0  0  0  0  0  0  0  0  0  0
    8.4656    4.1030   25.5673 H   0  0  0  0  0  0  0  0  0  0  0  0
    8.0520    5.1991   24.2601 H   0  0  0  0  0  0  0  0  0  0  0  0
    9.1470    6.1175   25.8782 C   0  0  0  0  0  0  0  0  0  0  0  0
    8.2101    6.4151   26.3724 H   0  0  0  0  0  0  0  0  0  0  0  0
    9.8305    5.7906   26.6765 H   0  0  0  0  0  0  0  0  0  0  0  0
    9.7531    7.3249   25.1606 C   0  0  0  0  0  0  0  0  0  0  0  0
    9.0952    7.6141   24.3272 H   0  0  0  0  0  0  0  0  0  0  0  0
   10.7094    7.0357   24.7025 H   0  0  0  0  0  0  0  0  0  0  0  0
    9.9781    8.5191   26.0853 C   0  0  0  0  0  0  0  0  0  0  0  0
   10.3975    9.3688   25.5359 H   0  0  0  0  0  0  0  0  0  0  0  0
    9.0363    8.8428   26.5460 H   0  0  0  0  0  0  0  0  0  0  0  0
   10.6711    8.2647   26.8978 H   0  0  0  0  0  0  0  0  0  0  0  0
    5.5943    0.7402   20.1254 C   0  0  0  0  0  0  0  0  0  0  0  0
    5.2141    0.8239   21.1430 H   0  0  0  0  0  0  0  0  0  0  0  0
    4.9230    1.3394   19.0595 C   0  0  0  0  0  0  0  0  0  0  0  0
    3.9869    1.8636   19.2172 H   0  0  0  0  0  0  0  0  0  0  0  0
  1  2  1  0
  2  3  2  0
  3  4  1  0
  4  5  1  0
  4  6  2  0
  6  7  1  0
  7  8  1  0
  8  9  1  0
  8 10  1  0
  8 11  1  0
  7 12  1  0
 12 13  1  0
 12 14  1  0
 12 15  1  0
  7 16  1  0
 16 17  2  0
 16 18  2  0
 16 19  1  0
 19 20  1  0
 19 21  1  0
 19 22  1  0
 22 23  1  0
 22 24  1  0
 22 25  1  0
 25 26  1  0
 25 27  1  0
 25 28  1  0
 28 29  1  0
 28 30  1  0
 28 31  1  0
 31 32  1  0
 31 33  1  0
 31 34  1  0
 34 35  1  0
 34 36  1  0
 34 37  1  0
 37 38  1  0
 37 39  1  0
 37 40  1  0
 40 41  1  0
 40 42  1  0
 40 43  1  0
  6 44  1  0
 44 45  1  0
 44 46  2  0
 46 47  1  0
 46  2  1  0
M  END
>  <cnnaffinity>  (1) 
-5.03757

>  <filename>  (1) 
[H]c1nc([H])c(C(C([H])([H])[H])(C([H])([H])[H])S(=O)(=O)C([H])([H])C([H])([H])C([H])([H])C([H])([H])C([H])([H])C([H])([H])C([H])([H])C([H])([H])[H])c([H])c1[H]

$$$$
