
     RDKit          3D

 25 26  0  0  0  0  0  0  0  0999 V2000
    9.0771    4.2866   23.8591 H   0  0  0  0  0  0  0  0  0  0  0  0
    8.4190    3.4341   23.6766 C   0  0  0  0  0  0  0  0  0  0  0  0
    8.8150    2.5455   22.7783 N   0  0  0  0  0  0  0  0  0  0  0  0
    7.9789    1.5173   22.6015 C   0  0  0  0  0  0  0  0  0  0  0  0
    8.4782    0.6062   21.7369 N   0  0  0  0  0  0  0  0  0  0  0  0
    9.3094    1.0098   21.3471 H   0  0  0  0  0  0  0  0  0  0  0  0
    7.6453   -0.7293   21.1762 S   0  0  0  0  0  0  0  0  0  0  0  0
    6.6600    0.0330   19.9141 C   0  0  0  0  0  0  0  0  0  0  0  0
    7.1779    0.0674   18.6173 C   0  0  0  0  0  0  0  0  0  0  0  0
    8.1234   -0.4266   18.3939 H   0  0  0  0  0  0  0  0  0  0  0  0
    6.5645    0.6674   17.5920 N   0  0  0  0  0  0  0  0  0  0  0  0
    5.3995    1.2833   17.8457 C   0  0  0  0  0  0  0  0  0  0  0  0
    4.9374    1.7883   16.9971 H   0  0  0  0  0  0  0  0  0  0  0  0
    4.7957    1.3026   19.1050 C   0  0  0  0  0  0  0  0  0  0  0  0
    3.8635    1.8408   19.2417 H   0  0  0  0  0  0  0  0  0  0  0  0
    5.4366    0.6606   20.1727 C   0  0  0  0  0  0  0  0  0  0  0  0
    5.0324    0.6630   21.1848 H   0  0  0  0  0  0  0  0  0  0  0  0
    6.8120    1.3104   23.1754 N   0  0  0  0  0  0  0  0  0  0  0  0
    6.4301    2.2026   24.0995 C   0  0  0  0  0  0  0  0  0  0  0  0
    5.0727    1.9789   24.8464 C   0  0  0  0  0  0  0  0  0  0  0  0
    5.2603    1.8933   26.1796 F   0  0  0  0  0  0  0  0  0  0  0  0
    4.4186    0.8790   24.4723 F   0  0  0  0  0  0  0  0  0  0  0  0
    4.2370    3.0194   24.6434 F   0  0  0  0  0  0  0  0  0  0  0  0
    7.2184    3.3146   24.3916 C   0  0  0  0  0  0  0  0  0  0  0  0
    6.9237    4.0530   25.1222 H   0  0  0  0  0  0  0  0  0  0  0  0
  1  2  1  0
  2  3  2  0
  3  4  1  0
  4  5  1  0
  5  6  1  0
  5  7  1  0
  7  8  1  0
  8  9  2  0
  9 10  1  0
  9 11  1  0
 11 12  2  0
 12 13  1  0
 12 14  1  0
 14 15  1  0
 14 16  2  0
 16 17  1  0
  4 18  2  0
 18 19  1  0
 19 20  1  0
 20 21  1  0
 20 22  1  0
 20 23  1  0
 19 24  2  0
 24 25  1  0
 24  2  1  0
 16  8  1  0
M  END
>  <cnnaffinity>  (1) 
-4.79145

>  <filename>  (1) 
[H]c1nc(N([H])Sc2c([H])nc([H])c([H])c2[H])nc(C(F)(F)F)c1[H]

$$$$
