
     RDKit          3D

 35 36  0  0  0  0  0  0  0  0999 V2000
    4.9102    1.7923   16.9849 H   0  0  0  0  0  0  0  0  0  0  0  0
    5.3923    1.3004   17.8258 C   0  0  0  0  0  0  0  0  0  0  0  0
    6.5561    0.6879   17.5569 N   0  0  0  0  0  0  0  0  0  0  0  0
    7.1732    0.0815   18.5820 C   0  0  0  0  0  0  0  0  0  0  0  0
    8.1172   -0.4127   18.3557 H   0  0  0  0  0  0  0  0  0  0  0  0
    6.6728    0.0030   19.9036 C   0  0  0  0  0  0  0  0  0  0  0  0
    7.3620   -0.7127   20.9039 N   0  0  0  0  0  0  0  0  0  0  0  0
    6.6141   -1.5635   21.8083 C   0  0  0  0  0  0  0  0  0  0  0  0
    7.1850   -2.4626   22.0700 H   0  0  0  0  0  0  0  0  0  0  0  0
    6.3252   -1.0716   22.7531 H   0  0  0  0  0  0  0  0  0  0  0  0
    5.7052   -1.8987   21.3001 H   0  0  0  0  0  0  0  0  0  0  0  0
    8.7613   -0.3727   21.2159 C   0  0  1  0  0  0  0  0  0  0  0  0
    9.0380    0.4240   20.5187 H   0  0  0  0  0  0  0  0  0  0  0  0
    8.9704    0.1676   22.6467 C   0  0  0  0  0  0  0  0  0  0  0  0
    9.0476   -0.7472   23.7090 C   0  0  0  0  0  0  0  0  0  0  0  0
    8.9734   -1.8142   23.5105 H   0  0  0  0  0  0  0  0  0  0  0  0
    9.2114   -0.3262   25.0290 C   0  0  0  0  0  0  0  0  0  0  0  0
    9.2639   -1.0629   25.8230 H   0  0  0  0  0  0  0  0  0  0  0  0
    9.3054    1.0335   25.3204 C   0  0  0  0  0  0  0  0  0  0  0  0
    9.4351    1.3716   26.3430 H   0  0  0  0  0  0  0  0  0  0  0  0
    9.2287    1.9651   24.2860 C   0  0  0  0  0  0  0  0  0  0  0  0
    9.2964    3.0294   24.5038 H   0  0  0  0  0  0  0  0  0  0  0  0
    9.0515    1.5488   22.9571 C   0  0  0  0  0  0  0  0  0  0  0  0
    8.9800    2.6092   21.8666 C   0  0  0  0  0  0  0  0  0  0  0  0
    8.9527    3.8644   22.3506 F   0  0  0  0  0  0  0  0  0  0  0  0
   10.0500    2.5133   21.0433 F   0  0  0  0  0  0  0  0  0  0  0  0
    7.8955    2.4805   21.0769 F   0  0  0  0  0  0  0  0  0  0  0  0
    9.6621   -1.5661   20.8948 C   0  0  0  0  0  0  0  0  0  0  0  0
    9.3883   -2.4736   21.4375 H   0  0  0  0  0  0  0  0  0  0  0  0
    9.5205   -1.7836   19.8363 H   0  0  0  0  0  0  0  0  0  0  0  0
   10.7145   -1.3375   21.0970 H   0  0  0  0  0  0  0  0  0  0  0  0
    5.4427    0.6385   20.1520 C   0  0  0  0  0  0  0  0  0  0  0  0
    5.0279    0.6145   21.1606 H   0  0  0  0  0  0  0  0  0  0  0  0
    4.8068    1.3063   19.0967 C   0  0  0  0  0  0  0  0  0  0  0  0
    3.8764    1.8385   19.2563 H   0  0  0  0  0  0  0  0  0  0  0  0
  1  2  1  0
  2  3  2  0
  3  4  1  0
  4  5  1  0
  4  6  2  0
  6  7  1  0
  7  8  1  0
  8  9  1  0
  8 10  1  0
  8 11  1  0
  7 12  1  0
 12 13  1  6
 12 14  1  0
 14 15  2  0
 15 16  1  0
 15 17  1  0
 17 18  1  0
 17 19  2  0
 19 20  1  0
 19 21  1  0
 21 22  1  0
 21 23  2  0
 23 24  1  0
 24 25  1  0
 24 26  1  0
 24 27  1  0
 12 28  1  0
 28 29  1  0
 28 30  1  0
 28 31  1  0
  6 32  1  0
 32 33  1  0
 32 34  2  0
 34 35  1  0
 34  2  1  0
 23 14  1  0
M  END
>  <cnnaffinity>  (1) 
-4.54213

>  <filename>  (1) 
[H]c1nc([H])c(N(C([H])([H])[H])[C@@]([H])(c2c([H])c([H])c([H])c([H])c2C(F)(F)F)C([H])([H])[H])c([H])c1[H]

$$$$
