
     RDKit          3D

 26 28  0  0  0  0  0  0  0  0999 V2000
    4.8905    1.8868   16.7128 H   0  0  0  0  0  0  0  0  0  0  0  0
    5.2650    1.4347   17.6276 C   0  0  0  0  0  0  0  0  0  0  0  0
    6.4345    0.7871   17.5160 N   0  0  0  0  0  0  0  0  0  0  0  0
    6.9522    0.2637   18.6329 C   0  0  0  0  0  0  0  0  0  0  0  0
    7.9023   -0.2607   18.5058 H   0  0  0  0  0  0  0  0  0  0  0  0
    6.3653    0.3528   19.9105 C   0  0  0  0  0  0  0  0  0  0  0  0
    7.0908   -0.1998   21.1228 C   0  0  1  0  0  0  0  0  0  0  0  0
    6.4562   -0.0537   22.0020 H   0  0  0  0  0  0  0  0  0  0  0  0
    7.3507   -1.7452   21.0350 C   0  0  0  0  0  0  0  0  0  0  0  0
    6.6800   -2.3334   21.6688 H   0  0  0  0  0  0  0  0  0  0  0  0
    7.1971   -2.1144   20.0155 H   0  0  0  0  0  0  0  0  0  0  0  0
    8.7692   -1.8678   21.4760 C   0  0  0  0  0  0  0  0  0  0  0  0
    9.5375   -2.9010   21.7478 N   0  0  0  0  0  0  0  0  0  0  0  0
   10.7271   -2.3493   22.0365 N   0  0  0  0  0  0  0  0  0  0  0  0
   11.5000   -2.9653   22.2518 H   0  0  0  0  0  0  0  0  0  0  0  0
   10.7282   -0.9826   21.9397 C   0  0  0  0  0  0  0  0  0  0  0  0
   11.9691   -0.2870   22.0842 C   0  0  0  0  0  0  0  0  0  0  0  0
   13.0310    0.1587   22.2209 N   0  0  0  0  0  0  0  0  0  0  0  0
    9.4232   -0.6426   21.6233 C   0  0  0  0  0  0  0  0  0  0  0  0
    8.4704    0.5053   21.4341 C   0  0  0  0  0  0  0  0  0  0  0  0
    8.8148    1.1844   20.6428 H   0  0  0  0  0  0  0  0  0  0  0  0
    8.3803    1.1399   22.3277 H   0  0  0  0  0  0  0  0  0  0  0  0
    5.1113    0.9845   19.9857 C   0  0  0  0  0  0  0  0  0  0  0  0
    4.5797    1.0443   20.9375 H   0  0  0  0  0  0  0  0  0  0  0  0
    4.5589    1.5369   18.8279 C   0  0  0  0  0  0  0  0  0  0  0  0
    3.6153    2.0688   18.8459 H   0  0  0  0  0  0  0  0  0  0  0  0
  1  2  1  0
  2  3  2  0
  3  4  1  0
  4  5  1  0
  4  6  2  0
  6  7  1  0
  7  8  1  1
  7  9  1  0
  9 10  1  0
  9 11  1  0
  9 12  1  0
 12 13  2  0
 13 14  1  0
 14 15  1  0
 14 16  1  0
 16 17  1  0
 17 18  3  0
 16 19  2  0
 19 20  1  0
 20 21  1  0
 20 22  1  0
  6 23  1  0
 23 24  1  0
 23 25  2  0
 25 26  1  0
 25  2  1  0
 20  7  1  0
 19 12  1  0
M  END
>  <cnnaffinity>  (1) 
-4.85891

>  <filename>  (1) 
[H]c1nc([H])c([C@@]2([H])C([H])([H])c3nn([H])c(C#N)c3C2([H])[H])c([H])c1[H]

$$$$
