
     RDKit          3D

 40 43  0  0  0  0  0  0  0  0999 V2000
    6.8431   -5.2747   30.7014 H   0  0  0  0  0  0  0  0  0  0  0  0
    6.1264   -5.1206   29.8996 C   0  0  0  0  0  0  0  0  0  0  0  0
    6.6348   -4.7416   28.7227 N   0  0  0  0  0  0  0  0  0  0  0  0
    5.7594   -4.4807   27.7427 C   0  0  0  0  0  0  0  0  0  0  0  0
    6.2536   -3.9174   26.5825 N   0  0  0  0  0  0  0  0  0  0  0  0
    5.3261   -3.5604   25.5079 C   0  0  0  0  0  0  0  0  0  0  0  0
    5.0331   -4.4586   24.9386 H   0  0  0  0  0  0  0  0  0  0  0  0
    4.4216   -3.1132   25.9335 H   0  0  0  0  0  0  0  0  0  0  0  0
    5.8607   -2.5106   24.5266 C   0  0  0  0  0  0  0  0  0  0  0  0
    5.7066   -1.5015   24.9386 H   0  0  0  0  0  0  0  0  0  0  0  0
    5.2521   -2.5925   23.6272 H   0  0  0  0  0  0  0  0  0  0  0  0
    7.2637   -2.7021   24.1458 N   0  0  0  0  0  0  0  0  0  0  0  0
    7.6951   -2.0122   23.0418 C   0  0  0  0  0  0  0  0  0  0  0  0
    6.8846   -1.3970   22.2324 N   0  0  0  0  0  0  0  0  0  0  0  0
    7.5555   -0.8865   21.1520 C   0  0  0  0  0  0  0  0  0  0  0  0
    6.7833   -0.1921   20.1109 C   0  0  0  0  0  0  0  0  0  0  0  0
    7.2633   -0.1871   18.7928 C   0  0  0  0  0  0  0  0  0  0  0  0
    8.1595   -0.7492   18.5292 H   0  0  0  0  0  0  0  0  0  0  0  0
    6.6711    0.4589   17.7844 N   0  0  0  0  0  0  0  0  0  0  0  0
    5.5430    1.1274   18.0627 C   0  0  0  0  0  0  0  0  0  0  0  0
    5.0861    1.6660   17.2367 H   0  0  0  0  0  0  0  0  0  0  0  0
    4.9497    1.1483   19.3316 C   0  0  0  0  0  0  0  0  0  0  0  0
    4.0303    1.7002   19.4906 H   0  0  0  0  0  0  0  0  0  0  0  0
    5.5712    0.4674   20.3739 C   0  0  0  0  0  0  0  0  0  0  0  0
    5.1380    0.4345   21.3753 H   0  0  0  0  0  0  0  0  0  0  0  0
    8.9000   -1.0792   21.1395 C   0  0  0  0  0  0  0  0  0  0  0  0
    9.6259   -0.7447   20.4151 H   0  0  0  0  0  0  0  0  0  0  0  0
    9.3765   -1.9632   22.5547 S   0  0  0  0  0  0  0  0  0  0  0  0
    8.1343   -2.9664   25.3019 C   0  0  0  0  0  0  0  0  0  0  0  0
    9.1617   -3.1430   24.9670 H   0  0  0  0  0  0  0  0  0  0  0  0
    8.1359   -2.0890   25.9679 H   0  0  0  0  0  0  0  0  0  0  0  0
    7.6162   -4.1848   26.0885 C   0  0  0  0  0  0  0  0  0  0  0  0
    7.6277   -5.0577   25.4107 H   0  0  0  0  0  0  0  0  0  0  0  0
    8.2880   -4.4010   26.9223 H   0  0  0  0  0  0  0  0  0  0  0  0
    4.3673   -4.7176   27.8909 C   0  0  0  0  0  0  0  0  0  0  0  0
    3.7160   -4.6135   27.0407 H   0  0  0  0  0  0  0  0  0  0  0  0
    3.8643   -5.1035   29.1185 C   0  0  0  0  0  0  0  0  0  0  0  0
    2.7847   -5.1923   29.2587 H   0  0  0  0  0  0  0  0  0  0  0  0
    4.7688   -5.3118   30.1599 C   0  0  0  0  0  0  0  0  0  0  0  0
    4.4321   -5.6331   31.1357 H   0  0  0  0  0  0  0  0  0  0  0  0
  1  2  1  0
  2  3  2  0
  3  4  1  0
  4  5  1  0
  5  6  1  0
  6  7  1  0
  6  8  1  0
  6  9  1  0
  9 10  1  0
  9 11  1  0
  9 12  1  0
 12 13  1  0
 13 14  2  0
 14 15  1  0
 15 16  1  0
 16 17  2  0
 17 18  1  0
 17 19  1  0
 19 20  2  0
 20 21  1  0
 20 22  1  0
 22 23  1  0
 22 24  2  0
 24 25  1  0
 15 26  2  0
 26 27  1  0
 26 28  1  0
 12 29  1  0
 29 30  1  0
 29 31  1  0
 29 32  1  0
 32 33  1  0
 32 34  1  0
  4 35  2  0
 35 36  1  0
 35 37  1  0
 37 38  1  0
 37 39  2  0
 39 40  1  0
 39  2  1  0
 32  5  1  0
 28 13  1  0
 24 16  1  0
M  END
>  <cnnaffinity>  (1) 
-5.24732

>  <filename>  (1) 
[H]c1nc(N2C([H])([H])C([H])([H])N(c3nc(-c4c([H])nc([H])c([H])c4[H])c([H])s3)C([H])([H])C2([H])[H])c([H])c([H])c1[H]

$$$$
