
     RDKit          3D

 31 33  0  0  0  0  0  0  0  0999 V2000
    8.8472   -3.0607   24.5098 O   0  0  0  0  0  0  0  0  0  0  0  0
    7.8999   -2.3895   24.1050 C   0  0  0  0  0  0  0  0  0  0  0  0
    6.7762   -2.3349   24.9236 N   0  0  0  0  0  0  0  0  0  0  0  0
    6.5582   -3.1557   26.0327 C   0  0  0  0  0  0  0  0  0  0  0  0
    7.0293   -4.4719   26.0579 C   0  0  0  0  0  0  0  0  0  0  0  0
    6.7696   -5.2968   27.1646 C   0  0  0  0  0  0  0  0  0  0  0  0
    6.0430   -4.8057   28.2522 C   0  0  0  0  0  0  0  0  0  0  0  0
    5.7378   -5.9094   29.7820 Br  0  0  0  0  0  0  0  0  0  0  0  0
    5.5576   -3.4948   28.2174 C   0  0  0  0  0  0  0  0  0  0  0  0
    5.8153   -2.6726   27.1089 C   0  0  0  0  0  0  0  0  0  0  0  0
    5.4609   -1.6474   27.0855 H   0  0  0  0  0  0  0  0  0  0  0  0
    5.0144   -3.1145   29.0759 H   0  0  0  0  0  0  0  0  0  0  0  0
    7.1295   -6.3208   27.1885 H   0  0  0  0  0  0  0  0  0  0  0  0
    7.5747   -4.8432   25.1966 H   0  0  0  0  0  0  0  0  0  0  0  0
    6.0943   -1.6041   24.7531 H   0  0  0  0  0  0  0  0  0  0  0  0
    7.9426   -1.7112   22.7606 C   0  0  0  0  0  0  0  0  0  0  0  0
    6.9097   -1.0851   22.1138 C   0  0  0  0  0  0  0  0  0  0  0  0
    7.3909   -0.6748   20.8935 N   0  0  0  0  0  0  0  0  0  0  0  0
    6.6687    0.0007   19.9038 C   0  0  0  0  0  0  0  0  0  0  0  0
    5.4472    0.6334   20.1647 C   0  0  0  0  0  0  0  0  0  0  0  0
    4.8252    1.2894   19.1041 C   0  0  0  0  0  0  0  0  0  0  0  0
    5.4003    1.2931   17.8283 C   0  0  0  0  0  0  0  0  0  0  0  0
    6.5694    0.6748   17.5783 N   0  0  0  0  0  0  0  0  0  0  0  0
    7.1856    0.0566   18.5998 C   0  0  0  0  0  0  0  0  0  0  0  0
    8.1359   -0.4343   18.4085 H   0  0  0  0  0  0  0  0  0  0  0  0
    4.8930    1.8117   17.0215 H   0  0  0  0  0  0  0  0  0  0  0  0
    3.8954    1.8202   19.2502 H   0  0  0  0  0  0  0  0  0  0  0  0
    5.0040    0.6349   21.1635 H   0  0  0  0  0  0  0  0  0  0  0  0
    8.6949   -1.0521   20.8013 N   0  0  0  0  0  0  0  0  0  0  0  0
    9.0361   -1.6518   21.8939 N   0  0  0  0  0  0  0  0  0  0  0  0
    5.8981   -0.9546   22.4545 H   0  0  0  0  0  0  0  0  0  0  0  0
  1  2  2  0
  2  3  1  0
  3  4  1  0
  4  5  2  0
  5  6  1  0
  6  7  2  0
  7  8  1  0
  7  9  1  0
  9 10  2  0
 10 11  1  0
  9 12  1  0
  6 13  1  0
  5 14  1  0
  3 15  1  0
  2 16  1  0
 16 17  2  0
 17 18  1  0
 18 19  1  0
 19 20  2  0
 20 21  1  0
 21 22  2  0
 22 23  1  0
 23 24  2  0
 24 25  1  0
 22 26  1  0
 21 27  1  0
 20 28  1  0
 18 29  1  0
 29 30  2  0
 17 31  1  0
 10  4  1  0
 30 16  1  0
 24 19  1  0
M  END
>  <cnnaffinity>  (1) 
-5.07432

>  <filename>  (1) 
[H]c1nc([H])c(-n2nnc(C(=O)N([H])c3c([H])c([H])c(Br)c([H])c3[H])c2[H])c([H])c1[H]

$$$$
