
     RDKit          3D

 42 44  0  0  0  0  0  0  0  0999 V2000
    4.9718    1.7720   16.9856 H   0  0  0  0  0  0  0  0  0  0  0  0
    5.4395    1.2588   17.8238 C   0  0  0  0  0  0  0  0  0  0  0  0
    6.5945    0.6220   17.5694 N   0  0  0  0  0  0  0  0  0  0  0  0
    7.2096    0.0140   18.5951 C   0  0  0  0  0  0  0  0  0  0  0  0
    8.1442   -0.4892   18.3490 H   0  0  0  0  0  0  0  0  0  0  0  0
    6.7192    0.0198   19.9250 C   0  0  0  0  0  0  0  0  0  0  0  0
    7.4019   -0.5960   21.0067 N   0  0  0  0  0  0  0  0  0  0  0  0
    7.8536   -1.4822   20.8544 H   0  0  0  0  0  0  0  0  0  0  0  0
    7.4487   -0.1673   22.3152 C   0  0  0  0  0  0  0  0  0  0  0  0
    7.0883    0.9384   22.6724 O   0  0  0  0  0  0  0  0  0  0  0  0
    8.0346   -1.1998   23.2790 C   0  0  0  0  0  0  0  0  0  0  0  0
    9.5493   -1.0823   23.4604 C   0  0  0  0  0  0  0  0  0  0  0  0
    9.8654   -1.8503   24.1900 H   0  0  0  0  0  0  0  0  0  0  0  0
   10.3149   -1.3215   22.1485 C   0  0  0  0  0  0  0  0  0  0  0  0
   10.0563   -2.2892   21.7011 H   0  0  0  0  0  0  0  0  0  0  0  0
   10.0292   -0.5554   21.4202 H   0  0  0  0  0  0  0  0  0  0  0  0
   11.8315   -1.2351   22.3079 C   0  0  0  0  0  0  0  0  0  0  0  0
   12.2528   -2.1560   22.7253 H   0  0  0  0  0  0  0  0  0  0  0  0
   12.2688   -1.1352   21.3090 H   0  0  0  0  0  0  0  0  0  0  0  0
   12.2354   -0.0545   23.0883 N   0  0  0  0  0  0  0  0  0  0  0  0
   13.4481    0.5190   22.7718 C   0  0  0  0  0  0  0  0  0  0  0  0
   14.3061   -0.0726   22.1421 O   0  0  0  0  0  0  0  0  0  0  0  0
   13.5944    1.9585   23.2069 C   0  0  0  0  0  0  0  0  0  0  0  0
   14.4544    2.3860   22.7052 H   0  0  0  0  0  0  0  0  0  0  0  0
   12.6958    2.5220   22.9410 H   0  0  0  0  0  0  0  0  0  0  0  0
   13.7342    2.0216   24.2851 H   0  0  0  0  0  0  0  0  0  0  0  0
   11.4646    0.3149   24.2898 C   0  0  0  0  0  0  0  0  0  0  0  0
   11.7329    1.3225   24.6128 H   0  0  0  0  0  0  0  0  0  0  0  0
   11.7022   -0.3499   25.1381 H   0  0  0  0  0  0  0  0  0  0  0  0
    9.9631    0.2864   24.0194 C   0  0  0  0  0  0  0  0  0  0  0  0
    9.4085    0.5260   24.9363 H   0  0  0  0  0  0  0  0  0  0  0  0
    9.7070    1.0772   23.3058 H   0  0  0  0  0  0  0  0  0  0  0  0
    7.4194   -2.5740   23.4092 C   0  0  0  0  0  0  0  0  0  0  0  0
    8.0924   -3.3943   23.6528 H   0  0  0  0  0  0  0  0  0  0  0  0
    6.5836   -2.8452   22.7679 H   0  0  0  0  0  0  0  0  0  0  0  0
    7.1828   -1.5465   24.4796 C   0  0  0  0  0  0  0  0  0  0  0  0
    6.1878   -1.1074   24.5403 H   0  0  0  0  0  0  0  0  0  0  0  0
    7.6740   -1.6779   25.4436 H   0  0  0  0  0  0  0  0  0  0  0  0
    5.4997    0.6656   20.1634 C   0  0  0  0  0  0  0  0  0  0  0  0
    5.0974    0.6816   21.1748 H   0  0  0  0  0  0  0  0  0  0  0  0
    4.8480    1.2838   19.0917 C   0  0  0  0  0  0  0  0  0  0  0  0
    3.9073    1.8022   19.2385 H   0  0  0  0  0  0  0  0  0  0  0  0
  1  2  1  0
  2  3  2  0
  3  4  1  0
  4  5  1  0
  4  6  2  0
  6  7  1  0
  7  8  1  0
  7  9  1  0
  9 10  2  0
  9 11  1  0
 11 12  1  0
 12 13  1  0
 12 14  1  0
 14 15  1  0
 14 16  1  0
 14 17  1  0
 17 18  1  0
 17 19  1  0
 17 20  1  0
 20 21  1  0
 21 22  2  0
 21 23  1  0
 23 24  1  0
 23 25  1  0
 23 26  1  0
 20 27  1  0
 27 28  1  0
 27 29  1  0
 27 30  1  0
 30 31  1  0
 30 32  1  0
 11 33  1  0
 33 34  1  0
 33 35  1  0
 33 36  1  0
 36 37  1  0
 36 38  1  0
  6 39  1  0
 39 40  1  0
 39 41  2  0
 41 42  1  0
 41  2  1  0
 36 11  1  0
 30 12  1  0
M  END
>  <cnnaffinity>  (1) 
-5.77073

>  <filename>  (1) 
[H]c1nc([H])c(N([H])C(=O)C2(C3([H])C([H])([H])C([H])([H])N(C(=O)C([H])([H])[H])C([H])([H])C3([H])[H])C([H])([H])C2([H])[H])c([H])c1[H]

$$$$
