
     RDKit          3D

 40 43  0  0  0  0  0  0  0  0999 V2000
    7.0672   -4.0063   24.9475 O   0  0  0  0  0  0  0  0  0  0  0  0
    6.5147   -2.9891   24.5834 C   0  0  0  0  0  0  0  0  0  0  0  0
    7.2996   -1.7010   24.4675 C   0  0  0  0  0  0  0  0  0  0  0  0
    7.7052   -1.5005   23.0450 C   0  0  0  0  0  0  0  0  0  0  0  0
    8.8186   -2.0118   22.4520 C   0  0  0  0  0  0  0  0  0  0  0  0
    8.8641   -1.5534   20.7909 S   0  0  0  0  0  0  0  0  0  0  0  0
    7.3493   -0.7082   21.0134 C   0  0  0  0  0  0  0  0  0  0  0  0
    6.6490    0.0015   19.9346 C   0  0  0  0  0  0  0  0  0  0  0  0
    5.4253    0.6551   20.1762 C   0  0  0  0  0  0  0  0  0  0  0  0
    4.8041    1.3051   19.1148 C   0  0  0  0  0  0  0  0  0  0  0  0
    5.4126    1.2790   17.8555 C   0  0  0  0  0  0  0  0  0  0  0  0
    6.5742    0.6561   17.6103 N   0  0  0  0  0  0  0  0  0  0  0  0
    7.1751    0.0429   18.6324 C   0  0  0  0  0  0  0  0  0  0  0  0
    8.1246   -0.4333   18.3881 H   0  0  0  0  0  0  0  0  0  0  0  0
    4.9607    1.7772   17.0019 H   0  0  0  0  0  0  0  0  0  0  0  0
    3.8720    1.8419   19.2431 H   0  0  0  0  0  0  0  0  0  0  0  0
    4.9875    0.6486   21.1761 H   0  0  0  0  0  0  0  0  0  0  0  0
    6.8824   -0.7810   22.2260 N   0  0  0  0  0  0  0  0  0  0  0  0
    9.5981   -2.6098   22.9055 H   0  0  0  0  0  0  0  0  0  0  0  0
    6.7552   -0.8203   24.8153 H   0  0  0  0  0  0  0  0  0  0  0  0
    8.1729   -1.8662   25.0993 H   0  0  0  0  0  0  0  0  0  0  0  0
    5.2015   -2.9223   24.2172 N   0  0  0  0  0  0  0  0  0  0  0  0
    4.3356   -4.0283   24.0287 C   0  0  0  0  0  0  0  0  0  0  0  0
    4.8479   -5.2103   23.4949 C   0  0  0  0  0  0  0  0  0  0  0  0
    4.0224   -6.3173   23.2716 C   0  0  0  0  0  0  0  0  0  0  0  0
    2.6680   -6.2527   23.5910 C   0  0  0  0  0  0  0  0  0  0  0  0
    2.1394   -5.0758   24.1146 C   0  0  0  0  0  0  0  0  0  0  0  0
    2.9574   -3.9411   24.3187 C   0  0  0  0  0  0  0  0  0  0  0  0
    2.4293   -2.7620   24.7932 O   0  0  0  0  0  0  0  0  0  0  0  0
    1.0019   -2.6690   24.7645 C   0  0  0  0  0  0  0  0  0  0  0  0
    0.3437   -3.9796   25.1876 C   0  0  0  0  0  0  0  0  0  0  0  0
    0.7944   -5.0590   24.3739 O   0  0  0  0  0  0  0  0  0  0  0  0
    0.5609   -4.1972   26.2425 H   0  0  0  0  0  0  0  0  0  0  0  0
   -0.7366   -3.9376   25.0285 H   0  0  0  0  0  0  0  0  0  0  0  0
    0.7506   -1.8742   25.4686 H   0  0  0  0  0  0  0  0  0  0  0  0
    0.6722   -2.4034   23.7521 H   0  0  0  0  0  0  0  0  0  0  0  0
    1.9837   -7.0829   23.4533 H   0  0  0  0  0  0  0  0  0  0  0  0
    4.4398   -7.2313   22.8622 H   0  0  0  0  0  0  0  0  0  0  0  0
    5.9046   -5.2329   23.2764 H   0  0  0  0  0  0  0  0  0  0  0  0
    4.8085   -2.0033   24.0912 H   0  0  0  0  0  0  0  0  0  0  0  0
  1  2  2  0
  2  3  1  0
  3  4  1  0
  4  5  2  0
  5  6  1  0
  6  7  1  0
  7  8  1  0
  8  9  2  0
  9 10  1  0
 10 11  2  0
 11 12  1  0
 12 13  2  0
 13 14  1  0
 11 15  1  0
 10 16  1  0
  9 17  1  0
  7 18  2  0
  5 19  1  0
  3 20  1  0
  3 21  1  0
  2 22  1  0
 22 23  1  0
 23 24  2  0
 24 25  1  0
 25 26  2  0
 26 27  1  0
 27 28  2  0
 28 29  1  0
 29 30  1  0
 30 31  1  0
 31 32  1  0
 31 33  1  0
 31 34  1  0
 30 35  1  0
 30 36  1  0
 26 37  1  0
 25 38  1  0
 24 39  1  0
 22 40  1  0
 18  4  1  0
 28 23  1  0
 13  8  1  0
 32 27  1  0
M  END
>  <cnnaffinity>  (1) 
-5.75788

>  <filename>  (1) 
[H]c1nc([H])c(-c2nc(C([H])([H])C(=O)N([H])c3c([H])c([H])c([H])c4c3OC([H])([H])C([H])([H])O4)c([H])s2)c([H])c1[H]

$$$$
