
     RDKit          3D

 28 30  0  0  0  0  0  0  0  0999 V2000
    4.9537    1.8216   16.9720 H   0  0  0  0  0  0  0  0  0  0  0  0
    5.4142    1.2990   17.8068 C   0  0  0  0  0  0  0  0  0  0  0  0
    6.5678    0.6630   17.5539 N   0  0  0  0  0  0  0  0  0  0  0  0
    7.1565    0.0234   18.5677 C   0  0  0  0  0  0  0  0  0  0  0  0
    8.0934   -0.4874   18.3405 H   0  0  0  0  0  0  0  0  0  0  0  0
    6.6346    0.0036   19.8725 C   0  0  0  0  0  0  0  0  0  0  0  0
    7.3714   -0.7087   20.9245 C   0  0  0  0  0  0  0  0  0  0  0  0
    8.0111   -1.8514   20.8094 N   0  0  0  0  0  0  0  0  0  0  0  0
    8.4648   -2.1616   22.0451 N   0  0  0  0  0  0  0  0  0  0  0  0
    8.1478   -1.2544   22.8951 N   0  0  0  0  0  0  0  0  0  0  0  0
    7.4885   -0.2953   22.2240 N   0  0  0  0  0  0  0  0  0  0  0  0
    7.0181    0.8785   22.8395 N   0  0  0  0  0  0  0  0  0  0  0  0
    7.2908    1.6824   22.2756 H   0  0  0  0  0  0  0  0  0  0  0  0
    7.4674    1.1489   24.2143 C   0  0  0  0  0  0  0  0  0  0  0  0
    7.1332    0.3318   24.8576 H   0  0  0  0  0  0  0  0  0  0  0  0
    6.9143    2.0376   24.5342 H   0  0  0  0  0  0  0  0  0  0  0  0
    8.9506    1.3398   24.3868 C   0  0  0  0  0  0  0  0  0  0  0  0
    9.8104    2.7216   23.8062 S   0  0  0  0  0  0  0  0  0  0  0  0
   11.2873    2.1494   24.4834 C   0  0  0  0  0  0  0  0  0  0  0  0
   12.2065    2.7013   24.3445 H   0  0  0  0  0  0  0  0  0  0  0  0
   11.1278    0.9607   25.1219 C   0  0  0  0  0  0  0  0  0  0  0  0
   11.9259    0.4178   25.6118 H   0  0  0  0  0  0  0  0  0  0  0  0
    9.7791    0.5005   25.0678 C   0  0  0  0  0  0  0  0  0  0  0  0
    9.4260   -0.4288   25.5053 H   0  0  0  0  0  0  0  0  0  0  0  0
    5.4180    0.6658   20.1229 C   0  0  0  0  0  0  0  0  0  0  0  0
    4.9775    0.6748   21.1240 H   0  0  0  0  0  0  0  0  0  0  0  0
    4.7994    1.3165   19.0627 C   0  0  0  0  0  0  0  0  0  0  0  0
    3.8666    1.8510   19.2034 H   0  0  0  0  0  0  0  0  0  0  0  0
  1  2  1  0
  2  3  2  0
  3  4  1  0
  4  5  1  0
  4  6  2  0
  6  7  1  0
  7  8  2  0
  8  9  1  0
  9 10  2  0
 10 11  1  0
 11 12  1  0
 12 13  1  0
 12 14  1  0
 14 15  1  0
 14 16  1  0
 14 17  1  0
 17 18  1  0
 18 19  1  0
 19 20  1  0
 19 21  2  0
 21 22  1  0
 21 23  1  0
 23 24  1  0
  6 25  1  0
 25 26  1  0
 25 27  2  0
 27 28  1  0
 27  2  1  0
 11  7  1  0
 23 17  2  0
M  END
>  <cnnaffinity>  (1) 
-4.81785

>  <filename>  (1) 
[H]c1nc([H])c(-c2nnnn2N([H])C([H])([H])c2sc([H])c([H])c2[H])c([H])c1[H]

$$$$
