
     RDKit          3D

 40 44  0  0  0  0  0  0  0  0999 V2000
    4.6645    1.3220   18.7049 C   0  0  0  0  0  0  0  0  0  0  0  0
    5.2590    1.2444   17.4412 C   0  0  0  0  0  0  0  0  0  0  0  0
    6.3280    0.4800   17.1686 N   0  0  0  0  0  0  0  0  0  0  0  0
    6.8783   -0.1856   18.1905 C   0  0  0  0  0  0  0  0  0  0  0  0
    6.4222   -0.1077   19.5160 C   0  0  0  0  0  0  0  0  0  0  0  0
    7.2135   -0.6657   20.6880 C   0  0  0  0  0  0  0  0  0  0  0  0
    8.0751    0.3673   21.3556 C   0  0  0  0  0  0  0  0  0  0  0  0
    9.2820    0.6560   20.9030 N   0  0  0  0  0  0  0  0  0  0  0  0
    9.7143    1.5942   21.7681 N   0  0  0  0  0  0  0  0  0  0  0  0
   11.0753    2.0027   21.8412 C   0  0  0  0  0  0  0  0  0  0  0  0
   11.6666    2.9155   20.9696 C   0  0  0  0  0  0  0  0  0  0  0  0
   12.8688    3.5624   21.3302 C   0  0  0  0  0  0  0  0  0  0  0  0
   13.5637    3.1969   22.4832 C   0  0  0  0  0  0  0  0  0  0  0  0
   13.0689    2.1300   23.2524 C   0  0  0  0  0  0  0  0  0  0  0  0
   11.8306    1.5596   22.9362 C   0  0  0  0  0  0  0  0  0  0  0  0
   11.6517    0.5528   23.8592 N   0  0  0  0  0  0  0  0  0  0  0  0
   12.7537    0.5580   24.6605 C   0  0  0  0  0  0  0  0  0  0  0  0
   13.6205    1.4669   24.3285 N   0  0  0  0  0  0  0  0  0  0  0  0
   12.8771   -0.1437   25.4753 H   0  0  0  0  0  0  0  0  0  0  0  0
   10.9044   -0.1166   23.8685 H   0  0  0  0  0  0  0  0  0  0  0  0
   14.5020    3.6627   22.7578 H   0  0  0  0  0  0  0  0  0  0  0  0
   13.3333    4.2608   20.6342 H   0  0  0  0  0  0  0  0  0  0  0  0
   11.2107    3.1436   20.0159 H   0  0  0  0  0  0  0  0  0  0  0  0
    8.7340    1.8598   22.6810 C   0  0  0  0  0  0  0  0  0  0  0  0
    8.8352    2.8569   23.7487 C   0  0  0  0  0  0  0  0  0  0  0  0
    8.0197    3.0448   24.8233 C   0  0  0  0  0  0  0  0  0  0  0  0
    8.5622    4.1432   25.5555 C   0  0  0  0  0  0  0  0  0  0  0  0
    9.6615    4.5502   24.8689 C   0  0  0  0  0  0  0  0  0  0  0  0
    9.8470    3.7808   23.7671 O   0  0  0  0  0  0  0  0  0  0  0  0
   10.4013    5.3182   25.0440 H   0  0  0  0  0  0  0  0  0  0  0  0
    8.1768    4.5531   26.4785 H   0  0  0  0  0  0  0  0  0  0  0  0
    7.1468    2.4441   25.0443 H   0  0  0  0  0  0  0  0  0  0  0  0
    7.6951    1.0666   22.4479 N   0  0  0  0  0  0  0  0  0  0  0  0
    7.8661   -1.4835   20.3664 H   0  0  0  0  0  0  0  0  0  0  0  0
    6.5312   -1.0500   21.4510 H   0  0  0  0  0  0  0  0  0  0  0  0
    5.2617    0.6345   19.7617 C   0  0  0  0  0  0  0  0  0  0  0  0
    4.8673    0.6847   20.7789 H   0  0  0  0  0  0  0  0  0  0  0  0
    7.7433   -0.8094   17.9571 H   0  0  0  0  0  0  0  0  0  0  0  0
    4.8780    1.8330   16.6104 H   0  0  0  0  0  0  0  0  0  0  0  0
    3.7859    1.9409   18.8513 H   0  0  0  0  0  0  0  0  0  0  0  0
  1  2  2  0
  2  3  1  0
  3  4  2  0
  4  5  1  0
  5  6  1  0
  6  7  1  0
  7  8  2  0
  8  9  1  0
  9 10  1  0
 10 11  2  0
 11 12  1  0
 12 13  2  0
 13 14  1  0
 14 15  2  0
 15 16  1  0
 16 17  1  0
 17 18  2  0
 17 19  1  0
 16 20  1  0
 13 21  1  0
 12 22  1  0
 11 23  1  0
  9 24  1  0
 24 25  1  0
 25 26  2  0
 26 27  1  0
 27 28  2  0
 28 29  1  0
 28 30  1  0
 27 31  1  0
 26 32  1  0
 24 33  2  0
  6 34  1  0
  6 35  1  0
  5 36  2  0
 36 37  1  0
  4 38  1  0
  2 39  1  0
  1 40  1  0
 36  1  1  0
 33  7  1  0
 15 10  1  0
 29 25  1  0
 18 14  1  0
M  END
>  <cnnaffinity>  (1) 
-6.08851

>  <filename>  (1) 
[H]c1nc([H])c(C([H])([H])c2nc(-c3oc([H])c([H])c3[H])n(-c3c([H])c([H])c([H])c4nc([H])n([H])c34)n2)c([H])c1[H]

$$$$
