
     RDKit          3D

 33 35  0  0  0  0  0  0  0  0999 V2000
   14.5975    5.4458   22.5185 O   0  0  0  0  0  0  0  0  0  0  0  0
   13.5447    4.8675   22.6263 C   0  0  0  0  0  0  0  0  0  0  0  0
   12.2640    5.3036   23.3282 C   0  0  0  0  0  0  0  0  0  0  0  0
   11.2501    4.3006   22.8492 C   0  0  0  0  0  0  0  0  0  0  0  0
    9.8732    4.2110   22.9726 C   0  0  0  0  0  0  0  0  0  0  0  0
    9.2108    3.1098   22.4103 C   0  0  0  0  0  0  0  0  0  0  0  0
    9.9316    2.0983   21.7608 C   0  0  0  0  0  0  0  0  0  0  0  0
    9.2657    0.9624   21.2661 N   0  0  0  0  0  0  0  0  0  0  0  0
    8.1778    0.3566   21.8692 C   0  0  0  0  0  0  0  0  0  0  0  0
    7.7748    0.6263   22.9779 O   0  0  0  0  0  0  0  0  0  0  0  0
    7.4595   -0.6904   20.9139 C   0  0  0  0  0  0  0  0  0  0  0  0
    6.6851   -1.5254   21.6436 F   0  0  0  0  0  0  0  0  0  0  0  0
    8.4446   -1.4749   20.3427 F   0  0  0  0  0  0  0  0  0  0  0  0
    6.6413   -0.0494   19.8088 C   0  0  0  0  0  0  0  0  0  0  0  0
    5.4481    0.6298   20.0903 C   0  0  0  0  0  0  0  0  0  0  0  0
    4.8289    1.3182   19.0487 C   0  0  0  0  0  0  0  0  0  0  0  0
    5.4176    1.3051   17.7795 C   0  0  0  0  0  0  0  0  0  0  0  0
    6.5351    0.6217   17.4917 N   0  0  0  0  0  0  0  0  0  0  0  0
    7.1128   -0.0549   18.4862 C   0  0  0  0  0  0  0  0  0  0  0  0
    7.9931   -0.6372   18.2236 H   0  0  0  0  0  0  0  0  0  0  0  0
    4.9671    1.8577   16.9573 H   0  0  0  0  0  0  0  0  0  0  0  0
    3.9061    1.8637   19.2049 H   0  0  0  0  0  0  0  0  0  0  0  0
    5.0162    0.6183   21.0922 H   0  0  0  0  0  0  0  0  0  0  0  0
    9.8129    0.3886   20.6444 H   0  0  0  0  0  0  0  0  0  0  0  0
   11.3097    2.2060   21.5655 C   0  0  0  0  0  0  0  0  0  0  0  0
   11.9396    3.3052   22.1285 C   0  0  0  0  0  0  0  0  0  0  0  0
   13.2877    3.6269   22.0954 N   0  0  0  0  0  0  0  0  0  0  0  0
   13.9641    3.2448   21.4628 H   0  0  0  0  0  0  0  0  0  0  0  0
   11.8700    1.4802   20.9860 H   0  0  0  0  0  0  0  0  0  0  0  0
    8.1352    3.0320   22.4401 H   0  0  0  0  0  0  0  0  0  0  0  0
    9.3038    4.9650   23.5135 H   0  0  0  0  0  0  0  0  0  0  0  0
   12.4568    5.2053   24.3960 H   0  0  0  0  0  0  0  0  0  0  0  0
   12.0445    6.3485   23.1313 H   0  0  0  0  0  0  0  0  0  0  0  0
  1  2  2  0
  2  3  1  0
  3  4  1  0
  4  5  2  0
  5  6  1  0
  6  7  2  0
  7  8  1  0
  8  9  1  0
  9 10  2  0
  9 11  1  0
 11 12  1  0
 11 13  1  0
 11 14  1  0
 14 15  2  0
 15 16  1  0
 16 17  2  0
 17 18  1  0
 18 19  2  0
 19 20  1  0
 17 21  1  0
 16 22  1  0
 15 23  1  0
  8 24  1  0
  7 25  1  0
 25 26  2  0
 26 27  1  0
 27 28  1  0
 25 29  1  0
  6 30  1  0
  5 31  1  0
  3 32  1  0
  3 33  1  0
 27  2  1  0
 26  4  1  0
 19 14  1  0
M  END
>  <cnnaffinity>  (1) 
-5.64233

>  <filename>  (1) 
[H]c1nc([H])c(C(F)(F)C(=O)N([H])c2c([H])c([H])c3c(c2[H])N([H])C(=O)C3([H])[H])c([H])c1[H]

$$$$
