
     RDKit          3D

 38 39  0  0  0  0  0  0  0  0999 V2000
    4.9122    1.7986   16.9814 H   0  0  0  0  0  0  0  0  0  0  0  0
    5.3856    1.3025   17.8237 C   0  0  0  0  0  0  0  0  0  0  0  0
    6.5432    0.6819   17.5533 N   0  0  0  0  0  0  0  0  0  0  0  0
    7.1526    0.0679   18.5695 C   0  0  0  0  0  0  0  0  0  0  0  0
    8.1092   -0.4068   18.3630 H   0  0  0  0  0  0  0  0  0  0  0  0
    6.6434    0.0057   19.8808 C   0  0  0  0  0  0  0  0  0  0  0  0
    7.3574   -0.7071   20.9517 C   0  0  0  0  0  0  0  0  0  0  0  0
    6.6956   -1.6301   21.7386 C   0  0  0  0  0  0  0  0  0  0  0  0
    5.6440   -1.8338   21.5309 H   0  0  0  0  0  0  0  0  0  0  0  0
    7.3453   -2.3421   22.7875 C   0  0  0  0  0  0  0  0  0  0  0  0
    6.6068   -3.3962   23.5706 C   0  0  0  0  0  0  0  0  0  0  0  0
    5.5578   -3.0986   23.6883 H   0  0  0  0  0  0  0  0  0  0  0  0
    7.0245   -3.4748   24.5870 H   0  0  0  0  0  0  0  0  0  0  0  0
    6.6689   -4.7641   22.8726 C   0  0  0  0  0  0  0  0  0  0  0  0
    6.2362   -4.6808   21.8674 H   0  0  0  0  0  0  0  0  0  0  0  0
    7.7159   -5.0555   22.7254 H   0  0  0  0  0  0  0  0  0  0  0  0
    5.9720   -5.8675   23.6616 C   0  0  0  0  0  0  0  0  0  0  0  0
    6.4763   -5.9423   24.6359 H   0  0  0  0  0  0  0  0  0  0  0  0
    6.1169   -6.8442   23.1565 H   0  0  0  0  0  0  0  0  0  0  0  0
    4.5546   -5.5921   23.8968 N   0  0  0  0  0  0  0  0  0  0  0  0
    3.7422   -5.9047   22.7314 C   0  0  0  0  0  0  0  0  0  0  0  0
    2.6950   -5.6514   22.9311 H   0  0  0  0  0  0  0  0  0  0  0  0
    4.0694   -5.3163   21.8679 H   0  0  0  0  0  0  0  0  0  0  0  0
    3.7927   -6.9776   22.4565 H   0  0  0  0  0  0  0  0  0  0  0  0
    4.0649   -6.2902   25.0752 C   0  0  0  0  0  0  0  0  0  0  0  0
    4.6138   -5.9571   25.9648 H   0  0  0  0  0  0  0  0  0  0  0  0
    4.1601   -7.3921   24.9984 H   0  0  0  0  0  0  0  0  0  0  0  0
    3.0082   -6.0501   25.2333 H   0  0  0  0  0  0  0  0  0  0  0  0
    8.6697   -2.1000   23.0129 C   0  0  0  0  0  0  0  0  0  0  0  0
    9.2470   -2.6208   23.7785 H   0  0  0  0  0  0  0  0  0  0  0  0
    9.3279   -1.1833   22.2432 N   0  0  0  0  0  0  0  0  0  0  0  0
   10.2932   -0.9134   22.3352 H   0  0  0  0  0  0  0  0  0  0  0  0
    8.7798   -0.4227   21.2157 C   0  0  0  0  0  0  0  0  0  0  0  0
    9.5407    0.3675   20.6780 O   0  0  0  0  0  0  0  0  0  0  0  0
    5.4214    0.6450   20.1396 C   0  0  0  0  0  0  0  0  0  0  0  0
    5.0123    0.6341   21.1546 H   0  0  0  0  0  0  0  0  0  0  0  0
    4.7959    1.3191   19.0938 C   0  0  0  0  0  0  0  0  0  0  0  0
    3.8664    1.8530   19.2454 H   0  0  0  0  0  0  0  0  0  0  0  0
  1  2  1  0
  2  3  2  0
  3  4  1  0
  4  5  1  0
  4  6  2  0
  6  7  1  0
  7  8  2  0
  8  9  1  0
  8 10  1  0
 10 11  1  0
 11 12  1  0
 11 13  1  0
 11 14  1  0
 14 15  1  0
 14 16  1  0
 14 17  1  0
 17 18  1  0
 17 19  1  0
 17 20  1  0
 20 21  1  0
 21 22  1  0
 21 23  1  0
 21 24  1  0
 20 25  1  0
 25 26  1  0
 25 27  1  0
 25 28  1  0
 10 29  2  0
 29 30  1  0
 29 31  1  0
 31 32  1  0
 31 33  1  0
 33 34  2  0
  6 35  1  0
 35 36  1  0
 35 37  2  0
 37 38  1  0
 37  2  1  0
 33  7  1  0
M  END
>  <cnnaffinity>  (1) 
-5.17224

>  <filename>  (1) 
[H]c1nc([H])c(-c2c([H])c(C([H])([H])C([H])([H])C([H])([H])N(C([H])([H])[H])C([H])([H])[H])c([H])n([H])c2=O)c([H])c1[H]

$$$$
