
     RDKit          3D

 46 48  0  0  0  0  0  0  0  0999 V2000
    4.9421    1.7889   17.0035 H   0  0  0  0  0  0  0  0  0  0  0  0
    5.4174    1.2903   17.8441 C   0  0  0  0  0  0  0  0  0  0  0  0
    6.5790    0.6698   17.5867 N   0  0  0  0  0  0  0  0  0  0  0  0
    7.1828    0.0382   18.6039 C   0  0  0  0  0  0  0  0  0  0  0  0
    8.1282   -0.4348   18.3461 H   0  0  0  0  0  0  0  0  0  0  0  0
    6.6825   -0.0286   19.9401 C   0  0  0  0  0  0  0  0  0  0  0  0
    7.2931   -0.7652   20.9703 N   0  0  0  0  0  0  0  0  0  0  0  0
    7.2528   -0.3771   22.3877 C   0  0  1  0  0  0  0  0  0  0  0  0
    6.2375   -0.1139   22.7051 H   0  0  0  0  0  0  0  0  0  0  0  0
    7.7525   -1.6650   23.0852 C   0  0  0  0  0  0  0  0  0  0  0  0
    6.9000   -2.2850   23.3866 H   0  0  0  0  0  0  0  0  0  0  0  0
    8.3294   -1.4319   23.9845 H   0  0  0  0  0  0  0  0  0  0  0  0
    8.6168   -2.3740   22.0105 C   0  0  0  0  0  0  0  0  0  0  0  0
    9.6309   -2.5757   22.3612 H   0  0  0  0  0  0  0  0  0  0  0  0
    8.1653   -3.3192   21.6913 H   0  0  0  0  0  0  0  0  0  0  0  0
    8.6106   -1.3845   20.8346 C   0  0  2  0  0  0  0  0  0  0  0  0
    8.7176   -1.8639   19.8636 H   0  0  0  0  0  0  0  0  0  0  0  0
    9.7290   -0.3315   20.9028 C   0  0  0  0  0  0  0  0  0  0  0  0
   10.6830   -0.8698   20.9421 H   0  0  0  0  0  0  0  0  0  0  0  0
    9.6838    0.1968   19.9474 H   0  0  0  0  0  0  0  0  0  0  0  0
    9.6302    0.6932   22.0664 C   0  0  2  0  0  0  0  0  0  0  0  0
    9.9463    1.6680   21.6686 H   0  0  0  0  0  0  0  0  0  0  0  0
   10.6524    0.3830   23.1802 C   0  0  0  0  0  0  0  0  0  0  0  0
   10.8675   -0.7649   23.5480 O   0  0  0  0  0  0  0  0  0  0  0  0
   11.3302    1.4520   23.7314 N   0  0  0  0  0  0  0  0  0  0  0  0
   10.8934    2.8544   23.6731 C   0  0  0  0  0  0  0  0  0  0  0  0
    9.8141    2.8993   23.4833 H   0  0  0  0  0  0  0  0  0  0  0  0
   11.0333    3.2868   24.6742 H   0  0  0  0  0  0  0  0  0  0  0  0
   11.6677    3.7103   22.6694 C   0  0  0  0  0  0  0  0  0  0  0  0
   12.7242    3.7983   22.9503 H   0  0  0  0  0  0  0  0  0  0  0  0
   11.6220    3.2975   21.6545 H   0  0  0  0  0  0  0  0  0  0  0  0
   11.2550    4.7256   22.6380 H   0  0  0  0  0  0  0  0  0  0  0  0
   12.6079    1.1493   24.3839 C   0  0  0  0  0  0  0  0  0  0  0  0
   12.4509    0.3674   25.1392 H   0  0  0  0  0  0  0  0  0  0  0  0
   12.8890    2.0599   24.9029 H   0  0  0  0  0  0  0  0  0  0  0  0
   13.7060    0.7261   23.4073 C   0  0  0  0  0  0  0  0  0  0  0  0
   13.8882    1.5038   22.6570 H   0  0  0  0  0  0  0  0  0  0  0  0
   14.6350    0.5551   23.9533 H   0  0  0  0  0  0  0  0  0  0  0  0
   13.4546   -0.2048   22.8882 H   0  0  0  0  0  0  0  0  0  0  0  0
    8.1790    0.8422   22.6332 C   0  0  0  0  0  0  0  0  0  0  0  0
    8.2036    1.0365   23.7125 H   0  0  0  0  0  0  0  0  0  0  0  0
    7.6995    1.7109   22.1630 H   0  0  0  0  0  0  0  0  0  0  0  0
    5.4626    0.6409   20.1692 C   0  0  0  0  0  0  0  0  0  0  0  0
    5.0122    0.6255   21.1589 H   0  0  0  0  0  0  0  0  0  0  0  0
    4.8320    1.3036   19.1133 C   0  0  0  0  0  0  0  0  0  0  0  0
    3.8922    1.8272   19.2672 H   0  0  0  0  0  0  0  0  0  0  0  0
  1  2  1  0
  2  3  2  0
  3  4  1  0
  4  5  1  0
  4  6  2  0
  6  7  1  0
  7  8  1  0
  8  9  1  1
  8 10  1  0
 10 11  1  0
 10 12  1  0
 10 13  1  0
 13 14  1  0
 13 15  1  0
 13 16  1  0
 16 17  1  6
 16 18  1  0
 18 19  1  0
 18 20  1  0
 18 21  1  0
 21 22  1  6
 21 23  1  0
 23 24  2  0
 23 25  1  0
 25 26  1  0
 26 27  1  0
 26 28  1  0
 26 29  1  0
 29 30  1  0
 29 31  1  0
 29 32  1  0
 25 33  1  0
 33 34  1  0
 33 35  1  0
 33 36  1  0
 36 37  1  0
 36 38  1  0
 36 39  1  0
 21 40  1  0
 40 41  1  0
 40 42  1  0
  6 43  1  0
 43 44  1  0
 43 45  2  0
 45 46  1  0
 45  2  1  0
 16  7  1  0
 40  8  1  0
M  END
>  <cnnaffinity>  (1) 
-5.32612

>  <filename>  (1) 
[H]c1nc([H])c(N2[C@@]3([H])C([H])([H])C([H])([H])[C@]2([H])C([H])([H])[C@]([H])(C(=O)N(C([H])([H])C([H])([H])[H])C([H])([H])C([H])([H])[H])C3([H])[H])c([H])c1[H]

$$$$
