
     RDKit          3D

 28 30  0  0  0  0  0  0  0  0999 V2000
    7.7309   -1.7604   20.6779 H   0  0  0  0  0  0  0  0  0  0  0  0
    7.3744   -0.7626   20.9465 C   0  0  0  0  0  0  0  0  0  0  0  0
    7.6207   -0.3239   22.1942 C   0  0  0  0  0  0  0  0  0  0  0  0
    8.2843   -1.4142   23.3767 Cl  0  0  0  0  0  0  0  0  0  0  0  0
    7.4266    1.0764   22.5958 C   0  0  0  0  0  0  0  0  0  0  0  0
    7.0685    1.3609   23.8877 O   0  0  0  0  0  0  0  0  0  0  0  0
    6.9542    2.7196   23.9673 C   0  0  0  0  0  0  0  0  0  0  0  0
    6.6165    3.4742   25.0984 C   0  0  0  0  0  0  0  0  0  0  0  0
    6.3971    2.9853   26.0460 H   0  0  0  0  0  0  0  0  0  0  0  0
    6.5887    4.8636   24.9308 C   0  0  0  0  0  0  0  0  0  0  0  0
    6.3339    5.4988   25.7788 H   0  0  0  0  0  0  0  0  0  0  0  0
    6.8825    5.4773   23.6856 C   0  0  0  0  0  0  0  0  0  0  0  0
    6.8497    6.5646   23.5910 H   0  0  0  0  0  0  0  0  0  0  0  0
    7.2132    4.7061   22.5747 C   0  0  0  0  0  0  0  0  0  0  0  0
    7.4429    5.1495   21.6050 H   0  0  0  0  0  0  0  0  0  0  0  0
    7.2515    3.3068   22.7248 C   0  0  0  0  0  0  0  0  0  0  0  0
    7.5548    2.2152   21.8564 C   0  0  0  0  0  0  0  0  0  0  0  0
    7.8128    2.2841   20.8100 H   0  0  0  0  0  0  0  0  0  0  0  0
    6.6463   -0.0048   19.8907 C   0  0  0  0  0  0  0  0  0  0  0  0
    7.1589    0.0628   18.5807 C   0  0  0  0  0  0  0  0  0  0  0  0
    8.1108   -0.4181   18.3637 H   0  0  0  0  0  0  0  0  0  0  0  0
    6.5658    0.6852   17.5576 N   0  0  0  0  0  0  0  0  0  0  0  0
    5.3997    1.2998   17.8265 C   0  0  0  0  0  0  0  0  0  0  0  0
    4.9164    1.7923   16.9866 H   0  0  0  0  0  0  0  0  0  0  0  0
    4.7990    1.3078   19.0909 C   0  0  0  0  0  0  0  0  0  0  0  0
    3.8702    1.8459   19.2470 H   0  0  0  0  0  0  0  0  0  0  0  0
    5.4238    0.6396   20.1466 C   0  0  0  0  0  0  0  0  0  0  0  0
    5.0094    0.6339   21.1605 H   0  0  0  0  0  0  0  0  0  0  0  0
  1  2  1  0
  2  3  2  3
  3  4  1  0
  3  5  1  0
  5  6  1  0
  6  7  1  0
  7  8  2  0
  8  9  1  0
  8 10  1  0
 10 11  1  0
 10 12  2  0
 12 13  1  0
 12 14  1  0
 14 15  1  0
 14 16  2  0
 16 17  1  0
 17 18  1  0
  2 19  1  0
 19 20  2  0
 20 21  1  0
 20 22  1  0
 22 23  2  0
 23 24  1  0
 23 25  1  0
 25 26  1  0
 25 27  2  0
 27 28  1  0
 17  5  2  0
 27 19  1  0
 16  7  1  0
M  END
>  <cnnaffinity>  (1) 
-4.66668

>  <filename>  (1) 
[H]C(=C(Cl)c1oc2c([H])c([H])c([H])c([H])c2c1[H])c1c([H])nc([H])c([H])c1[H]

$$$$
