
     RDKit          3D

 37 41  0  0  0  0  0  0  0  0999 V2000
    4.9614    1.7837   17.0051 H   0  0  0  0  0  0  0  0  0  0  0  0
    5.4342    1.2680   17.8381 C   0  0  0  0  0  0  0  0  0  0  0  0
    6.5939    0.6425   17.5808 N   0  0  0  0  0  0  0  0  0  0  0  0
    7.2149    0.0370   18.6042 C   0  0  0  0  0  0  0  0  0  0  0  0
    8.1506   -0.4602   18.3597 H   0  0  0  0  0  0  0  0  0  0  0  0
    6.7377    0.0067   19.9528 C   0  0  0  0  0  0  0  0  0  0  0  0
    7.4359   -0.5800   20.9924 N   0  0  0  0  0  0  0  0  0  0  0  0
    6.9144   -0.6938   22.3516 C   0  0  0  0  0  0  0  0  0  0  0  0
    5.9518   -1.2153   22.3305 H   0  0  0  0  0  0  0  0  0  0  0  0
    6.7659    0.2978   22.8018 H   0  0  0  0  0  0  0  0  0  0  0  0
    7.9415   -1.5180   23.1128 C   0  0  1  0  0  0  0  0  0  0  0  0
    8.1487   -1.2404   24.1420 H   0  0  0  0  0  0  0  0  0  0  0  0
    8.0938   -2.9777   22.7412 C   0  0  1  0  0  0  0  0  0  0  0  0
    8.6118   -3.5431   23.5213 H   0  0  0  0  0  0  0  0  0  0  0  0
    7.0465   -3.7812   22.0470 C   0  0  0  0  0  0  0  0  0  0  0  0
    7.2620   -4.5703   20.9600 C   0  0  0  0  0  0  0  0  0  0  0  0
    8.1877   -4.6586   20.4105 H   0  0  0  0  0  0  0  0  0  0  0  0
    5.9050   -5.5475   20.5038 S   0  0  0  0  0  0  0  0  0  0  0  0
    4.9823   -4.9564   21.8555 C   0  0  0  0  0  0  0  0  0  0  0  0
    3.6919   -5.3710   22.2499 C   0  0  0  0  0  0  0  0  0  0  0  0
    3.1537   -6.1336   21.6986 H   0  0  0  0  0  0  0  0  0  0  0  0
    3.1124   -4.7814   23.3635 C   0  0  0  0  0  0  0  0  0  0  0  0
    2.1205   -5.0834   23.6786 H   0  0  0  0  0  0  0  0  0  0  0  0
    3.8109   -3.8039   24.1066 C   0  0  0  0  0  0  0  0  0  0  0  0
    3.3341   -3.3230   24.9538 H   0  0  0  0  0  0  0  0  0  0  0  0
    5.1006   -3.4312   23.7461 C   0  0  0  0  0  0  0  0  0  0  0  0
    5.6589   -2.7258   24.3565 H   0  0  0  0  0  0  0  0  0  0  0  0
    5.7105   -4.0062   22.6027 C   0  0  0  0  0  0  0  0  0  0  0  0
    9.0132   -1.9249   22.1483 C   0  0  1  0  0  0  0  0  0  0  0  0
   10.0593   -2.0300   22.4167 H   0  0  0  0  0  0  0  0  0  0  0  0
    8.7139   -1.2528   20.8231 C   0  0  0  0  0  0  0  0  0  0  0  0
    9.4991   -0.5246   20.5716 H   0  0  0  0  0  0  0  0  0  0  0  0
    8.6750   -1.9761   20.0115 H   0  0  0  0  0  0  0  0  0  0  0  0
    5.4919    0.6387   20.1711 C   0  0  0  0  0  0  0  0  0  0  0  0
    5.0583    0.6289   21.1678 H   0  0  0  0  0  0  0  0  0  0  0  0
    4.8477    1.2766   19.1077 C   0  0  0  0  0  0  0  0  0  0  0  0
    3.9069    1.7931   19.2645 H   0  0  0  0  0  0  0  0  0  0  0  0
  1  2  1  0
  2  3  2  0
  3  4  1  0
  4  5  1  0
  4  6  2  0
  6  7  1  0
  7  8  1  0
  8  9  1  0
  8 10  1  0
  8 11  1  0
 11 12  1  1
 11 13  1  0
 13 14  1  1
 13 15  1  0
 15 16  2  0
 16 17  1  0
 16 18  1  0
 18 19  1  0
 19 20  2  0
 20 21  1  0
 20 22  1  0
 22 23  1  0
 22 24  2  0
 24 25  1  0
 24 26  1  0
 26 27  1  0
 26 28  2  0
 13 29  1  0
 29 30  1  1
 29 31  1  0
 31 32  1  0
 31 33  1  0
  6 34  1  0
 34 35  1  0
 34 36  2  0
 36 37  1  0
 36  2  1  0
 31  7  1  0
 29 11  1  0
 28 15  1  0
 28 19  1  0
M  END
>  <cnnaffinity>  (1) 
-5.60568

>  <filename>  (1) 
[H]c1nc([H])c(N2C([H])([H])[C@@]3([H])[C@@]([H])(c4c([H])sc5c([H])c([H])c([H])c([H])c45)[C@@]3([H])C2([H])[H])c([H])c1[H]

$$$$
