
     RDKit          3D

 31 31  0  0  0  0  0  0  0  0999 V2000
    5.0021    1.8412   16.9468 H   0  0  0  0  0  0  0  0  0  0  0  0
    5.4653    1.3009   17.7728 C   0  0  0  0  0  0  0  0  0  0  0  0
    6.6330    0.6878   17.5095 N   0  0  0  0  0  0  0  0  0  0  0  0
    7.2419    0.0340   18.5092 C   0  0  0  0  0  0  0  0  0  0  0  0
    8.1987   -0.4368   18.2848 H   0  0  0  0  0  0  0  0  0  0  0  0
    6.7105   -0.0589   19.8084 C   0  0  0  0  0  0  0  0  0  0  0  0
    7.4334   -0.6797   20.8813 N   0  0  0  0  0  0  0  0  0  0  0  0
    8.0074   -0.0180   21.3944 H   0  0  0  0  0  0  0  0  0  0  0  0
    6.8248   -1.5860   21.7345 C   0  0  0  0  0  0  0  0  0  0  0  0
    5.8979   -2.2982   21.4216 O   0  0  0  0  0  0  0  0  0  0  0  0
    7.4637   -1.6192   23.2294 C   0  0  0  0  0  0  0  0  0  0  0  0
    7.1361   -2.7768   23.8421 F   0  0  0  0  0  0  0  0  0  0  0  0
    8.8234   -1.6014   23.1503 F   0  0  0  0  0  0  0  0  0  0  0  0
    7.0293   -0.5763   24.1369 N   0  0  0  0  0  0  0  0  0  0  0  0
    6.7858   -0.9222   25.0518 H   0  0  0  0  0  0  0  0  0  0  0  0
    7.4912    0.7090   24.0253 C   0  0  0  0  0  0  0  0  0  0  0  0
    8.1683    1.0556   23.0686 O   0  0  0  0  0  0  0  0  0  0  0  0
    6.9970    1.6742   25.0753 C   0  0  0  0  0  0  0  0  0  0  0  0
    6.7722    1.1323   25.9997 H   0  0  0  0  0  0  0  0  0  0  0  0
    7.8095    2.3709   25.2969 H   0  0  0  0  0  0  0  0  0  0  0  0
    5.7620    2.4534   24.5785 C   0  0  0  0  0  0  0  0  0  0  0  0
    5.5291    3.2644   25.2774 H   0  0  0  0  0  0  0  0  0  0  0  0
    6.0216    2.9309   23.6240 H   0  0  0  0  0  0  0  0  0  0  0  0
    4.5315    1.5743   24.3946 C   0  0  0  0  0  0  0  0  0  0  0  0
    3.6680    2.1663   24.0821 H   0  0  0  0  0  0  0  0  0  0  0  0
    4.2654    1.0489   25.3172 H   0  0  0  0  0  0  0  0  0  0  0  0
    4.7133    0.8174   23.6280 H   0  0  0  0  0  0  0  0  0  0  0  0
    5.4961    0.5822   20.0676 C   0  0  0  0  0  0  0  0  0  0  0  0
    5.0839    0.5414   21.0761 H   0  0  0  0  0  0  0  0  0  0  0  0
    4.8601    1.2784   19.0329 C   0  0  0  0  0  0  0  0  0  0  0  0
    3.9302    1.8146   19.1983 H   0  0  0  0  0  0  0  0  0  0  0  0
  1  2  1  0
  2  3  2  0
  3  4  1  0
  4  5  1  0
  4  6  2  0
  6  7  1  0
  7  8  1  0
  7  9  1  0
  9 10  2  0
  9 11  1  0
 11 12  1  0
 11 13  1  0
 11 14  1  0
 14 15  1  0
 14 16  1  0
 16 17  2  0
 16 18  1  0
 18 19  1  0
 18 20  1  0
 18 21  1  0
 21 22  1  0
 21 23  1  0
 21 24  1  0
 24 25  1  0
 24 26  1  0
 24 27  1  0
  6 28  1  0
 28 29  1  0
 28 30  2  0
 30 31  1  0
 30  2  1  0
M  END
>  <cnnaffinity>  (1) 
-4.86058

>  <filename>  (1) 
[H]c1nc([H])c(N([H])C(=O)C(F)(F)N([H])C(=O)C([H])([H])C([H])([H])C([H])([H])[H])c([H])c1[H]

$$$$
