
     RDKit          3D

 46 49  0  0  0  0  0  0  0  0999 V2000
    6.8072    1.0315   27.4167 C   0  0  0  0  0  0  0  0  0  0  0  0
    7.4898    1.3204   26.1251 C   0  0  0  0  0  0  0  0  0  0  0  0
    6.9354    1.2321   24.9440 N   0  0  0  0  0  0  0  0  0  0  0  0
    7.9381    1.4969   24.0511 C   0  0  0  0  0  0  0  0  0  0  0  0
    9.1132    1.7762   24.6925 C   0  0  0  0  0  0  0  0  0  0  0  0
   10.3674    2.2135   24.0006 C   0  0  0  0  0  0  0  0  0  0  0  0
   10.3025    1.8015   22.5069 C   0  0  0  0  0  0  0  0  0  0  0  0
    8.9553    2.1522   21.8404 C   0  0  0  0  0  0  0  0  0  0  0  0
    7.7955    1.3936   22.5703 C   0  0  0  0  0  0  0  0  0  0  0  0
    7.7956   -0.0659   22.1614 C   0  0  0  0  0  0  0  0  0  0  0  0
    8.4059   -1.0673   22.7740 N   0  0  0  0  0  0  0  0  0  0  0  0
    8.3563   -2.0712   21.8556 C   0  0  0  0  0  0  0  0  0  0  0  0
    8.7842   -3.4735   22.1305 C   0  0  0  0  0  0  0  0  0  0  0  0
    7.8197   -4.1610   23.1138 C   0  0  0  0  0  0  0  0  0  0  0  0
    8.1992   -5.5217   23.6621 C   0  0  0  0  0  0  0  0  0  0  0  0
    8.3420   -6.4533   22.7009 F   0  0  0  0  0  0  0  0  0  0  0  0
    7.2273   -5.9494   24.4878 F   0  0  0  0  0  0  0  0  0  0  0  0
    9.3426   -5.4949   24.3676 F   0  0  0  0  0  0  0  0  0  0  0  0
    6.8502   -4.3139   22.6318 H   0  0  0  0  0  0  0  0  0  0  0  0
    7.6614   -3.5227   23.9905 H   0  0  0  0  0  0  0  0  0  0  0  0
    9.7979   -3.4521   22.5403 H   0  0  0  0  0  0  0  0  0  0  0  0
    8.7821   -3.9886   21.1653 H   0  0  0  0  0  0  0  0  0  0  0  0
    7.7895   -1.7529   20.7176 N   0  0  0  0  0  0  0  0  0  0  0  0
    7.3809   -0.4809   20.9239 N   0  0  0  0  0  0  0  0  0  0  0  0
    6.6355    0.1411   19.8941 C   0  0  0  0  0  0  0  0  0  0  0  0
    5.4144    0.7806   20.1201 C   0  0  0  0  0  0  0  0  0  0  0  0
    4.7861    1.3793   19.0229 C   0  0  0  0  0  0  0  0  0  0  0  0
    5.4007    1.3195   17.7682 C   0  0  0  0  0  0  0  0  0  0  0  0
    6.5447    0.6477   17.5389 N   0  0  0  0  0  0  0  0  0  0  0  0
    7.1246    0.0497   18.5797 C   0  0  0  0  0  0  0  0  0  0  0  0
    8.0169   -0.5419   18.3850 H   0  0  0  0  0  0  0  0  0  0  0  0
    4.9513    1.8085   16.9090 H   0  0  0  0  0  0  0  0  0  0  0  0
    3.8317    1.8830   19.1350 H   0  0  0  0  0  0  0  0  0  0  0  0
    4.9574    0.7767   21.1122 H   0  0  0  0  0  0  0  0  0  0  0  0
    6.8214    1.8148   22.2933 H   0  0  0  0  0  0  0  0  0  0  0  0
    8.9606    1.8642   20.7813 H   0  0  0  0  0  0  0  0  0  0  0  0
    8.7695    3.2335   21.8735 H   0  0  0  0  0  0  0  0  0  0  0  0
   11.1285    2.2566   21.9484 H   0  0  0  0  0  0  0  0  0  0  0  0
   10.4183    0.7091   22.4458 H   0  0  0  0  0  0  0  0  0  0  0  0
   11.2582    1.7744   24.4653 H   0  0  0  0  0  0  0  0  0  0  0  0
   10.4863    3.3071   24.0804 H   0  0  0  0  0  0  0  0  0  0  0  0
    8.8121    1.6566   26.0377 N   0  0  0  0  0  0  0  0  0  0  0  0
    9.4393    1.6863   26.8224 H   0  0  0  0  0  0  0  0  0  0  0  0
    5.7275    1.0727   27.2609 H   0  0  0  0  0  0  0  0  0  0  0  0
    7.0610    0.0254   27.7685 H   0  0  0  0  0  0  0  0  0  0  0  0
    7.0929    1.7475   28.1917 H   0  0  0  0  0  0  0  0  0  0  0  0
  1  2  1  0
  2  3  2  0
  3  4  1  0
  4  5  2  0
  5  6  1  0
  6  7  1  0
  7  8  1  0
  8  9  1  0
  9 10  1  0
 10 11  2  0
 11 12  1  0
 12 13  1  0
 13 14  1  0
 14 15  1  0
 15 16  1  0
 15 17  1  0
 15 18  1  0
 14 19  1  0
 14 20  1  0
 13 21  1  0
 13 22  1  0
 12 23  2  0
 23 24  1  0
 24 25  1  0
 25 26  2  0
 26 27  1  0
 27 28  2  0
 28 29  1  0
 29 30  2  0
 30 31  1  0
 28 32  1  0
 27 33  1  0
 26 34  1  0
  9 35  1  0
  8 36  1  0
  8 37  1  0
  7 38  1  0
  7 39  1  0
  6 40  1  0
  6 41  1  0
  5 42  1  0
 42 43  1  0
  1 44  1  0
  1 45  1  0
  1 46  1  0
 42  2  1  0
  9  4  1  0
 24 10  1  0
 30 25  1  0
M  END
>  <cnnaffinity>  (1) 
-6.54455

>  <filename>  (1) 
[H]c1nc([H])c(-n2nc(C([H])([H])C([H])([H])C(F)(F)F)nc2C2([H])c3nc(C([H])([H])[H])n([H])c3C([H])([H])C([H])([H])C2([H])[H])c([H])c1[H]

$$$$
