
     RDKit          3D

 42 46  0  0  0  0  0  0  0  0999 V2000
   14.4992   -1.2961   20.8298 O   0  0  0  0  0  0  0  0  0  0  0  0
   13.4289   -1.2050   21.4060 C   0  0  0  0  0  0  0  0  0  0  0  0
   12.4200   -2.0839   21.0750 N   0  0  0  0  0  0  0  0  0  0  0  0
   11.2419   -2.3194   21.7252 N   0  0  0  0  0  0  0  0  0  0  0  0
   10.8965   -1.5102   22.6674 C   0  0  0  0  0  0  0  0  0  0  0  0
    9.6250   -1.8487   23.3626 C   0  0  0  0  0  0  0  0  0  0  0  0
    8.4462   -1.2324   22.6867 C   0  0  0  0  0  0  0  0  0  0  0  0
    8.3540   -0.7567   21.4649 N   0  0  0  0  0  0  0  0  0  0  0  0
    7.0580   -0.3369   21.3926 C   0  0  0  0  0  0  0  0  0  0  0  0
    6.4876    0.2046   20.1536 C   0  0  0  0  0  0  0  0  0  0  0  0
    5.2427    0.8545   20.0435 C   0  0  0  0  0  0  0  0  0  0  0  0
    4.8610    1.3231   18.7856 C   0  0  0  0  0  0  0  0  0  0  0  0
    5.7109    1.1114   17.6927 C   0  0  0  0  0  0  0  0  0  0  0  0
    6.8800    0.4625   17.7818 N   0  0  0  0  0  0  0  0  0  0  0  0
    7.2482    0.0275   18.9907 C   0  0  0  0  0  0  0  0  0  0  0  0
    8.1939   -0.5054   19.0461 H   0  0  0  0  0  0  0  0  0  0  0  0
    5.4339    1.4632   16.7005 H   0  0  0  0  0  0  0  0  0  0  0  0
    3.9272    1.8556   18.6331 H   0  0  0  0  0  0  0  0  0  0  0  0
    4.5962    0.9839   20.9148 H   0  0  0  0  0  0  0  0  0  0  0  0
    6.3683   -0.5164   22.4981 N   0  0  0  0  0  0  0  0  0  0  0  0
    7.2572   -1.1182   23.3215 N   0  0  0  0  0  0  0  0  0  0  0  0
    6.9329   -1.5338   24.6633 C   0  0  0  0  0  0  0  0  0  0  0  0
    5.7870   -2.4642   24.9143 C   0  0  0  0  0  0  0  0  0  0  0  0
    7.1903   -2.9642   25.0704 C   0  0  0  0  0  0  0  0  0  0  0  0
    7.5823   -3.1662   26.0631 H   0  0  0  0  0  0  0  0  0  0  0  0
    7.5368   -3.6517   24.3039 H   0  0  0  0  0  0  0  0  0  0  0  0
    5.1960   -2.2883   25.8080 H   0  0  0  0  0  0  0  0  0  0  0  0
    5.2230   -2.8036   24.0527 H   0  0  0  0  0  0  0  0  0  0  0  0
    7.0843   -0.7613   25.4120 H   0  0  0  0  0  0  0  0  0  0  0  0
    9.6652   -1.5213   24.4037 H   0  0  0  0  0  0  0  0  0  0  0  0
    9.5073   -2.9396   23.3723 H   0  0  0  0  0  0  0  0  0  0  0  0
   11.7223   -0.3470   23.0425 C   0  0  0  0  0  0  0  0  0  0  0  0
   11.3214    0.6008   24.0127 C   0  0  0  0  0  0  0  0  0  0  0  0
   12.1135    1.7070   24.2722 C   0  0  0  0  0  0  0  0  0  0  0  0
   13.3484    1.8679   23.6202 C   0  0  0  0  0  0  0  0  0  0  0  0
   13.8031    0.9082   22.7293 C   0  0  0  0  0  0  0  0  0  0  0  0
   12.9927   -0.1947   22.4137 C   0  0  0  0  0  0  0  0  0  0  0  0
   14.7841    1.0026   22.2680 H   0  0  0  0  0  0  0  0  0  0  0  0
   13.9501    2.7435   23.8310 H   0  0  0  0  0  0  0  0  0  0  0  0
   11.7735    2.4668   24.9675 H   0  0  0  0  0  0  0  0  0  0  0  0
   10.4048    0.4480   24.5810 H   0  0  0  0  0  0  0  0  0  0  0  0
   12.7570   -2.8087   20.4531 H   0  0  0  0  0  0  0  0  0  0  0  0
  1  2  2  0
  2  3  1  0
  3  4  1  0
  4  5  2  0
  5  6  1  0
  6  7  1  0
  7  8  2  0
  8  9  1  0
  9 10  1  0
 10 11  2  0
 11 12  1  0
 12 13  2  0
 13 14  1  0
 14 15  2  0
 15 16  1  0
 13 17  1  0
 12 18  1  0
 11 19  1  0
  9 20  2  0
 20 21  1  0
 21 22  1  0
 22 23  1  0
 23 24  1  0
 24 25  1  0
 24 26  1  0
 23 27  1  0
 23 28  1  0
 22 29  1  0
  6 30  1  0
  6 31  1  0
  5 32  1  0
 32 33  2  0
 33 34  1  0
 34 35  2  0
 35 36  1  0
 36 37  2  0
 36 38  1  0
 35 39  1  0
 34 40  1  0
 33 41  1  0
  3 42  1  0
 37  2  1  0
 21  7  1  0
 24 22  1  0
 37 32  1  0
 15 10  1  0
M  END
>  <cnnaffinity>  (1) 
-6.67656

>  <filename>  (1) 
[H]c1nc([H])c(-c2nc(C([H])([H])c3nn([H])c(=O)c4c([H])c([H])c([H])c([H])c34)n(C3([H])C([H])([H])C3([H])[H])n2)c([H])c1[H]

$$$$
