
     RDKit          3D

 41 44  0  0  0  0  0  0  0  0999 V2000
    7.7056    4.7194   25.1638 F   0  0  0  0  0  0  0  0  0  0  0  0
    7.7538    3.9803   24.0257 C   0  0  0  0  0  0  0  0  0  0  0  0
    8.3474    4.7493   23.0635 F   0  0  0  0  0  0  0  0  0  0  0  0
    8.5939    2.7485   24.2989 C   0  0  0  0  0  0  0  0  0  0  0  0
    8.6511    1.8945   23.1339 N   0  0  0  0  0  0  0  0  0  0  0  0
    7.6579    0.9969   22.9109 N   0  0  0  0  0  0  0  0  0  0  0  0
    7.9874    0.4846   21.7442 C   0  0  0  0  0  0  0  0  0  0  0  0
    7.2639   -0.6123   21.0240 C   0  0  0  0  0  0  0  0  0  0  0  0
    6.5273   -0.0546   19.8199 C   0  0  0  0  0  0  0  0  0  0  0  0
    5.3334    0.6433   20.0305 C   0  0  0  0  0  0  0  0  0  0  0  0
    4.7564    1.3347   18.9650 C   0  0  0  0  0  0  0  0  0  0  0  0
    5.3975    1.2995   17.7220 C   0  0  0  0  0  0  0  0  0  0  0  0
    6.5209    0.6064   17.4856 N   0  0  0  0  0  0  0  0  0  0  0  0
    7.0627   -0.0510   18.5199 C   0  0  0  0  0  0  0  0  0  0  0  0
    7.9793   -0.6024   18.3055 H   0  0  0  0  0  0  0  0  0  0  0  0
    4.9940    1.8528   16.8765 H   0  0  0  0  0  0  0  0  0  0  0  0
    3.8509    1.9181   19.0894 H   0  0  0  0  0  0  0  0  0  0  0  0
    4.8820    0.6475   21.0256 H   0  0  0  0  0  0  0  0  0  0  0  0
    8.0192   -1.3454   20.7233 H   0  0  0  0  0  0  0  0  0  0  0  0
    6.5789   -1.0969   21.7251 H   0  0  0  0  0  0  0  0  0  0  0  0
    9.1032    1.0126   21.1790 N   0  0  0  0  0  0  0  0  0  0  0  0
    9.5306    1.8559   22.1059 C   0  0  0  0  0  0  0  0  0  0  0  0
   10.9225    2.3570   22.2980 C   0  0  0  0  0  0  0  0  0  0  0  0
   11.2381    3.6920   22.4796 C   0  0  0  0  0  0  0  0  0  0  0  0
   12.5862    4.0688   22.7269 C   0  0  0  0  0  0  0  0  0  0  0  0
   13.5915    3.2246   22.7905 N   0  0  0  0  0  0  0  0  0  0  0  0
   13.3051    1.8922   22.6252 C   0  0  0  0  0  0  0  0  0  0  0  0
   14.3943    0.9773   22.6753 C   0  0  0  0  0  0  0  0  0  0  0  0
   14.1839   -0.3803   22.6115 C   0  0  0  0  0  0  0  0  0  0  0  0
   12.8673   -0.8854   22.4503 C   0  0  0  0  0  0  0  0  0  0  0  0
   11.7924   -0.0328   22.3676 C   0  0  0  0  0  0  0  0  0  0  0  0
   11.9821    1.3879   22.4159 C   0  0  0  0  0  0  0  0  0  0  0  0
   10.7786   -0.4163   22.2647 H   0  0  0  0  0  0  0  0  0  0  0  0
   12.7067   -1.9611   22.4056 H   0  0  0  0  0  0  0  0  0  0  0  0
   15.0000   -1.0948   22.6827 H   0  0  0  0  0  0  0  0  0  0  0  0
   15.3642    1.4537   22.7385 H   0  0  0  0  0  0  0  0  0  0  0  0
   12.8201    5.1212   22.8771 H   0  0  0  0  0  0  0  0  0  0  0  0
   10.4796    4.4607   22.4188 H   0  0  0  0  0  0  0  0  0  0  0  0
    9.5926    3.0728   24.6015 H   0  0  0  0  0  0  0  0  0  0  0  0
    8.1460    2.1735   25.1108 H   0  0  0  0  0  0  0  0  0  0  0  0
    6.7406    3.7484   23.6918 H   0  0  0  0  0  0  0  0  0  0  0  0
  1  2  1  0
  2  3  1  0
  2  4  1  0
  4  5  1  0
  5  6  1  0
  6  7  2  0
  7  8  1  0
  8  9  1  0
  9 10  2  0
 10 11  1  0
 11 12  2  0
 12 13  1  0
 13 14  2  0
 14 15  1  0
 12 16  1  0
 11 17  1  0
 10 18  1  0
  8 19  1  0
  8 20  1  0
  7 21  1  0
 21 22  2  0
 22 23  1  0
 23 24  2  0
 24 25  1  0
 25 26  2  0
 26 27  1  0
 27 28  2  0
 28 29  1  0
 29 30  2  0
 30 31  1  0
 31 32  2  0
 31 33  1  0
 30 34  1  0
 29 35  1  0
 28 36  1  0
 25 37  1  0
 24 38  1  0
  4 39  1  0
  4 40  1  0
  2 41  1  0
 22  5  1  0
 32 23  1  0
 14  9  1  0
 32 27  1  0
M  END
>  <cnnaffinity>  (1) 
-6.49823

>  <filename>  (1) 
[H]c1nc([H])c(C([H])([H])c2nc(-c3c([H])c([H])nc4c([H])c([H])c([H])c([H])c34)n(C([H])([H])C([H])(F)F)n2)c([H])c1[H]

$$$$
