
     RDKit          3D

 33 36  0  0  0  0  0  0  0  0999 V2000
    5.9229    0.1097   24.4063 H   0  0  0  0  0  0  0  0  0  0  0  0
    5.8269   -0.5923   25.2218 C   0  0  0  0  0  0  0  0  0  0  0  0
    6.6441   -1.6532   25.2865 C   0  0  0  0  0  0  0  0  0  0  0  0
    7.6763   -1.9311   24.2944 C   0  0  0  0  0  0  0  0  0  0  0  0
    8.8174   -2.6915   24.3830 C   0  0  0  0  0  0  0  0  0  0  0  0
    9.1601   -3.2382   25.2526 H   0  0  0  0  0  0  0  0  0  0  0  0
    9.5425   -2.7204   23.2199 N   0  0  0  0  0  0  0  0  0  0  0  0
    8.8376   -1.9799   22.4097 C   0  0  0  0  0  0  0  0  0  0  0  0
    8.8983   -1.5220   20.7403 S   0  0  0  0  0  0  0  0  0  0  0  0
    7.3530   -0.6941   21.0007 C   0  0  0  0  0  0  0  0  0  0  0  0
    6.6529    0.0088   19.9188 C   0  0  0  0  0  0  0  0  0  0  0  0
    7.1773    0.0555   18.6155 C   0  0  0  0  0  0  0  0  0  0  0  0
    8.1224   -0.4274   18.3738 H   0  0  0  0  0  0  0  0  0  0  0  0
    6.5721    0.6682   17.5958 N   0  0  0  0  0  0  0  0  0  0  0  0
    5.4084    1.2869   17.8469 C   0  0  0  0  0  0  0  0  0  0  0  0
    4.9250    1.7739   17.0016 H   0  0  0  0  0  0  0  0  0  0  0  0
    4.8043    1.3101   19.1091 C   0  0  0  0  0  0  0  0  0  0  0  0
    3.8726    1.8446   19.2583 H   0  0  0  0  0  0  0  0  0  0  0  0
    5.4299    0.6562   20.1672 C   0  0  0  0  0  0  0  0  0  0  0  0
    4.9989    0.6343   21.1714 H   0  0  0  0  0  0  0  0  0  0  0  0
    6.8775   -0.7453   22.2047 N   0  0  0  0  0  0  0  0  0  0  0  0
    7.7211   -1.4587   22.9849 N   0  0  0  0  0  0  0  0  0  0  0  0
    6.5660   -2.6039   26.4788 C   0  0  0  0  0  0  0  0  0  0  0  0
    7.4014   -2.3797   27.1505 H   0  0  0  0  0  0  0  0  0  0  0  0
    6.6882   -3.6390   26.1512 H   0  0  0  0  0  0  0  0  0  0  0  0
    5.2554   -2.4644   27.2498 C   0  0  0  0  0  0  0  0  0  0  0  0
    4.4494   -2.9650   26.6820 H   0  0  0  0  0  0  0  0  0  0  0  0
    5.3428   -2.9715   28.2163 H   0  0  0  0  0  0  0  0  0  0  0  0
    4.9778   -1.0483   27.4689 N   0  0  0  0  0  0  0  0  0  0  0  0
    4.1535   -0.9593   28.0544 H   0  0  0  0  0  0  0  0  0  0  0  0
    4.7156   -0.3636   26.2034 C   0  0  0  0  0  0  0  0  0  0  0  0
    3.7724   -0.6923   25.7244 H   0  0  0  0  0  0  0  0  0  0  0  0
    4.6164    0.7109   26.3818 H   0  0  0  0  0  0  0  0  0  0  0  0
  1  2  1  0
  2  3  2  0
  3  4  1  0
  4  5  2  0
  5  6  1  0
  5  7  1  0
  7  8  2  0
  8  9  1  0
  9 10  1  0
 10 11  1  0
 11 12  2  0
 12 13  1  0
 12 14  1  0
 14 15  2  0
 15 16  1  0
 15 17  1  0
 17 18  1  0
 17 19  2  0
 19 20  1  0
 10 21  2  0
 21 22  1  0
  3 23  1  0
 23 24  1  0
 23 25  1  0
 23 26  1  0
 26 27  1  0
 26 28  1  0
 26 29  1  0
 29 30  1  0
 29 31  1  0
 31 32  1  0
 31 33  1  0
 31  2  1  0
 22  4  1  0
 22  8  1  0
 19 11  1  0
M  END
>  <cnnaffinity>  (1) 
-4.84092

>  <filename>  (1) 
[H]C1=C(c2c([H])nc3sc(-c4c([H])nc([H])c([H])c4[H])nn23)C([H])([H])C([H])([H])N([H])C1([H])[H]

$$$$
