
     RDKit          3D

 38 41  0  0  0  0  0  0  0  0999 V2000
   12.2394   -1.9329   22.1602 F   0  0  0  0  0  0  0  0  0  0  0  0
   11.0611   -1.2639   22.2748 C   0  0  0  0  0  0  0  0  0  0  0  0
   10.9746   -0.7890   23.5567 F   0  0  0  0  0  0  0  0  0  0  0  0
    9.9258   -2.2358   22.0308 C   0  0  0  0  0  0  0  0  0  0  0  0
    8.6488   -1.5584   21.9141 N   0  0  0  0  0  0  0  0  0  0  0  0
    8.3250   -1.1205   20.6817 N   0  0  0  0  0  0  0  0  0  0  0  0
    7.2089   -0.4429   20.8786 C   0  0  0  0  0  0  0  0  0  0  0  0
    6.5081    0.1936   19.7681 C   0  0  0  0  0  0  0  0  0  0  0  0
    5.2847    0.8660   19.9054 C   0  0  0  0  0  0  0  0  0  0  0  0
    4.7440    1.4632   18.7675 C   0  0  0  0  0  0  0  0  0  0  0  0
    5.4355    1.3657   17.5537 C   0  0  0  0  0  0  0  0  0  0  0  0
    6.5942    0.7067   17.4113 N   0  0  0  0  0  0  0  0  0  0  0  0
    7.1112    0.1351   18.5011 C   0  0  0  0  0  0  0  0  0  0  0  0
    8.0546   -0.3908   18.3664 H   0  0  0  0  0  0  0  0  0  0  0  0
    5.0429    1.8307   16.6519 H   0  0  0  0  0  0  0  0  0  0  0  0
    3.8110    2.0148   18.8052 H   0  0  0  0  0  0  0  0  0  0  0  0
    4.7845    0.9230   20.8760 H   0  0  0  0  0  0  0  0  0  0  0  0
    6.8137   -0.3939   22.1728 N   0  0  0  0  0  0  0  0  0  0  0  0
    7.7305   -1.0959   22.8042 C   0  0  0  0  0  0  0  0  0  0  0  0
    7.7401   -1.3790   24.2657 C   0  0  0  0  0  0  0  0  0  0  0  0
    7.1760   -2.7361   24.5611 C   0  0  0  0  0  0  0  0  0  0  0  0
    5.8877   -2.8727   24.4736 N   0  0  0  0  0  0  0  0  0  0  0  0
    5.3901   -4.3959   24.9526 S   0  0  0  0  0  0  0  0  0  0  0  0
    6.9984   -4.9311   25.3310 C   0  0  0  0  0  0  0  0  0  0  0  0
    7.4179   -6.1703   25.8341 C   0  0  0  0  0  0  0  0  0  0  0  0
    8.7710   -6.3648   26.0552 C   0  0  0  0  0  0  0  0  0  0  0  0
    9.6983   -5.3333   25.8112 C   0  0  0  0  0  0  0  0  0  0  0  0
    9.2890   -4.1049   25.3104 C   0  0  0  0  0  0  0  0  0  0  0  0
    7.9117   -3.8951   25.0410 C   0  0  0  0  0  0  0  0  0  0  0  0
   10.0299   -3.3233   25.1419 H   0  0  0  0  0  0  0  0  0  0  0  0
   10.7491   -5.4999   26.0198 H   0  0  0  0  0  0  0  0  0  0  0  0
    9.1319   -7.3138   26.4344 H   0  0  0  0  0  0  0  0  0  0  0  0
    6.6923   -6.9501   26.0344 H   0  0  0  0  0  0  0  0  0  0  0  0
    8.7473   -1.2551   24.6789 H   0  0  0  0  0  0  0  0  0  0  0  0
    7.0637   -0.6611   24.7367 H   0  0  0  0  0  0  0  0  0  0  0  0
   10.0926   -2.7233   21.0707 H   0  0  0  0  0  0  0  0  0  0  0  0
    9.9065   -2.9880   22.8185 H   0  0  0  0  0  0  0  0  0  0  0  0
   11.0644   -0.4116   21.5898 H   0  0  0  0  0  0  0  0  0  0  0  0
  1  2  1  0
  2  3  1  0
  2  4  1  0
  4  5  1  0
  5  6  1  0
  6  7  2  0
  7  8  1  0
  8  9  2  0
  9 10  1  0
 10 11  2  0
 11 12  1  0
 12 13  2  0
 13 14  1  0
 11 15  1  0
 10 16  1  0
  9 17  1  0
  7 18  1  0
 18 19  2  0
 19 20  1  0
 20 21  1  0
 21 22  2  0
 22 23  1  0
 23 24  1  0
 24 25  2  0
 25 26  1  0
 26 27  2  0
 27 28  1  0
 28 29  2  0
 28 30  1  0
 27 31  1  0
 26 32  1  0
 25 33  1  0
 20 34  1  0
 20 35  1  0
  4 36  1  0
  4 37  1  0
  2 38  1  0
 19  5  1  0
 29 21  1  0
 13  8  1  0
 29 24  1  0
M  END
>  <cnnaffinity>  (1) 
-5.88492

>  <filename>  (1) 
[H]c1nc([H])c(-c2nc(C([H])([H])c3nsc4c([H])c([H])c([H])c([H])c34)n(C([H])([H])C([H])(F)F)n2)c([H])c1[H]

$$$$
