
     RDKit          3D

 35 37  0  0  0  0  0  0  0  0999 V2000
    5.1431    1.7022   17.1041 H   0  0  0  0  0  0  0  0  0  0  0  0
    5.5431    1.1744   17.9680 C   0  0  0  0  0  0  0  0  0  0  0  0
    6.6506    0.4488   17.7586 N   0  0  0  0  0  0  0  0  0  0  0  0
    7.1605   -0.2150   18.8107 C   0  0  0  0  0  0  0  0  0  0  0  0
    8.0622   -0.7887   18.5932 H   0  0  0  0  0  0  0  0  0  0  0  0
    6.6143   -0.1970   20.1105 C   0  0  0  0  0  0  0  0  0  0  0  0
    7.1660   -1.0438   21.2821 C   0  0  0  0  0  0  0  0  0  0  0  0
    6.9505   -0.3191   22.6796 C   0  0  0  0  0  0  0  0  0  0  0  0
    6.5785   -0.9613   23.6424 O   0  0  0  0  0  0  0  0  0  0  0  0
    7.2869    1.1568   22.8218 C   0  0  0  0  0  0  0  0  0  0  0  0
    8.0421    1.8415   21.8113 C   0  0  0  0  0  0  0  0  0  0  0  0
    8.4362    1.3269   20.9410 H   0  0  0  0  0  0  0  0  0  0  0  0
    8.2391    3.2041   21.8641 C   0  0  0  0  0  0  0  0  0  0  0  0
    8.7388    3.7255   21.0701 H   0  0  0  0  0  0  0  0  0  0  0  0
    7.7292    3.9051   22.9644 C   0  0  0  0  0  0  0  0  0  0  0  0
    7.0449    3.2597   24.0162 C   0  0  0  0  0  0  0  0  0  0  0  0
    6.6765    4.3473   24.8742 C   0  0  0  0  0  0  0  0  0  0  0  0
    6.1397    4.3000   25.8114 H   0  0  0  0  0  0  0  0  0  0  0  0
    7.0755    5.5106   24.4011 N   0  0  0  0  0  0  0  0  0  0  0  0
    7.7277    5.2314   23.2515 N   0  0  0  0  0  0  0  0  0  0  0  0
    8.0906    5.9696   22.6641 H   0  0  0  0  0  0  0  0  0  0  0  0
    6.8252    1.8574   23.9430 C   0  0  0  0  0  0  0  0  0  0  0  0
    6.2835    1.3334   24.7290 H   0  0  0  0  0  0  0  0  0  0  0  0
    6.4279   -2.4038   21.2309 C   0  0  0  0  0  0  0  0  0  0  0  0
    5.3444   -2.2907   21.3410 H   0  0  0  0  0  0  0  0  0  0  0  0
    6.7831   -3.0704   22.0214 H   0  0  0  0  0  0  0  0  0  0  0  0
    6.6189   -2.8865   20.2638 H   0  0  0  0  0  0  0  0  0  0  0  0
    8.6870   -1.3521   21.2094 C   0  0  0  0  0  0  0  0  0  0  0  0
    8.9563   -1.8884   20.2940 H   0  0  0  0  0  0  0  0  0  0  0  0
    8.9475   -2.0072   22.0500 H   0  0  0  0  0  0  0  0  0  0  0  0
    9.3253   -0.4655   21.2834 H   0  0  0  0  0  0  0  0  0  0  0  0
    5.4473    0.5668   20.2926 C   0  0  0  0  0  0  0  0  0  0  0  0
    4.9899    0.6396   21.2825 H   0  0  0  0  0  0  0  0  0  0  0  0
    4.9103    1.2670   19.2114 C   0  0  0  0  0  0  0  0  0  0  0  0
    4.0377    1.9002   19.3266 H   0  0  0  0  0  0  0  0  0  0  0  0
  1  2  1  0
  2  3  2  0
  3  4  1  0
  4  5  1  0
  4  6  2  0
  6  7  1  0
  7  8  1  0
  8  9  2  0
  8 10  1  0
 10 11  2  0
 11 12  1  0
 11 13  1  0
 13 14  1  0
 13 15  2  0
 15 16  1  0
 16 17  1  0
 17 18  1  0
 17 19  2  0
 19 20  1  0
 20 21  1  0
 16 22  2  0
 22 23  1  0
  7 24  1  0
 24 25  1  0
 24 26  1  0
 24 27  1  0
  7 28  1  0
 28 29  1  0
 28 30  1  0
 28 31  1  0
  6 32  1  0
 32 33  1  0
 32 34  2  0
 34 35  1  0
 34  2  1  0
 22 10  1  0
 20 15  1  0
M  END
>  <cnnaffinity>  (1) 
-5.36372

>  <filename>  (1) 
[H]c1nc([H])c(C(C(=O)c2c([H])c([H])c3c(c([H])nn3[H])c2[H])(C([H])([H])[H])C([H])([H])[H])c([H])c1[H]

$$$$
