
     RDKit          3D

 38 40  0  0  0  0  0  0  0  0999 V2000
    4.9995    1.7900   16.9619 H   0  0  0  0  0  0  0  0  0  0  0  0
    5.4689    1.3203   17.8239 C   0  0  0  0  0  0  0  0  0  0  0  0
    6.6272    0.6828   17.5959 N   0  0  0  0  0  0  0  0  0  0  0  0
    7.2126    0.0712   18.6334 C   0  0  0  0  0  0  0  0  0  0  0  0
    8.1384   -0.4614   18.4075 H   0  0  0  0  0  0  0  0  0  0  0  0
    6.6821    0.0691   19.9239 C   0  0  0  0  0  0  0  0  0  0  0  0
    7.3703   -0.6810   20.9908 C   0  0  0  0  0  0  0  0  0  0  0  0
    6.7393   -1.4556   21.7819 N   0  0  0  0  0  0  0  0  0  0  0  0
    7.7222   -2.0795   22.6697 C   0  0  0  0  0  0  0  0  0  0  0  0
    7.4136   -1.9197   23.7087 H   0  0  0  0  0  0  0  0  0  0  0  0
    7.7370   -3.1631   22.4932 H   0  0  0  0  0  0  0  0  0  0  0  0
    9.0837   -1.4215   22.3505 C   0  0  0  0  0  0  0  0  0  0  0  0
    9.4476   -0.7937   23.1868 H   0  0  0  0  0  0  0  0  0  0  0  0
    9.8672   -2.1613   22.1332 H   0  0  0  0  0  0  0  0  0  0  0  0
    8.7470   -0.6411   21.1513 N   0  0  0  0  0  0  0  0  0  0  0  0
    9.5392    0.4885   20.7700 C   0  0  0  0  0  0  0  0  0  0  0  0
    9.6655    0.4854   19.6875 H   0  0  0  0  0  0  0  0  0  0  0  0
   10.5547    0.3723   21.1688 H   0  0  0  0  0  0  0  0  0  0  0  0
    8.9560    1.7515   21.1283 N   0  0  0  0  0  0  0  0  0  0  0  0
    8.0017    1.7341   20.7864 H   0  0  0  0  0  0  0  0  0  0  0  0
    8.9098    2.1091   22.5404 C   0  0  0  0  0  0  0  0  0  0  0  0
    8.3149    1.3914   23.1441 H   0  0  0  0  0  0  0  0  0  0  0  0
   10.2790    2.2730   23.2064 C   0  0  0  0  0  0  0  0  0  0  0  0
   10.6965    1.3077   23.5132 H   0  0  0  0  0  0  0  0  0  0  0  0
   10.9721    2.7153   22.4824 H   0  0  0  0  0  0  0  0  0  0  0  0
   10.0445    3.2282   24.3993 C   0  0  0  0  0  0  0  0  0  0  0  0
   10.8815    3.9224   24.5189 H   0  0  0  0  0  0  0  0  0  0  0  0
    9.9621    2.6639   25.3323 H   0  0  0  0  0  0  0  0  0  0  0  0
    8.7087    3.9616   24.1119 C   0  0  0  0  0  0  0  0  0  0  0  0
    7.9549    3.6673   24.8495 H   0  0  0  0  0  0  0  0  0  0  0  0
    8.8022    5.0508   24.1787 H   0  0  0  0  0  0  0  0  0  0  0  0
    8.2888    3.4967   22.7081 C   0  0  0  0  0  0  0  0  0  0  0  0
    7.2025    3.4865   22.5592 H   0  0  0  0  0  0  0  0  0  0  0  0
    8.7260    4.1560   21.9490 H   0  0  0  0  0  0  0  0  0  0  0  0
    5.4499    0.7046   20.1467 C   0  0  0  0  0  0  0  0  0  0  0  0
    4.9930    0.6775   21.1378 H   0  0  0  0  0  0  0  0  0  0  0  0
    4.8421    1.3501   19.0750 C   0  0  0  0  0  0  0  0  0  0  0  0
    3.8821    1.8409   19.1875 H   0  0  0  0  0  0  0  0  0  0  0  0
  1  2  1  0
  2  3  2  0
  3  4  1  0
  4  5  1  0
  4  6  2  0
  6  7  1  0
  7  8  2  0
  8  9  1  0
  9 10  1  0
  9 11  1  0
  9 12  1  0
 12 13  1  0
 12 14  1  0
 12 15  1  0
 15 16  1  0
 16 17  1  0
 16 18  1  0
 16 19  1  0
 19 20  1  0
 19 21  1  0
 21 22  1  0
 21 23  1  0
 23 24  1  0
 23 25  1  0
 23 26  1  0
 26 27  1  0
 26 28  1  0
 26 29  1  0
 29 30  1  0
 29 31  1  0
 29 32  1  0
 32 33  1  0
 32 34  1  0
  6 35  1  0
 35 36  1  0
 35 37  2  0
 37 38  1  0
 37  2  1  0
 15  7  1  0
 32 21  1  0
M  END
>  <cnnaffinity>  (1) 
-4.78402

>  <filename>  (1) 
[H]c1nc([H])c(C2=NC([H])([H])C([H])([H])N2C([H])([H])N([H])C2([H])C([H])([H])C([H])([H])C([H])([H])C2([H])[H])c([H])c1[H]

$$$$
