
     RDKit          3D

 30 32  0  0  0  0  0  0  0  0999 V2000
    4.9545    1.7809   17.0008 H   0  0  0  0  0  0  0  0  0  0  0  0
    5.4112    1.2815   17.8507 C   0  0  0  0  0  0  0  0  0  0  0  0
    6.5727    0.6601   17.6009 N   0  0  0  0  0  0  0  0  0  0  0  0
    7.1771    0.0444   18.6193 C   0  0  0  0  0  0  0  0  0  0  0  0
    8.1269   -0.4354   18.3838 H   0  0  0  0  0  0  0  0  0  0  0  0
    6.6538    0.0052   19.9221 C   0  0  0  0  0  0  0  0  0  0  0  0
    7.3663   -0.6911   21.0024 C   0  0  0  0  0  0  0  0  0  0  0  0
    6.9242   -0.7420   22.2252 N   0  0  0  0  0  0  0  0  0  0  0  0
    7.7564   -1.4752   23.0351 C   0  0  0  0  0  0  0  0  0  0  0  0
    7.3876   -1.7166   24.4783 C   0  0  0  0  0  0  0  0  0  0  0  0
    8.3013   -1.7954   25.0794 H   0  0  0  0  0  0  0  0  0  0  0  0
    6.8348   -0.8457   24.8443 H   0  0  0  0  0  0  0  0  0  0  0  0
    6.5499   -2.9726   24.6652 C   0  0  0  0  0  0  0  0  0  0  0  0
    7.1419   -4.2351   24.8015 C   0  0  0  0  0  0  0  0  0  0  0  0
    8.2206   -4.3253   24.9003 H   0  0  0  0  0  0  0  0  0  0  0  0
    6.3619   -5.3889   24.8659 C   0  0  0  0  0  0  0  0  0  0  0  0
    6.8163   -6.3496   25.0692 H   0  0  0  0  0  0  0  0  0  0  0  0
    4.9695   -5.3065   24.7376 C   0  0  0  0  0  0  0  0  0  0  0  0
    4.0408   -6.7664   24.8281 Cl  0  0  0  0  0  0  0  0  0  0  0  0
    4.3622   -4.0458   24.6164 C   0  0  0  0  0  0  0  0  0  0  0  0
    2.6467   -3.8719   24.4576 Cl  0  0  0  0  0  0  0  0  0  0  0  0
    5.1531   -2.8915   24.6477 C   0  0  0  0  0  0  0  0  0  0  0  0
    4.6579   -1.9291   24.7251 H   0  0  0  0  0  0  0  0  0  0  0  0
    8.8610   -1.9828   22.4219 C   0  0  0  0  0  0  0  0  0  0  0  0
    9.6470   -2.5744   22.8731 H   0  0  0  0  0  0  0  0  0  0  0  0
    8.8729   -1.5440   20.7600 S   0  0  0  0  0  0  0  0  0  0  0  0
    5.4301    0.6558   20.1681 C   0  0  0  0  0  0  0  0  0  0  0  0
    4.9968    0.6475   21.1698 H   0  0  0  0  0  0  0  0  0  0  0  0
    4.8026    1.3069   19.1098 C   0  0  0  0  0  0  0  0  0  0  0  0
    3.8694    1.8431   19.2437 H   0  0  0  0  0  0  0  0  0  0  0  0
  1  2  1  0
  2  3  2  0
  3  4  1  0
  4  5  1  0
  4  6  2  0
  6  7  1  0
  7  8  2  0
  8  9  1  0
  9 10  1  0
 10 11  1  0
 10 12  1  0
 10 13  1  0
 13 14  2  0
 14 15  1  0
 14 16  1  0
 16 17  1  0
 16 18  2  0
 18 19  1  0
 18 20  1  0
 20 21  1  0
 20 22  2  0
 22 23  1  0
  9 24  2  0
 24 25  1  0
 24 26  1  0
  6 27  1  0
 27 28  1  0
 27 29  2  0
 29 30  1  0
 29  2  1  0
 26  7  1  0
 22 13  1  0
M  END
>  <cnnaffinity>  (1) 
-5.52416

>  <filename>  (1) 
[H]c1nc([H])c(-c2nc(C([H])([H])c3c([H])c([H])c(Cl)c(Cl)c3[H])c([H])s2)c([H])c1[H]

$$$$
