
     RDKit          3D

 42 44  0  0  0  0  0  0  0  0999 V2000
   10.8155   -2.0441   23.0102 C   0  0  0  0  0  0  0  0  0  0  0  0
    9.6185   -2.7222   22.3301 C   0  0  0  0  0  0  0  0  0  0  0  0
    9.2325   -3.9823   23.0780 C   0  0  0  0  0  0  0  0  0  0  0  0
    9.6400   -4.4844   24.3010 C   0  0  0  0  0  0  0  0  0  0  0  0
    8.8315   -5.6182   24.5110 C   0  0  0  0  0  0  0  0  0  0  0  0
    8.0004   -5.8161   23.4972 N   0  0  0  0  0  0  0  0  0  0  0  0
    8.2791   -4.8379   22.6232 N   0  0  0  0  0  0  0  0  0  0  0  0
    7.4430   -4.7529   21.4469 C   0  0  0  0  0  0  0  0  0  0  0  0
    7.8124   -3.9711   20.7824 H   0  0  0  0  0  0  0  0  0  0  0  0
    7.4655   -5.7036   20.9141 H   0  0  0  0  0  0  0  0  0  0  0  0
    6.4215   -4.5322   21.7604 H   0  0  0  0  0  0  0  0  0  0  0  0
    8.7591   -6.2654   25.3749 H   0  0  0  0  0  0  0  0  0  0  0  0
   10.4290   -4.0990   24.9339 H   0  0  0  0  0  0  0  0  0  0  0  0
    8.4660   -1.7845   22.0373 C   0  0  0  0  0  0  0  0  0  0  0  0
    8.1801   -1.3308   20.8312 N   0  0  0  0  0  0  0  0  0  0  0  0
    7.0634   -0.5823   21.0314 C   0  0  0  0  0  0  0  0  0  0  0  0
    6.4224    0.1126   19.9200 C   0  0  0  0  0  0  0  0  0  0  0  0
    5.2196    0.8266   20.0435 C   0  0  0  0  0  0  0  0  0  0  0  0
    4.7188    1.4462   18.9022 C   0  0  0  0  0  0  0  0  0  0  0  0
    5.4279    1.3388   17.6983 C   0  0  0  0  0  0  0  0  0  0  0  0
    6.5763    0.6556   17.5729 N   0  0  0  0  0  0  0  0  0  0  0  0
    7.0550    0.0645   18.6696 C   0  0  0  0  0  0  0  0  0  0  0  0
    7.9975   -0.4710   18.5597 H   0  0  0  0  0  0  0  0  0  0  0  0
    5.0558    1.8102   16.7918 H   0  0  0  0  0  0  0  0  0  0  0  0
    3.7943    2.0112   18.9290 H   0  0  0  0  0  0  0  0  0  0  0  0
    4.7097    0.8871   21.0098 H   0  0  0  0  0  0  0  0  0  0  0  0
    6.6534   -0.5481   22.2846 N   0  0  0  0  0  0  0  0  0  0  0  0
    7.5667   -1.3178   22.9304 N   0  0  0  0  0  0  0  0  0  0  0  0
    7.4124   -1.5493   24.3578 C   0  0  0  0  0  0  0  0  0  0  0  0
    7.8878   -0.3573   25.2022 C   0  0  0  0  0  0  0  0  0  0  0  0
    7.9538   -0.6547   26.6820 C   0  0  0  0  0  0  0  0  0  0  0  0
    8.9225   -1.5475   26.9729 F   0  0  0  0  0  0  0  0  0  0  0  0
    8.2187    0.4629   27.3796 F   0  0  0  0  0  0  0  0  0  0  0  0
    6.7972   -1.1634   27.1495 F   0  0  0  0  0  0  0  0  0  0  0  0
    8.8857   -0.0131   24.9120 H   0  0  0  0  0  0  0  0  0  0  0  0
    7.1915    0.4726   25.0638 H   0  0  0  0  0  0  0  0  0  0  0  0
    6.3432   -1.6973   24.5235 H   0  0  0  0  0  0  0  0  0  0  0  0
    7.9278   -2.4733   24.6251 H   0  0  0  0  0  0  0  0  0  0  0  0
    9.9240   -3.0012   21.3164 H   0  0  0  0  0  0  0  0  0  0  0  0
   10.6053   -1.8321   24.0649 H   0  0  0  0  0  0  0  0  0  0  0  0
   11.0883   -1.1088   22.5123 H   0  0  0  0  0  0  0  0  0  0  0  0
   11.6623   -2.7335   22.9626 H   0  0  0  0  0  0  0  0  0  0  0  0
  1  2  1  0
  2  3  1  0
  3  4  2  0
  4  5  1  0
  5  6  2  0
  6  7  1  0
  7  8  1  0
  8  9  1  0
  8 10  1  0
  8 11  1  0
  5 12  1  0
  4 13  1  0
  2 14  1  0
 14 15  2  0
 15 16  1  0
 16 17  1  0
 17 18  2  0
 18 19  1  0
 19 20  2  0
 20 21  1  0
 21 22  2  0
 22 23  1  0
 20 24  1  0
 19 25  1  0
 18 26  1  0
 16 27  2  0
 27 28  1  0
 28 29  1  0
 29 30  1  0
 30 31  1  0
 31 32  1  0
 31 33  1  0
 31 34  1  0
 30 35  1  0
 30 36  1  0
 29 37  1  0
 29 38  1  0
  2 39  1  0
  1 40  1  0
  1 41  1  0
  1 42  1  0
  7  3  1  0
 28 14  1  0
 22 17  1  0
M  END
>  <cnnaffinity>  (1) 
-6.36768

>  <filename>  (1) 
[H]c1nc([H])c(-c2nc(C([H])(c3c([H])c([H])nn3C([H])([H])[H])C([H])([H])[H])n(C([H])([H])C([H])([H])C(F)(F)F)n2)c([H])c1[H]

$$$$
