
     RDKit          3D

 34 36  0  0  0  0  0  0  0  0999 V2000
    4.9594    1.8089   16.9428 H   0  0  0  0  0  0  0  0  0  0  0  0
    5.4246    1.3141   17.7947 C   0  0  0  0  0  0  0  0  0  0  0  0
    6.5929    0.6984   17.5542 N   0  0  0  0  0  0  0  0  0  0  0  0
    7.1860    0.0835   18.5882 C   0  0  0  0  0  0  0  0  0  0  0  0
    8.1275   -0.4220   18.3812 H   0  0  0  0  0  0  0  0  0  0  0  0
    6.6618    0.0564   19.8884 C   0  0  0  0  0  0  0  0  0  0  0  0
    7.2606   -0.7686   21.0227 C   0  0  0  0  0  0  0  0  0  0  0  0
    7.7377   -0.1955   22.2800 C   0  0  0  0  0  0  0  0  0  0  0  0
    7.4586    1.1694   22.7018 C   0  0  0  0  0  0  0  0  0  0  0  0
    8.0544    2.2430   21.9911 C   0  0  0  0  0  0  0  0  0  0  0  0
    8.6717    2.0029   21.1271 H   0  0  0  0  0  0  0  0  0  0  0  0
    7.8450    3.5700   22.3587 C   0  0  0  0  0  0  0  0  0  0  0  0
    8.2965    4.3762   21.7845 H   0  0  0  0  0  0  0  0  0  0  0  0
    6.9873    3.8688   23.4188 C   0  0  0  0  0  0  0  0  0  0  0  0
    6.7730    4.8963   23.6984 H   0  0  0  0  0  0  0  0  0  0  0  0
    6.3800    2.8374   24.1233 C   0  0  0  0  0  0  0  0  0  0  0  0
    5.7058    3.0560   24.9470 H   0  0  0  0  0  0  0  0  0  0  0  0
    6.6211    1.4938   23.7965 C   0  0  0  0  0  0  0  0  0  0  0  0
    5.9146    0.4859   24.6881 C   0  0  0  0  0  0  0  0  0  0  0  0
    4.5838    0.7179   24.7202 F   0  0  0  0  0  0  0  0  0  0  0  0
    6.3560    0.5888   25.9576 F   0  0  0  0  0  0  0  0  0  0  0  0
    6.0774   -0.8000   24.3397 F   0  0  0  0  0  0  0  0  0  0  0  0
    8.6479   -1.1593   23.0071 C   0  0  0  0  0  0  0  0  0  0  0  0
    8.2349   -1.4466   23.9831 H   0  0  0  0  0  0  0  0  0  0  0  0
    9.6243   -0.7036   23.2428 H   0  0  0  0  0  0  0  0  0  0  0  0
    8.8134   -2.3873   22.0266 C   0  0  0  0  0  0  0  0  0  0  0  0
    8.5240   -3.3516   22.4693 H   0  0  0  0  0  0  0  0  0  0  0  0
    9.8309   -2.4712   21.6359 H   0  0  0  0  0  0  0  0  0  0  0  0
    7.8744   -2.0267   20.9233 C   0  0  0  0  0  0  0  0  0  0  0  0
    6.5734   -2.2135   21.1433 O   0  0  0  0  0  0  0  0  0  0  0  0
    5.4442    0.7097   20.1192 C   0  0  0  0  0  0  0  0  0  0  0  0
    5.0088    0.7002   21.1209 H   0  0  0  0  0  0  0  0  0  0  0  0
    4.8099    1.3471   19.0524 C   0  0  0  0  0  0  0  0  0  0  0  0
    3.8658    1.8670   19.1780 H   0  0  0  0  0  0  0  0  0  0  0  0
  1  2  1  0
  2  3  2  0
  3  4  1  0
  4  5  1  0
  4  6  2  0
  6  7  1  0
  7  8  2  0
  8  9  1  0
  9 10  2  0
 10 11  1  0
 10 12  1  0
 12 13  1  0
 12 14  2  0
 14 15  1  0
 14 16  1  0
 16 17  1  0
 16 18  2  0
 18 19  1  0
 19 20  1  0
 19 21  1  0
 19 22  1  0
  8 23  1  0
 23 24  1  0
 23 25  1  0
 23 26  1  0
 26 27  1  0
 26 28  1  0
 26 29  1  0
 29 30  2  0
  6 31  1  0
 31 32  1  0
 31 33  2  0
 33 34  1  0
 33  2  1  0
 29  7  1  0
 18  9  1  0
M  END
>  <cnnaffinity>  (1) 
-4.73978

>  <filename>  (1) 
[H]c1nc([H])c(C2=C(c3c([H])c([H])c([H])c([H])c3C(F)(F)F)C([H])([H])C([H])([H])C2=O)c([H])c1[H]

$$$$
