
     RDKit          3D

 33 34  0  0  0  0  0  0  0  0999 V2000
    4.9284    1.8432   16.9106 H   0  0  0  0  0  0  0  0  0  0  0  0
    5.3920    1.3245   17.7484 C   0  0  0  0  0  0  0  0  0  0  0  0
    6.5468    0.6933   17.4908 N   0  0  0  0  0  0  0  0  0  0  0  0
    7.1420    0.0666   18.5135 C   0  0  0  0  0  0  0  0  0  0  0  0
    8.0771   -0.4419   18.2991 H   0  0  0  0  0  0  0  0  0  0  0  0
    6.6394    0.0341   19.8267 C   0  0  0  0  0  0  0  0  0  0  0  0
    7.4097   -0.6508   20.9460 C   0  0  2  0  0  0  0  0  0  0  0  0
    8.5787   -1.1893   20.3700 F   0  0  0  0  0  0  0  0  0  0  0  0
    6.6524   -1.8486   21.5106 C   0  0  0  0  0  0  0  0  0  0  0  0
    5.7822   -1.5087   22.0710 H   0  0  0  0  0  0  0  0  0  0  0  0
    6.3225   -2.5163   20.7104 H   0  0  0  0  0  0  0  0  0  0  0  0
    7.3025   -2.3880   22.2041 H   0  0  0  0  0  0  0  0  0  0  0  0
    7.8431    0.3762   22.0582 C   0  0  1  0  0  0  0  0  0  0  0  0
    6.9130    0.8659   22.3870 H   0  0  0  0  0  0  0  0  0  0  0  0
    8.4146   -0.3303   23.2885 C   0  0  0  0  0  0  0  0  0  0  0  0
    9.5843   -1.1004   23.1840 C   0  0  0  0  0  0  0  0  0  0  0  0
   10.2083   -1.0529   22.2988 H   0  0  0  0  0  0  0  0  0  0  0  0
    9.9697   -1.9658   24.2112 C   0  0  0  0  0  0  0  0  0  0  0  0
   10.8383   -2.6056   24.0772 H   0  0  0  0  0  0  0  0  0  0  0  0
    9.2237   -2.0177   25.3911 C   0  0  0  0  0  0  0  0  0  0  0  0
    9.5071   -2.7064   26.1781 H   0  0  0  0  0  0  0  0  0  0  0  0
    8.1109   -1.1850   25.5537 C   0  0  0  0  0  0  0  0  0  0  0  0
    7.5819   -1.1543   26.5038 H   0  0  0  0  0  0  0  0  0  0  0  0
    7.7044   -0.3568   24.5004 C   0  0  0  0  0  0  0  0  0  0  0  0
    6.8314    0.2862   24.6207 H   0  0  0  0  0  0  0  0  0  0  0  0
    8.7499    1.4849   21.4900 C   0  0  0  0  0  0  0  0  0  0  0  0
    8.2124    2.0642   20.7273 H   0  0  0  0  0  0  0  0  0  0  0  0
    9.6513    1.0732   21.0254 H   0  0  0  0  0  0  0  0  0  0  0  0
    9.0625    2.1718   22.2805 H   0  0  0  0  0  0  0  0  0  0  0  0
    5.4199    0.6773   20.0689 C   0  0  0  0  0  0  0  0  0  0  0  0
    4.9711    0.6768   21.0657 H   0  0  0  0  0  0  0  0  0  0  0  0
    4.7869    1.3349   19.0106 C   0  0  0  0  0  0  0  0  0  0  0  0
    3.8547    1.8686   19.1544 H   0  0  0  0  0  0  0  0  0  0  0  0
  1  2  1  0
  2  3  2  0
  3  4  1  0
  4  5  1  0
  4  6  2  0
  6  7  1  0
  7  8  1  6
  7  9  1  0
  9 10  1  0
  9 11  1  0
  9 12  1  0
  7 13  1  0
 13 14  1  1
 13 15  1  0
 15 16  2  0
 16 17  1  0
 16 18  1  0
 18 19  1  0
 18 20  2  0
 20 21  1  0
 20 22  1  0
 22 23  1  0
 22 24  2  0
 24 25  1  0
 13 26  1  0
 26 27  1  0
 26 28  1  0
 26 29  1  0
  6 30  1  0
 30 31  1  0
 30 32  2  0
 32 33  1  0
 32  2  1  0
 24 15  1  0
M  END
>  <cnnaffinity>  (1) 
-4.83595

>  <filename>  (1) 
[H]c1nc([H])c([C@](F)(C([H])([H])[H])[C@@]([H])(c2c([H])c([H])c([H])c([H])c2[H])C([H])([H])[H])c([H])c1[H]

$$$$
