
     RDKit          3D

 33 34  0  0  0  0  0  0  0  0999 V2000
    8.6964   -0.2830   21.3083 C   0  0  0  0  0  0  0  0  0  0  0  0
    7.3477   -0.7122   20.9501 N   0  0  0  0  0  0  0  0  0  0  0  0
    6.6403   -1.7211   21.6235 C   0  0  0  0  0  0  0  0  0  0  0  0
    5.6631   -2.2379   21.1153 O   0  0  0  0  0  0  0  0  0  0  0  0
    7.1533   -2.1857   23.0203 C   0  0  0  0  0  0  0  0  0  0  0  0
    6.0895   -2.4470   23.9873 N   0  0  0  0  0  0  0  0  0  0  0  0
    6.2422   -3.0550   25.2071 C   0  0  0  0  0  0  0  0  0  0  0  0
    7.5212   -3.3662   25.7123 C   0  0  0  0  0  0  0  0  0  0  0  0
    7.6817   -3.9747   26.9532 C   0  0  0  0  0  0  0  0  0  0  0  0
    6.5709   -4.3001   27.7310 C   0  0  0  0  0  0  0  0  0  0  0  0
    5.2887   -4.0046   27.2568 C   0  0  0  0  0  0  0  0  0  0  0  0
    5.1226   -3.3940   26.0153 C   0  0  0  0  0  0  0  0  0  0  0  0
    3.4942   -3.0632   25.4699 Cl  0  0  0  0  0  0  0  0  0  0  0  0
    4.4124   -4.2467   27.8519 H   0  0  0  0  0  0  0  0  0  0  0  0
    6.6969   -4.7708   28.7006 H   0  0  0  0  0  0  0  0  0  0  0  0
    8.6826   -4.1960   27.3089 H   0  0  0  0  0  0  0  0  0  0  0  0
    8.3856   -3.1156   25.1100 H   0  0  0  0  0  0  0  0  0  0  0  0
    5.1416   -2.1624   23.7626 H   0  0  0  0  0  0  0  0  0  0  0  0
    7.8838   -1.4735   23.4288 H   0  0  0  0  0  0  0  0  0  0  0  0
    7.6999   -3.1178   22.8250 H   0  0  0  0  0  0  0  0  0  0  0  0
    6.6650    0.0035   19.9025 C   0  0  0  0  0  0  0  0  0  0  0  0
    5.4441    0.6468   20.1590 C   0  0  0  0  0  0  0  0  0  0  0  0
    4.8125    1.3146   19.1046 C   0  0  0  0  0  0  0  0  0  0  0  0
    5.4015    1.2967   17.8338 C   0  0  0  0  0  0  0  0  0  0  0  0
    6.5660    0.6817   17.5722 N   0  0  0  0  0  0  0  0  0  0  0  0
    7.1807    0.0717   18.5931 C   0  0  0  0  0  0  0  0  0  0  0  0
    8.1203   -0.4282   18.3691 H   0  0  0  0  0  0  0  0  0  0  0  0
    4.9151    1.7836   16.9910 H   0  0  0  0  0  0  0  0  0  0  0  0
    3.8763    1.8427   19.2583 H   0  0  0  0  0  0  0  0  0  0  0  0
    5.0142    0.6137   21.1632 H   0  0  0  0  0  0  0  0  0  0  0  0
    9.3496   -1.1466   21.4697 H   0  0  0  0  0  0  0  0  0  0  0  0
    8.7171    0.3586   22.2011 H   0  0  0  0  0  0  0  0  0  0  0  0
    9.1211    0.3029   20.4878 H   0  0  0  0  0  0  0  0  0  0  0  0
  1  2  1  0
  2  3  1  0
  3  4  2  0
  3  5  1  0
  5  6  1  0
  6  7  1  0
  7  8  2  0
  8  9  1  0
  9 10  2  0
 10 11  1  0
 11 12  2  0
 12 13  1  0
 11 14  1  0
 10 15  1  0
  9 16  1  0
  8 17  1  0
  6 18  1  0
  5 19  1  0
  5 20  1  0
  2 21  1  0
 21 22  2  0
 22 23  1  0
 23 24  2  0
 24 25  1  0
 25 26  2  0
 26 27  1  0
 24 28  1  0
 23 29  1  0
 22 30  1  0
  1 31  1  0
  1 32  1  0
  1 33  1  0
 12  7  1  0
 26 21  1  0
M  END
>  <cnnaffinity>  (1) 
-5.11904

>  <filename>  (1) 
[H]c1nc([H])c(N(C(=O)C([H])([H])N([H])c2c([H])c([H])c([H])c([H])c2Cl)C([H])([H])[H])c([H])c1[H]

$$$$
