
     RDKit          3D

 39 40  0  0  0  0  0  0  0  0999 V2000
    4.8518    1.8924   16.9513 H   0  0  0  0  0  0  0  0  0  0  0  0
    5.3685    1.3689   17.7533 C   0  0  0  0  0  0  0  0  0  0  0  0
    6.5239    0.7695   17.4181 N   0  0  0  0  0  0  0  0  0  0  0  0
    7.1893    0.1055   18.3760 C   0  0  0  0  0  0  0  0  0  0  0  0
    8.1093   -0.4021   18.0840 H   0  0  0  0  0  0  0  0  0  0  0  0
    6.7320   -0.0053   19.7070 C   0  0  0  0  0  0  0  0  0  0  0  0
    7.3752   -0.7727   20.7277 N   0  0  0  0  0  0  0  0  0  0  0  0
    6.7904   -1.4115   21.2401 H   0  0  0  0  0  0  0  0  0  0  0  0
    8.6976   -0.7445   21.0975 C   0  0  0  0  0  0  0  0  0  0  0  0
    9.5189   -0.0043   20.5996 O   0  0  0  0  0  0  0  0  0  0  0  0
    9.0935   -1.7420   22.2658 C   0  0  0  0  0  0  0  0  0  0  0  0
    8.1928   -2.7793   22.3233 F   0  0  0  0  0  0  0  0  0  0  0  0
   10.3060   -2.2922   21.9572 F   0  0  0  0  0  0  0  0  0  0  0  0
    9.1658   -1.0872   23.6392 C   0  0  0  0  0  0  0  0  0  0  0  0
    9.7758   -0.1826   23.5511 H   0  0  0  0  0  0  0  0  0  0  0  0
    8.1549   -0.7768   23.9148 H   0  0  0  0  0  0  0  0  0  0  0  0
    9.7635   -1.9822   24.7263 C   0  0  0  0  0  0  0  0  0  0  0  0
    9.9629   -1.3550   25.6157 H   0  0  0  0  0  0  0  0  0  0  0  0
   10.7414   -2.3220   24.3673 H   0  0  0  0  0  0  0  0  0  0  0  0
    8.9790   -3.1636   25.0381 N   0  0  0  0  0  0  0  0  0  0  0  0
    7.6340   -2.9889   25.5798 C   0  0  0  0  0  0  0  0  0  0  0  0
    6.9303   -2.6660   24.8019 H   0  0  0  0  0  0  0  0  0  0  0  0
    7.5921   -2.2388   26.3998 H   0  0  0  0  0  0  0  0  0  0  0  0
    7.2982   -4.3863   26.1117 C   0  0  0  0  0  0  0  0  0  0  0  0
    7.0168   -5.0476   25.2794 H   0  0  0  0  0  0  0  0  0  0  0  0
    6.4684   -4.3889   26.8265 H   0  0  0  0  0  0  0  0  0  0  0  0
    8.6281   -4.8329   26.7283 C   0  0  0  0  0  0  0  0  0  0  0  0
    8.7312   -5.9235   26.7930 H   0  0  0  0  0  0  0  0  0  0  0  0
    8.7293   -4.4463   27.7534 H   0  0  0  0  0  0  0  0  0  0  0  0
    9.6923   -4.1876   25.8155 C   0  0  1  0  0  0  0  0  0  0  0  0
   10.4590   -3.7527   26.4706 H   0  0  0  0  0  0  0  0  0  0  0  0
   10.3702   -5.1369   24.8391 C   0  0  0  0  0  0  0  0  0  0  0  0
   11.0691   -5.8056   25.3484 H   0  0  0  0  0  0  0  0  0  0  0  0
    9.6121   -5.7259   24.3114 H   0  0  0  0  0  0  0  0  0  0  0  0
   10.9062   -4.5481   24.0874 H   0  0  0  0  0  0  0  0  0  0  0  0
    5.5155    0.6084   20.0285 C   0  0  0  0  0  0  0  0  0  0  0  0
    5.1313    0.5232   21.0423 H   0  0  0  0  0  0  0  0  0  0  0  0
    4.8226    1.3169   19.0401 C   0  0  0  0  0  0  0  0  0  0  0  0
    3.8752    1.8058   19.2500 H   0  0  0  0  0  0  0  0  0  0  0  0
  1  2  1  0
  2  3  2  0
  3  4  1  0
  4  5  1  0
  4  6  2  0
  6  7  1  0
  7  8  1  0
  7  9  1  0
  9 10  2  0
  9 11  1  0
 11 12  1  0
 11 13  1  0
 11 14  1  0
 14 15  1  0
 14 16  1  0
 14 17  1  0
 17 18  1  0
 17 19  1  0
 17 20  1  0
 20 21  1  0
 21 22  1  0
 21 23  1  0
 21 24  1  0
 24 25  1  0
 24 26  1  0
 24 27  1  0
 27 28  1  0
 27 29  1  0
 27 30  1  0
 30 31  1  1
 30 32  1  0
 32 33  1  0
 32 34  1  0
 32 35  1  0
  6 36  1  0
 36 37  1  0
 36 38  2  0
 38 39  1  0
 38  2  1  0
 30 20  1  0
M  END
>  <cnnaffinity>  (1) 
-4.81426

>  <filename>  (1) 
[H]c1nc([H])c(N([H])C(=O)C(F)(F)C([H])([H])C([H])([H])N2C([H])([H])C([H])([H])C([H])([H])[C@@]2([H])C([H])([H])[H])c([H])c1[H]

$$$$
