
     RDKit          3D

 42 45  0  0  0  0  0  0  0  0999 V2000
   14.8046    3.9805   22.7697 F   0  0  0  0  0  0  0  0  0  0  0  0
   13.6540    3.2981   22.7565 C   0  0  0  0  0  0  0  0  0  0  0  0
   13.5935    1.9106   22.8848 C   0  0  0  0  0  0  0  0  0  0  0  0
   12.3420    1.2696   22.8188 C   0  0  0  0  0  0  0  0  0  0  0  0
   11.1950    2.0167   22.5421 C   0  0  0  0  0  0  0  0  0  0  0  0
    9.9027    1.4074   22.4405 N   0  0  0  0  0  0  0  0  0  0  0  0
    9.5729    0.4186   21.5620 N   0  0  0  0  0  0  0  0  0  0  0  0
    8.2653    0.3094   21.7189 C   0  0  0  0  0  0  0  0  0  0  0  0
    7.4083   -0.6582   20.9364 C   0  0  0  0  0  0  0  0  0  0  0  0
    6.6393   -0.0320   19.7684 C   0  0  0  0  0  0  0  0  0  0  0  0
    5.4554    0.6838   20.0074 C   0  0  0  0  0  0  0  0  0  0  0  0
    4.8356    1.3469   18.9438 C   0  0  0  0  0  0  0  0  0  0  0  0
    5.4176    1.2687   17.6771 C   0  0  0  0  0  0  0  0  0  0  0  0
    6.5284    0.5633   17.4140 N   0  0  0  0  0  0  0  0  0  0  0  0
    7.1089   -0.0694   18.4424 C   0  0  0  0  0  0  0  0  0  0  0  0
    8.0141   -0.6308   18.2045 H   0  0  0  0  0  0  0  0  0  0  0  0
    4.9750    1.7964   16.8333 H   0  0  0  0  0  0  0  0  0  0  0  0
    3.9297    1.9277   19.0846 H   0  0  0  0  0  0  0  0  0  0  0  0
    5.0391    0.7304   21.0160 H   0  0  0  0  0  0  0  0  0  0  0  0
    6.6932   -1.0750   21.6562 H   0  0  0  0  0  0  0  0  0  0  0  0
    8.0482   -1.4818   20.5971 H   0  0  0  0  0  0  0  0  0  0  0  0
    7.7347    1.1477   22.6489 N   0  0  0  0  0  0  0  0  0  0  0  0
    8.7766    1.8266   23.0764 C   0  0  0  0  0  0  0  0  0  0  0  0
    8.6791    2.8246   24.1757 C   0  0  0  0  0  0  0  0  0  0  0  0
    7.9019    4.0271   23.7143 C   0  0  0  0  0  0  0  0  0  0  0  0
    8.5910    4.9711   23.0703 N   0  0  0  0  0  0  0  0  0  0  0  0
    7.9476    6.0683   22.6425 C   0  0  0  0  0  0  0  0  0  0  0  0
    6.5784    6.2620   22.8340 C   0  0  0  0  0  0  0  0  0  0  0  0
    5.8351    5.2699   23.4861 C   0  0  0  0  0  0  0  0  0  0  0  0
    6.5168    4.1415   23.9208 C   0  0  0  0  0  0  0  0  0  0  0  0
    5.8556    3.1538   24.5493 F   0  0  0  0  0  0  0  0  0  0  0  0
    4.7669    5.3411   23.6606 H   0  0  0  0  0  0  0  0  0  0  0  0
    6.1104    7.1667   22.4637 H   0  0  0  0  0  0  0  0  0  0  0  0
    8.5439    6.8199   22.1286 H   0  0  0  0  0  0  0  0  0  0  0  0
    9.6648    3.1404   24.5162 H   0  0  0  0  0  0  0  0  0  0  0  0
    8.1678    2.3335   25.0062 H   0  0  0  0  0  0  0  0  0  0  0  0
   11.2692    3.4111   22.4330 C   0  0  0  0  0  0  0  0  0  0  0  0
   12.4903    4.0430   22.5851 C   0  0  0  0  0  0  0  0  0  0  0  0
   12.5567    5.3810   22.5688 F   0  0  0  0  0  0  0  0  0  0  0  0
   10.3896    4.0126   22.2494 H   0  0  0  0  0  0  0  0  0  0  0  0
   12.2422    0.1999   22.9721 H   0  0  0  0  0  0  0  0  0  0  0  0
   14.5146    1.3424   22.9951 H   0  0  0  0  0  0  0  0  0  0  0  0
  1  2  1  0
  2  3  2  0
  3  4  1  0
  4  5  2  0
  5  6  1  0
  6  7  1  0
  7  8  2  0
  8  9  1  0
  9 10  1  0
 10 11  2  0
 11 12  1  0
 12 13  2  0
 13 14  1  0
 14 15  2  0
 15 16  1  0
 13 17  1  0
 12 18  1  0
 11 19  1  0
  9 20  1  0
  9 21  1  0
  8 22  1  0
 22 23  2  0
 23 24  1  0
 24 25  1  0
 25 26  2  0
 26 27  1  0
 27 28  2  0
 28 29  1  0
 29 30  2  0
 30 31  1  0
 29 32  1  0
 28 33  1  0
 27 34  1  0
 24 35  1  0
 24 36  1  0
  5 37  1  0
 37 38  2  0
 38 39  1  0
 37 40  1  0
  4 41  1  0
  3 42  1  0
 38  2  1  0
 23  6  1  0
 30 25  1  0
 15 10  1  0
M  END
>  <cnnaffinity>  (1) 
-6.33201

>  <filename>  (1) 
[H]c1nc(C([H])([H])c2nc(C([H])([H])c3c([H])nc([H])c([H])c3[H])nn2-c2c([H])c([H])c(F)c(F)c2[H])c(F)c([H])c1[H]

$$$$
