
     RDKit          3D

 31 33  0  0  0  0  0  0  0  0999 V2000
    4.9127    1.8152   16.9546 H   0  0  0  0  0  0  0  0  0  0  0  0
    5.3852    1.3034   17.7927 C   0  0  0  0  0  0  0  0  0  0  0  0
    6.5473    0.6851   17.5314 N   0  0  0  0  0  0  0  0  0  0  0  0
    7.1724    0.0885   18.5576 C   0  0  0  0  0  0  0  0  0  0  0  0
    8.1159   -0.3995   18.3082 H   0  0  0  0  0  0  0  0  0  0  0  0
    6.6827    0.0594   19.8757 C   0  0  0  0  0  0  0  0  0  0  0  0
    7.4165   -0.6586   20.9973 C   0  0  1  0  0  0  0  0  0  0  0  0
    8.4559   -0.8452   20.6866 H   0  0  0  0  0  0  0  0  0  0  0  0
    7.3919    0.0804   22.2666 N   0  0  0  0  0  0  0  0  0  0  0  0
    8.4130    1.0024   22.4890 O   0  0  0  0  0  0  0  0  0  0  0  0
    8.0597    2.1547   23.2002 C   0  0  0  0  0  0  0  0  0  0  0  0
    6.7628    2.5130   23.6025 C   0  0  0  0  0  0  0  0  0  0  0  0
    5.9104    1.9120   23.3084 H   0  0  0  0  0  0  0  0  0  0  0  0
    6.5935    3.6243   24.4377 C   0  0  0  0  0  0  0  0  0  0  0  0
    5.6033    3.8801   24.8031 H   0  0  0  0  0  0  0  0  0  0  0  0
    7.6858    4.3988   24.8328 C   0  0  0  0  0  0  0  0  0  0  0  0
    7.5845    5.2507   25.4929 H   0  0  0  0  0  0  0  0  0  0  0  0
    8.9547    4.0596   24.3598 C   0  0  0  0  0  0  0  0  0  0  0  0
   10.3151    5.0310   24.8229 Cl  0  0  0  0  0  0  0  0  0  0  0  0
    9.1555    2.9564   23.5346 C   0  0  0  0  0  0  0  0  0  0  0  0
   10.1421    2.7030   23.1647 H   0  0  0  0  0  0  0  0  0  0  0  0
    7.0580   -0.7271   23.3516 C   0  0  0  0  0  0  0  0  0  0  0  0
    7.1108   -0.4433   24.5125 O   0  0  0  0  0  0  0  0  0  0  0  0
    6.6226   -1.9146   22.8696 O   0  0  0  0  0  0  0  0  0  0  0  0
    6.7003   -1.9612   21.4442 C   0  0  0  0  0  0  0  0  0  0  0  0
    7.2373   -2.8728   21.1759 H   0  0  0  0  0  0  0  0  0  0  0  0
    5.6799   -2.0205   21.0430 H   0  0  0  0  0  0  0  0  0  0  0  0
    5.4416    0.6655   20.1086 C   0  0  0  0  0  0  0  0  0  0  0  0
    5.0135    0.6354   21.1129 H   0  0  0  0  0  0  0  0  0  0  0  0
    4.7923    1.3137   19.0606 C   0  0  0  0  0  0  0  0  0  0  0  0
    3.8598    1.8415   19.2214 H   0  0  0  0  0  0  0  0  0  0  0  0
  1  2  1  0
  2  3  2  0
  3  4  1  0
  4  5  1  0
  4  6  2  0
  6  7  1  0
  7  8  1  6
  7  9  1  0
  9 10  1  0
 10 11  1  0
 11 12  2  0
 12 13  1  0
 12 14  1  0
 14 15  1  0
 14 16  2  0
 16 17  1  0
 16 18  1  0
 18 19  1  0
 18 20  2  0
 20 21  1  0
  9 22  1  0
 22 23  2  0
 22 24  1  0
 24 25  1  0
 25 26  1  0
 25 27  1  0
  6 28  1  0
 28 29  1  0
 28 30  2  0
 30 31  1  0
 30  2  1  0
 25  7  1  0
 20 11  1  0
M  END
>  <cnnaffinity>  (1) 
-4.65786

>  <filename>  (1) 
[H]c1nc([H])c([C@@]2([H])N(Oc3c([H])c([H])c([H])c(Cl)c3[H])C(=O)OC2([H])[H])c([H])c1[H]

$$$$
