
     RDKit          3D

 30 32  0  0  0  0  0  0  0  0999 V2000
    4.9889    1.7610   16.9806 H   0  0  0  0  0  0  0  0  0  0  0  0
    5.4564    1.2564   17.8222 C   0  0  0  0  0  0  0  0  0  0  0  0
    6.6158    0.6254   17.5685 N   0  0  0  0  0  0  0  0  0  0  0  0
    7.2247    0.0111   18.5926 C   0  0  0  0  0  0  0  0  0  0  0  0
    8.1608   -0.4986   18.3650 H   0  0  0  0  0  0  0  0  0  0  0  0
    6.7221    0.0069   19.9138 C   0  0  0  0  0  0  0  0  0  0  0  0
    7.4095   -0.6232   20.9908 N   0  0  0  0  0  0  0  0  0  0  0  0
    7.7815   -1.5477   20.8428 H   0  0  0  0  0  0  0  0  0  0  0  0
    7.3899   -0.1817   22.2899 C   0  0  0  0  0  0  0  0  0  0  0  0
    7.0643    0.9333   22.6323 O   0  0  0  0  0  0  0  0  0  0  0  0
    7.9792   -1.1824   23.3199 C   0  0  0  0  0  0  0  0  0  0  0  0
    7.7170   -2.4831   22.9727 F   0  0  0  0  0  0  0  0  0  0  0  0
    7.4596   -0.9996   24.5445 F   0  0  0  0  0  0  0  0  0  0  0  0
    9.4623   -0.8994   23.2611 C   0  0  0  0  0  0  0  0  0  0  0  0
   10.1716   -0.1110   23.9805 N   0  0  0  0  0  0  0  0  0  0  0  0
   11.4508   -0.2173   23.4209 C   0  0  0  0  0  0  0  0  0  0  0  0
   12.6639    0.3601   23.8062 C   0  0  0  0  0  0  0  0  0  0  0  0
   12.6704    1.0996   24.6021 H   0  0  0  0  0  0  0  0  0  0  0  0
   13.8181   -0.0732   23.1467 C   0  0  0  0  0  0  0  0  0  0  0  0
   14.7844    0.2924   23.4745 H   0  0  0  0  0  0  0  0  0  0  0  0
   13.7518   -1.0245   22.1029 C   0  0  0  0  0  0  0  0  0  0  0  0
   14.6599   -1.3831   21.6266 H   0  0  0  0  0  0  0  0  0  0  0  0
   12.5299   -1.5482   21.6696 C   0  0  0  0  0  0  0  0  0  0  0  0
   12.4570   -2.2667   20.8658 H   0  0  0  0  0  0  0  0  0  0  0  0
   11.4022   -1.1146   22.3529 C   0  0  0  0  0  0  0  0  0  0  0  0
   10.0969   -1.5013   22.2102 O   0  0  0  0  0  0  0  0  0  0  0  0
    5.5020    0.6481   20.1539 C   0  0  0  0  0  0  0  0  0  0  0  0
    5.0841    0.6533   21.1591 H   0  0  0  0  0  0  0  0  0  0  0  0
    4.8578    1.2774   19.0861 C   0  0  0  0  0  0  0  0  0  0  0  0
    3.9164    1.7958   19.2348 H   0  0  0  0  0  0  0  0  0  0  0  0
  1  2  1  0
  2  3  2  0
  3  4  1  0
  4  5  1  0
  4  6  2  0
  6  7  1  0
  7  8  1  0
  7  9  1  0
  9 10  2  0
  9 11  1  0
 11 12  1  0
 11 13  1  0
 11 14  1  0
 14 15  2  0
 15 16  1  0
 16 17  2  0
 17 18  1  0
 17 19  1  0
 19 20  1  0
 19 21  2  0
 21 22  1  0
 21 23  1  0
 23 24  1  0
 23 25  2  0
 25 26  1  0
  6 27  1  0
 27 28  1  0
 27 29  2  0
 29 30  1  0
 29  2  1  0
 26 14  1  0
 25 16  1  0
M  END
>  <cnnaffinity>  (1) 
-5.50058

>  <filename>  (1) 
[H]c1nc([H])c(N([H])C(=O)C(F)(F)c2nc3c([H])c([H])c([H])c([H])c3o2)c([H])c1[H]

$$$$
