
     RDKit          3D

 35 37  0  0  0  0  0  0  0  0999 V2000
    6.1839   -0.9828   24.8491 O   0  0  0  0  0  0  0  0  0  0  0  0
    6.8921   -1.9582   24.9994 C   0  0  0  0  0  0  0  0  0  0  0  0
    6.7596   -2.8297   26.2428 C   0  0  0  0  0  0  0  0  0  0  0  0
    5.7916   -4.3455   25.8661 S   0  0  0  0  0  0  0  0  0  0  0  0
    5.9110   -5.0321   27.4783 C   0  0  0  0  0  0  0  0  0  0  0  0
    6.9864   -5.8641   27.8037 C   0  0  0  0  0  0  0  0  0  0  0  0
    7.0856   -6.4069   29.0858 C   0  0  0  0  0  0  0  0  0  0  0  0
    6.1194   -6.1178   30.0545 C   0  0  0  0  0  0  0  0  0  0  0  0
    6.2597   -6.8680   31.8077 Br  0  0  0  0  0  0  0  0  0  0  0  0
    5.0473   -5.2806   29.7288 C   0  0  0  0  0  0  0  0  0  0  0  0
    4.9424   -4.7380   28.4444 C   0  0  0  0  0  0  0  0  0  0  0  0
    4.1131   -4.0841   28.1918 H   0  0  0  0  0  0  0  0  0  0  0  0
    4.2950   -5.0561   30.4771 H   0  0  0  0  0  0  0  0  0  0  0  0
    7.9105   -7.0665   29.3225 H   0  0  0  0  0  0  0  0  0  0  0  0
    7.7420   -6.0895   27.0568 H   0  0  0  0  0  0  0  0  0  0  0  0
    6.2571   -2.2627   27.0260 H   0  0  0  0  0  0  0  0  0  0  0  0
    7.7507   -3.0983   26.6081 H   0  0  0  0  0  0  0  0  0  0  0  0
    7.8221   -2.2704   24.0444 N   0  0  0  0  0  0  0  0  0  0  0  0
    7.8851   -1.6961   22.8045 C   0  0  0  0  0  0  0  0  0  0  0  0
    8.9233   -1.7599   22.0270 N   0  0  0  0  0  0  0  0  0  0  0  0
    8.6132   -1.1179   20.8479 N   0  0  0  0  0  0  0  0  0  0  0  0
    7.3817   -0.6888   20.9340 C   0  0  0  0  0  0  0  0  0  0  0  0
    6.6529    0.0123   19.8986 C   0  0  0  0  0  0  0  0  0  0  0  0
    5.4360    0.6476   20.1629 C   0  0  0  0  0  0  0  0  0  0  0  0
    4.8168    1.3045   19.1043 C   0  0  0  0  0  0  0  0  0  0  0  0
    5.4025    1.2922   17.8334 C   0  0  0  0  0  0  0  0  0  0  0  0
    6.5715    0.6735   17.5839 N   0  0  0  0  0  0  0  0  0  0  0  0
    7.1866    0.0570   18.6050 C   0  0  0  0  0  0  0  0  0  0  0  0
    8.1321   -0.4379   18.4018 H   0  0  0  0  0  0  0  0  0  0  0  0
    4.8928    1.7920   17.0169 H   0  0  0  0  0  0  0  0  0  0  0  0
    3.8841    1.8319   19.2598 H   0  0  0  0  0  0  0  0  0  0  0  0
    4.9973    0.6404   21.1637 H   0  0  0  0  0  0  0  0  0  0  0  0
    6.9015   -1.0301   22.1660 N   0  0  0  0  0  0  0  0  0  0  0  0
    5.9589   -0.9245   22.5047 H   0  0  0  0  0  0  0  0  0  0  0  0
    8.5221   -2.9592   24.2632 H   0  0  0  0  0  0  0  0  0  0  0  0
  1  2  2  0
  2  3  1  0
  3  4  1  0
  4  5  1  0
  5  6  2  0
  6  7  1  0
  7  8  2  0
  8  9  1  0
  8 10  1  0
 10 11  2  0
 11 12  1  0
 10 13  1  0
  7 14  1  0
  6 15  1  0
  3 16  1  0
  3 17  1  0
  2 18  1  0
 18 19  1  0
 19 20  2  0
 20 21  1  0
 21 22  2  0
 22 23  1  0
 23 24  2  0
 24 25  1  0
 25 26  2  0
 26 27  1  0
 27 28  2  0
 28 29  1  0
 26 30  1  0
 25 31  1  0
 24 32  1  0
 22 33  1  0
 33 34  1  0
 18 35  1  0
 11  5  1  0
 33 19  1  0
 28 23  1  0
M  END
>  <cnnaffinity>  (1) 
-4.99528

>  <filename>  (1) 
[H]c1nc([H])c(-c2nnc(N([H])C(=O)C([H])([H])Sc3c([H])c([H])c(Br)c([H])c3[H])n2[H])c([H])c1[H]

$$$$
