
     RDKit          3D

 47 51  0  0  0  0  0  0  0  0999 V2000
   11.8300    3.0319   21.1299 C   0  0  0  0  0  0  0  0  0  0  0  0
   11.4893    1.7390   21.8666 C   0  0  0  0  0  0  0  0  0  0  0  0
   12.0715    1.8001   23.2604 C   0  0  0  0  0  0  0  0  0  0  0  0
   13.5131    1.4800   23.4777 C   0  0  0  0  0  0  0  0  0  0  0  0
   12.4503    0.5808   24.0452 C   0  0  0  0  0  0  0  0  0  0  0  0
   12.3103   -0.3881   23.5713 H   0  0  0  0  0  0  0  0  0  0  0  0
   12.2789    0.5920   25.1206 H   0  0  0  0  0  0  0  0  0  0  0  0
   14.1023    1.1081   22.6409 H   0  0  0  0  0  0  0  0  0  0  0  0
   14.0300    2.1439   24.1486 H   0  0  0  0  0  0  0  0  0  0  0  0
   11.6805    2.6401   23.8275 H   0  0  0  0  0  0  0  0  0  0  0  0
   10.0514    1.4256   21.9069 N   0  0  0  0  0  0  0  0  0  0  0  0
    9.5869    0.3962   21.1455 N   0  0  0  0  0  0  0  0  0  0  0  0
    8.3451    0.2480   21.5564 C   0  0  0  0  0  0  0  0  0  0  0  0
    7.4008   -0.7302   20.9183 C   0  0  0  0  0  0  0  0  0  0  0  0
    6.6185   -0.0875   19.7813 C   0  0  0  0  0  0  0  0  0  0  0  0
    5.4323    0.6047   20.0541 C   0  0  0  0  0  0  0  0  0  0  0  0
    4.8034    1.3087   19.0258 C   0  0  0  0  0  0  0  0  0  0  0  0
    5.3969    1.3042   17.7600 C   0  0  0  0  0  0  0  0  0  0  0  0
    6.5276    0.6404   17.4721 N   0  0  0  0  0  0  0  0  0  0  0  0
    7.1131   -0.0349   18.4681 C   0  0  0  0  0  0  0  0  0  0  0  0
    8.0374   -0.5603   18.2178 H   0  0  0  0  0  0  0  0  0  0  0  0
    4.9458    1.8486   16.9333 H   0  0  0  0  0  0  0  0  0  0  0  0
    3.8870    1.8655   19.1928 H   0  0  0  0  0  0  0  0  0  0  0  0
    5.0299    0.5997   21.0692 H   0  0  0  0  0  0  0  0  0  0  0  0
    6.7118   -1.0733   21.6965 H   0  0  0  0  0  0  0  0  0  0  0  0
    7.9803   -1.5944   20.5754 H   0  0  0  0  0  0  0  0  0  0  0  0
    7.9728    1.0982   22.5421 N   0  0  0  0  0  0  0  0  0  0  0  0
    9.0491    1.8418   22.7304 C   0  0  0  0  0  0  0  0  0  0  0  0
    9.0581    2.9786   23.6998 C   0  0  0  0  0  0  0  0  0  0  0  0
    9.0404    4.3226   23.3292 C   0  0  0  0  0  0  0  0  0  0  0  0
    8.9621    5.3582   24.2973 C   0  0  0  0  0  0  0  0  0  0  0  0
    8.9385    6.6793   23.9022 N   0  0  0  0  0  0  0  0  0  0  0  0
    8.9544    7.5665   24.8765 C   0  0  0  0  0  0  0  0  0  0  0  0
    8.9986    7.1998   26.2701 C   0  0  0  0  0  0  0  0  0  0  0  0
    8.9688    5.9456   26.6790 N   0  0  0  0  0  0  0  0  0  0  0  0
    8.9335    4.9934   25.6874 C   0  0  0  0  0  0  0  0  0  0  0  0
    8.8918    3.6268   26.0583 C   0  0  0  0  0  0  0  0  0  0  0  0
    8.9644    2.6670   25.0849 C   0  0  0  0  0  0  0  0  0  0  0  0
    8.9845    1.3815   25.4669 F   0  0  0  0  0  0  0  0  0  0  0  0
    8.8014    3.3542   27.0973 H   0  0  0  0  0  0  0  0  0  0  0  0
    9.0818    7.9771   27.0261 H   0  0  0  0  0  0  0  0  0  0  0  0
    8.9527    8.6145   24.5907 H   0  0  0  0  0  0  0  0  0  0  0  0
    9.0676    4.6671   22.2994 H   0  0  0  0  0  0  0  0  0  0  0  0
   11.9305    0.8908   21.3280 H   0  0  0  0  0  0  0  0  0  0  0  0
   11.4322    3.9020   21.6578 H   0  0  0  0  0  0  0  0  0  0  0  0
   11.4567    3.0198   20.1037 H   0  0  0  0  0  0  0  0  0  0  0  0
   12.9114    3.1756   21.1246 H   0  0  0  0  0  0  0  0  0  0  0  0
  1  2  1  0
  2  3  1  0
  3  4  1  0
  4  5  1  0
  5  6  1  0
  5  7  1  0
  4  8  1  0
  4  9  1  0
  3 10  1  0
  2 11  1  0
 11 12  1  0
 12 13  2  0
 13 14  1  0
 14 15  1  0
 15 16  2  0
 16 17  1  0
 17 18  2  0
 18 19  1  0
 19 20  2  0
 20 21  1  0
 18 22  1  0
 17 23  1  0
 16 24  1  0
 14 25  1  0
 14 26  1  0
 13 27  1  0
 27 28  2  0
 28 29  1  0
 29 30  2  0
 30 31  1  0
 31 32  2  0
 32 33  1  0
 33 34  2  0
 34 35  1  0
 35 36  2  0
 36 37  1  0
 37 38  2  0
 38 39  1  0
 37 40  1  0
 34 41  1  0
 33 42  1  0
 30 43  1  0
  2 44  1  0
  1 45  1  0
  1 46  1  0
  1 47  1  0
  5  3  1  0
 28 11  1  0
 38 29  1  0
 20 15  1  0
 36 31  1  0
M  END
>  <cnnaffinity>  (1) 
-6.31881

>  <filename>  (1) 
[H]c1nc2c([H])c(F)c(-c3nc(C([H])([H])c4c([H])nc([H])c([H])c4[H])nn3C([H])(C([H])([H])[H])C3([H])C([H])([H])C3([H])[H])c([H])c2nc1[H]

$$$$
