
     RDKit          3D

 30 32  0  0  0  0  0  0  0  0999 V2000
    4.9142    1.8183   16.9675 H   0  0  0  0  0  0  0  0  0  0  0  0
    5.3866    1.3110   17.8094 C   0  0  0  0  0  0  0  0  0  0  0  0
    6.5443    0.6835   17.5464 N   0  0  0  0  0  0  0  0  0  0  0  0
    7.1563    0.0682   18.5644 C   0  0  0  0  0  0  0  0  0  0  0  0
    8.1101   -0.3908   18.3109 H   0  0  0  0  0  0  0  0  0  0  0  0
    6.6625    0.0116   19.8855 C   0  0  0  0  0  0  0  0  0  0  0  0
    7.3862   -0.6839   20.9778 C   0  0  0  0  0  0  0  0  0  0  0  0
    7.5373   -0.3684   22.3328 C   0  0  0  0  0  0  0  0  0  0  0  0
    7.1524    0.8681   23.0017 C   0  0  0  0  0  0  0  0  0  0  0  0
    6.4503    1.0628   24.2343 C   0  0  0  0  0  0  0  0  0  0  0  0
    5.9949   -0.0186   25.1522 C   0  0  0  0  0  0  0  0  0  0  0  0
    6.8472   -0.4050   25.7225 H   0  0  0  0  0  0  0  0  0  0  0  0
    5.2340    0.3403   25.8463 H   0  0  0  0  0  0  0  0  0  0  0  0
    5.6070   -0.8482   24.5572 H   0  0  0  0  0  0  0  0  0  0  0  0
    6.2721    2.3332   24.4895 N   0  0  0  0  0  0  0  0  0  0  0  0
    6.8758    3.0100   23.4448 O   0  0  0  0  0  0  0  0  0  0  0  0
    7.3996    2.1373   22.5807 C   0  0  0  0  0  0  0  0  0  0  0  0
    8.0186    2.6216   21.3266 C   0  0  0  0  0  0  0  0  0  0  0  0
    7.2109    2.6294   20.5905 H   0  0  0  0  0  0  0  0  0  0  0  0
    8.7607    1.9083   20.9627 H   0  0  0  0  0  0  0  0  0  0  0  0
    8.4494    3.6195   21.4124 H   0  0  0  0  0  0  0  0  0  0  0  0
    8.2194   -1.4871   22.8771 C   0  0  0  0  0  0  0  0  0  0  0  0
    8.5335   -1.6193   23.9074 H   0  0  0  0  0  0  0  0  0  0  0  0
    8.4833   -2.4076   21.9624 N   0  0  0  0  0  0  0  0  0  0  0  0
    7.9820   -1.8933   20.8281 N   0  0  0  0  0  0  0  0  0  0  0  0
    7.9951   -2.4515   19.9863 H   0  0  0  0  0  0  0  0  0  0  0  0
    5.4414    0.6651   20.1341 C   0  0  0  0  0  0  0  0  0  0  0  0
    5.0106    0.6547   21.1362 H   0  0  0  0  0  0  0  0  0  0  0  0
    4.8011    1.3242   19.0809 C   0  0  0  0  0  0  0  0  0  0  0  0
    3.8656    1.8531   19.2282 H   0  0  0  0  0  0  0  0  0  0  0  0
  1  2  1  0
  2  3  2  0
  3  4  1  0
  4  5  1  0
  4  6  2  0
  6  7  1  0
  7  8  2  0
  8  9  1  0
  9 10  1  0
 10 11  1  0
 11 12  1  0
 11 13  1  0
 11 14  1  0
 10 15  2  0
 15 16  1  0
 16 17  1  0
 17 18  1  0
 18 19  1  0
 18 20  1  0
 18 21  1  0
  8 22  1  0
 22 23  1  0
 22 24  2  0
 24 25  1  0
 25 26  1  0
  6 27  1  0
 27 28  1  0
 27 29  2  0
 29 30  1  0
 29  2  1  0
 25  7  1  0
 17  9  2  0
M  END
>  <cnnaffinity>  (1) 
-4.87908

>  <filename>  (1) 
[H]c1nc([H])c(-c2c(-c3c(C([H])([H])[H])noc3C([H])([H])[H])c([H])nn2[H])c([H])c1[H]

$$$$
