
     RDKit          3D

 34 35  0  0  0  0  0  0  0  0999 V2000
    4.9099    1.8079   16.9706 H   0  0  0  0  0  0  0  0  0  0  0  0
    5.3835    1.3092   17.8139 C   0  0  0  0  0  0  0  0  0  0  0  0
    6.5472    0.6930   17.5467 N   0  0  0  0  0  0  0  0  0  0  0  0
    7.1556    0.0662   18.5608 C   0  0  0  0  0  0  0  0  0  0  0  0
    8.1137   -0.3961   18.3236 H   0  0  0  0  0  0  0  0  0  0  0  0
    6.6502    0.0112   19.8762 C   0  0  0  0  0  0  0  0  0  0  0  0
    7.3645   -0.6673   20.9693 C   0  0  0  0  0  0  0  0  0  0  0  0
    7.5595   -0.3027   22.2989 C   0  0  0  0  0  0  0  0  0  0  0  0
    7.1959    0.8920   22.8725 N   0  0  0  0  0  0  0  0  0  0  0  0
    6.8761    1.6195   22.2413 H   0  0  0  0  0  0  0  0  0  0  0  0
    7.2646    1.0986   24.2394 N   0  0  0  0  0  0  0  0  0  0  0  0
    5.9371    0.9751   24.8658 C   0  0  0  0  0  0  0  0  0  0  0  0
    5.5355    0.0102   24.5367 H   0  0  0  0  0  0  0  0  0  0  0  0
    6.1001    0.8952   25.9460 H   0  0  0  0  0  0  0  0  0  0  0  0
    4.9521    2.1080   24.5433 C   0  0  0  0  0  0  0  0  0  0  0  0
    3.9530    1.8789   24.9255 H   0  0  0  0  0  0  0  0  0  0  0  0
    4.8796    2.2439   23.4577 H   0  0  0  0  0  0  0  0  0  0  0  0
    5.2790    3.0610   24.9752 H   0  0  0  0  0  0  0  0  0  0  0  0
    8.0192    2.3191   24.5525 C   0  0  0  0  0  0  0  0  0  0  0  0
    7.4767    3.2259   24.2187 H   0  0  0  0  0  0  0  0  0  0  0  0
    8.9377    2.2689   23.9587 H   0  0  0  0  0  0  0  0  0  0  0  0
    8.3628    2.4449   26.0335 C   0  0  0  0  0  0  0  0  0  0  0  0
    8.8428    1.5296   26.3910 H   0  0  0  0  0  0  0  0  0  0  0  0
    7.4801    2.6375   26.6537 H   0  0  0  0  0  0  0  0  0  0  0  0
    9.0535    3.2797   26.1849 H   0  0  0  0  0  0  0  0  0  0  0  0
    8.2727   -1.3790   22.8843 C   0  0  0  0  0  0  0  0  0  0  0  0
    8.6137   -1.4764   23.9063 H   0  0  0  0  0  0  0  0  0  0  0  0
    8.5091   -2.3357   21.9900 N   0  0  0  0  0  0  0  0  0  0  0  0
    7.9661   -1.8785   20.8489 N   0  0  0  0  0  0  0  0  0  0  0  0
    7.9867   -2.4519   20.0161 H   0  0  0  0  0  0  0  0  0  0  0  0
    5.4327    0.6624   20.1299 C   0  0  0  0  0  0  0  0  0  0  0  0
    5.0196    0.6228   21.1402 H   0  0  0  0  0  0  0  0  0  0  0  0
    4.7900    1.3214   19.0820 C   0  0  0  0  0  0  0  0  0  0  0  0
    3.8605    1.8519   19.2373 H   0  0  0  0  0  0  0  0  0  0  0  0
  1  2  1  0
  2  3  2  0
  3  4  1  0
  4  5  1  0
  4  6  2  0
  6  7  1  0
  7  8  2  0
  8  9  1  0
  9 10  1  0
  9 11  1  0
 11 12  1  0
 12 13  1  0
 12 14  1  0
 12 15  1  0
 15 16  1  0
 15 17  1  0
 15 18  1  0
 11 19  1  0
 19 20  1  0
 19 21  1  0
 19 22  1  0
 22 23  1  0
 22 24  1  0
 22 25  1  0
  8 26  1  0
 26 27  1  0
 26 28  2  0
 28 29  1  0
 29 30  1  0
  6 31  1  0
 31 32  1  0
 31 33  2  0
 33 34  1  0
 33  2  1  0
 29  7  1  0
M  END
>  <cnnaffinity>  (1) 
-4.9209

>  <filename>  (1) 
[H]c1nc([H])c(-c2c(N([H])N(C([H])([H])C([H])([H])[H])C([H])([H])C([H])([H])[H])c([H])nn2[H])c([H])c1[H]

$$$$
