
     RDKit          3D

 49 53  0  0  0  0  0  0  0  0999 V2000
    6.7603   -1.2296   27.4063 C   0  0  0  0  0  0  0  0  0  0  0  0
    7.9151   -0.6138   26.6753 C   0  0  0  0  0  0  0  0  0  0  0  0
    8.9400   -1.2371   26.0144 C   0  0  0  0  0  0  0  0  0  0  0  0
    9.6856   -0.2222   25.4466 N   0  0  0  0  0  0  0  0  0  0  0  0
    9.0984    0.9550   25.7939 C   0  0  0  0  0  0  0  0  0  0  0  0
    9.5457    2.2771   25.2386 C   0  0  0  0  0  0  0  0  0  0  0  0
    8.6947    2.7452   24.0162 C   0  0  0  0  0  0  0  0  0  0  0  0
    8.7145    1.7960   22.8556 C   0  0  0  0  0  0  0  0  0  0  0  0
    7.6970    1.1208   22.3656 N   0  0  0  0  0  0  0  0  0  0  0  0
    8.2812    0.2492   21.4990 C   0  0  0  0  0  0  0  0  0  0  0  0
    7.4659   -0.7389   20.7122 C   0  0  0  0  0  0  0  0  0  0  0  0
    6.6613   -0.1076   19.5820 C   0  0  0  0  0  0  0  0  0  0  0  0
    5.5000    0.6228   19.8696 C   0  0  0  0  0  0  0  0  0  0  0  0
    4.8649    1.3145   18.8372 C   0  0  0  0  0  0  0  0  0  0  0  0
    5.4106    1.2494   17.5525 C   0  0  0  0  0  0  0  0  0  0  0  0
    6.4986    0.5260   17.2470 N   0  0  0  0  0  0  0  0  0  0  0  0
    7.0971   -0.1320   18.2466 C   0  0  0  0  0  0  0  0  0  0  0  0
    7.9968   -0.6907   17.9814 H   0  0  0  0  0  0  0  0  0  0  0  0
    4.9653    1.8112   16.7337 H   0  0  0  0  0  0  0  0  0  0  0  0
    3.9899    1.9268   19.0236 H   0  0  0  0  0  0  0  0  0  0  0  0
    5.1458    0.6814   20.9011 H   0  0  0  0  0  0  0  0  0  0  0  0
    6.7877   -1.2133   21.4306 H   0  0  0  0  0  0  0  0  0  0  0  0
    8.1411   -1.5127   20.3358 H   0  0  0  0  0  0  0  0  0  0  0  0
    9.5964    0.3336   21.4270 N   0  0  0  0  0  0  0  0  0  0  0  0
    9.8666    1.3802   22.2664 N   0  0  0  0  0  0  0  0  0  0  0  0
   11.1746    1.8966   22.4307 C   0  0  0  0  0  0  0  0  0  0  0  0
   11.4656    3.2596   22.5251 C   0  0  0  0  0  0  0  0  0  0  0  0
   12.7965    3.7068   22.6576 C   0  0  0  0  0  0  0  0  0  0  0  0
   13.8572    2.8075   22.6861 C   0  0  0  0  0  0  0  0  0  0  0  0
   13.5779    1.4272   22.6393 C   0  0  0  0  0  0  0  0  0  0  0  0
   12.2502    0.9961   22.5052 C   0  0  0  0  0  0  0  0  0  0  0  0
   12.3228   -0.3747   22.4104 N   0  0  0  0  0  0  0  0  0  0  0  0
   13.6497   -0.6932   22.4297 C   0  0  0  0  0  0  0  0  0  0  0  0
   14.4347    0.3342   22.5780 N   0  0  0  0  0  0  0  0  0  0  0  0
   13.9914   -1.7158   22.3137 H   0  0  0  0  0  0  0  0  0  0  0  0
   11.5504   -0.9510   22.1143 H   0  0  0  0  0  0  0  0  0  0  0  0
   14.8824    3.1412   22.6196 H   0  0  0  0  0  0  0  0  0  0  0  0
   12.9892    4.7737   22.6986 H   0  0  0  0  0  0  0  0  0  0  0  0
   10.6767    3.9955   22.4260 H   0  0  0  0  0  0  0  0  0  0  0  0
    9.0058    3.7416   23.6853 H   0  0  0  0  0  0  0  0  0  0  0  0
    7.6534    2.8414   24.3370 H   0  0  0  0  0  0  0  0  0  0  0  0
    9.4421    3.0229   26.0296 H   0  0  0  0  0  0  0  0  0  0  0  0
   10.6090    2.1984   24.9856 H   0  0  0  0  0  0  0  0  0  0  0  0
    8.0331    0.7534   26.5319 N   0  0  0  0  0  0  0  0  0  0  0  0
   10.4767   -0.2970   24.8208 H   0  0  0  0  0  0  0  0  0  0  0  0
    9.1785   -2.2868   25.9215 H   0  0  0  0  0  0  0  0  0  0  0  0
    6.9323   -2.2976   27.5688 H   0  0  0  0  0  0  0  0  0  0  0  0
    5.8443   -1.1323   26.8121 H   0  0  0  0  0  0  0  0  0  0  0  0
    6.5769   -0.7398   28.3695 H   0  0  0  0  0  0  0  0  0  0  0  0
  1  2  1  0
  2  3  2  0
  3  4  1  0
  4  5  1  0
  5  6  1  0
  6  7  1  0
  7  8  1  0
  8  9  2  0
  9 10  1  0
 10 11  1  0
 11 12  1  0
 12 13  2  0
 13 14  1  0
 14 15  2  0
 15 16  1  0
 16 17  2  0
 17 18  1  0
 15 19  1  0
 14 20  1  0
 13 21  1  0
 11 22  1  0
 11 23  1  0
 10 24  2  0
 24 25  1  0
 25 26  1  0
 26 27  2  0
 27 28  1  0
 28 29  2  0
 29 30  1  0
 30 31  2  0
 31 32  1  0
 32 33  1  0
 33 34  2  0
 33 35  1  0
 32 36  1  0
 29 37  1  0
 28 38  1  0
 27 39  1  0
  7 40  1  0
  7 41  1  0
  6 42  1  0
  6 43  1  0
  5 44  2  0
  4 45  1  0
  3 46  1  0
  1 47  1  0
  1 48  1  0
  1 49  1  0
 44  2  1  0
 25  8  1  0
 31 26  1  0
 17 12  1  0
 34 30  1  0
M  END
>  <cnnaffinity>  (1) 
-6.71381

>  <filename>  (1) 
[H]c1nc([H])c(C([H])([H])c2nc(C([H])([H])C([H])([H])c3nc(C([H])([H])[H])c([H])n3[H])n(-c3c([H])c([H])c([H])c4nc([H])n([H])c34)n2)c([H])c1[H]

$$$$
