
     RDKit          3D

 31 32  0  0  0  0  0  0  0  0999 V2000
    4.9562    1.7900   16.9278 H   0  0  0  0  0  0  0  0  0  0  0  0
    5.4070    1.3093   17.7988 C   0  0  0  0  0  0  0  0  0  0  0  0
    6.5741    0.6798   17.6042 N   0  0  0  0  0  0  0  0  0  0  0  0
    7.1451    0.0976   18.6688 C   0  0  0  0  0  0  0  0  0  0  0  0
    8.0805   -0.4243   18.4613 H   0  0  0  0  0  0  0  0  0  0  0  0
    6.6243    0.1038   19.9715 C   0  0  0  0  0  0  0  0  0  0  0  0
    7.3885   -0.5523   21.1230 C   0  0  2  0  0  0  0  0  0  0  0  0
    6.7660   -0.4521   22.0194 H   0  0  0  0  0  0  0  0  0  0  0  0
    8.7622    0.1030   21.3810 C   0  0  0  0  0  0  0  0  0  0  0  0
    9.4412   -0.0173   20.5261 H   0  0  0  0  0  0  0  0  0  0  0  0
    9.2410   -0.3752   22.2415 H   0  0  0  0  0  0  0  0  0  0  0  0
    8.6894    1.1764   21.5757 H   0  0  0  0  0  0  0  0  0  0  0  0
    7.6023   -2.0556   20.8339 C   0  0  0  0  0  0  0  0  0  0  0  0
    6.7519   -2.4873   20.2982 H   0  0  0  0  0  0  0  0  0  0  0  0
    8.4915   -2.1280   20.2068 H   0  0  0  0  0  0  0  0  0  0  0  0
    8.0178   -3.1667   22.2143 S   0  0  0  0  0  0  0  0  0  0  0  0
    6.4319   -3.3680   23.0057 C   0  0  0  0  0  0  0  0  0  0  0  0
    5.4924   -4.3305   22.5884 C   0  0  0  0  0  0  0  0  0  0  0  0
    5.7420   -5.0332   21.7971 H   0  0  0  0  0  0  0  0  0  0  0  0
    4.2507   -4.4179   23.2323 C   0  0  0  0  0  0  0  0  0  0  0  0
    3.5121   -5.1473   22.8963 H   0  0  0  0  0  0  0  0  0  0  0  0
    3.9583   -3.5736   24.3106 C   0  0  0  0  0  0  0  0  0  0  0  0
    2.9923   -3.6348   24.8036 H   0  0  0  0  0  0  0  0  0  0  0  0
    4.9117   -2.6566   24.7680 C   0  0  0  0  0  0  0  0  0  0  0  0
    4.6934   -1.9889   25.6012 H   0  0  0  0  0  0  0  0  0  0  0  0
    6.1437   -2.5641   24.1173 C   0  0  0  0  0  0  0  0  0  0  0  0
    6.8833   -1.8359   24.4408 H   0  0  0  0  0  0  0  0  0  0  0  0
    5.3841    0.7422   20.1417 C   0  0  0  0  0  0  0  0  0  0  0  0
    4.8972    0.7543   21.1213 H   0  0  0  0  0  0  0  0  0  0  0  0
    4.7695    1.3524   19.0424 C   0  0  0  0  0  0  0  0  0  0  0  0
    3.8167    1.8622   19.1362 H   0  0  0  0  0  0  0  0  0  0  0  0
  1  2  1  0
  2  3  2  0
  3  4  1  0
  4  5  1  0
  4  6  2  0
  6  7  1  0
  7  8  1  1
  7  9  1  0
  9 10  1  0
  9 11  1  0
  9 12  1  0
  7 13  1  0
 13 14  1  0
 13 15  1  0
 13 16  1  0
 16 17  1  0
 17 18  2  0
 18 19  1  0
 18 20  1  0
 20 21  1  0
 20 22  2  0
 22 23  1  0
 22 24  1  0
 24 25  1  0
 24 26  2  0
 26 27  1  0
  6 28  1  0
 28 29  1  0
 28 30  2  0
 30 31  1  0
 30  2  1  0
 26 17  1  0
M  END
>  <cnnaffinity>  (1) 
-4.46501

>  <filename>  (1) 
[H]c1nc([H])c([C@]([H])(C([H])([H])[H])C([H])([H])Sc2c([H])c([H])c([H])c([H])c2[H])c([H])c1[H]

$$$$
