
     RDKit          3D

 42 45  0  0  0  0  0  0  0  0999 V2000
    6.4814    4.5341   21.9040 C   0  0  0  0  0  0  0  0  0  0  0  0
    7.6798    3.6651   22.0907 C   0  0  0  0  0  0  0  0  0  0  0  0
    7.8780    2.5674   21.4353 N   0  0  0  0  0  0  0  0  0  0  0  0
    9.0622    1.9910   21.8094 C   0  0  0  0  0  0  0  0  0  0  0  0
    9.7752    2.6221   22.7764 C   0  0  0  0  0  0  0  0  0  0  0  0
   11.1375    2.1854   23.2431 C   0  0  0  0  0  0  0  0  0  0  0  0
   11.3859    0.7113   22.8617 C   0  0  0  0  0  0  0  0  0  0  0  0
   10.9894    0.4519   21.3956 C   0  0  0  0  0  0  0  0  0  0  0  0
    9.4799    0.7176   21.1312 C   0  0  0  0  0  0  0  0  0  0  0  0
    8.5504   -0.4020   21.5277 C   0  0  0  0  0  0  0  0  0  0  0  0
    8.7235   -1.2306   22.5359 N   0  0  0  0  0  0  0  0  0  0  0  0
    7.5931   -1.9660   22.5483 C   0  0  0  0  0  0  0  0  0  0  0  0
    7.3840   -3.0278   23.5433 C   0  0  0  0  0  0  0  0  0  0  0  0
    7.9537   -4.3154   23.0197 C   0  0  0  0  0  0  0  0  0  0  0  0
    9.2833   -4.2213   22.8968 F   0  0  0  0  0  0  0  0  0  0  0  0
    7.4479   -4.6544   21.8237 F   0  0  0  0  0  0  0  0  0  0  0  0
    7.6936   -5.3254   23.8706 F   0  0  0  0  0  0  0  0  0  0  0  0
    7.9300   -2.7562   24.4473 H   0  0  0  0  0  0  0  0  0  0  0  0
    6.3232   -3.1402   23.7642 H   0  0  0  0  0  0  0  0  0  0  0  0
    6.7287   -1.6858   21.6060 N   0  0  0  0  0  0  0  0  0  0  0  0
    7.3444   -0.6825   20.9204 N   0  0  0  0  0  0  0  0  0  0  0  0
    6.6348   -0.0419   19.8622 C   0  0  0  0  0  0  0  0  0  0  0  0
    5.3964    0.5607   20.1148 C   0  0  0  0  0  0  0  0  0  0  0  0
    4.7853    1.2637   19.0733 C   0  0  0  0  0  0  0  0  0  0  0  0
    5.3971    1.2831   17.8146 C   0  0  0  0  0  0  0  0  0  0  0  0
    6.5448    0.6383   17.5465 N   0  0  0  0  0  0  0  0  0  0  0  0
    7.1505    0.0029   18.5573 C   0  0  0  0  0  0  0  0  0  0  0  0
    8.0888   -0.5013   18.3263 H   0  0  0  0  0  0  0  0  0  0  0  0
    4.9532    1.8369   16.9926 H   0  0  0  0  0  0  0  0  0  0  0  0
    3.8548    1.7983   19.2271 H   0  0  0  0  0  0  0  0  0  0  0  0
    4.9504    0.4902   21.1102 H   0  0  0  0  0  0  0  0  0  0  0  0
    9.3072    0.8567   20.0613 H   0  0  0  0  0  0  0  0  0  0  0  0
   11.2623   -0.5580   21.0746 H   0  0  0  0  0  0  0  0  0  0  0  0
   11.5558    1.1564   20.7702 H   0  0  0  0  0  0  0  0  0  0  0  0
   10.7919    0.0605   23.5120 H   0  0  0  0  0  0  0  0  0  0  0  0
   12.4390    0.4549   23.0256 H   0  0  0  0  0  0  0  0  0  0  0  0
   11.2717    2.3583   24.3169 H   0  0  0  0  0  0  0  0  0  0  0  0
   11.9040    2.8120   22.7593 H   0  0  0  0  0  0  0  0  0  0  0  0
    8.9291    4.0549   23.2512 S   0  0  0  0  0  0  0  0  0  0  0  0
    6.6984    5.3518   21.2092 H   0  0  0  0  0  0  0  0  0  0  0  0
    5.6663    3.9469   21.4749 H   0  0  0  0  0  0  0  0  0  0  0  0
    6.1535    4.9657   22.8498 H   0  0  0  0  0  0  0  0  0  0  0  0
  1  2  1  0
  2  3  2  0
  3  4  1  0
  4  5  2  0
  5  6  1  0
  6  7  1  0
  7  8  1  0
  8  9  1  0
  9 10  1  0
 10 11  2  0
 11 12  1  0
 12 13  1  0
 13 14  1  0
 14 15  1  0
 14 16  1  0
 14 17  1  0
 13 18  1  0
 13 19  1  0
 12 20  2  0
 20 21  1  0
 21 22  1  0
 22 23  2  0
 23 24  1  0
 24 25  2  0
 25 26  1  0
 26 27  2  0
 27 28  1  0
 25 29  1  0
 24 30  1  0
 23 31  1  0
  9 32  1  0
  8 33  1  0
  8 34  1  0
  7 35  1  0
  7 36  1  0
  6 37  1  0
  6 38  1  0
  5 39  1  0
  1 40  1  0
  1 41  1  0
  1 42  1  0
 39  2  1  0
  9  4  1  0
 21 10  1  0
 27 22  1  0
M  END
>  <cnnaffinity>  (1) 
-6.52528

>  <filename>  (1) 
[H]c1nc([H])c(-n2nc(C([H])([H])C(F)(F)F)nc2C2([H])c3nc(C([H])([H])[H])sc3C([H])([H])C([H])([H])C2([H])[H])c([H])c1[H]

$$$$
