
     RDKit          3D

 32 34  0  0  0  0  0  0  0  0999 V2000
    4.9155    1.8167   16.9712 H   0  0  0  0  0  0  0  0  0  0  0  0
    5.3804    1.3072   17.8137 C   0  0  0  0  0  0  0  0  0  0  0  0
    6.5419    0.6845   17.5520 N   0  0  0  0  0  0  0  0  0  0  0  0
    7.1603    0.0794   18.5737 C   0  0  0  0  0  0  0  0  0  0  0  0
    8.1098   -0.3921   18.3179 H   0  0  0  0  0  0  0  0  0  0  0  0
    6.6674    0.0433   19.8984 C   0  0  0  0  0  0  0  0  0  0  0  0
    7.3845   -0.6272   21.0091 C   0  0  0  0  0  0  0  0  0  0  0  0
    7.5225   -0.3039   22.3529 C   0  0  0  0  0  0  0  0  0  0  0  0
    6.9895    0.8416   22.9870 N   0  0  0  0  0  0  0  0  0  0  0  0
    7.0817    1.7645   22.5811 H   0  0  0  0  0  0  0  0  0  0  0  0
    6.7745    1.0012   24.3330 C   0  0  0  0  0  0  0  0  0  0  0  0
    6.9406    2.2589   24.7614 N   0  0  0  0  0  0  0  0  0  0  0  0
    6.7541    2.4663   26.0730 C   0  0  0  0  0  0  0  0  0  0  0  0
    6.9764    3.8469   26.6341 C   0  0  0  0  0  0  0  0  0  0  0  0
    7.6404    3.7926   27.5060 H   0  0  0  0  0  0  0  0  0  0  0  0
    6.0191    4.2577   26.9783 H   0  0  0  0  0  0  0  0  0  0  0  0
    7.4110    4.5301   25.8998 H   0  0  0  0  0  0  0  0  0  0  0  0
    6.3393    1.4539   26.9584 C   0  0  0  0  0  0  0  0  0  0  0  0
    6.1973    1.7100   28.0043 H   0  0  0  0  0  0  0  0  0  0  0  0
    6.1236    0.1639   26.4699 C   0  0  0  0  0  0  0  0  0  0  0  0
    5.7869   -0.6413   27.1245 H   0  0  0  0  0  0  0  0  0  0  0  0
    6.3519   -0.0712   25.1200 C   0  0  0  0  0  0  0  0  0  0  0  0
    6.2010   -1.0157   24.6075 H   0  0  0  0  0  0  0  0  0  0  0  0
    8.3012   -1.3762   22.8910 C   0  0  0  0  0  0  0  0  0  0  0  0
    8.6556   -1.5079   23.9039 H   0  0  0  0  0  0  0  0  0  0  0  0
    8.6191   -2.2768   21.9674 N   0  0  0  0  0  0  0  0  0  0  0  0
    8.0630   -1.7994   20.8442 N   0  0  0  0  0  0  0  0  0  0  0  0
    8.1070   -2.3392   19.9925 H   0  0  0  0  0  0  0  0  0  0  0  0
    5.4369    0.6807   20.1341 C   0  0  0  0  0  0  0  0  0  0  0  0
    5.0080    0.6496   21.1345 H   0  0  0  0  0  0  0  0  0  0  0  0
    4.7847    1.3231   19.0779 C   0  0  0  0  0  0  0  0  0  0  0  0
    3.8484    1.8544   19.2211 H   0  0  0  0  0  0  0  0  0  0  0  0
  1  2  1  0
  2  3  2  0
  3  4  1  0
  4  5  1  0
  4  6  2  0
  6  7  1  0
  7  8  2  0
  8  9  1  0
  9 10  1  0
  9 11  1  0
 11 12  2  0
 12 13  1  0
 13 14  1  0
 14 15  1  0
 14 16  1  0
 14 17  1  0
 13 18  2  0
 18 19  1  0
 18 20  1  0
 20 21  1  0
 20 22  2  0
 22 23  1  0
  8 24  1  0
 24 25  1  0
 24 26  2  0
 26 27  1  0
 27 28  1  0
  6 29  1  0
 29 30  1  0
 29 31  2  0
 31 32  1  0
 31  2  1  0
 27  7  1  0
 22 11  1  0
M  END
>  <cnnaffinity>  (1) 
-5.27902

>  <filename>  (1) 
[H]c1nc([H])c(-c2c(N([H])c3nc(C([H])([H])[H])c([H])c([H])c3[H])c([H])nn2[H])c([H])c1[H]

$$$$
