
     RDKit          3D

 51 56  0  0  0  0  0  0  0  0999 V2000
    4.8396    1.2622   18.9661 C   0  0  0  0  0  0  0  0  0  0  0  0
    5.4091    1.2752   17.6910 C   0  0  0  0  0  0  0  0  0  0  0  0
    6.5301    0.6084   17.3744 N   0  0  0  0  0  0  0  0  0  0  0  0
    7.1348   -0.0747   18.3545 C   0  0  0  0  0  0  0  0  0  0  0  0
    6.6743   -0.1322   19.6834 C   0  0  0  0  0  0  0  0  0  0  0  0
    7.4924   -0.7583   20.8146 C   0  0  0  0  0  0  0  0  0  0  0  0
    8.3424    0.2451   21.5436 C   0  0  0  0  0  0  0  0  0  0  0  0
    9.6587    0.3068   21.4663 N   0  0  0  0  0  0  0  0  0  0  0  0
    9.9465    1.4114   22.2136 N   0  0  0  0  0  0  0  0  0  0  0  0
   11.2565    1.9298   22.3108 C   0  0  0  0  0  0  0  0  0  0  0  0
   11.5076    3.3038   22.3832 C   0  0  0  0  0  0  0  0  0  0  0  0
   12.8116    3.7967   22.5811 C   0  0  0  0  0  0  0  0  0  0  0  0
   13.9027    2.9395   22.6594 C   0  0  0  0  0  0  0  0  0  0  0  0
   13.6659    1.5481   22.6145 C   0  0  0  0  0  0  0  0  0  0  0  0
   12.3634    1.0622   22.4127 C   0  0  0  0  0  0  0  0  0  0  0  0
   12.5009   -0.3093   22.3846 N   0  0  0  0  0  0  0  0  0  0  0  0
   13.8250   -0.5759   22.5651 C   0  0  0  0  0  0  0  0  0  0  0  0
   14.5574    0.4899   22.7141 N   0  0  0  0  0  0  0  0  0  0  0  0
   14.1977   -1.5926   22.6187 H   0  0  0  0  0  0  0  0  0  0  0  0
   11.7620   -0.9288   22.1030 H   0  0  0  0  0  0  0  0  0  0  0  0
   14.9149    3.3198   22.6462 H   0  0  0  0  0  0  0  0  0  0  0  0
   12.9583    4.8699   22.6628 H   0  0  0  0  0  0  0  0  0  0  0  0
   10.7101    4.0259   22.2620 H   0  0  0  0  0  0  0  0  0  0  0  0
    8.7872    1.9111   22.7434 C   0  0  0  0  0  0  0  0  0  0  0  0
    8.7625    2.9539   23.8118 C   0  0  2  0  0  0  0  0  0  0  0  0
    9.6819    2.6353   25.0093 C   0  0  0  0  0  0  0  0  0  0  0  0
    8.9023    3.1513   26.2247 C   0  0  0  0  0  0  0  0  0  0  0  0
    7.5905    3.4564   25.7969 O   0  0  0  0  0  0  0  0  0  0  0  0
    7.3681    3.1651   24.4299 C   0  0  1  0  0  0  0  0  0  0  0  0
    6.6152    4.2889   23.7332 C   0  0  0  0  0  0  0  0  0  0  0  0
    6.9945    5.7378   23.9184 C   0  0  0  0  0  0  0  0  0  0  0  0
    5.6890    5.2253   24.4582 C   0  0  0  0  0  0  0  0  0  0  0  0
    4.7728    5.5279   23.9563 H   0  0  0  0  0  0  0  0  0  0  0  0
    5.6083    5.1101   25.5370 H   0  0  0  0  0  0  0  0  0  0  0  0
    7.7839    5.9673   24.6320 H   0  0  0  0  0  0  0  0  0  0  0  0
    6.9806    6.3748   23.0360 H   0  0  0  0  0  0  0  0  0  0  0  0
    6.3283    4.0206   22.7177 H   0  0  0  0  0  0  0  0  0  0  0  0
    6.7753    2.2410   24.3726 H   0  0  0  0  0  0  0  0  0  0  0  0
    9.3360    4.0655   26.6488 H   0  0  0  0  0  0  0  0  0  0  0  0
    8.8278    2.4032   27.0251 H   0  0  0  0  0  0  0  0  0  0  0  0
   10.6652    3.0967   24.8756 H   0  0  0  0  0  0  0  0  0  0  0  0
    9.8404    1.5559   25.0964 H   0  0  0  0  0  0  0  0  0  0  0  0
    9.0813    3.9013   23.3676 H   0  0  0  0  0  0  0  0  0  0  0  0
    7.7692    1.1927   22.3264 N   0  0  0  0  0  0  0  0  0  0  0  0
    6.8147   -1.2045   21.5543 H   0  0  0  0  0  0  0  0  0  0  0  0
    8.1638   -1.5430   20.4593 H   0  0  0  0  0  0  0  0  0  0  0  0
    5.4800    0.5436   19.9769 C   0  0  0  0  0  0  0  0  0  0  0  0
    5.0902    0.5368   20.9970 H   0  0  0  0  0  0  0  0  0  0  0  0
    8.0564   -0.5877   18.0731 H   0  0  0  0  0  0  0  0  0  0  0  0
    4.9452    1.8459   16.8889 H   0  0  0  0  0  0  0  0  0  0  0  0
    3.9355    1.8285   19.1608 H   0  0  0  0  0  0  0  0  0  0  0  0
  1  2  2  0
  2  3  1  0
  3  4  2  0
  4  5  1  0
  5  6  1  0
  6  7  1  0
  7  8  2  0
  8  9  1  0
  9 10  1  0
 10 11  2  0
 11 12  1  0
 12 13  2  0
 13 14  1  0
 14 15  2  0
 15 16  1  0
 16 17  1  0
 17 18  2  0
 17 19  1  0
 16 20  1  0
 13 21  1  0
 12 22  1  0
 11 23  1  0
  9 24  1  0
 24 25  1  0
 25 26  1  0
 26 27  1  0
 27 28  1  0
 28 29  1  0
 29 30  1  0
 30 31  1  0
 31 32  1  0
 32 33  1  0
 32 34  1  0
 31 35  1  0
 31 36  1  0
 30 37  1  0
 29 38  1  1
 27 39  1  0
 27 40  1  0
 26 41  1  0
 26 42  1  0
 25 43  1  6
 24 44  2  0
  6 45  1  0
  6 46  1  0
  5 47  2  0
 47 48  1  0
  4 49  1  0
  2 50  1  0
  1 51  1  0
 47  1  1  0
 44  7  1  0
 15 10  1  0
 29 25  1  0
 32 30  1  0
 18 14  1  0
M  END
>  <cnnaffinity>  (1) 
-6.62347

>  <filename>  (1) 
[H]c1nc([H])c(C([H])([H])c2nc([C@]3([H])C([H])([H])C([H])([H])O[C@@]3([H])C3([H])C([H])([H])C3([H])[H])n(-c3c([H])c([H])c([H])c4nc([H])n([H])c34)n2)c([H])c1[H]

$$$$
