
     RDKit          3D

 29 30  0  0  0  0  0  0  0  0999 V2000
    4.9145    1.7845   16.9951 H   0  0  0  0  0  0  0  0  0  0  0  0
    5.4019    1.2945   17.8393 C   0  0  0  0  0  0  0  0  0  0  0  0
    6.5628    0.6775   17.5773 N   0  0  0  0  0  0  0  0  0  0  0  0
    7.1752    0.0601   18.5953 C   0  0  0  0  0  0  0  0  0  0  0  0
    8.1219   -0.4202   18.3605 H   0  0  0  0  0  0  0  0  0  0  0  0
    6.6774   -0.0214   19.9278 C   0  0  0  0  0  0  0  0  0  0  0  0
    7.3068   -0.7366   20.9329 N   0  0  0  0  0  0  0  0  0  0  0  0
    6.7911   -0.8068   21.8051 H   0  0  0  0  0  0  0  0  0  0  0  0
    8.7311   -1.0138   20.9675 C   0  0  0  0  0  0  0  0  0  0  0  0
    8.9236   -1.6200   21.8567 H   0  0  0  0  0  0  0  0  0  0  0  0
    8.9796   -1.6453   20.1042 H   0  0  0  0  0  0  0  0  0  0  0  0
    9.6471    0.2285   20.9830 C   0  0  0  0  0  0  0  0  0  0  0  0
    9.5041    0.7719   20.0460 H   0  0  0  0  0  0  0  0  0  0  0  0
   10.6902   -0.1083   20.9963 H   0  0  0  0  0  0  0  0  0  0  0  0
    9.3643    1.1275   22.1574 C   0  0  0  0  0  0  0  0  0  0  0  0
    9.8934    0.8261   23.4189 C   0  0  0  0  0  0  0  0  0  0  0  0
   10.5502   -0.0317   23.5258 H   0  0  0  0  0  0  0  0  0  0  0  0
    9.5841    1.6072   24.5292 C   0  0  0  0  0  0  0  0  0  0  0  0
   10.0072    1.3842   25.5032 H   0  0  0  0  0  0  0  0  0  0  0  0
    8.7202    2.6987   24.3965 C   0  0  0  0  0  0  0  0  0  0  0  0
    8.3717    3.6505   25.8009 Cl  0  0  0  0  0  0  0  0  0  0  0  0
    8.1596    2.9944   23.1438 C   0  0  0  0  0  0  0  0  0  0  0  0
    7.0747    4.3269   22.9246 Cl  0  0  0  0  0  0  0  0  0  0  0  0
    8.4798    2.2063   22.0348 C   0  0  0  0  0  0  0  0  0  0  0  0
    8.0223    2.4381   21.0775 H   0  0  0  0  0  0  0  0  0  0  0  0
    5.4535    0.6380   20.1721 C   0  0  0  0  0  0  0  0  0  0  0  0
    5.0202    0.6222   21.1768 H   0  0  0  0  0  0  0  0  0  0  0  0
    4.8221    1.3029   19.1146 C   0  0  0  0  0  0  0  0  0  0  0  0
    3.8881    1.8334   19.2645 H   0  0  0  0  0  0  0  0  0  0  0  0
  1  2  1  0
  2  3  2  0
  3  4  1  0
  4  5  1  0
  4  6  2  0
  6  7  1  0
  7  8  1  0
  7  9  1  0
  9 10  1  0
  9 11  1  0
  9 12  1  0
 12 13  1  0
 12 14  1  0
 12 15  1  0
 15 16  2  0
 16 17  1  0
 16 18  1  0
 18 19  1  0
 18 20  2  0
 20 21  1  0
 20 22  1  0
 22 23  1  0
 22 24  2  0
 24 25  1  0
  6 26  1  0
 26 27  1  0
 26 28  2  0
 28 29  1  0
 28  2  1  0
 24 15  1  0
M  END
>  <cnnaffinity>  (1) 
-5.47521

>  <filename>  (1) 
[H]c1nc([H])c(N([H])C([H])([H])C([H])([H])c2c([H])c([H])c(Cl)c(Cl)c2[H])c([H])c1[H]

$$$$
