
     RDKit          3D

 56 60  0  0  0  0  0  0  0  0999 V2000
    6.8652    3.5560   23.9258 C   0  0  0  0  0  0  0  0  0  0  0  0
    8.0958    2.6547   23.9554 C   0  0  0  0  0  0  0  0  0  0  0  0
    8.0828    1.7446   25.1787 C   0  0  0  0  0  0  0  0  0  0  0  0
    9.3406    1.0386   25.5953 C   0  0  0  0  0  0  0  0  0  0  0  0
    8.8011    2.1855   26.4180 C   0  0  0  0  0  0  0  0  0  0  0  0
    8.3623    1.9863   27.3930 H   0  0  0  0  0  0  0  0  0  0  0  0
    9.3432    3.1266   26.3737 H   0  0  0  0  0  0  0  0  0  0  0  0
   10.2263    1.2268   24.9864 H   0  0  0  0  0  0  0  0  0  0  0  0
    9.2542    0.0241   25.9835 H   0  0  0  0  0  0  0  0  0  0  0  0
    7.1502    1.2033   25.3319 H   0  0  0  0  0  0  0  0  0  0  0  0
    8.2480    1.8760   22.7120 N   0  0  0  0  0  0  0  0  0  0  0  0
    7.2649    1.0090   22.3344 N   0  0  0  0  0  0  0  0  0  0  0  0
    7.7723    0.4311   21.2689 C   0  0  0  0  0  0  0  0  0  0  0  0
    7.1135   -0.6840   20.5177 C   0  0  0  0  0  0  0  0  0  0  0  0
    6.3428   -0.1218   19.3424 C   0  0  0  0  0  0  0  0  0  0  0  0
    5.1966    0.6451   19.5825 C   0  0  0  0  0  0  0  0  0  0  0  0
    4.6370    1.3624   18.5259 C   0  0  0  0  0  0  0  0  0  0  0  0
    5.2512    1.2937   17.2720 C   0  0  0  0  0  0  0  0  0  0  0  0
    6.3216    0.5295   17.0110 N   0  0  0  0  0  0  0  0  0  0  0  0
    6.8395   -0.1647   18.0314 C   0  0  0  0  0  0  0  0  0  0  0  0
    7.7143   -0.7766   17.8016 H   0  0  0  0  0  0  0  0  0  0  0  0
    4.8784    1.8855   16.4399 H   0  0  0  0  0  0  0  0  0  0  0  0
    3.7712    1.9979   18.6720 H   0  0  0  0  0  0  0  0  0  0  0  0
    4.7814    0.7025   20.5909 H   0  0  0  0  0  0  0  0  0  0  0  0
    6.4687   -1.2289   21.2140 H   0  0  0  0  0  0  0  0  0  0  0  0
    7.9068   -1.3604   20.1855 H   0  0  0  0  0  0  0  0  0  0  0  0
    8.9765    0.9070   20.8789 N   0  0  0  0  0  0  0  0  0  0  0  0
    9.3018    1.7415   21.8551 C   0  0  0  0  0  0  0  0  0  0  0  0
   10.6902    2.2001   22.0891 C   0  0  0  0  0  0  0  0  0  0  0  0
   10.9523    3.5292   22.2610 C   0  0  0  0  0  0  0  0  0  0  0  0
   12.2242    4.0149   22.3285 N   0  0  0  0  0  0  0  0  0  0  0  0
   12.4566    5.4582   22.2576 C   0  0  0  0  0  0  0  0  0  0  0  0
   11.4940    5.9718   22.3072 H   0  0  0  0  0  0  0  0  0  0  0  0
   12.9485    5.7078   21.3145 H   0  0  0  0  0  0  0  0  0  0  0  0
   13.0871    5.7877   23.0851 H   0  0  0  0  0  0  0  0  0  0  0  0
   13.3403    3.1567   22.3857 C   0  0  0  0  0  0  0  0  0  0  0  0
   14.4567    3.6477   22.4923 O   0  0  0  0  0  0  0  0  0  0  0  0
   13.0546    1.7054   22.3167 C   0  0  0  0  0  0  0  0  0  0  0  0
   11.7689    1.2438   22.1220 C   0  0  0  0  0  0  0  0  0  0  0  0
   11.4657   -0.2627   22.1123 C   0  0  0  0  0  0  0  0  0  0  0  0
   12.6930   -1.1714   22.1208 C   0  0  0  0  0  0  0  0  0  0  0  0
   13.7701   -0.5712   23.0196 C   0  0  0  0  0  0  0  0  0  0  0  0
   14.2263    0.7594   22.4514 C   0  0  0  0  0  0  0  0  0  0  0  0
   14.9916    1.2209   23.0760 H   0  0  0  0  0  0  0  0  0  0  0  0
   14.7132    0.5245   21.4931 H   0  0  0  0  0  0  0  0  0  0  0  0
   14.6160   -1.2573   23.1346 H   0  0  0  0  0  0  0  0  0  0  0  0
   13.3327   -0.3612   24.0068 H   0  0  0  0  0  0  0  0  0  0  0  0
   12.3837   -2.1676   22.4549 H   0  0  0  0  0  0  0  0  0  0  0  0
   13.0883   -1.3044   21.1045 H   0  0  0  0  0  0  0  0  0  0  0  0
   10.7994   -0.5028   21.2813 H   0  0  0  0  0  0  0  0  0  0  0  0
   10.8677   -0.4588   23.0157 H   0  0  0  0  0  0  0  0  0  0  0  0
   10.1658    4.2813   22.3016 H   0  0  0  0  0  0  0  0  0  0  0  0
    8.9727    3.3036   24.0293 H   0  0  0  0  0  0  0  0  0  0  0  0
    5.9528    2.9622   23.8238 H   0  0  0  0  0  0  0  0  0  0  0  0
    6.7954    4.1187   24.8627 H   0  0  0  0  0  0  0  0  0  0  0  0
    6.9205    4.2670   23.0973 H   0  0  0  0  0  0  0  0  0  0  0  0
  1  2  1  0
  2  3  1  0
  3  4  1  0
  4  5  1  0
  5  6  1  0
  5  7  1  0
  4  8  1  0
  4  9  1  0
  3 10  1  0
  2 11  1  0
 11 12  1  0
 12 13  2  0
 13 14  1  0
 14 15  1  0
 15 16  2  0
 16 17  1  0
 17 18  2  0
 18 19  1  0
 19 20  2  0
 20 21  1  0
 18 22  1  0
 17 23  1  0
 16 24  1  0
 14 25  1  0
 14 26  1  0
 13 27  1  0
 27 28  2  0
 28 29  1  0
 29 30  2  0
 30 31  1  0
 31 32  1  0
 32 33  1  0
 32 34  1  0
 32 35  1  0
 31 36  1  0
 36 37  2  0
 36 38  1  0
 38 39  2  0
 39 40  1  0
 40 41  1  0
 41 42  1  0
 42 43  1  0
 43 44  1  0
 43 45  1  0
 42 46  1  0
 42 47  1  0
 41 48  1  0
 41 49  1  0
 40 50  1  0
 40 51  1  0
 30 52  1  0
  2 53  1  0
  1 54  1  0
  1 55  1  0
  1 56  1  0
  5  3  1  0
 28 11  1  0
 39 29  1  0
 20 15  1  0
 43 38  1  0
M  END
>  <cnnaffinity>  (1) 
-6.61015

>  <filename>  (1) 
[H]c1nc([H])c(C([H])([H])c2nc(-c3c4c(c(=O)n(C([H])([H])[H])c3[H])C([H])([H])C([H])([H])C([H])([H])C4([H])[H])n(C([H])(C([H])([H])[H])C3([H])C([H])([H])C3([H])[H])n2)c([H])c1[H]

$$$$
