
     RDKit          3D

 34 36  0  0  0  0  0  0  0  0999 V2000
    4.9584    1.8525   16.9940 H   0  0  0  0  0  0  0  0  0  0  0  0
    5.4100    1.3148   17.8238 C   0  0  0  0  0  0  0  0  0  0  0  0
    6.5542    0.6618   17.5587 N   0  0  0  0  0  0  0  0  0  0  0  0
    7.1453    0.0151   18.5717 C   0  0  0  0  0  0  0  0  0  0  0  0
    8.0797   -0.5032   18.3597 H   0  0  0  0  0  0  0  0  0  0  0  0
    6.6234   -0.0136   19.8754 C   0  0  0  0  0  0  0  0  0  0  0  0
    7.3213   -0.7016   20.9153 N   0  0  0  0  0  0  0  0  0  0  0  0
    6.8054   -1.8132   21.5159 N   0  0  0  0  0  0  0  0  0  0  0  0
    7.7091   -2.2505   22.3033 N   0  0  0  0  0  0  0  0  0  0  0  0
    8.8288   -1.4898   22.2616 N   0  0  0  0  0  0  0  0  0  0  0  0
    8.5725   -0.5287   21.4109 C   0  0  0  0  0  0  0  0  0  0  0  0
    9.4742    0.4644   21.0920 N   0  0  0  0  0  0  0  0  0  0  0  0
   10.2642    0.2678   21.7002 H   0  0  0  0  0  0  0  0  0  0  0  0
    9.0493    1.8654   21.1010 C   0  0  0  0  0  0  0  0  0  0  0  0
    8.3643    2.0496   20.2637 H   0  0  0  0  0  0  0  0  0  0  0  0
    9.9436    2.4738   20.9197 H   0  0  0  0  0  0  0  0  0  0  0  0
    8.3806    2.3573   22.3922 C   0  0  0  0  0  0  0  0  0  0  0  0
    7.4597    1.7850   22.5626 H   0  0  0  0  0  0  0  0  0  0  0  0
    9.0464    2.1700   23.2424 H   0  0  0  0  0  0  0  0  0  0  0  0
    8.0966    3.8359   22.2715 C   0  0  0  0  0  0  0  0  0  0  0  0
    6.8745    4.2983   21.7643 C   0  0  0  0  0  0  0  0  0  0  0  0
    6.0535    3.5931   21.6433 H   0  0  0  0  0  0  0  0  0  0  0  0
    6.7050    5.6447   21.4195 C   0  0  0  0  0  0  0  0  0  0  0  0
    5.7475    5.9863   21.0180 H   0  0  0  0  0  0  0  0  0  0  0  0
    7.7626    6.5414   21.6043 C   0  0  0  0  0  0  0  0  0  0  0  0
    7.6532    7.5761   21.2844 H   0  0  0  0  0  0  0  0  0  0  0  0
    8.9613    6.1130   22.1897 C   0  0  0  0  0  0  0  0  0  0  0  0
    9.7897    6.8026   22.3342 H   0  0  0  0  0  0  0  0  0  0  0  0
    9.1070    4.7682   22.5504 C   0  0  0  0  0  0  0  0  0  0  0  0
   10.0238    4.4207   23.0209 H   0  0  0  0  0  0  0  0  0  0  0  0
    5.4227    0.6454   20.1427 C   0  0  0  0  0  0  0  0  0  0  0  0
    4.9927    0.6075   21.1447 H   0  0  0  0  0  0  0  0  0  0  0  0
    4.8097    1.3291   19.0884 C   0  0  0  0  0  0  0  0  0  0  0  0
    3.8887    1.8807   19.2428 H   0  0  0  0  0  0  0  0  0  0  0  0
  1  2  1  0
  2  3  2  0
  3  4  1  0
  4  5  1  0
  4  6  2  0
  6  7  1  0
  7  8  1  0
  8  9  2  0
  9 10  1  0
 10 11  2  0
 11 12  1  0
 12 13  1  0
 12 14  1  0
 14 15  1  0
 14 16  1  0
 14 17  1  0
 17 18  1  0
 17 19  1  0
 17 20  1  0
 20 21  2  0
 21 22  1  0
 21 23  1  0
 23 24  1  0
 23 25  2  0
 25 26  1  0
 25 27  1  0
 27 28  1  0
 27 29  2  0
 29 30  1  0
  6 31  1  0
 31 32  1  0
 31 33  2  0
 33 34  1  0
 33  2  1  0
 11  7  1  0
 29 20  1  0
M  END
>  <cnnaffinity>  (1) 
-5.15071

>  <filename>  (1) 
[H]c1nc([H])c(-n2nnnc2N([H])C([H])([H])C([H])([H])c2c([H])c([H])c([H])c([H])c2[H])c([H])c1[H]

$$$$
