
     RDKit          3D

 38 40  0  0  0  0  0  0  0  0999 V2000
    8.1772   -1.6580   20.6300 O   0  0  0  0  0  0  0  0  0  0  0  0
    7.4143   -0.7638   20.9701 C   0  0  0  0  0  0  0  0  0  0  0  0
    7.2435   -0.4098   22.2664 N   0  0  0  0  0  0  0  0  0  0  0  0
    7.9343   -1.0519   23.3746 C   0  0  0  0  0  0  0  0  0  0  0  0
    9.4720   -0.8850   23.3152 C   0  0  0  0  0  0  0  0  0  0  0  0
    9.9246    0.5518   23.1917 C   0  0  0  0  0  0  0  0  0  0  0  0
    9.9763    1.4060   24.3061 C   0  0  0  0  0  0  0  0  0  0  0  0
   10.2354    2.7678   24.1486 C   0  0  0  0  0  0  0  0  0  0  0  0
   10.5420    3.2654   22.8834 C   0  0  0  0  0  0  0  0  0  0  0  0
   10.9367    4.9540   22.7089 Cl  0  0  0  0  0  0  0  0  0  0  0  0
   10.5615    2.4265   21.7667 C   0  0  0  0  0  0  0  0  0  0  0  0
   10.2264    1.0772   21.9223 C   0  0  0  0  0  0  0  0  0  0  0  0
   10.1986    0.4218   21.0505 H   0  0  0  0  0  0  0  0  0  0  0  0
   10.8667    2.8265   20.8063 H   0  0  0  0  0  0  0  0  0  0  0  0
   10.2008    3.4443   24.9902 H   0  0  0  0  0  0  0  0  0  0  0  0
    9.8216    1.0084   25.3079 H   0  0  0  0  0  0  0  0  0  0  0  0
    9.9066   -1.3523   24.2081 H   0  0  0  0  0  0  0  0  0  0  0  0
    9.8304   -1.4545   22.4536 H   0  0  0  0  0  0  0  0  0  0  0  0
    7.4805   -2.5197   23.5952 C   0  0  0  0  0  0  0  0  0  0  0  0
    6.8441   -2.1222   24.9509 C   0  0  0  0  0  0  0  0  0  0  0  0
    7.2855   -0.6566   24.7155 C   0  0  0  0  0  0  0  0  0  0  0  0
    7.9831   -0.2610   25.4584 H   0  0  0  0  0  0  0  0  0  0  0  0
    6.4709    0.0646   24.6041 H   0  0  0  0  0  0  0  0  0  0  0  0
    5.7624   -2.2731   25.0111 H   0  0  0  0  0  0  0  0  0  0  0  0
    7.3110   -2.5889   25.8223 H   0  0  0  0  0  0  0  0  0  0  0  0
    6.7805   -2.8640   22.8330 H   0  0  0  0  0  0  0  0  0  0  0  0
    8.3036   -3.2402   23.6403 H   0  0  0  0  0  0  0  0  0  0  0  0
    6.8417    0.4979   22.4366 H   0  0  0  0  0  0  0  0  0  0  0  0
    6.6333    0.0178   19.9762 C   0  0  0  0  0  0  0  0  0  0  0  0
    5.4193    0.6937   20.1925 C   0  0  0  0  0  0  0  0  0  0  0  0
    4.8241    1.3355   19.1095 C   0  0  0  0  0  0  0  0  0  0  0  0
    5.4711    1.2935   17.8677 C   0  0  0  0  0  0  0  0  0  0  0  0
    6.6239    0.6441   17.6502 N   0  0  0  0  0  0  0  0  0  0  0  0
    7.1774    0.0154   18.6870 C   0  0  0  0  0  0  0  0  0  0  0  0
    8.1086   -0.5159   18.4906 H   0  0  0  0  0  0  0  0  0  0  0  0
    5.0371    1.7986   17.0102 H   0  0  0  0  0  0  0  0  0  0  0  0
    3.8894    1.8788   19.2139 H   0  0  0  0  0  0  0  0  0  0  0  0
    4.9347    0.7102   21.1736 H   0  0  0  0  0  0  0  0  0  0  0  0
  1  2  2  0
  2  3  1  0
  3  4  1  0
  4  5  1  0
  5  6  1  0
  6  7  2  0
  7  8  1  0
  8  9  2  0
  9 10  1  0
  9 11  1  0
 11 12  2  0
 12 13  1  0
 11 14  1  0
  8 15  1  0
  7 16  1  0
  5 17  1  0
  5 18  1  0
  4 19  1  0
 19 20  1  0
 20 21  1  0
 21 22  1  0
 21 23  1  0
 20 24  1  0
 20 25  1  0
 19 26  1  0
 19 27  1  0
  3 28  1  0
  2 29  1  0
 29 30  2  0
 30 31  1  0
 31 32  2  0
 32 33  1  0
 33 34  2  0
 34 35  1  0
 32 36  1  0
 31 37  1  0
 30 38  1  0
 21  4  1  0
 34 29  1  0
 12  6  1  0
M  END
>  <cnnaffinity>  (1) 
-5.41669

>  <filename>  (1) 
[H]c1nc([H])c(C(=O)N([H])C2(C([H])([H])c3c([H])c([H])c(Cl)c([H])c3[H])C([H])([H])C([H])([H])C2([H])[H])c([H])c1[H]

$$$$
