
     RDKit          3D

 35 36  0  0  0  0  0  0  0  0999 V2000
    4.9667    1.7917   16.8042 H   0  0  0  0  0  0  0  0  0  0  0  0
    5.3411    1.3621   17.7283 C   0  0  0  0  0  0  0  0  0  0  0  0
    6.5166    0.7269   17.6375 N   0  0  0  0  0  0  0  0  0  0  0  0
    7.0113    0.1945   18.7612 C   0  0  0  0  0  0  0  0  0  0  0  0
    7.9560   -0.3334   18.6473 H   0  0  0  0  0  0  0  0  0  0  0  0
    6.3913    0.2758   20.0295 C   0  0  0  0  0  0  0  0  0  0  0  0
    7.0854   -0.2962   21.2678 C   0  0  2  0  0  0  0  0  0  0  0  0
    6.4562   -0.0957   22.1463 H   0  0  0  0  0  0  0  0  0  0  0  0
    8.4933    0.3335   21.4791 C   0  0  0  0  0  0  0  0  0  0  0  0
    8.7176    0.3626   22.5583 H   0  0  0  0  0  0  0  0  0  0  0  0
    8.5709    1.3547   21.0900 H   0  0  0  0  0  0  0  0  0  0  0  0
    9.3664   -0.5655   20.7467 N   0  0  0  0  0  0  0  0  0  0  0  0
   10.3762   -0.4878   20.7609 H   0  0  0  0  0  0  0  0  0  0  0  0
    8.9376   -1.8555   20.8913 C   0  0  0  0  0  0  0  0  0  0  0  0
    9.6753   -2.8074   20.8371 O   0  0  0  0  0  0  0  0  0  0  0  0
    7.3866   -1.8224   21.0949 C   0  0  1  0  0  0  0  0  0  0  0  0
    6.9757   -2.1498   20.1312 H   0  0  0  0  0  0  0  0  0  0  0  0
    6.8120   -2.7415   22.0924 N   0  0  0  0  0  0  0  0  0  0  0  0
    7.0111   -2.5888   23.0703 H   0  0  0  0  0  0  0  0  0  0  0  0
    6.4394   -4.0337   21.7605 C   0  0  0  0  0  0  0  0  0  0  0  0
    6.2731   -4.3823   20.6076 O   0  0  0  0  0  0  0  0  0  0  0  0
    6.2442   -4.9844   22.9303 C   0  0  0  0  0  0  0  0  0  0  0  0
    5.6544   -4.4888   23.7131 H   0  0  0  0  0  0  0  0  0  0  0  0
    5.6531   -5.8206   22.5413 H   0  0  0  0  0  0  0  0  0  0  0  0
    7.5721   -5.5230   23.4919 C   0  0  0  0  0  0  0  0  0  0  0  0
    7.3726   -6.0567   24.4248 H   0  0  0  0  0  0  0  0  0  0  0  0
    8.2238   -4.6785   23.7607 H   0  0  0  0  0  0  0  0  0  0  0  0
    8.2818   -6.4777   22.5342 C   0  0  0  0  0  0  0  0  0  0  0  0
    7.6003   -7.2663   22.1938 H   0  0  0  0  0  0  0  0  0  0  0  0
    8.6627   -5.9662   21.6443 H   0  0  0  0  0  0  0  0  0  0  0  0
    9.1164   -6.9786   23.0323 H   0  0  0  0  0  0  0  0  0  0  0  0
    5.1488    0.9183   20.0865 C   0  0  0  0  0  0  0  0  0  0  0  0
    4.6109    0.9733   21.0354 H   0  0  0  0  0  0  0  0  0  0  0  0
    4.6151    1.4724   18.9173 C   0  0  0  0  0  0  0  0  0  0  0  0
    3.6628    1.9872   18.9177 H   0  0  0  0  0  0  0  0  0  0  0  0
  1  2  1  0
  2  3  2  0
  3  4  1  0
  4  5  1  0
  4  6  2  0
  6  7  1  0
  7  8  1  1
  7  9  1  0
  9 10  1  0
  9 11  1  0
  9 12  1  0
 12 13  1  0
 12 14  1  0
 14 15  2  0
 14 16  1  0
 16 17  1  6
 16 18  1  0
 18 19  1  0
 18 20  1  0
 20 21  2  0
 20 22  1  0
 22 23  1  0
 22 24  1  0
 22 25  1  0
 25 26  1  0
 25 27  1  0
 25 28  1  0
 28 29  1  0
 28 30  1  0
 28 31  1  0
  6 32  1  0
 32 33  1  0
 32 34  2  0
 34 35  1  0
 34  2  1  0
 16  7  1  0
M  END
>  <cnnaffinity>  (1) 
-5.04609

>  <filename>  (1) 
[H]c1nc([H])c([C@]2([H])C([H])([H])N([H])C(=O)[C@@]2([H])N([H])C(=O)C([H])([H])C([H])([H])C([H])([H])[H])c([H])c1[H]

$$$$
