
     RDKit          3D

 28 30  0  0  0  0  0  0  0  0999 V2000
    4.9383    1.7988   16.9818 H   0  0  0  0  0  0  0  0  0  0  0  0
    5.3973    1.2923   17.8319 C   0  0  0  0  0  0  0  0  0  0  0  0
    6.5595    0.6705   17.5852 N   0  0  0  0  0  0  0  0  0  0  0  0
    7.1667    0.0541   18.6007 C   0  0  0  0  0  0  0  0  0  0  0  0
    8.1199   -0.4020   18.3375 H   0  0  0  0  0  0  0  0  0  0  0  0
    6.6510    0.0045   19.9006 C   0  0  0  0  0  0  0  0  0  0  0  0
    7.3609   -0.6842   20.9754 C   0  0  0  0  0  0  0  0  0  0  0  0
    7.0672   -0.5808   22.2484 N   0  0  0  0  0  0  0  0  0  0  0  0
    7.9527   -1.4065   22.8566 C   0  0  0  0  0  0  0  0  0  0  0  0
    7.9863   -1.6076   24.3213 C   0  0  0  0  0  0  0  0  0  0  0  0
    8.9853   -2.4607   24.8385 C   0  0  0  0  0  0  0  0  0  0  0  0
    9.6882   -2.9336   24.1529 H   0  0  0  0  0  0  0  0  0  0  0  0
    9.0724   -2.6882   26.2009 C   0  0  0  0  0  0  0  0  0  0  0  0
    9.8294   -3.3531   26.6056 H   0  0  0  0  0  0  0  0  0  0  0  0
    8.1789   -2.0590   27.0615 C   0  0  0  0  0  0  0  0  0  0  0  0
    8.2921   -2.2324   28.1094 H   0  0  0  0  0  0  0  0  0  0  0  0
    7.1802   -1.2196   26.5837 C   0  0  0  0  0  0  0  0  0  0  0  0
    6.4892   -0.7480   27.2761 H   0  0  0  0  0  0  0  0  0  0  0  0
    7.0630   -0.9765   25.2035 C   0  0  0  0  0  0  0  0  0  0  0  0
    5.9886   -0.0640   24.8235 C   0  0  0  0  0  0  0  0  0  0  0  0
    5.1091    0.6818   24.6960 N   0  0  0  0  0  0  0  0  0  0  0  0
    8.7835   -2.0201   22.0242 N   0  0  0  0  0  0  0  0  0  0  0  0
    8.3908   -1.5369   20.8285 N   0  0  0  0  0  0  0  0  0  0  0  0
    8.8244   -1.8626   19.9819 H   0  0  0  0  0  0  0  0  0  0  0  0
    5.4319    0.6563   20.1508 C   0  0  0  0  0  0  0  0  0  0  0  0
    5.0127    0.6494   21.1588 H   0  0  0  0  0  0  0  0  0  0  0  0
    4.7962    1.3097   19.0966 C   0  0  0  0  0  0  0  0  0  0  0  0
    3.8651    1.8483   19.2308 H   0  0  0  0  0  0  0  0  0  0  0  0
  1  2  1  0
  2  3  2  0
  3  4  1  0
  4  5  1  0
  4  6  2  0
  6  7  1  0
  7  8  2  0
  8  9  1  0
  9 10  1  0
 10 11  2  0
 11 12  1  0
 11 13  1  0
 13 14  1  0
 13 15  2  0
 15 16  1  0
 15 17  1  0
 17 18  1  0
 17 19  2  0
 19 20  1  0
 20 21  3  0
  9 22  2  0
 22 23  1  0
 23 24  1  0
  6 25  1  0
 25 26  1  0
 25 27  2  0
 27 28  1  0
 27  2  1  0
 23  7  1  0
 19 10  1  0
M  END
>  <cnnaffinity>  (1) 
-5.0802

>  <filename>  (1) 
[H]c1nc([H])c(-c2nc(-c3c([H])c([H])c([H])c([H])c3C#N)nn2[H])c([H])c1[H]

$$$$
