
     RDKit          3D

 35 37  0  0  0  0  0  0  0  0999 V2000
    7.7059   -1.7530   20.6719 H   0  0  0  0  0  0  0  0  0  0  0  0
    7.3922   -0.7411   20.9367 C   0  0  0  0  0  0  0  0  0  0  0  0
    7.7512   -0.1932   22.1081 C   0  0  0  0  0  0  0  0  0  0  0  0
    8.5030   -0.8372   23.1992 C   0  0  0  0  0  0  0  0  0  0  0  0
    8.7882   -2.3229   23.2238 C   0  0  0  0  0  0  0  0  0  0  0  0
    9.6104   -2.4796   23.9270 H   0  0  0  0  0  0  0  0  0  0  0  0
    9.1459   -2.6789   22.2509 H   0  0  0  0  0  0  0  0  0  0  0  0
    7.5641   -3.0937   23.6624 C   0  0  0  0  0  0  0  0  0  0  0  0
    7.1521   -3.0322   25.0006 C   0  0  0  0  0  0  0  0  0  0  0  0
    7.7353   -2.4522   25.7103 H   0  0  0  0  0  0  0  0  0  0  0  0
    6.0035   -3.6985   25.4217 C   0  0  0  0  0  0  0  0  0  0  0  0
    5.6880   -3.6575   26.4589 H   0  0  0  0  0  0  0  0  0  0  0  0
    5.2400   -4.4309   24.5042 C   0  0  0  0  0  0  0  0  0  0  0  0
    3.8202   -5.2442   25.0657 Cl  0  0  0  0  0  0  0  0  0  0  0  0
    5.6359   -4.4870   23.1593 C   0  0  0  0  0  0  0  0  0  0  0  0
    4.7326   -5.3759   21.9801 Cl  0  0  0  0  0  0  0  0  0  0  0  0
    6.7911   -3.8123   22.7490 C   0  0  0  0  0  0  0  0  0  0  0  0
    7.0860   -3.8597   21.7064 H   0  0  0  0  0  0  0  0  0  0  0  0
    8.8382   -0.0555   24.1490 N   0  0  0  0  0  0  0  0  0  0  0  0
    8.3651    1.3021   23.8388 C   0  0  0  0  0  0  0  0  0  0  0  0
    9.2286    1.9608   23.7515 H   0  0  0  0  0  0  0  0  0  0  0  0
    7.7565    1.6604   24.6679 H   0  0  0  0  0  0  0  0  0  0  0  0
    7.5624    1.2485   22.5213 C   0  0  0  0  0  0  0  0  0  0  0  0
    7.9432    1.9353   21.7583 H   0  0  0  0  0  0  0  0  0  0  0  0
    6.5071    1.4925   22.6817 H   0  0  0  0  0  0  0  0  0  0  0  0
    6.6436   -0.0129   19.8895 C   0  0  0  0  0  0  0  0  0  0  0  0
    7.1590    0.0533   18.5826 C   0  0  0  0  0  0  0  0  0  0  0  0
    8.1122   -0.4280   18.3732 H   0  0  0  0  0  0  0  0  0  0  0  0
    6.5668    0.6841   17.5635 N   0  0  0  0  0  0  0  0  0  0  0  0
    5.4004    1.2972   17.8333 C   0  0  0  0  0  0  0  0  0  0  0  0
    4.9116    1.7830   16.9943 H   0  0  0  0  0  0  0  0  0  0  0  0
    4.8008    1.3143   19.0985 C   0  0  0  0  0  0  0  0  0  0  0  0
    3.8686    1.8470   19.2592 H   0  0  0  0  0  0  0  0  0  0  0  0
    5.4372    0.6537   20.1476 C   0  0  0  0  0  0  0  0  0  0  0  0
    5.0101    0.6243   21.1553 H   0  0  0  0  0  0  0  0  0  0  0  0
  1  2  1  0
  2  3  2  3
  3  4  1  0
  4  5  1  0
  5  6  1  0
  5  7  1  0
  5  8  1  0
  8  9  2  0
  9 10  1  0
  9 11  1  0
 11 12  1  0
 11 13  2  0
 13 14  1  0
 13 15  1  0
 15 16  1  0
 15 17  2  0
 17 18  1  0
  4 19  2  0
 19 20  1  0
 20 21  1  0
 20 22  1  0
 20 23  1  0
 23 24  1  0
 23 25  1  0
  2 26  1  0
 26 27  2  0
 27 28  1  0
 27 29  1  0
 29 30  2  0
 30 31  1  0
 30 32  1  0
 32 33  1  0
 32 34  2  0
 34 35  1  0
 23  3  1  0
 34 26  1  0
 17  8  1  0
M  END
>  <cnnaffinity>  (1) 
-5.62471

>  <filename>  (1) 
[H]C(=C1C(C([H])([H])c2c([H])c([H])c(Cl)c(Cl)c2[H])=NC([H])([H])C1([H])[H])c1c([H])nc([H])c([H])c1[H]

$$$$
