
     RDKit          3D

 35 38  0  0  0  0  0  0  0  0999 V2000
    5.1362    1.8334   17.0212 H   0  0  0  0  0  0  0  0  0  0  0  0
    5.5495    1.2731   17.8583 C   0  0  0  0  0  0  0  0  0  0  0  0
    6.6921    0.6059   17.6248 N   0  0  0  0  0  0  0  0  0  0  0  0
    7.2198   -0.0913   18.6395 C   0  0  0  0  0  0  0  0  0  0  0  0
    8.1441   -0.6243   18.4221 H   0  0  0  0  0  0  0  0  0  0  0  0
    6.6561   -0.1814   19.9471 C   0  0  0  0  0  0  0  0  0  0  0  0
    7.2262   -0.9395   20.9402 N   0  0  0  0  0  0  0  0  0  0  0  0
    6.9358   -1.0354   22.3610 C   0  0  0  0  0  0  0  0  0  0  0  0
    6.6635   -0.0939   22.8572 H   0  0  0  0  0  0  0  0  0  0  0  0
    6.1634   -1.7812   22.5872 H   0  0  0  0  0  0  0  0  0  0  0  0
    8.3941   -1.5553   22.5449 C   0  0  0  0  0  0  0  0  0  0  0  0
    8.4273   -2.5469   23.0013 H   0  0  0  0  0  0  0  0  0  0  0  0
    9.2971   -0.6604   23.3936 C   0  0  0  0  0  0  0  0  0  0  0  0
    9.1657   -0.8215   24.5997 O   0  0  0  0  0  0  0  0  0  0  0  0
   10.2794    0.2986   22.8922 C   0  0  0  0  0  0  0  0  0  0  0  0
   11.5783    0.4774   23.5114 C   0  0  0  0  0  0  0  0  0  0  0  0
   11.8492   -0.2213   24.3042 H   0  0  0  0  0  0  0  0  0  0  0  0
   12.5530    1.5635   23.2867 C   0  0  0  0  0  0  0  0  0  0  0  0
   13.4167    1.5267   23.9372 H   0  0  0  0  0  0  0  0  0  0  0  0
   12.3844    2.5964   22.4041 C   0  0  0  0  0  0  0  0  0  0  0  0
   11.1168    2.4980   21.6427 C   0  0  0  0  0  0  0  0  0  0  0  0
   11.1623    2.5891   21.6671 C   0  0  0  0  0  0  0  0  0  0  0  0
    8.5638    2.1476   23.0971 H   0  0  0  0  0  0  0  0  0  0  0  0
   12.5128    4.8170   21.8427 N   0  0  0  0  0  0  0  0  0  0  0  0
   13.0690    3.9069   22.4331 N   0  0  0  0  0  0  0  0  0  0  0  0
   13.9928    3.9591   22.9774 H   0  0  0  0  0  0  0  0  0  0  0  0
    9.9476    1.8513   21.8201 C   0  0  0  0  0  0  0  0  0  0  0  0
    9.3357    1.4100   20.9949 H   0  0  0  0  0  0  0  0  0  0  0  0
    8.5476   -1.5305   21.0166 C   0  0  0  0  0  0  0  0  0  0  0  0
    9.3447   -0.8820   20.6264 H   0  0  0  0  0  0  0  0  0  0  0  0
    8.6299   -2.5125   20.5459 H   0  0  0  0  0  0  0  0  0  0  0  0
    5.4504    0.5249   20.1579 C   0  0  0  0  0  0  0  0  0  0  0  0
    4.9675    0.4895   21.1349 H   0  0  0  0  0  0  0  0  0  0  0  0
    4.9027    1.2570   19.1005 C   0  0  0  0  0  0  0  0  0  0  0  0
    3.9858    1.8252   19.2285 H   0  0  0  0  0  0  0  0  0  0  0  0
  1  2  1  0
  2  3  2  0
  3  4  1  0
  4  5  1  0
  4  6  2  0
  6  7  1  0
  7  8  1  0
  8  9  1  0
  8 10  1  0
  8 11  1  0
 11 12  1  0
 11 13  1  0
 13 14  2  0
 13 15  1  0
 15 16  2  0
 16 17  1  0
 16 18  1  0
 18 19  1  0
 18 20  2  0
 20 21  1  0
 21 22  1  0
 22 23  1  0
 22 24  2  0
 24 25  1  0
 25 26  1  0
 21 27  2  0
 27 28  1  0
 11 29  1  0
 29 30  1  0
 29 31  1  0
  6 32  1  0
 32 33  1  0
 32 34  2  0
 34 35  1  0
 34  2  1  0
 29  7  1  0
 27 15  1  0
 25 20  1  0
M  END
>  <cnnaffinity>  (1) 
-5.49837

>  <filename>  (1) 
[H]c1nc([H])c(N2C([H])([H])C([H])(C(=O)c3c([H])c([H])c4c(c([H])nn4[H])c3[H])C2([H])[H])c([H])c1[H]

$$$$
