
     RDKit          3D

 40 41  0  0  0  0  0  0  0  0999 V2000
    5.0635    1.8901   16.8792 H   0  0  0  0  0  0  0  0  0  0  0  0
    5.4919    1.3282   17.7070 C   0  0  0  0  0  0  0  0  0  0  0  0
    6.6551    0.7021   17.4553 N   0  0  0  0  0  0  0  0  0  0  0  0
    7.2360    0.0357   18.4623 C   0  0  0  0  0  0  0  0  0  0  0  0
    8.2017   -0.4288   18.2612 H   0  0  0  0  0  0  0  0  0  0  0  0
    6.6793   -0.0622   19.7550 C   0  0  0  0  0  0  0  0  0  0  0  0
    7.3774   -0.6815   20.8430 N   0  0  0  0  0  0  0  0  0  0  0  0
    8.0837   -0.1064   21.2825 H   0  0  0  0  0  0  0  0  0  0  0  0
    6.8122   -1.6175   21.6933 C   0  0  0  0  0  0  0  0  0  0  0  0
    5.8798   -2.3204   21.3573 O   0  0  0  0  0  0  0  0  0  0  0  0
    7.6030   -1.8048   23.1106 C   0  0  2  0  0  0  0  0  0  0  0  0
    8.3388   -2.5744   22.8345 H   0  0  0  0  0  0  0  0  0  0  0  0
    6.9008   -2.2796   24.3081 N   0  0  0  0  0  0  0  0  0  0  0  0
    6.1212   -2.8832   24.0627 H   0  0  0  0  0  0  0  0  0  0  0  0
    6.5421   -1.4664   24.7940 H   0  0  0  0  0  0  0  0  0  0  0  0
    8.3879   -0.6437   23.5297 N   0  0  0  0  0  0  0  0  0  0  0  0
    9.5607   -1.0732   24.3057 C   0  0  0  0  0  0  0  0  0  0  0  0
    9.2742   -1.8317   25.0563 H   0  0  0  0  0  0  0  0  0  0  0  0
   10.2429   -1.5926   23.6152 H   0  0  0  0  0  0  0  0  0  0  0  0
   10.3724    0.0222   25.0287 C   0  0  0  0  0  0  0  0  0  0  0  0
   10.5107    0.8775   24.3475 H   0  0  0  0  0  0  0  0  0  0  0  0
   11.3756   -0.3817   25.2267 H   0  0  0  0  0  0  0  0  0  0  0  0
    9.8338    0.5238   26.3004 N   0  0  0  0  0  0  0  0  0  0  0  0
    9.5880   -0.4847   27.3302 C   0  0  0  0  0  0  0  0  0  0  0  0
    9.3490    0.0121   28.2819 H   0  0  0  0  0  0  0  0  0  0  0  0
    8.7643   -1.1871   27.1001 H   0  0  0  0  0  0  0  0  0  0  0  0
   10.4774   -1.0949   27.4916 H   0  0  0  0  0  0  0  0  0  0  0  0
    8.6998    1.4257   26.1336 C   0  0  0  0  0  0  0  0  0  0  0  0
    9.0441    2.2939   25.5463 H   0  0  0  0  0  0  0  0  0  0  0  0
    8.4342    1.8087   27.1281 H   0  0  0  0  0  0  0  0  0  0  0  0
    7.4599    0.8187   25.4579 C   0  0  0  0  0  0  0  0  0  0  0  0
    6.6392    1.5339   25.5615 H   0  0  0  0  0  0  0  0  0  0  0  0
    7.1503   -0.1002   25.9728 H   0  0  0  0  0  0  0  0  0  0  0  0
    7.6406    0.5503   23.9563 C   0  0  0  0  0  0  0  0  0  0  0  0
    8.1233    1.4369   23.5156 H   0  0  0  0  0  0  0  0  0  0  0  0
    6.6552    0.5125   23.4764 H   0  0  0  0  0  0  0  0  0  0  0  0
    5.4459    0.5496   19.9856 C   0  0  0  0  0  0  0  0  0  0  0  0
    4.9904    0.4658   20.9730 H   0  0  0  0  0  0  0  0  0  0  0  0
    4.8503    1.2761   18.9493 C   0  0  0  0  0  0  0  0  0  0  0  0
    3.9243    1.8202   19.0999 H   0  0  0  0  0  0  0  0  0  0  0  0
  1  2  1  0
  2  3  2  0
  3  4  1  0
  4  5  1  0
  4  6  2  0
  6  7  1  0
  7  8  1  0
  7  9  1  0
  9 10  2  0
  9 11  1  0
 11 12  1  6
 11 13  1  0
 13 14  1  0
 13 15  1  0
 11 16  1  0
 16 17  1  0
 17 18  1  0
 17 19  1  0
 17 20  1  0
 20 21  1  0
 20 22  1  0
 20 23  1  0
 23 24  1  0
 24 25  1  0
 24 26  1  0
 24 27  1  0
 23 28  1  0
 28 29  1  0
 28 30  1  0
 28 31  1  0
 31 32  1  0
 31 33  1  0
 31 34  1  0
 34 35  1  0
 34 36  1  0
  6 37  1  0
 37 38  1  0
 37 39  2  0
 39 40  1  0
 39  2  1  0
 34 16  1  0
M  END
>  <cnnaffinity>  (1) 
-4.56537

>  <filename>  (1) 
[H]c1nc([H])c(N([H])C(=O)[C@]([H])(N([H])[H])N2C([H])([H])C([H])([H])N(C([H])([H])[H])C([H])([H])C([H])([H])C2([H])[H])c([H])c1[H]

$$$$
