
     RDKit          3D

 39 40  0  0  0  0  0  0  0  0999 V2000
    5.2786    1.7181   17.1019 H   0  0  0  0  0  0  0  0  0  0  0  0
    5.5797    1.1487   17.9796 C   0  0  0  0  0  0  0  0  0  0  0  0
    6.6816    0.3975   17.8406 N   0  0  0  0  0  0  0  0  0  0  0  0
    7.0839   -0.3071   18.8944 C   0  0  0  0  0  0  0  0  0  0  0  0
    7.9633   -0.9389   18.7664 H   0  0  0  0  0  0  0  0  0  0  0  0
    6.4225   -0.2511   20.1075 C   0  0  0  0  0  0  0  0  0  0  0  0
    7.3416   -0.9537   21.3785 S   0  0  0  0  0  0  0  0  0  0  0  0
    8.2174   -1.9755   20.8416 O   0  0  0  0  0  0  0  0  0  0  0  0
    7.8317    0.0433   22.3071 O   0  0  0  0  0  0  0  0  0  0  0  0
    6.1595   -1.6867   22.2364 N   0  0  0  0  0  0  0  0  0  0  0  0
    6.5937   -1.9685   23.1046 H   0  0  0  0  0  0  0  0  0  0  0  0
    5.4986   -2.6841   21.5708 C   0  0  0  0  0  0  0  0  0  0  0  0
    5.5729   -2.8285   20.3743 O   0  0  0  0  0  0  0  0  0  0  0  0
    4.6575   -3.5499   22.4657 C   0  0  0  0  0  0  0  0  0  0  0  0
    3.9751   -4.1098   21.8331 H   0  0  0  0  0  0  0  0  0  0  0  0
    4.0705   -2.9662   23.1732 H   0  0  0  0  0  0  0  0  0  0  0  0
    5.5288   -4.4899   23.2758 C   0  0  0  0  0  0  0  0  0  0  0  0
    6.0530   -5.1501   22.5750 H   0  0  0  0  0  0  0  0  0  0  0  0
    4.8863   -5.1272   23.9057 H   0  0  0  0  0  0  0  0  0  0  0  0
    6.5012   -3.7246   24.0612 N   0  0  0  0  0  0  0  0  0  0  0  0
    6.0389   -3.3511   25.4125 C   0  0  0  0  0  0  0  0  0  0  0  0
    5.1026   -2.7794   25.3318 H   0  0  0  0  0  0  0  0  0  0  0  0
    6.7852   -2.6517   25.8203 H   0  0  0  0  0  0  0  0  0  0  0  0
    5.8891   -4.5681   26.3466 C   0  0  0  0  0  0  0  0  0  0  0  0
    5.6535   -4.2133   27.3537 H   0  0  0  0  0  0  0  0  0  0  0  0
    5.0150   -5.1492   26.0265 H   0  0  0  0  0  0  0  0  0  0  0  0
    7.1453   -5.4651   26.3462 C   0  0  0  0  0  0  0  0  0  0  0  0
    6.9146   -6.4254   26.8228 H   0  0  0  0  0  0  0  0  0  0  0  0
    7.9392   -4.9995   26.9453 H   0  0  0  0  0  0  0  0  0  0  0  0
    7.6755   -5.7007   24.9231 C   0  0  0  0  0  0  0  0  0  0  0  0
    6.9472   -6.2878   24.3586 H   0  0  0  0  0  0  0  0  0  0  0  0
    8.6183   -6.2533   24.9203 H   0  0  0  0  0  0  0  0  0  0  0  0
    7.8083   -4.3859   24.1547 C   0  0  0  0  0  0  0  0  0  0  0  0
    8.5051   -3.7030   24.6593 H   0  0  0  0  0  0  0  0  0  0  0  0
    8.2056   -4.5423   23.1418 H   0  0  0  0  0  0  0  0  0  0  0  0
    5.2375    0.4778   20.2699 C   0  0  0  0  0  0  0  0  0  0  0  0
    4.6561    0.4912   21.1974 H   0  0  0  0  0  0  0  0  0  0  0  0
    4.8238    1.2031   19.1558 C   0  0  0  0  0  0  0  0  0  0  0  0
    3.9413    1.8307   19.1885 H   0  0  0  0  0  0  0  0  0  0  0  0
  1  2  1  0
  2  3  2  0
  3  4  1  0
  4  5  1  0
  4  6  2  0
  6  7  1  0
  7  8  2  0
  7  9  2  0
  7 10  1  0
 10 11  1  0
 10 12  1  0
 12 13  2  0
 12 14  1  0
 14 15  1  0
 14 16  1  0
 14 17  1  0
 17 18  1  0
 17 19  1  0
 17 20  1  0
 20 21  1  0
 21 22  1  0
 21 23  1  0
 21 24  1  0
 24 25  1  0
 24 26  1  0
 24 27  1  0
 27 28  1  0
 27 29  1  0
 27 30  1  0
 30 31  1  0
 30 32  1  0
 30 33  1  0
 33 34  1  0
 33 35  1  0
  6 36  1  0
 36 37  1  0
 36 38  2  0
 38 39  1  0
 38  2  1  0
 33 20  1  0
M  END
>  <cnnaffinity>  (1) 
-5.06977

>  <filename>  (1) 
[H]c1nc([H])c(S(=O)(=O)N([H])C(=O)C([H])([H])C([H])([H])N2C([H])([H])C([H])([H])C([H])([H])C([H])([H])C2([H])[H])c([H])c1[H]

$$$$
