
     RDKit          3D

 28 30  0  0  0  0  0  0  0  0999 V2000
    4.9256    1.8000   16.9738 H   0  0  0  0  0  0  0  0  0  0  0  0
    5.3899    1.3003   17.8248 C   0  0  0  0  0  0  0  0  0  0  0  0
    6.5514    0.6784   17.5800 N   0  0  0  0  0  0  0  0  0  0  0  0
    7.1527    0.0604   18.6049 C   0  0  0  0  0  0  0  0  0  0  0  0
    8.0958   -0.4290   18.3726 H   0  0  0  0  0  0  0  0  0  0  0  0
    6.6350    0.0090   19.9087 C   0  0  0  0  0  0  0  0  0  0  0  0
    7.3878   -0.7035   20.9527 C   0  0  0  0  0  0  0  0  0  0  0  0
    8.7085   -0.9873   21.0351 C   0  0  0  0  0  0  0  0  0  0  0  0
    9.4957   -0.6950   20.3654 H   0  0  0  0  0  0  0  0  0  0  0  0
    8.9613   -1.7032   22.2650 C   0  0  0  0  0  0  0  0  0  0  0  0
    9.9997   -2.1430   22.7373 O   0  0  0  0  0  0  0  0  0  0  0  0
    7.6942   -1.8172   22.8684 N   0  0  0  0  0  0  0  0  0  0  0  0
    7.4197   -2.4824   24.0803 C   0  0  0  0  0  0  0  0  0  0  0  0
    6.1859   -2.9929   24.2088 N   0  0  0  0  0  0  0  0  0  0  0  0
    5.8861   -3.6295   25.3442 C   0  0  0  0  0  0  0  0  0  0  0  0
    4.8847   -4.0421   25.4404 H   0  0  0  0  0  0  0  0  0  0  0  0
    6.7965   -3.7626   26.3947 C   0  0  0  0  0  0  0  0  0  0  0  0
    6.4320   -4.4085   27.5114 F   0  0  0  0  0  0  0  0  0  0  0  0
    8.0755   -3.2219   26.2825 C   0  0  0  0  0  0  0  0  0  0  0  0
    8.7826   -3.3307   27.1044 H   0  0  0  0  0  0  0  0  0  0  0  0
    8.3937   -2.5653   25.0913 C   0  0  0  0  0  0  0  0  0  0  0  0
    9.3603   -2.1248   24.8968 H   0  0  0  0  0  0  0  0  0  0  0  0
    6.7629   -1.1783   22.0514 N   0  0  0  0  0  0  0  0  0  0  0  0
    5.7737   -1.2544   22.2582 H   0  0  0  0  0  0  0  0  0  0  0  0
    5.4186    0.6635   20.1463 C   0  0  0  0  0  0  0  0  0  0  0  0
    4.9855    0.6751   21.1476 H   0  0  0  0  0  0  0  0  0  0  0  0
    4.7890    1.3210   19.0896 C   0  0  0  0  0  0  0  0  0  0  0  0
    3.8590    1.8566   19.2319 H   0  0  0  0  0  0  0  0  0  0  0  0
  1  2  1  0
  2  3  2  0
  3  4  1  0
  4  5  1  0
  4  6  2  0
  6  7  1  0
  7  8  2  0
  8  9  1  0
  8 10  1  0
 10 11  2  0
 10 12  1  0
 12 13  1  0
 13 14  2  0
 14 15  1  0
 15 16  1  0
 15 17  2  0
 17 18  1  0
 17 19  1  0
 19 20  1  0
 19 21  2  0
 21 22  1  0
 12 23  1  0
 23 24  1  0
  6 25  1  0
 25 26  1  0
 25 27  2  0
 27 28  1  0
 27  2  1  0
 23  7  1  0
 21 13  1  0
M  END
>  <cnnaffinity>  (1) 
-5.06006

>  <filename>  (1) 
[H]c1nc([H])c(-c2c([H])c(=O)n(-c3nc([H])c(F)c([H])c3[H])n2[H])c([H])c1[H]

$$$$
