
     RDKit          3D

 44 46  0  0  0  0  0  0  0  0999 V2000
    6.7517    5.4839   26.6350 C   0  0  0  0  0  0  0  0  0  0  0  0
    8.1313    4.8443   26.8742 C   0  0  0  0  0  0  0  0  0  0  0  0
    8.7067    4.1786   25.6539 C   0  0  0  0  0  0  0  0  0  0  0  0
    9.6467    4.7486   24.9544 N   0  0  0  0  0  0  0  0  0  0  0  0
    9.9478    3.8848   23.9224 O   0  0  0  0  0  0  0  0  0  0  0  0
    9.1519    2.8079   24.0101 C   0  0  0  0  0  0  0  0  0  0  0  0
    9.1525    1.7810   22.9734 C   0  0  0  0  0  0  0  0  0  0  0  0
    8.0386    1.1433   22.6291 N   0  0  0  0  0  0  0  0  0  0  0  0
    8.4355    0.2698   21.6830 C   0  0  0  0  0  0  0  0  0  0  0  0
    7.4800   -0.6452   20.9649 C   0  0  0  0  0  0  0  0  0  0  0  0
    6.6854   -0.0096   19.8290 C   0  0  0  0  0  0  0  0  0  0  0  0
    5.4719    0.6363   20.0917 C   0  0  0  0  0  0  0  0  0  0  0  0
    4.8254    1.3063   19.0514 C   0  0  0  0  0  0  0  0  0  0  0  0
    5.4048    1.3050   17.7804 C   0  0  0  0  0  0  0  0  0  0  0  0
    6.5443    0.6567   17.4958 N   0  0  0  0  0  0  0  0  0  0  0  0
    7.1521    0.0146   18.5012 C   0  0  0  0  0  0  0  0  0  0  0  0
    8.0762   -0.5033   18.2417 H   0  0  0  0  0  0  0  0  0  0  0  0
    4.9301    1.8347   16.9534 H   0  0  0  0  0  0  0  0  0  0  0  0
    3.8920    1.8267   19.2157 H   0  0  0  0  0  0  0  0  0  0  0  0
    5.0490    0.6208   21.1001 H   0  0  0  0  0  0  0  0  0  0  0  0
    6.7762   -1.0300   21.7127 H   0  0  0  0  0  0  0  0  0  0  0  0
    8.0696   -1.4885   20.5974 H   0  0  0  0  0  0  0  0  0  0  0  0
    9.7319    0.2837   21.4577 N   0  0  0  0  0  0  0  0  0  0  0  0
   10.2053    1.2482   22.2816 N   0  0  0  0  0  0  0  0  0  0  0  0
   11.6460    1.5457   22.1997 C   0  0  0  0  0  0  0  0  0  0  0  0
   11.9121    2.9709   21.7307 C   0  0  0  0  0  0  0  0  0  0  0  0
   11.7308    3.7034   22.5162 H   0  0  0  0  0  0  0  0  0  0  0  0
   12.9390    3.0822   21.3783 H   0  0  0  0  0  0  0  0  0  0  0  0
   11.2443    3.1548   20.8884 H   0  0  0  0  0  0  0  0  0  0  0  0
   12.3976    1.1484   23.4764 C   0  0  0  0  0  0  0  0  0  0  0  0
   11.9467    1.8085   24.5560 F   0  0  0  0  0  0  0  0  0  0  0  0
   13.7102    1.4256   23.3363 F   0  0  0  0  0  0  0  0  0  0  0  0
   12.2958   -0.1578   23.7199 F   0  0  0  0  0  0  0  0  0  0  0  0
   12.0247    0.8431   21.4505 H   0  0  0  0  0  0  0  0  0  0  0  0
    8.3260    2.9150   25.1034 C   0  0  0  0  0  0  0  0  0  0  0  0
    7.2712    1.9619   25.5823 C   0  0  0  0  0  0  0  0  0  0  0  0
    7.6150    0.9337   25.4344 H   0  0  0  0  0  0  0  0  0  0  0  0
    6.3491    2.0570   24.9948 H   0  0  0  0  0  0  0  0  0  0  0  0
    7.0278    2.1179   26.6410 H   0  0  0  0  0  0  0  0  0  0  0  0
    8.0279    4.0872   27.6637 H   0  0  0  0  0  0  0  0  0  0  0  0
    8.8493    5.5911   27.2367 H   0  0  0  0  0  0  0  0  0  0  0  0
    6.0290    4.7357   26.2799 H   0  0  0  0  0  0  0  0  0  0  0  0
    6.8176    6.2751   25.8800 H   0  0  0  0  0  0  0  0  0  0  0  0
    6.3676    5.9195   27.5649 H   0  0  0  0  0  0  0  0  0  0  0  0
  1  2  1  0
  2  3  1  0
  3  4  2  0
  4  5  1  0
  5  6  1  0
  6  7  1  0
  7  8  2  0
  8  9  1  0
  9 10  1  0
 10 11  1  0
 11 12  2  0
 12 13  1  0
 13 14  2  0
 14 15  1  0
 15 16  2  0
 16 17  1  0
 14 18  1  0
 13 19  1  0
 12 20  1  0
 10 21  1  0
 10 22  1  0
  9 23  2  0
 23 24  1  0
 24 25  1  0
 25 26  1  0
 26 27  1  0
 26 28  1  0
 26 29  1  0
 25 30  1  0
 30 31  1  0
 30 32  1  0
 30 33  1  0
 25 34  1  0
  6 35  2  0
 35 36  1  0
 36 37  1  0
 36 38  1  0
 36 39  1  0
  2 40  1  0
  2 41  1  0
  1 42  1  0
  1 43  1  0
  1 44  1  0
 35  3  1  0
 24  7  1  0
 16 11  1  0
M  END
>  <cnnaffinity>  (1) 
-5.7599

>  <filename>  (1) 
[H]c1nc([H])c(C([H])([H])c2nc(-c3onc(C([H])([H])C([H])([H])[H])c3C([H])([H])[H])n(C([H])(C([H])([H])[H])C(F)(F)F)n2)c([H])c1[H]

$$$$
