
     RDKit          3D

 44 47  0  0  0  0  0  0  0  0999 V2000
    9.7652    6.0039   24.3531 C   0  0  0  0  0  0  0  0  0  0  0  0
    8.6340    5.3866   24.0222 C   0  0  0  0  0  0  0  0  0  0  0  0
    8.5889    4.1870   23.1090 C   0  0  0  0  0  0  0  0  0  0  0  0
    8.5887    2.8552   23.8825 C   0  0  0  0  0  0  0  0  0  0  0  0
    8.7247    1.6930   23.0002 N   0  0  0  0  0  0  0  0  0  0  0  0
    7.6377    0.9489   22.6933 N   0  0  0  0  0  0  0  0  0  0  0  0
    8.0615    0.1796   21.7133 C   0  0  0  0  0  0  0  0  0  0  0  0
    7.1594   -0.7742   20.9913 C   0  0  0  0  0  0  0  0  0  0  0  0
    6.4592   -0.1052   19.8150 C   0  0  0  0  0  0  0  0  0  0  0  0
    5.2908    0.6415   20.0103 C   0  0  0  0  0  0  0  0  0  0  0  0
    4.7577    1.3531   18.9329 C   0  0  0  0  0  0  0  0  0  0  0  0
    5.4172    1.2976   17.7018 C   0  0  0  0  0  0  0  0  0  0  0  0
    6.5353    0.5868   17.4898 N   0  0  0  0  0  0  0  0  0  0  0  0
    7.0325   -0.0901   18.5314 C   0  0  0  0  0  0  0  0  0  0  0  0
    7.9488   -0.6512   18.3423 H   0  0  0  0  0  0  0  0  0  0  0  0
    5.0378    1.8489   16.8443 H   0  0  0  0  0  0  0  0  0  0  0  0
    3.8633    1.9573   19.0370 H   0  0  0  0  0  0  0  0  0  0  0  0
    4.8212    0.6755   20.9959 H   0  0  0  0  0  0  0  0  0  0  0  0
    6.4332   -1.1489   21.7206 H   0  0  0  0  0  0  0  0  0  0  0  0
    7.7655   -1.6218   20.6535 H   0  0  0  0  0  0  0  0  0  0  0  0
    9.3592    0.3761   21.3556 N   0  0  0  0  0  0  0  0  0  0  0  0
    9.7522    1.3134   22.1989 C   0  0  0  0  0  0  0  0  0  0  0  0
   11.1116    1.8846   22.3077 C   0  0  0  0  0  0  0  0  0  0  0  0
   11.6192    2.7934   21.3787 C   0  0  0  0  0  0  0  0  0  0  0  0
   12.7502    3.5890   21.6809 C   0  0  0  0  0  0  0  0  0  0  0  0
   13.1828    4.5529   20.7873 N   0  0  0  0  0  0  0  0  0  0  0  0
   14.1871    5.2925   21.2125 C   0  0  0  0  0  0  0  0  0  0  0  0
   14.7304    5.1793   22.5292 C   0  0  0  0  0  0  0  0  0  0  0  0
   14.3752    4.2500   23.3893 N   0  0  0  0  0  0  0  0  0  0  0  0
   13.4172    3.3768   22.9383 C   0  0  0  0  0  0  0  0  0  0  0  0
   13.0515    2.2622   23.7351 C   0  0  0  0  0  0  0  0  0  0  0  0
   11.9101    1.5788   23.4415 C   0  0  0  0  0  0  0  0  0  0  0  0
   11.5273    0.6095   24.2856 F   0  0  0  0  0  0  0  0  0  0  0  0
   13.6386    1.9682   24.5826 H   0  0  0  0  0  0  0  0  0  0  0  0
   15.5474    5.8455   22.7730 H   0  0  0  0  0  0  0  0  0  0  0  0
   14.6790    5.9938   20.5469 H   0  0  0  0  0  0  0  0  0  0  0  0
   11.1687    2.9551   20.4095 H   0  0  0  0  0  0  0  0  0  0  0  0
    9.4085    2.8247   24.6059 H   0  0  0  0  0  0  0  0  0  0  0  0
    7.6515    2.7202   24.4294 H   0  0  0  0  0  0  0  0  0  0  0  0
    7.7025    4.2189   22.4662 H   0  0  0  0  0  0  0  0  0  0  0  0
    9.4639    4.1988   22.4488 H   0  0  0  0  0  0  0  0  0  0  0  0
    7.6907    5.7304   24.4520 H   0  0  0  0  0  0  0  0  0  0  0  0
   10.7124    5.6577   23.9377 H   0  0  0  0  0  0  0  0  0  0  0  0
    9.8082    6.8607   25.0192 H   0  0  0  0  0  0  0  0  0  0  0  0
  1  2  2  3
  2  3  1  0
  3  4  1  0
  4  5  1  0
  5  6  1  0
  6  7  2  0
  7  8  1  0
  8  9  1  0
  9 10  2  0
 10 11  1  0
 11 12  2  0
 12 13  1  0
 13 14  2  0
 14 15  1  0
 12 16  1  0
 11 17  1  0
 10 18  1  0
  8 19  1  0
  8 20  1  0
  7 21  1  0
 21 22  2  0
 22 23  1  0
 23 24  2  0
 24 25  1  0
 25 26  2  0
 26 27  1  0
 27 28  2  0
 28 29  1  0
 29 30  2  0
 30 31  1  0
 31 32  2  0
 32 33  1  0
 31 34  1  0
 28 35  1  0
 27 36  1  0
 24 37  1  0
  4 38  1  0
  4 39  1  0
  3 40  1  0
  3 41  1  0
  2 42  1  0
  1 43  1  0
  1 44  1  0
 22  5  1  0
 32 23  1  0
 14  9  1  0
 30 25  1  0
M  END
>  <cnnaffinity>  (1) 
-6.80338

>  <filename>  (1) 
[H]C([H])=C([H])C([H])([H])C([H])([H])n1nc(C([H])([H])c2c([H])nc([H])c([H])c2[H])nc1-c1c(F)c([H])c2nc([H])c([H])nc2c1[H]

$$$$
