
     RDKit          3D

 31 33  0  0  0  0  0  0  0  0999 V2000
   10.1685    3.5636   24.5008 H   0  0  0  0  0  0  0  0  0  0  0  0
    9.7042    3.2845   23.5586 C   0  0  0  0  0  0  0  0  0  0  0  0
    9.9786    2.0806   23.0338 N   0  0  0  0  0  0  0  0  0  0  0  0
    9.3325    1.7732   21.8785 C   0  0  0  0  0  0  0  0  0  0  0  0
    9.6742    0.4732   21.2021 C   0  0  0  0  0  0  0  0  0  0  0  0
    9.7040    0.6327   20.1196 H   0  0  0  0  0  0  0  0  0  0  0  0
   10.6772    0.1755   21.5218 H   0  0  0  0  0  0  0  0  0  0  0  0
    8.6658   -0.6066   21.5086 C   0  0  0  0  0  0  0  0  0  0  0  0
    8.7396   -1.5858   22.5271 C   0  0  0  0  0  0  0  0  0  0  0  0
    9.6058   -1.8468   23.1266 H   0  0  0  0  0  0  0  0  0  0  0  0
    7.5709   -2.1836   22.7295 N   0  0  0  0  0  0  0  0  0  0  0  0
    6.7484   -1.6005   21.8419 N   0  0  0  0  0  0  0  0  0  0  0  0
    5.7670   -1.8408   21.8180 H   0  0  0  0  0  0  0  0  0  0  0  0
    7.3586   -0.6719   21.0625 C   0  0  0  0  0  0  0  0  0  0  0  0
    6.6588    0.0210   19.9639 C   0  0  0  0  0  0  0  0  0  0  0  0
    7.2223    0.0452   18.6776 C   0  0  0  0  0  0  0  0  0  0  0  0
    8.1664   -0.4739   18.5021 H   0  0  0  0  0  0  0  0  0  0  0  0
    6.6624    0.6488   17.6206 N   0  0  0  0  0  0  0  0  0  0  0  0
    5.4935    1.2809   17.8201 C   0  0  0  0  0  0  0  0  0  0  0  0
    5.0650    1.7689   16.9465 H   0  0  0  0  0  0  0  0  0  0  0  0
    4.8378    1.3159   19.0581 C   0  0  0  0  0  0  0  0  0  0  0  0
    3.9001    1.8545   19.1575 H   0  0  0  0  0  0  0  0  0  0  0  0
    5.4271    0.6736   20.1474 C   0  0  0  0  0  0  0  0  0  0  0  0
    4.9811    0.7032   21.1434 H   0  0  0  0  0  0  0  0  0  0  0  0
    8.3678    2.6389   21.3331 C   0  0  0  0  0  0  0  0  0  0  0  0
    7.8135    2.3477   20.4449 H   0  0  0  0  0  0  0  0  0  0  0  0
    8.1049    3.8609   21.8406 N   0  0  0  0  0  0  0  0  0  0  0  0
    8.8022    4.1970   22.9293 C   0  0  0  0  0  0  0  0  0  0  0  0
    8.5507    5.5085   23.2954 N   0  0  0  0  0  0  0  0  0  0  0  0
    7.8197    5.7477   22.6274 H   0  0  0  0  0  0  0  0  0  0  0  0
    8.2550    5.6246   24.2516 H   0  0  0  0  0  0  0  0  0  0  0  0
  1  2  1  0
  2  3  2  0
  3  4  1  0
  4  5  1  0
  5  6  1  0
  5  7  1  0
  5  8  1  0
  8  9  1  0
  9 10  1  0
  9 11  2  0
 11 12  1  0
 12 13  1  0
 12 14  1  0
 14 15  1  0
 15 16  2  0
 16 17  1  0
 16 18  1  0
 18 19  2  0
 19 20  1  0
 19 21  1  0
 21 22  1  0
 21 23  2  0
 23 24  1  0
  4 25  2  0
 25 26  1  0
 25 27  1  0
 27 28  2  0
 28 29  1  0
 29 30  1  0
 29 31  1  0
 28  2  1  0
 14  8  2  0
 23 15  1  0
M  END
>  <cnnaffinity>  (1) 
-5.26043

>  <filename>  (1) 
[H]c1nc(C([H])([H])c2c([H])nn([H])c2-c2c([H])nc([H])c([H])c2[H])c([H])nc1N([H])[H]

$$$$
