
     RDKit          3D

 51 55  0  0  0  0  0  0  0  0999 V2000
   11.1256    5.6691   23.4351 C   0  0  0  0  0  0  0  0  0  0  0  0
    9.9392    6.0962   24.2609 C   0  0  0  0  0  0  0  0  0  0  0  0
   10.0072    7.1815   25.1385 C   0  0  0  0  0  0  0  0  0  0  0  0
    8.8624    7.5846   25.8264 C   0  0  0  0  0  0  0  0  0  0  0  0
    7.6809    6.8752   25.6225 C   0  0  0  0  0  0  0  0  0  0  0  0
    7.5963    5.8078   24.8191 N   0  0  0  0  0  0  0  0  0  0  0  0
    8.6967    5.4152   24.1597 C   0  0  0  0  0  0  0  0  0  0  0  0
    8.5196    4.1804   23.2928 C   0  0  0  0  0  0  0  0  0  0  0  0
    8.4284    2.8363   24.0929 C   0  0  0  0  0  0  0  0  0  0  0  0
    8.4441    1.5969   23.2414 C   0  0  0  0  0  0  0  0  0  0  0  0
    7.3910    0.9352   22.7962 N   0  0  0  0  0  0  0  0  0  0  0  0
    7.9351    0.0210   21.9441 C   0  0  0  0  0  0  0  0  0  0  0  0
    7.1556   -0.8608   20.9988 C   0  0  0  0  0  0  0  0  0  0  0  0
    6.5495   -0.1131   19.8098 C   0  0  0  0  0  0  0  0  0  0  0  0
    5.4169    0.6880   20.0109 C   0  0  0  0  0  0  0  0  0  0  0  0
    4.8685    1.3712   18.9249 C   0  0  0  0  0  0  0  0  0  0  0  0
    5.4828    1.2476   17.6762 C   0  0  0  0  0  0  0  0  0  0  0  0
    6.5857    0.5123   17.4640 N   0  0  0  0  0  0  0  0  0  0  0  0
    7.0961   -0.1458   18.5139 C   0  0  0  0  0  0  0  0  0  0  0  0
    7.9980   -0.7303   18.3203 H   0  0  0  0  0  0  0  0  0  0  0  0
    5.0669    1.7527   16.8062 H   0  0  0  0  0  0  0  0  0  0  0  0
    3.9941    2.0030   19.0352 H   0  0  0  0  0  0  0  0  0  0  0  0
    4.9988    0.7882   21.0145 H   0  0  0  0  0  0  0  0  0  0  0  0
    7.8437   -1.6393   20.6528 H   0  0  0  0  0  0  0  0  0  0  0  0
    6.3543   -1.3451   21.5668 H   0  0  0  0  0  0  0  0  0  0  0  0
    9.2460    0.0496   21.8735 N   0  0  0  0  0  0  0  0  0  0  0  0
    9.5879    1.0461   22.7360 N   0  0  0  0  0  0  0  0  0  0  0  0
   10.8769    1.6750   22.6459 C   0  0  0  0  0  0  0  0  0  0  0  0
   11.8495    1.5376   23.6712 C   0  0  0  0  0  0  0  0  0  0  0  0
   13.0364    2.2529   23.6229 C   0  0  0  0  0  0  0  0  0  0  0  0
   13.1975    3.1916   22.5852 C   0  0  0  0  0  0  0  0  0  0  0  0
   14.1475    4.1427   22.3423 N   0  0  0  0  0  0  0  0  0  0  0  0
   13.8743    4.8932   21.2509 N   0  0  0  0  0  0  0  0  0  0  0  0
   12.7506    4.3944   20.7546 C   0  0  0  0  0  0  0  0  0  0  0  0
   12.2610    3.3128   21.5421 C   0  0  0  0  0  0  0  0  0  0  0  0
   11.1171    2.4844   21.5370 C   0  0  0  0  0  0  0  0  0  0  0  0
   10.4041    2.4902   20.7206 H   0  0  0  0  0  0  0  0  0  0  0  0
   12.2607    4.8484   19.8958 H   0  0  0  0  0  0  0  0  0  0  0  0
   14.9437    4.3443   22.9254 H   0  0  0  0  0  0  0  0  0  0  0  0
   13.8070    2.1109   24.3667 H   0  0  0  0  0  0  0  0  0  0  0  0
   11.6715    0.8644   24.5037 H   0  0  0  0  0  0  0  0  0  0  0  0
    9.2486    2.7658   24.8182 H   0  0  0  0  0  0  0  0  0  0  0  0
    7.4990    2.8199   24.6708 H   0  0  0  0  0  0  0  0  0  0  0  0
    9.3186    4.1333   22.5442 H   0  0  0  0  0  0  0  0  0  0  0  0
    7.5868    4.3260   22.7385 H   0  0  0  0  0  0  0  0  0  0  0  0
    6.7639    7.1713   26.1263 H   0  0  0  0  0  0  0  0  0  0  0  0
    8.8790    8.4330   26.4993 H   0  0  0  0  0  0  0  0  0  0  0  0
   10.9531    7.7050   25.2770 H   0  0  0  0  0  0  0  0  0  0  0  0
   11.3335    4.6073   23.5837 H   0  0  0  0  0  0  0  0  0  0  0  0
   10.9171    5.8138   22.3687 H   0  0  0  0  0  0  0  0  0  0  0  0
   12.0354    6.2317   23.6651 H   0  0  0  0  0  0  0  0  0  0  0  0
  1  2  1  0
  2  3  2  0
  3  4  1  0
  4  5  2  0
  5  6  1  0
  6  7  2  0
  7  8  1  0
  8  9  1  0
  9 10  1  0
 10 11  2  0
 11 12  1  0
 12 13  1  0
 13 14  1  0
 14 15  2  0
 15 16  1  0
 16 17  2  0
 17 18  1  0
 18 19  2  0
 19 20  1  0
 17 21  1  0
 16 22  1  0
 15 23  1  0
 13 24  1  0
 13 25  1  0
 12 26  2  0
 26 27  1  0
 27 28  1  0
 28 29  2  0
 29 30  1  0
 30 31  2  0
 31 32  1  0
 32 33  1  0
 33 34  2  0
 34 35  1  0
 35 36  2  0
 36 37  1  0
 34 38  1  0
 32 39  1  0
 30 40  1  0
 29 41  1  0
  9 42  1  0
  9 43  1  0
  8 44  1  0
  8 45  1  0
  5 46  1  0
  4 47  1  0
  3 48  1  0
  1 49  1  0
  1 50  1  0
  1 51  1  0
  7  2  1  0
 27 10  1  0
 36 28  1  0
 19 14  1  0
 35 31  1  0
M  END
>  <cnnaffinity>  (1) 
-6.84623

>  <filename>  (1) 
[H]c1nc(C([H])([H])C([H])([H])c2nc(C([H])([H])c3c([H])nc([H])c([H])c3[H])nn2-c2c([H])c([H])c3c(c([H])nn3[H])c2[H])c(C([H])([H])[H])c([H])c1[H]

$$$$
