
     RDKit          3D

 41 43  0  0  0  0  0  0  0  0999 V2000
    6.7795    1.3994   22.2483 H   0  0  0  0  0  0  0  0  0  0  0  0
    7.1152    0.3659   22.1430 C   0  0  0  0  0  0  0  0  0  0  0  0
    7.0404   -0.2404   20.9492 C   0  0  0  0  0  0  0  0  0  0  0  0
    6.4271    0.3968   19.7504 C   0  0  0  0  0  0  0  0  0  0  0  0
    7.0239    0.2563   18.4813 C   0  0  0  0  0  0  0  0  0  0  0  0
    7.9425   -0.3228   18.3825 H   0  0  0  0  0  0  0  0  0  0  0  0
    6.5452    0.7831   17.3479 N   0  0  0  0  0  0  0  0  0  0  0  0
    5.4021    1.4802   17.4357 C   0  0  0  0  0  0  0  0  0  0  0  0
    5.0246    1.8932   16.5034 H   0  0  0  0  0  0  0  0  0  0  0  0
    4.7064    1.6689   18.6350 C   0  0  0  0  0  0  0  0  0  0  0  0
    3.7849    2.2407   18.6352 H   0  0  0  0  0  0  0  0  0  0  0  0
    5.2268    1.1270   19.8112 C   0  0  0  0  0  0  0  0  0  0  0  0
    4.7051    1.2396   20.7636 H   0  0  0  0  0  0  0  0  0  0  0  0
    7.6085   -1.6437   20.7337 C   0  0  0  0  0  0  0  0  0  0  0  0
    6.9832   -2.1683   20.0045 H   0  0  0  0  0  0  0  0  0  0  0  0
    8.6077   -1.5466   20.2796 H   0  0  0  0  0  0  0  0  0  0  0  0
    7.7299   -2.4444   22.0304 C   0  0  0  0  0  0  0  0  0  0  0  0
    8.2755   -3.3788   21.8633 H   0  0  0  0  0  0  0  0  0  0  0  0
    6.7308   -2.7065   22.4027 H   0  0  0  0  0  0  0  0  0  0  0  0
    8.4531   -1.5842   23.0797 C   0  0  2  0  0  0  0  0  0  0  0  0
    9.3854   -1.2211   22.6113 H   0  0  0  0  0  0  0  0  0  0  0  0
    8.8967   -2.2555   24.3008 N   0  0  0  0  0  0  0  0  0  0  0  0
    9.9111   -2.3585   24.2861 H   0  0  0  0  0  0  0  0  0  0  0  0
    8.3963   -3.4505   24.7988 C   0  0  0  0  0  0  0  0  0  0  0  0
    7.0230   -3.6188   25.0333 C   0  0  0  0  0  0  0  0  0  0  0  0
    6.3513   -2.8056   24.7623 H   0  0  0  0  0  0  0  0  0  0  0  0
    6.5320   -4.7975   25.5995 C   0  0  0  0  0  0  0  0  0  0  0  0
    5.4653   -4.9075   25.7841 H   0  0  0  0  0  0  0  0  0  0  0  0
    7.4166   -5.8307   25.9392 C   0  0  0  0  0  0  0  0  0  0  0  0
    7.0567   -6.7591   26.3768 H   0  0  0  0  0  0  0  0  0  0  0  0
    8.7772   -5.6769   25.6970 C   0  0  0  0  0  0  0  0  0  0  0  0
    9.4359   -6.4963   25.9906 H   0  0  0  0  0  0  0  0  0  0  0  0
    9.2992   -4.4948   25.1343 C   0  0  0  0  0  0  0  0  0  0  0  0
   10.7412   -4.3524   24.8235 C   0  0  0  0  0  0  0  0  0  0  0  0
   11.2494   -3.4194   24.2035 O   0  0  0  0  0  0  0  0  0  0  0  0
   11.5843   -5.3159   25.2623 N   0  0  0  0  0  0  0  0  0  0  0  0
   12.5016   -5.1750   24.8827 H   0  0  0  0  0  0  0  0  0  0  0  0
   11.2739   -6.2518   25.4346 H   0  0  0  0  0  0  0  0  0  0  0  0
    7.6237   -0.3281   23.3956 C   0  0  0  0  0  0  0  0  0  0  0  0
    8.2202    0.3580   24.0038 H   0  0  0  0  0  0  0  0  0  0  0  0
    6.7698   -0.6215   24.0221 H   0  0  0  0  0  0  0  0  0  0  0  0
  1  2  1  0
  2  3  2  0
  3  4  1  0
  4  5  2  0
  5  6  1  0
  5  7  1  0
  7  8  2  0
  8  9  1  0
  8 10  1  0
 10 11  1  0
 10 12  2  0
 12 13  1  0
  3 14  1  0
 14 15  1  0
 14 16  1  0
 14 17  1  0
 17 18  1  0
 17 19  1  0
 17 20  1  0
 20 21  1  6
 20 22  1  0
 22 23  1  0
 22 24  1  0
 24 25  2  0
 25 26  1  0
 25 27  1  0
 27 28  1  0
 27 29  2  0
 29 30  1  0
 29 31  1  0
 31 32  1  0
 31 33  2  0
 33 34  1  0
 34 35  2  0
 34 36  1  0
 36 37  1  0
 36 38  1  0
 20 39  1  0
 39 40  1  0
 39 41  1  0
 39  2  1  0
 12  4  1  0
 33 24  1  0
M  END
>  <cnnaffinity>  (1) 
-5.40124

>  <filename>  (1) 
[H]C1=C(c2c([H])nc([H])c([H])c2[H])C([H])([H])C([H])([H])[C@]([H])(N([H])c2c([H])c([H])c([H])c([H])c2C(=O)N([H])[H])C1([H])[H]

$$$$
