
     RDKit          3D

 29 30  0  0  0  0  0  0  0  0999 V2000
    4.9313    1.7971   17.0695 H   0  0  0  0  0  0  0  0  0  0  0  0
    5.4472    1.2678   17.8658 C   0  0  0  0  0  0  0  0  0  0  0  0
    6.6187    0.6891   17.5499 N   0  0  0  0  0  0  0  0  0  0  0  0
    7.2827    0.0583   18.5301 C   0  0  0  0  0  0  0  0  0  0  0  0
    8.2322   -0.4029   18.2662 H   0  0  0  0  0  0  0  0  0  0  0  0
    6.8061   -0.0472   19.8665 C   0  0  0  0  0  0  0  0  0  0  0  0
    7.4479   -0.7765   20.8883 N   0  0  0  0  0  0  0  0  0  0  0  0
    6.9722   -0.8220   21.7729 H   0  0  0  0  0  0  0  0  0  0  0  0
    8.7690   -0.7172   21.2556 C   0  0  0  0  0  0  0  0  0  0  0  0
    9.6656   -0.0982   20.6036 N   0  0  0  0  0  0  0  0  0  0  0  0
   11.2309   -0.0265   21.3106 S   0  0  0  0  0  0  0  0  0  0  0  0
   11.1054    1.4337   22.3407 C   0  0  0  0  0  0  0  0  0  0  0  0
   11.1531    2.7202   21.7833 C   0  0  0  0  0  0  0  0  0  0  0  0
   11.2877    2.8332   20.7115 H   0  0  0  0  0  0  0  0  0  0  0  0
   11.0086    3.8464   22.6082 C   0  0  0  0  0  0  0  0  0  0  0  0
   11.0764    4.8445   22.1790 H   0  0  0  0  0  0  0  0  0  0  0  0
   10.7916    3.6948   23.9836 C   0  0  0  0  0  0  0  0  0  0  0  0
   10.6662    4.5695   24.6226 H   0  0  0  0  0  0  0  0  0  0  0  0
   10.7629    2.4072   24.5354 C   0  0  0  0  0  0  0  0  0  0  0  0
   10.6045    2.2341   25.5947 H   0  0  0  0  0  0  0  0  0  0  0  0
   10.9456    1.2896   23.7239 C   0  0  0  0  0  0  0  0  0  0  0  0
   10.9505    0.2981   24.1655 H   0  0  0  0  0  0  0  0  0  0  0  0
    8.8746   -1.4705   22.3994 N   0  0  0  0  0  0  0  0  0  0  0  0
    8.2624   -2.2467   22.2157 H   0  0  0  0  0  0  0  0  0  0  0  0
    9.8371   -1.7654   22.4743 H   0  0  0  0  0  0  0  0  0  0  0  0
    5.5759    0.5524   20.1638 C   0  0  0  0  0  0  0  0  0  0  0  0
    5.1745    0.4900   21.1762 H   0  0  0  0  0  0  0  0  0  0  0  0
    4.8939    1.2269   19.1499 C   0  0  0  0  0  0  0  0  0  0  0  0
    3.9594    1.7357   19.3584 H   0  0  0  0  0  0  0  0  0  0  0  0
  1  2  1  0
  2  3  2  0
  3  4  1  0
  4  5  1  0
  4  6  2  0
  6  7  1  0
  7  8  1  0
  7  9  1  0
  9 10  2  3
 10 11  1  0
 11 12  1  0
 12 13  2  0
 13 14  1  0
 13 15  1  0
 15 16  1  0
 15 17  2  0
 17 18  1  0
 17 19  1  0
 19 20  1  0
 19 21  2  0
 21 22  1  0
  9 23  1  0
 23 24  1  0
 23 25  1  0
  6 26  1  0
 26 27  1  0
 26 28  2  0
 28 29  1  0
 28  2  1  0
 21 12  1  0
M  END
>  <cnnaffinity>  (1) 
-4.90454

>  <filename>  (1) 
[H]c1nc([H])c(N([H])C(=NSc2c([H])c([H])c([H])c([H])c2[H])N([H])[H])c([H])c1[H]

$$$$
