
     RDKit          3D

 37 38  0  0  0  0  0  0  0  0999 V2000
    9.8408   -0.1700   20.2925 O   0  0  0  0  0  0  0  0  0  0  0  0
    9.0436   -0.5685   21.1191 C   0  0  0  0  0  0  0  0  0  0  0  0
    9.3800   -1.7239   22.0515 C   0  0  0  0  0  0  0  0  0  0  0  0
    9.8848   -1.4117   23.4673 C   0  0  0  0  0  0  0  0  0  0  0  0
    8.5372   -0.8490   24.5571 S   0  0  0  0  0  0  0  0  0  0  0  0
    8.9125    0.9826   24.7630 C   0  0  0  0  0  0  0  0  0  0  0  0
    9.1933    1.7880   23.5740 C   0  0  0  0  0  0  0  0  0  0  0  0
    8.0026    2.2513   22.8709 N   0  0  0  0  0  0  0  0  0  0  0  0
    8.4266    2.9919   21.7098 C   0  0  0  0  0  0  0  0  0  0  0  0
    8.2942    2.9983   21.7112 C   0  0  0  0  0  0  0  0  0  0  0  0
   10.7658    2.3054   22.7047 C   0  0  0  0  0  0  0  0  0  0  0  0
   10.7596    2.2636   22.3994 C   0  0  0  0  0  0  0  0  0  0  0  0
   11.2098    3.6808   23.1569 C   0  0  0  0  0  0  0  0  0  0  0  0
   12.1557    4.3995   22.5449 F   0  0  0  0  0  0  0  0  0  0  0  0
   10.1605    4.4929   23.3816 F   0  0  0  0  0  0  0  0  0  0  0  0
   11.7271    3.4591   24.4192 F   0  0  0  0  0  0  0  0  0  0  0  0
   10.6540    2.3816   21.2756 H   0  0  0  0  0  0  0  0  0  0  0  0
    8.1839    4.2196   21.9165 H   0  0  0  0  0  0  0  0  0  0  0  0
    7.3322    2.8885   20.9770 H   0  0  0  0  0  0  0  0  0  0  0  0
    9.7262    1.0869   25.4971 H   0  0  0  0  0  0  0  0  0  0  0  0
    7.9704    1.3610   25.1948 H   0  0  0  0  0  0  0  0  0  0  0  0
   10.2566   -2.3483   23.9136 H   0  0  0  0  0  0  0  0  0  0  0  0
   10.6982   -0.6682   23.4757 H   0  0  0  0  0  0  0  0  0  0  0  0
    8.4857   -2.3510   22.1414 H   0  0  0  0  0  0  0  0  0  0  0  0
   10.1206   -2.3313   21.5109 H   0  0  0  0  0  0  0  0  0  0  0  0
    7.7535   -0.0849   21.1453 N   0  0  0  0  0  0  0  0  0  0  0  0
    7.0247    0.4378   20.0593 C   0  0  0  0  0  0  0  0  0  0  0  0
    5.8584    1.1627   20.3347 C   0  0  0  0  0  0  0  0  0  0  0  0
    5.0389    1.5612   19.2683 C   0  0  0  0  0  0  0  0  0  0  0  0
    5.4426    1.2701   17.9613 C   0  0  0  0  0  0  0  0  0  0  0  0
    6.5839    0.6239   17.6713 N   0  0  0  0  0  0  0  0  0  0  0  0
    7.3544    0.2260   18.6930 C   0  0  0  0  0  0  0  0  0  0  0  0
    8.2741   -0.2942   18.4335 H   0  0  0  0  0  0  0  0  0  0  0  0
    4.8307    1.5669   17.1135 H   0  0  0  0  0  0  0  0  0  0  0  0
    4.1088    2.0967   19.4288 H   0  0  0  0  0  0  0  0  0  0  0  0
    5.6879    1.4859   21.3673 H   0  0  0  0  0  0  0  0  0  0  0  0
    7.2929   -0.0251   22.0425 H   0  0  0  0  0  0  0  0  0  0  0  0
  1  2  2  0
  2  3  1  0
  3  4  1  0
  4  5  1  0
  5  6  1  0
  6  7  1  0
  7  8  2  0
  8  9  1  0
  9 10  2  0
 10 11  1  0
 11 12  2  0
 12 13  1  0
 13 14  1  0
 13 15  1  0
 13 16  1  0
 11 17  1  0
 10 18  1  0
  9 19  1  0
  6 20  1  0
  6 21  1  0
  4 22  1  0
  4 23  1  0
  3 24  1  0
  3 25  1  0
  2 26  1  0
 26 27  1  0
 27 28  2  0
 28 29  1  0
 29 30  2  0
 30 31  1  0
 31 32  2  0
 32 33  1  0
 30 34  1  0
 29 35  1  0
 28 36  1  0
 26 37  1  0
 12  7  1  0
 32 27  1  0
M  END
>  <cnnaffinity>  (1) 
-5.48022

>  <filename>  (1) 
[H]c1nc([H])c(N([H])C(=O)C([H])([H])C([H])([H])SC([H])([H])c2nc([H])c([H])c([H])c2C(F)(F)F)c([H])c1[H]

$$$$
