
     RDKit          3D

 40 42  0  0  0  0  0  0  0  0999 V2000
   11.5143    1.8508   24.1264 C   0  0  0  0  0  0  0  0  0  0  0  0
   10.6950    0.7466   24.7567 C   0  0  0  0  0  0  0  0  0  0  0  0
    9.8865    1.0339   25.8644 C   0  0  0  0  0  0  0  0  0  0  0  0
    9.1093    0.0533   26.4830 C   0  0  0  0  0  0  0  0  0  0  0  0
    9.1461   -1.2570   26.0084 C   0  0  0  0  0  0  0  0  0  0  0  0
    9.9371   -1.5602   24.8952 C   0  0  0  0  0  0  0  0  0  0  0  0
   10.6766   -0.5652   24.2258 C   0  0  0  0  0  0  0  0  0  0  0  0
   11.3916   -0.9035   22.9167 C   0  0  0  0  0  0  0  0  0  0  0  0
   10.6927   -0.5129   21.6936 N   0  0  0  0  0  0  0  0  0  0  0  0
    9.5120   -1.1059   21.4123 C   0  0  0  0  0  0  0  0  0  0  0  0
    9.2788   -2.3377   21.8468 N   0  0  0  0  0  0  0  0  0  0  0  0
    8.0174   -2.7243   21.7307 C   0  0  0  0  0  0  0  0  0  0  0  0
    7.0139   -1.9780   21.1253 C   0  0  0  0  0  0  0  0  0  0  0  0
    5.5877   -2.4535   21.1244 C   0  0  0  0  0  0  0  0  0  0  0  0
    5.4443   -3.3334   21.7596 H   0  0  0  0  0  0  0  0  0  0  0  0
    5.2627   -2.6910   20.1071 H   0  0  0  0  0  0  0  0  0  0  0  0
    4.9368   -1.6643   21.4952 H   0  0  0  0  0  0  0  0  0  0  0  0
    7.4787   -0.7874   20.5184 C   0  0  0  0  0  0  0  0  0  0  0  0
    6.6569    0.0204   19.6019 C   0  0  0  0  0  0  0  0  0  0  0  0
    5.4295    0.6292   19.9035 C   0  0  0  0  0  0  0  0  0  0  0  0
    4.7837    1.3508   18.8987 C   0  0  0  0  0  0  0  0  0  0  0  0
    5.3794    1.4274   17.6364 C   0  0  0  0  0  0  0  0  0  0  0  0
    6.5585    0.8624   17.3401 N   0  0  0  0  0  0  0  0  0  0  0  0
    7.1875    0.2100   18.3175 C   0  0  0  0  0  0  0  0  0  0  0  0
    8.1634   -0.1985   18.0574 H   0  0  0  0  0  0  0  0  0  0  0  0
    4.8984    1.9684   16.8259 H   0  0  0  0  0  0  0  0  0  0  0  0
    3.8488    1.8673   19.0783 H   0  0  0  0  0  0  0  0  0  0  0  0
    4.9935    0.5773   20.9047 H   0  0  0  0  0  0  0  0  0  0  0  0
    8.7186   -0.3417   20.6768 N   0  0  0  0  0  0  0  0  0  0  0  0
    7.7723   -3.7013   22.1549 H   0  0  0  0  0  0  0  0  0  0  0  0
   10.4493    0.4557   21.5538 H   0  0  0  0  0  0  0  0  0  0  0  0
   11.5199   -1.9893   22.8519 H   0  0  0  0  0  0  0  0  0  0  0  0
   12.3917   -0.4564   22.8786 H   0  0  0  0  0  0  0  0  0  0  0  0
    9.9858   -2.5886   24.5451 H   0  0  0  0  0  0  0  0  0  0  0  0
    8.5529   -2.0216   26.5018 H   0  0  0  0  0  0  0  0  0  0  0  0
    8.4737    0.3300   27.3198 H   0  0  0  0  0  0  0  0  0  0  0  0
    9.8825    2.0497   26.2444 H   0  0  0  0  0  0  0  0  0  0  0  0
   11.0856    2.1774   23.1700 H   0  0  0  0  0  0  0  0  0  0  0  0
   11.5669    2.7348   24.7675 H   0  0  0  0  0  0  0  0  0  0  0  0
   12.5468    1.5427   23.9380 H   0  0  0  0  0  0  0  0  0  0  0  0
  1  2  1  0
  2  3  2  0
  3  4  1  0
  4  5  2  0
  5  6  1  0
  6  7  2  0
  7  8  1  0
  8  9  1  0
  9 10  1  0
 10 11  2  0
 11 12  1  0
 12 13  2  0
 13 14  1  0
 14 15  1  0
 14 16  1  0
 14 17  1  0
 13 18  1  0
 18 19  1  0
 19 20  2  0
 20 21  1  0
 21 22  2  0
 22 23  1  0
 23 24  2  0
 24 25  1  0
 22 26  1  0
 21 27  1  0
 20 28  1  0
 18 29  2  0
 12 30  1  0
  9 31  1  0
  8 32  1  0
  8 33  1  0
  6 34  1  0
  5 35  1  0
  4 36  1  0
  3 37  1  0
  1 38  1  0
  1 39  1  0
  1 40  1  0
  7  2  1  0
 29 10  1  0
 24 19  1  0
M  END
>  <cnnaffinity>  (1) 
-5.56976

>  <filename>  (1) 
[H]c1nc([H])c(-c2nc(N([H])C([H])([H])c3c([H])c([H])c([H])c([H])c3C([H])([H])[H])nc([H])c2C([H])([H])[H])c([H])c1[H]

$$$$
