
     RDKit          3D

 37 39  0  0  0  0  0  0  0  0999 V2000
    6.7847   -0.1413   22.5535 C   0  0  0  0  0  0  0  0  0  0  0  0
    6.9731   -0.8164   21.1531 C   0  0  0  0  0  0  0  0  0  0  0  0
    6.3120   -2.2112   21.1793 C   0  0  0  0  0  0  0  0  0  0  0  0
    5.2526   -2.1229   21.4402 H   0  0  0  0  0  0  0  0  0  0  0  0
    6.8017   -2.8577   21.9154 H   0  0  0  0  0  0  0  0  0  0  0  0
    6.3711   -2.7050   20.2035 H   0  0  0  0  0  0  0  0  0  0  0  0
    8.5406   -0.9516   21.0096 C   0  0  0  0  0  0  0  0  0  0  0  0
    9.1339   -2.0028   21.1223 O   0  0  0  0  0  0  0  0  0  0  0  0
    9.1765    0.2650   20.7879 N   0  0  0  0  0  0  0  0  0  0  0  0
   10.3814    0.6858   21.3895 C   0  0  0  0  0  0  0  0  0  0  0  0
   10.5025    2.0752   21.6960 C   0  0  0  0  0  0  0  0  0  0  0  0
   11.6426    2.5923   22.2843 C   0  0  0  0  0  0  0  0  0  0  0  0
   12.6758    1.6762   22.5873 C   0  0  0  0  0  0  0  0  0  0  0  0
   13.8936    1.8304   23.1699 N   0  0  0  0  0  0  0  0  0  0  0  0
   14.5602    0.6654   23.2888 N   0  0  0  0  0  0  0  0  0  0  0  0
   13.7793   -0.2611   22.7856 C   0  0  0  0  0  0  0  0  0  0  0  0
   12.5543    0.2937   22.3090 C   0  0  0  0  0  0  0  0  0  0  0  0
   11.3928   -0.2123   21.6721 C   0  0  0  0  0  0  0  0  0  0  0  0
   11.2505   -1.2489   21.3959 H   0  0  0  0  0  0  0  0  0  0  0  0
   14.1049   -1.2929   22.7794 H   0  0  0  0  0  0  0  0  0  0  0  0
   14.3774    2.6918   23.3898 H   0  0  0  0  0  0  0  0  0  0  0  0
   11.7308    3.6537   22.4937 H   0  0  0  0  0  0  0  0  0  0  0  0
    9.6752    2.7399   21.4667 H   0  0  0  0  0  0  0  0  0  0  0  0
    8.5229    1.0201   20.6610 H   0  0  0  0  0  0  0  0  0  0  0  0
    6.3492    0.0135   20.0005 C   0  0  0  0  0  0  0  0  0  0  0  0
    5.2363    0.8466   20.1843 C   0  0  0  0  0  0  0  0  0  0  0  0
    4.7666    1.6121   19.1148 C   0  0  0  0  0  0  0  0  0  0  0  0
    5.4028    1.5138   17.8757 C   0  0  0  0  0  0  0  0  0  0  0  0
    6.4218    0.6747   17.6427 N   0  0  0  0  0  0  0  0  0  0  0  0
    6.8528   -0.0575   18.6788 C   0  0  0  0  0  0  0  0  0  0  0  0
    7.6847   -0.7197   18.4493 H   0  0  0  0  0  0  0  0  0  0  0  0
    5.0875    2.1381   17.0433 H   0  0  0  0  0  0  0  0  0  0  0  0
    3.9325    2.2912   19.2442 H   0  0  0  0  0  0  0  0  0  0  0  0
    4.7500    0.9241   21.1554 H   0  0  0  0  0  0  0  0  0  0  0  0
    7.1102   -0.8271   23.3463 H   0  0  0  0  0  0  0  0  0  0  0  0
    5.7477    0.1280   22.7593 H   0  0  0  0  0  0  0  0  0  0  0  0
    7.3702    0.7829   22.6400 H   0  0  0  0  0  0  0  0  0  0  0  0
  1  2  1  0
  2  3  1  0
  3  4  1  0
  3  5  1  0
  3  6  1  0
  2  7  1  0
  7  8  2  0
  7  9  1  0
  9 10  1  0
 10 11  2  0
 11 12  1  0
 12 13  2  0
 13 14  1  0
 14 15  1  0
 15 16  2  0
 16 17  1  0
 17 18  2  0
 18 19  1  0
 16 20  1  0
 14 21  1  0
 12 22  1  0
 11 23  1  0
  9 24  1  0
  2 25  1  0
 25 26  2  0
 26 27  1  0
 27 28  2  0
 28 29  1  0
 29 30  2  0
 30 31  1  0
 28 32  1  0
 27 33  1  0
 26 34  1  0
  1 35  1  0
  1 36  1  0
  1 37  1  0
 18 10  1  0
 30 25  1  0
 17 13  1  0
M  END
>  <cnnaffinity>  (1) 
-5.92595

>  <filename>  (1) 
[H]c1nc([H])c(C(C(=O)N([H])c2c([H])c([H])c3c(c([H])nn3[H])c2[H])(C([H])([H])[H])C([H])([H])[H])c([H])c1[H]

$$$$
