
     RDKit          3D

 43 46  0  0  0  0  0  0  0  0999 V2000
   11.4286    3.5428   22.6509 C   0  0  0  0  0  0  0  0  0  0  0  0
   11.2623    2.0629   22.2946 C   0  0  0  0  0  0  0  0  0  0  0  0
    9.8925    1.5309   22.3829 N   0  0  0  0  0  0  0  0  0  0  0  0
    9.6598    0.4759   21.5585 N   0  0  0  0  0  0  0  0  0  0  0  0
    8.3516    0.3527   21.5658 C   0  0  0  0  0  0  0  0  0  0  0  0
    7.5932   -0.6818   20.7805 C   0  0  0  0  0  0  0  0  0  0  0  0
    6.7309   -0.0946   19.6582 C   0  0  0  0  0  0  0  0  0  0  0  0
    5.5309    0.5659   19.9656 C   0  0  0  0  0  0  0  0  0  0  0  0
    4.8615    1.2660   18.9596 C   0  0  0  0  0  0  0  0  0  0  0  0
    5.3991    1.2635   17.6719 C   0  0  0  0  0  0  0  0  0  0  0  0
    6.5077    0.5884   17.3352 N   0  0  0  0  0  0  0  0  0  0  0  0
    7.1414   -0.0745   18.3113 C   0  0  0  0  0  0  0  0  0  0  0  0
    8.0532   -0.5925   18.0119 H   0  0  0  0  0  0  0  0  0  0  0  0
    4.9213    1.8319   16.8766 H   0  0  0  0  0  0  0  0  0  0  0  0
    3.9637    1.8371   19.1667 H   0  0  0  0  0  0  0  0  0  0  0  0
    5.1583    0.5723   20.9911 H   0  0  0  0  0  0  0  0  0  0  0  0
    8.3068   -1.4243   20.4019 H   0  0  0  0  0  0  0  0  0  0  0  0
    6.9584   -1.1728   21.5284 H   0  0  0  0  0  0  0  0  0  0  0  0
    7.7136    1.2561   22.3502 N   0  0  0  0  0  0  0  0  0  0  0  0
    8.6933    1.9778   22.8701 C   0  0  0  0  0  0  0  0  0  0  0  0
    8.5304    3.0628   23.8965 C   0  0  0  0  0  0  0  0  0  0  0  0
    8.9177    2.7823   25.1331 N   0  0  0  0  0  0  0  0  0  0  0  0
    8.7529    3.7083   26.1034 C   0  0  0  0  0  0  0  0  0  0  0  0
    8.3060    4.9884   25.8731 C   0  0  0  0  0  0  0  0  0  0  0  0
    7.9283    5.3512   24.5580 C   0  0  0  0  0  0  0  0  0  0  0  0
    7.4998    6.6475   24.1815 C   0  0  0  0  0  0  0  0  0  0  0  0
    7.0803    6.8588   22.8902 C   0  0  0  0  0  0  0  0  0  0  0  0
    7.0593    5.9032   21.9342 N   0  0  0  0  0  0  0  0  0  0  0  0
    7.4774    4.6956   22.2620 C   0  0  0  0  0  0  0  0  0  0  0  0
    7.9603    4.3420   23.5512 C   0  0  0  0  0  0  0  0  0  0  0  0
    7.4500    3.9417   21.4758 H   0  0  0  0  0  0  0  0  0  0  0  0
    6.7472    7.8457   22.5698 H   0  0  0  0  0  0  0  0  0  0  0  0
    7.5190    7.4598   24.9000 H   0  0  0  0  0  0  0  0  0  0  0  0
    8.2411    5.7136   26.6723 H   0  0  0  0  0  0  0  0  0  0  0  0
    9.0141    3.3663   27.0964 H   0  0  0  0  0  0  0  0  0  0  0  0
   12.2648    1.1254   23.0039 C   0  0  0  0  0  0  0  0  0  0  0  0
   12.0810    1.0668   24.3347 F   0  0  0  0  0  0  0  0  0  0  0  0
   12.2392   -0.1182   22.5198 F   0  0  0  0  0  0  0  0  0  0  0  0
   13.5163    1.5978   22.8170 F   0  0  0  0  0  0  0  0  0  0  0  0
   11.5220    1.9309   21.2401 H   0  0  0  0  0  0  0  0  0  0  0  0
   10.5462    4.1231   22.3522 H   0  0  0  0  0  0  0  0  0  0  0  0
   12.2931    3.9364   22.1004 H   0  0  0  0  0  0  0  0  0  0  0  0
   11.5890    3.6937   23.7250 H   0  0  0  0  0  0  0  0  0  0  0  0
  1  2  1  0
  2  3  1  0
  3  4  1  0
  4  5  2  0
  5  6  1  0
  6  7  1  0
  7  8  2  0
  8  9  1  0
  9 10  2  0
 10 11  1  0
 11 12  2  0
 12 13  1  0
 10 14  1  0
  9 15  1  0
  8 16  1  0
  6 17  1  0
  6 18  1  0
  5 19  1  0
 19 20  2  0
 20 21  1  0
 21 22  2  0
 22 23  1  0
 23 24  2  0
 24 25  1  0
 25 26  2  0
 26 27  1  0
 27 28  2  0
 28 29  1  0
 29 30  2  0
 29 31  1  0
 27 32  1  0
 26 33  1  0
 24 34  1  0
 23 35  1  0
  2 36  1  0
 36 37  1  0
 36 38  1  0
 36 39  1  0
  2 40  1  0
  1 41  1  0
  1 42  1  0
  1 43  1  0
 20  3  1  0
 30 21  1  0
 12  7  1  0
 30 25  1  0
M  END
>  <cnnaffinity>  (1) 
-6.30739

>  <filename>  (1) 
[H]c1nc([H])c(C([H])([H])c2nc(-c3nc([H])c([H])c4c([H])c([H])nc([H])c34)n(C([H])(C([H])([H])[H])C(F)(F)F)n2)c([H])c1[H]

$$$$
