
     RDKit          3D

 27 28  0  0  0  0  0  0  0  0999 V2000
    4.9150    1.7782   16.9987 H   0  0  0  0  0  0  0  0  0  0  0  0
    5.4042    1.2895   17.8436 C   0  0  0  0  0  0  0  0  0  0  0  0
    6.5711    0.6705   17.5957 N   0  0  0  0  0  0  0  0  0  0  0  0
    7.1857    0.0509   18.6154 C   0  0  0  0  0  0  0  0  0  0  0  0
    8.1291   -0.4387   18.3872 H   0  0  0  0  0  0  0  0  0  0  0  0
    6.6702    0.0179   19.9300 C   0  0  0  0  0  0  0  0  0  0  0  0
    7.3542   -0.7146   20.9191 O   0  0  0  0  0  0  0  0  0  0  0  0
    7.3333   -0.3184   22.2403 C   0  0  0  0  0  0  0  0  0  0  0  0
    6.9948    0.7731   22.6123 O   0  0  0  0  0  0  0  0  0  0  0  0
    7.8325   -1.4311   23.1783 C   0  0  1  0  0  0  0  0  0  0  0  0
    7.8256   -0.9508   24.1599 H   0  0  0  0  0  0  0  0  0  0  0  0
    6.8544   -2.5820   23.2310 C   0  0  0  0  0  0  0  0  0  0  0  0
    6.6988   -3.7160   21.9346 S   0  0  0  0  0  0  0  0  0  0  0  0
    5.4392   -4.5487   22.7684 C   0  0  0  0  0  0  0  0  0  0  0  0
    4.6799   -5.9244   22.0785 Cl  0  0  0  0  0  0  0  0  0  0  0  0
    5.1403   -3.9864   23.9734 C   0  0  0  0  0  0  0  0  0  0  0  0
    4.3705   -4.3560   24.6436 H   0  0  0  0  0  0  0  0  0  0  0  0
    5.9624   -2.8517   24.2322 C   0  0  0  0  0  0  0  0  0  0  0  0
    5.8790   -2.2463   25.1313 H   0  0  0  0  0  0  0  0  0  0  0  0
    9.2803   -1.8648   22.8824 C   0  0  0  0  0  0  0  0  0  0  0  0
    9.3528   -2.3036   21.8863 H   0  0  0  0  0  0  0  0  0  0  0  0
    9.6073   -2.6044   23.6212 H   0  0  0  0  0  0  0  0  0  0  0  0
    9.9523   -1.0019   22.9323 H   0  0  0  0  0  0  0  0  0  0  0  0
    5.4460    0.6472   20.1762 C   0  0  0  0  0  0  0  0  0  0  0  0
    5.0114    0.6300   21.1748 H   0  0  0  0  0  0  0  0  0  0  0  0
    4.8110    1.3000   19.1099 C   0  0  0  0  0  0  0  0  0  0  0  0
    3.8790    1.8378   19.2638 H   0  0  0  0  0  0  0  0  0  0  0  0
  1  2  1  0
  2  3  2  0
  3  4  1  0
  4  5  1  0
  4  6  2  0
  6  7  1  0
  7  8  1  0
  8  9  2  0
  8 10  1  0
 10 11  1  1
 10 12  1  0
 12 13  1  0
 13 14  1  0
 14 15  1  0
 14 16  2  0
 16 17  1  0
 16 18  1  0
 18 19  1  0
 10 20  1  0
 20 21  1  0
 20 22  1  0
 20 23  1  0
  6 24  1  0
 24 25  1  0
 24 26  2  0
 26 27  1  0
 26  2  1  0
 18 12  2  0
M  END
>  <cnnaffinity>  (1) 
-4.89515

>  <filename>  (1) 
[H]c1nc([H])c(OC(=O)[C@@]([H])(c2sc(Cl)c([H])c2[H])C([H])([H])[H])c([H])c1[H]

$$$$
