
     RDKit          3D

 28 31  0  0  0  0  0  0  0  0999 V2000
    4.9355    1.7943   16.9881 H   0  0  0  0  0  0  0  0  0  0  0  0
    5.4006    1.2894   17.8326 C   0  0  0  0  0  0  0  0  0  0  0  0
    6.5613    0.6654   17.5800 N   0  0  0  0  0  0  0  0  0  0  0  0
    7.1645    0.0473   18.5962 C   0  0  0  0  0  0  0  0  0  0  0  0
    8.1110   -0.4388   18.3624 H   0  0  0  0  0  0  0  0  0  0  0  0
    6.6434    0.0199   19.9029 C   0  0  0  0  0  0  0  0  0  0  0  0
    7.4019   -0.6724   20.9413 C   0  0  0  0  0  0  0  0  0  0  0  0
    8.3082   -1.5970   20.7223 N   0  0  0  0  0  0  0  0  0  0  0  0
    8.8138   -2.0270   21.9267 N   0  0  0  0  0  0  0  0  0  0  0  0
    8.1965   -1.3277   22.8374 C   0  0  0  0  0  0  0  0  0  0  0  0
    8.2862   -1.1374   24.5613 S   0  0  0  0  0  0  0  0  0  0  0  0
    7.0585    0.1332   24.3688 C   0  0  0  0  0  0  0  0  0  0  0  0
    6.5758    0.8440   25.4081 N   0  0  0  0  0  0  0  0  0  0  0  0
    5.8858    1.5140   25.1131 H   0  0  0  0  0  0  0  0  0  0  0  0
    6.9857    0.6963   26.7606 C   0  0  0  0  0  0  0  0  0  0  0  0
    6.6845   -0.2310   27.2606 H   0  0  0  0  0  0  0  0  0  0  0  0
    8.3386    1.2353   27.1118 C   0  0  0  0  0  0  0  0  0  0  0  0
    8.9117    1.7397   26.3350 H   0  0  0  0  0  0  0  0  0  0  0  0
    8.9126    0.5957   27.7730 H   0  0  0  0  0  0  0  0  0  0  0  0
    7.0975    1.9179   27.6181 C   0  0  0  0  0  0  0  0  0  0  0  0
    6.7988    2.8716   27.1869 H   0  0  0  0  0  0  0  0  0  0  0  0
    6.8512    1.8219   28.6726 H   0  0  0  0  0  0  0  0  0  0  0  0
    6.6186    0.3774   23.1655 N   0  0  0  0  0  0  0  0  0  0  0  0
    7.2890   -0.4691   22.3051 N   0  0  0  0  0  0  0  0  0  0  0  0
    5.4227    0.6612   20.1560 C   0  0  0  0  0  0  0  0  0  0  0  0
    5.0018    0.6588   21.1619 H   0  0  0  0  0  0  0  0  0  0  0  0
    4.7960    1.3082   19.0946 C   0  0  0  0  0  0  0  0  0  0  0  0
    3.8670    1.8461   19.2366 H   0  0  0  0  0  0  0  0  0  0  0  0
  1  2  1  0
  2  3  2  0
  3  4  1  0
  4  5  1  0
  4  6  2  0
  6  7  1  0
  7  8  2  0
  8  9  1  0
  9 10  2  0
 10 11  1  0
 11 12  1  0
 12 13  1  0
 13 14  1  0
 13 15  1  0
 15 16  1  0
 15 17  1  0
 17 18  1  0
 17 19  1  0
 17 20  1  0
 20 21  1  0
 20 22  1  0
 12 23  2  0
 23 24  1  0
  6 25  1  0
 25 26  1  0
 25 27  2  0
 27 28  1  0
 27  2  1  0
 24  7  1  0
 24 10  1  0
 20 15  1  0
M  END
>  <cnnaffinity>  (1) 
-4.791

>  <filename>  (1) 
[H]c1nc([H])c(-c2nnc3sc(N([H])C4([H])C([H])([H])C4([H])[H])nn23)c([H])c1[H]

$$$$
