
     RDKit          3D

 37 39  0  0  0  0  0  0  0  0999 V2000
    8.2173   -0.4944   25.1029 C   0  0  0  0  0  0  0  0  0  0  0  0
    7.7750   -1.7073   24.2855 C   0  0  0  0  0  0  0  0  0  0  0  0
    7.8049   -1.4075   22.8488 N   0  0  0  0  0  0  0  0  0  0  0  0
    6.8316   -0.7473   22.1924 N   0  0  0  0  0  0  0  0  0  0  0  0
    7.2977   -0.6599   20.9749 C   0  0  0  0  0  0  0  0  0  0  0  0
    6.5950    0.0120   19.9161 C   0  0  0  0  0  0  0  0  0  0  0  0
    5.3795    0.6716   20.1261 C   0  0  0  0  0  0  0  0  0  0  0  0
    4.8154    1.3166   19.0344 C   0  0  0  0  0  0  0  0  0  0  0  0
    5.4577    1.2787   17.7933 C   0  0  0  0  0  0  0  0  0  0  0  0
    6.6176    0.6236   17.5992 N   0  0  0  0  0  0  0  0  0  0  0  0
    7.1740    0.0080   18.6510 C   0  0  0  0  0  0  0  0  0  0  0  0
    8.1173   -0.5116   18.5036 H   0  0  0  0  0  0  0  0  0  0  0  0
    5.0049    1.7983   16.9570 H   0  0  0  0  0  0  0  0  0  0  0  0
    3.8856    1.8626   19.1391 H   0  0  0  0  0  0  0  0  0  0  0  0
    4.8995    0.6940   21.1062 H   0  0  0  0  0  0  0  0  0  0  0  0
    8.5373   -1.2506   20.7789 N   0  0  0  0  0  0  0  0  0  0  0  0
    8.8312   -1.6940   21.9686 C   0  0  0  0  0  0  0  0  0  0  0  0
   10.0944   -2.4099   22.3448 C   0  0  0  0  0  0  0  0  0  0  0  0
   10.6966   -1.7943   23.5006 O   0  0  0  0  0  0  0  0  0  0  0  0
   11.3483   -0.6051   23.2816 C   0  0  0  0  0  0  0  0  0  0  0  0
   11.2369    0.1068   22.0791 C   0  0  0  0  0  0  0  0  0  0  0  0
   11.8843    1.3377   21.9269 C   0  0  0  0  0  0  0  0  0  0  0  0
   11.5842    2.4719   20.4388 Br  0  0  0  0  0  0  0  0  0  0  0  0
   12.7653    1.7743   22.9075 C   0  0  0  0  0  0  0  0  0  0  0  0
   12.9030    1.0614   24.0918 C   0  0  0  0  0  0  0  0  0  0  0  0
   12.1325   -0.0701   24.3136 C   0  0  0  0  0  0  0  0  0  0  0  0
   12.1725   -0.5659   25.2802 H   0  0  0  0  0  0  0  0  0  0  0  0
   13.5683    1.4059   24.8625 H   0  0  0  0  0  0  0  0  0  0  0  0
   13.3146    2.6955   22.7492 H   0  0  0  0  0  0  0  0  0  0  0  0
   10.6248   -0.2997   21.2826 H   0  0  0  0  0  0  0  0  0  0  0  0
   10.7871   -2.3933   21.4989 H   0  0  0  0  0  0  0  0  0  0  0  0
    9.8524   -3.4538   22.5636 H   0  0  0  0  0  0  0  0  0  0  0  0
    8.4271   -2.5578   24.5058 H   0  0  0  0  0  0  0  0  0  0  0  0
    6.7548   -1.9879   24.5654 H   0  0  0  0  0  0  0  0  0  0  0  0
    9.2438   -0.2111   24.8537 H   0  0  0  0  0  0  0  0  0  0  0  0
    7.5607    0.3568   24.8990 H   0  0  0  0  0  0  0  0  0  0  0  0
    8.1702   -0.7200   26.1717 H   0  0  0  0  0  0  0  0  0  0  0  0
  1  2  1  0
  2  3  1  0
  3  4  1  0
  4  5  2  0
  5  6  1  0
  6  7  2  0
  7  8  1  0
  8  9  2  0
  9 10  1  0
 10 11  2  0
 11 12  1  0
  9 13  1  0
  8 14  1  0
  7 15  1  0
  5 16  1  0
 16 17  2  0
 17 18  1  0
 18 19  1  0
 19 20  1  0
 20 21  2  0
 21 22  1  0
 22 23  1  0
 22 24  2  0
 24 25  1  0
 25 26  2  0
 26 27  1  0
 25 28  1  0
 24 29  1  0
 21 30  1  0
 18 31  1  0
 18 32  1  0
  2 33  1  0
  2 34  1  0
  1 35  1  0
  1 36  1  0
  1 37  1  0
 17  3  1  0
 26 20  1  0
 11  6  1  0
M  END
>  <cnnaffinity>  (1) 
-6.07658

>  <filename>  (1) 
[H]c1nc([H])c(-c2nc(C([H])([H])Oc3c([H])c([H])c([H])c(Br)c3[H])n(C([H])([H])C([H])([H])[H])n2)c([H])c1[H]

$$$$
