
     RDKit          3D

 36 38  0  0  0  0  0  0  0  0999 V2000
    9.8021   -3.8120   23.8843 H   0  0  0  0  0  0  0  0  0  0  0  0
    8.7500   -3.9106   23.6139 C   0  0  0  0  0  0  0  0  0  0  0  0
    8.2652   -3.1686   22.6140 C   0  0  0  0  0  0  0  0  0  0  0  0
    7.2457   -3.3435   22.2756 H   0  0  0  0  0  0  0  0  0  0  0  0
    9.0121   -2.0814   21.9179 C   0  0  0  0  0  0  0  0  0  0  0  0
    8.2981   -1.4780   20.8271 N   0  0  0  0  0  0  0  0  0  0  0  0
    8.0801   -2.0836   20.0556 H   0  0  0  0  0  0  0  0  0  0  0  0
    7.3424   -0.5231   21.0994 C   0  0  0  0  0  0  0  0  0  0  0  0
    7.1480   -0.0855   22.2178 O   0  0  0  0  0  0  0  0  0  0  0  0
    6.5941   -0.0148   19.9266 C   0  0  0  0  0  0  0  0  0  0  0  0
    7.1572   -0.0428   18.6502 C   0  0  0  0  0  0  0  0  0  0  0  0
    8.0969   -0.5657   18.4694 H   0  0  0  0  0  0  0  0  0  0  0  0
    6.6202    0.5687   17.5904 N   0  0  0  0  0  0  0  0  0  0  0  0
    5.4673    1.2283   17.7800 C   0  0  0  0  0  0  0  0  0  0  0  0
    5.0547    1.7311   16.9084 H   0  0  0  0  0  0  0  0  0  0  0  0
    4.8007    1.2797   19.0105 C   0  0  0  0  0  0  0  0  0  0  0  0
    3.8705    1.8267   19.1016 H   0  0  0  0  0  0  0  0  0  0  0  0
    5.3703    0.6471   20.1088 C   0  0  0  0  0  0  0  0  0  0  0  0
    4.9042    0.6648   21.0957 H   0  0  0  0  0  0  0  0  0  0  0  0
    9.8409   -1.0945   22.7029 C   0  0  0  0  0  0  0  0  0  0  0  0
    9.8483   -1.1540   23.7843 H   0  0  0  0  0  0  0  0  0  0  0  0
    9.8148   -0.0876   22.3052 H   0  0  0  0  0  0  0  0  0  0  0  0
   10.5309   -2.1079   21.8591 C   0  0  0  0  0  0  0  0  0  0  0  0
   11.0282   -1.7602   20.9613 H   0  0  0  0  0  0  0  0  0  0  0  0
   11.0155   -2.9316   22.3725 H   0  0  0  0  0  0  0  0  0  0  0  0
    8.0223   -4.8546   24.4850 C   0  0  0  0  0  0  0  0  0  0  0  0
    8.7829   -5.6360   25.3748 C   0  0  0  0  0  0  0  0  0  0  0  0
    9.8703   -5.5993   25.3352 H   0  0  0  0  0  0  0  0  0  0  0  0
    8.1603   -6.4417   26.3230 C   0  0  0  0  0  0  0  0  0  0  0  0
    8.7653   -6.9998   27.0282 H   0  0  0  0  0  0  0  0  0  0  0  0
    6.7631   -6.5167   26.3777 C   0  0  0  0  0  0  0  0  0  0  0  0
    6.2873   -7.1435   27.1280 H   0  0  0  0  0  0  0  0  0  0  0  0
    5.9936   -5.7882   25.4659 C   0  0  0  0  0  0  0  0  0  0  0  0
    4.9080   -5.8540   25.4903 H   0  0  0  0  0  0  0  0  0  0  0  0
    6.6200   -4.9548   24.5326 C   0  0  0  0  0  0  0  0  0  0  0  0
    6.0105   -4.3425   23.8717 H   0  0  0  0  0  0  0  0  0  0  0  0
  1  2  1  0
  2  3  2  3
  3  4  1  0
  3  5  1  0
  5  6  1  0
  6  7  1  0
  6  8  1  0
  8  9  2  0
  8 10  1  0
 10 11  2  0
 11 12  1  0
 11 13  1  0
 13 14  2  0
 14 15  1  0
 14 16  1  0
 16 17  1  0
 16 18  2  0
 18 19  1  0
  5 20  1  0
 20 21  1  0
 20 22  1  0
 20 23  1  0
 23 24  1  0
 23 25  1  0
  2 26  1  0
 26 27  2  0
 27 28  1  0
 27 29  1  0
 29 30  1  0
 29 31  2  0
 31 32  1  0
 31 33  1  0
 33 34  1  0
 33 35  2  0
 35 36  1  0
 23  5  1  0
 35 26  1  0
 18 10  1  0
M  END
>  <cnnaffinity>  (1) 
-4.93865

>  <filename>  (1) 
[H]C(=C([H])C1(N([H])C(=O)c2c([H])nc([H])c([H])c2[H])C([H])([H])C1([H])[H])c1c([H])c([H])c([H])c([H])c1[H]

$$$$
