
     RDKit          3D

 24 26  0  0  0  0  0  0  0  0999 V2000
    4.9258    1.7808   16.9944 H   0  0  0  0  0  0  0  0  0  0  0  0
    5.4014    1.2914   17.8399 C   0  0  0  0  0  0  0  0  0  0  0  0
    6.5636    0.6736   17.5853 N   0  0  0  0  0  0  0  0  0  0  0  0
    7.1637    0.0631   18.6071 C   0  0  0  0  0  0  0  0  0  0  0  0
    8.1078   -0.4143   18.3591 H   0  0  0  0  0  0  0  0  0  0  0  0
    6.6502    0.0114   19.9150 C   0  0  0  0  0  0  0  0  0  0  0  0
    7.3727   -0.6973   20.9750 C   0  0  0  0  0  0  0  0  0  0  0  0
    6.8832   -0.7652   22.2782 N   0  0  0  0  0  0  0  0  0  0  0  0
    7.7725   -1.4574   22.9047 C   0  0  0  0  0  0  0  0  0  0  0  0
    7.7776   -1.8231   24.2384 N   0  0  0  0  0  0  0  0  0  0  0  0
    6.7755   -1.4743   25.1161 C   0  0  0  0  0  0  0  0  0  0  0  0
    5.9021   -0.8875   24.8391 H   0  0  0  0  0  0  0  0  0  0  0  0
    7.0075   -1.9338   26.3091 N   0  0  0  0  0  0  0  0  0  0  0  0
    8.2061   -2.6144   26.2342 C   0  0  0  0  0  0  0  0  0  0  0  0
    8.6347   -3.1014   27.1004 H   0  0  0  0  0  0  0  0  0  0  0  0
    8.7119   -2.5693   24.9745 C   0  0  0  0  0  0  0  0  0  0  0  0
    9.6162   -2.9817   24.5418 H   0  0  0  0  0  0  0  0  0  0  0  0
    8.8143   -1.8704   22.1613 O   0  0  0  0  0  0  0  0  0  0  0  0
    8.5457   -1.3684   20.9114 C   0  0  0  0  0  0  0  0  0  0  0  0
    9.2477   -1.5611   20.1126 H   0  0  0  0  0  0  0  0  0  0  0  0
    5.4268    0.6572   20.1657 C   0  0  0  0  0  0  0  0  0  0  0  0
    5.0025    0.6339   21.1749 H   0  0  0  0  0  0  0  0  0  0  0  0
    4.8040    1.3104   19.1054 C   0  0  0  0  0  0  0  0  0  0  0  0
    3.8739    1.8431   19.2533 H   0  0  0  0  0  0  0  0  0  0  0  0
  1  2  1  0
  2  3  2  0
  3  4  1  0
  4  5  1  0
  4  6  2  0
  6  7  1  0
  7  8  1  0
  8  9  2  0
  9 10  1  0
 10 11  1  0
 11 12  1  0
 11 13  2  0
 13 14  1  0
 14 15  1  0
 14 16  2  0
 16 17  1  0
  9 18  1  0
 18 19  1  0
 19 20  1  0
  6 21  1  0
 21 22  1  0
 21 23  2  0
 23 24  1  0
 23  2  1  0
 19  7  2  0
 16 10  1  0
M  END
>  <cnnaffinity>  (1) 
-4.58008

>  <filename>  (1) 
[H]c1nc([H])c(-c2nc(-n3c([H])nc([H])c3[H])oc2[H])c([H])c1[H]

$$$$
