
     RDKit          3D

 28 29  0  0  0  0  0  0  0  0999 V2000
    5.3744    1.9430   17.2870 H   0  0  0  0  0  0  0  0  0  0  0  0
    5.6991    1.3052   18.1078 C   0  0  0  0  0  0  0  0  0  0  0  0
    6.8622    0.6567   17.9315 N   0  0  0  0  0  0  0  0  0  0  0  0
    7.2659   -0.1559   18.9112 C   0  0  0  0  0  0  0  0  0  0  0  0
    8.2096   -0.6809   18.7465 H   0  0  0  0  0  0  0  0  0  0  0  0
    6.5430   -0.3822   20.0843 C   0  0  0  0  0  0  0  0  0  0  0  0
    7.1960   -1.6699   21.1482 S   0  0  0  0  0  4  0  0  0  0  0  0
    6.0638   -2.5830   21.5086 O   0  0  0  0  0  0  0  0  0  0  0  0
    7.4928   -0.7214   22.6642 C   0  0  0  0  0  0  0  0  0  0  0  0
    6.5224   -0.5195   23.1233 H   0  0  0  0  0  0  0  0  0  0  0  0
    8.0498   -1.4258   23.2870 H   0  0  0  0  0  0  0  0  0  0  0  0
    8.3548    0.4670   22.4182 C   0  0  0  0  0  0  0  0  0  0  0  0
    9.6627    0.1824   22.4028 N   0  0  0  0  0  0  0  0  0  0  0  0
   10.5343    1.1703   22.1668 C   0  0  0  0  0  0  0  0  0  0  0  0
   11.9854    0.8343   22.3786 C   0  0  0  0  0  0  0  0  0  0  0  0
   12.3134    1.2554   23.3357 H   0  0  0  0  0  0  0  0  0  0  0  0
   12.1272   -0.2483   22.4317 H   0  0  0  0  0  0  0  0  0  0  0  0
   12.6238    1.2757   21.6079 H   0  0  0  0  0  0  0  0  0  0  0  0
   10.1145    2.4597   21.8027 C   0  0  0  0  0  0  0  0  0  0  0  0
   10.8623    3.1957   21.5240 H   0  0  0  0  0  0  0  0  0  0  0  0
    8.7537    2.7616   21.8206 C   0  0  0  0  0  0  0  0  0  0  0  0
    8.4107    3.7597   21.5369 H   0  0  0  0  0  0  0  0  0  0  0  0
    7.8559    1.7561   22.1930 C   0  0  0  0  0  0  0  0  0  0  0  0
    6.7961    1.9583   22.3300 H   0  0  0  0  0  0  0  0  0  0  0  0
    5.3494    0.3295   20.2876 C   0  0  0  0  0  0  0  0  0  0  0  0
    4.7708    0.2408   21.2069 H   0  0  0  0  0  0  0  0  0  0  0  0
    4.9280    1.1849   19.2664 C   0  0  0  0  0  0  0  0  0  0  0  0
    4.0203    1.7719   19.3556 H   0  0  0  0  0  0  0  0  0  0  0  0
  1  2  1  0
  2  3  2  0
  3  4  1  0
  4  5  1  0
  4  6  2  0
  6  7  1  0
  7  8  2  0
  7  9  1  1
  9 10  1  0
  9 11  1  0
  9 12  1  0
 12 13  2  0
 13 14  1  0
 14 15  1  0
 15 16  1  0
 15 17  1  0
 15 18  1  0
 14 19  2  0
 19 20  1  0
 19 21  1  0
 21 22  1  0
 21 23  2  0
 23 24  1  0
  6 25  1  0
 25 26  1  0
 25 27  2  0
 27 28  1  0
 27  2  1  0
 23 12  1  0
M  END
>  <cnnaffinity>  (1) 
-5.0253

>  <filename>  (1) 
[H]c1nc([H])c([S@](=O)C([H])([H])c2nc(C([H])([H])[H])c([H])c([H])c2[H])c([H])c1[H]

$$$$
