
     RDKit          3D

 32 34  0  0  0  0  0  0  0  0999 V2000
    4.9610   -2.4239   26.3416 H   0  0  0  0  0  0  0  0  0  0  0  0
    5.3784   -2.7126   25.3808 C   0  0  0  0  0  0  0  0  0  0  0  0
    6.2527   -1.8744   24.8326 N   0  0  0  0  0  0  0  0  0  0  0  0
    6.8181   -2.2782   23.6932 C   0  0  0  0  0  0  0  0  0  0  0  0
    7.9143   -1.4409   23.1781 C   0  0  0  0  0  0  0  0  0  0  0  0
    7.2246   -0.4434   22.3158 C   0  0  0  0  0  0  0  0  0  0  0  0
    6.7528    0.5754   22.7415 O   0  0  0  0  0  0  0  0  0  0  0  0
    7.2199   -0.8300   20.9994 O   0  0  0  0  0  0  0  0  0  0  0  0
    6.6120   -0.0528   20.0007 C   0  0  0  0  0  0  0  0  0  0  0  0
    7.1885   -0.0237   18.7114 C   0  0  0  0  0  0  0  0  0  0  0  0
    8.1426   -0.5170   18.5168 H   0  0  0  0  0  0  0  0  0  0  0  0
    6.6281    0.6218   17.6789 N   0  0  0  0  0  0  0  0  0  0  0  0
    5.4625    1.2604   17.8877 C   0  0  0  0  0  0  0  0  0  0  0  0
    5.0191    1.7585   17.0272 H   0  0  0  0  0  0  0  0  0  0  0  0
    4.8205    1.2844   19.1283 C   0  0  0  0  0  0  0  0  0  0  0  0
    3.8822    1.8215   19.2499 H   0  0  0  0  0  0  0  0  0  0  0  0
    5.4096    0.6289   20.2148 C   0  0  0  0  0  0  0  0  0  0  0  0
    4.9726    0.6634   21.2087 H   0  0  0  0  0  0  0  0  0  0  0  0
    9.2947   -1.9874   22.9271 C   0  0  0  0  0  0  0  0  0  0  0  0
    9.4086   -3.0484   23.1543 H   0  0  0  0  0  0  0  0  0  0  0  0
    9.7933   -1.6446   22.0231 H   0  0  0  0  0  0  0  0  0  0  0  0
    9.0698   -1.0218   24.0597 C   0  0  0  0  0  0  0  0  0  0  0  0
    9.4070    0.0079   23.9597 H   0  0  0  0  0  0  0  0  0  0  0  0
    9.0496   -1.3928   25.0849 H   0  0  0  0  0  0  0  0  0  0  0  0
    6.4892   -3.3605   22.9953 N   0  0  0  0  0  0  0  0  0  0  0  0
    5.6169   -4.2134   23.5563 C   0  0  0  0  0  0  0  0  0  0  0  0
    5.2789   -5.5491   22.8309 C   0  0  0  0  0  0  0  0  0  0  0  0
    3.9745   -5.5824   22.4801 F   0  0  0  0  0  0  0  0  0  0  0  0
    6.0010   -5.7690   21.7290 F   0  0  0  0  0  0  0  0  0  0  0  0
    5.4758   -6.5978   23.6618 F   0  0  0  0  0  0  0  0  0  0  0  0
    5.0205   -3.9243   24.7906 C   0  0  0  0  0  0  0  0  0  0  0  0
    4.3292   -4.6015   25.2740 H   0  0  0  0  0  0  0  0  0  0  0  0
  1  2  1  0
  2  3  2  0
  3  4  1  0
  4  5  1  0
  5  6  1  0
  6  7  2  0
  6  8  1  0
  8  9  1  0
  9 10  2  0
 10 11  1  0
 10 12  1  0
 12 13  2  0
 13 14  1  0
 13 15  1  0
 15 16  1  0
 15 17  2  0
 17 18  1  0
  5 19  1  0
 19 20  1  0
 19 21  1  0
 19 22  1  0
 22 23  1  0
 22 24  1  0
  4 25  2  0
 25 26  1  0
 26 27  1  0
 27 28  1  0
 27 29  1  0
 27 30  1  0
 26 31  2  0
 31 32  1  0
 31  2  1  0
 22  5  1  0
 17  9  1  0
M  END
>  <cnnaffinity>  (1) 
-5.5835

>  <filename>  (1) 
[H]c1nc(C2(C(=O)Oc3c([H])nc([H])c([H])c3[H])C([H])([H])C2([H])[H])nc(C(F)(F)F)c1[H]

$$$$
