
     RDKit          3D

 33 35  0  0  0  0  0  0  0  0999 V2000
    4.9110    1.7830   16.9989 H   0  0  0  0  0  0  0  0  0  0  0  0
    5.3955    1.2966   17.8411 C   0  0  0  0  0  0  0  0  0  0  0  0
    6.5579    0.6797   17.5672 N   0  0  0  0  0  0  0  0  0  0  0  0
    7.1741    0.0631   18.5804 C   0  0  0  0  0  0  0  0  0  0  0  0
    8.1213   -0.4261   18.3713 H   0  0  0  0  0  0  0  0  0  0  0  0
    6.6633   -0.0008   19.8985 C   0  0  0  0  0  0  0  0  0  0  0  0
    7.3469   -0.6926   20.9304 N   0  0  0  0  0  0  0  0  0  0  0  0
    6.7893   -1.1016   21.6713 H   0  0  0  0  0  0  0  0  0  0  0  0
    8.7100   -0.6480   21.0920 C   0  0  0  0  0  0  0  0  0  0  0  0
    9.4259    0.0839   20.4342 O   0  0  0  0  0  0  0  0  0  0  0  0
    9.3469   -1.5684   22.2160 C   0  0  0  0  0  0  0  0  0  0  0  0
    8.5532   -2.6433   22.4897 F   0  0  0  0  0  0  0  0  0  0  0  0
   10.4877   -2.1035   21.6853 F   0  0  0  0  0  0  0  0  0  0  0  0
    9.6793   -0.7655   23.4511 C   0  0  0  0  0  0  0  0  0  0  0  0
   10.9321   -0.1785   23.5804 C   0  0  0  0  0  0  0  0  0  0  0  0
   11.7050   -0.3414   22.8305 H   0  0  0  0  0  0  0  0  0  0  0  0
   11.2373    0.6319   24.6972 C   0  0  0  0  0  0  0  0  0  0  0  0
   12.2344    1.0552   24.7998 H   0  0  0  0  0  0  0  0  0  0  0  0
   10.2820    0.8803   25.6509 C   0  0  0  0  0  0  0  0  0  0  0  0
   10.5107    1.5050   26.5056 H   0  0  0  0  0  0  0  0  0  0  0  0
    8.9734    0.3395   25.5301 C   0  0  0  0  0  0  0  0  0  0  0  0
    7.9515    0.6007   26.4877 C   0  0  0  0  0  0  0  0  0  0  0  0
    8.1890    1.2208   27.3564 H   0  0  0  0  0  0  0  0  0  0  0  0
    6.7061    0.0646   26.2885 C   0  0  0  0  0  0  0  0  0  0  0  0
    5.9023    0.2383   26.9967 H   0  0  0  0  0  0  0  0  0  0  0  0
    6.4738   -0.7254   25.1255 C   0  0  0  0  0  0  0  0  0  0  0  0
    5.4827   -1.1513   24.9813 H   0  0  0  0  0  0  0  0  0  0  0  0
    7.3816   -0.9879   24.2032 N   0  0  0  0  0  0  0  0  0  0  0  0
    8.6482   -0.4943   24.4055 C   0  0  0  0  0  0  0  0  0  0  0  0
    5.4451    0.6338   20.1656 C   0  0  0  0  0  0  0  0  0  0  0  0
    5.0174    0.6245   21.1713 H   0  0  0  0  0  0  0  0  0  0  0  0
    4.8118    1.3062   19.1128 C   0  0  0  0  0  0  0  0  0  0  0  0
    3.8807    1.8380   19.2673 H   0  0  0  0  0  0  0  0  0  0  0  0
  1  2  1  0
  2  3  2  0
  3  4  1  0
  4  5  1  0
  4  6  2  0
  6  7  1  0
  7  8  1  0
  7  9  1  0
  9 10  2  0
  9 11  1  0
 11 12  1  0
 11 13  1  0
 11 14  1  0
 14 15  2  0
 15 16  1  0
 15 17  1  0
 17 18  1  0
 17 19  2  0
 19 20  1  0
 19 21  1  0
 21 22  2  0
 22 23  1  0
 22 24  1  0
 24 25  1  0
 24 26  2  0
 26 27  1  0
 26 28  1  0
 28 29  2  0
  6 30  1  0
 30 31  1  0
 30 32  2  0
 32 33  1  0
 32  2  1  0
 29 14  1  0
 29 21  1  0
M  END
>  <cnnaffinity>  (1) 
-5.41164

>  <filename>  (1) 
[H]c1nc([H])c(N([H])C(=O)C(F)(F)c2c([H])c([H])c([H])c3c([H])c([H])c([H])nc23)c([H])c1[H]

$$$$
