
     RDKit          3D

 41 43  0  0  0  0  0  0  0  0999 V2000
    7.9448   -4.3564   21.3922 C   0  0  0  0  0  0  0  0  0  0  0  0
    8.5578   -4.5943   22.7450 C   0  0  0  0  0  0  0  0  0  0  0  0
    8.2638   -5.7949   23.4267 C   0  0  0  0  0  0  0  0  0  0  0  0
    8.7707   -6.1593   24.6031 N   0  0  0  0  0  0  0  0  0  0  0  0
    9.6484   -5.3209   25.1633 C   0  0  0  0  0  0  0  0  0  0  0  0
   10.0023   -4.1006   24.5925 C   0  0  0  0  0  0  0  0  0  0  0  0
    9.4149   -3.6807   23.3903 C   0  0  0  0  0  0  0  0  0  0  0  0
    9.7378   -2.2502   22.9027 C   0  0  0  0  0  0  0  0  0  0  0  0
   11.0325   -2.0554   22.0829 C   0  0  0  0  0  0  0  0  0  0  0  0
   11.8652   -2.6169   22.5219 H   0  0  0  0  0  0  0  0  0  0  0  0
   10.9427   -2.3486   21.0347 H   0  0  0  0  0  0  0  0  0  0  0  0
   11.3100   -0.9925   22.0925 H   0  0  0  0  0  0  0  0  0  0  0  0
    8.5317   -1.5509   22.3296 C   0  0  0  0  0  0  0  0  0  0  0  0
    8.3120   -1.0926   21.1133 N   0  0  0  0  0  0  0  0  0  0  0  0
    7.0650   -0.5475   21.1982 C   0  0  0  0  0  0  0  0  0  0  0  0
    6.4152    0.0829   20.0500 C   0  0  0  0  0  0  0  0  0  0  0  0
    5.1978    0.7844   20.1259 C   0  0  0  0  0  0  0  0  0  0  0  0
    4.7260    1.3953   18.9651 C   0  0  0  0  0  0  0  0  0  0  0  0
    5.4689    1.2734   17.7829 C   0  0  0  0  0  0  0  0  0  0  0  0
    6.6170    0.5869   17.6992 N   0  0  0  0  0  0  0  0  0  0  0  0
    7.0732    0.0123   18.8158 C   0  0  0  0  0  0  0  0  0  0  0  0
    8.0124   -0.5314   18.7336 H   0  0  0  0  0  0  0  0  0  0  0  0
    5.1264    1.7476   16.8645 H   0  0  0  0  0  0  0  0  0  0  0  0
    3.8139    1.9807   18.9617 H   0  0  0  0  0  0  0  0  0  0  0  0
    4.6527    0.8577   21.0702 H   0  0  0  0  0  0  0  0  0  0  0  0
    6.5230   -0.6325   22.3937 N   0  0  0  0  0  0  0  0  0  0  0  0
    7.4537   -1.2861   23.1202 N   0  0  0  0  0  0  0  0  0  0  0  0
    7.2313   -1.4532   24.5449 C   0  0  0  0  0  0  0  0  0  0  0  0
    7.8676   -0.3849   25.4381 C   0  0  0  0  0  0  0  0  0  0  0  0
    7.8342   -0.8107   26.7143 F   0  0  0  0  0  0  0  0  0  0  0  0
    7.2248    0.7863   25.3779 F   0  0  0  0  0  0  0  0  0  0  0  0
    9.1602   -0.1565   25.1295 F   0  0  0  0  0  0  0  0  0  0  0  0
    6.1542   -1.4014   24.7101 H   0  0  0  0  0  0  0  0  0  0  0  0
    7.5855   -2.4312   24.8725 H   0  0  0  0  0  0  0  0  0  0  0  0
    9.9479   -1.7130   23.8317 H   0  0  0  0  0  0  0  0  0  0  0  0
   10.7141   -3.4643   25.1042 H   0  0  0  0  0  0  0  0  0  0  0  0
   10.0902   -5.6479   26.1026 H   0  0  0  0  0  0  0  0  0  0  0  0
    7.5839   -6.5098   22.9628 H   0  0  0  0  0  0  0  0  0  0  0  0
    8.5488   -3.6482   20.8279 H   0  0  0  0  0  0  0  0  0  0  0  0
    7.8763   -5.2767   20.8089 H   0  0  0  0  0  0  0  0  0  0  0  0
    6.9326   -3.9391   21.4448 H   0  0  0  0  0  0  0  0  0  0  0  0
  1  2  1  0
  2  3  2  0
  3  4  1  0
  4  5  2  0
  5  6  1  0
  6  7  2  0
  7  8  1  0
  8  9  1  0
  9 10  1  0
  9 11  1  0
  9 12  1  0
  8 13  1  0
 13 14  2  0
 14 15  1  0
 15 16  1  0
 16 17  2  0
 17 18  1  0
 18 19  2  0
 19 20  1  0
 20 21  2  0
 21 22  1  0
 19 23  1  0
 18 24  1  0
 17 25  1  0
 15 26  2  0
 26 27  1  0
 27 28  1  0
 28 29  1  0
 29 30  1  0
 29 31  1  0
 29 32  1  0
 28 33  1  0
 28 34  1  0
  8 35  1  0
  6 36  1  0
  5 37  1  0
  3 38  1  0
  1 39  1  0
  1 40  1  0
  1 41  1  0
  7  2  1  0
 27 13  1  0
 21 16  1  0
M  END
>  <cnnaffinity>  (1) 
-6.42908

>  <filename>  (1) 
[H]c1nc([H])c(-c2nc(C([H])(c3c([H])c([H])nc([H])c3C([H])([H])[H])C([H])([H])[H])n(C([H])([H])C(F)(F)F)n2)c([H])c1[H]

$$$$
