
     RDKit          3D

 32 33  0  0  0  0  0  0  0  0999 V2000
    4.9394    1.7814   17.0021 H   0  0  0  0  0  0  0  0  0  0  0  0
    5.4116    1.2867   17.8512 C   0  0  0  0  0  0  0  0  0  0  0  0
    6.5748    0.6645   17.6018 N   0  0  0  0  0  0  0  0  0  0  0  0
    7.1790    0.0446   18.6261 C   0  0  0  0  0  0  0  0  0  0  0  0
    8.1305   -0.4268   18.3779 H   0  0  0  0  0  0  0  0  0  0  0  0
    6.6569   -0.0341   19.9403 C   0  0  0  0  0  0  0  0  0  0  0  0
    7.3329   -0.7412   21.0137 N   0  0  0  0  0  0  0  0  0  0  0  0
    6.6641   -1.7692   21.6797 C   0  0  0  0  0  0  0  0  0  0  0  0
    5.5454   -2.1338   21.4122 O   0  0  0  0  0  0  0  0  0  0  0  0
    7.4371   -2.3446   22.6619 O   0  0  0  0  0  0  0  0  0  0  0  0
    7.0166   -3.5113   23.3011 C   0  0  0  0  0  0  0  0  0  0  0  0
    6.3814   -4.5422   22.5979 C   0  0  0  0  0  0  0  0  0  0  0  0
    6.1543   -4.3913   21.5498 H   0  0  0  0  0  0  0  0  0  0  0  0
    6.0241   -5.7247   23.2553 C   0  0  0  0  0  0  0  0  0  0  0  0
    5.5227   -6.5156   22.7045 H   0  0  0  0  0  0  0  0  0  0  0  0
    6.2819   -5.8807   24.6210 C   0  0  0  0  0  0  0  0  0  0  0  0
    5.9292   -6.7483   25.1725 H   0  0  0  0  0  0  0  0  0  0  0  0
    6.9719   -4.8872   25.3045 C   0  0  0  0  0  0  0  0  0  0  0  0
    7.2260   -5.0496   26.3501 H   0  0  0  0  0  0  0  0  0  0  0  0
    7.3453   -3.6919   24.6602 C   0  0  0  0  0  0  0  0  0  0  0  0
    8.0710   -2.6168   25.4281 C   0  0  0  0  0  0  0  0  0  0  0  0
    8.3040   -2.9956   26.7057 F   0  0  0  0  0  0  0  0  0  0  0  0
    7.3622   -1.4760   25.4891 F   0  0  0  0  0  0  0  0  0  0  0  0
    9.2682   -2.3229   24.8936 F   0  0  0  0  0  0  0  0  0  0  0  0
    8.7644   -0.4551   21.2030 C   0  0  0  0  0  0  0  0  0  0  0  0
    8.9720    0.5049   20.7252 H   0  0  0  0  0  0  0  0  0  0  0  0
    9.0256   -0.3649   22.2616 H   0  0  0  0  0  0  0  0  0  0  0  0
    9.4176   -1.2066   20.7395 H   0  0  0  0  0  0  0  0  0  0  0  0
    5.4432    0.6293   20.1757 C   0  0  0  0  0  0  0  0  0  0  0  0
    5.0113    0.6027   21.1751 H   0  0  0  0  0  0  0  0  0  0  0  0
    4.8228    1.3036   19.1172 C   0  0  0  0  0  0  0  0  0  0  0  0
    3.8908    1.8350   19.2609 H   0  0  0  0  0  0  0  0  0  0  0  0
  1  2  1  0
  2  3  2  0
  3  4  1  0
  4  5  1  0
  4  6  2  0
  6  7  1  0
  7  8  1  0
  8  9  2  0
  8 10  1  0
 10 11  1  0
 11 12  2  0
 12 13  1  0
 12 14  1  0
 14 15  1  0
 14 16  2  0
 16 17  1  0
 16 18  1  0
 18 19  1  0
 18 20  2  0
 20 21  1  0
 21 22  1  0
 21 23  1  0
 21 24  1  0
  7 25  1  0
 25 26  1  0
 25 27  1  0
 25 28  1  0
  6 29  1  0
 29 30  1  0
 29 31  2  0
 31 32  1  0
 31  2  1  0
 20 11  1  0
M  END
>  <cnnaffinity>  (1) 
-5.00447

>  <filename>  (1) 
[H]c1nc([H])c(N(C(=O)Oc2c([H])c([H])c([H])c([H])c2C(F)(F)F)C([H])([H])[H])c([H])c1[H]

$$$$
