
     RDKit          3D

 33 35  0  0  0  0  0  0  0  0999 V2000
    4.9451    1.7849   16.9962 H   0  0  0  0  0  0  0  0  0  0  0  0
    5.4088    1.2884   17.8476 C   0  0  0  0  0  0  0  0  0  0  0  0
    6.5715    0.6656   17.6026 N   0  0  0  0  0  0  0  0  0  0  0  0
    7.1638    0.0362   18.6194 C   0  0  0  0  0  0  0  0  0  0  0  0
    8.1110   -0.4482   18.3902 H   0  0  0  0  0  0  0  0  0  0  0  0
    6.6380   -0.0067   19.9204 C   0  0  0  0  0  0  0  0  0  0  0  0
    7.4224   -0.7458   20.9484 C   0  0  0  0  0  0  0  0  0  0  0  0
    8.2412   -1.5867   20.6298 O   0  0  0  0  0  0  0  0  0  0  0  0
    7.1514   -0.4263   22.4055 C   0  0  0  0  0  0  0  0  0  0  0  0
    6.1906   -0.8694   22.6857 H   0  0  0  0  0  0  0  0  0  0  0  0
    8.3058   -0.7709   23.3793 C   0  0  0  0  0  0  0  0  0  0  0  0
    9.1943   -1.2324   22.9336 H   0  0  0  0  0  0  0  0  0  0  0  0
    8.0040   -1.3560   24.2586 H   0  0  0  0  0  0  0  0  0  0  0  0
    8.4864    0.6890   23.6916 N   0  0  0  0  0  0  0  0  0  0  0  0
    9.6654    1.1262   23.0782 O   0  0  0  0  0  0  0  0  0  0  0  0
   10.1128    2.3947   23.4431 C   0  0  0  0  0  0  0  0  0  0  0  0
   11.2891    2.7614   22.7892 C   0  0  0  0  0  0  0  0  0  0  0  0
   11.7445    2.0511   22.1078 H   0  0  0  0  0  0  0  0  0  0  0  0
   11.8367    4.0303   23.0029 C   0  0  0  0  0  0  0  0  0  0  0  0
   12.7433    4.3420   22.4904 H   0  0  0  0  0  0  0  0  0  0  0  0
   11.1962    4.9154   23.8800 C   0  0  0  0  0  0  0  0  0  0  0  0
   11.8812    6.4927   24.1475 Cl  0  0  0  0  0  0  0  0  0  0  0  0
   10.0218    4.5443   24.5392 C   0  0  0  0  0  0  0  0  0  0  0  0
    9.5477    5.2546   25.2103 H   0  0  0  0  0  0  0  0  0  0  0  0
    9.4740    3.2709   24.3240 C   0  0  0  0  0  0  0  0  0  0  0  0
    8.5622    2.9500   24.8185 H   0  0  0  0  0  0  0  0  0  0  0  0
    7.3222    1.0593   22.8262 C   0  0  0  0  0  0  0  0  0  0  0  0
    7.5712    1.7774   22.0312 H   0  0  0  0  0  0  0  0  0  0  0  0
    6.4854    1.4697   23.4071 H   0  0  0  0  0  0  0  0  0  0  0  0
    5.4223    0.6536   20.1655 C   0  0  0  0  0  0  0  0  0  0  0  0
    4.9629    0.6698   21.1561 H   0  0  0  0  0  0  0  0  0  0  0  0
    4.8030    1.3107   19.1064 C   0  0  0  0  0  0  0  0  0  0  0  0
    3.8713    1.8448   19.2415 H   0  0  0  0  0  0  0  0  0  0  0  0
  1  2  1  0
  2  3  2  0
  3  4  1  0
  4  5  1  0
  4  6  2  0
  6  7  1  0
  7  8  2  0
  7  9  1  0
  9 10  1  0
  9 11  1  0
 11 12  1  0
 11 13  1  0
 11 14  1  0
 14 15  1  0
 15 16  1  0
 16 17  2  0
 17 18  1  0
 17 19  1  0
 19 20  1  0
 19 21  2  0
 21 22  1  0
 21 23  1  0
 23 24  1  0
 23 25  2  0
 25 26  1  0
 14 27  1  0
 27 28  1  0
 27 29  1  0
  6 30  1  0
 30 31  1  0
 30 32  2  0
 32 33  1  0
 32  2  1  0
 27  9  1  0
 25 16  1  0
M  END
>  <cnnaffinity>  (1) 
-5.11254

>  <filename>  (1) 
[H]c1nc([H])c(C(=O)C2([H])C([H])([H])N(Oc3c([H])c([H])c(Cl)c([H])c3[H])C2([H])[H])c([H])c1[H]

$$$$
