
     RDKit          3D

 41 43  0  0  0  0  0  0  0  0999 V2000
    5.3159    1.0691   24.2767 C   0  0  0  0  0  0  0  0  0  0  0  0
    5.6410    2.5400   24.5083 C   0  0  0  0  0  0  0  0  0  0  0  0
    5.5776    3.3106   23.2669 N   0  0  0  0  0  0  0  0  0  0  0  0
    4.4474    3.9604   22.9621 N   0  0  0  0  0  0  0  0  0  0  0  0
    4.6973    4.5981   21.8243 C   0  0  0  0  0  0  0  0  0  0  0  0
    6.0039    4.3449   21.3773 C   0  0  0  0  0  0  0  0  0  0  0  0
    6.5386    3.4601   22.3164 C   0  0  0  0  0  0  0  0  0  0  0  0
    7.7973    2.6347   22.3900 C   0  0  0  0  0  0  0  0  0  0  0  0
    8.2975    2.2589   23.4419 O   0  0  0  0  0  0  0  0  0  0  0  0
    8.3167    2.2701   21.1794 N   0  0  0  0  0  0  0  0  0  0  0  0
    9.2045    1.1038   21.0697 C   0  0  0  0  0  0  0  0  0  0  0  0
    8.5933   -0.2170   21.5357 C   0  0  0  0  0  0  0  0  0  0  0  0
    9.2412   -0.9558   22.5355 C   0  0  0  0  0  0  0  0  0  0  0  0
    8.6654   -2.1107   23.0723 C   0  0  0  0  0  0  0  0  0  0  0  0
    7.4216   -2.5429   22.6079 C   0  0  0  0  0  0  0  0  0  0  0  0
    6.7667   -1.8314   21.5979 C   0  0  0  0  0  0  0  0  0  0  0  0
    7.3553   -0.6860   21.0278 C   0  0  0  0  0  0  0  0  0  0  0  0
    6.6408    0.0215   19.9111 C   0  0  0  0  0  0  0  0  0  0  0  0
    5.4245    0.6801   20.1406 C   0  0  0  0  0  0  0  0  0  0  0  0
    4.8101    1.3552   19.0826 C   0  0  0  0  0  0  0  0  0  0  0  0
    5.4133    1.3312   17.8186 C   0  0  0  0  0  0  0  0  0  0  0  0
    6.5664    0.6936   17.5683 N   0  0  0  0  0  0  0  0  0  0  0  0
    7.1561    0.0688   18.6014 C   0  0  0  0  0  0  0  0  0  0  0  0
    8.0942   -0.4370   18.3711 H   0  0  0  0  0  0  0  0  0  0  0  0
    4.9491    1.8420   16.9750 H   0  0  0  0  0  0  0  0  0  0  0  0
    3.8787    1.8906   19.2220 H   0  0  0  0  0  0  0  0  0  0  0  0
    4.9860    0.6831   21.1441 H   0  0  0  0  0  0  0  0  0  0  0  0
    5.7912   -2.1566   21.2399 H   0  0  0  0  0  0  0  0  0  0  0  0
    6.9631   -3.4314   23.0343 H   0  0  0  0  0  0  0  0  0  0  0  0
    9.1813   -2.6531   23.8619 H   0  0  0  0  0  0  0  0  0  0  0  0
   10.2029   -0.6054   22.9110 H   0  0  0  0  0  0  0  0  0  0  0  0
    9.4764    0.9965   20.0193 H   0  0  0  0  0  0  0  0  0  0  0  0
   10.1279    1.2990   21.6269 H   0  0  0  0  0  0  0  0  0  0  0  0
    7.6487    2.4129   20.4379 H   0  0  0  0  0  0  0  0  0  0  0  0
    6.4845    4.8485   20.5488 H   0  0  0  0  0  0  0  0  0  0  0  0
    3.9344    5.2133   21.3539 H   0  0  0  0  0  0  0  0  0  0  0  0
    6.6398    2.6610   24.9362 H   0  0  0  0  0  0  0  0  0  0  0  0
    4.9103    3.0014   25.1788 H   0  0  0  0  0  0  0  0  0  0  0  0
    6.0635    0.5882   23.6325 H   0  0  0  0  0  0  0  0  0  0  0  0
    5.2880    0.5458   25.2377 H   0  0  0  0  0  0  0  0  0  0  0  0
    4.3315    0.9866   23.8064 H   0  0  0  0  0  0  0  0  0  0  0  0
  1  2  1  0
  2  3  1  0
  3  4  1  0
  4  5  2  0
  5  6  1  0
  6  7  2  0
  7  8  1  0
  8  9  2  0
  8 10  1  0
 10 11  1  0
 11 12  1  0
 12 13  2  0
 13 14  1  0
 14 15  2  0
 15 16  1  0
 16 17  2  0
 17 18  1  0
 18 19  2  0
 19 20  1  0
 20 21  2  0
 21 22  1  0
 22 23  2  0
 23 24  1  0
 21 25  1  0
 20 26  1  0
 19 27  1  0
 16 28  1  0
 15 29  1  0
 14 30  1  0
 13 31  1  0
 11 32  1  0
 11 33  1  0
 10 34  1  0
  6 35  1  0
  5 36  1  0
  2 37  1  0
  2 38  1  0
  1 39  1  0
  1 40  1  0
  1 41  1  0
  7  3  1  0
 17 12  1  0
 23 18  1  0
M  END
>  <cnnaffinity>  (1) 
-4.60866

>  <filename>  (1) 
[H]c1nc([H])c(-c2c([H])c([H])c([H])c([H])c2C([H])([H])N([H])C(=O)c2c([H])c([H])nn2C([H])([H])C([H])([H])[H])c([H])c1[H]

$$$$
