
     RDKit          3D

 32 33  0  0  0  0  0  0  0  0999 V2000
    4.9175    1.8123   16.9966 H   0  0  0  0  0  0  0  0  0  0  0  0
    5.4083    1.3021   17.8217 C   0  0  0  0  0  0  0  0  0  0  0  0
    6.5636    0.6836   17.5277 N   0  0  0  0  0  0  0  0  0  0  0  0
    7.2001    0.0495   18.5211 C   0  0  0  0  0  0  0  0  0  0  0  0
    8.1411   -0.4353   18.2810 H   0  0  0  0  0  0  0  0  0  0  0  0
    6.7020   -0.0087   19.8360 C   0  0  0  0  0  0  0  0  0  0  0  0
    7.2925   -0.7402   20.8593 O   0  0  0  0  0  0  0  0  0  0  0  0
    8.6549   -0.7978   21.0126 C   0  0  0  0  0  0  0  0  0  0  0  0
    9.4263   -0.0560   20.4673 O   0  0  0  0  0  0  0  0  0  0  0  0
    9.0412   -1.8700   21.9970 C   0  0  1  0  0  0  0  0  0  0  0  0
   10.1011   -2.0330   21.8138 H   0  0  0  0  0  0  0  0  0  0  0  0
    8.9084   -1.1331   23.3048 C   0  0  0  0  0  0  0  0  0  0  0  0
   10.0551   -0.7835   23.8925 N   0  0  0  0  0  0  0  0  0  0  0  0
   10.0074   -0.1846   25.0940 C   0  0  0  0  0  0  0  0  0  0  0  0
   11.3293    0.1854   25.6991 C   0  0  0  0  0  0  0  0  0  0  0  0
   12.0846   -0.5788   25.4896 H   0  0  0  0  0  0  0  0  0  0  0  0
   11.7003    1.1265   25.2793 H   0  0  0  0  0  0  0  0  0  0  0  0
   11.2317    0.3402   26.7768 H   0  0  0  0  0  0  0  0  0  0  0  0
    8.7971    0.0857   25.7502 C   0  0  0  0  0  0  0  0  0  0  0  0
    8.8217    0.4957   26.7576 H   0  0  0  0  0  0  0  0  0  0  0  0
    7.5996   -0.1967   25.0902 C   0  0  0  0  0  0  0  0  0  0  0  0
    6.6456    0.0395   25.5583 H   0  0  0  0  0  0  0  0  0  0  0  0
    7.6521   -0.7940   23.8348 C   0  0  0  0  0  0  0  0  0  0  0  0
    6.7431   -0.9610   23.2631 H   0  0  0  0  0  0  0  0  0  0  0  0
    8.3076   -3.2302   21.9316 C   0  0  0  0  0  0  0  0  0  0  0  0
    7.2516   -3.1404   22.2061 H   0  0  0  0  0  0  0  0  0  0  0  0
    8.7864   -3.9092   22.6460 H   0  0  0  0  0  0  0  0  0  0  0  0
    8.3702   -3.6862   20.9398 H   0  0  0  0  0  0  0  0  0  0  0  0
    5.4995    0.6286   20.1368 C   0  0  0  0  0  0  0  0  0  0  0  0
    5.1216    0.6019   21.1589 H   0  0  0  0  0  0  0  0  0  0  0  0
    4.8413    1.2989   19.1029 C   0  0  0  0  0  0  0  0  0  0  0  0
    3.9070    1.8200   19.2799 H   0  0  0  0  0  0  0  0  0  0  0  0
  1  2  1  0
  2  3  2  0
  3  4  1  0
  4  5  1  0
  4  6  2  0
  6  7  1  0
  7  8  1  0
  8  9  2  0
  8 10  1  0
 10 11  1  6
 10 12  1  0
 12 13  2  0
 13 14  1  0
 14 15  1  0
 15 16  1  0
 15 17  1  0
 15 18  1  0
 14 19  2  0
 19 20  1  0
 19 21  1  0
 21 22  1  0
 21 23  2  0
 23 24  1  0
 10 25  1  0
 25 26  1  0
 25 27  1  0
 25 28  1  0
  6 29  1  0
 29 30  1  0
 29 31  2  0
 31 32  1  0
 31  2  1  0
 23 12  1  0
M  END
>  <cnnaffinity>  (1) 
-4.6132

>  <filename>  (1) 
[H]c1nc([H])c(OC(=O)[C@@]([H])(c2nc(C([H])([H])[H])c([H])c([H])c2[H])C([H])([H])[H])c([H])c1[H]

$$$$
