
     RDKit          3D

 32 33  0  0  0  0  0  0  0  0999 V2000
    4.9118    1.7806   16.9975 H   0  0  0  0  0  0  0  0  0  0  0  0
    5.4034    1.2913   17.8401 C   0  0  0  0  0  0  0  0  0  0  0  0
    6.5659    0.6771   17.5845 N   0  0  0  0  0  0  0  0  0  0  0  0
    7.1784    0.0647   18.6057 C   0  0  0  0  0  0  0  0  0  0  0  0
    8.1196   -0.4212   18.3607 H   0  0  0  0  0  0  0  0  0  0  0  0
    6.6908   -0.0178   19.9448 C   0  0  0  0  0  0  0  0  0  0  0  0
    7.3635   -0.7205   20.9417 N   0  0  0  0  0  0  0  0  0  0  0  0
    8.7465   -1.1189   20.7549 C   0  0  0  0  0  0  0  0  0  0  0  0
    8.8301   -1.9062   20.0034 H   0  0  0  0  0  0  0  0  0  0  0  0
    9.1649   -1.4978   21.6888 H   0  0  0  0  0  0  0  0  0  0  0  0
    9.3745   -0.2844   20.4192 H   0  0  0  0  0  0  0  0  0  0  0  0
    6.7428   -1.0016   22.2242 C   0  0  0  0  0  0  0  0  0  0  0  0
    5.7068   -1.2733   22.0234 H   0  0  0  0  0  0  0  0  0  0  0  0
    7.1949   -1.9093   22.6432 H   0  0  0  0  0  0  0  0  0  0  0  0
    6.8635    0.1361   23.2539 C   0  0  0  0  0  0  0  0  0  0  0  0
    6.4328    1.0501   22.8329 H   0  0  0  0  0  0  0  0  0  0  0  0
    6.2666   -0.1202   24.1389 H   0  0  0  0  0  0  0  0  0  0  0  0
    8.2998    0.3752   23.6535 C   0  0  0  0  0  0  0  0  0  0  0  0
    9.0704    1.3690   23.0277 C   0  0  0  0  0  0  0  0  0  0  0  0
    8.6103    1.9990   22.2723 H   0  0  0  0  0  0  0  0  0  0  0  0
   10.4154    1.5611   23.3555 C   0  0  0  0  0  0  0  0  0  0  0  0
   11.0022    2.3403   22.8781 H   0  0  0  0  0  0  0  0  0  0  0  0
   10.9990    0.7360   24.3171 C   0  0  0  0  0  0  0  0  0  0  0  0
   12.6712    0.9563   24.7415 Cl  0  0  0  0  0  0  0  0  0  0  0  0
   10.2599   -0.2701   24.9403 C   0  0  0  0  0  0  0  0  0  0  0  0
   10.7272   -0.8850   25.6917 H   0  0  0  0  0  0  0  0  0  0  0  0
    8.9204   -0.4544   24.5979 C   0  0  0  0  0  0  0  0  0  0  0  0
    8.3455   -1.2439   25.0763 H   0  0  0  0  0  0  0  0  0  0  0  0
    5.4562    0.6381   20.1694 C   0  0  0  0  0  0  0  0  0  0  0  0
    5.0088    0.6276   21.1629 H   0  0  0  0  0  0  0  0  0  0  0  0
    4.8214    1.3019   19.1131 C   0  0  0  0  0  0  0  0  0  0  0  0
    3.8855    1.8335   19.2653 H   0  0  0  0  0  0  0  0  0  0  0  0
  1  2  1  0
  2  3  2  0
  3  4  1  0
  4  5  1  0
  4  6  2  0
  6  7  1  0
  7  8  1  0
  8  9  1  0
  8 10  1  0
  8 11  1  0
  7 12  1  0
 12 13  1  0
 12 14  1  0
 12 15  1  0
 15 16  1  0
 15 17  1  0
 15 18  1  0
 18 19  2  0
 19 20  1  0
 19 21  1  0
 21 22  1  0
 21 23  2  0
 23 24  1  0
 23 25  1  0
 25 26  1  0
 25 27  2  0
 27 28  1  0
  6 29  1  0
 29 30  1  0
 29 31  2  0
 31 32  1  0
 31  2  1  0
 27 18  1  0
M  END
>  <cnnaffinity>  (1) 
-4.66123

>  <filename>  (1) 
[H]c1nc([H])c(N(C([H])([H])[H])C([H])([H])C([H])([H])c2c([H])c([H])c(Cl)c([H])c2[H])c([H])c1[H]

$$$$
