
     RDKit          3D

 39 41  0  0  0  0  0  0  0  0999 V2000
    5.9879   -1.8927   18.8087 O   0  0  0  0  0  0  0  0  0  0  0  0
    6.2686   -1.9919   20.2469 S   0  0  0  0  0  0  0  0  0  0  0  0
    5.4149   -1.1177   21.0537 O   0  0  0  0  0  0  0  0  0  0  0  0
    7.9010   -1.5853   20.4644 N   0  0  0  0  0  0  0  0  0  0  0  0
    8.0506   -0.2194   20.9204 C   0  0  0  0  0  0  0  0  0  0  0  0
    7.3061    0.5607   19.8738 C   0  0  0  0  0  0  0  0  0  0  0  0
    6.0919    1.2040   20.1404 C   0  0  0  0  0  0  0  0  0  0  0  0
    5.2951    1.5466   19.0533 C   0  0  0  0  0  0  0  0  0  0  0  0
    5.7360    1.2745   17.7541 C   0  0  0  0  0  0  0  0  0  0  0  0
    6.9328    0.7156   17.4970 N   0  0  0  0  0  0  0  0  0  0  0  0
    7.6986    0.3675   18.5400 C   0  0  0  0  0  0  0  0  0  0  0  0
    8.6385   -0.1406   18.3293 H   0  0  0  0  0  0  0  0  0  0  0  0
    5.0707    1.4900   16.9257 H   0  0  0  0  0  0  0  0  0  0  0  0
    4.3208    2.0006   19.1992 H   0  0  0  0  0  0  0  0  0  0  0  0
    5.7324    1.3532   21.1589 H   0  0  0  0  0  0  0  0  0  0  0  0
    9.5153    0.1427   21.0054 C   0  0  0  0  0  0  0  0  0  0  0  0
   10.0167   -0.3329   22.3690 C   0  0  0  0  0  0  0  0  0  0  0  0
    8.7814   -0.4880   23.2561 C   0  0  0  0  0  0  0  0  0  0  0  0
    7.5645   -0.1681   22.3718 C   0  0  0  0  0  0  0  0  0  0  0  0
    7.1847    0.8287   22.6041 H   0  0  0  0  0  0  0  0  0  0  0  0
    6.7631   -0.8939   22.5465 H   0  0  0  0  0  0  0  0  0  0  0  0
    8.8296    0.1762   24.1264 H   0  0  0  0  0  0  0  0  0  0  0  0
    8.7259   -1.5206   23.6211 H   0  0  0  0  0  0  0  0  0  0  0  0
   10.7396    0.3741   22.7923 H   0  0  0  0  0  0  0  0  0  0  0  0
   10.5071   -1.3063   22.2632 H   0  0  0  0  0  0  0  0  0  0  0  0
    9.6058    1.2291   20.9373 H   0  0  0  0  0  0  0  0  0  0  0  0
   10.0782   -0.3242   20.1945 H   0  0  0  0  0  0  0  0  0  0  0  0
    8.3295   -1.7188   19.5631 H   0  0  0  0  0  0  0  0  0  0  0  0
    6.2444   -3.6928   20.8415 C   0  0  0  0  0  0  0  0  0  0  0  0
    5.7475   -4.6972   20.0086 C   0  0  0  0  0  0  0  0  0  0  0  0
    5.8183   -6.0198   20.4197 C   0  0  0  0  0  0  0  0  0  0  0  0
    6.3937   -6.3421   21.6493 C   0  0  0  0  0  0  0  0  0  0  0  0
    6.5237   -8.1479   22.1936 Br  0  0  0  0  0  0  0  0  0  0  0  0
    6.8588   -5.3400   22.4946 C   0  0  0  0  0  0  0  0  0  0  0  0
    6.7703   -4.0051   22.1110 C   0  0  0  0  0  0  0  0  0  0  0  0
    7.1274   -3.2504   22.8115 H   0  0  0  0  0  0  0  0  0  0  0  0
    7.2759   -5.6190   23.4560 H   0  0  0  0  0  0  0  0  0  0  0  0
    5.4517   -6.7978   19.7632 H   0  0  0  0  0  0  0  0  0  0  0  0
    5.3349   -4.4735   19.0256 H   0  0  0  0  0  0  0  0  0  0  0  0
  1  2  2  0
  2  3  2  0
  2  4  1  0
  4  5  1  0
  5  6  1  0
  6  7  2  0
  7  8  1  0
  8  9  2  0
  9 10  1  0
 10 11  2  0
 11 12  1  0
  9 13  1  0
  8 14  1  0
  7 15  1  0
  5 16  1  0
 16 17  1  0
 17 18  1  0
 18 19  1  0
 19 20  1  0
 19 21  1  0
 18 22  1  0
 18 23  1  0
 17 24  1  0
 17 25  1  0
 16 26  1  0
 16 27  1  0
  4 28  1  0
  2 29  1  0
 29 30  2  0
 30 31  1  0
 31 32  2  0
 32 33  1  0
 32 34  1  0
 34 35  2  0
 35 36  1  0
 34 37  1  0
 31 38  1  0
 30 39  1  0
 19  5  1  0
 35 29  1  0
 11  6  1  0
M  END
>  <cnnaffinity>  (1) 
-5.19471

>  <filename>  (1) 
[H]c1nc([H])c(C2(N([H])S(=O)(=O)c3c([H])c([H])c(Br)c([H])c3[H])C([H])([H])C([H])([H])C([H])([H])C2([H])[H])c([H])c1[H]

$$$$
