
     RDKit          3D

 26 27  0  0  0  0  0  0  0  0999 V2000
    4.9313    1.8268   16.9837 H   0  0  0  0  0  0  0  0  0  0  0  0
    5.4071    1.3076   17.8137 C   0  0  0  0  0  0  0  0  0  0  0  0
    6.5611    0.6827   17.5351 N   0  0  0  0  0  0  0  0  0  0  0  0
    7.1752    0.0556   18.5466 C   0  0  0  0  0  0  0  0  0  0  0  0
    8.1106   -0.4443   18.2979 H   0  0  0  0  0  0  0  0  0  0  0  0
    6.6782   -0.0099   19.8729 C   0  0  0  0  0  0  0  0  0  0  0  0
    7.3855   -0.7263   20.9812 C   0  0  0  0  0  0  0  0  0  0  0  0
    8.7703   -0.6412   21.2080 C   0  0  0  0  0  0  0  0  0  0  0  0
    9.4090   -0.0443   20.5555 H   0  0  0  0  0  0  0  0  0  0  0  0
    9.3959   -1.2364   22.2078 N   0  0  0  0  0  0  0  0  0  0  0  0
    8.6352   -1.9615   23.0180 C   0  0  0  0  0  0  0  0  0  0  0  0
    9.3241   -2.5580   24.0071 O   0  0  0  0  0  0  0  0  0  0  0  0
    8.6789   -3.4490   24.9057 C   0  0  0  0  0  0  0  0  0  0  0  0
    7.6753   -3.0996   25.1604 H   0  0  0  0  0  0  0  0  0  0  0  0
    9.2748   -3.4540   25.8163 H   0  0  0  0  0  0  0  0  0  0  0  0
    8.5837   -4.9226   24.4883 C   0  0  0  0  0  0  0  0  0  0  0  0
    9.7800   -5.5308   24.4541 F   0  0  0  0  0  0  0  0  0  0  0  0
    7.8336   -5.5363   25.4235 F   0  0  0  0  0  0  0  0  0  0  0  0
    7.9811   -5.1051   23.3090 F   0  0  0  0  0  0  0  0  0  0  0  0
    7.3229   -2.1480   22.9274 N   0  0  0  0  0  0  0  0  0  0  0  0
    6.7199   -1.5231   21.9195 C   0  0  0  0  0  0  0  0  0  0  0  0
    5.6511   -1.7017   21.8286 H   0  0  0  0  0  0  0  0  0  0  0  0
    5.4590    0.6397   20.1250 C   0  0  0  0  0  0  0  0  0  0  0  0
    5.0445    0.6495   21.1337 H   0  0  0  0  0  0  0  0  0  0  0  0
    4.8191    1.3099   19.0811 C   0  0  0  0  0  0  0  0  0  0  0  0
    3.8805    1.8334   19.2385 H   0  0  0  0  0  0  0  0  0  0  0  0
  1  2  1  0
  2  3  2  0
  3  4  1  0
  4  5  1  0
  4  6  2  0
  6  7  1  0
  7  8  2  0
  8  9  1  0
  8 10  1  0
 10 11  2  0
 11 12  1  0
 12 13  1  0
 13 14  1  0
 13 15  1  0
 13 16  1  0
 16 17  1  0
 16 18  1  0
 16 19  1  0
 11 20  1  0
 20 21  2  0
 21 22  1  0
  6 23  1  0
 23 24  1  0
 23 25  2  0
 25 26  1  0
 25  2  1  0
 21  7  1  0
M  END
>  <cnnaffinity>  (1) 
-4.92552

>  <filename>  (1) 
[H]c1nc([H])c(-c2c([H])nc(OC([H])([H])C(F)(F)F)nc2[H])c([H])c1[H]

$$$$
