
     RDKit          3D

 45 49  0  0  0  0  0  0  0  0999 V2000
    4.7306    1.4171   18.8934 C   0  0  0  0  0  0  0  0  0  0  0  0
    5.3961    1.3711   17.6626 C   0  0  0  0  0  0  0  0  0  0  0  0
    6.5493    0.7138   17.4678 N   0  0  0  0  0  0  0  0  0  0  0  0
    7.0777    0.0767   18.5144 C   0  0  0  0  0  0  0  0  0  0  0  0
    6.4844    0.0585   19.7854 C   0  0  0  0  0  0  0  0  0  0  0  0
    7.1690   -0.6683   20.8422 C   0  0  0  0  0  0  0  0  0  0  0  0
    8.2792   -1.3362   20.6016 N   0  0  0  0  0  0  0  0  0  0  0  0
    8.6334   -1.8068   21.8207 N   0  0  0  0  0  0  0  0  0  0  0  0
   10.0254   -2.2189   21.9818 C   0  0  0  0  0  0  0  0  0  0  0  0
   10.9671   -1.0201   22.1219 C   0  0  0  0  0  0  0  0  0  0  0  0
   11.0058   -0.3476   23.5075 C   0  0  0  0  0  0  0  0  0  0  0  0
   12.4546    0.1826   23.5889 C   0  0  0  0  0  0  0  0  0  0  0  0
   13.1872   -0.3676   22.5013 O   0  0  0  0  0  0  0  0  0  0  0  0
   12.4340   -1.3870   21.8808 C   0  0  0  0  0  0  0  0  0  0  0  0
   12.6840   -1.4011   20.8143 H   0  0  0  0  0  0  0  0  0  0  0  0
   12.6966   -2.3785   22.2934 H   0  0  0  0  0  0  0  0  0  0  0  0
   12.4999    1.2727   23.4998 H   0  0  0  0  0  0  0  0  0  0  0  0
   12.9420   -0.0919   24.5322 H   0  0  0  0  0  0  0  0  0  0  0  0
   10.8117   -1.0803   24.3032 H   0  0  0  0  0  0  0  0  0  0  0  0
   10.2715    0.4593   23.6298 H   0  0  0  0  0  0  0  0  0  0  0  0
   10.6766   -0.2784   21.3635 H   0  0  0  0  0  0  0  0  0  0  0  0
   10.2499   -2.7642   21.0675 H   0  0  0  0  0  0  0  0  0  0  0  0
   10.1124   -2.8976   22.8342 H   0  0  0  0  0  0  0  0  0  0  0  0
    7.7260   -1.3819   22.7356 C   0  0  0  0  0  0  0  0  0  0  0  0
    7.8171   -1.7766   24.1493 C   0  0  0  0  0  0  0  0  0  0  0  0
    7.9795   -3.1146   24.5345 C   0  0  0  0  0  0  0  0  0  0  0  0
    8.1309   -3.4610   25.8901 C   0  0  0  0  0  0  0  0  0  0  0  0
    8.0995   -2.4972   26.8927 C   0  0  0  0  0  0  0  0  0  0  0  0
    7.8878   -1.1626   26.5097 C   0  0  0  0  0  0  0  0  0  0  0  0
    7.7485   -0.7833   25.1536 C   0  0  0  0  0  0  0  0  0  0  0  0
    7.5508    0.6372   25.1403 C   0  0  0  0  0  0  0  0  0  0  0  0
    7.5612    1.0656   26.4340 C   0  0  0  0  0  0  0  0  0  0  0  0
    7.7726   -0.0185   27.2624 N   0  0  0  0  0  0  0  0  0  0  0  0
    7.7182   -0.0094   28.2685 H   0  0  0  0  0  0  0  0  0  0  0  0
    7.4369    2.0610   26.8418 H   0  0  0  0  0  0  0  0  0  0  0  0
    7.3985    1.2077   24.2313 H   0  0  0  0  0  0  0  0  0  0  0  0
    8.2183   -2.7736   27.9292 H   0  0  0  0  0  0  0  0  0  0  0  0
    8.2869   -4.5020   26.1603 H   0  0  0  0  0  0  0  0  0  0  0  0
    7.9688   -3.8960   23.7794 H   0  0  0  0  0  0  0  0  0  0  0  0
    6.7921   -0.6530   22.1404 N   0  0  0  0  0  0  0  0  0  0  0  0
    5.2850    0.7571   19.9868 C   0  0  0  0  0  0  0  0  0  0  0  0
    4.8131    0.7850   20.9708 H   0  0  0  0  0  0  0  0  0  0  0  0
    8.0163   -0.4469   18.3348 H   0  0  0  0  0  0  0  0  0  0  0  0
    4.9842    1.8794   16.7943 H   0  0  0  0  0  0  0  0  0  0  0  0
    3.8035    1.9728   18.9783 H   0  0  0  0  0  0  0  0  0  0  0  0
  1  2  2  0
  2  3  1  0
  3  4  2  0
  4  5  1  0
  5  6  1  0
  6  7  2  0
  7  8  1  0
  8  9  1  0
  9 10  1  0
 10 11  1  0
 11 12  1  0
 12 13  1  0
 13 14  1  0
 14 15  1  0
 14 16  1  0
 12 17  1  0
 12 18  1  0
 11 19  1  0
 11 20  1  0
 10 21  1  0
  9 22  1  0
  9 23  1  0
  8 24  1  0
 24 25  1  0
 25 26  2  0
 26 27  1  0
 27 28  2  0
 28 29  1  0
 29 30  2  0
 30 31  1  0
 31 32  2  0
 32 33  1  0
 33 34  1  0
 32 35  1  0
 31 36  1  0
 28 37  1  0
 27 38  1  0
 26 39  1  0
 24 40  2  0
  5 41  2  0
 41 42  1  0
  4 43  1  0
  2 44  1  0
  1 45  1  0
 41  1  1  0
 40  6  1  0
 14 10  1  0
 30 25  1  0
 33 29  1  0
M  END
>  <cnnaffinity>  (1) 
-6.12323

>  <filename>  (1) 
[H]c1nc([H])c(-c2nc(-c3c([H])c([H])c([H])c4c3c([H])c([H])n4[H])n(C([H])([H])C3([H])C([H])([H])OC([H])([H])C3([H])[H])n2)c([H])c1[H]

$$$$
