
     RDKit          3D

 42 45  0  0  0  0  0  0  0  0999 V2000
   11.7209    3.2087   22.4078 C   0  0  0  0  0  0  0  0  0  0  0  0
   11.5810    1.6906   22.2659 C   0  0  0  0  0  0  0  0  0  0  0  0
   10.1703    1.2795   22.3283 N   0  0  0  0  0  0  0  0  0  0  0  0
    9.7486    0.2817   21.5095 N   0  0  0  0  0  0  0  0  0  0  0  0
    8.4366    0.3122   21.6468 C   0  0  0  0  0  0  0  0  0  0  0  0
    7.4969   -0.6341   20.9428 C   0  0  0  0  0  0  0  0  0  0  0  0
    6.6893   -0.0185   19.8046 C   0  0  0  0  0  0  0  0  0  0  0  0
    5.4830    0.6348   20.0832 C   0  0  0  0  0  0  0  0  0  0  0  0
    4.8234    1.3032   19.0496 C   0  0  0  0  0  0  0  0  0  0  0  0
    5.3921    1.3010   17.7732 C   0  0  0  0  0  0  0  0  0  0  0  0
    6.5264    0.6486   17.4729 N   0  0  0  0  0  0  0  0  0  0  0  0
    7.1426    0.0040   18.4714 C   0  0  0  0  0  0  0  0  0  0  0  0
    8.0637   -0.5155   18.2021 H   0  0  0  0  0  0  0  0  0  0  0  0
    4.9181    1.8440   16.9558 H   0  0  0  0  0  0  0  0  0  0  0  0
    3.8957    1.8332   19.2255 H   0  0  0  0  0  0  0  0  0  0  0  0
    5.0859    0.6310   21.1025 H   0  0  0  0  0  0  0  0  0  0  0  0
    8.0838   -1.4843   20.5867 H   0  0  0  0  0  0  0  0  0  0  0  0
    6.7990   -1.0059   21.7050 H   0  0  0  0  0  0  0  0  0  0  0  0
    7.9787    1.2609   22.5000 N   0  0  0  0  0  0  0  0  0  0  0  0
    9.0803    1.8489   22.9278 C   0  0  0  0  0  0  0  0  0  0  0  0
    9.1214    2.8607   23.9829 C   0  0  0  0  0  0  0  0  0  0  0  0
    9.4066    2.8030   25.3328 C   0  0  0  0  0  0  0  0  0  0  0  0
    9.1905    3.9910   25.9508 N   0  0  0  0  0  0  0  0  0  0  0  0
    8.7616    4.8124   25.0028 C   0  0  0  0  0  0  0  0  0  0  0  0
    8.4151    6.2030   25.0647 C   0  0  0  0  0  0  0  0  0  0  0  0
    8.0377    6.8545   23.9195 C   0  0  0  0  0  0  0  0  0  0  0  0
    7.9674    6.1488   22.6635 C   0  0  0  0  0  0  0  0  0  0  0  0
    8.2787    4.8188   22.6158 C   0  0  0  0  0  0  0  0  0  0  0  0
    8.6719    4.1617   23.7720 N   0  0  0  0  0  0  0  0  0  0  0  0
    8.2404    4.1892   21.7292 H   0  0  0  0  0  0  0  0  0  0  0  0
    7.6693    6.6743   21.7578 H   0  0  0  0  0  0  0  0  0  0  0  0
    7.7870    7.9152   23.9471 H   0  0  0  0  0  0  0  0  0  0  0  0
    8.4793    6.6882   26.0322 H   0  0  0  0  0  0  0  0  0  0  0  0
    9.7677    1.9473   25.9048 H   0  0  0  0  0  0  0  0  0  0  0  0
   12.4768    0.9419   23.2729 C   0  0  0  0  0  0  0  0  0  0  0  0
   13.7693    1.2728   23.0677 F   0  0  0  0  0  0  0  0  0  0  0  0
   12.1800    1.2669   24.5472 F   0  0  0  0  0  0  0  0  0  0  0  0
   12.3919   -0.3816   23.1570 F   0  0  0  0  0  0  0  0  0  0  0  0
   11.9319    1.3230   21.2948 H   0  0  0  0  0  0  0  0  0  0  0  0
   12.6253    3.5687   21.9116 H   0  0  0  0  0  0  0  0  0  0  0  0
   11.7666    3.4878   23.4657 H   0  0  0  0  0  0  0  0  0  0  0  0
   10.8537    3.7056   21.9610 H   0  0  0  0  0  0  0  0  0  0  0  0
  1  2  1  0
  2  3  1  0
  3  4  1  0
  4  5  2  0
  5  6  1  0
  6  7  1  0
  7  8  2  0
  8  9  1  0
  9 10  2  0
 10 11  1  0
 11 12  2  0
 12 13  1  0
 10 14  1  0
  9 15  1  0
  8 16  1  0
  6 17  1  0
  6 18  1  0
  5 19  1  0
 19 20  2  0
 20 21  1  0
 21 22  2  0
 22 23  1  0
 23 24  2  0
 24 25  1  0
 25 26  2  0
 26 27  1  0
 27 28  2  0
 28 29  1  0
 28 30  1  0
 27 31  1  0
 26 32  1  0
 25 33  1  0
 22 34  1  0
  2 35  1  0
 35 36  1  0
 35 37  1  0
 35 38  1  0
  2 39  1  0
  1 40  1  0
  1 41  1  0
  1 42  1  0
 20  3  1  0
 29 21  1  0
 12  7  1  0
 29 24  1  0
M  END
>  <cnnaffinity>  (1) 
-6.02344

>  <filename>  (1) 
[H]c1nc([H])c(C([H])([H])c2nc(-c3c([H])nc4c([H])c([H])c([H])c([H])n34)n(C([H])(C([H])([H])[H])C(F)(F)F)n2)c([H])c1[H]

$$$$
