
     RDKit          3D

 25 26  0  0  0  0  0  0  0  0999 V2000
    4.9256    1.8207   16.9706 H   0  0  0  0  0  0  0  0  0  0  0  0
    5.3797    1.3050   17.8188 C   0  0  0  0  0  0  0  0  0  0  0  0
    6.5368    0.6732   17.5662 N   0  0  0  0  0  0  0  0  0  0  0  0
    7.1383    0.0549   18.5897 C   0  0  0  0  0  0  0  0  0  0  0  0
    8.0955   -0.4151   18.3580 H   0  0  0  0  0  0  0  0  0  0  0  0
    6.6320   -0.0010   19.9033 C   0  0  0  0  0  0  0  0  0  0  0  0
    7.4283   -0.6653   21.0240 C   0  0  0  0  0  0  0  0  0  0  0  0
    7.8333   -1.6306   20.7104 H   0  0  0  0  0  0  0  0  0  0  0  0
    6.7739   -0.8794   21.8765 H   0  0  0  0  0  0  0  0  0  0  0  0
    8.6097    0.1840   21.4824 C   0  0  0  0  0  0  0  0  0  0  0  0
   10.1351   -0.3124   21.2028 S   0  0  0  0  0  0  0  0  0  0  0  0
    8.3203    1.4842   22.1383 C   0  0  0  0  0  0  0  0  0  0  0  0
    7.2176    1.6225   23.0090 C   0  0  0  0  0  0  0  0  0  0  0  0
    6.5424    0.7953   23.2378 H   0  0  0  0  0  0  0  0  0  0  0  0
    6.9271    2.7663   23.6431 N   0  0  0  0  0  0  0  0  0  0  0  0
    7.7213    3.8237   23.4547 C   0  0  0  0  0  0  0  0  0  0  0  0
    7.4936    4.7518   23.9757 H   0  0  0  0  0  0  0  0  0  0  0  0
    8.8460    3.7744   22.6264 C   0  0  0  0  0  0  0  0  0  0  0  0
    9.6272    4.8639   22.5607 F   0  0  0  0  0  0  0  0  0  0  0  0
    9.1534    2.6127   21.9353 C   0  0  0  0  0  0  0  0  0  0  0  0
   10.0161    2.5878   21.2668 H   0  0  0  0  0  0  0  0  0  0  0  0
    5.4166    0.6569   20.1337 C   0  0  0  0  0  0  0  0  0  0  0  0
    4.9864    0.6622   21.1355 H   0  0  0  0  0  0  0  0  0  0  0  0
    4.7784    1.3217   19.0787 C   0  0  0  0  0  0  0  0  0  0  0  0
    3.8484    1.8663   19.2179 H   0  0  0  0  0  0  0  0  0  0  0  0
  1  2  1  0
  2  3  2  0
  3  4  1  0
  4  5  1  0
  4  6  2  0
  6  7  1  0
  7  8  1  0
  7  9  1  0
  7 10  1  0
 10 11  2  0
 10 12  1  0
 12 13  2  0
 13 14  1  0
 13 15  1  0
 15 16  2  0
 16 17  1  0
 16 18  1  0
 18 19  1  0
 18 20  2  0
 20 21  1  0
  6 22  1  0
 22 23  1  0
 22 24  2  0
 24 25  1  0
 24  2  1  0
 20 12  1  0
M  END
>  <cnnaffinity>  (1) 
-4.52185

>  <filename>  (1) 
[H]c1nc([H])c(C([H])([H])C(=S)c2c([H])nc([H])c(F)c2[H])c([H])c1[H]

$$$$
