
     RDKit          3D

 39 42  0  0  0  0  0  0  0  0999 V2000
    5.1242    1.7302   17.1794 H   0  0  0  0  0  0  0  0  0  0  0  0
    5.5746    1.1428   17.9805 C   0  0  0  0  0  0  0  0  0  0  0  0
    6.7736    0.6056   17.7174 N   0  0  0  0  0  0  0  0  0  0  0  0
    7.3889   -0.0544   18.7097 C   0  0  0  0  0  0  0  0  0  0  0  0
    8.3536   -0.4950   18.4512 H   0  0  0  0  0  0  0  0  0  0  0  0
    6.8633   -0.2076   20.0076 C   0  0  0  0  0  0  0  0  0  0  0  0
    7.6441   -0.7982   21.2138 C   0  0  0  0  0  0  0  0  0  0  0  0
    6.8580   -1.9737   21.8021 C   0  0  0  0  0  0  0  0  0  0  0  0
    6.3479   -2.1056   22.9869 N   0  0  0  0  0  0  0  0  0  0  0  0
    5.6181   -3.2889   22.9330 C   0  0  0  0  0  0  0  0  0  0  0  0
    4.7911   -3.9232   23.8703 C   0  0  0  0  0  0  0  0  0  0  0  0
    4.6407   -3.4416   24.8325 H   0  0  0  0  0  0  0  0  0  0  0  0
    4.1884   -5.1283   23.5024 C   0  0  0  0  0  0  0  0  0  0  0  0
    3.5377   -5.6508   24.1991 H   0  0  0  0  0  0  0  0  0  0  0  0
    4.3700   -5.6672   22.2070 C   0  0  0  0  0  0  0  0  0  0  0  0
    3.8568   -6.5896   21.9409 H   0  0  0  0  0  0  0  0  0  0  0  0
    5.1928   -5.0415   21.2655 C   0  0  0  0  0  0  0  0  0  0  0  0
    5.3285   -5.4305   20.2607 H   0  0  0  0  0  0  0  0  0  0  0  0
    5.7870   -3.8510   21.6671 C   0  0  0  0  0  0  0  0  0  0  0  0
    6.5890   -3.0129   20.9490 O   0  0  0  0  0  0  0  0  0  0  0  0
    9.0808   -1.2292   20.7910 C   0  0  0  0  0  0  0  0  0  0  0  0
    9.5693   -0.3307   20.3742 H   0  0  0  0  0  0  0  0  0  0  0  0
    9.0227   -1.9729   19.9967 H   0  0  0  0  0  0  0  0  0  0  0  0
    9.9114   -1.7727   21.9564 C   0  0  0  0  0  0  0  0  0  0  0  0
   10.9187   -2.0215   21.5980 H   0  0  0  0  0  0  0  0  0  0  0  0
    9.4641   -2.7088   22.3273 H   0  0  0  0  0  0  0  0  0  0  0  0
   10.0281   -0.7364   23.0800 C   0  0  0  0  0  0  0  0  0  0  0  0
   10.5021   -1.1940   23.9607 H   0  0  0  0  0  0  0  0  0  0  0  0
   10.6971    0.0620   22.7251 H   0  0  0  0  0  0  0  0  0  0  0  0
    8.6829   -0.1225   23.4929 C   0  0  0  0  0  0  0  0  0  0  0  0
    8.1245   -0.8452   24.0963 H   0  0  0  0  0  0  0  0  0  0  0  0
    8.8616    0.7528   24.1276 H   0  0  0  0  0  0  0  0  0  0  0  0
    7.7948    0.3053   22.3110 C   0  0  0  0  0  0  0  0  0  0  0  0
    8.1976    1.2009   21.8179 H   0  0  0  0  0  0  0  0  0  0  0  0
    6.8035    0.5883   22.6926 H   0  0  0  0  0  0  0  0  0  0  0  0
    5.5581    0.2631   20.2193 C   0  0  0  0  0  0  0  0  0  0  0  0
    5.0603    0.0714   21.1740 H   0  0  0  0  0  0  0  0  0  0  0  0
    4.9163    0.9789   19.2044 C   0  0  0  0  0  0  0  0  0  0  0  0
    3.9456    1.4376   19.3598 H   0  0  0  0  0  0  0  0  0  0  0  0
  1  2  1  0
  2  3  2  0
  3  4  1  0
  4  5  1  0
  4  6  2  0
  6  7  1  0
  7  8  1  0
  8  9  2  0
  9 10  1  0
 10 11  2  0
 11 12  1  0
 11 13  1  0
 13 14  1  0
 13 15  2  0
 15 16  1  0
 15 17  1  0
 17 18  1  0
 17 19  2  0
 19 20  1  0
  7 21  1  0
 21 22  1  0
 21 23  1  0
 21 24  1  0
 24 25  1  0
 24 26  1  0
 24 27  1  0
 27 28  1  0
 27 29  1  0
 27 30  1  0
 30 31  1  0
 30 32  1  0
 30 33  1  0
 33 34  1  0
 33 35  1  0
  6 36  1  0
 36 37  1  0
 36 38  2  0
 38 39  1  0
 38  2  1  0
 33  7  1  0
 20  8  1  0
 19 10  1  0
M  END
>  <cnnaffinity>  (1) 
-5.23935

>  <filename>  (1) 
[H]c1nc([H])c(C2(c3nc4c([H])c([H])c([H])c([H])c4o3)C([H])([H])C([H])([H])C([H])([H])C([H])([H])C2([H])[H])c([H])c1[H]

$$$$
