
     RDKit          3D

 33 36  0  0  0  0  0  0  0  0999 V2000
    4.9095    1.8174   16.9867 H   0  0  0  0  0  0  0  0  0  0  0  0
    5.4136    1.3109   17.8060 C   0  0  0  0  0  0  0  0  0  0  0  0
    6.5721    0.7085   17.4962 N   0  0  0  0  0  0  0  0  0  0  0  0
    7.2246    0.0744   18.4831 C   0  0  0  0  0  0  0  0  0  0  0  0
    8.1409   -0.4416   18.2023 H   0  0  0  0  0  0  0  0  0  0  0  0
    6.7664    0.0019   19.8227 C   0  0  0  0  0  0  0  0  0  0  0  0
    7.4622   -0.6617   20.8503 N   0  0  0  0  0  0  0  0  0  0  0  0
    7.0051   -1.4349   21.3323 H   0  0  0  0  0  0  0  0  0  0  0  0
    8.8374   -0.5994   21.0638 C   0  0  0  0  0  0  0  0  0  0  0  0
    9.7561    0.4553   20.8531 C   0  0  0  0  0  0  0  0  0  0  0  0
    9.5440    1.4496   20.4890 H   0  0  0  0  0  0  0  0  0  0  0  0
   10.9849    0.1010   21.2149 N   0  0  0  0  0  0  0  0  0  0  0  0
   10.8716   -1.1426   21.6986 N   0  0  0  0  0  0  0  0  0  0  0  0
   11.7355   -1.6252   21.9247 H   0  0  0  0  0  0  0  0  0  0  0  0
    9.5864   -1.6126   21.6493 C   0  0  0  0  0  0  0  0  0  0  0  0
    9.0382   -2.7994   22.2851 C   0  0  0  0  0  0  0  0  0  0  0  0
    7.7837   -3.1805   22.1920 N   0  0  0  0  0  0  0  0  0  0  0  0
    7.6270   -4.1985   23.1117 C   0  0  0  0  0  0  0  0  0  0  0  0
    6.4614   -4.8803   23.5256 C   0  0  0  0  0  0  0  0  0  0  0  0
    5.5124   -4.6683   23.0389 H   0  0  0  0  0  0  0  0  0  0  0  0
    6.5608   -5.7741   24.5920 C   0  0  0  0  0  0  0  0  0  0  0  0
    5.6662   -6.2775   24.9572 H   0  0  0  0  0  0  0  0  0  0  0  0
    7.8068   -6.0205   25.2248 C   0  0  0  0  0  0  0  0  0  0  0  0
    7.8703   -6.7556   26.0290 H   0  0  0  0  0  0  0  0  0  0  0  0
    8.9652   -5.3625   24.8182 C   0  0  0  0  0  0  0  0  0  0  0  0
    9.9096   -5.5393   25.3238 H   0  0  0  0  0  0  0  0  0  0  0  0
    8.8553   -4.4513   23.7580 C   0  0  0  0  0  0  0  0  0  0  0  0
    9.7399   -3.5641   23.1819 N   0  0  0  0  0  0  0  0  0  0  0  0
   10.6962   -3.4282   23.4568 H   0  0  0  0  0  0  0  0  0  0  0  0
    5.5357    0.6113   20.1124 C   0  0  0  0  0  0  0  0  0  0  0  0
    5.1479    0.5617   21.1318 H   0  0  0  0  0  0  0  0  0  0  0  0
    4.8532    1.2826   19.0904 C   0  0  0  0  0  0  0  0  0  0  0  0
    3.9004    1.7732   19.2705 H   0  0  0  0  0  0  0  0  0  0  0  0
  1  2  1  0
  2  3  2  0
  3  4  1  0
  4  5  1  0
  4  6  2  0
  6  7  1  0
  7  8  1  0
  7  9  1  0
  9 10  1  0
 10 11  1  0
 10 12  2  0
 12 13  1  0
 13 14  1  0
 13 15  1  0
 15 16  1  0
 16 17  2  0
 17 18  1  0
 18 19  2  0
 19 20  1  0
 19 21  1  0
 21 22  1  0
 21 23  2  0
 23 24  1  0
 23 25  1  0
 25 26  1  0
 25 27  2  0
 27 28  1  0
 28 29  1  0
  6 30  1  0
 30 31  1  0
 30 32  2  0
 32 33  1  0
 32  2  1  0
 15  9  2  0
 28 16  1  0
 27 18  1  0
M  END
>  <cnnaffinity>  (1) 
-6.00481

>  <filename>  (1) 
[H]c1nc([H])c(N([H])c2c([H])nn([H])c2-c2nc3c([H])c([H])c([H])c([H])c3n2[H])c([H])c1[H]

$$$$
