
     RDKit          3D

 48 51  0  0  0  0  0  0  0  0999 V2000
    4.7872    1.2855   19.0638 C   0  0  0  0  0  0  0  0  0  0  0  0
    5.4466    1.2872   17.8305 C   0  0  0  0  0  0  0  0  0  0  0  0
    6.6133    0.6593   17.6104 N   0  0  0  0  0  0  0  0  0  0  0  0
    7.1680    0.0255   18.6498 C   0  0  0  0  0  0  0  0  0  0  0  0
    6.6145   -0.0304   19.9408 C   0  0  0  0  0  0  0  0  0  0  0  0
    7.3447   -0.7331   21.0646 C   0  0  0  0  0  0  0  0  0  0  0  0
    7.0045   -2.1827   21.3008 C   0  0  0  0  0  0  0  0  0  0  0  0
    7.9340   -3.0992   21.3980 N   0  0  0  0  0  0  0  0  0  0  0  0
    7.2384   -4.2494   21.6976 O   0  0  0  0  0  0  0  0  0  0  0  0
    5.9457   -3.9159   21.7896 C   0  0  0  0  0  0  0  0  0  0  0  0
    5.0124   -4.9690   22.3158 C   0  0  0  0  0  0  0  0  0  0  0  0
    5.6250   -5.7339   23.5131 C   0  0  0  0  0  0  0  0  0  0  0  0
    5.9703   -4.7797   24.6552 C   0  0  0  0  0  0  0  0  0  0  0  0
    6.7978   -5.3251   25.8202 C   0  0  0  0  0  0  0  0  0  0  0  0
    6.0896   -6.3791   26.6948 C   0  0  0  0  0  0  0  0  0  0  0  0
    6.9143   -6.7291   27.9459 C   0  0  0  0  0  0  0  0  0  0  0  0
    7.2235   -5.4856   28.7768 C   0  0  0  0  0  0  0  0  0  0  0  0
    8.0445   -4.5364   27.8936 C   0  0  0  0  0  0  0  0  0  0  0  0
    7.2591   -4.1230   26.6585 C   0  0  0  0  0  0  0  0  0  0  0  0
    6.3828   -3.5372   26.9791 H   0  0  0  0  0  0  0  0  0  0  0  0
    7.8570   -3.4440   26.0330 H   0  0  0  0  0  0  0  0  0  0  0  0
    8.9804   -5.0206   27.5812 H   0  0  0  0  0  0  0  0  0  0  0  0
    8.3291   -3.6239   28.3826 H   0  0  0  0  0  0  0  0  0  0  0  0
    7.7592   -5.7998   29.6788 H   0  0  0  0  0  0  0  0  0  0  0  0
    6.2886   -4.9882   29.0784 H   0  0  0  0  0  0  0  0  0  0  0  0
    6.4307   -7.5145   28.5373 H   0  0  0  0  0  0  0  0  0  0  0  0
    7.9060   -7.1021   27.6600 H   0  0  0  0  0  0  0  0  0  0  0  0
    5.1241   -5.9776   27.0390 H   0  0  0  0  0  0  0  0  0  0  0  0
    5.8536   -7.2803   26.1115 H   0  0  0  0  0  0  0  0  0  0  0  0
    7.7093   -5.8029   25.4204 H   0  0  0  0  0  0  0  0  0  0  0  0
    5.0503   -4.3270   25.0512 H   0  0  0  0  0  0  0  0  0  0  0  0
    6.5332   -3.9379   24.2329 H   0  0  0  0  0  0  0  0  0  0  0  0
    6.5372   -6.2468   23.1860 H   0  0  0  0  0  0  0  0  0  0  0  0
    4.9364   -6.5190   23.8459 H   0  0  0  0  0  0  0  0  0  0  0  0
    4.0871   -4.4562   22.6004 H   0  0  0  0  0  0  0  0  0  0  0  0
    4.7484   -5.6535   21.5020 H   0  0  0  0  0  0  0  0  0  0  0  0
    5.7199   -2.6728   21.4845 N   0  0  0  0  0  0  0  0  0  0  0  0
    7.7279    0.1256   22.2766 C   0  0  0  0  0  0  0  0  0  0  0  0
    8.7828   -0.3029   21.3064 C   0  0  0  0  0  0  0  0  0  0  0  0
    9.2021    0.4468   20.6393 H   0  0  0  0  0  0  0  0  0  0  0  0
    9.4909   -1.0693   21.6162 H   0  0  0  0  0  0  0  0  0  0  0  0
    7.7140   -0.3264   23.2656 H   0  0  0  0  0  0  0  0  0  0  0  0
    7.4077    1.1669   22.2517 H   0  0  0  0  0  0  0  0  0  0  0  0
    5.3813    0.6127   20.1356 C   0  0  0  0  0  0  0  0  0  0  0  0
    4.9236    0.6039   21.1255 H   0  0  0  0  0  0  0  0  0  0  0  0
    8.1201   -0.4756   18.4634 H   0  0  0  0  0  0  0  0  0  0  0  0
    5.0166    1.7930   16.9709 H   0  0  0  0  0  0  0  0  0  0  0  0
    3.8501    1.8271   19.1693 H   0  0  0  0  0  0  0  0  0  0  0  0
  1  2  2  0
  2  3  1  0
  3  4  2  0
  4  5  1  0
  5  6  1  0
  6  7  1  0
  7  8  2  0
  8  9  1  0
  9 10  1  0
 10 11  1  0
 11 12  1  0
 12 13  1  0
 13 14  1  0
 14 15  1  0
 15 16  1  0
 16 17  1  0
 17 18  1  0
 18 19  1  0
 19 20  1  0
 19 21  1  0
 18 22  1  0
 18 23  1  0
 17 24  1  0
 17 25  1  0
 16 26  1  0
 16 27  1  0
 15 28  1  0
 15 29  1  0
 14 30  1  0
 13 31  1  0
 13 32  1  0
 12 33  1  0
 12 34  1  0
 11 35  1  0
 11 36  1  0
 10 37  2  0
  6 38  1  0
 38 39  1  0
 39 40  1  0
 39 41  1  0
 38 42  1  0
 38 43  1  0
  5 44  2  0
 44 45  1  0
  4 46  1  0
  2 47  1  0
  1 48  1  0
 44  1  1  0
 39  6  1  0
 37  7  1  0
 19 14  1  0
M  END
>  <cnnaffinity>  (1) 
-5.68005

>  <filename>  (1) 
[H]c1nc([H])c(C2(c3noc(C([H])([H])C([H])([H])C([H])([H])C4([H])C([H])([H])C([H])([H])C([H])([H])C([H])([H])C4([H])[H])n3)C([H])([H])C2([H])[H])c([H])c1[H]

$$$$
