
     RDKit          3D

 37 39  0  0  0  0  0  0  0  0999 V2000
    4.9651    1.7708   17.0338 H   0  0  0  0  0  0  0  0  0  0  0  0
    5.4424    1.2672   17.8718 C   0  0  0  0  0  0  0  0  0  0  0  0
    6.6122    0.6593   17.6116 N   0  0  0  0  0  0  0  0  0  0  0  0
    7.2328    0.0410   18.6240 C   0  0  0  0  0  0  0  0  0  0  0  0
    8.1842   -0.4379   18.3888 H   0  0  0  0  0  0  0  0  0  0  0  0
    6.7163   -0.0363   19.9412 C   0  0  0  0  0  0  0  0  0  0  0  0
    7.4140   -0.6910   20.9873 N   0  0  0  0  0  0  0  0  0  0  0  0
    6.8460   -1.5852   21.9013 C   0  0  0  0  0  0  0  0  0  0  0  0
    5.7855   -2.1584   21.8024 O   0  0  0  0  0  0  0  0  0  0  0  0
    7.7824   -1.7342   22.9139 N   0  0  0  0  0  0  0  0  0  0  0  0
    7.5283   -2.3228   24.1696 C   0  0  0  0  0  0  0  0  0  0  0  0
    6.3509   -2.0350   24.8836 C   0  0  0  0  0  0  0  0  0  0  0  0
    5.6123   -1.3642   24.4566 H   0  0  0  0  0  0  0  0  0  0  0  0
    6.1588   -2.6005   26.1485 C   0  0  0  0  0  0  0  0  0  0  0  0
    5.2591   -2.3689   26.7135 H   0  0  0  0  0  0  0  0  0  0  0  0
    7.1037   -3.4683   26.7025 C   0  0  0  0  0  0  0  0  0  0  0  0
    6.9351   -3.8964   27.6884 H   0  0  0  0  0  0  0  0  0  0  0  0
    8.2725   -3.7618   25.9841 C   0  0  0  0  0  0  0  0  0  0  0  0
    9.5014   -4.8969   26.6570 S   0  0  0  0  0  0  0  0  0  0  0  0
   10.8041   -4.5746   26.0930 O   0  0  0  0  0  0  0  0  0  0  0  0
    9.2915   -5.0406   28.0899 O   0  0  0  0  0  0  0  0  0  0  0  0
    9.0538   -6.4454   25.9609 C   0  0  0  0  0  0  0  0  0  0  0  0
    8.1385   -6.7971   26.4221 H   0  0  0  0  0  0  0  0  0  0  0  0
    8.9537   -6.3399   24.8825 H   0  0  0  0  0  0  0  0  0  0  0  0
    9.8940   -7.0784   26.2220 H   0  0  0  0  0  0  0  0  0  0  0  0
    8.4991   -3.1678   24.7319 C   0  0  0  0  0  0  0  0  0  0  0  0
    9.4289   -3.3162   24.1855 H   0  0  0  0  0  0  0  0  0  0  0  0
    9.1118   -1.3648   22.4654 C   0  0  0  0  0  0  0  0  0  0  0  0
    9.6078   -0.7371   23.2112 H   0  0  0  0  0  0  0  0  0  0  0  0
    9.7353   -2.2545   22.3035 H   0  0  0  0  0  0  0  0  0  0  0  0
    8.8612   -0.6380   21.1381 C   0  0  0  0  0  0  0  0  0  0  0  0
    9.2317    0.3924   21.1512 H   0  0  0  0  0  0  0  0  0  0  0  0
    9.3552   -1.1630   20.3108 H   0  0  0  0  0  0  0  0  0  0  0  0
    5.4824    0.5938   20.1897 C   0  0  0  0  0  0  0  0  0  0  0  0
    5.0464    0.5533   21.1870 H   0  0  0  0  0  0  0  0  0  0  0  0
    4.8475    1.2669   19.1388 C   0  0  0  0  0  0  0  0  0  0  0  0
    3.9070    1.7921   19.2873 H   0  0  0  0  0  0  0  0  0  0  0  0
  1  2  1  0
  2  3  2  0
  3  4  1  0
  4  5  1  0
  4  6  2  0
  6  7  1  0
  7  8  1  0
  8  9  2  0
  8 10  1  0
 10 11  1  0
 11 12  2  0
 12 13  1  0
 12 14  1  0
 14 15  1  0
 14 16  2  0
 16 17  1  0
 16 18  1  0
 18 19  1  0
 19 20  2  0
 19 21  2  0
 19 22  1  0
 22 23  1  0
 22 24  1  0
 22 25  1  0
 18 26  2  0
 26 27  1  0
 10 28  1  0
 28 29  1  0
 28 30  1  0
 28 31  1  0
 31 32  1  0
 31 33  1  0
  6 34  1  0
 34 35  1  0
 34 36  2  0
 36 37  1  0
 36  2  1  0
 31  7  1  0
 26 11  1  0
M  END
>  <cnnaffinity>  (1) 
-5.35841

>  <filename>  (1) 
[H]c1nc([H])c(N2C(=O)N(c3c([H])c([H])c([H])c(S(=O)(=O)C([H])([H])[H])c3[H])C([H])([H])C2([H])[H])c([H])c1[H]

$$$$
