
     RDKit          3D

 37 39  0  0  0  0  0  0  0  0999 V2000
    4.9608    1.7895   16.9846 H   0  0  0  0  0  0  0  0  0  0  0  0
    5.4119    1.2859   17.8328 C   0  0  0  0  0  0  0  0  0  0  0  0
    6.5775    0.6630   17.5978 N   0  0  0  0  0  0  0  0  0  0  0  0
    7.1796    0.0629   18.6281 C   0  0  0  0  0  0  0  0  0  0  0  0
    8.1296   -0.4314   18.4155 H   0  0  0  0  0  0  0  0  0  0  0  0
    6.6523    0.0628   19.9330 C   0  0  0  0  0  0  0  0  0  0  0  0
    7.3397   -0.6183   20.9737 N   0  0  0  0  0  0  0  0  0  0  0  0
    7.7497   -1.9332   20.8848 C   0  0  0  0  0  0  0  0  0  0  0  0
    7.3759   -2.5147   20.0642 H   0  0  0  0  0  0  0  0  0  0  0  0
    8.3867   -2.2907   22.0427 C   0  0  0  0  0  0  0  0  0  0  0  0
    8.8335   -3.2535   22.2688 H   0  0  0  0  0  0  0  0  0  0  0  0
    8.3077   -1.1696   22.9157 C   0  0  0  0  0  0  0  0  0  0  0  0
    8.6163   -1.0780   23.9472 H   0  0  0  0  0  0  0  0  0  0  0  0
    7.6358   -0.1708   22.2496 C   0  0  0  0  0  0  0  0  0  0  0  0
    7.1333    1.0246   22.7144 N   0  0  0  0  0  0  0  0  0  0  0  0
    7.2195    1.7633   22.0275 H   0  0  0  0  0  0  0  0  0  0  0  0
    7.3821    1.4396   24.0798 C   0  0  0  0  0  0  0  0  0  0  0  0
    7.1995    0.5820   24.7499 H   0  0  0  0  0  0  0  0  0  0  0  0
    6.3801    2.5321   24.4436 C   0  0  0  0  0  0  0  0  0  0  0  0
    5.3707    2.1494   24.2614 H   0  0  0  0  0  0  0  0  0  0  0  0
    6.5321    3.3680   23.7467 H   0  0  0  0  0  0  0  0  0  0  0  0
    6.5658    3.0087   25.8882 C   0  0  0  0  0  0  0  0  0  0  0  0
    6.3181    2.1800   26.5672 H   0  0  0  0  0  0  0  0  0  0  0  0
    5.8559    3.8088   26.1169 H   0  0  0  0  0  0  0  0  0  0  0  0
    8.0162    3.4572   26.1415 C   0  0  0  0  0  0  0  0  0  0  0  0
    8.1484    3.7506   27.1895 H   0  0  0  0  0  0  0  0  0  0  0  0
    8.2250    4.3540   25.5388 H   0  0  0  0  0  0  0  0  0  0  0  0
    9.0099    2.3468   25.7555 C   0  0  0  0  0  0  0  0  0  0  0  0
    8.8690    1.4887   26.4254 H   0  0  0  0  0  0  0  0  0  0  0  0
   10.0415    2.6428   25.8894 H   0  0  0  0  0  0  0  0  0  0  0  0
    8.8231    1.9012   24.3052 C   0  0  0  0  0  0  0  0  0  0  0  0
    9.5121    1.0912   24.0316 H   0  0  0  0  0  0  0  0  0  0  0  0
    9.0482    2.7405   23.6298 H   0  0  0  0  0  0  0  0  0  0  0  0
    5.4208    0.6944   20.1655 C   0  0  0  0  0  0  0  0  0  0  0  0
    4.9762    0.6690   21.1615 H   0  0  0  0  0  0  0  0  0  0  0  0
    4.7935    1.3163   19.0874 C   0  0  0  0  0  0  0  0  0  0  0  0
    3.8513    1.8348   19.2166 H   0  0  0  0  0  0  0  0  0  0  0  0
  1  2  1  0
  2  3  2  0
  3  4  1  0
  4  5  1  0
  4  6  2  0
  6  7  1  0
  7  8  1  0
  8  9  1  0
  8 10  2  0
 10 11  1  0
 10 12  1  0
 12 13  1  0
 12 14  2  0
 14 15  1  0
 15 16  1  0
 15 17  1  0
 17 18  1  0
 17 19  1  0
 19 20  1  0
 19 21  1  0
 19 22  1  0
 22 23  1  0
 22 24  1  0
 22 25  1  0
 25 26  1  0
 25 27  1  0
 25 28  1  0
 28 29  1  0
 28 30  1  0
 28 31  1  0
 31 32  1  0
 31 33  1  0
  6 34  1  0
 34 35  1  0
 34 36  2  0
 36 37  1  0
 36  2  1  0
 14  7  1  0
 31 17  1  0
M  END
>  <cnnaffinity>  (1) 
-4.70458

>  <filename>  (1) 
[H]c1nc([H])c(-n2c([H])c([H])c([H])c2N([H])C2([H])C([H])([H])C([H])([H])C([H])([H])C([H])([H])C2([H])[H])c([H])c1[H]

$$$$
