
     RDKit          3D

 32 34  0  0  0  0  0  0  0  0999 V2000
    4.9126    1.8106   16.9695 H   0  0  0  0  0  0  0  0  0  0  0  0
    5.3764    1.3090   17.8203 C   0  0  0  0  0  0  0  0  0  0  0  0
    6.5389    0.6874   17.5682 N   0  0  0  0  0  0  0  0  0  0  0  0
    7.1468    0.0697   18.5889 C   0  0  0  0  0  0  0  0  0  0  0  0
    8.0960   -0.4085   18.3502 H   0  0  0  0  0  0  0  0  0  0  0  0
    6.6522    0.0340   19.9055 C   0  0  0  0  0  0  0  0  0  0  0  0
    7.3767   -0.7221   20.9405 C   0  0  0  0  0  0  0  0  0  0  0  0
    7.6728   -2.0562   20.9204 C   0  0  0  0  0  0  0  0  0  0  0  0
    7.2431   -2.7003   20.1690 H   0  0  0  0  0  0  0  0  0  0  0  0
    8.4446   -2.3561   22.0744 C   0  0  0  0  0  0  0  0  0  0  0  0
    8.8928   -3.3077   22.3323 H   0  0  0  0  0  0  0  0  0  0  0  0
    8.5456   -1.1856   22.7881 C   0  0  0  0  0  0  0  0  0  0  0  0
    8.9829   -0.9502   23.7527 H   0  0  0  0  0  0  0  0  0  0  0  0
    7.8831   -0.1891   22.1077 N   0  0  0  0  0  0  0  0  0  0  0  0
    7.8479    1.2235   22.4908 C   0  0  0  0  0  0  0  0  0  0  0  0
    8.7964    1.6941   22.2053 H   0  0  0  0  0  0  0  0  0  0  0  0
    7.0570    1.7025   21.9099 H   0  0  0  0  0  0  0  0  0  0  0  0
    7.5871    1.4176   23.9695 C   0  0  0  0  0  0  0  0  0  0  0  0
    6.3214    1.2459   24.5471 C   0  0  0  0  0  0  0  0  0  0  0  0
    5.2698    0.9779   23.7436 F   0  0  0  0  0  0  0  0  0  0  0  0
    6.0884    1.3441   25.9195 C   0  0  0  0  0  0  0  0  0  0  0  0
    5.0755    1.1985   26.2773 H   0  0  0  0  0  0  0  0  0  0  0  0
    7.1633    1.6309   26.7709 C   0  0  0  0  0  0  0  0  0  0  0  0
    7.0088    1.7238   27.8472 H   0  0  0  0  0  0  0  0  0  0  0  0
    8.4427    1.8060   26.2344 C   0  0  0  0  0  0  0  0  0  0  0  0
    9.3165    2.0283   26.8215 H   0  0  0  0  0  0  0  0  0  0  0  0
    8.6290    1.6887   24.8627 C   0  0  0  0  0  0  0  0  0  0  0  0
    9.8819    1.8334   24.3831 F   0  0  0  0  0  0  0  0  0  0  0  0
    5.4275    0.6770   20.1414 C   0  0  0  0  0  0  0  0  0  0  0  0
    5.0028    0.6512   21.1441 H   0  0  0  0  0  0  0  0  0  0  0  0
    4.7819    1.3259   19.0852 C   0  0  0  0  0  0  0  0  0  0  0  0
    3.8506    1.8571   19.2294 H   0  0  0  0  0  0  0  0  0  0  0  0
  1  2  1  0
  2  3  2  0
  3  4  1  0
  4  5  1  0
  4  6  2  0
  6  7  1  0
  7  8  2  0
  8  9  1  0
  8 10  1  0
 10 11  1  0
 10 12  2  0
 12 13  1  0
 12 14  1  0
 14 15  1  0
 15 16  1  0
 15 17  1  0
 15 18  1  0
 18 19  2  0
 19 20  1  0
 19 21  1  0
 21 22  1  0
 21 23  2  0
 23 24  1  0
 23 25  1  0
 25 26  1  0
 25 27  2  0
 27 28  1  0
  6 29  1  0
 29 30  1  0
 29 31  2  0
 31 32  1  0
 31  2  1  0
 14  7  1  0
 27 18  1  0
M  END
>  <cnnaffinity>  (1) 
-4.87337

>  <filename>  (1) 
[H]c1nc([H])c(-c2c([H])c([H])c([H])n2C([H])([H])c2c(F)c([H])c([H])c([H])c2F)c([H])c1[H]

$$$$
