
     RDKit          3D

 43 45  0  0  0  0  0  0  0  0999 V2000
    7.5578   -5.2395   23.1384 C   0  0  0  0  0  0  0  0  0  0  0  0
    8.0605   -4.0893   23.7897 O   0  0  0  0  0  0  0  0  0  0  0  0
    7.1272   -3.2473   24.4617 C   0  0  0  0  0  0  0  0  0  0  0  0
    6.9576   -3.6302   25.9404 C   0  0  0  0  0  0  0  0  0  0  0  0
    8.2010   -3.3516   26.8023 C   0  0  0  0  0  0  0  0  0  0  0  0
    8.6625   -1.8951   26.6625 C   0  0  0  0  0  0  0  0  0  0  0  0
    8.9474   -1.5732   25.1893 C   0  0  0  0  0  0  0  0  0  0  0  0
    7.6716   -1.8038   24.3450 C   0  0  0  0  0  0  0  0  0  0  0  0
    7.7707   -1.4175   22.9022 C   0  0  0  0  0  0  0  0  0  0  0  0
    6.8019   -0.8012   22.2596 N   0  0  0  0  0  0  0  0  0  0  0  0
    7.2904   -0.6484   21.0086 C   0  0  0  0  0  0  0  0  0  0  0  0
    6.5735    0.0147   19.9346 C   0  0  0  0  0  0  0  0  0  0  0  0
    5.3576    0.6829   20.1333 C   0  0  0  0  0  0  0  0  0  0  0  0
    4.7894    1.3266   19.0372 C   0  0  0  0  0  0  0  0  0  0  0  0
    5.4521    1.2824   17.8051 C   0  0  0  0  0  0  0  0  0  0  0  0
    6.6101    0.6340   17.6082 N   0  0  0  0  0  0  0  0  0  0  0  0
    7.1539    0.0190   18.6599 C   0  0  0  0  0  0  0  0  0  0  0  0
    8.0986   -0.4958   18.4930 H   0  0  0  0  0  0  0  0  0  0  0  0
    5.0379    1.7873   16.9348 H   0  0  0  0  0  0  0  0  0  0  0  0
    3.8615    1.8808   19.1288 H   0  0  0  0  0  0  0  0  0  0  0  0
    4.8953    0.7039   21.1216 H   0  0  0  0  0  0  0  0  0  0  0  0
    8.4956   -1.1501   20.8329 N   0  0  0  0  0  0  0  0  0  0  0  0
    8.8039   -1.6563   22.0452 N   0  0  0  0  0  0  0  0  0  0  0  0
   10.0493   -2.3932   22.0835 C   0  0  0  0  0  0  0  0  0  0  0  0
   11.2808   -1.5127   22.2036 C   0  0  0  0  0  0  0  0  0  0  0  0
   11.4723   -0.7089   21.1544 F   0  0  0  0  0  0  0  0  0  0  0  0
   12.3697   -2.2983   22.3129 F   0  0  0  0  0  0  0  0  0  0  0  0
   11.2355   -0.7310   23.2970 F   0  0  0  0  0  0  0  0  0  0  0  0
   10.0513   -3.1294   22.8819 H   0  0  0  0  0  0  0  0  0  0  0  0
   10.1179   -2.8690   21.1061 H   0  0  0  0  0  0  0  0  0  0  0  0
    6.8849   -1.1486   24.7465 H   0  0  0  0  0  0  0  0  0  0  0  0
    9.2936   -0.5405   25.0705 H   0  0  0  0  0  0  0  0  0  0  0  0
    9.7539   -2.2336   24.8435 H   0  0  0  0  0  0  0  0  0  0  0  0
    9.5560   -1.7133   27.2702 H   0  0  0  0  0  0  0  0  0  0  0  0
    7.8835   -1.2177   27.0483 H   0  0  0  0  0  0  0  0  0  0  0  0
    7.9808   -3.5891   27.8478 H   0  0  0  0  0  0  0  0  0  0  0  0
    9.0188   -4.0146   26.4865 H   0  0  0  0  0  0  0  0  0  0  0  0
    6.1185   -3.0353   26.3298 H   0  0  0  0  0  0  0  0  0  0  0  0
    6.6603   -4.6832   26.0155 H   0  0  0  0  0  0  0  0  0  0  0  0
    6.1442   -3.2936   23.9613 H   0  0  0  0  0  0  0  0  0  0  0  0
    6.8560   -5.8095   23.7665 H   0  0  0  0  0  0  0  0  0  0  0  0
    8.4278   -5.8729   22.9311 H   0  0  0  0  0  0  0  0  0  0  0  0
    7.0595   -4.9911   22.1858 H   0  0  0  0  0  0  0  0  0  0  0  0
  1  2  1  0
  2  3  1  0
  3  4  1  0
  4  5  1  0
  5  6  1  0
  6  7  1  0
  7  8  1  0
  8  9  1  0
  9 10  2  0
 10 11  1  0
 11 12  1  0
 12 13  2  0
 13 14  1  0
 14 15  2  0
 15 16  1  0
 16 17  2  0
 17 18  1  0
 15 19  1  0
 14 20  1  0
 13 21  1  0
 11 22  2  0
 22 23  1  0
 23 24  1  0
 24 25  1  0
 25 26  1  0
 25 27  1  0
 25 28  1  0
 24 29  1  0
 24 30  1  0
  8 31  1  0
  7 32  1  0
  7 33  1  0
  6 34  1  0
  6 35  1  0
  5 36  1  0
  5 37  1  0
  4 38  1  0
  4 39  1  0
  3 40  1  0
  1 41  1  0
  1 42  1  0
  1 43  1  0
  8  3  1  0
 23  9  1  0
 17 12  1  0
M  END
>  <cnnaffinity>  (1) 
-6.04314

>  <filename>  (1) 
[H]c1nc([H])c(-c2nc(C3([H])C([H])([H])C([H])([H])C([H])([H])C([H])([H])C3([H])OC([H])([H])[H])n(C([H])([H])C(F)(F)F)n2)c([H])c1[H]

$$$$
