
     RDKit          3D

 42 45  0  0  0  0  0  0  0  0999 V2000
   13.2065    0.2178   24.7001 F   0  0  0  0  0  0  0  0  0  0  0  0
   12.1614    0.8208   24.1028 C   0  0  0  0  0  0  0  0  0  0  0  0
   11.0604    0.1226   24.4368 F   0  0  0  0  0  0  0  0  0  0  0  0
   12.0351    2.0391   24.6587 F   0  0  0  0  0  0  0  0  0  0  0  0
   12.3862    0.8910   22.6032 C   0  0  0  0  0  0  0  0  0  0  0  0
   11.4797    1.8703   21.8488 C   0  0  0  0  0  0  0  0  0  0  0  0
   10.0618    1.5248   21.9185 N   0  0  0  0  0  0  0  0  0  0  0  0
    9.5875    0.5787   21.0674 N   0  0  0  0  0  0  0  0  0  0  0  0
    8.4009    0.2899   21.5673 C   0  0  0  0  0  0  0  0  0  0  0  0
    7.4564   -0.6792   20.9169 C   0  0  0  0  0  0  0  0  0  0  0  0
    6.6488   -0.0420   19.7939 C   0  0  0  0  0  0  0  0  0  0  0  0
    5.4494    0.6276   20.0657 C   0  0  0  0  0  0  0  0  0  0  0  0
    4.8087    1.3130   19.0311 C   0  0  0  0  0  0  0  0  0  0  0  0
    5.3926    1.3009   17.7605 C   0  0  0  0  0  0  0  0  0  0  0  0
    6.5324    0.6546   17.4724 N   0  0  0  0  0  0  0  0  0  0  0  0
    7.1339    0.0050   18.4760 C   0  0  0  0  0  0  0  0  0  0  0  0
    8.0632   -0.5110   18.2303 H   0  0  0  0  0  0  0  0  0  0  0  0
    4.9256    1.8301   16.9326 H   0  0  0  0  0  0  0  0  0  0  0  0
    3.8869    1.8607   19.1976 H   0  0  0  0  0  0  0  0  0  0  0  0
    5.0300    0.6090   21.0752 H   0  0  0  0  0  0  0  0  0  0  0  0
    8.0368   -1.5307   20.5450 H   0  0  0  0  0  0  0  0  0  0  0  0
    6.7871   -1.0493   21.7010 H   0  0  0  0  0  0  0  0  0  0  0  0
    8.0848    0.9664   22.6959 N   0  0  0  0  0  0  0  0  0  0  0  0
    9.1337    1.7563   22.8811 C   0  0  0  0  0  0  0  0  0  0  0  0
    9.2105    2.8186   23.9012 C   0  0  0  0  0  0  0  0  0  0  0  0
    9.7150    4.1138   23.5951 C   0  0  0  0  0  0  0  0  0  0  0  0
    9.7229    5.1455   24.5154 C   0  0  0  0  0  0  0  0  0  0  0  0
    9.1459    4.8915   25.7850 C   0  0  0  0  0  0  0  0  0  0  0  0
    8.8811    5.6652   26.8732 N   0  0  0  0  0  0  0  0  0  0  0  0
    8.1813    5.0138   27.8307 N   0  0  0  0  0  0  0  0  0  0  0  0
    8.0089    3.7892   27.3686 C   0  0  0  0  0  0  0  0  0  0  0  0
    8.6112    3.6242   26.0920 C   0  0  0  0  0  0  0  0  0  0  0  0
    8.7039    2.5670   25.1652 C   0  0  0  0  0  0  0  0  0  0  0  0
    8.3782    1.5643   25.4154 H   0  0  0  0  0  0  0  0  0  0  0  0
    7.4692    3.0411   27.9361 H   0  0  0  0  0  0  0  0  0  0  0  0
    9.1455    6.6252   27.0210 H   0  0  0  0  0  0  0  0  0  0  0  0
   10.1270    6.1069   24.2313 H   0  0  0  0  0  0  0  0  0  0  0  0
   10.0624    4.3045   22.5859 H   0  0  0  0  0  0  0  0  0  0  0  0
   11.6209    2.8784   22.2391 H   0  0  0  0  0  0  0  0  0  0  0  0
   11.7399    1.8896   20.7884 H   0  0  0  0  0  0  0  0  0  0  0  0
   12.2642   -0.1182   22.2050 H   0  0  0  0  0  0  0  0  0  0  0  0
   13.4261    1.1926   22.4567 H   0  0  0  0  0  0  0  0  0  0  0  0
  1  2  1  0
  2  3  1  0
  2  4  1  0
  2  5  1  0
  5  6  1  0
  6  7  1  0
  7  8  1  0
  8  9  2  0
  9 10  1  0
 10 11  1  0
 11 12  2  0
 12 13  1  0
 13 14  2  0
 14 15  1  0
 15 16  2  0
 16 17  1  0
 14 18  1  0
 13 19  1  0
 12 20  1  0
 10 21  1  0
 10 22  1  0
  9 23  1  0
 23 24  2  0
 24 25  1  0
 25 26  2  0
 26 27  1  0
 27 28  2  0
 28 29  1  0
 29 30  1  0
 30 31  2  0
 31 32  1  0
 32 33  2  0
 33 34  1  0
 31 35  1  0
 29 36  1  0
 27 37  1  0
 26 38  1  0
  6 39  1  0
  6 40  1  0
  5 41  1  0
  5 42  1  0
 24  7  1  0
 33 25  1  0
 16 11  1  0
 32 28  1  0
M  END
>  <cnnaffinity>  (1) 
-5.80954

>  <filename>  (1) 
[H]c1nc([H])c(C([H])([H])c2nc(-c3c([H])c([H])c4c(c([H])nn4[H])c3[H])n(C([H])([H])C([H])([H])C(F)(F)F)n2)c([H])c1[H]

$$$$
