
     RDKit          3D

 35 37  0  0  0  0  0  0  0  0999 V2000
    5.0659    1.9464   16.8624 H   0  0  0  0  0  0  0  0  0  0  0  0
    5.4295    1.3683   17.7084 C   0  0  0  0  0  0  0  0  0  0  0  0
    6.5473    0.6485   17.4989 N   0  0  0  0  0  0  0  0  0  0  0  0
    7.0260   -0.0635   18.5253 C   0  0  0  0  0  0  0  0  0  0  0  0
    7.9488   -0.6205   18.3696 H   0  0  0  0  0  0  0  0  0  0  0  0
    6.4003   -0.1278   19.7831 C   0  0  0  0  0  0  0  0  0  0  0  0
    6.9935   -0.9062   20.8203 N   0  0  0  0  0  0  0  0  0  0  0  0
    8.3557   -0.8572   20.8770 N   0  0  0  0  0  0  0  0  0  0  0  0
    8.9472   -1.4391   21.8792 C   0  0  0  0  0  0  0  0  0  0  0  0
   10.4057   -1.1686   22.0655 C   0  0  0  0  0  0  0  0  0  0  0  0
   10.7794   -0.6933   21.1437 H   0  0  0  0  0  0  0  0  0  0  0  0
   10.9340   -2.1208   22.2114 H   0  0  0  0  0  0  0  0  0  0  0  0
   10.6481   -0.3190   23.2466 N   0  0  0  0  0  0  0  0  0  0  0  0
    9.9128    0.3506   23.4445 H   0  0  0  0  0  0  0  0  0  0  0  0
   11.8856    0.3389   23.1968 C   0  0  0  0  0  0  0  0  0  0  0  0
   11.9848    1.7260   23.3643 C   0  0  0  0  0  0  0  0  0  0  0  0
   11.0900    2.3001   23.5842 H   0  0  0  0  0  0  0  0  0  0  0  0
   13.2177    2.3578   23.1859 C   0  0  0  0  0  0  0  0  0  0  0  0
   13.2915    3.4411   23.2720 H   0  0  0  0  0  0  0  0  0  0  0  0
   14.3409    1.5957   22.8502 C   0  0  0  0  0  0  0  0  0  0  0  0
   15.2735    2.0706   22.5767 H   0  0  0  0  0  0  0  0  0  0  0  0
   14.2536    0.2083   22.7633 C   0  0  0  0  0  0  0  0  0  0  0  0
   15.1278   -0.3996   22.5916 H   0  0  0  0  0  0  0  0  0  0  0  0
   13.0250   -0.4164   22.8951 C   0  0  0  0  0  0  0  0  0  0  0  0
   12.9005   -1.4729   22.6856 H   0  0  0  0  0  0  0  0  0  0  0  0
    8.2853   -2.2989   22.8897 C   0  0  0  0  0  0  0  0  0  0  0  0
    8.8967   -2.9596   23.7232 O   0  0  0  0  0  0  0  0  0  0  0  0
    6.8420   -2.2990   22.7533 C   0  0  0  0  0  0  0  0  0  0  0  0
    6.2765   -2.8481   23.4950 H   0  0  0  0  0  0  0  0  0  0  0  0
    6.2634   -1.6244   21.7334 C   0  0  0  0  0  0  0  0  0  0  0  0
    5.1933   -1.6343   21.5498 H   0  0  0  0  0  0  0  0  0  0  0  0
    5.2346    0.6204   19.9941 C   0  0  0  0  0  0  0  0  0  0  0  0
    4.7637    0.6300   20.9768 H   0  0  0  0  0  0  0  0  0  0  0  0
    4.7508    1.3856   18.9297 C   0  0  0  0  0  0  0  0  0  0  0  0
    3.8686    2.0031   19.0446 H   0  0  0  0  0  0  0  0  0  0  0  0
  1  2  1  0
  2  3  2  0
  3  4  1  0
  4  5  1  0
  4  6  2  0
  6  7  1  0
  7  8  1  0
  8  9  2  0
  9 10  1  0
 10 11  1  0
 10 12  1  0
 10 13  1  0
 13 14  1  0
 13 15  1  0
 15 16  2  0
 16 17  1  0
 16 18  1  0
 18 19  1  0
 18 20  2  0
 20 21  1  0
 20 22  1  0
 22 23  1  0
 22 24  2  0
 24 25  1  0
  9 26  1  0
 26 27  2  0
 26 28  1  0
 28 29  1  0
 28 30  2  0
 30 31  1  0
  6 32  1  0
 32 33  1  0
 32 34  2  0
 34 35  1  0
 34  2  1  0
 30  7  1  0
 24 15  1  0
M  END
>  <cnnaffinity>  (1) 
-5.42907

>  <filename>  (1) 
[H]c1nc([H])c(-n2nc(C([H])([H])N([H])c3c([H])c([H])c([H])c([H])c3[H])c(=O)c([H])c2[H])c([H])c1[H]

$$$$
