
     RDKit          3D

 32 34  0  0  0  0  0  0  0  0999 V2000
    5.1233    1.4876   16.8669 H   0  0  0  0  0  0  0  0  0  0  0  0
    5.5277    1.1590   17.8230 C   0  0  0  0  0  0  0  0  0  0  0  0
    6.7485    0.6028   17.7855 N   0  0  0  0  0  0  0  0  0  0  0  0
    7.2700    0.1685   18.9458 C   0  0  0  0  0  0  0  0  0  0  0  0
    8.2616   -0.2730   18.8902 H   0  0  0  0  0  0  0  0  0  0  0  0
    6.6180    0.2480   20.2039 C   0  0  0  0  0  0  0  0  0  0  0  0
    7.1745   -0.2449   21.4004 N   0  0  0  0  0  0  0  0  0  0  0  0
    6.5192   -0.3027   22.1841 H   0  0  0  0  0  0  0  0  0  0  0  0
    8.2338   -1.1659   21.3550 N   0  0  0  0  0  0  0  0  0  0  0  0
    8.8485   -1.1169   22.1650 H   0  0  0  0  0  0  0  0  0  0  0  0
    7.9519   -2.5425   21.0204 C   0  0  0  0  0  0  0  0  0  0  0  0
    8.9072   -3.0268   20.7853 H   0  0  0  0  0  0  0  0  0  0  0  0
    7.2933   -2.5602   20.1497 H   0  0  0  0  0  0  0  0  0  0  0  0
    7.2969   -3.2837   22.0621 N   0  0  0  0  0  0  0  0  0  0  0  0
    7.9089   -3.6554   23.2431 C   0  0  0  0  0  0  0  0  0  0  0  0
    9.0999   -3.5485   23.4250 O   0  0  0  0  0  0  0  0  0  0  0  0
    6.8087   -4.1538   24.1421 C   0  0  0  0  0  0  0  0  0  0  0  0
    6.8047   -4.6150   25.4681 C   0  0  0  0  0  0  0  0  0  0  0  0
    7.7271   -4.7787   26.0241 H   0  0  0  0  0  0  0  0  0  0  0  0
    5.5667   -4.8507   26.0832 C   0  0  0  0  0  0  0  0  0  0  0  0
    5.5293   -5.1543   27.1298 H   0  0  0  0  0  0  0  0  0  0  0  0
    4.3587   -4.6630   25.3776 C   0  0  0  0  0  0  0  0  0  0  0  0
    3.4073   -4.8479   25.8750 H   0  0  0  0  0  0  0  0  0  0  0  0
    4.3690   -4.2267   24.0494 C   0  0  0  0  0  0  0  0  0  0  0  0
    3.4381   -4.0694   23.5120 H   0  0  0  0  0  0  0  0  0  0  0  0
    5.6053   -3.9821   23.4462 C   0  0  0  0  0  0  0  0  0  0  0  0
    5.9248   -3.4378   22.0949 C   0  0  0  0  0  0  0  0  0  0  0  0
    5.1898   -3.2038   21.1627 O   0  0  0  0  0  0  0  0  0  0  0  0
    5.3617    0.8949   20.2192 C   0  0  0  0  0  0  0  0  0  0  0  0
    4.8383    1.0578   21.1645 H   0  0  0  0  0  0  0  0  0  0  0  0
    4.8040    1.3338   19.0092 C   0  0  0  0  0  0  0  0  0  0  0  0
    3.8368    1.8345   18.9661 H   0  0  0  0  0  0  0  0  0  0  0  0
  1  2  1  0
  2  3  2  0
  3  4  1  0
  4  5  1  0
  4  6  2  0
  6  7  1  0
  7  8  1  0
  7  9  1  0
  9 10  1  0
  9 11  1  0
 11 12  1  0
 11 13  1  0
 11 14  1  0
 14 15  1  0
 15 16  2  0
 15 17  1  0
 17 18  2  0
 18 19  1  0
 18 20  1  0
 20 21  1  0
 20 22  2  0
 22 23  1  0
 22 24  1  0
 24 25  1  0
 24 26  2  0
 26 27  1  0
 27 28  2  0
  6 29  1  0
 29 30  1  0
 29 31  2  0
 31 32  1  0
 31  2  1  0
 27 14  1  0
 26 17  1  0
M  END
>  <cnnaffinity>  (1) 
-4.74308

>  <filename>  (1) 
[H]c1nc([H])c(N([H])N([H])C([H])([H])N2C(=O)c3c([H])c([H])c([H])c([H])c3C2=O)c([H])c1[H]

$$$$
