
     RDKit          3D

 29 31  0  0  0  0  0  0  0  0999 V2000
    4.9208    1.8004   16.9716 H   0  0  0  0  0  0  0  0  0  0  0  0
    5.3919    1.3008   17.8157 C   0  0  0  0  0  0  0  0  0  0  0  0
    6.5563    0.6798   17.5584 N   0  0  0  0  0  0  0  0  0  0  0  0
    7.1594    0.0573   18.5791 C   0  0  0  0  0  0  0  0  0  0  0  0
    8.1187   -0.4013   18.3393 H   0  0  0  0  0  0  0  0  0  0  0  0
    6.6423    0.0042   19.8892 C   0  0  0  0  0  0  0  0  0  0  0  0
    7.3269   -0.6583   20.9932 C   0  0  0  0  0  0  0  0  0  0  0  0
    7.2409   -0.4387   22.3250 C   0  0  0  0  0  0  0  0  0  0  0  0
    6.6740    0.2957   22.8742 H   0  0  0  0  0  0  0  0  0  0  0  0
    8.0965   -1.3244   22.9709 N   0  0  0  0  0  0  0  0  0  0  0  0
    8.2719   -1.4067   24.3740 C   0  0  0  0  0  0  0  0  0  0  0  0
    8.1977   -2.6325   25.0664 C   0  0  0  0  0  0  0  0  0  0  0  0
    7.9225   -3.7556   24.3885 F   0  0  0  0  0  0  0  0  0  0  0  0
    8.3981   -2.7201   26.4384 C   0  0  0  0  0  0  0  0  0  0  0  0
    8.3497   -3.7031   26.8906 H   0  0  0  0  0  0  0  0  0  0  0  0
    8.6595   -1.5544   27.1608 C   0  0  0  0  0  0  0  0  0  0  0  0
    8.8306   -1.5865   28.2257 H   0  0  0  0  0  0  0  0  0  0  0  0
    8.7112   -0.3171   26.5210 C   0  0  0  0  0  0  0  0  0  0  0  0
    8.8961    0.6042   27.0587 H   0  0  0  0  0  0  0  0  0  0  0  0
    8.5158   -0.2583   25.1499 C   0  0  0  0  0  0  0  0  0  0  0  0
    8.5786    0.9495   24.5543 F   0  0  0  0  0  0  0  0  0  0  0  0
    8.7516   -2.1241   22.0135 C   0  0  0  0  0  0  0  0  0  0  0  0
    9.5636   -3.0059   22.1454 O   0  0  0  0  0  0  0  0  0  0  0  0
    8.2570   -1.6658   20.8209 N   0  0  0  0  0  0  0  0  0  0  0  0
    8.5420   -2.1493   19.9932 H   0  0  0  0  0  0  0  0  0  0  0  0
    5.4245    0.6604   20.1312 C   0  0  0  0  0  0  0  0  0  0  0  0
    4.9891    0.6387   21.1312 H   0  0  0  0  0  0  0  0  0  0  0  0
    4.7932    1.3197   19.0807 C   0  0  0  0  0  0  0  0  0  0  0  0
    3.8624    1.8529   19.2341 H   0  0  0  0  0  0  0  0  0  0  0  0
  1  2  1  0
  2  3  2  0
  3  4  1  0
  4  5  1  0
  4  6  2  0
  6  7  1  0
  7  8  2  0
  8  9  1  0
  8 10  1  0
 10 11  1  0
 11 12  2  0
 12 13  1  0
 12 14  1  0
 14 15  1  0
 14 16  2  0
 16 17  1  0
 16 18  1  0
 18 19  1  0
 18 20  2  0
 20 21  1  0
 10 22  1  0
 22 23  2  0
 22 24  1  0
 24 25  1  0
  6 26  1  0
 26 27  1  0
 26 28  2  0
 28 29  1  0
 28  2  1  0
 24  7  1  0
 20 11  1  0
M  END
>  <cnnaffinity>  (1) 
-5.66712

>  <filename>  (1) 
[H]c1nc([H])c(-c2c([H])n(-c3c(F)c([H])c([H])c([H])c3F)c(=O)n2[H])c([H])c1[H]

$$$$
