
     RDKit          3D

 24 26  0  0  0  0  0  0  0  0999 V2000
    8.7508   -3.1997   22.2173 H   0  0  0  0  0  0  0  0  0  0  0  0
    8.3069   -2.2396   22.0003 C   0  0  0  0  0  0  0  0  0  0  0  0
    7.8543   -1.8899   20.7699 N   0  0  0  0  0  0  0  0  0  0  0  0
    7.3707   -0.6847   20.9478 C   0  0  0  0  0  0  0  0  0  0  0  0
    6.6338    0.0267   19.9080 C   0  0  0  0  0  0  0  0  0  0  0  0
    7.1585    0.0474   18.6069 C   0  0  0  0  0  0  0  0  0  0  0  0
    8.1072   -0.4393   18.3818 H   0  0  0  0  0  0  0  0  0  0  0  0
    6.5672    0.6694   17.5842 N   0  0  0  0  0  0  0  0  0  0  0  0
    5.4024    1.2925   17.8323 C   0  0  0  0  0  0  0  0  0  0  0  0
    4.9366    1.7893   16.9848 H   0  0  0  0  0  0  0  0  0  0  0  0
    4.7862    1.3023   19.0889 C   0  0  0  0  0  0  0  0  0  0  0  0
    3.8652    1.8468   19.2458 H   0  0  0  0  0  0  0  0  0  0  0  0
    5.4014    0.6473   20.1506 C   0  0  0  0  0  0  0  0  0  0  0  0
    4.9901    0.6594   21.1628 H   0  0  0  0  0  0  0  0  0  0  0  0
    7.5771   -0.3063   22.2453 N   0  0  0  0  0  0  0  0  0  0  0  0
    7.3235    0.9653   22.7829 N   0  0  0  0  0  0  0  0  0  0  0  0
    7.2910    2.0658   22.0095 N   0  0  0  0  0  0  0  0  0  0  0  0
    7.1069    3.0612   22.8680 C   0  0  0  0  0  0  0  0  0  0  0  0
    7.0142    4.0812   22.5180 H   0  0  0  0  0  0  0  0  0  0  0  0
    7.0579    2.5969   24.2046 C   0  0  0  0  0  0  0  0  0  0  0  0
    6.9615    3.1860   25.1026 H   0  0  0  0  0  0  0  0  0  0  0  0
    7.2078    1.2360   24.1072 C   0  0  0  0  0  0  0  0  0  0  0  0
    7.2827    0.4260   24.8174 H   0  0  0  0  0  0  0  0  0  0  0  0
    8.1707   -1.3224   22.9360 N   0  0  0  0  0  0  0  0  0  0  0  0
  1  2  1  0
  2  3  1  0
  3  4  2  0
  4  5  1  0
  5  6  2  0
  6  7  1  0
  6  8  1  0
  8  9  2  0
  9 10  1  0
  9 11  1  0
 11 12  1  0
 11 13  2  0
 13 14  1  0
  4 15  1  0
 15 16  1  0
 16 17  1  0
 17 18  2  0
 18 19  1  0
 18 20  1  0
 20 21  1  0
 20 22  2  0
 22 23  1  0
 15 24  1  0
 24  2  2  0
 13  5  1  0
 22 16  1  0
M  END
>  <cnnaffinity>  (1) 
-4.3977

>  <filename>  (1) 
[H]c1nc(-c2c([H])nc([H])c([H])c2[H])n(-n2nc([H])c([H])c2[H])n1

$$$$
