
     RDKit          3D

 34 36  0  0  0  0  0  0  0  0999 V2000
    4.9240    1.7833   16.9945 H   0  0  0  0  0  0  0  0  0  0  0  0
    5.4021    1.2910   17.8369 C   0  0  0  0  0  0  0  0  0  0  0  0
    6.5699    0.6718   17.5850 N   0  0  0  0  0  0  0  0  0  0  0  0
    7.1790    0.0514   18.5975 C   0  0  0  0  0  0  0  0  0  0  0  0
    8.1255   -0.4364   18.3741 H   0  0  0  0  0  0  0  0  0  0  0  0
    6.6504    0.0216   19.9060 C   0  0  0  0  0  0  0  0  0  0  0  0
    7.3492   -0.6254   20.9725 N   0  0  0  0  0  0  0  0  0  0  0  0
    8.1385   -1.7133   20.7532 N   0  0  0  0  0  0  0  0  0  0  0  0
    8.6168   -2.0677   21.8803 N   0  0  0  0  0  0  0  0  0  0  0  0
    8.1907   -1.2561   22.8875 N   0  0  0  0  0  0  0  0  0  0  0  0
    7.4133   -0.3775   22.3124 C   0  0  0  0  0  0  0  0  0  0  0  0
    6.7614    0.6473   22.8520 O   0  0  0  0  0  0  0  0  0  0  0  0
    6.9328    0.8598   24.2533 C   0  0  0  0  0  0  0  0  0  0  0  0
    8.0077    0.9922   24.4931 H   0  0  0  0  0  0  0  0  0  0  0  0
    6.5591   -0.0192   24.7919 H   0  0  0  0  0  0  0  0  0  0  0  0
    6.1433    2.0170   24.6042 N   0  0  0  0  0  0  0  0  0  0  0  0
    6.6340    3.2707   23.9935 C   0  0  0  0  0  0  0  0  0  0  0  0
    6.6169    3.1672   22.9053 H   0  0  0  0  0  0  0  0  0  0  0  0
    7.6806    3.4671   24.2905 H   0  0  0  0  0  0  0  0  0  0  0  0
    5.7922    4.4935   24.4053 C   0  0  0  0  0  0  0  0  0  0  0  0
    6.2307    5.3888   23.9540 H   0  0  0  0  0  0  0  0  0  0  0  0
    4.7823    4.3705   23.9781 H   0  0  0  0  0  0  0  0  0  0  0  0
    5.7704    4.6685   25.8710 N   0  0  0  0  0  0  0  0  0  0  0  0
    5.1684    5.4560   26.1083 H   0  0  0  0  0  0  0  0  0  0  0  0
    5.2351    3.4368   26.4787 C   0  0  0  0  0  0  0  0  0  0  0  0
    5.2666    3.5442   27.5683 H   0  0  0  0  0  0  0  0  0  0  0  0
    4.1857    3.2443   26.1984 H   0  0  0  0  0  0  0  0  0  0  0  0
    6.0722    2.2086   26.0704 C   0  0  0  0  0  0  0  0  0  0  0  0
    7.0780    2.3440   26.5123 H   0  0  0  0  0  0  0  0  0  0  0  0
    5.6331    1.3210   26.5398 H   0  0  0  0  0  0  0  0  0  0  0  0
    5.4301    0.6504   20.1650 C   0  0  0  0  0  0  0  0  0  0  0  0
    5.0131    0.6366   21.1731 H   0  0  0  0  0  0  0  0  0  0  0  0
    4.8050    1.3026   19.1021 C   0  0  0  0  0  0  0  0  0  0  0  0
    3.8778    1.8378   19.2567 H   0  0  0  0  0  0  0  0  0  0  0  0
  1  2  1  0
  2  3  2  0
  3  4  1  0
  4  5  1  0
  4  6  2  0
  6  7  1  0
  7  8  1  0
  8  9  2  0
  9 10  1  0
 10 11  2  0
 11 12  1  0
 12 13  1  0
 13 14  1  0
 13 15  1  0
 13 16  1  0
 16 17  1  0
 17 18  1  0
 17 19  1  0
 17 20  1  0
 20 21  1  0
 20 22  1  0
 20 23  1  0
 23 24  1  0
 23 25  1  0
 25 26  1  0
 25 27  1  0
 25 28  1  0
 28 29  1  0
 28 30  1  0
  6 31  1  0
 31 32  1  0
 31 33  2  0
 33 34  1  0
 33  2  1  0
 11  7  1  0
 28 16  1  0
M  END
>  <cnnaffinity>  (1) 
-4.48633

>  <filename>  (1) 
[H]c1nc([H])c(-n2nnnc2OC([H])([H])N2C([H])([H])C([H])([H])N([H])C([H])([H])C2([H])[H])c([H])c1[H]

$$$$
