
     RDKit          3D

 35 37  0  0  0  0  0  0  0  0999 V2000
    5.1171    1.7910   16.9735 H   0  0  0  0  0  0  0  0  0  0  0  0
    5.5709    1.2968   17.8326 C   0  0  0  0  0  0  0  0  0  0  0  0
    6.7817    0.7476   17.6345 N   0  0  0  0  0  0  0  0  0  0  0  0
    7.3779    0.1417   18.6709 C   0  0  0  0  0  0  0  0  0  0  0  0
    8.3723   -0.2612   18.4881 H   0  0  0  0  0  0  0  0  0  0  0  0
    6.7617   -0.0071   19.9279 C   0  0  0  0  0  0  0  0  0  0  0  0
    7.4044   -0.7317   20.9849 N   0  0  0  0  0  0  0  0  0  0  0  0
    8.7162   -0.3829   21.2018 N   0  0  0  0  0  0  0  0  0  0  0  0
    9.3274   -0.8564   22.2688 C   0  0  0  0  0  0  0  0  0  0  0  0
   10.6478   -0.5052   22.4914 N   0  0  0  0  0  0  0  0  0  0  0  0
   11.4409   -0.0776   21.3521 C   0  0  0  0  0  0  0  0  0  0  0  0
   12.4807   -0.3932   21.5077 H   0  0  0  0  0  0  0  0  0  0  0  0
   11.0702   -0.5879   20.4569 H   0  0  0  0  0  0  0  0  0  0  0  0
   11.3319    1.4406   21.2612 C   0  0  0  0  0  0  0  0  0  0  0  0
   11.9137    1.9128   20.4714 H   0  0  0  0  0  0  0  0  0  0  0  0
   10.2876    1.7511   21.2036 H   0  0  0  0  0  0  0  0  0  0  0  0
   12.0300    2.0858   22.7630 S   0  0  0  0  0  0  0  0  0  0  0  0
   13.3599    1.4859   22.8758 O   0  0  0  0  0  0  0  0  0  0  0  0
   11.8572    3.5251   22.8249 O   0  0  0  0  0  0  0  0  0  0  0  0
   11.0512    1.3128   24.0314 C   0  0  0  0  0  0  0  0  0  0  0  0
   11.5195    1.6264   24.9632 H   0  0  0  0  0  0  0  0  0  0  0  0
   10.0258    1.6751   23.9573 H   0  0  0  0  0  0  0  0  0  0  0  0
   11.1514   -0.1863   23.8131 C   0  0  0  0  0  0  0  0  0  0  0  0
   10.6228   -0.7366   24.6013 H   0  0  0  0  0  0  0  0  0  0  0  0
   12.2108   -0.4523   23.8754 H   0  0  0  0  0  0  0  0  0  0  0  0
    8.6951   -1.8274   23.1359 C   0  0  0  0  0  0  0  0  0  0  0  0
    9.2658   -2.2046   23.9812 H   0  0  0  0  0  0  0  0  0  0  0  0
    7.4613   -2.2927   22.8221 C   0  0  0  0  0  0  0  0  0  0  0  0
    6.9465   -3.0612   23.3843 H   0  0  0  0  0  0  0  0  0  0  0  0
    6.7197   -1.8066   21.6546 C   0  0  0  0  0  0  0  0  0  0  0  0
    5.6548   -2.2572   21.2768 O   0  0  0  0  0  0  0  0  0  0  0  0
    5.5045    0.5784   20.1300 C   0  0  0  0  0  0  0  0  0  0  0  0
    5.0196    0.5121   21.1022 H   0  0  0  0  0  0  0  0  0  0  0  0
    4.9060    1.2542   19.0613 C   0  0  0  0  0  0  0  0  0  0  0  0
    3.9495    1.7566   19.1709 H   0  0  0  0  0  0  0  0  0  0  0  0
  1  2  1  0
  2  3  2  0
  3  4  1  0
  4  5  1  0
  4  6  2  0
  6  7  1  0
  7  8  1  0
  8  9  2  0
  9 10  1  0
 10 11  1  0
 11 12  1  0
 11 13  1  0
 11 14  1  0
 14 15  1  0
 14 16  1  0
 14 17  1  0
 17 18  2  0
 17 19  2  0
 17 20  1  0
 20 21  1  0
 20 22  1  0
 20 23  1  0
 23 24  1  0
 23 25  1  0
  9 26  1  0
 26 27  1  0
 26 28  2  0
 28 29  1  0
 28 30  1  0
 30 31  2  0
  6 32  1  0
 32 33  1  0
 32 34  2  0
 34 35  1  0
 34  2  1  0
 30  7  1  0
 23 10  1  0
M  END
>  <cnnaffinity>  (1) 
-4.95691

>  <filename>  (1) 
[H]c1nc([H])c(-n2nc(N3C([H])([H])C([H])([H])S(=O)(=O)C([H])([H])C3([H])[H])c([H])c([H])c2=O)c([H])c1[H]

$$$$
