
     RDKit          3D

 40 42  0  0  0  0  0  0  0  0999 V2000
    6.7738   -3.5302   25.8999 C   0  0  0  0  0  0  0  0  0  0  0  0
    6.9125   -3.1329   24.4326 C   0  0  0  0  0  0  0  0  0  0  0  0
    7.7121   -1.8391   24.2479 C   0  0  0  0  0  0  0  0  0  0  0  0
    7.8484   -1.4705   22.8449 N   0  0  0  0  0  0  0  0  0  0  0  0
    6.8786   -0.7574   22.2369 N   0  0  0  0  0  0  0  0  0  0  0  0
    7.2772   -0.7077   20.9825 C   0  0  0  0  0  0  0  0  0  0  0  0
    6.5691    0.0141   19.9347 C   0  0  0  0  0  0  0  0  0  0  0  0
    5.3552    0.6972   20.1318 C   0  0  0  0  0  0  0  0  0  0  0  0
    4.7863    1.3365   19.0359 C   0  0  0  0  0  0  0  0  0  0  0  0
    5.4492    1.2855   17.8004 C   0  0  0  0  0  0  0  0  0  0  0  0
    6.6083    0.6389   17.6068 N   0  0  0  0  0  0  0  0  0  0  0  0
    7.1497    0.0227   18.6600 C   0  0  0  0  0  0  0  0  0  0  0  0
    8.0890   -0.5009   18.4988 H   0  0  0  0  0  0  0  0  0  0  0  0
    5.0360    1.7843   16.9291 H   0  0  0  0  0  0  0  0  0  0  0  0
    3.8530    1.8844   19.1130 H   0  0  0  0  0  0  0  0  0  0  0  0
    4.8782    0.7179   21.1161 H   0  0  0  0  0  0  0  0  0  0  0  0
    8.4417   -1.3731   20.7381 N   0  0  0  0  0  0  0  0  0  0  0  0
    8.7834   -1.8159   21.9380 C   0  0  0  0  0  0  0  0  0  0  0  0
   10.0832   -2.4305   22.3725 C   0  0  0  0  0  0  0  0  0  0  0  0
   10.6824   -1.6821   23.4342 O   0  0  0  0  0  0  0  0  0  0  0  0
   11.3092   -0.5034   23.1156 C   0  0  0  0  0  0  0  0  0  0  0  0
   11.2812    0.1107   21.8482 C   0  0  0  0  0  0  0  0  0  0  0  0
   11.9923    1.2974   21.6138 C   0  0  0  0  0  0  0  0  0  0  0  0
   12.7501    1.8681   22.6293 C   0  0  0  0  0  0  0  0  0  0  0  0
   12.7875    1.2733   23.8930 C   0  0  0  0  0  0  0  0  0  0  0  0
   12.0348    0.1366   24.1451 C   0  0  0  0  0  0  0  0  0  0  0  0
   11.9945   -0.3395   25.4013 F   0  0  0  0  0  0  0  0  0  0  0  0
   13.3847    1.6791   24.7007 H   0  0  0  0  0  0  0  0  0  0  0  0
   13.3004    2.7878   22.4440 H   0  0  0  0  0  0  0  0  0  0  0  0
   11.9729    1.7618   20.6292 H   0  0  0  0  0  0  0  0  0  0  0  0
   10.7245   -0.3542   21.0392 H   0  0  0  0  0  0  0  0  0  0  0  0
    9.9235   -3.4358   22.7705 H   0  0  0  0  0  0  0  0  0  0  0  0
   10.7806   -2.4971   21.5295 H   0  0  0  0  0  0  0  0  0  0  0  0
    7.2080   -0.9924   24.7231 H   0  0  0  0  0  0  0  0  0  0  0  0
    8.7143   -1.9326   24.6791 H   0  0  0  0  0  0  0  0  0  0  0  0
    5.9230   -2.9892   23.9812 H   0  0  0  0  0  0  0  0  0  0  0  0
    7.4029   -3.9435   23.8740 H   0  0  0  0  0  0  0  0  0  0  0  0
    6.2575   -2.7578   26.4845 H   0  0  0  0  0  0  0  0  0  0  0  0
    7.7540   -3.6995   26.3631 H   0  0  0  0  0  0  0  0  0  0  0  0
    6.1999   -4.4579   25.9927 H   0  0  0  0  0  0  0  0  0  0  0  0
  1  2  1  0
  2  3  1  0
  3  4  1  0
  4  5  1  0
  5  6  2  0
  6  7  1  0
  7  8  2  0
  8  9  1  0
  9 10  2  0
 10 11  1  0
 11 12  2  0
 12 13  1  0
 10 14  1  0
  9 15  1  0
  8 16  1  0
  6 17  1  0
 17 18  2  0
 18 19  1  0
 19 20  1  0
 20 21  1  0
 21 22  2  0
 22 23  1  0
 23 24  2  0
 24 25  1  0
 25 26  2  0
 26 27  1  0
 25 28  1  0
 24 29  1  0
 23 30  1  0
 22 31  1  0
 19 32  1  0
 19 33  1  0
  3 34  1  0
  3 35  1  0
  2 36  1  0
  2 37  1  0
  1 38  1  0
  1 39  1  0
  1 40  1  0
 18  4  1  0
 26 21  1  0
 12  7  1  0
M  END
>  <cnnaffinity>  (1) 
-5.74569

>  <filename>  (1) 
[H]c1nc([H])c(-c2nc(C([H])([H])Oc3c([H])c([H])c([H])c([H])c3F)n(C([H])([H])C([H])([H])C([H])([H])[H])n2)c([H])c1[H]

$$$$
