
     RDKit          3D

 49 54  0  0  0  0  0  0  0  0999 V2000
    4.8195    1.3025   19.0136 C   0  0  0  0  0  0  0  0  0  0  0  0
    5.3897    1.3126   17.7371 C   0  0  0  0  0  0  0  0  0  0  0  0
    6.5068    0.6398   17.4195 N   0  0  0  0  0  0  0  0  0  0  0  0
    7.1011   -0.0586   18.3957 C   0  0  0  0  0  0  0  0  0  0  0  0
    6.6277   -0.1287   19.7168 C   0  0  0  0  0  0  0  0  0  0  0  0
    7.3978   -0.8149   20.8389 C   0  0  0  0  0  0  0  0  0  0  0  0
    8.2766    0.1491   21.5784 C   0  0  0  0  0  0  0  0  0  0  0  0
    9.5372    0.3678   21.2448 N   0  0  0  0  0  0  0  0  0  0  0  0
    9.8726    1.4131   22.0486 N   0  0  0  0  0  0  0  0  0  0  0  0
   11.1617    2.0027   22.0803 C   0  0  0  0  0  0  0  0  0  0  0  0
   11.3580    3.3794   22.2365 C   0  0  0  0  0  0  0  0  0  0  0  0
   12.6322    3.8938   22.5508 C   0  0  0  0  0  0  0  0  0  0  0  0
   13.7331    3.0637   22.7309 C   0  0  0  0  0  0  0  0  0  0  0  0
   13.5512    1.6666   22.5784 C   0  0  0  0  0  0  0  0  0  0  0  0
   12.2944    1.1769   22.1839 C   0  0  0  0  0  0  0  0  0  0  0  0
   12.4544   -0.1872   22.0808 N   0  0  0  0  0  0  0  0  0  0  0  0
   13.7523   -0.4541   22.4013 C   0  0  0  0  0  0  0  0  0  0  0  0
   14.4403    0.6062   22.7182 N   0  0  0  0  0  0  0  0  0  0  0  0
   14.1388   -1.4677   22.4235 H   0  0  0  0  0  0  0  0  0  0  0  0
   11.7560   -0.8065   21.6998 H   0  0  0  0  0  0  0  0  0  0  0  0
   14.7123    3.4947   22.8840 H   0  0  0  0  0  0  0  0  0  0  0  0
   12.7655    4.9638   22.6719 H   0  0  0  0  0  0  0  0  0  0  0  0
   10.5235    4.0701   22.1969 H   0  0  0  0  0  0  0  0  0  0  0  0
    8.8270    1.6896   22.8863 C   0  0  0  0  0  0  0  0  0  0  0  0
    8.9191    2.7245   23.9337 C   0  0  2  0  0  0  0  0  0  0  0  0
   10.1249    2.7549   24.8199 C   0  0  0  0  0  0  0  0  0  0  0  0
    8.7967    2.4292   25.4189 C   0  0  1  0  0  0  0  0  0  0  0  0
    8.1270    3.3753   26.3571 C   0  0  0  0  0  0  0  0  0  0  0  0
    8.3903    4.7510   26.4109 C   0  0  0  0  0  0  0  0  0  0  0  0
    7.7216    5.5404   27.3473 C   0  0  0  0  0  0  0  0  0  0  0  0
    6.8210    5.0621   28.2153 N   0  0  0  0  0  0  0  0  0  0  0  0
    6.5694    3.7473   28.1645 C   0  0  0  0  0  0  0  0  0  0  0  0
    7.1902    2.8788   27.2690 C   0  0  0  0  0  0  0  0  0  0  0  0
    6.9406    1.8263   27.2793 H   0  0  0  0  0  0  0  0  0  0  0  0
    5.8285    3.3724   28.8706 H   0  0  0  0  0  0  0  0  0  0  0  0
    7.9144    6.6124   27.3941 H   0  0  0  0  0  0  0  0  0  0  0  0
    9.0974    5.2145   25.7370 H   0  0  0  0  0  0  0  0  0  0  0  0
    8.6242    1.3847   25.6828 H   0  0  0  0  0  0  0  0  0  0  0  0
   10.5363    3.7469   24.9401 H   0  0  0  0  0  0  0  0  0  0  0  0
   10.8522    1.9569   24.6931 H   0  0  0  0  0  0  0  0  0  0  0  0
    8.4942    3.6773   23.6112 H   0  0  0  0  0  0  0  0  0  0  0  0
    7.7980    0.9247   22.5838 N   0  0  0  0  0  0  0  0  0  0  0  0
    6.6956   -1.2457   21.5607 H   0  0  0  0  0  0  0  0  0  0  0  0
    8.0183   -1.6304   20.4612 H   0  0  0  0  0  0  0  0  0  0  0  0
    5.4563    0.5760   20.0217 C   0  0  0  0  0  0  0  0  0  0  0  0
    5.0798    0.5692   21.0473 H   0  0  0  0  0  0  0  0  0  0  0  0
    8.0147   -0.5855   18.1140 H   0  0  0  0  0  0  0  0  0  0  0  0
    4.9294    1.8826   16.9317 H   0  0  0  0  0  0  0  0  0  0  0  0
    3.9140    1.8686   19.2054 H   0  0  0  0  0  0  0  0  0  0  0  0
  1  2  2  0
  2  3  1  0
  3  4  2  0
  4  5  1  0
  5  6  1  0
  6  7  1  0
  7  8  2  0
  8  9  1  0
  9 10  1  0
 10 11  2  0
 11 12  1  0
 12 13  2  0
 13 14  1  0
 14 15  2  0
 15 16  1  0
 16 17  1  0
 17 18  2  0
 17 19  1  0
 16 20  1  0
 13 21  1  0
 12 22  1  0
 11 23  1  0
  9 24  1  0
 24 25  1  0
 25 26  1  0
 26 27  1  0
 27 28  1  0
 28 29  2  0
 29 30  1  0
 30 31  2  0
 31 32  1  0
 32 33  2  0
 33 34  1  0
 32 35  1  0
 30 36  1  0
 29 37  1  0
 27 38  1  6
 26 39  1  0
 26 40  1  0
 25 41  1  6
 24 42  2  0
  6 43  1  0
  6 44  1  0
  5 45  2  0
 45 46  1  0
  4 47  1  0
  2 48  1  0
  1 49  1  0
 45  1  1  0
 42  7  1  0
 15 10  1  0
 27 25  1  0
 33 28  1  0
 18 14  1  0
M  END
>  <cnnaffinity>  (1) 
-6.9458

>  <filename>  (1) 
[H]c1nc([H])c(C([H])([H])c2nc([C@]3([H])C([H])([H])[C@@]3([H])c3c([H])c([H])nc([H])c3[H])n(-c3c([H])c([H])c([H])c4nc([H])n([H])c34)n2)c([H])c1[H]

$$$$
