
     RDKit          3D

 37 38  0  0  0  0  0  0  0  0999 V2000
    8.7342    0.0848   21.3864 C   0  0  0  0  0  0  0  0  0  0  0  0
    7.3965   -0.5885   21.1020 C   0  0  2  0  0  0  0  0  0  0  0  0
    7.5928   -2.0283   20.6892 N   0  0  0  0  0  4  0  0  0  0  0  0
    7.8628   -3.0284   21.7311 C   0  0  0  0  0  0  0  0  0  0  0  0
    6.5740   -3.3021   22.4594 C   0  0  0  0  0  0  0  0  0  0  0  0
    6.3945   -3.3468   23.7840 C   0  0  0  0  0  0  0  0  0  0  0  0
    7.4073   -2.9814   24.8072 C   0  0  0  0  0  0  0  0  0  0  0  0
    7.7907   -3.9271   25.7802 C   0  0  0  0  0  0  0  0  0  0  0  0
    8.7034   -3.5925   26.7842 C   0  0  0  0  0  0  0  0  0  0  0  0
    9.2244   -2.2946   26.8397 C   0  0  0  0  0  0  0  0  0  0  0  0
    8.8710   -1.3511   25.8747 C   0  0  0  0  0  0  0  0  0  0  0  0
    7.9790   -1.6951   24.8554 C   0  0  0  0  0  0  0  0  0  0  0  0
    7.7205   -0.9630   24.0899 H   0  0  0  0  0  0  0  0  0  0  0  0
    9.3039   -0.3519   25.9089 H   0  0  0  0  0  0  0  0  0  0  0  0
    9.9231   -2.0030   27.6205 H   0  0  0  0  0  0  0  0  0  0  0  0
    9.0059   -4.3502   27.5081 H   0  0  0  0  0  0  0  0  0  0  0  0
    7.3833   -4.9365   25.7303 H   0  0  0  0  0  0  0  0  0  0  0  0
    5.4309   -3.6985   24.1630 H   0  0  0  0  0  0  0  0  0  0  0  0
    5.7203   -3.4817   21.8076 H   0  0  0  0  0  0  0  0  0  0  0  0
    8.2417   -3.9400   21.2573 H   0  0  0  0  0  0  0  0  0  0  0  0
    8.6318   -2.6834   22.4317 H   0  0  0  0  0  0  0  0  0  0  0  0
    8.3367   -2.0165   19.9634 H   0  0  0  0  0  0  0  0  0  0  0  0
    6.6884   -2.2956   20.2371 H   0  0  0  0  0  0  0  0  0  0  0  0
    6.6294    0.0074   19.9546 C   0  0  0  0  0  0  0  0  0  0  0  0
    5.4086    0.6654   20.1431 C   0  0  0  0  0  0  0  0  0  0  0  0
    4.8166    1.3040   19.0549 C   0  0  0  0  0  0  0  0  0  0  0  0
    5.4490    1.2482   17.8095 C   0  0  0  0  0  0  0  0  0  0  0  0
    6.5860    0.5683   17.5992 N   0  0  0  0  0  0  0  0  0  0  0  0
    7.1415   -0.0466   18.6493 C   0  0  0  0  0  0  0  0  0  0  0  0
    8.0641   -0.5943   18.4386 H   0  0  0  0  0  0  0  0  0  0  0  0
    5.0310    1.7653   16.9472 H   0  0  0  0  0  0  0  0  0  0  0  0
    3.8936    1.8541   19.1539 H   0  0  0  0  0  0  0  0  0  0  0  0
    4.9351    0.6756   21.1281 H   0  0  0  0  0  0  0  0  0  0  0  0
    6.7711   -0.5513   22.0047 H   0  0  0  0  0  0  0  0  0  0  0  0
    9.2616   -0.4225   22.2041 H   0  0  0  0  0  0  0  0  0  0  0  0
    9.3662    0.0533   20.4916 H   0  0  0  0  0  0  0  0  0  0  0  0
    8.5837    1.1319   21.6623 H   0  0  0  0  0  0  0  0  0  0  0  0
  1  2  1  0
  2  3  1  0
  3  4  1  0
  4  5  1  0
  5  6  2  3
  6  7  1  0
  7  8  2  0
  8  9  1  0
  9 10  2  0
 10 11  1  0
 11 12  2  0
 12 13  1  0
 11 14  1  0
 10 15  1  0
  9 16  1  0
  8 17  1  0
  6 18  1  0
  5 19  1  0
  4 20  1  0
  4 21  1  0
  3 22  1  0
  3 23  1  0
  2 24  1  0
 24 25  2  0
 25 26  1  0
 26 27  2  0
 27 28  1  0
 28 29  2  0
 29 30  1  0
 27 31  1  0
 26 32  1  0
 25 33  1  0
  2 34  1  1
  1 35  1  0
  1 36  1  0
  1 37  1  0
 12  7  1  0
 29 24  1  0
M  CHG  1   3   1
M  END
>  <cnnaffinity>  (1) 
-4.5421

>  <filename>  (1) 
[H]C(=C([H])C([H])([H])[N+]([H])([H])[C@]([H])(c1c([H])nc([H])c([H])c1[H])C([H])([H])[H])c1c([H])c([H])c([H])c([H])c1[H]

$$$$
