
     RDKit          3D

 42 44  0  0  0  0  0  0  0  0999 V2000
    4.8025    1.3184   19.0986 C   0  0  0  0  0  0  0  0  0  0  0  0
    5.3940    1.2996   17.8308 C   0  0  0  0  0  0  0  0  0  0  0  0
    6.5544    0.6818   17.5641 N   0  0  0  0  0  0  0  0  0  0  0  0
    7.1675    0.0720   18.5843 C   0  0  0  0  0  0  0  0  0  0  0  0
    6.6613    0.0141   19.8958 C   0  0  0  0  0  0  0  0  0  0  0  0
    7.3776   -0.7074   20.9774 C   0  0  0  0  0  0  0  0  0  0  0  0
    6.6716   -1.5243   21.8652 C   0  0  0  0  0  0  0  0  0  0  0  0
    7.3500   -2.1718   22.9032 C   0  0  0  0  0  0  0  0  0  0  0  0
    6.6288   -3.0727   23.8568 C   0  0  0  0  0  0  0  0  0  0  0  0
    6.1159   -2.2705   24.9740 N   0  0  0  0  0  4  0  0  0  0  0  0
    5.4687   -3.0496   26.0536 C   0  0  0  0  0  0  0  0  0  0  0  0
    4.1201   -3.6540   25.6068 C   0  0  0  0  0  0  0  0  0  0  0  0
    3.4435   -4.4347   26.7439 C   0  0  0  0  0  0  0  0  0  0  0  0
    3.2898   -3.5733   28.0061 C   0  0  0  0  0  0  0  0  0  0  0  0
    4.6358   -2.9750   28.4486 C   0  0  0  0  0  0  0  0  0  0  0  0
    5.3079   -2.1882   27.3060 C   0  0  0  0  0  0  0  0  0  0  0  0
    6.2911   -1.8193   27.6238 H   0  0  0  0  0  0  0  0  0  0  0  0
    4.6936   -1.3114   27.0566 H   0  0  0  0  0  0  0  0  0  0  0  0
    5.3000   -3.7925   28.7674 H   0  0  0  0  0  0  0  0  0  0  0  0
    4.5004   -2.3350   29.3283 H   0  0  0  0  0  0  0  0  0  0  0  0
    2.8424   -4.1602   28.8171 H   0  0  0  0  0  0  0  0  0  0  0  0
    2.5897   -2.7529   27.7934 H   0  0  0  0  0  0  0  0  0  0  0  0
    4.0521   -5.3193   26.9846 H   0  0  0  0  0  0  0  0  0  0  0  0
    2.4687   -4.8152   26.4150 H   0  0  0  0  0  0  0  0  0  0  0  0
    4.2638   -4.3119   24.7426 H   0  0  0  0  0  0  0  0  0  0  0  0
    3.4649   -2.8349   25.2779 H   0  0  0  0  0  0  0  0  0  0  0  0
    6.1257   -3.8938   26.3116 H   0  0  0  0  0  0  0  0  0  0  0  0
    5.4094   -1.5896   24.5766 H   0  0  0  0  0  0  0  0  0  0  0  0
    6.9058   -1.6860   25.3353 H   0  0  0  0  0  0  0  0  0  0  0  0
    7.2936   -3.8620   24.2294 H   0  0  0  0  0  0  0  0  0  0  0  0
    5.8099   -3.5756   23.3292 H   0  0  0  0  0  0  0  0  0  0  0  0
    8.7358   -1.9739   22.9882 C   0  0  0  0  0  0  0  0  0  0  0  0
    9.4423   -1.2041   22.1526 N   0  0  0  0  0  0  0  0  0  0  0  0
    8.7651   -0.5915   21.1777 C   0  0  0  0  0  0  0  0  0  0  0  0
    9.3390    0.0511   20.5098 H   0  0  0  0  0  0  0  0  0  0  0  0
    9.3198   -2.4791   23.7548 H   0  0  0  0  0  0  0  0  0  0  0  0
    5.5972   -1.6552   21.7195 H   0  0  0  0  0  0  0  0  0  0  0  0
    5.4367    0.6508   20.1465 C   0  0  0  0  0  0  0  0  0  0  0  0
    5.0154    0.6365   21.1564 H   0  0  0  0  0  0  0  0  0  0  0  0
    8.1087   -0.4242   18.3569 H   0  0  0  0  0  0  0  0  0  0  0  0
    4.9123    1.7896   16.9881 H   0  0  0  0  0  0  0  0  0  0  0  0
    3.8720    1.8473   19.2521 H   0  0  0  0  0  0  0  0  0  0  0  0
  1  2  2  0
  2  3  1  0
  3  4  2  0
  4  5  1  0
  5  6  1  0
  6  7  2  0
  7  8  1  0
  8  9  1  0
  9 10  1  0
 10 11  1  0
 11 12  1  0
 12 13  1  0
 13 14  1  0
 14 15  1  0
 15 16  1  0
 16 17  1  0
 16 18  1  0
 15 19  1  0
 15 20  1  0
 14 21  1  0
 14 22  1  0
 13 23  1  0
 13 24  1  0
 12 25  1  0
 12 26  1  0
 11 27  1  0
 10 28  1  0
 10 29  1  0
  9 30  1  0
  9 31  1  0
  8 32  2  0
 32 33  1  0
 33 34  2  0
 34 35  1  0
 32 36  1  0
  7 37  1  0
  5 38  2  0
 38 39  1  0
  4 40  1  0
  2 41  1  0
  1 42  1  0
 38  1  1  0
 34  6  1  0
 16 11  1  0
M  CHG  1  10   1
M  END
>  <cnnaffinity>  (1) 
-5.04189

>  <filename>  (1) 
[H]c1nc([H])c(-c2c([H])nc([H])c(C([H])([H])[N+]([H])([H])C3([H])C([H])([H])C([H])([H])C([H])([H])C([H])([H])C3([H])[H])c2[H])c([H])c1[H]

$$$$
