
     RDKit          3D

 31 33  0  0  0  0  0  0  0  0999 V2000
   10.4289    1.2314   26.0481 H   0  0  0  0  0  0  0  0  0  0  0  0
    9.5754    1.6491   25.5116 C   0  0  0  0  0  0  0  0  0  0  0  0
    9.0808    0.9143   24.5225 N   0  0  0  0  0  0  0  0  0  0  0  0
    8.0415    1.4516   23.8941 C   0  0  0  0  0  0  0  0  0  0  0  0
    7.4830    0.8146   22.8369 N   0  0  0  0  0  0  0  0  0  0  0  0
    6.7951    1.4630   22.5042 H   0  0  0  0  0  0  0  0  0  0  0  0
    7.7177   -0.4225   22.1981 C   0  0  0  0  0  0  0  0  0  0  0  0
    8.3303   -1.6077   22.6974 C   0  0  0  0  0  0  0  0  0  0  0  0
    8.7360   -1.7265   23.6889 H   0  0  0  0  0  0  0  0  0  0  0  0
    8.3423   -2.5860   21.7991 N   0  0  0  0  0  0  0  0  0  0  0  0
    7.7522   -2.0347   20.7233 N   0  0  0  0  0  0  0  0  0  0  0  0
    7.5745   -2.5840   19.8928 H   0  0  0  0  0  0  0  0  0  0  0  0
    7.3479   -0.7457   20.8992 C   0  0  0  0  0  0  0  0  0  0  0  0
    6.6677    0.0241   19.8306 C   0  0  0  0  0  0  0  0  0  0  0  0
    7.1725    0.1113   18.5137 C   0  0  0  0  0  0  0  0  0  0  0  0
    8.1201   -0.3625   18.2592 H   0  0  0  0  0  0  0  0  0  0  0  0
    6.5636    0.7551   17.5092 N   0  0  0  0  0  0  0  0  0  0  0  0
    5.3958    1.3623   17.7797 C   0  0  0  0  0  0  0  0  0  0  0  0
    4.9221    1.8737   16.9424 H   0  0  0  0  0  0  0  0  0  0  0  0
    4.8047    1.3568   19.0471 C   0  0  0  0  0  0  0  0  0  0  0  0
    3.8627    1.8722   19.2056 H   0  0  0  0  0  0  0  0  0  0  0  0
    5.4617    0.6940   20.0889 C   0  0  0  0  0  0  0  0  0  0  0  0
    5.0421    0.6696   21.0941 H   0  0  0  0  0  0  0  0  0  0  0  0
    7.4132    2.6031   24.1756 N   0  0  0  0  0  0  0  0  0  0  0  0
    7.8912    3.2938   25.2259 C   0  0  0  0  0  0  0  0  0  0  0  0
    7.1916    4.5608   25.8473 C   0  0  0  0  0  0  0  0  0  0  0  0
    6.1142    4.9665   25.1823 F   0  0  0  0  0  0  0  0  0  0  0  0
    6.8193    4.3181   27.1269 F   0  0  0  0  0  0  0  0  0  0  0  0
    8.0484    5.6042   25.9343 F   0  0  0  0  0  0  0  0  0  0  0  0
    9.0415    2.8723   25.8895 C   0  0  0  0  0  0  0  0  0  0  0  0
    9.4437    3.4857   26.6774 H   0  0  0  0  0  0  0  0  0  0  0  0
  1  2  1  0
  2  3  2  0
  3  4  1  0
  4  5  1  0
  5  6  1  0
  5  7  1  0
  7  8  1  0
  8  9  1  0
  8 10  2  0
 10 11  1  0
 11 12  1  0
 11 13  1  0
 13 14  1  0
 14 15  2  0
 15 16  1  0
 15 17  1  0
 17 18  2  0
 18 19  1  0
 18 20  1  0
 20 21  1  0
 20 22  2  0
 22 23  1  0
  4 24  2  0
 24 25  1  0
 25 26  1  0
 26 27  1  0
 26 28  1  0
 26 29  1  0
 25 30  2  0
 30 31  1  0
 30  2  1  0
 13  7  2  0
 22 14  1  0
M  END
>  <cnnaffinity>  (1) 
-5.68614

>  <filename>  (1) 
[H]c1nc(N([H])c2c([H])nn([H])c2-c2c([H])nc([H])c([H])c2[H])nc(C(F)(F)F)c1[H]

$$$$
