
     RDKit          3D

 42 45  0  0  0  0  0  0  0  0999 V2000
    4.9369    1.8996   16.9719 H   0  0  0  0  0  0  0  0  0  0  0  0
    5.4175    1.3413   17.7730 C   0  0  0  0  0  0  0  0  0  0  0  0
    6.5752    0.7306   17.4626 N   0  0  0  0  0  0  0  0  0  0  0  0
    7.1912    0.0492   18.4366 C   0  0  0  0  0  0  0  0  0  0  0  0
    8.1185   -0.4461   18.1520 H   0  0  0  0  0  0  0  0  0  0  0  0
    6.7141   -0.0818   19.7697 C   0  0  0  0  0  0  0  0  0  0  0  0
    7.3772   -0.8628   20.7165 N   0  0  0  0  0  0  0  0  0  0  0  0
    6.7697   -1.3050   21.9931 C   0  0  0  0  0  0  0  0  0  0  0  0
    6.2695   -0.4799   22.5087 H   0  0  0  0  0  0  0  0  0  0  0  0
    6.0630   -2.1339   21.8580 H   0  0  0  0  0  0  0  0  0  0  0  0
    8.0242   -1.6967   22.8069 C   0  0  2  0  0  0  0  0  0  0  0  0
    7.8292   -2.4075   23.6107 H   0  0  0  0  0  0  0  0  0  0  0  0
    8.7329   -0.4666   23.3109 N   0  0  0  0  0  0  0  0  0  0  0  0
    7.8116    0.4211   23.9423 O   0  0  0  0  0  0  0  0  0  0  0  0
    8.1430    0.6790   25.3143 C   0  0  0  0  0  0  0  0  0  0  0  0
    9.2120    0.9370   25.3643 H   0  0  0  0  0  0  0  0  0  0  0  0
    7.8390   -0.5600   26.1613 C   0  0  0  0  0  0  0  0  0  0  0  0
    6.8277   -0.9127   25.9100 H   0  0  0  0  0  0  0  0  0  0  0  0
    8.5422   -1.3553   25.8816 H   0  0  0  0  0  0  0  0  0  0  0  0
    7.9191   -0.2788   27.6831 C   0  0  0  0  0  0  0  0  0  0  0  0
    7.0721   -0.7825   28.1718 H   0  0  0  0  0  0  0  0  0  0  0  0
    8.8318   -0.7169   28.1003 H   0  0  0  0  0  0  0  0  0  0  0  0
    7.9041    1.1304   28.0784 N   0  0  0  0  0  0  0  0  0  0  0  0
    8.8570    1.4885   28.0134 H   0  0  0  0  0  0  0  0  0  0  0  0
    7.0101    1.9421   27.2614 C   0  0  0  0  0  0  0  0  0  0  0  0
    7.0769    2.9756   27.6127 H   0  0  0  0  0  0  0  0  0  0  0  0
    5.9834    1.6017   27.4661 H   0  0  0  0  0  0  0  0  0  0  0  0
    7.2801    1.8799   25.7325 C   0  0  0  0  0  0  0  0  0  0  0  0
    7.7816    2.7936   25.3937 H   0  0  0  0  0  0  0  0  0  0  0  0
    6.3174    1.8454   25.2093 H   0  0  0  0  0  0  0  0  0  0  0  0
    9.1934    0.1902   22.0430 C   0  0  0  0  0  0  0  0  0  0  0  0
   10.2732    0.3729   22.0859 H   0  0  0  0  0  0  0  0  0  0  0  0
    8.6683    1.1392   21.9022 H   0  0  0  0  0  0  0  0  0  0  0  0
    8.8357   -0.8486   20.9435 C   0  0  1  0  0  0  0  0  0  0  0  0
    9.4145   -0.7395   20.0215 H   0  0  0  0  0  0  0  0  0  0  0  0
    8.9943   -2.1617   21.7165 C   0  0  0  0  0  0  0  0  0  0  0  0
   10.0082   -2.3360   22.0863 H   0  0  0  0  0  0  0  0  0  0  0  0
    8.6471   -3.0246   21.1405 H   0  0  0  0  0  0  0  0  0  0  0  0
    5.4991    0.5785   20.0632 C   0  0  0  0  0  0  0  0  0  0  0  0
    5.0880    0.5256   21.0682 H   0  0  0  0  0  0  0  0  0  0  0  0
    4.8504    1.2866   19.0482 C   0  0  0  0  0  0  0  0  0  0  0  0
    3.9188    1.8081   19.2492 H   0  0  0  0  0  0  0  0  0  0  0  0
  1  2  1  0
  2  3  2  0
  3  4  1  0
  4  5  1  0
  4  6  2  0
  6  7  1  0
  7  8  1  0
  8  9  1  0
  8 10  1  0
  8 11  1  0
 11 12  1  1
 11 13  1  0
 13 14  1  0
 14 15  1  0
 15 16  1  0
 15 17  1  0
 17 18  1  0
 17 19  1  0
 17 20  1  0
 20 21  1  0
 20 22  1  0
 20 23  1  0
 23 24  1  0
 23 25  1  0
 25 26  1  0
 25 27  1  0
 25 28  1  0
 28 29  1  0
 28 30  1  0
 13 31  1  0
 31 32  1  0
 31 33  1  0
 31 34  1  0
 34 35  1  6
 34 36  1  0
 36 37  1  0
 36 38  1  0
  6 39  1  0
 39 40  1  0
 39 41  2  0
 41 42  1  0
 41  2  1  0
 34  7  1  0
 36 11  1  0
 28 15  1  0
M  END
>  <cnnaffinity>  (1) 
-4.60944

>  <filename>  (1) 
[H]c1nc([H])c(N2C([H])([H])[C@]3([H])N(OC4([H])C([H])([H])C([H])([H])N([H])C([H])([H])C4([H])[H])C([H])([H])[C@@]2([H])C3([H])[H])c([H])c1[H]

$$$$
