
     RDKit          3D

 27 28  0  0  0  0  0  0  0  0999 V2000
    8.5234   -2.1887   21.3726 H   0  0  0  0  0  0  0  0  0  0  0  0
    8.0987   -1.7697   20.5437 N   0  0  0  0  0  0  0  0  0  0  0  0
    7.4089   -0.7654   20.9093 C   0  0  0  0  0  0  0  0  0  0  0  0
    6.6558   -0.0045   19.8953 C   0  0  0  0  0  0  0  0  0  0  0  0
    7.1736    0.0439   18.5953 C   0  0  0  0  0  0  0  0  0  0  0  0
    8.1200   -0.4328   18.3706 H   0  0  0  0  0  0  0  0  0  0  0  0
    6.5715    0.6749   17.5874 N   0  0  0  0  0  0  0  0  0  0  0  0
    5.4073    1.2875   17.8464 C   0  0  0  0  0  0  0  0  0  0  0  0
    4.9276    1.7776   17.0022 H   0  0  0  0  0  0  0  0  0  0  0  0
    4.8088    1.3020   19.1101 C   0  0  0  0  0  0  0  0  0  0  0  0
    3.8801    1.8383   19.2568 H   0  0  0  0  0  0  0  0  0  0  0  0
    5.4399    0.6431   20.1604 C   0  0  0  0  0  0  0  0  0  0  0  0
    5.0071    0.6360   21.1652 H   0  0  0  0  0  0  0  0  0  0  0  0
    7.3365   -0.2745   22.3673 C   0  0  0  0  0  0  0  0  0  0  0  0
    7.4195    1.1007   22.6979 C   0  0  0  0  0  0  0  0  0  0  0  0
    7.5234    1.8532   21.9220 H   0  0  0  0  0  0  0  0  0  0  0  0
    7.3629    1.4958   24.0275 C   0  0  0  0  0  0  0  0  0  0  0  0
    7.4336    2.5532   24.2743 H   0  0  0  0  0  0  0  0  0  0  0  0
    7.2191    0.6583   25.0729 N   0  0  0  0  0  0  0  0  0  0  0  0
    7.1233   -0.6271   24.7692 C   0  0  0  0  0  0  0  0  0  0  0  0
    6.9901   -1.5595   25.7331 O   0  0  0  0  0  0  0  0  0  0  0  0
    6.9360   -1.1753   27.1040 C   0  0  0  0  0  0  0  0  0  0  0  0
    6.0823   -0.5234   27.3097 H   0  0  0  0  0  0  0  0  0  0  0  0
    6.8181   -2.1031   27.6613 H   0  0  0  0  0  0  0  0  0  0  0  0
    7.8542   -0.6745   27.4249 H   0  0  0  0  0  0  0  0  0  0  0  0
    7.1748   -1.1418   23.4494 C   0  0  0  0  0  0  0  0  0  0  0  0
    7.0744   -2.2083   23.3121 H   0  0  0  0  0  0  0  0  0  0  0  0
  1  2  1  0
  2  3  2  3
  3  4  1  0
  4  5  2  0
  5  6  1  0
  5  7  1  0
  7  8  2  0
  8  9  1  0
  8 10  1  0
 10 11  1  0
 10 12  2  0
 12 13  1  0
  3 14  1  0
 14 15  2  0
 15 16  1  0
 15 17  1  0
 17 18  1  0
 17 19  2  0
 19 20  1  0
 20 21  1  0
 21 22  1  0
 22 23  1  0
 22 24  1  0
 22 25  1  0
 20 26  2  0
 26 27  1  0
 12  4  1  0
 26 14  1  0
M  END
>  <cnnaffinity>  (1) 
-4.81047

>  <filename>  (1) 
[H]N=C(c1c([H])nc([H])c([H])c1[H])c1c([H])c([H])nc(OC([H])([H])[H])c1[H]

$$$$
