
     RDKit          3D

 36 38  0  0  0  0  0  0  0  0999 V2000
    9.7376   -1.3070   24.3301 H   0  0  0  0  0  0  0  0  0  0  0  0
    9.3807   -0.5025   23.8236 N   0  0  0  0  0  0  0  0  0  0  0  0
    8.6675   -0.9321   22.8658 C   0  0  0  0  0  0  0  0  0  0  0  0
    8.3672   -2.6162   22.3513 S   0  0  0  0  0  0  0  0  0  0  0  0
    7.4636   -2.0622   20.9750 C   0  0  0  0  0  0  0  0  0  0  0  0
    7.0048   -2.7271   20.2664 H   0  0  0  0  0  0  0  0  0  0  0  0
    7.3667   -0.7269   20.9333 C   0  0  0  0  0  0  0  0  0  0  0  0
    6.6424    0.0284   19.9011 C   0  0  0  0  0  0  0  0  0  0  0  0
    7.1567    0.0680   18.5994 C   0  0  0  0  0  0  0  0  0  0  0  0
    8.1051   -0.4158   18.3661 H   0  0  0  0  0  0  0  0  0  0  0  0
    6.5536    0.6842   17.5747 N   0  0  0  0  0  0  0  0  0  0  0  0
    5.3910    1.3061   17.8241 C   0  0  0  0  0  0  0  0  0  0  0  0
    4.9281    1.8045   16.9735 H   0  0  0  0  0  0  0  0  0  0  0  0
    4.7877    1.3292   19.0865 C   0  0  0  0  0  0  0  0  0  0  0  0
    3.8522    1.8569   19.2244 H   0  0  0  0  0  0  0  0  0  0  0  0
    5.4237    0.6794   20.1438 C   0  0  0  0  0  0  0  0  0  0  0  0
    4.9919    0.6573   21.1470 H   0  0  0  0  0  0  0  0  0  0  0  0
    8.0260   -0.0916   21.9805 N   0  0  0  0  0  0  0  0  0  0  0  0
    8.1942    1.3277   22.1571 C   0  0  0  0  0  0  0  0  0  0  0  0
    7.6628    1.8127   21.3233 H   0  0  0  0  0  0  0  0  0  0  0  0
    9.2655    1.5552   22.0926 H   0  0  0  0  0  0  0  0  0  0  0  0
    7.7111    1.7872   23.4401 N   0  0  0  0  0  0  0  0  0  0  0  0
    8.1235    3.1712   23.7351 C   0  0  0  0  0  0  0  0  0  0  0  0
    9.2163    3.2441   23.6722 H   0  0  0  0  0  0  0  0  0  0  0  0
    7.6988    3.8931   23.0021 H   0  0  0  0  0  0  0  0  0  0  0  0
    7.6695    3.6161   25.1436 C   0  0  0  0  0  0  0  0  0  0  0  0
    7.9593    4.6606   25.3096 H   0  0  0  0  0  0  0  0  0  0  0  0
    8.1858    3.0053   25.8985 H   0  0  0  0  0  0  0  0  0  0  0  0
    6.2196    3.4733   25.3797 N   0  0  0  0  0  0  0  0  0  0  0  0
    5.7166    4.1296   24.7786 H   0  0  0  0  0  0  0  0  0  0  0  0
    5.8242    2.0925   25.0348 C   0  0  0  0  0  0  0  0  0  0  0  0
    4.7365    1.9989   25.1299 H   0  0  0  0  0  0  0  0  0  0  0  0
    6.2840    1.4290   25.7814 H   0  0  0  0  0  0  0  0  0  0  0  0
    6.2590    1.6343   23.6224 C   0  0  0  0  0  0  0  0  0  0  0  0
    5.9880    0.5837   23.4715 H   0  0  0  0  0  0  0  0  0  0  0  0
    5.6999    2.2469   22.8807 H   0  0  0  0  0  0  0  0  0  0  0  0
  1  2  1  0
  2  3  2  3
  3  4  1  0
  4  5  1  0
  5  6  1  0
  5  7  2  0
  7  8  1  0
  8  9  2  0
  9 10  1  0
  9 11  1  0
 11 12  2  0
 12 13  1  0
 12 14  1  0
 14 15  1  0
 14 16  2  0
 16 17  1  0
  7 18  1  0
 18 19  1  0
 19 20  1  0
 19 21  1  0
 19 22  1  0
 22 23  1  0
 23 24  1  0
 23 25  1  0
 23 26  1  0
 26 27  1  0
 26 28  1  0
 26 29  1  0
 29 30  1  0
 29 31  1  0
 31 32  1  0
 31 33  1  0
 31 34  1  0
 34 35  1  0
 34 36  1  0
 18  3  1  0
 34 22  1  0
 16  8  1  0
M  END
>  <cnnaffinity>  (1) 
-4.95688

>  <filename>  (1) 
[H]N=c1sc([H])c(-c2c([H])nc([H])c([H])c2[H])n1C([H])([H])N1C([H])([H])C([H])([H])N([H])C([H])([H])C1([H])[H]

$$$$
