
     RDKit          3D

 28 30  0  0  0  0  0  0  0  0999 V2000
    9.2270   -1.6059   24.7103 H   0  0  0  0  0  0  0  0  0  0  0  0
    8.5324   -0.9273   24.4073 N   0  0  0  0  0  0  0  0  0  0  0  0
    8.0674   -1.3001   23.2918 C   0  0  0  0  0  0  0  0  0  0  0  0
    8.4156   -2.7613   22.3409 S   0  0  0  0  0  0  0  0  0  0  0  0
    7.5115   -2.1342   21.0063 C   0  0  0  0  0  0  0  0  0  0  0  0
    7.3015   -2.7360   20.1426 H   0  0  0  0  0  0  0  0  0  0  0  0
    7.0047   -0.9155   21.2446 C   0  0  0  0  0  0  0  0  0  0  0  0
    6.4340   -0.0452   20.2126 C   0  0  0  0  0  0  0  0  0  0  0  0
    7.0917   -0.0283   18.9693 C   0  0  0  0  0  0  0  0  0  0  0  0
    8.0624   -0.5195   18.8813 H   0  0  0  0  0  0  0  0  0  0  0  0
    6.6320    0.5736   17.8705 N   0  0  0  0  0  0  0  0  0  0  0  0
    5.4885    1.2614   17.9981 C   0  0  0  0  0  0  0  0  0  0  0  0
    5.1279    1.7505   17.0951 H   0  0  0  0  0  0  0  0  0  0  0  0
    4.7884    1.3818   19.2059 C   0  0  0  0  0  0  0  0  0  0  0  0
    3.8969    1.9973   19.2358 H   0  0  0  0  0  0  0  0  0  0  0  0
    5.2697    0.7264   20.3408 C   0  0  0  0  0  0  0  0  0  0  0  0
    4.7694    0.8006   21.3064 H   0  0  0  0  0  0  0  0  0  0  0  0
    7.1367   -0.5291   22.5827 N   0  0  0  0  0  0  0  0  0  0  0  0
    6.6918    0.7012   23.1026 C   0  0  0  0  0  0  0  0  0  0  0  0
    5.9477    0.6235   23.9013 H   0  0  0  0  0  0  0  0  0  0  0  0
    7.2905    1.8437   22.7459 C   0  0  0  0  0  0  0  0  0  0  0  0
    6.7808    3.4437   23.2548 S   0  0  0  0  0  0  0  0  0  0  0  0
    7.9425    4.2108   22.1252 C   0  0  0  0  0  0  0  0  0  0  0  0
    8.0485    5.3829   21.9081 O   0  0  0  0  0  0  0  0  0  0  0  0
    8.6971    3.2450   21.5378 N   0  0  0  0  0  0  0  0  0  0  0  0
    9.4080    3.5240   20.8856 H   0  0  0  0  0  0  0  0  0  0  0  0
    8.4248    1.9285   21.7772 C   0  0  0  0  0  0  0  0  0  0  0  0
    9.0627    1.0488   21.2525 O   0  0  0  0  0  0  0  0  0  0  0  0
  1  2  1  0
  2  3  2  3
  3  4  1  0
  4  5  1  0
  5  6  1  0
  5  7  2  0
  7  8  1  0
  8  9  2  0
  9 10  1  0
  9 11  1  0
 11 12  2  0
 12 13  1  0
 12 14  1  0
 14 15  1  0
 14 16  2  0
 16 17  1  0
  7 18  1  0
 18 19  1  0
 19 20  1  0
 19 21  2  3
 21 22  1  0
 22 23  1  0
 23 24  2  0
 23 25  1  0
 25 26  1  0
 25 27  1  0
 27 28  2  0
 18  3  1  0
 27 21  1  0
 16  8  1  0
M  END
>  <cnnaffinity>  (1) 
-4.76634

>  <filename>  (1) 
[H]N=c1sc([H])c(-c2c([H])nc([H])c([H])c2[H])n1C([H])=C1SC(=O)N([H])C1=O

$$$$
