
     RDKit          3D

 31 33  0  0  0  0  0  0  0  0999 V2000
    9.3466    1.7782   25.6430 H   0  0  0  0  0  0  0  0  0  0  0  0
   10.2687    2.0495   25.5104 O   0  0  0  0  0  0  0  0  0  0  0  0
   10.4844    2.1808   24.1799 C   0  0  0  0  0  0  0  0  0  0  0  0
   11.7193    2.6611   23.7998 C   0  0  0  0  0  0  0  0  0  0  0  0
   12.3953    2.8877   24.5937 H   0  0  0  0  0  0  0  0  0  0  0  0
   12.0328    2.8573   22.4594 C   0  0  0  0  0  0  0  0  0  0  0  0
   13.5389    3.6691   22.1453 Cl  0  0  0  0  0  0  0  0  0  0  0  0
   11.1308    2.4657   21.4678 C   0  0  0  0  0  0  0  0  0  0  0  0
   11.4025    2.5606   20.4238 H   0  0  0  0  0  0  0  0  0  0  0  0
    9.8615    1.9741   21.8418 C   0  0  0  0  0  0  0  0  0  0  0  0
    9.1200    1.6927   21.0928 H   0  0  0  0  0  0  0  0  0  0  0  0
    9.5202    1.8701   23.1957 C   0  0  0  0  0  0  0  0  0  0  0  0
    8.3022    1.4890   23.7127 O   0  0  0  0  0  0  0  0  0  0  0  0
    7.3024    1.0024   22.8425 C   0  0  0  0  0  0  0  0  0  0  0  0
    7.0963    1.7532   22.0685 H   0  0  0  0  0  0  0  0  0  0  0  0
    6.4232    0.8872   23.4817 H   0  0  0  0  0  0  0  0  0  0  0  0
    7.6553   -0.3187   22.2118 C   0  0  0  0  0  0  0  0  0  0  0  0
    8.2821   -1.3193   22.7782 N   0  0  0  0  0  0  0  0  0  0  0  0
    8.4060   -2.2767   21.8330 N   0  0  0  0  0  0  0  0  0  0  0  0
    7.8805   -1.9025   20.7262 N   0  0  0  0  0  0  0  0  0  0  0  0
    7.3802   -0.6664   20.9272 N   0  0  0  0  0  0  0  0  0  0  0  0
    6.6568    0.0107   19.9031 C   0  0  0  0  0  0  0  0  0  0  0  0
    7.1719    0.0388   18.5952 C   0  0  0  0  0  0  0  0  0  0  0  0
    8.1175   -0.4546   18.3788 H   0  0  0  0  0  0  0  0  0  0  0  0
    6.5689    0.6650   17.5823 N   0  0  0  0  0  0  0  0  0  0  0  0
    5.4060    1.2932   17.8331 C   0  0  0  0  0  0  0  0  0  0  0  0
    4.9444    1.8008   16.9893 H   0  0  0  0  0  0  0  0  0  0  0  0
    4.8043    1.3034   19.0945 C   0  0  0  0  0  0  0  0  0  0  0  0
    3.8718    1.8381   19.2438 H   0  0  0  0  0  0  0  0  0  0  0  0
    5.4344    0.6435   20.1566 C   0  0  0  0  0  0  0  0  0  0  0  0
    4.9817    0.6228   21.1471 H   0  0  0  0  0  0  0  0  0  0  0  0
  1  2  1  0
  2  3  1  0
  3  4  2  0
  4  5  1  0
  4  6  1  0
  6  7  1  0
  6  8  2  0
  8  9  1  0
  8 10  1  0
 10 11  1  0
 10 12  2  0
 12 13  1  0
 13 14  1  0
 14 15  1  0
 14 16  1  0
 14 17  1  0
 17 18  2  0
 18 19  1  0
 19 20  2  0
 20 21  1  0
 21 22  1  0
 22 23  2  0
 23 24  1  0
 23 25  1  0
 25 26  2  0
 26 27  1  0
 26 28  1  0
 28 29  1  0
 28 30  2  0
 30 31  1  0
 12  3  1  0
 21 17  1  0
 30 22  1  0
M  END
>  <cnnaffinity>  (1) 
-5.0674

>  <filename>  (1) 
[H]Oc1c([H])c(Cl)c([H])c([H])c1OC([H])([H])c1nnnn1-c1c([H])nc([H])c([H])c1[H]

$$$$
