
     RDKit          3D

 35 36  0  0  0  0  0  0  0  0999 V2000
   12.2777    1.6939   25.8351 H   0  0  0  0  0  0  0  0  0  0  0  0
   11.4937    1.5274   25.2798 O   0  0  0  0  0  0  0  0  0  0  0  0
   11.8829    1.7825   23.9562 N   0  0  0  0  0  0  0  0  0  0  0  0
   11.5955    1.0074   23.3687 H   0  0  0  0  0  0  0  0  0  0  0  0
   11.5577    3.0196   23.3961 C   0  0  0  0  0  0  0  0  0  0  0  0
   11.6303    4.0702   23.9932 O   0  0  0  0  0  0  0  0  0  0  0  0
   11.1361    2.8911   21.9434 C   0  0  0  0  0  0  0  0  0  0  0  0
   11.6662    2.0652   21.4490 H   0  0  0  0  0  0  0  0  0  0  0  0
   11.4884    3.8101   21.4765 H   0  0  0  0  0  0  0  0  0  0  0  0
    9.5946    2.7667   21.8078 C   0  0  0  0  0  0  0  0  0  0  0  0
    9.2949    2.9092   20.7615 H   0  0  0  0  0  0  0  0  0  0  0  0
    9.1333    3.6088   22.3453 H   0  0  0  0  0  0  0  0  0  0  0  0
    9.0088    1.4270   22.2660 C   0  0  0  0  0  0  0  0  0  0  0  0
    9.2882    1.1827   23.2976 H   0  0  0  0  0  0  0  0  0  0  0  0
    7.9149    1.5015   22.2888 H   0  0  0  0  0  0  0  0  0  0  0  0
    9.3847    0.2587   21.3334 C   0  0  0  0  0  0  0  0  0  0  0  0
    9.3270    0.5825   20.2882 H   0  0  0  0  0  0  0  0  0  0  0  0
   10.4197   -0.0536   21.5021 H   0  0  0  0  0  0  0  0  0  0  0  0
    8.5085   -0.9269   21.5371 C   0  0  0  0  0  0  0  0  0  0  0  0
    8.5941   -1.9209   22.4272 C   0  0  0  0  0  0  0  0  0  0  0  0
    9.3548   -2.2333   23.1344 H   0  0  0  0  0  0  0  0  0  0  0  0
    7.4341   -2.6633   22.4202 O   0  0  0  0  0  0  0  0  0  0  0  0
    6.5654   -2.1399   21.5048 C   0  0  0  0  0  0  0  0  0  0  0  0
    5.4640   -2.5756   21.2846 O   0  0  0  0  0  0  0  0  0  0  0  0
    7.2500   -1.0762   20.9053 N   0  0  0  0  0  0  0  0  0  0  0  0
    6.6749   -0.2507   19.8804 C   0  0  0  0  0  0  0  0  0  0  0  0
    7.2380   -0.1267   18.5890 C   0  0  0  0  0  0  0  0  0  0  0  0
    8.1395   -0.6805   18.3302 H   0  0  0  0  0  0  0  0  0  0  0  0
    6.7052    0.6210   17.6114 N   0  0  0  0  0  0  0  0  0  0  0  0
    5.5803    1.2984   17.8892 C   0  0  0  0  0  0  0  0  0  0  0  0
    5.1629    1.9015   17.0846 H   0  0  0  0  0  0  0  0  0  0  0  0
    4.9449    1.2444   19.1348 C   0  0  0  0  0  0  0  0  0  0  0  0
    4.0429    1.8238   19.3011 H   0  0  0  0  0  0  0  0  0  0  0  0
    5.4921    0.4488   20.1455 C   0  0  0  0  0  0  0  0  0  0  0  0
    5.0205    0.3467   21.1235 H   0  0  0  0  0  0  0  0  0  0  0  0
  1  2  1  0
  2  3  1  0
  3  4  1  0
  3  5  1  0
  5  6  2  0
  5  7  1  0
  7  8  1  0
  7  9  1  0
  7 10  1  0
 10 11  1  0
 10 12  1  0
 10 13  1  0
 13 14  1  0
 13 15  1  0
 13 16  1  0
 16 17  1  0
 16 18  1  0
 16 19  1  0
 19 20  2  0
 20 21  1  0
 20 22  1  0
 22 23  1  0
 23 24  2  0
 23 25  1  0
 25 26  1  0
 26 27  2  0
 27 28  1  0
 27 29  1  0
 29 30  2  0
 30 31  1  0
 30 32  1  0
 32 33  1  0
 32 34  2  0
 34 35  1  0
 25 19  1  0
 34 26  1  0
M  END
>  <cnnaffinity>  (1) 
-5.18868

>  <filename>  (1) 
[H]ON([H])C(=O)C([H])([H])C([H])([H])C([H])([H])C([H])([H])c1c([H])oc(=O)n1-c1c([H])nc([H])c([H])c1[H]

$$$$
