
     RDKit          3D

 33 34  0  0  0  0  0  0  0  0999 V2000
    8.4107   -2.2322   20.2949 H   0  0  0  0  0  0  0  0  0  0  0  0
    8.6070   -1.2899   20.3978 O   0  0  0  0  0  0  0  0  0  0  0  0
    7.4584   -0.6778   20.9358 C   0  0  2  0  0  0  0  0  0  0  0  0
    6.6842    0.0446   19.8436 C   0  0  0  0  0  0  0  0  0  0  0  0
    7.1840    0.0746   18.5374 C   0  0  0  0  0  0  0  0  0  0  0  0
    8.1212   -0.4373   18.3298 H   0  0  0  0  0  0  0  0  0  0  0  0
    6.5825    0.6923   17.5113 N   0  0  0  0  0  0  0  0  0  0  0  0
    5.4236    1.3161   17.7615 C   0  0  0  0  0  0  0  0  0  0  0  0
    4.9516    1.8075   16.9118 H   0  0  0  0  0  0  0  0  0  0  0  0
    4.8164    1.3290   19.0229 C   0  0  0  0  0  0  0  0  0  0  0  0
    3.8663    1.8365   19.1497 H   0  0  0  0  0  0  0  0  0  0  0  0
    5.4546    0.6810   20.0819 C   0  0  0  0  0  0  0  0  0  0  0  0
    4.9965    0.6685   21.0751 H   0  0  0  0  0  0  0  0  0  0  0  0
    7.9584    0.3239   21.9837 C   0  0  0  0  0  0  0  0  0  0  0  0
    8.5289   -0.1931   22.7642 H   0  0  0  0  0  0  0  0  0  0  0  0
    7.1289    0.8743   22.4452 H   0  0  0  0  0  0  0  0  0  0  0  0
    8.6233    1.0513   21.5014 H   0  0  0  0  0  0  0  0  0  0  0  0
    6.5478   -1.7912   21.4829 C   0  0  0  0  0  0  0  0  0  0  0  0
    5.6923   -1.3568   21.9760 H   0  0  0  0  0  0  0  0  0  0  0  0
    6.1561   -2.3636   20.6385 H   0  0  0  0  0  0  0  0  0  0  0  0
    7.3104   -2.7200   22.3838 C   0  0  0  0  0  0  0  0  0  0  0  0
    7.9574   -3.6245   21.8831 O   0  0  0  0  0  0  0  0  0  0  0  0
    7.3228   -2.4575   23.8669 C   0  0  0  0  0  0  0  0  0  0  0  0
    6.6228   -1.3647   24.4202 C   0  0  0  0  0  0  0  0  0  0  0  0
    5.9500   -0.7419   23.8437 H   0  0  0  0  0  0  0  0  0  0  0  0
    6.8124   -0.9781   25.7408 C   0  0  0  0  0  0  0  0  0  0  0  0
    6.2638   -0.1429   26.1585 H   0  0  0  0  0  0  0  0  0  0  0  0
    7.7168   -1.6891   26.5154 C   0  0  0  0  0  0  0  0  0  0  0  0
    8.0067   -1.2479   27.7424 F   0  0  0  0  0  0  0  0  0  0  0  0
    8.3443   -2.8380   26.0416 C   0  0  0  0  0  0  0  0  0  0  0  0
    8.9854   -3.3950   26.7132 H   0  0  0  0  0  0  0  0  0  0  0  0
    8.1366   -3.2301   24.7204 C   0  0  0  0  0  0  0  0  0  0  0  0
    8.6347   -4.1279   24.3569 H   0  0  0  0  0  0  0  0  0  0  0  0
  1  2  1  0
  3  2  1  6
  3  4  1  0
  4  5  2  0
  5  6  1  0
  5  7  1  0
  7  8  2  0
  8  9  1  0
  8 10  1  0
 10 11  1  0
 10 12  2  0
 12 13  1  0
  3 14  1  0
 14 15  1  0
 14 16  1  0
 14 17  1  0
  3 18  1  0
 18 19  1  0
 18 20  1  0
 18 21  1  0
 21 22  2  0
 21 23  1  0
 23 24  2  0
 24 25  1  0
 24 26  1  0
 26 27  1  0
 26 28  2  0
 28 29  1  0
 28 30  1  0
 30 31  1  0
 30 32  2  0
 32 33  1  0
 12  4  1  0
 32 23  1  0
M  END
>  <cnnaffinity>  (1) 
-4.54645

>  <filename>  (1) 
[H]O[C@](c1c([H])nc([H])c([H])c1[H])(C([H])([H])[H])C([H])([H])C(=O)c1c([H])c([H])c(F)c([H])c1[H]

$$$$
