
     RDKit          3D

 37 40  0  0  0  0  0  0  0  0999 V2000
    3.5739   -4.3983   24.5412 H   0  0  0  0  0  0  0  0  0  0  0  0
    3.5431   -5.0624   25.2483 O   0  0  0  0  0  0  0  0  0  0  0  0
    4.7556   -5.0578   25.8564 C   0  0  0  0  0  0  0  0  0  0  0  0
    4.9606   -5.9316   26.9188 C   0  0  0  0  0  0  0  0  0  0  0  0
    4.1382   -6.5647   27.2269 H   0  0  0  0  0  0  0  0  0  0  0  0
    6.2047   -5.9644   27.5600 C   0  0  0  0  0  0  0  0  0  0  0  0
    6.4382   -7.0396   28.9039 Cl  0  0  0  0  0  0  0  0  0  0  0  0
    7.2593   -5.1560   27.1324 C   0  0  0  0  0  0  0  0  0  0  0  0
    8.2215   -5.1978   27.6333 H   0  0  0  0  0  0  0  0  0  0  0  0
    7.0585   -4.2774   26.0584 C   0  0  0  0  0  0  0  0  0  0  0  0
    7.8655   -3.6514   25.6818 H   0  0  0  0  0  0  0  0  0  0  0  0
    5.8010   -4.1936   25.4640 C   0  0  0  0  0  0  0  0  0  0  0  0
    5.4458   -3.3015   24.4528 O   0  0  0  0  0  0  0  0  0  0  0  0
    6.1651   -2.1800   24.2013 C   0  0  0  0  0  0  0  0  0  0  0  0
    6.6230   -1.6841   23.0156 C   0  0  0  0  0  0  0  0  0  0  0  0
    7.2377   -0.4760   23.3630 C   0  0  0  0  0  0  0  0  0  0  0  0
    7.1938   -0.2043   24.6507 N   0  0  0  0  0  0  0  0  0  0  0  0
    6.5035   -1.2737   25.1611 N   0  0  0  0  0  0  0  0  0  0  0  0
    6.5287   -1.4435   26.1570 H   0  0  0  0  0  0  0  0  0  0  0  0
    7.8275    0.2166   22.1761 C   0  0  0  0  0  0  0  0  0  0  0  0
    8.9129    0.3133   22.2682 H   0  0  0  0  0  0  0  0  0  0  0  0
    7.4429    1.2359   22.0797 H   0  0  0  0  0  0  0  0  0  0  0  0
    7.4410   -0.7147   20.9696 C   0  0  2  0  0  0  0  0  0  0  0  0
    8.3753   -1.1017   20.5446 H   0  0  0  0  0  0  0  0  0  0  0  0
    6.6854    0.0154   19.8707 C   0  0  0  0  0  0  0  0  0  0  0  0
    7.1681    0.0740   18.5487 C   0  0  0  0  0  0  0  0  0  0  0  0
    8.1127   -0.4103   18.3001 H   0  0  0  0  0  0  0  0  0  0  0  0
    6.5509    0.6921   17.5338 N   0  0  0  0  0  0  0  0  0  0  0  0
    5.3927    1.3102   17.8074 C   0  0  0  0  0  0  0  0  0  0  0  0
    4.9170    1.8219   16.9733 H   0  0  0  0  0  0  0  0  0  0  0  0
    4.8056    1.3148   19.0764 C   0  0  0  0  0  0  0  0  0  0  0  0
    3.8689    1.8400   19.2298 H   0  0  0  0  0  0  0  0  0  0  0  0
    5.4607    0.6577   20.1212 C   0  0  0  0  0  0  0  0  0  0  0  0
    5.0267    0.6542   21.1227 H   0  0  0  0  0  0  0  0  0  0  0  0
    6.6440   -1.9414   21.5476 C   0  0  0  0  0  0  0  0  0  0  0  0
    7.1310   -2.8864   21.2759 H   0  0  0  0  0  0  0  0  0  0  0  0
    5.6295   -2.0033   21.1302 H   0  0  0  0  0  0  0  0  0  0  0  0
  1  2  1  0
  2  3  1  0
  3  4  2  0
  4  5  1  0
  4  6  1  0
  6  7  1  0
  6  8  2  0
  8  9  1  0
  8 10  1  0
 10 11  1  0
 10 12  2  0
 12 13  1  0
 13 14  1  0
 14 15  2  0
 15 16  1  0
 16 17  2  0
 17 18  1  0
 18 19  1  0
 16 20  1  0
 20 21  1  0
 20 22  1  0
 20 23  1  0
 23 24  1  6
 23 25  1  0
 25 26  2  0
 26 27  1  0
 26 28  1  0
 28 29  2  0
 29 30  1  0
 29 31  1  0
 31 32  1  0
 31 33  2  0
 33 34  1  0
 23 35  1  0
 35 36  1  0
 35 37  1  0
 12  3  1  0
 18 14  1  0
 33 25  1  0
 35 15  1  0
M  END
>  <cnnaffinity>  (1) 
-5.45901

>  <filename>  (1) 
[H]Oc1c([H])c(Cl)c([H])c([H])c1Oc1c2c(nn1[H])C([H])([H])[C@]([H])(c1c([H])nc([H])c([H])c1[H])C2([H])[H]

$$$$
