
     RDKit          3D

 31 33  0  0  0  0  0  0  0  0999 V2000
    8.1689    5.4333   24.8802 H   0  0  0  0  0  0  0  0  0  0  0  0
    7.4620    5.2445   25.5063 O   0  0  0  0  0  0  0  0  0  0  0  0
    6.3675    4.7644   24.7340 C   0  0  0  0  0  0  0  0  0  0  0  0
    6.0658    5.5049   23.9788 H   0  0  0  0  0  0  0  0  0  0  0  0
    5.5435    4.6664   25.4421 H   0  0  0  0  0  0  0  0  0  0  0  0
    6.6354    3.4374   24.0600 C   0  0  0  0  0  0  0  0  0  0  0  0
    6.4345    2.2306   24.7534 C   0  0  0  0  0  0  0  0  0  0  0  0
    6.0806    2.2486   25.7827 H   0  0  0  0  0  0  0  0  0  0  0  0
    6.7324    1.0101   24.1510 C   0  0  0  0  0  0  0  0  0  0  0  0
    6.5821    0.0726   24.6824 H   0  0  0  0  0  0  0  0  0  0  0  0
    7.2273    0.9689   22.8404 C   0  0  0  0  0  0  0  0  0  0  0  0
    7.5426   -0.3296   22.2452 C   0  0  0  0  0  0  0  0  0  0  0  0
    8.1717   -1.4193   22.7925 C   0  0  0  0  0  0  0  0  0  0  0  0
    8.5198   -1.5438   23.8072 H   0  0  0  0  0  0  0  0  0  0  0  0
    8.3600   -2.3556   21.8327 N   0  0  0  0  0  0  0  0  0  0  0  0
    7.8683   -1.9176   20.7218 N   0  0  0  0  0  0  0  0  0  0  0  0
    7.3556   -0.6880   20.9352 N   0  0  0  0  0  0  0  0  0  0  0  0
    6.6427   -0.0105   19.9031 C   0  0  0  0  0  0  0  0  0  0  0  0
    7.1747    0.0416   18.6028 C   0  0  0  0  0  0  0  0  0  0  0  0
    8.1223   -0.4408   18.3814 H   0  0  0  0  0  0  0  0  0  0  0  0
    6.5761    0.6723   17.5908 N   0  0  0  0  0  0  0  0  0  0  0  0
    5.4095    1.2915   17.8380 C   0  0  0  0  0  0  0  0  0  0  0  0
    4.9360    1.7876   16.9930 H   0  0  0  0  0  0  0  0  0  0  0  0
    4.8076    1.2946   19.1014 C   0  0  0  0  0  0  0  0  0  0  0  0
    3.8825    1.8345   19.2531 H   0  0  0  0  0  0  0  0  0  0  0  0
    5.4216    0.6242   20.1611 C   0  0  0  0  0  0  0  0  0  0  0  0
    5.0085    0.6406   21.1742 H   0  0  0  0  0  0  0  0  0  0  0  0
    7.4566    2.1724   22.1509 C   0  0  0  0  0  0  0  0  0  0  0  0
    7.8474    2.1313   21.1379 H   0  0  0  0  0  0  0  0  0  0  0  0
    7.1501    3.3905   22.7519 C   0  0  0  0  0  0  0  0  0  0  0  0
    7.3245    4.3122   22.1980 H   0  0  0  0  0  0  0  0  0  0  0  0
  1  2  1  0
  2  3  1  0
  3  4  1  0
  3  5  1  0
  3  6  1  0
  6  7  2  0
  7  8  1  0
  7  9  1  0
  9 10  1  0
  9 11  2  0
 11 12  1  0
 12 13  2  0
 13 14  1  0
 13 15  1  0
 15 16  2  0
 16 17  1  0
 17 18  1  0
 18 19  2  0
 19 20  1  0
 19 21  1  0
 21 22  2  0
 22 23  1  0
 22 24  1  0
 24 25  1  0
 24 26  2  0
 26 27  1  0
 11 28  1  0
 28 29  1  0
 28 30  2  0
 30 31  1  0
 30  6  1  0
 17 12  1  0
 26 18  1  0
M  END
>  <cnnaffinity>  (1) 
-4.80399

>  <filename>  (1) 
[H]OC([H])([H])c1c([H])c([H])c(-c2c([H])nnn2-c2c([H])nc([H])c([H])c2[H])c([H])c1[H]

$$$$
