
     RDKit          3D

 29 31  0  0  0  0  0  0  0  0999 V2000
    9.3777   -5.0836   26.1943 O   0  0  0  0  0  0  0  0  0  0  0  0
    8.5608   -4.0882   25.7566 C   0  0  0  0  0  0  0  0  0  0  0  0
    7.5650   -3.6574   26.6321 C   0  0  0  0  0  0  0  0  0  0  0  0
    6.6828   -2.6437   26.2640 C   0  0  0  0  0  0  0  0  0  0  0  0
    6.7867   -2.0412   25.0157 C   0  0  0  0  0  0  0  0  0  0  0  0
    7.7793   -2.4427   24.1043 C   0  0  0  0  0  0  0  0  0  0  0  0
    7.8680   -1.7803   22.7896 C   0  0  0  0  0  0  0  0  0  0  0  0
    6.8586   -1.1792   22.0806 C   0  0  0  0  0  0  0  0  0  0  0  0
    7.3752   -0.6809   20.9325 N   0  0  0  0  0  0  0  0  0  0  0  0
    6.6712    0.0079   19.9113 C   0  0  0  0  0  0  0  0  0  0  0  0
    5.4461    0.6464   20.1685 C   0  0  0  0  0  0  0  0  0  0  0  0
    4.8153    1.3043   19.1110 C   0  0  0  0  0  0  0  0  0  0  0  0
    5.4055    1.2877   17.8438 C   0  0  0  0  0  0  0  0  0  0  0  0
    6.5697    0.6652   17.5926 N   0  0  0  0  0  0  0  0  0  0  0  0
    7.1881    0.0540   18.6061 C   0  0  0  0  0  0  0  0  0  0  0  0
    8.1318   -0.4300   18.3747 H   0  0  0  0  0  0  0  0  0  0  0  0
    4.9249    1.7781   16.9989 H   0  0  0  0  0  0  0  0  0  0  0  0
    3.8829    1.8356   19.2637 H   0  0  0  0  0  0  0  0  0  0  0  0
    5.0054    0.6486   21.1668 H   0  0  0  0  0  0  0  0  0  0  0  0
    8.6979   -0.9372   20.8432 N   0  0  0  0  0  0  0  0  0  0  0  0
    8.9984   -1.5869   21.9536 C   0  0  0  0  0  0  0  0  0  0  0  0
   10.0092   -1.9052   22.1540 H   0  0  0  0  0  0  0  0  0  0  0  0
    5.8097   -1.0944   22.2902 H   0  0  0  0  0  0  0  0  0  0  0  0
    8.6460   -3.4744   24.4972 C   0  0  0  0  0  0  0  0  0  0  0  0
    9.6097   -3.9108   23.6390 F   0  0  0  0  0  0  0  0  0  0  0  0
    6.1010   -1.2453   24.7337 H   0  0  0  0  0  0  0  0  0  0  0  0
    5.9100   -2.3243   26.9514 H   0  0  0  0  0  0  0  0  0  0  0  0
    7.5078   -4.1445   27.5950 H   0  0  0  0  0  0  0  0  0  0  0  0
   10.0185   -5.2839   25.5030 H   0  0  0  0  0  0  0  0  0  0  0  0
  1  2  1  0
  2  3  2  0
  3  4  1  0
  4  5  2  0
  5  6  1  0
  6  7  1  0
  7  8  2  0
  8  9  1  0
  9 10  1  0
 10 11  2  0
 11 12  1  0
 12 13  2  0
 13 14  1  0
 14 15  2  0
 15 16  1  0
 13 17  1  0
 12 18  1  0
 11 19  1  0
  9 20  1  0
 20 21  2  0
 21 22  1  0
  8 23  1  0
  6 24  2  0
 24 25  1  0
  5 26  1  0
  4 27  1  0
  3 28  1  0
  1 29  1  0
 24  2  1  0
 21  7  1  0
 15 10  1  0
M  END
>  <cnnaffinity>  (1) 
-5.26381

>  <filename>  (1) 
[H]Oc1c([H])c([H])c([H])c(-c2c([H])nn(-c3c([H])nc([H])c([H])c3[H])c2[H])c1F

$$$$
