
     RDKit          3D

 32 34  0  0  0  0  0  0  0  0999 V2000
    7.4836    3.1790   23.0433 H   0  0  0  0  0  0  0  0  0  0  0  0
    7.2375    3.4489   23.9383 O   0  0  0  0  0  0  0  0  0  0  0  0
    6.7141    2.3808   24.5891 C   0  0  0  0  0  0  0  0  0  0  0  0
    6.2951    2.6192   25.8938 C   0  0  0  0  0  0  0  0  0  0  0  0
    6.4260    3.6193   26.2877 H   0  0  0  0  0  0  0  0  0  0  0  0
    5.7291    1.5916   26.6413 C   0  0  0  0  0  0  0  0  0  0  0  0
    5.2297    1.9134   28.2672 Cl  0  0  0  0  0  0  0  0  0  0  0  0
    5.5596    0.3204   26.0994 C   0  0  0  0  0  0  0  0  0  0  0  0
    5.1220   -0.4581   26.7079 H   0  0  0  0  0  0  0  0  0  0  0  0
    5.9755    0.0754   24.7890 C   0  0  0  0  0  0  0  0  0  0  0  0
    5.8525   -0.9101   24.3557 H   0  0  0  0  0  0  0  0  0  0  0  0
    6.5793    1.0816   24.0375 C   0  0  0  0  0  0  0  0  0  0  0  0
    6.9915    0.8988   22.7286 O   0  0  0  0  0  0  0  0  0  0  0  0
    7.4630   -0.3117   22.2703 C   0  0  0  0  0  0  0  0  0  0  0  0
    7.3632   -0.6858   20.9713 C   0  0  0  0  0  0  0  0  0  0  0  0
    6.6523    0.0097   19.9006 C   0  0  0  0  0  0  0  0  0  0  0  0
    7.1587    0.0551   18.5854 C   0  0  0  0  0  0  0  0  0  0  0  0
    8.1151   -0.4177   18.3568 H   0  0  0  0  0  0  0  0  0  0  0  0
    6.5563    0.6773   17.5691 N   0  0  0  0  0  0  0  0  0  0  0  0
    5.3932    1.2949   17.8300 C   0  0  0  0  0  0  0  0  0  0  0  0
    4.9194    1.7939   16.9870 H   0  0  0  0  0  0  0  0  0  0  0  0
    4.8011    1.3108   19.0970 C   0  0  0  0  0  0  0  0  0  0  0  0
    3.8723    1.8436   19.2473 H   0  0  0  0  0  0  0  0  0  0  0  0
    5.4377    0.6629   20.1501 C   0  0  0  0  0  0  0  0  0  0  0  0
    5.0257    0.6494   21.1610 H   0  0  0  0  0  0  0  0  0  0  0  0
    8.0837   -1.9954   20.7734 C   0  0  0  0  0  0  0  0  0  0  0  0
    8.9136   -1.8993   20.0549 H   0  0  0  0  0  0  0  0  0  0  0  0
    7.3924   -2.7718   20.4122 H   0  0  0  0  0  0  0  0  0  0  0  0
    8.5602   -2.2820   22.0986 N   0  0  0  0  0  0  0  0  0  0  0  0
    9.1419   -3.0487   22.3969 H   0  0  0  0  0  0  0  0  0  0  0  0
    8.2831   -1.3259   23.0265 C   0  0  0  0  0  0  0  0  0  0  0  0
    8.6784   -1.3981   24.1757 O   0  0  0  0  0  0  0  0  0  0  0  0
  1  2  1  0
  2  3  1  0
  3  4  2  0
  4  5  1  0
  4  6  1  0
  6  7  1  0
  6  8  2  0
  8  9  1  0
  8 10  1  0
 10 11  1  0
 10 12  2  0
 12 13  1  0
 13 14  1  0
 14 15  2  0
 15 16  1  0
 16 17  2  0
 17 18  1  0
 17 19  1  0
 19 20  2  0
 20 21  1  0
 20 22  1  0
 22 23  1  0
 22 24  2  0
 24 25  1  0
 15 26  1  0
 26 27  1  0
 26 28  1  0
 26 29  1  0
 29 30  1  0
 29 31  1  0
 31 32  2  0
 12  3  1  0
 31 14  1  0
 24 16  1  0
M  END
>  <cnnaffinity>  (1) 
-4.81111

>  <filename>  (1) 
[H]Oc1c([H])c(Cl)c([H])c([H])c1OC1=C(c2c([H])nc([H])c([H])c2[H])C([H])([H])N([H])C1=O

$$$$
