
     RDKit          3D

 30 31  0  0  0  0  0  0  0  0999 V2000
    7.3860   -4.5323   21.5217 H   0  0  0  0  0  0  0  0  0  0  0  0
    7.5084   -5.4504   21.8376 O   0  0  0  0  0  0  0  0  0  0  0  0
    8.4512   -5.3306   22.7992 C   0  0  0  0  0  0  0  0  0  0  0  0
    8.7573   -6.4224   23.5970 C   0  0  0  0  0  0  0  0  0  0  0  0
    8.2969   -7.3459   23.2927 H   0  0  0  0  0  0  0  0  0  0  0  0
    9.6665   -6.2715   24.6529 C   0  0  0  0  0  0  0  0  0  0  0  0
    9.9280   -7.5444   25.8007 Cl  0  0  0  0  0  0  0  0  0  0  0  0
   10.3806   -5.0819   24.8167 C   0  0  0  0  0  0  0  0  0  0  0  0
   11.1497   -5.0055   25.5774 H   0  0  0  0  0  0  0  0  0  0  0  0
   10.1232   -3.9976   23.9626 C   0  0  0  0  0  0  0  0  0  0  0  0
   10.6916   -3.0728   24.0258 H   0  0  0  0  0  0  0  0  0  0  0  0
    9.1381   -4.1168   22.9922 C   0  0  0  0  0  0  0  0  0  0  0  0
    8.7380   -3.1006   22.1269 O   0  0  0  0  0  0  0  0  0  0  0  0
    9.5319   -1.6878   22.0786 S   0  0  0  0  0  0  0  0  0  0  0  0
   10.8887   -1.8629   21.6374 O   0  0  0  0  0  0  0  0  0  0  0  0
    9.2297   -0.9087   23.2473 O   0  0  0  0  0  0  0  0  0  0  0  0
    8.7139   -1.1729   20.7685 N   0  0  0  0  0  0  0  0  0  0  0  0
    9.2513   -0.4292   20.3682 H   0  0  0  0  0  0  0  0  0  0  0  0
    7.3779   -0.9128   21.0439 C   0  0  0  0  0  0  0  0  0  0  0  0
    6.8014   -1.3552   22.0103 O   0  0  0  0  0  0  0  0  0  0  0  0
    6.7540   -0.0910   20.0030 C   0  0  0  0  0  0  0  0  0  0  0  0
    7.3025   -0.0377   18.7172 C   0  0  0  0  0  0  0  0  0  0  0  0
    8.2365   -0.5523   18.4875 H   0  0  0  0  0  0  0  0  0  0  0  0
    6.7255    0.5944   17.6941 N   0  0  0  0  0  0  0  0  0  0  0  0
    5.5639    1.2207   17.9310 C   0  0  0  0  0  0  0  0  0  0  0  0
    5.1054    1.7272   17.0836 H   0  0  0  0  0  0  0  0  0  0  0  0
    4.9434    1.2424   19.1861 C   0  0  0  0  0  0  0  0  0  0  0  0
    4.0093    1.7732   19.3211 H   0  0  0  0  0  0  0  0  0  0  0  0
    5.5467    0.5770   20.2460 C   0  0  0  0  0  0  0  0  0  0  0  0
    5.1142    0.5493   21.2472 H   0  0  0  0  0  0  0  0  0  0  0  0
  1  2  1  0
  2  3  1  0
  3  4  2  0
  4  5  1  0
  4  6  1  0
  6  7  1  0
  6  8  2  0
  8  9  1  0
  8 10  1  0
 10 11  1  0
 10 12  2  0
 12 13  1  0
 13 14  1  0
 14 15  2  0
 14 16  2  0
 14 17  1  0
 17 18  1  0
 17 19  1  0
 19 20  2  0
 19 21  1  0
 21 22  2  0
 22 23  1  0
 22 24  1  0
 24 25  2  0
 25 26  1  0
 25 27  1  0
 27 28  1  0
 27 29  2  0
 29 30  1  0
 12  3  1  0
 29 21  1  0
M  END
>  <cnnaffinity>  (1) 
-5.39499

>  <filename>  (1) 
[H]Oc1c([H])c(Cl)c([H])c([H])c1OS(=O)(=O)N([H])C(=O)c1c([H])nc([H])c([H])c1[H]

$$$$
