
     RDKit          3D

 47 50  0  0  0  0  0  0  0  0999 V2000
    7.2735   -4.2401   23.8481 C   0  0  0  0  0  0  0  0  0  0  0  0
    6.7353   -2.9495   24.4781 C   0  0  0  0  0  0  0  0  0  0  0  0
    6.4328   -3.1420   25.9732 C   0  0  0  0  0  0  0  0  0  0  0  0
    5.4369   -4.1203   26.2036 O   0  0  0  0  0  0  0  0  0  0  0  0
    4.6556   -3.8700   25.6930 H   0  0  0  0  0  0  0  0  0  0  0  0
    7.3291   -3.4998   26.4992 H   0  0  0  0  0  0  0  0  0  0  0  0
    6.1474   -2.1822   26.4401 H   0  0  0  0  0  0  0  0  0  0  0  0
    7.6650   -1.7311   24.2870 C   0  0  0  0  0  0  0  0  0  0  0  0
    7.8424   -1.3183   22.8960 N   0  0  0  0  0  0  0  0  0  0  0  0
    6.8152   -0.7014   22.2588 N   0  0  0  0  0  0  0  0  0  0  0  0
    7.2882   -0.5090   21.0442 C   0  0  0  0  0  0  0  0  0  0  0  0
    6.5501    0.1155   19.9531 C   0  0  0  0  0  0  0  0  0  0  0  0
    5.3172    0.7657   20.1133 C   0  0  0  0  0  0  0  0  0  0  0  0
    4.7571    1.3627   18.9869 C   0  0  0  0  0  0  0  0  0  0  0  0
    5.4325    1.2800   17.7623 C   0  0  0  0  0  0  0  0  0  0  0  0
    6.5984    0.6387   17.5979 N   0  0  0  0  0  0  0  0  0  0  0  0
    7.1377    0.0734   18.6813 C   0  0  0  0  0  0  0  0  0  0  0  0
    8.0776   -0.4558   18.5436 H   0  0  0  0  0  0  0  0  0  0  0  0
    5.0243    1.7488   16.8714 H   0  0  0  0  0  0  0  0  0  0  0  0
    3.8229    1.9060   19.0458 H   0  0  0  0  0  0  0  0  0  0  0  0
    4.8254    0.7952   21.0899 H   0  0  0  0  0  0  0  0  0  0  0  0
    8.5497   -0.9687   20.8546 N   0  0  0  0  0  0  0  0  0  0  0  0
    8.8705   -1.4808   22.0247 C   0  0  0  0  0  0  0  0  0  0  0  0
   10.1139   -2.2910   22.2367 C   0  0  0  0  0  0  0  0  0  0  0  0
   11.4366   -1.5982   22.0417 C   0  0  0  0  0  0  0  0  0  0  0  0
   12.4437   -1.8776   21.1623 C   0  0  0  0  0  0  0  0  0  0  0  0
   13.5508   -1.1091   21.4358 N   0  0  0  0  0  0  0  0  0  0  0  0
   13.2346   -0.2263   22.4332 C   0  0  0  0  0  0  0  0  0  0  0  0
   13.9442    0.8607   22.9583 C   0  0  0  0  0  0  0  0  0  0  0  0
   13.2932    1.6478   23.8951 C   0  0  0  0  0  0  0  0  0  0  0  0
   12.0047    1.3068   24.3628 C   0  0  0  0  0  0  0  0  0  0  0  0
   11.4196    2.0676   25.2964 F   0  0  0  0  0  0  0  0  0  0  0  0
   11.3044    0.2221   23.8844 C   0  0  0  0  0  0  0  0  0  0  0  0
   11.9153   -0.5269   22.8590 C   0  0  0  0  0  0  0  0  0  0  0  0
   10.3108   -0.0027   24.2662 H   0  0  0  0  0  0  0  0  0  0  0  0
   13.7866    2.5387   24.2259 H   0  0  0  0  0  0  0  0  0  0  0  0
   14.9489    1.1230   22.6335 H   0  0  0  0  0  0  0  0  0  0  0  0
   14.3659   -1.0505   20.8548 H   0  0  0  0  0  0  0  0  0  0  0  0
   12.4832   -2.5184   20.2985 H   0  0  0  0  0  0  0  0  0  0  0  0
   10.0802   -2.7598   23.2287 H   0  0  0  0  0  0  0  0  0  0  0  0
   10.0090   -3.0809   21.5006 H   0  0  0  0  0  0  0  0  0  0  0  0
    8.6528   -1.9042   24.7309 H   0  0  0  0  0  0  0  0  0  0  0  0
    7.2321   -0.8755   24.8099 H   0  0  0  0  0  0  0  0  0  0  0  0
    5.7774   -2.6962   23.9918 H   0  0  0  0  0  0  0  0  0  0  0  0
    7.3983   -4.1503   22.7637 H   0  0  0  0  0  0  0  0  0  0  0  0
    8.2429   -4.5255   24.2792 H   0  0  0  0  0  0  0  0  0  0  0  0
    6.5751   -5.0603   24.0452 H   0  0  0  0  0  0  0  0  0  0  0  0
  1  2  1  0
  2  3  1  0
  3  4  1  0
  4  5  1  0
  3  6  1  0
  3  7  1  0
  2  8  1  0
  8  9  1  0
  9 10  1  0
 10 11  2  0
 11 12  1  0
 12 13  2  0
 13 14  1  0
 14 15  2  0
 15 16  1  0
 16 17  2  0
 17 18  1  0
 15 19  1  0
 14 20  1  0
 13 21  1  0
 11 22  1  0
 22 23  2  0
 23 24  1  0
 24 25  1  0
 25 26  2  0
 26 27  1  0
 27 28  1  0
 28 29  2  0
 29 30  1  0
 30 31  2  0
 31 32  1  0
 31 33  1  0
 33 34  2  0
 33 35  1  0
 30 36  1  0
 29 37  1  0
 27 38  1  0
 26 39  1  0
 24 40  1  0
 24 41  1  0
  8 42  1  0
  8 43  1  0
  2 44  1  0
  1 45  1  0
  1 46  1  0
  1 47  1  0
 23  9  1  0
 34 25  1  0
 17 12  1  0
 34 28  1  0
M  END
>  <cnnaffinity>  (1) 
-6.66562

>  <filename>  (1) 
[H]OC([H])([H])C([H])(C([H])([H])[H])C([H])([H])n1nc(-c2c([H])nc([H])c([H])c2[H])nc1C([H])([H])c1c([H])n([H])c2c([H])c([H])c(F)c([H])c12

$$$$
