
     RDKit          3D

 43 44  0  0  0  0  0  0  0  0999 V2000
    2.9999   -0.1736   28.6282 H   0  0  0  0  0  0  0  0  0  0  0  0
    3.6816   -0.6148   28.0855 O   0  0  0  0  0  0  0  0  0  0  0  0
    4.8488    0.1373   28.2285 N   0  0  0  0  0  0  0  0  0  0  0  0
    5.6393   -0.4778   28.3823 H   0  0  0  0  0  0  0  0  0  0  0  0
    5.1511    1.1923   27.3720 C   0  0  0  0  0  0  0  0  0  0  0  0
    4.3450    1.7950   26.7047 O   0  0  0  0  0  0  0  0  0  0  0  0
    6.6143    1.5847   27.4645 C   0  0  0  0  0  0  0  0  0  0  0  0
    7.0614    1.1848   28.3820 H   0  0  0  0  0  0  0  0  0  0  0  0
    6.5946    2.6744   27.5590 H   0  0  0  0  0  0  0  0  0  0  0  0
    7.4444    1.1746   26.2366 C   0  0  0  0  0  0  0  0  0  0  0  0
    6.9343    1.5363   25.3324 H   0  0  0  0  0  0  0  0  0  0  0  0
    8.4100    1.6962   26.2782 H   0  0  0  0  0  0  0  0  0  0  0  0
    7.6929   -0.3367   26.1465 C   0  0  0  0  0  0  0  0  0  0  0  0
    6.7338   -0.8545   25.9943 H   0  0  0  0  0  0  0  0  0  0  0  0
    8.0866   -0.7003   27.1069 H   0  0  0  0  0  0  0  0  0  0  0  0
    8.6718   -0.7586   25.0350 C   0  0  0  0  0  0  0  0  0  0  0  0
    9.6357   -0.2492   25.1887 H   0  0  0  0  0  0  0  0  0  0  0  0
    8.8812   -1.8358   25.1307 H   0  0  0  0  0  0  0  0  0  0  0  0
    8.1808   -0.4742   23.6083 C   0  0  0  0  0  0  0  0  0  0  0  0
    8.0026    0.6095   23.5216 H   0  0  0  0  0  0  0  0  0  0  0  0
    6.8386   -1.1856   23.3044 C   0  0  0  0  0  0  0  0  0  0  0  0
    6.7286   -2.0966   23.9076 H   0  0  0  0  0  0  0  0  0  0  0  0
    6.0282   -0.5194   23.6201 H   0  0  0  0  0  0  0  0  0  0  0  0
    6.6801   -1.6004   21.8261 C   0  0  0  0  0  0  0  0  0  0  0  0
    7.1272   -2.6019   21.7057 H   0  0  0  0  0  0  0  0  0  0  0  0
    5.6253   -1.6915   21.5391 H   0  0  0  0  0  0  0  0  0  0  0  0
    7.3560   -0.6933   20.9053 N   0  0  0  0  0  0  0  0  0  0  0  0
    6.6798   -0.0128   19.8783 C   0  0  0  0  0  0  0  0  0  0  0  0
    7.1862    0.0799   18.5563 C   0  0  0  0  0  0  0  0  0  0  0  0
    8.1380   -0.3922   18.3174 H   0  0  0  0  0  0  0  0  0  0  0  0
    6.5630    0.7024   17.5455 N   0  0  0  0  0  0  0  0  0  0  0  0
    5.3955    1.3102   17.8112 C   0  0  0  0  0  0  0  0  0  0  0  0
    4.9200    1.8187   16.9764 H   0  0  0  0  0  0  0  0  0  0  0  0
    4.8017    1.3076   19.0795 C   0  0  0  0  0  0  0  0  0  0  0  0
    3.8615    1.8332   19.2393 H   0  0  0  0  0  0  0  0  0  0  0  0
    5.4479    0.6331   20.1219 C   0  0  0  0  0  0  0  0  0  0  0  0
    5.0374    0.6157   21.1318 H   0  0  0  0  0  0  0  0  0  0  0  0
    8.7780   -0.4278   21.1295 C   0  0  0  0  0  0  0  0  0  0  0  0
    9.4013   -0.9440   20.3768 H   0  0  0  0  0  0  0  0  0  0  0  0
    8.9407    0.6534   20.9824 H   0  0  0  0  0  0  0  0  0  0  0  0
    9.2307   -0.8332   22.5456 C   0  0  0  0  0  0  0  0  0  0  0  0
    9.4152   -1.9155   22.5747 H   0  0  0  0  0  0  0  0  0  0  0  0
   10.1867   -0.3446   22.7676 H   0  0  0  0  0  0  0  0  0  0  0  0
  1  2  1  0
  2  3  1  0
  3  4  1  0
  3  5  1  0
  5  6  2  0
  5  7  1  0
  7  8  1  0
  7  9  1  0
  7 10  1  0
 10 11  1  0
 10 12  1  0
 10 13  1  0
 13 14  1  0
 13 15  1  0
 13 16  1  0
 16 17  1  0
 16 18  1  0
 16 19  1  0
 19 20  1  0
 19 21  1  0
 21 22  1  0
 21 23  1  0
 21 24  1  0
 24 25  1  0
 24 26  1  0
 24 27  1  0
 27 28  1  0
 28 29  2  0
 29 30  1  0
 29 31  1  0
 31 32  2  0
 32 33  1  0
 32 34  1  0
 34 35  1  0
 34 36  2  0
 36 37  1  0
 27 38  1  0
 38 39  1  0
 38 40  1  0
 38 41  1  0
 41 42  1  0
 41 43  1  0
 41 19  1  0
 36 28  1  0
M  END
>  <cnnaffinity>  (1) 
-5.41964

>  <filename>  (1) 
[H]ON([H])C(=O)C([H])([H])C([H])([H])C([H])([H])C([H])([H])C1([H])C([H])([H])C([H])([H])N(c2c([H])nc([H])c([H])c2[H])C([H])([H])C1([H])[H]

$$$$
