
     RDKit          3D

 33 35  0  0  0  0  0  0  0  0999 V2000
   11.0811   -4.2735   24.3650 H   0  0  0  0  0  0  0  0  0  0  0  0
   10.8058   -4.8384   25.0976 O   0  0  0  0  0  0  0  0  0  0  0  0
    9.6059   -4.3984   25.5514 C   0  0  0  0  0  0  0  0  0  0  0  0
    9.0833   -5.1057   26.6346 C   0  0  0  0  0  0  0  0  0  0  0  0
    9.6564   -5.9361   27.0259 H   0  0  0  0  0  0  0  0  0  0  0  0
    7.8620   -4.7383   27.1914 C   0  0  0  0  0  0  0  0  0  0  0  0
    7.2340   -5.6367   28.5320 Cl  0  0  0  0  0  0  0  0  0  0  0  0
    7.1459   -3.6580   26.6867 C   0  0  0  0  0  0  0  0  0  0  0  0
    6.1964   -3.3950   27.1362 H   0  0  0  0  0  0  0  0  0  0  0  0
    7.6636   -2.9446   25.6032 C   0  0  0  0  0  0  0  0  0  0  0  0
    7.1084   -2.0977   25.2154 H   0  0  0  0  0  0  0  0  0  0  0  0
    8.8823   -3.3040   25.0134 C   0  0  0  0  0  0  0  0  0  0  0  0
    9.4553   -2.5635   23.9659 O   0  0  0  0  0  0  0  0  0  0  0  0
    8.6764   -2.0399   22.9934 C   0  0  0  0  0  0  0  0  0  0  0  0
    7.4980   -2.5066   22.5543 C   0  0  0  0  0  0  0  0  0  0  0  0
    7.0233   -3.3800   22.9559 H   0  0  0  0  0  0  0  0  0  0  0  0
    6.7650   -1.8379   21.5129 C   0  0  0  0  0  0  0  0  0  0  0  0
    5.7037   -2.2494   21.0998 O   0  0  0  0  0  0  0  0  0  0  0  0
    7.3603   -0.6719   20.9535 N   0  0  0  0  0  0  0  0  0  0  0  0
    6.6720    0.0333   19.8846 C   0  0  0  0  0  0  0  0  0  0  0  0
    7.1772    0.0739   18.5690 C   0  0  0  0  0  0  0  0  0  0  0  0
    8.1220   -0.4179   18.3510 H   0  0  0  0  0  0  0  0  0  0  0  0
    6.5506    0.6814   17.5556 N   0  0  0  0  0  0  0  0  0  0  0  0
    5.3912    1.2999   17.8293 C   0  0  0  0  0  0  0  0  0  0  0  0
    4.9076    1.7929   16.9883 H   0  0  0  0  0  0  0  0  0  0  0  0
    4.8102    1.3168   19.1019 C   0  0  0  0  0  0  0  0  0  0  0  0
    3.8762    1.8417   19.2576 H   0  0  0  0  0  0  0  0  0  0  0  0
    5.4542    0.6546   20.1532 C   0  0  0  0  0  0  0  0  0  0  0  0
    5.0312    0.6052   21.1553 H   0  0  0  0  0  0  0  0  0  0  0  0
    8.5991   -0.2147   21.3917 C   0  0  0  0  0  0  0  0  0  0  0  0
    9.1725    0.7497   20.9377 O   0  0  0  0  0  0  0  0  0  0  0  0
    9.2011   -0.9422   22.3914 N   0  0  0  0  0  0  0  0  0  0  0  0
   10.0810   -0.5232   22.6290 H   0  0  0  0  0  0  0  0  0  0  0  0
  1  2  1  0
  2  3  1  0
  3  4  2  0
  4  5  1  0
  4  6  1  0
  6  7  1  0
  6  8  2  0
  8  9  1  0
  8 10  1  0
 10 11  1  0
 10 12  2  0
 12 13  1  0
 13 14  1  0
 14 15  2  0
 15 16  1  0
 15 17  1  0
 17 18  2  0
 17 19  1  0
 19 20  1  0
 20 21  2  0
 21 22  1  0
 21 23  1  0
 23 24  2  0
 24 25  1  0
 24 26  1  0
 26 27  1  0
 26 28  2  0
 28 29  1  0
 19 30  1  0
 30 31  2  0
 30 32  1  0
 32 33  1  0
 12  3  1  0
 32 14  1  0
 28 20  1  0
M  END
>  <cnnaffinity>  (1) 
-5.2763

>  <filename>  (1) 
[H]Oc1c([H])c(Cl)c([H])c([H])c1Oc1c([H])c(=O)n(-c2c([H])nc([H])c([H])c2[H])c(=O)n1[H]

$$$$
