
     RDKit          3D

 31 33  0  0  0  0  0  0  0  0999 V2000
    9.9040   -1.2494   27.4107 H   0  0  0  0  0  0  0  0  0  0  0  0
    9.6112   -1.1367   26.4945 O   0  0  0  0  0  0  0  0  0  0  0  0
    9.0631   -2.2975   26.0626 C   0  0  0  0  0  0  0  0  0  0  0  0
    9.1164   -3.4657   26.8189 C   0  0  0  0  0  0  0  0  0  0  0  0
    9.7964   -3.5644   27.6512 H   0  0  0  0  0  0  0  0  0  0  0  0
    8.3454   -4.5741   26.4663 C   0  0  0  0  0  0  0  0  0  0  0  0
    8.3398   -5.9296   27.5470 Cl  0  0  0  0  0  0  0  0  0  0  0  0
    7.6248   -4.5940   25.2810 C   0  0  0  0  0  0  0  0  0  0  0  0
    7.0243   -5.4711   25.0549 H   0  0  0  0  0  0  0  0  0  0  0  0
    7.7182   -3.4853   24.4216 C   0  0  0  0  0  0  0  0  0  0  0  0
    7.2838   -3.5137   23.4316 H   0  0  0  0  0  0  0  0  0  0  0  0
    8.4245   -2.3372   24.7971 C   0  0  0  0  0  0  0  0  0  0  0  0
    8.5234   -1.1779   24.0216 O   0  0  0  0  0  0  0  0  0  0  0  0
    8.1140   -1.2823   22.7137 N   0  0  0  0  0  0  0  0  0  0  0  0
    7.1242   -0.4741   22.1736 C   0  0  0  0  0  0  0  0  0  0  0  0
    6.4603    0.0863   22.8156 H   0  0  0  0  0  0  0  0  0  0  0  0
    7.2309   -0.5891   20.8232 C   0  0  0  0  0  0  0  0  0  0  0  0
    6.5386    0.0726   19.7239 C   0  0  0  0  0  0  0  0  0  0  0  0
    7.0958    0.1237   18.4290 C   0  0  0  0  0  0  0  0  0  0  0  0
    8.0517   -0.3493   18.2185 H   0  0  0  0  0  0  0  0  0  0  0  0
    6.5417    0.7531   17.3888 N   0  0  0  0  0  0  0  0  0  0  0  0
    5.3788    1.3895   17.6049 C   0  0  0  0  0  0  0  0  0  0  0  0
    4.9552    1.9115   16.7498 H   0  0  0  0  0  0  0  0  0  0  0  0
    4.7264    1.3938   18.8408 C   0  0  0  0  0  0  0  0  0  0  0  0
    3.7910    1.9280   18.9492 H   0  0  0  0  0  0  0  0  0  0  0  0
    5.3112    0.7245   19.9160 C   0  0  0  0  0  0  0  0  0  0  0  0
    4.8293    0.7003   20.8914 H   0  0  0  0  0  0  0  0  0  0  0  0
    8.3218   -1.4200   20.5637 N   0  0  0  0  0  0  0  0  0  0  0  0
    8.4563   -2.0007   19.7556 H   0  0  0  0  0  0  0  0  0  0  0  0
    8.8955   -1.8824   21.7265 C   0  0  0  0  0  0  0  0  0  0  0  0
    9.8001   -2.6773   21.8236 O   0  0  0  0  0  0  0  0  0  0  0  0
  1  2  1  0
  2  3  1  0
  3  4  2  0
  4  5  1  0
  4  6  1  0
  6  7  1  0
  6  8  2  0
  8  9  1  0
  8 10  1  0
 10 11  1  0
 10 12  2  0
 12 13  1  0
 13 14  1  0
 14 15  1  0
 15 16  1  0
 15 17  2  0
 17 18  1  0
 18 19  2  0
 19 20  1  0
 19 21  1  0
 21 22  2  0
 22 23  1  0
 22 24  1  0
 24 25  1  0
 24 26  2  0
 26 27  1  0
 17 28  1  0
 28 29  1  0
 28 30  1  0
 30 31  2  0
 12  3  1  0
 30 14  1  0
 26 18  1  0
M  END
>  <cnnaffinity>  (1) 
-5.30162

>  <filename>  (1) 
[H]Oc1c([H])c(Cl)c([H])c([H])c1On1c([H])c(-c2c([H])nc([H])c([H])c2[H])n([H])c1=O

$$$$
