
     RDKit          3D

 31 33  0  0  0  0  0  0  0  0999 V2000
   10.3020   -5.7234   26.0237 O   0  0  0  0  0  0  0  0  0  0  0  0
   10.1964   -4.3118   26.2194 C   0  0  0  0  0  0  0  0  0  0  0  0
    8.9003   -3.6473   25.7481 C   0  0  0  0  0  0  0  0  0  0  0  0
    7.7384   -3.7607   26.5220 C   0  0  0  0  0  0  0  0  0  0  0  0
    6.5502   -3.2112   26.0394 C   0  0  0  0  0  0  0  0  0  0  0  0
    6.5870   -2.5557   24.8095 C   0  0  0  0  0  0  0  0  0  0  0  0
    7.8033   -2.4495   24.1179 C   0  0  0  0  0  0  0  0  0  0  0  0
    7.8597   -1.7837   22.8053 C   0  0  0  0  0  0  0  0  0  0  0  0
    6.8475   -1.1891   22.0760 C   0  0  0  0  0  0  0  0  0  0  0  0
    7.3861   -0.6941   20.9397 N   0  0  0  0  0  0  0  0  0  0  0  0
    6.6811   -0.0005   19.9206 C   0  0  0  0  0  0  0  0  0  0  0  0
    5.4582    0.6491   20.1721 C   0  0  0  0  0  0  0  0  0  0  0  0
    4.8246    1.2985   19.1131 C   0  0  0  0  0  0  0  0  0  0  0  0
    5.4170    1.2749   17.8495 C   0  0  0  0  0  0  0  0  0  0  0  0
    6.5807    0.6513   17.6036 N   0  0  0  0  0  0  0  0  0  0  0  0
    7.1982    0.0378   18.6165 C   0  0  0  0  0  0  0  0  0  0  0  0
    8.1455   -0.4367   18.3788 H   0  0  0  0  0  0  0  0  0  0  0  0
    4.9568    1.7775   17.0046 H   0  0  0  0  0  0  0  0  0  0  0  0
    3.8903    1.8275   19.2578 H   0  0  0  0  0  0  0  0  0  0  0  0
    5.0125    0.6701   21.1656 H   0  0  0  0  0  0  0  0  0  0  0  0
    8.7096   -0.9579   20.8653 N   0  0  0  0  0  0  0  0  0  0  0  0
    9.0048   -1.6037   21.9797 C   0  0  0  0  0  0  0  0  0  0  0  0
   10.0300   -1.9197   22.1505 H   0  0  0  0  0  0  0  0  0  0  0  0
    5.7874   -1.0755   22.2278 H   0  0  0  0  0  0  0  0  0  0  0  0
    8.9494   -2.9640   24.5975 N   0  0  0  0  0  0  0  0  0  0  0  0
    5.7012   -2.1181   24.3665 H   0  0  0  0  0  0  0  0  0  0  0  0
    5.6201   -3.3142   26.5978 H   0  0  0  0  0  0  0  0  0  0  0  0
    7.8054   -4.2977   27.4617 H   0  0  0  0  0  0  0  0  0  0  0  0
   11.0141   -3.7769   25.7247 H   0  0  0  0  0  0  0  0  0  0  0  0
   10.2395   -4.1834   27.3102 H   0  0  0  0  0  0  0  0  0  0  0  0
   10.4474   -5.9034   25.0822 H   0  0  0  0  0  0  0  0  0  0  0  0
  1  2  1  0
  2  3  1  0
  3  4  2  0
  4  5  1  0
  5  6  2  0
  6  7  1  0
  7  8  1  0
  8  9  2  0
  9 10  1  0
 10 11  1  0
 11 12  2  0
 12 13  1  0
 13 14  2  0
 14 15  1  0
 15 16  2  0
 16 17  1  0
 14 18  1  0
 13 19  1  0
 12 20  1  0
 10 21  1  0
 21 22  2  0
 22 23  1  0
  9 24  1  0
  7 25  2  0
  6 26  1  0
  5 27  1  0
  4 28  1  0
  2 29  1  0
  2 30  1  0
  1 31  1  0
 25  3  1  0
 22  8  1  0
 16 11  1  0
M  END
>  <cnnaffinity>  (1) 
-4.90202

>  <filename>  (1) 
[H]OC([H])([H])c1nc(-c2c([H])nn(-c3c([H])nc([H])c([H])c3[H])c2[H])c([H])c([H])c1[H]

$$$$
