
     RDKit          3D

 22 23  0  0  0  0  0  0  0  0999 V2000
   12.1617   -1.7324   20.9555 H   0  0  0  0  0  0  0  0  0  0  0  0
   11.3364   -1.5301   21.4271 O   0  0  0  0  0  0  0  0  0  0  0  0
   10.9803   -0.2812   20.9094 N   0  0  0  0  0  0  0  0  0  0  0  0
    9.7273   -0.0211   20.8638 C   0  0  0  0  0  0  0  0  0  0  0  0
    9.4570    0.9443   20.4405 H   0  0  0  0  0  0  0  0  0  0  0  0
    8.6645   -0.7923   21.3397 N   0  0  0  0  0  0  0  0  0  0  0  0
    8.7920   -1.6471   22.4156 C   0  0  0  0  0  0  0  0  0  0  0  0
    9.7500   -1.8505   22.8735 H   0  0  0  0  0  0  0  0  0  0  0  0
    7.6499   -2.1332   22.7868 N   0  0  0  0  0  0  0  0  0  0  0  0
    6.7158   -1.5803   21.9467 C   0  0  0  0  0  0  0  0  0  0  0  0
    5.6753   -1.8522   22.0514 H   0  0  0  0  0  0  0  0  0  0  0  0
    7.2907   -0.7422   21.0241 C   0  0  0  0  0  0  0  0  0  0  0  0
    6.6693    0.0145   19.9051 C   0  0  0  0  0  0  0  0  0  0  0  0
    7.1822    0.0679   18.5824 C   0  0  0  0  0  0  0  0  0  0  0  0
    8.1064   -0.4425   18.3226 H   0  0  0  0  0  0  0  0  0  0  0  0
    6.5839    0.6921   17.5536 N   0  0  0  0  0  0  0  0  0  0  0  0
    5.4231    1.3177   17.7977 C   0  0  0  0  0  0  0  0  0  0  0  0
    4.9529    1.8205   16.9526 H   0  0  0  0  0  0  0  0  0  0  0  0
    4.8126    1.3360   19.0557 C   0  0  0  0  0  0  0  0  0  0  0  0
    3.8698    1.8583   19.1872 H   0  0  0  0  0  0  0  0  0  0  0  0
    5.4405    0.6761   20.1148 C   0  0  0  0  0  0  0  0  0  0  0  0
    4.9940    0.6868   21.1102 H   0  0  0  0  0  0  0  0  0  0  0  0
  1  2  1  0
  2  3  1  0
  3  4  2  3
  4  5  1  0
  4  6  1  0
  6  7  1  0
  7  8  1  0
  7  9  2  0
  9 10  1  0
 10 11  1  0
 10 12  2  0
 12 13  1  0
 13 14  2  0
 14 15  1  0
 14 16  1  0
 16 17  2  0
 17 18  1  0
 17 19  1  0
 19 20  1  0
 19 21  2  0
 21 22  1  0
 12  6  1  0
 21 13  1  0
M  END
>  <cnnaffinity>  (1) 
-4.29749

>  <filename>  (1) 
[H]ON=C([H])n1c([H])nc([H])c1-c1c([H])nc([H])c([H])c1[H]

$$$$
