
     RDKit          3D

 44 47  0  0  0  0  0  0  0  0999 V2000
    5.9694    2.5131   25.5458 H   0  0  0  0  0  0  0  0  0  0  0  0
    6.8838    2.2093   25.7028 O   0  0  0  0  0  0  0  0  0  0  0  0
    7.0854    1.7047   24.4773 C   0  0  0  0  0  0  0  0  0  0  0  0
    6.1658    1.7787   23.6850 O   0  0  0  0  0  0  0  0  0  0  0  0
    8.4163    1.0946   24.2475 C   0  0  0  0  0  0  0  0  0  0  0  0
    8.9795    0.6557   23.0545 C   0  0  0  0  0  0  0  0  0  0  0  0
    8.3357    0.7957   21.7023 C   0  0  0  0  0  0  0  0  0  0  0  0
    9.0942    1.0836   20.9598 H   0  0  0  0  0  0  0  0  0  0  0  0
    7.6415    1.6405   21.7603 H   0  0  0  0  0  0  0  0  0  0  0  0
    7.5673   -0.4390   21.1230 C   0  0  1  0  0  0  0  0  0  0  0  0
    6.7280    0.1359   19.9576 C   0  0  0  0  0  0  0  0  0  0  0  0
    7.2029    0.1232   18.6330 C   0  0  0  0  0  0  0  0  0  0  0  0
    8.1386   -0.3744   18.3881 H   0  0  0  0  0  0  0  0  0  0  0  0
    6.5880    0.6937   17.5884 N   0  0  0  0  0  0  0  0  0  0  0  0
    5.4381    1.3342   17.8280 C   0  0  0  0  0  0  0  0  0  0  0  0
    4.9598    1.7905   16.9640 H   0  0  0  0  0  0  0  0  0  0  0  0
    4.8505    1.4102   19.0959 C   0  0  0  0  0  0  0  0  0  0  0  0
    3.9076    1.9333   19.2153 H   0  0  0  0  0  0  0  0  0  0  0  0
    5.5133    0.8202   20.1802 C   0  0  0  0  0  0  0  0  0  0  0  0
    5.0921    0.9000   21.1890 H   0  0  0  0  0  0  0  0  0  0  0  0
    8.5832   -1.5678   20.7342 C   0  0  0  0  0  0  0  0  0  0  0  0
    8.6606   -1.6951   19.6580 H   0  0  0  0  0  0  0  0  0  0  0  0
    9.5836   -1.2858   21.0814 H   0  0  0  0  0  0  0  0  0  0  0  0
    8.1234   -2.8290   21.5008 C   0  0  2  0  0  0  0  0  0  0  0  0
    8.9068   -3.5874   21.5609 H   0  0  0  0  0  0  0  0  0  0  0  0
    6.7673   -3.3705   20.9927 C   0  0  0  0  0  0  0  0  0  0  0  0
    6.6904   -3.5655   19.9195 H   0  0  0  0  0  0  0  0  0  0  0  0
    6.5451   -4.3230   21.4938 H   0  0  0  0  0  0  0  0  0  0  0  0
    5.7836   -2.2549   21.4365 C   0  0  0  0  0  0  0  0  0  0  0  0
    5.0145   -2.6528   22.1053 H   0  0  0  0  0  0  0  0  0  0  0  0
    5.3020   -1.7849   20.5760 H   0  0  0  0  0  0  0  0  0  0  0  0
    6.6969   -1.2330   22.1702 C   0  0  1  0  0  0  0  0  0  0  0  0
    6.1668   -0.5594   22.8461 H   0  0  0  0  0  0  0  0  0  0  0  0
    7.6939   -2.2005   22.8362 C   0  0  0  0  0  0  0  0  0  0  0  0
    8.5198   -1.7324   23.3701 H   0  0  0  0  0  0  0  0  0  0  0  0
    7.2180   -2.9089   23.5255 H   0  0  0  0  0  0  0  0  0  0  0  0
   10.2548    0.1437   23.4310 C   0  0  0  0  0  0  0  0  0  0  0  0
   11.3282   -0.5135   22.6064 C   0  0  0  0  0  0  0  0  0  0  0  0
   11.3732   -0.1097   21.5889 H   0  0  0  0  0  0  0  0  0  0  0  0
   11.1388   -1.5934   22.5432 H   0  0  0  0  0  0  0  0  0  0  0  0
   12.3081   -0.3932   23.0773 H   0  0  0  0  0  0  0  0  0  0  0  0
   10.4383    0.2629   24.7407 N   0  0  0  0  0  0  0  0  0  0  0  0
    9.3359    0.8418   25.2211 N   0  0  0  0  0  0  0  0  0  0  0  0
    9.2884    1.0126   26.2159 H   0  0  0  0  0  0  0  0  0  0  0  0
  1  2  1  0
  2  3  1  0
  3  4  2  0
  3  5  1  0
  5  6  2  0
  6  7  1  0
  7  8  1  0
  7  9  1  0
 10  7  1  1
 10 11  1  0
 11 12  2  0
 12 13  1  0
 12 14  1  0
 14 15  2  0
 15 16  1  0
 15 17  1  0
 17 18  1  0
 17 19  2  0
 19 20  1  0
 10 21  1  0
 21 22  1  0
 21 23  1  0
 21 24  1  0
 24 25  1  1
 24 26  1  0
 26 27  1  0
 26 28  1  0
 26 29  1  0
 29 30  1  0
 29 31  1  0
 29 32  1  0
 32 33  1  1
 32 34  1  0
 34 35  1  0
 34 36  1  0
  6 37  1  0
 37 38  1  0
 38 39  1  0
 38 40  1  0
 38 41  1  0
 37 42  2  0
 42 43  1  0
 43 44  1  0
 43  5  1  0
 32 10  1  0
 19 11  1  0
 34 24  1  0
M  END
>  <cnnaffinity>  (1) 
-5.31712

>  <filename>  (1) 
[H]OC(=O)c1c(C([H])([H])[C@@]2(c3c([H])nc([H])c([H])c3[H])C([H])([H])[C@]3([H])C([H])([H])C([H])([H])[C@@]2([H])C3([H])[H])c(C([H])([H])[H])nn1[H]

$$$$
