
     RDKit          3D

 39 42  0  0  0  0  0  0  0  0999 V2000
    8.0545   -4.5785   22.6627 C   0  0  0  0  0  0  0  0  0  0  0  0
    8.9425   -3.4502   22.1219 C   0  0  0  0  0  0  0  0  0  0  0  0
    8.2842   -2.1438   21.9366 C   0  0  0  0  0  0  0  0  0  0  0  0
    7.8921   -1.7677   20.7385 N   0  0  0  0  0  0  0  0  0  0  0  0
    7.3386   -0.5585   20.9617 N   0  0  0  0  0  0  0  0  0  0  0  0
    6.6271    0.0735   19.9175 C   0  0  0  0  0  0  0  0  0  0  0  0
    5.4049    0.7106   20.1521 C   0  0  0  0  0  0  0  0  0  0  0  0
    4.7875    1.3297   19.0651 C   0  0  0  0  0  0  0  0  0  0  0  0
    5.4038    1.2876   17.8108 C   0  0  0  0  0  0  0  0  0  0  0  0
    6.5579    0.6370   17.5788 N   0  0  0  0  0  0  0  0  0  0  0  0
    7.1462    0.0287   18.6095 C   0  0  0  0  0  0  0  0  0  0  0  0
    8.0716   -0.5131   18.4144 H   0  0  0  0  0  0  0  0  0  0  0  0
    4.9614    1.7962   16.9578 H   0  0  0  0  0  0  0  0  0  0  0  0
    3.8466    1.8506   19.1860 H   0  0  0  0  0  0  0  0  0  0  0  0
    4.9763    0.7205   21.1569 H   0  0  0  0  0  0  0  0  0  0  0  0
    7.4716   -0.2517   22.2909 C   0  0  0  0  0  0  0  0  0  0  0  0
    7.1237    1.0603   22.8602 C   0  0  0  0  0  0  0  0  0  0  0  0
    7.5672    2.2141   22.2260 C   0  0  0  0  0  0  0  0  0  0  0  0
    7.2803    3.4925   22.7537 C   0  0  0  0  0  0  0  0  0  0  0  0
    6.5460    3.6187   23.9159 C   0  0  0  0  0  0  0  0  0  0  0  0
    6.0632    2.4618   24.5967 C   0  0  0  0  0  0  0  0  0  0  0  0
    5.3119    2.5533   25.7936 C   0  0  0  0  0  0  0  0  0  0  0  0
    4.8736    1.3936   26.3760 C   0  0  0  0  0  0  0  0  0  0  0  0
    4.1636    1.3283   27.5064 O   0  0  0  0  0  0  0  0  0  0  0  0
    4.1147    0.3520   27.5152 H   0  0  0  0  0  0  0  0  0  0  0  0
    5.0905    0.1543   25.9045 N   0  0  0  0  0  0  0  0  0  0  0  0
    5.8007    0.0527   24.7989 C   0  0  0  0  0  0  0  0  0  0  0  0
    6.3421    1.1594   24.0686 C   0  0  0  0  0  0  0  0  0  0  0  0
    5.9916   -0.9526   24.4280 H   0  0  0  0  0  0  0  0  0  0  0  0
    5.1022    3.5149   26.2354 H   0  0  0  0  0  0  0  0  0  0  0  0
    6.3230    4.5946   24.3370 H   0  0  0  0  0  0  0  0  0  0  0  0
    7.6476    4.3705   22.2279 H   0  0  0  0  0  0  0  0  0  0  0  0
    8.1469    2.1369   21.3049 H   0  0  0  0  0  0  0  0  0  0  0  0
    8.0581   -1.2569   22.9241 N   0  0  0  0  0  0  0  0  0  0  0  0
    9.8242   -3.3068   22.7568 H   0  0  0  0  0  0  0  0  0  0  0  0
    9.2388   -3.6638   21.0997 H   0  0  0  0  0  0  0  0  0  0  0  0
    7.6040   -4.3070   23.6255 H   0  0  0  0  0  0  0  0  0  0  0  0
    8.6542   -5.4851   22.8045 H   0  0  0  0  0  0  0  0  0  0  0  0
    7.2509   -4.8127   21.9548 H   0  0  0  0  0  0  0  0  0  0  0  0
  1  2  1  0
  2  3  1  0
  3  4  2  0
  4  5  1  0
  5  6  1  0
  6  7  2  0
  7  8  1  0
  8  9  2  0
  9 10  1  0
 10 11  2  0
 11 12  1  0
  9 13  1  0
  8 14  1  0
  7 15  1  0
  5 16  1  0
 16 17  1  0
 17 18  2  0
 18 19  1  0
 19 20  2  0
 20 21  1  0
 21 22  2  0
 22 23  1  0
 23 24  1  0
 24 25  1  0
 23 26  2  0
 26 27  1  0
 27 28  2  0
 27 29  1  0
 22 30  1  0
 20 31  1  0
 19 32  1  0
 18 33  1  0
 16 34  2  0
  2 35  1  0
  2 36  1  0
  1 37  1  0
  1 38  1  0
  1 39  1  0
 34  3  1  0
 11  6  1  0
 28 17  1  0
 28 21  1  0
M  END
>  <cnnaffinity>  (1) 
-5.12126

>  <filename>  (1) 
[H]Oc1nc([H])c2c(-c3nc(C([H])([H])C([H])([H])[H])nn3-c3c([H])nc([H])c([H])c3[H])c([H])c([H])c([H])c2c1[H]

$$$$
