
     RDKit          3D

 39 40  0  0  0  0  0  0  0  0999 V2000
    7.1677   -7.6468   26.6390 H   0  0  0  0  0  0  0  0  0  0  0  0
    7.3794   -6.7120   26.4210 O   0  0  0  0  0  0  0  0  0  0  0  0
    6.2073   -5.9564   26.5487 N   0  0  0  0  0  0  0  0  0  0  0  0
    6.4590   -5.0787   26.9895 H   0  0  0  0  0  0  0  0  0  0  0  0
    5.4324   -5.7070   25.4071 C   0  0  0  0  0  0  0  0  0  0  0  0
    5.2986   -6.4778   24.4824 O   0  0  0  0  0  0  0  0  0  0  0  0
    4.7432   -4.3522   25.4960 C   0  0  0  0  0  0  0  0  0  0  0  0
    4.6821   -4.0073   26.5399 H   0  0  0  0  0  0  0  0  0  0  0  0
    3.7182   -4.5088   25.1500 H   0  0  0  0  0  0  0  0  0  0  0  0
    5.4465   -3.3042   24.6127 C   0  0  0  0  0  0  0  0  0  0  0  0
    4.8177   -2.4104   24.5670 H   0  0  0  0  0  0  0  0  0  0  0  0
    5.5225   -3.6726   23.5821 H   0  0  0  0  0  0  0  0  0  0  0  0
    6.8307   -2.8978   25.1159 C   0  0  0  0  0  0  0  0  0  0  0  0
    7.5296   -3.7465   25.0443 H   0  0  0  0  0  0  0  0  0  0  0  0
    6.7809   -2.6478   26.1871 H   0  0  0  0  0  0  0  0  0  0  0  0
    7.4324   -1.6938   24.3720 C   0  0  0  0  0  0  0  0  0  0  0  0
    6.7542   -0.8292   24.4587 H   0  0  0  0  0  0  0  0  0  0  0  0
    8.3368   -1.3972   24.9207 H   0  0  0  0  0  0  0  0  0  0  0  0
    7.8308   -1.9555   22.8952 C   0  0  1  0  0  0  0  0  0  0  0  0
    7.9539   -3.0377   22.7530 H   0  0  0  0  0  0  0  0  0  0  0  0
    6.8132   -1.5910   21.8075 C   0  0  0  0  0  0  0  0  0  0  0  0
    5.7290   -2.1088   21.6437 O   0  0  0  0  0  0  0  0  0  0  0  0
    7.3957   -0.6503   20.9609 N   0  0  0  0  0  0  0  0  0  0  0  0
    6.6994    0.0057   19.9059 C   0  0  0  0  0  0  0  0  0  0  0  0
    7.2123    0.0721   18.5891 C   0  0  0  0  0  0  0  0  0  0  0  0
    8.1592   -0.4132   18.3561 H   0  0  0  0  0  0  0  0  0  0  0  0
    6.5845    0.6811   17.5744 N   0  0  0  0  0  0  0  0  0  0  0  0
    5.4172    1.2884   17.8394 C   0  0  0  0  0  0  0  0  0  0  0  0
    4.9379    1.7914   17.0033 H   0  0  0  0  0  0  0  0  0  0  0  0
    4.8237    1.2957   19.1085 C   0  0  0  0  0  0  0  0  0  0  0  0
    3.8841    1.8216   19.2599 H   0  0  0  0  0  0  0  0  0  0  0  0
    5.4654    0.6279   20.1586 C   0  0  0  0  0  0  0  0  0  0  0  0
    5.0292    0.5762   21.1563 H   0  0  0  0  0  0  0  0  0  0  0  0
    8.8529   -0.6877   21.0473 C   0  0  0  0  0  0  0  0  0  0  0  0
    9.2752    0.3096   20.8778 H   0  0  0  0  0  0  0  0  0  0  0  0
    9.2703   -1.3598   20.2829 H   0  0  0  0  0  0  0  0  0  0  0  0
    9.1146   -1.2160   22.4626 C   0  0  0  0  0  0  0  0  0  0  0  0
    9.9796   -1.8815   22.4919 H   0  0  0  0  0  0  0  0  0  0  0  0
    9.3431   -0.3764   23.1279 H   0  0  0  0  0  0  0  0  0  0  0  0
  1  2  1  0
  2  3  1  0
  3  4  1  0
  3  5  1  0
  5  6  2  0
  5  7  1  0
  7  8  1  0
  7  9  1  0
  7 10  1  0
 10 11  1  0
 10 12  1  0
 10 13  1  0
 13 14  1  0
 13 15  1  0
 13 16  1  0
 16 17  1  0
 16 18  1  0
 16 19  1  0
 19 20  1  1
 19 21  1  0
 21 22  2  0
 21 23  1  0
 23 24  1  0
 24 25  2  0
 25 26  1  0
 25 27  1  0
 27 28  2  0
 28 29  1  0
 28 30  1  0
 30 31  1  0
 30 32  2  0
 32 33  1  0
 23 34  1  0
 34 35  1  0
 34 36  1  0
 34 37  1  0
 37 38  1  0
 37 39  1  0
 37 19  1  0
 32 24  1  0
M  END
>  <cnnaffinity>  (1) 
-5.2606

>  <filename>  (1) 
[H]ON([H])C(=O)C([H])([H])C([H])([H])C([H])([H])C([H])([H])[C@@]1([H])C(=O)N(c2c([H])nc([H])c([H])c2[H])C([H])([H])C1([H])[H]

$$$$
