
     RDKit          3D

 32 34  0  0  0  0  0  0  0  0999 V2000
    5.9045   -0.6553   24.6383 H   0  0  0  0  0  0  0  0  0  0  0  0
    6.7606   -0.6705   25.0938 O   0  0  0  0  0  0  0  0  0  0  0  0
    7.5031   -1.6821   24.4265 C   0  0  2  0  0  0  0  0  0  0  0  0
    8.4873   -1.7006   24.8982 H   0  0  0  0  0  0  0  0  0  0  0  0
    7.7827   -1.4261   22.9617 C   0  0  0  0  0  0  0  0  0  0  0  0
    6.9135   -0.7298   22.1873 O   0  0  0  0  0  0  0  0  0  0  0  0
    7.4057   -0.7066   20.9174 C   0  0  0  0  0  0  0  0  0  0  0  0
    6.6460    0.0154   19.9105 C   0  0  0  0  0  0  0  0  0  0  0  0
    7.1618    0.0665   18.6058 C   0  0  0  0  0  0  0  0  0  0  0  0
    8.1056   -0.4153   18.3702 H   0  0  0  0  0  0  0  0  0  0  0  0
    6.5667    0.6741   17.5803 N   0  0  0  0  0  0  0  0  0  0  0  0
    5.4048    1.2912   17.8388 C   0  0  0  0  0  0  0  0  0  0  0  0
    4.9231    1.7781   16.9953 H   0  0  0  0  0  0  0  0  0  0  0  0
    4.7989    1.3133   19.1054 C   0  0  0  0  0  0  0  0  0  0  0  0
    3.8659    1.8486   19.2549 H   0  0  0  0  0  0  0  0  0  0  0  0
    5.4196    0.6618   20.1677 C   0  0  0  0  0  0  0  0  0  0  0  0
    4.9862    0.6423   21.1726 H   0  0  0  0  0  0  0  0  0  0  0  0
    8.5627   -1.4245   20.8680 C   0  0  0  0  0  0  0  0  0  0  0  0
    9.1687   -1.5780   19.9865 H   0  0  0  0  0  0  0  0  0  0  0  0
    8.7991   -1.9033   22.1884 C   0  0  0  0  0  0  0  0  0  0  0  0
    9.6291   -2.5155   22.5204 H   0  0  0  0  0  0  0  0  0  0  0  0
    6.8695   -3.0646   24.6324 C   0  0  0  0  0  0  0  0  0  0  0  0
    7.4794   -4.0231   25.4543 C   0  0  0  0  0  0  0  0  0  0  0  0
    8.4217   -3.7876   25.9490 H   0  0  0  0  0  0  0  0  0  0  0  0
    6.8759   -5.2698   25.6628 C   0  0  0  0  0  0  0  0  0  0  0  0
    7.3535   -5.9992   26.3133 H   0  0  0  0  0  0  0  0  0  0  0  0
    5.6586   -5.5732   25.0412 C   0  0  0  0  0  0  0  0  0  0  0  0
    5.1885   -6.5393   25.2006 H   0  0  0  0  0  0  0  0  0  0  0  0
    5.0470   -4.6283   24.2117 C   0  0  0  0  0  0  0  0  0  0  0  0
    4.1005   -4.8472   23.7227 H   0  0  0  0  0  0  0  0  0  0  0  0
    5.6568   -3.3906   24.0082 C   0  0  0  0  0  0  0  0  0  0  0  0
    5.1919   -2.6753   23.3446 H   0  0  0  0  0  0  0  0  0  0  0  0
  1  2  1  0
  2  3  1  0
  3  4  1  1
  3  5  1  0
  5  6  1  0
  6  7  1  0
  7  8  1  0
  8  9  2  0
  9 10  1  0
  9 11  1  0
 11 12  2  0
 12 13  1  0
 12 14  1  0
 14 15  1  0
 14 16  2  0
 16 17  1  0
  7 18  2  0
 18 19  1  0
 18 20  1  0
 20 21  1  0
  3 22  1  0
 22 23  2  0
 23 24  1  0
 23 25  1  0
 25 26  1  0
 25 27  2  0
 27 28  1  0
 27 29  1  0
 29 30  1  0
 29 31  2  0
 31 32  1  0
 20  5  2  0
 31 22  1  0
 16  8  1  0
M  END
>  <cnnaffinity>  (1) 
-4.47267

>  <filename>  (1) 
[H]O[C@]([H])(c1oc(-c2c([H])nc([H])c([H])c2[H])c([H])c1[H])c1c([H])c([H])c([H])c([H])c1[H]

$$$$
