
     RDKit          3D

 37 39  0  0  0  0  0  0  0  0999 V2000
    8.6683   -1.7268   20.0517 H   0  0  0  0  0  0  0  0  0  0  0  0
    7.9346   -1.9413   20.6438 O   0  0  0  0  0  0  0  0  0  0  0  0
    7.3722   -0.7133   21.0621 C   0  0  2  0  0  0  0  0  0  0  0  0
    6.6169   -0.9951   21.8097 H   0  0  0  0  0  0  0  0  0  0  0  0
    6.6507   -0.0141   19.9180 C   0  0  0  0  0  0  0  0  0  0  0  0
    7.1506    0.0215   18.6024 C   0  0  0  0  0  0  0  0  0  0  0  0
    8.1070   -0.4404   18.3450 H   0  0  0  0  0  0  0  0  0  0  0  0
    6.5500    0.6474   17.5778 N   0  0  0  0  0  0  0  0  0  0  0  0
    5.3968    1.2834   17.8285 C   0  0  0  0  0  0  0  0  0  0  0  0
    4.9408    1.7991   16.9849 H   0  0  0  0  0  0  0  0  0  0  0  0
    4.7978    1.3087   19.0914 C   0  0  0  0  0  0  0  0  0  0  0  0
    3.8667    1.8479   19.2325 H   0  0  0  0  0  0  0  0  0  0  0  0
    5.4331    0.6498   20.1458 C   0  0  0  0  0  0  0  0  0  0  0  0
    5.0210    0.6773   21.1565 H   0  0  0  0  0  0  0  0  0  0  0  0
    8.4623    0.1439   21.7991 C   0  0  2  0  0  0  0  0  0  0  0  0
    8.9233   -0.5604   22.5070 H   0  0  0  0  0  0  0  0  0  0  0  0
    7.8374    1.2687   22.6049 C   0  0  0  0  0  0  0  0  0  0  0  0
    7.4138    2.4759   22.0223 C   0  0  0  0  0  0  0  0  0  0  0  0
    7.5491    2.6435   20.9608 H   0  0  0  0  0  0  0  0  0  0  0  0
    6.7855    3.4712   22.7803 C   0  0  0  0  0  0  0  0  0  0  0  0
    6.4495    4.4138   22.3578 H   0  0  0  0  0  0  0  0  0  0  0  0
    6.5701    3.2714   24.1418 C   0  0  0  0  0  0  0  0  0  0  0  0
    7.0031    2.0705   24.7434 C   0  0  0  0  0  0  0  0  0  0  0  0
    7.6189    1.0845   23.9773 C   0  0  0  0  0  0  0  0  0  0  0  0
    7.9142    0.1750   24.4906 H   0  0  0  0  0  0  0  0  0  0  0  0
    6.8020    1.8198   26.0753 O   0  0  0  0  0  0  0  0  0  0  0  0
    6.4882    2.9624   26.8716 C   0  0  0  0  0  0  0  0  0  0  0  0
    6.0570    2.5588   27.7919 H   0  0  0  0  0  0  0  0  0  0  0  0
    7.4113    3.5169   27.0913 H   0  0  0  0  0  0  0  0  0  0  0  0
    5.4858    3.8688   26.1592 C   0  0  0  0  0  0  0  0  0  0  0  0
    5.3458    4.7980   26.7178 H   0  0  0  0  0  0  0  0  0  0  0  0
    4.5273    3.3452   26.0387 H   0  0  0  0  0  0  0  0  0  0  0  0
    5.9707    4.2663   24.8731 O   0  0  0  0  0  0  0  0  0  0  0  0
    9.5485    0.6462   20.8392 C   0  0  0  0  0  0  0  0  0  0  0  0
    9.0755    1.2007   20.0320 H   0  0  0  0  0  0  0  0  0  0  0  0
   10.2648    1.3095   21.3314 H   0  0  0  0  0  0  0  0  0  0  0  0
   10.1083   -0.1880   20.4020 H   0  0  0  0  0  0  0  0  0  0  0  0
  1  2  1  0
  2  3  1  0
  3  4  1  1
  3  5  1  0
  5  6  2  0
  6  7  1  0
  6  8  1  0
  8  9  2  0
  9 10  1  0
  9 11  1  0
 11 12  1  0
 11 13  2  0
 13 14  1  0
  3 15  1  0
 15 16  1  1
 15 17  1  0
 17 18  2  0
 18 19  1  0
 18 20  1  0
 20 21  1  0
 20 22  2  0
 22 23  1  0
 23 24  2  0
 24 25  1  0
 23 26  1  0
 26 27  1  0
 27 28  1  0
 27 29  1  0
 27 30  1  0
 30 31  1  0
 30 32  1  0
 30 33  1  0
 15 34  1  0
 34 35  1  0
 34 36  1  0
 34 37  1  0
 13  5  1  0
 24 17  1  0
 33 22  1  0
M  END
>  <cnnaffinity>  (1) 
-4.48288

>  <filename>  (1) 
[H]O[C@]([H])(c1c([H])nc([H])c([H])c1[H])[C@]([H])(c1c([H])c([H])c2c(c1[H])OC([H])([H])C([H])([H])O2)C([H])([H])[H]

$$$$
