
     RDKit          3D

 36 37  0  0  0  0  0  0  0  0999 V2000
   10.0660   -0.4913   21.4827 H   0  0  0  0  0  0  0  0  0  0  0  0
    9.7495   -0.2869   20.5927 O   0  0  0  0  0  0  0  0  0  0  0  0
    8.7142   -1.2088   20.6271 C   0  0  1  0  0  0  0  0  0  0  0  0
    8.6981   -1.8216   19.7210 H   0  0  0  0  0  0  0  0  0  0  0  0
    8.9821   -1.9235   21.8181 O   0  0  0  0  0  0  0  0  0  0  0  0
    8.5185   -3.2684   21.9027 C   0  0  0  0  0  0  0  0  0  0  0  0
    8.8041   -3.8247   21.0019 H   0  0  0  0  0  0  0  0  0  0  0  0
    9.0634   -3.7269   22.7390 H   0  0  0  0  0  0  0  0  0  0  0  0
    6.9984   -3.4222   22.0888 C   0  0  0  0  0  0  0  0  0  0  0  0
    6.5038   -2.8071   21.3251 H   0  0  0  0  0  0  0  0  0  0  0  0
    6.6808   -2.9924   23.0608 H   0  0  0  0  0  0  0  0  0  0  0  0
    6.5842   -4.8103   21.9073 N   0  0  0  0  0  0  0  0  0  0  0  0
    6.8130   -5.7466   23.0063 C   0  0  0  0  0  0  0  0  0  0  0  0
    6.7153   -5.2536   23.9863 H   0  0  0  0  0  0  0  0  0  0  0  0
    7.8341   -6.1524   22.9689 H   0  0  0  0  0  0  0  0  0  0  0  0
    5.7345   -6.8459   22.8430 C   0  0  0  0  0  0  0  0  0  0  0  0
    5.1064   -6.9128   23.7418 H   0  0  0  0  0  0  0  0  0  0  0  0
    6.1849   -7.8329   22.7059 H   0  0  0  0  0  0  0  0  0  0  0  0
    4.9103   -6.4235   21.6084 C   0  0  0  0  0  0  0  0  0  0  0  0
    5.2387   -6.9383   20.7016 H   0  0  0  0  0  0  0  0  0  0  0  0
    3.8428   -6.6278   21.7397 H   0  0  0  0  0  0  0  0  0  0  0  0
    5.2144   -4.9395   21.4522 C   0  0  0  0  0  0  0  0  0  0  0  0
    5.1980   -4.5803   20.4152 H   0  0  0  0  0  0  0  0  0  0  0  0
    4.5031   -4.3214   22.0348 H   0  0  0  0  0  0  0  0  0  0  0  0
    7.4603   -0.5699   20.8167 N   0  0  0  0  0  0  0  0  0  0  0  0
    7.5362   -0.0233   21.6651 H   0  0  0  0  0  0  0  0  0  0  0  0
    6.7630    0.0783   19.7764 C   0  0  0  0  0  0  0  0  0  0  0  0
    7.1757    0.1331   18.4182 C   0  0  0  0  0  0  0  0  0  0  0  0
    8.1187   -0.3298   18.1342 H   0  0  0  0  0  0  0  0  0  0  0  0
    6.4991    0.7508   17.4388 N   0  0  0  0  0  0  0  0  0  0  0  0
    5.3495    1.3545   17.7781 C   0  0  0  0  0  0  0  0  0  0  0  0
    4.8266    1.8681   16.9760 H   0  0  0  0  0  0  0  0  0  0  0  0
    4.8310    1.3369   19.0796 C   0  0  0  0  0  0  0  0  0  0  0  0
    3.8934    1.8362   19.2910 H   0  0  0  0  0  0  0  0  0  0  0  0
    5.5425    0.6941   20.0974 C   0  0  0  0  0  0  0  0  0  0  0  0
    5.1847    0.6438   21.1266 H   0  0  0  0  0  0  0  0  0  0  0  0
  1  2  1  0
  2  3  1  0
  3  4  1  6
  3  5  1  0
  5  6  1  0
  6  7  1  0
  6  8  1  0
  6  9  1  0
  9 10  1  0
  9 11  1  0
  9 12  1  0
 12 13  1  0
 13 14  1  0
 13 15  1  0
 13 16  1  0
 16 17  1  0
 16 18  1  0
 16 19  1  0
 19 20  1  0
 19 21  1  0
 19 22  1  0
 22 23  1  0
 22 24  1  0
  3 25  1  0
 25 26  1  0
 25 27  1  0
 27 28  2  0
 28 29  1  0
 28 30  1  0
 30 31  2  0
 31 32  1  0
 31 33  1  0
 33 34  1  0
 33 35  2  0
 35 36  1  0
 22 12  1  0
 35 27  1  0
M  END
>  <cnnaffinity>  (1) 
-4.00051

>  <filename>  (1) 
[H]O[C@@]([H])(OC([H])([H])C([H])([H])N1C([H])([H])C([H])([H])C([H])([H])C1([H])[H])N([H])c1c([H])nc([H])c([H])c1[H]

$$$$
