
     RDKit          3D

 26 27  0  0  0  0  0  0  0  0999 V2000
    9.0054    1.2750   26.0046 H   0  0  0  0  0  0  0  0  0  0  0  0
    8.4153    0.7460   25.4495 O   0  0  0  0  0  0  0  0  0  0  0  0
    8.4357    1.6003   24.1034 P   0  0  0  0  0  0  0  0  0  0  0  0
    8.3156    2.9994   24.5673 O   0  0  0  0  0  0  0  0  0  0  0  0
    9.9582    1.5867   23.6745 O   0  0  0  0  0  0  0  0  0  0  0  0
   10.2838    2.1867   24.3656 H   0  0  0  0  0  0  0  0  0  0  0  0
    7.1513    1.0079   22.7434 C   0  0  0  0  0  0  0  0  0  0  0  0
    7.1452    1.8718   21.6873 F   0  0  0  0  0  0  0  0  0  0  0  0
    5.8679    0.9464   23.2085 F   0  0  0  0  0  0  0  0  0  0  0  0
    7.4777   -0.3551   22.1696 C   0  0  0  0  0  0  0  0  0  0  0  0
    7.2002   -0.8134   20.9047 C   0  0  0  0  0  0  0  0  0  0  0  0
    6.5112   -0.1116   19.8498 C   0  0  0  0  0  0  0  0  0  0  0  0
    7.0089   -0.2735   18.5582 C   0  0  0  0  0  0  0  0  0  0  0  0
    7.8594   -0.9296   18.3895 H   0  0  0  0  0  0  0  0  0  0  0  0
    6.5238    0.4027   17.5083 N   0  0  0  0  0  0  0  0  0  0  0  0
    5.5039    1.2559   17.7164 C   0  0  0  0  0  0  0  0  0  0  0  0
    5.1151    1.8338   16.8814 H   0  0  0  0  0  0  0  0  0  0  0  0
    4.9201    1.4179   18.9755 C   0  0  0  0  0  0  0  0  0  0  0  0
    4.0983    2.1117   19.0896 H   0  0  0  0  0  0  0  0  0  0  0  0
    5.4218    0.7321   20.0767 C   0  0  0  0  0  0  0  0  0  0  0  0
    4.9940    0.8692   21.0721 H   0  0  0  0  0  0  0  0  0  0  0  0
    7.8193   -2.0338   20.7041 N   0  0  0  0  0  0  0  0  0  0  0  0
    8.4454   -2.3341   21.8180 C   0  0  0  0  0  0  0  0  0  0  0  0
    9.0284   -3.2377   21.9733 H   0  0  0  0  0  0  0  0  0  0  0  0
    8.2624   -1.3340   22.7558 N   0  0  0  0  0  0  0  0  0  0  0  0
    8.6542   -1.3352   23.6988 H   0  0  0  0  0  0  0  0  0  0  0  0
  1  2  1  0
  2  3  1  0
  3  4  2  0
  3  5  1  0
  5  6  1  0
  3  7  1  0
  7  8  1  0
  7  9  1  0
  7 10  1  0
 10 11  2  0
 11 12  1  0
 12 13  2  0
 13 14  1  0
 13 15  1  0
 15 16  2  0
 16 17  1  0
 16 18  1  0
 18 19  1  0
 18 20  2  0
 20 21  1  0
 11 22  1  0
 22 23  2  0
 23 24  1  0
 23 25  1  0
 25 26  1  0
 25 10  1  0
 20 12  1  0
M  END
>  <cnnaffinity>  (1) 
-4.50639

>  <filename>  (1) 
[H]OP(=O)(O[H])C(F)(F)c1c(-c2c([H])nc([H])c([H])c2[H])nc([H])n1[H]

$$$$
