
     RDKit          3D

 28 30  0  0  0  0  0  0  0  0999 V2000
    7.1069    1.8248   25.5871 H   0  0  0  0  0  0  0  0  0  0  0  0
    7.3599    1.1593   24.9338 O   0  0  0  0  0  0  0  0  0  0  0  0
    7.4882   -0.0404   25.9528 P   0  0  0  0  0  0  0  0  0  0  0  0
    6.5470    0.4128   26.9981 O   0  0  0  0  0  0  0  0  0  0  0  0
    8.9335    0.1618   26.5999 O   0  0  0  0  0  0  0  0  0  0  0  0
    8.8372    1.0522   26.9681 H   0  0  0  0  0  0  0  0  0  0  0  0
    7.1667   -1.8078   25.2229 C   0  0  0  0  0  0  0  0  0  0  0  0
    7.3457   -2.7934   26.1617 F   0  0  0  0  0  0  0  0  0  0  0  0
    5.8729   -1.9350   24.7899 F   0  0  0  0  0  0  0  0  0  0  0  0
    8.1135   -2.0382   24.0486 C   0  0  0  0  0  0  0  0  0  0  0  0
    9.3542   -2.6598   24.1025 C   0  0  0  0  0  0  0  0  0  0  0  0
    9.7856   -3.0936   25.0013 H   0  0  0  0  0  0  0  0  0  0  0  0
   10.2163   -2.6409   22.5474 S   0  0  0  0  0  0  0  0  0  0  0  0
    8.8575   -1.7891   21.8571 C   0  0  0  0  0  0  0  0  0  0  0  0
    8.5723   -1.3067   20.6869 N   0  0  0  0  0  0  0  0  0  0  0  0
    7.3179   -0.7428   20.9435 C   0  0  0  0  0  0  0  0  0  0  0  0
    6.6162   -0.0365   19.8884 C   0  0  0  0  0  0  0  0  0  0  0  0
    7.2216   -0.0303   18.6276 C   0  0  0  0  0  0  0  0  0  0  0  0
    8.1693   -0.5482   18.5024 H   0  0  0  0  0  0  0  0  0  0  0  0
    6.6911    0.5979   17.5660 N   0  0  0  0  0  0  0  0  0  0  0  0
    5.5359    1.2623   17.7471 C   0  0  0  0  0  0  0  0  0  0  0  0
    5.0954    1.7954   16.9116 H   0  0  0  0  0  0  0  0  0  0  0  0
    4.8739    1.3077   18.9798 C   0  0  0  0  0  0  0  0  0  0  0  0
    3.9572    1.8799   19.0638 H   0  0  0  0  0  0  0  0  0  0  0  0
    5.4067    0.6463   20.0821 C   0  0  0  0  0  0  0  0  0  0  0  0
    4.9010    0.6892   21.0524 H   0  0  0  0  0  0  0  0  0  0  0  0
    6.8670   -0.8850   22.1791 N   0  0  0  0  0  0  0  0  0  0  0  0
    7.8704   -1.5681   22.7579 N   0  0  0  0  0  0  0  0  0  0  0  0
  1  2  1  0
  2  3  1  0
  3  4  2  0
  3  5  1  0
  5  6  1  0
  3  7  1  0
  7  8  1  0
  7  9  1  0
  7 10  1  0
 10 11  2  0
 11 12  1  0
 11 13  1  0
 13 14  1  0
 14 15  2  0
 15 16  1  0
 16 17  1  0
 17 18  2  0
 18 19  1  0
 18 20  1  0
 20 21  2  0
 21 22  1  0
 21 23  1  0
 23 24  1  0
 23 25  2  0
 25 26  1  0
 16 27  2  0
 27 28  1  0
 28 10  1  0
 28 14  1  0
 25 17  1  0
M  END
>  <cnnaffinity>  (1) 
-5.33508

>  <filename>  (1) 
[H]OP(=O)(O[H])C(F)(F)c1c([H])sc2nc(-c3c([H])nc([H])c([H])c3[H])nn12

$$$$
