
     RDKit          3D

 35 36  0  0  0  0  0  0  0  0999 V2000
    5.2759   -2.6322   19.3714 O   0  0  0  0  0  0  0  0  0  0  0  0
    5.8631   -2.9308   20.6192 C   0  0  0  0  0  0  0  0  0  0  0  0
    7.0678   -2.0651   20.9402 C   0  0  0  0  0  0  0  0  0  0  0  0
    6.8770   -0.5407   21.0350 C   0  0  1  0  0  0  0  0  0  0  0  0
    8.1848    0.0546   21.1793 N   0  0  0  0  0  0  0  0  0  0  0  0
    9.0247   -0.0507   22.2227 C   0  0  0  0  0  0  0  0  0  0  0  0
    8.7114   -0.7175   23.4194 C   0  0  0  0  0  0  0  0  0  0  0  0
    9.6533   -0.8071   24.4567 C   0  0  0  0  0  0  0  0  0  0  0  0
    9.2663   -1.6241   25.7103 C   0  0  0  0  0  0  0  0  0  0  0  0
    9.7886   -1.1769   26.8559 F   0  0  0  0  0  0  0  0  0  0  0  0
    9.6173   -2.9163   25.5527 F   0  0  0  0  0  0  0  0  0  0  0  0
    7.9286   -1.6069   25.8848 F   0  0  0  0  0  0  0  0  0  0  0  0
   10.8837   -0.1590   24.2032 C   0  0  0  0  0  0  0  0  0  0  0  0
   12.2137   -0.0977   25.3090 Cl  0  0  0  0  0  0  0  0  0  0  0  0
   11.0844    0.5094   22.9828 C   0  0  0  0  0  0  0  0  0  0  0  0
   10.1896    0.5722   22.0017 N   0  0  0  0  0  0  0  0  0  0  0  0
   12.0400    1.0060   22.8139 H   0  0  0  0  0  0  0  0  0  0  0  0
    7.7118   -1.1277   23.5189 H   0  0  0  0  0  0  0  0  0  0  0  0
    8.5690    0.7052   20.5142 H   0  0  0  0  0  0  0  0  0  0  0  0
    6.2392    0.1103   19.8325 C   0  0  0  0  0  0  0  0  0  0  0  0
    5.0177    0.7931   19.8920 C   0  0  0  0  0  0  0  0  0  0  0  0
    4.5668    1.4616   18.7491 C   0  0  0  0  0  0  0  0  0  0  0  0
    5.3305    1.3803   17.5800 C   0  0  0  0  0  0  0  0  0  0  0  0
    6.4795    0.6944   17.4913 N   0  0  0  0  0  0  0  0  0  0  0  0
    6.9182    0.0962   18.6081 C   0  0  0  0  0  0  0  0  0  0  0  0
    7.8712   -0.4250   18.4972 H   0  0  0  0  0  0  0  0  0  0  0  0
    5.0101    1.8999   16.6802 H   0  0  0  0  0  0  0  0  0  0  0  0
    3.6583    2.0547   18.7647 H   0  0  0  0  0  0  0  0  0  0  0  0
    4.4413    0.8119   20.8202 H   0  0  0  0  0  0  0  0  0  0  0  0
    6.2542   -0.3177   21.9174 H   0  0  0  0  0  0  0  0  0  0  0  0
    7.8426   -2.2145   20.1900 H   0  0  0  0  0  0  0  0  0  0  0  0
    7.5138   -2.4167   21.8767 H   0  0  0  0  0  0  0  0  0  0  0  0
    5.0816   -2.8179   21.3834 H   0  0  0  0  0  0  0  0  0  0  0  0
    6.1848   -3.9862   20.6578 H   0  0  0  0  0  0  0  0  0  0  0  0
    5.9548   -2.2464   18.8024 H   0  0  0  0  0  0  0  0  0  0  0  0
  1  2  1  0
  2  3  1  0
  3  4  1  0
  4  5  1  0
  5  6  1  0
  6  7  2  0
  7  8  1  0
  8  9  1  0
  9 10  1  0
  9 11  1  0
  9 12  1  0
  8 13  2  0
 13 14  1  0
 13 15  1  0
 15 16  2  0
 15 17  1  0
  7 18  1  0
  5 19  1  0
  4 20  1  0
 20 21  2  0
 21 22  1  0
 22 23  2  0
 23 24  1  0
 24 25  2  0
 25 26  1  0
 23 27  1  0
 22 28  1  0
 21 29  1  0
  4 30  1  1
  3 31  1  0
  3 32  1  0
  2 33  1  0
  2 34  1  0
  1 35  1  0
 16  6  1  0
 25 20  1  0
M  END
>  <cnnaffinity>  (1) 
-5.38051

>  <filename>  (1) 
[H]OC([H])([H])C([H])([H])[C@]([H])(c1c([H])nc([H])c([H])c1[H])N([H])c1nc([H])c(Cl)c(C(F)(F)F)c1[H]

$$$$
