
     RDKit          3D

 42 45  0  0  0  0  0  0  0  0999 V2000
    7.1088   -4.4804   23.6583 C   0  0  0  0  0  0  0  0  0  0  0  0
    7.9742   -4.6179   22.4068 C   0  0  0  0  0  0  0  0  0  0  0  0
    8.9300   -3.4254   22.1459 C   0  0  0  0  0  0  0  0  0  0  0  0
   10.0385   -3.4622   23.0497 O   0  0  0  0  0  0  0  0  0  0  0  0
    9.7970   -3.0117   23.8747 H   0  0  0  0  0  0  0  0  0  0  0  0
    8.2346   -2.0882   21.9775 C   0  0  0  0  0  0  0  0  0  0  0  0
    7.8235   -1.7264   20.7758 N   0  0  0  0  0  0  0  0  0  0  0  0
    7.2756   -0.5103   20.9713 N   0  0  0  0  0  0  0  0  0  0  0  0
    6.5715    0.0760   19.8905 C   0  0  0  0  0  0  0  0  0  0  0  0
    5.3325    0.6937   20.0758 C   0  0  0  0  0  0  0  0  0  0  0  0
    4.7548    1.3214   18.9718 C   0  0  0  0  0  0  0  0  0  0  0  0
    5.4176    1.2887   17.7406 C   0  0  0  0  0  0  0  0  0  0  0  0
    6.5660    0.6159   17.5428 N   0  0  0  0  0  0  0  0  0  0  0  0
    7.1151    0.0036   18.5929 C   0  0  0  0  0  0  0  0  0  0  0  0
    8.0294   -0.5581   18.4099 H   0  0  0  0  0  0  0  0  0  0  0  0
    5.0078    1.8147   16.8812 H   0  0  0  0  0  0  0  0  0  0  0  0
    3.8005    1.8253   19.0612 H   0  0  0  0  0  0  0  0  0  0  0  0
    4.8461    0.6829   21.0523 H   0  0  0  0  0  0  0  0  0  0  0  0
    7.4335   -0.1620   22.2883 C   0  0  0  0  0  0  0  0  0  0  0  0
    7.1421    1.1884   22.8422 C   0  0  0  0  0  0  0  0  0  0  0  0
    7.4892    2.2655   22.1306 N   0  0  0  0  0  0  0  0  0  0  0  0
    7.2393    3.4930   22.6389 C   0  0  0  0  0  0  0  0  0  0  0  0
    6.6468    3.6836   23.8695 C   0  0  0  0  0  0  0  0  0  0  0  0
    6.4196    4.9291   24.3184 F   0  0  0  0  0  0  0  0  0  0  0  0
    6.2616    2.5806   24.6769 C   0  0  0  0  0  0  0  0  0  0  0  0
    5.6665    2.7124   25.9703 C   0  0  0  0  0  0  0  0  0  0  0  0
    5.3177    1.5838   26.6789 C   0  0  0  0  0  0  0  0  0  0  0  0
    5.5299    0.2869   26.1409 C   0  0  0  0  0  0  0  0  0  0  0  0
    6.1020    0.1293   24.9049 C   0  0  0  0  0  0  0  0  0  0  0  0
    6.5055    1.2739   24.1398 C   0  0  0  0  0  0  0  0  0  0  0  0
    6.2725   -0.8656   24.4963 H   0  0  0  0  0  0  0  0  0  0  0  0
    5.2474   -0.5976   26.7081 H   0  0  0  0  0  0  0  0  0  0  0  0
    4.8731    1.6720   27.6646 H   0  0  0  0  0  0  0  0  0  0  0  0
    5.5018    3.7066   26.3814 H   0  0  0  0  0  0  0  0  0  0  0  0
    7.5187    4.3452   22.0239 H   0  0  0  0  0  0  0  0  0  0  0  0
    7.9659   -1.1958   22.9486 N   0  0  0  0  0  0  0  0  0  0  0  0
    9.3134   -3.5507   21.1356 H   0  0  0  0  0  0  0  0  0  0  0  0
    7.3415   -4.7646   21.5192 H   0  0  0  0  0  0  0  0  0  0  0  0
    8.6151   -5.5078   22.4926 H   0  0  0  0  0  0  0  0  0  0  0  0
    6.4356   -5.3386   23.7615 H   0  0  0  0  0  0  0  0  0  0  0  0
    7.7394   -4.4257   24.5537 H   0  0  0  0  0  0  0  0  0  0  0  0
    6.4957   -3.5720   23.6238 H   0  0  0  0  0  0  0  0  0  0  0  0
  1  2  1  0
  2  3  1  0
  3  4  1  0
  4  5  1  0
  3  6  1  0
  6  7  2  0
  7  8  1  0
  8  9  1  0
  9 10  2  0
 10 11  1  0
 11 12  2  0
 12 13  1  0
 13 14  2  0
 14 15  1  0
 12 16  1  0
 11 17  1  0
 10 18  1  0
  8 19  1  0
 19 20  1  0
 20 21  2  0
 21 22  1  0
 22 23  2  0
 23 24  1  0
 23 25  1  0
 25 26  2  0
 26 27  1  0
 27 28  2  0
 28 29  1  0
 29 30  2  0
 29 31  1  0
 28 32  1  0
 27 33  1  0
 26 34  1  0
 22 35  1  0
 19 36  2  0
  3 37  1  0
  2 38  1  0
  2 39  1  0
  1 40  1  0
  1 41  1  0
  1 42  1  0
 36  6  1  0
 14  9  1  0
 30 20  1  0
 30 25  1  0
M  END
>  <cnnaffinity>  (1) 
-6.01753

>  <filename>  (1) 
[H]OC([H])(c1nc(-c2nc([H])c(F)c3c([H])c([H])c([H])c([H])c23)n(-c2c([H])nc([H])c([H])c2[H])n1)C([H])([H])C([H])([H])[H]

$$$$
