
     RDKit          3D

 31 33  0  0  0  0  0  0  0  0999 V2000
    7.5137    3.1764   22.8155 H   0  0  0  0  0  0  0  0  0  0  0  0
    7.4177    3.5531   23.7055 O   0  0  0  0  0  0  0  0  0  0  0  0
    6.9764    2.5630   24.5180 C   0  0  0  0  0  0  0  0  0  0  0  0
    6.7304    2.8745   25.8512 C   0  0  0  0  0  0  0  0  0  0  0  0
    6.9010    3.8925   26.1725 H   0  0  0  0  0  0  0  0  0  0  0  0
    6.2793    1.8820   26.7283 C   0  0  0  0  0  0  0  0  0  0  0  0
    5.9878    2.2874   28.3951 Cl  0  0  0  0  0  0  0  0  0  0  0  0
    6.0464    0.5758   26.2886 C   0  0  0  0  0  0  0  0  0  0  0  0
    5.7054   -0.1928   26.9782 H   0  0  0  0  0  0  0  0  0  0  0  0
    6.2859    0.2619   24.9426 C   0  0  0  0  0  0  0  0  0  0  0  0
    6.1414   -0.7354   24.5330 H   0  0  0  0  0  0  0  0  0  0  0  0
    6.7730    1.2425   24.0799 C   0  0  0  0  0  0  0  0  0  0  0  0
    7.0339    1.0255   22.7364 O   0  0  0  0  0  0  0  0  0  0  0  0
    7.5566   -0.1524   22.3437 C   0  0  0  0  0  0  0  0  0  0  0  0
    8.2853   -1.1156   22.9989 C   0  0  0  0  0  0  0  0  0  0  0  0
    8.5687   -1.0902   24.0404 H   0  0  0  0  0  0  0  0  0  0  0  0
    8.5552   -2.1480   22.0563 C   0  0  0  0  0  0  0  0  0  0  0  0
    9.1113   -3.0645   22.2444 H   0  0  0  0  0  0  0  0  0  0  0  0
    7.9728   -1.7592   20.8847 C   0  0  0  0  0  0  0  0  0  0  0  0
    7.7985   -2.2272   19.9445 H   0  0  0  0  0  0  0  0  0  0  0  0
    7.3784   -0.5256   21.0330 N   0  0  0  0  0  0  0  0  0  0  0  0
    6.6580    0.0999   19.9745 C   0  0  0  0  0  0  0  0  0  0  0  0
    7.1804    0.0755   18.6654 C   0  0  0  0  0  0  0  0  0  0  0  0
    8.1306   -0.4130   18.4465 H   0  0  0  0  0  0  0  0  0  0  0  0
    6.5787    0.6518   17.6221 N   0  0  0  0  0  0  0  0  0  0  0  0
    5.4110    1.2743   17.8480 C   0  0  0  0  0  0  0  0  0  0  0  0
    4.9661    1.7708   16.9921 H   0  0  0  0  0  0  0  0  0  0  0  0
    4.7867    1.3081   19.1000 C   0  0  0  0  0  0  0  0  0  0  0  0
    3.8432    1.8290   19.2198 H   0  0  0  0  0  0  0  0  0  0  0  0
    5.4127    0.7013   20.1899 C   0  0  0  0  0  0  0  0  0  0  0  0
    4.9606    0.6905   21.1842 H   0  0  0  0  0  0  0  0  0  0  0  0
  1  2  1  0
  2  3  1  0
  3  4  2  0
  4  5  1  0
  4  6  1  0
  6  7  1  0
  6  8  2  0
  8  9  1  0
  8 10  1  0
 10 11  1  0
 10 12  2  0
 12 13  1  0
 13 14  1  0
 14 15  2  0
 15 16  1  0
 15 17  1  0
 17 18  1  0
 17 19  2  0
 19 20  1  0
 19 21  1  0
 21 22  1  0
 22 23  2  0
 23 24  1  0
 23 25  1  0
 25 26  2  0
 26 27  1  0
 26 28  1  0
 28 29  1  0
 28 30  2  0
 30 31  1  0
 12  3  1  0
 21 14  1  0
 30 22  1  0
M  END
>  <cnnaffinity>  (1) 
-5.17839

>  <filename>  (1) 
[H]Oc1c([H])c(Cl)c([H])c([H])c1Oc1c([H])c([H])c([H])n1-c1c([H])nc([H])c([H])c1[H]

$$$$
