
     RDKit          3D

 31 33  0  0  0  0  0  0  0  0999 V2000
    8.9079    0.5372   21.0460 H   0  0  0  0  0  0  0  0  0  0  0  0
    8.7070   -0.4011   20.9545 O   0  0  0  0  0  0  0  0  0  0  0  0
    7.3037   -0.5567   21.1145 C   0  0  1  0  0  0  0  0  0  0  0  0
    6.9702   -0.1995   22.1052 H   0  0  0  0  0  0  0  0  0  0  0  0
    6.5745    0.1876   20.0163 C   0  0  0  0  0  0  0  0  0  0  0  0
    7.1411    0.1623   18.7324 C   0  0  0  0  0  0  0  0  0  0  0  0
    8.0845   -0.3612   18.5898 H   0  0  0  0  0  0  0  0  0  0  0  0
    6.5902    0.7156   17.6472 N   0  0  0  0  0  0  0  0  0  0  0  0
    5.4072    1.3270   17.8090 C   0  0  0  0  0  0  0  0  0  0  0  0
    4.9750    1.7783   16.9169 H   0  0  0  0  0  0  0  0  0  0  0  0
    4.7365    1.3905   19.0347 C   0  0  0  0  0  0  0  0  0  0  0  0
    3.7750    1.8888   19.0855 H   0  0  0  0  0  0  0  0  0  0  0  0
    5.3270    0.8119   20.1634 C   0  0  0  0  0  0  0  0  0  0  0  0
    4.8155    0.8439   21.1275 H   0  0  0  0  0  0  0  0  0  0  0  0
    7.0096   -2.0617   21.0138 C   0  0  0  0  0  0  0  0  0  0  0  0
    5.9248   -2.1949   21.0416 H   0  0  0  0  0  0  0  0  0  0  0  0
    7.3093   -2.3720   20.0158 H   0  0  0  0  0  0  0  0  0  0  0  0
    7.6696   -2.9123   22.0698 C   0  0  0  0  0  0  0  0  0  0  0  0
    8.9789   -3.2600   22.1047 C   0  0  0  0  0  0  0  0  0  0  0  0
    9.7277   -3.0169   21.3560 H   0  0  0  0  0  0  0  0  0  0  0  0
    9.4591   -4.0704   23.5708 S   0  0  0  0  0  0  0  0  0  0  0  0
    7.8594   -3.9044   24.2282 C   0  0  0  0  0  0  0  0  0  0  0  0
    7.4431   -4.1749   25.5419 C   0  0  0  0  0  0  0  0  0  0  0  0
    8.1136   -4.6668   26.2436 H   0  0  0  0  0  0  0  0  0  0  0  0
    6.1768   -3.7471   25.9295 C   0  0  0  0  0  0  0  0  0  0  0  0
    5.8808   -3.8476   26.9660 H   0  0  0  0  0  0  0  0  0  0  0  0
    5.2771   -3.1843   24.9977 C   0  0  0  0  0  0  0  0  0  0  0  0
    4.3059   -2.8037   25.3173 H   0  0  0  0  0  0  0  0  0  0  0  0
    5.6528   -3.0624   23.6678 C   0  0  0  0  0  0  0  0  0  0  0  0
    4.9310   -2.8091   22.8970 H   0  0  0  0  0  0  0  0  0  0  0  0
    6.9900   -3.3092   23.2925 C   0  0  0  0  0  0  0  0  0  0  0  0
  1  2  1  0
  2  3  1  0
  3  4  1  1
  3  5  1  0
  5  6  2  0
  6  7  1  0
  6  8  1  0
  8  9  2  0
  9 10  1  0
  9 11  1  0
 11 12  1  0
 11 13  2  0
 13 14  1  0
  3 15  1  0
 15 16  1  0
 15 17  1  0
 15 18  1  0
 18 19  2  0
 19 20  1  0
 19 21  1  0
 21 22  1  0
 22 23  2  0
 23 24  1  0
 23 25  1  0
 25 26  1  0
 25 27  2  0
 27 28  1  0
 27 29  1  0
 29 30  1  0
 29 31  2  0
 13  5  1  0
 31 18  1  0
 31 22  1  0
M  END
>  <cnnaffinity>  (1) 
-4.62312

>  <filename>  (1) 
[H]O[C@@]([H])(c1c([H])nc([H])c([H])c1[H])C([H])([H])c1c([H])sc2c([H])c([H])c([H])c([H])c12

$$$$
