
     RDKit          3D

 26 27  0  0  0  0  0  0  0  0999 V2000
    6.5663    4.6050   26.6004 H   0  0  0  0  0  0  0  0  0  0  0  0
    7.4856    4.3047   26.4892 O   0  0  0  0  0  0  0  0  0  0  0  0
    7.4066    3.0577   25.8649 N   0  0  0  0  0  0  0  0  0  0  0  0
    8.1049    2.4440   26.2616 H   0  0  0  0  0  0  0  0  0  0  0  0
    7.3233    2.9620   24.4726 C   0  0  0  0  0  0  0  0  0  0  0  0
    6.9259    3.8460   23.7453 O   0  0  0  0  0  0  0  0  0  0  0  0
    7.6632    1.5799   24.0466 C   0  0  0  0  0  0  0  0  0  0  0  0
    8.0133    0.9023   24.8264 H   0  0  0  0  0  0  0  0  0  0  0  0
    7.4662    1.1918   22.7765 C   0  0  0  0  0  0  0  0  0  0  0  0
    7.0484    1.9117   22.0706 H   0  0  0  0  0  0  0  0  0  0  0  0
    7.7299   -0.1314   22.2521 C   0  0  0  0  0  0  0  0  0  0  0  0
    8.5491   -1.3627   23.1364 S   0  0  0  0  0  0  0  0  0  0  0  0
    8.3155   -2.5506   21.9874 N   0  0  0  0  0  0  0  0  0  0  0  0
    7.6851   -2.0341   20.9742 C   0  0  0  0  0  0  0  0  0  0  0  0
    7.3756   -2.6877   20.1712 H   0  0  0  0  0  0  0  0  0  0  0  0
    7.3507   -0.6407   21.0208 C   0  0  0  0  0  0  0  0  0  0  0  0
    6.6594    0.0855   19.9269 C   0  0  0  0  0  0  0  0  0  0  0  0
    7.1595    0.1038   18.6032 C   0  0  0  0  0  0  0  0  0  0  0  0
    8.1049   -0.3901   18.3734 H   0  0  0  0  0  0  0  0  0  0  0  0
    6.5499    0.6938   17.5675 N   0  0  0  0  0  0  0  0  0  0  0  0
    5.3832    1.3114   17.8153 C   0  0  0  0  0  0  0  0  0  0  0  0
    4.9220    1.8084   16.9679 H   0  0  0  0  0  0  0  0  0  0  0  0
    4.7763    1.3405   19.0728 C   0  0  0  0  0  0  0  0  0  0  0  0
    3.8284    1.8517   19.2024 H   0  0  0  0  0  0  0  0  0  0  0  0
    5.4250    0.7200   20.1438 C   0  0  0  0  0  0  0  0  0  0  0  0
    4.9741    0.6858   21.1360 H   0  0  0  0  0  0  0  0  0  0  0  0
  1  2  1  0
  2  3  1  0
  3  4  1  0
  3  5  1  0
  5  6  2  0
  5  7  1  0
  7  8  1  0
  7  9  2  3
  9 10  1  0
  9 11  1  0
 11 12  1  0
 12 13  1  0
 13 14  2  0
 14 15  1  0
 14 16  1  0
 16 17  1  0
 17 18  2  0
 18 19  1  0
 18 20  1  0
 20 21  2  0
 21 22  1  0
 21 23  1  0
 23 24  1  0
 23 25  2  0
 25 26  1  0
 16 11  2  0
 25 17  1  0
M  END
>  <cnnaffinity>  (1) 
-4.54679

>  <filename>  (1) 
[H]ON([H])C(=O)C([H])=C([H])c1snc([H])c1-c1c([H])nc([H])c([H])c1[H]

$$$$
