
     RDKit          3D

 30 31  0  0  0  0  0  0  0  0999 V2000
    6.8789    4.9568   26.1614 H   0  0  0  0  0  0  0  0  0  0  0  0
    6.3973    4.1302   26.2757 O   0  0  0  0  0  0  0  0  0  0  0  0
    7.1859    3.0542   25.7974 C   0  0  2  0  0  0  0  0  0  0  0  0
    8.1753    3.0553   26.2751 H   0  0  0  0  0  0  0  0  0  0  0  0
    7.3658    3.0225   24.2780 C   0  0  0  0  0  0  0  0  0  0  0  0
    8.3198    3.4493   23.9553 H   0  0  0  0  0  0  0  0  0  0  0  0
    6.5711    3.6019   23.7916 H   0  0  0  0  0  0  0  0  0  0  0  0
    7.2932    1.6059   23.9228 N   0  0  0  0  0  0  0  0  0  0  0  0
    7.4326    1.2687   22.6088 C   0  0  0  0  0  0  0  0  0  0  0  0
    7.7498    2.0534   21.7401 O   0  0  0  0  0  0  0  0  0  0  0  0
    7.1735   -0.0821   22.3639 N   0  0  0  0  0  0  0  0  0  0  0  0
    7.5475   -0.6742   23.0900 H   0  0  0  0  0  0  0  0  0  0  0  0
    7.2833   -0.6389   21.1181 C   0  0  0  0  0  0  0  0  0  0  0  0
    8.1060   -2.0451   20.9835 S   0  0  0  0  0  0  0  0  0  0  0  0
    6.6070    0.0636   20.0107 C   0  0  0  0  0  0  0  0  0  0  0  0
    7.1740    0.0526   18.7317 C   0  0  0  0  0  0  0  0  0  0  0  0
    8.1257   -0.4494   18.5444 H   0  0  0  0  0  0  0  0  0  0  0  0
    6.6153    0.6479   17.6704 N   0  0  0  0  0  0  0  0  0  0  0  0
    5.4465    1.2842   17.8552 C   0  0  0  0  0  0  0  0  0  0  0  0
    4.9941    1.7527   16.9798 H   0  0  0  0  0  0  0  0  0  0  0  0
    4.7865    1.3320   19.0861 C   0  0  0  0  0  0  0  0  0  0  0  0
    3.8408    1.8508   19.1851 H   0  0  0  0  0  0  0  0  0  0  0  0
    5.3734    0.7115   20.1835 C   0  0  0  0  0  0  0  0  0  0  0  0
    4.9064    0.7356   21.1671 H   0  0  0  0  0  0  0  0  0  0  0  0
    6.8044    0.7606   25.0154 C   0  0  0  0  0  0  0  0  0  0  0  0
    5.9344    0.1732   24.6926 H   0  0  0  0  0  0  0  0  0  0  0  0
    7.5794    0.0556   25.3439 H   0  0  0  0  0  0  0  0  0  0  0  0
    6.4468    1.7587   26.1170 C   0  0  0  0  0  0  0  0  0  0  0  0
    5.3759    1.9668   26.0942 H   0  0  0  0  0  0  0  0  0  0  0  0
    6.6961    1.3900   27.1147 H   0  0  0  0  0  0  0  0  0  0  0  0
  1  2  1  0
  2  3  1  0
  3  4  1  1
  3  5  1  0
  5  6  1  0
  5  7  1  0
  5  8  1  0
  8  9  1  0
  9 10  2  0
  9 11  1  0
 11 12  1  0
 11 13  1  0
 13 14  2  0
 13 15  1  0
 15 16  2  0
 16 17  1  0
 16 18  1  0
 18 19  2  0
 19 20  1  0
 19 21  1  0
 21 22  1  0
 21 23  2  0
 23 24  1  0
  8 25  1  0
 25 26  1  0
 25 27  1  0
 25 28  1  0
 28 29  1  0
 28 30  1  0
 28  3  1  0
 23 15  1  0
M  END
>  <cnnaffinity>  (1) 
-4.67943

>  <filename>  (1) 
[H]O[C@]1([H])C([H])([H])N(C(=O)N([H])C(=S)c2c([H])nc([H])c([H])c2[H])C([H])([H])C1([H])[H]

$$$$
