
     RDKit          3D

 46 48  0  0  0  0  0  0  0  0999 V2000
    6.9631   -1.0119   26.8528 C   0  0  0  0  0  0  0  0  0  0  0  0
    7.1147   -0.4563   25.4309 C   0  0  0  0  0  0  0  0  0  0  0  0
    8.3365    0.4658   25.2917 C   0  0  0  0  0  0  0  0  0  0  0  0
    9.5631   -0.1574   25.6351 O   0  0  0  0  0  0  0  0  0  0  0  0
    9.9421   -0.5374   24.8366 H   0  0  0  0  0  0  0  0  0  0  0  0
    8.2180    1.3124   25.9802 H   0  0  0  0  0  0  0  0  0  0  0  0
    8.3761    0.8819   24.2735 H   0  0  0  0  0  0  0  0  0  0  0  0
    7.0858   -1.6252   24.4246 C   0  0  0  0  0  0  0  0  0  0  0  0
    7.3768   -1.2256   23.0513 N   0  0  0  0  0  0  0  0  0  0  0  0
    6.4199   -0.6179   22.3143 N   0  0  0  0  0  0  0  0  0  0  0  0
    7.0101   -0.4132   21.1570 C   0  0  0  0  0  0  0  0  0  0  0  0
    6.3445    0.1930   20.0006 C   0  0  0  0  0  0  0  0  0  0  0  0
    5.1126    0.8738   20.0508 C   0  0  0  0  0  0  0  0  0  0  0  0
    4.6507    1.4604   18.8735 C   0  0  0  0  0  0  0  0  0  0  0  0
    5.4111    1.3310   17.7036 C   0  0  0  0  0  0  0  0  0  0  0  0
    6.5649    0.6521   17.6393 N   0  0  0  0  0  0  0  0  0  0  0  0
    7.0114    0.1014   18.7712 C   0  0  0  0  0  0  0  0  0  0  0  0
    7.9472   -0.4486   18.7042 H   0  0  0  0  0  0  0  0  0  0  0  0
    5.0775    1.7853   16.7733 H   0  0  0  0  0  0  0  0  0  0  0  0
    3.7263    2.0286   18.8443 H   0  0  0  0  0  0  0  0  0  0  0  0
    4.5404    0.9465   20.9816 H   0  0  0  0  0  0  0  0  0  0  0  0
    8.3052   -0.8476   21.1075 N   0  0  0  0  0  0  0  0  0  0  0  0
    8.4976   -1.3707   22.3026 C   0  0  0  0  0  0  0  0  0  0  0  0
    9.6268   -2.2501   22.8097 C   0  0  0  0  0  0  0  0  0  0  0  0
   10.9532   -2.0594   22.0532 C   0  0  0  0  0  0  0  0  0  0  0  0
   11.3152   -1.0292   22.1477 H   0  0  0  0  0  0  0  0  0  0  0  0
   10.8564   -2.2880   20.9884 H   0  0  0  0  0  0  0  0  0  0  0  0
   11.7364   -2.6994   22.4758 H   0  0  0  0  0  0  0  0  0  0  0  0
    9.1092   -3.7019   22.9073 C   0  0  0  0  0  0  0  0  0  0  0  0
    9.4386   -4.5216   24.0029 C   0  0  0  0  0  0  0  0  0  0  0  0
    8.9717   -5.8410   24.0816 C   0  0  0  0  0  0  0  0  0  0  0  0
    8.1761   -6.3602   23.0545 C   0  0  0  0  0  0  0  0  0  0  0  0
    7.8317   -5.5356   21.9913 C   0  0  0  0  0  0  0  0  0  0  0  0
    7.0256   -6.0317   21.0347 F   0  0  0  0  0  0  0  0  0  0  0  0
    8.2611   -4.2189   21.9079 C   0  0  0  0  0  0  0  0  0  0  0  0
    7.9438   -3.6102   21.0689 H   0  0  0  0  0  0  0  0  0  0  0  0
    7.8026   -7.3731   23.0333 H   0  0  0  0  0  0  0  0  0  0  0  0
    9.2541   -6.4625   24.9330 H   0  0  0  0  0  0  0  0  0  0  0  0
   10.0677   -4.1411   24.8045 H   0  0  0  0  0  0  0  0  0  0  0  0
    9.8254   -1.9501   23.8460 H   0  0  0  0  0  0  0  0  0  0  0  0
    6.0819   -2.0595   24.4093 H   0  0  0  0  0  0  0  0  0  0  0  0
    7.7681   -2.4224   24.7310 H   0  0  0  0  0  0  0  0  0  0  0  0
    6.2439    0.1666   25.1779 H   0  0  0  0  0  0  0  0  0  0  0  0
    6.1415   -1.7355   26.9134 H   0  0  0  0  0  0  0  0  0  0  0  0
    7.8882   -1.5194   27.1505 H   0  0  0  0  0  0  0  0  0  0  0  0
    6.7685   -0.2194   27.5844 H   0  0  0  0  0  0  0  0  0  0  0  0
  1  2  1  0
  2  3  1  0
  3  4  1  0
  4  5  1  0
  3  6  1  0
  3  7  1  0
  2  8  1  0
  8  9  1  0
  9 10  1  0
 10 11  2  0
 11 12  1  0
 12 13  2  0
 13 14  1  0
 14 15  2  0
 15 16  1  0
 16 17  2  0
 17 18  1  0
 15 19  1  0
 14 20  1  0
 13 21  1  0
 11 22  1  0
 22 23  2  0
 23 24  1  0
 24 25  1  0
 25 26  1  0
 25 27  1  0
 25 28  1  0
 24 29  1  0
 29 30  2  0
 30 31  1  0
 31 32  2  0
 32 33  1  0
 33 34  1  0
 33 35  2  0
 35 36  1  0
 32 37  1  0
 31 38  1  0
 30 39  1  0
 24 40  1  0
  8 41  1  0
  8 42  1  0
  2 43  1  0
  1 44  1  0
  1 45  1  0
  1 46  1  0
 23  9  1  0
 35 29  1  0
 17 12  1  0
M  END
>  <cnnaffinity>  (1) 
-6.31678

>  <filename>  (1) 
[H]OC([H])([H])C([H])(C([H])([H])[H])C([H])([H])n1nc(-c2c([H])nc([H])c([H])c2[H])nc1C([H])(c1c([H])c([H])c([H])c(F)c1[H])C([H])([H])[H]

$$$$
