
     RDKit          3D

 34 36  0  0  0  0  0  0  0  0999 V2000
    6.1848   -2.2858   21.2884 H   0  0  0  0  0  0  0  0  0  0  0  0
    6.1561   -2.0963   22.2406 O   0  0  0  0  0  0  0  0  0  0  0  0
    7.0270   -0.9907   22.2088 C   0  0  2  0  0  0  0  0  0  0  0  0
    6.5103   -0.0719   22.5324 H   0  0  0  0  0  0  0  0  0  0  0  0
    7.4324   -0.9311   20.8152 N   0  0  0  0  0  0  0  0  0  0  0  0
    8.4286   -1.0131   20.6520 H   0  0  0  0  0  0  0  0  0  0  0  0
    6.7608   -0.1370   19.8581 C   0  0  0  0  0  0  0  0  0  0  0  0
    7.2483    0.0003   18.5295 C   0  0  0  0  0  0  0  0  0  0  0  0
    8.1836   -0.4830   18.2430 H   0  0  0  0  0  0  0  0  0  0  0  0
    6.6256    0.6813   17.5563 N   0  0  0  0  0  0  0  0  0  0  0  0
    5.4672    1.2906   17.8634 C   0  0  0  0  0  0  0  0  0  0  0  0
    4.9839    1.8407   17.0591 H   0  0  0  0  0  0  0  0  0  0  0  0
    4.8914    1.2291   19.1359 C   0  0  0  0  0  0  0  0  0  0  0  0
    3.9633    1.7585   19.3343 H   0  0  0  0  0  0  0  0  0  0  0  0
    5.5351    0.4948   20.1414 C   0  0  0  0  0  0  0  0  0  0  0  0
    5.0912    0.3964   21.1301 H   0  0  0  0  0  0  0  0  0  0  0  0
    8.1999   -1.2426   23.1990 C   0  0  0  0  0  0  0  0  0  0  0  0
    7.7571   -1.3193   24.1968 H   0  0  0  0  0  0  0  0  0  0  0  0
    8.6244   -2.2153   22.9302 H   0  0  0  0  0  0  0  0  0  0  0  0
    9.2943   -0.2582   23.2476 N   0  0  0  0  0  0  0  0  0  0  0  0
    9.2442    0.9655   23.9180 C   0  0  0  0  0  0  0  0  0  0  0  0
    8.3356    1.3180   24.6312 O   0  0  0  0  0  0  0  0  0  0  0  0
   10.5057    1.6919   23.5736 C   0  0  0  0  0  0  0  0  0  0  0  0
   10.9027    3.0054   23.8247 C   0  0  0  0  0  0  0  0  0  0  0  0
   10.2357    3.7065   24.3086 H   0  0  0  0  0  0  0  0  0  0  0  0
   12.1662    3.4070   23.3869 C   0  0  0  0  0  0  0  0  0  0  0  0
   12.4976    4.4350   23.5240 H   0  0  0  0  0  0  0  0  0  0  0  0
   13.0195    2.4991   22.7336 C   0  0  0  0  0  0  0  0  0  0  0  0
   14.0123    2.8419   22.4570 H   0  0  0  0  0  0  0  0  0  0  0  0
   12.5940    1.1989   22.4269 C   0  0  0  0  0  0  0  0  0  0  0  0
   13.2379    0.5094   21.8845 H   0  0  0  0  0  0  0  0  0  0  0  0
   11.3039    0.8325   22.8235 C   0  0  0  0  0  0  0  0  0  0  0  0
   10.4687   -0.3686   22.4974 C   0  0  0  0  0  0  0  0  0  0  0  0
   10.6679   -1.2480   21.6906 O   0  0  0  0  0  0  0  0  0  0  0  0
  1  2  1  0
  2  3  1  0
  3  4  1  1
  3  5  1  0
  5  6  1  0
  5  7  1  0
  7  8  2  0
  8  9  1  0
  8 10  1  0
 10 11  2  0
 11 12  1  0
 11 13  1  0
 13 14  1  0
 13 15  2  0
 15 16  1  0
  3 17  1  0
 17 18  1  0
 17 19  1  0
 17 20  1  0
 20 21  1  0
 21 22  2  0
 21 23  1  0
 23 24  2  0
 24 25  1  0
 24 26  1  0
 26 27  1  0
 26 28  2  0
 28 29  1  0
 28 30  1  0
 30 31  1  0
 30 32  2  0
 32 33  1  0
 33 34  2  0
 15  7  1  0
 33 20  1  0
 32 23  1  0
M  END
>  <cnnaffinity>  (1) 
-5.03717

>  <filename>  (1) 
[H]O[C@]([H])(N([H])c1c([H])nc([H])c([H])c1[H])C([H])([H])N1C(=O)c2c([H])c([H])c([H])c([H])c2C1=O

$$$$
