
     RDKit          3D

 43 46  0  0  0  0  0  0  0  0999 V2000
   11.4879    3.5266   21.8438 O   0  0  0  0  0  0  0  0  0  0  0  0
   11.4463    2.1068   21.9668 C   0  0  0  0  0  0  0  0  0  0  0  0
   12.1880    1.8799   23.2992 C   0  0  0  0  0  0  0  0  0  0  0  0
   12.4218    0.4400   23.6831 C   0  0  0  0  0  0  0  0  0  0  0  0
   13.0084    0.3577   24.8898 F   0  0  0  0  0  0  0  0  0  0  0  0
   13.2144   -0.1882   22.7961 F   0  0  0  0  0  0  0  0  0  0  0  0
   11.2731   -0.2620   23.7485 F   0  0  0  0  0  0  0  0  0  0  0  0
   11.6472    2.3622   24.1186 H   0  0  0  0  0  0  0  0  0  0  0  0
   13.1659    2.3544   23.2115 H   0  0  0  0  0  0  0  0  0  0  0  0
   10.0520    1.5095   21.9276 C   0  0  0  0  0  0  0  0  0  0  0  0
    9.6284    0.5484   21.1195 N   0  0  0  0  0  0  0  0  0  0  0  0
    8.3651    0.3114   21.5635 C   0  0  0  0  0  0  0  0  0  0  0  0
    7.4162   -0.6727   20.9397 C   0  0  0  0  0  0  0  0  0  0  0  0
    6.6093   -0.0636   19.7991 C   0  0  0  0  0  0  0  0  0  0  0  0
    5.4130    0.6196   20.0446 C   0  0  0  0  0  0  0  0  0  0  0  0
    4.8004    1.3154   18.9963 C   0  0  0  0  0  0  0  0  0  0  0  0
    5.4036    1.2938   17.7350 C   0  0  0  0  0  0  0  0  0  0  0  0
    6.5315    0.6204   17.4686 N   0  0  0  0  0  0  0  0  0  0  0  0
    7.1067   -0.0387   18.4825 C   0  0  0  0  0  0  0  0  0  0  0  0
    8.0229   -0.5757   18.2370 H   0  0  0  0  0  0  0  0  0  0  0  0
    4.9677    1.8462   16.9019 H   0  0  0  0  0  0  0  0  0  0  0  0
    3.8920    1.8869   19.1457 H   0  0  0  0  0  0  0  0  0  0  0  0
    4.9740    0.6127   21.0455 H   0  0  0  0  0  0  0  0  0  0  0  0
    6.7509   -1.0283   21.7350 H   0  0  0  0  0  0  0  0  0  0  0  0
    8.0044   -1.5260   20.5942 H   0  0  0  0  0  0  0  0  0  0  0  0
    7.9993    1.0405   22.5951 N   0  0  0  0  0  0  0  0  0  0  0  0
    9.0740    1.8455   22.8060 N   0  0  0  0  0  0  0  0  0  0  0  0
    9.0470    2.7986   23.8589 C   0  0  0  0  0  0  0  0  0  0  0  0
    9.2702    4.1684   23.6968 C   0  0  0  0  0  0  0  0  0  0  0  0
    9.0505    5.0670   24.7700 C   0  0  0  0  0  0  0  0  0  0  0  0
    8.6529    4.6155   26.0307 C   0  0  0  0  0  0  0  0  0  0  0  0
    8.4526    3.2323   26.2042 C   0  0  0  0  0  0  0  0  0  0  0  0
    8.6635    2.3484   25.1357 C   0  0  0  0  0  0  0  0  0  0  0  0
    8.4225    1.0969   25.6554 N   0  0  0  0  0  0  0  0  0  0  0  0
    8.0736    1.2736   26.9629 C   0  0  0  0  0  0  0  0  0  0  0  0
    8.0664    2.5215   27.3309 N   0  0  0  0  0  0  0  0  0  0  0  0
    7.8298    0.4362   27.6059 H   0  0  0  0  0  0  0  0  0  0  0  0
    8.3305    0.2643   25.0998 H   0  0  0  0  0  0  0  0  0  0  0  0
    8.4883    5.2849   26.8730 H   0  0  0  0  0  0  0  0  0  0  0  0
    9.1977    6.1308   24.5976 H   0  0  0  0  0  0  0  0  0  0  0  0
    9.6181    4.5600   22.7447 H   0  0  0  0  0  0  0  0  0  0  0  0
   11.9934    1.6315   21.1385 H   0  0  0  0  0  0  0  0  0  0  0  0
   10.9979    3.8392   21.0602 H   0  0  0  0  0  0  0  0  0  0  0  0
  1  2  1  0
  2  3  1  0
  3  4  1  0
  4  5  1  0
  4  6  1  0
  4  7  1  0
  3  8  1  0
  3  9  1  0
  2 10  1  0
 10 11  2  0
 11 12  1  0
 12 13  1  0
 13 14  1  0
 14 15  2  0
 15 16  1  0
 16 17  2  0
 17 18  1  0
 18 19  2  0
 19 20  1  0
 17 21  1  0
 16 22  1  0
 15 23  1  0
 13 24  1  0
 13 25  1  0
 12 26  2  0
 26 27  1  0
 27 28  1  0
 28 29  2  0
 29 30  1  0
 30 31  2  0
 31 32  1  0
 32 33  2  0
 33 34  1  0
 34 35  1  0
 35 36  2  0
 35 37  1  0
 34 38  1  0
 31 39  1  0
 30 40  1  0
 29 41  1  0
  2 42  1  0
  1 43  1  0
 27 10  1  0
 33 28  1  0
 19 14  1  0
 36 32  1  0
M  END
>  <cnnaffinity>  (1) 
-6.21687

>  <filename>  (1) 
[H]OC([H])(c1nc(C([H])([H])c2c([H])nc([H])c([H])c2[H])nn1-c1c([H])c([H])c([H])c2nc([H])n([H])c12)C([H])([H])C(F)(F)F

$$$$
