
     RDKit          3D

 39 40  0  0  0  0  0  0  0  0999 V2000
    6.9328   -2.7891   20.7710 H   0  0  0  0  0  0  0  0  0  0  0  0
    6.8721   -2.8326   21.7287 O   0  0  0  0  0  0  0  0  0  0  0  0
    6.6382   -1.4902   21.9729 C   0  0  1  0  0  0  0  0  0  0  0  0
    5.5613   -1.2677   22.0056 H   0  0  0  0  0  0  0  0  0  0  0  0
    7.2845   -1.2248   23.1719 O   0  0  0  0  0  0  0  0  0  0  0  0
    6.9842    0.0098   23.8190 C   0  0  0  0  0  0  0  0  0  0  0  0
    6.5813    0.7437   23.1070 H   0  0  0  0  0  0  0  0  0  0  0  0
    7.9301    0.4243   24.1912 H   0  0  0  0  0  0  0  0  0  0  0  0
    6.0283   -0.2099   25.0074 C   0  0  0  0  0  0  0  0  0  0  0  0
    6.6252   -0.6704   25.8101 H   0  0  0  0  0  0  0  0  0  0  0  0
    5.2757   -0.9691   24.7317 H   0  0  0  0  0  0  0  0  0  0  0  0
    5.4252    1.0168   25.5442 N   0  0  0  0  0  0  0  0  0  0  0  0
    4.7303    0.7593   26.8134 C   0  0  0  0  0  0  0  0  0  0  0  0
    5.3883    0.1725   27.4660 H   0  0  0  0  0  0  0  0  0  0  0  0
    3.8111    0.1518   26.6548 H   0  0  0  0  0  0  0  0  0  0  0  0
    4.3458    2.0709   27.5036 C   0  0  0  0  0  0  0  0  0  0  0  0
    5.2681    2.6171   27.7467 H   0  0  0  0  0  0  0  0  0  0  0  0
    3.8383    1.8483   28.4517 H   0  0  0  0  0  0  0  0  0  0  0  0
    3.4519    2.9293   26.5937 C   0  0  0  0  0  0  0  0  0  0  0  0
    2.4718    2.4355   26.4774 H   0  0  0  0  0  0  0  0  0  0  0  0
    3.2702    3.9099   27.0528 H   0  0  0  0  0  0  0  0  0  0  0  0
    4.1070    3.0902   25.2107 C   0  0  0  0  0  0  0  0  0  0  0  0
    3.4211    3.5965   24.5160 H   0  0  0  0  0  0  0  0  0  0  0  0
    5.0088    3.7132   25.2931 H   0  0  0  0  0  0  0  0  0  0  0  0
    4.5155    1.7280   24.6305 C   0  0  0  0  0  0  0  0  0  0  0  0
    4.9915    1.8829   23.6552 H   0  0  0  0  0  0  0  0  0  0  0  0
    3.5984    1.1349   24.4526 H   0  0  0  0  0  0  0  0  0  0  0  0
    7.2564   -0.8047   20.8845 N   0  0  0  0  0  0  0  0  0  0  0  0
    8.2468   -0.9692   20.9270 H   0  0  0  0  0  0  0  0  0  0  0  0
    6.6605   -0.0454   19.8786 C   0  0  0  0  0  0  0  0  0  0  0  0
    7.1858    0.0570   18.5569 C   0  0  0  0  0  0  0  0  0  0  0  0
    8.1295   -0.4285   18.3161 H   0  0  0  0  0  0  0  0  0  0  0  0
    6.5885    0.7071   17.5483 N   0  0  0  0  0  0  0  0  0  0  0  0
    5.4211    1.3226   17.8077 C   0  0  0  0  0  0  0  0  0  0  0  0
    4.9471    1.8386   16.9750 H   0  0  0  0  0  0  0  0  0  0  0  0
    4.8281    1.3127   19.0764 C   0  0  0  0  0  0  0  0  0  0  0  0
    3.8895    1.8336   19.2321 H   0  0  0  0  0  0  0  0  0  0  0  0
    5.4545    0.6270   20.1242 C   0  0  0  0  0  0  0  0  0  0  0  0
    5.0315    0.6101   21.1292 H   0  0  0  0  0  0  0  0  0  0  0  0
  1  2  1  0
  2  3  1  0
  3  4  1  1
  3  5  1  0
  5  6  1  0
  6  7  1  0
  6  8  1  0
  6  9  1  0
  9 10  1  0
  9 11  1  0
  9 12  1  0
 12 13  1  0
 13 14  1  0
 13 15  1  0
 13 16  1  0
 16 17  1  0
 16 18  1  0
 16 19  1  0
 19 20  1  0
 19 21  1  0
 19 22  1  0
 22 23  1  0
 22 24  1  0
 22 25  1  0
 25 26  1  0
 25 27  1  0
  3 28  1  0
 28 29  1  0
 28 30  1  0
 30 31  2  0
 31 32  1  0
 31 33  1  0
 33 34  2  0
 34 35  1  0
 34 36  1  0
 36 37  1  0
 36 38  2  0
 38 39  1  0
 25 12  1  0
 38 30  1  0
M  END
>  <cnnaffinity>  (1) 
-3.60362

>  <filename>  (1) 
[H]O[C@@]([H])(OC([H])([H])C([H])([H])N1C([H])([H])C([H])([H])C([H])([H])C([H])([H])C1([H])[H])N([H])c1c([H])nc([H])c([H])c1[H]

$$$$
