
     RDKit          3D

 35 37  0  0  0  0  0  0  0  0999 V2000
    6.3855    3.4961   26.8269 O   0  0  0  0  0  0  0  0  0  0  0  0
    5.8386    2.4433   26.0466 C   0  0  0  0  0  0  0  0  0  0  0  0
    6.4487    2.3649   24.6507 C   0  0  0  0  0  0  0  0  0  0  0  0
    6.6823    3.5308   23.9068 C   0  0  0  0  0  0  0  0  0  0  0  0
    7.2318    3.4547   22.6238 C   0  0  0  0  0  0  0  0  0  0  0  0
    7.5246    2.2101   22.0634 C   0  0  0  0  0  0  0  0  0  0  0  0
    7.2436    1.0298   22.7791 C   0  0  0  0  0  0  0  0  0  0  0  0
    7.5565   -0.3057   22.2441 C   0  0  0  0  0  0  0  0  0  0  0  0
    8.1762   -1.3574   22.8834 C   0  0  0  0  0  0  0  0  0  0  0  0
    8.3479   -2.3274   21.8770 C   0  0  0  0  0  0  0  0  0  0  0  0
    7.8678   -1.9247   20.7108 N   0  0  0  0  0  0  0  0  0  0  0  0
    7.3631   -0.6953   20.9362 N   0  0  0  0  0  0  0  0  0  0  0  0
    6.6465   -0.0185   19.9131 C   0  0  0  0  0  0  0  0  0  0  0  0
    5.4276    0.6263   20.1658 C   0  0  0  0  0  0  0  0  0  0  0  0
    4.8094    1.2946   19.1068 C   0  0  0  0  0  0  0  0  0  0  0  0
    5.4103    1.2891   17.8425 C   0  0  0  0  0  0  0  0  0  0  0  0
    6.5766    0.6679   17.5969 N   0  0  0  0  0  0  0  0  0  0  0  0
    7.1742    0.0320   18.6092 C   0  0  0  0  0  0  0  0  0  0  0  0
    8.1216   -0.4431   18.3779 H   0  0  0  0  0  0  0  0  0  0  0  0
    4.9379    1.7842   16.9967 H   0  0  0  0  0  0  0  0  0  0  0  0
    3.8828    1.8348   19.2549 H   0  0  0  0  0  0  0  0  0  0  0  0
    5.0120    0.6422   21.1770 H   0  0  0  0  0  0  0  0  0  0  0  0
    8.7985   -3.3062   21.9503 H   0  0  0  0  0  0  0  0  0  0  0  0
    8.5036   -1.3668   23.9137 H   0  0  0  0  0  0  0  0  0  0  0  0
    6.7115    1.1226   24.0692 C   0  0  0  0  0  0  0  0  0  0  0  0
    6.5089    0.1975   24.6089 H   0  0  0  0  0  0  0  0  0  0  0  0
    7.9455    2.1256   21.0655 H   0  0  0  0  0  0  0  0  0  0  0  0
    7.4264    4.3638   22.0593 H   0  0  0  0  0  0  0  0  0  0  0  0
    6.4380    4.4922   24.3532 H   0  0  0  0  0  0  0  0  0  0  0  0
    4.2941    2.6022   25.9626 C   0  0  0  0  0  0  0  0  0  0  0  0
    3.7669    1.5622   25.2790 F   0  0  0  0  0  0  0  0  0  0  0  0
    3.7252    2.5872   27.1757 F   0  0  0  0  0  0  0  0  0  0  0  0
    3.9043    3.7202   25.3353 F   0  0  0  0  0  0  0  0  0  0  0  0
    5.9604    1.4679   26.5435 H   0  0  0  0  0  0  0  0  0  0  0  0
    7.3209    3.2920   26.9909 H   0  0  0  0  0  0  0  0  0  0  0  0
  1  2  1  0
  2  3  1  0
  3  4  2  0
  4  5  1  0
  5  6  2  0
  6  7  1  0
  7  8  1  0
  8  9  2  0
  9 10  1  0
 10 11  2  0
 11 12  1  0
 12 13  1  0
 13 14  2  0
 14 15  1  0
 15 16  2  0
 16 17  1  0
 17 18  2  0
 18 19  1  0
 16 20  1  0
 15 21  1  0
 14 22  1  0
 10 23  1  0
  9 24  1  0
  7 25  2  0
 25 26  1  0
  6 27  1  0
  5 28  1  0
  4 29  1  0
  2 30  1  0
 30 31  1  0
 30 32  1  0
 30 33  1  0
  2 34  1  0
  1 35  1  0
 25  3  1  0
 12  8  1  0
 18 13  1  0
M  END
>  <cnnaffinity>  (1) 
-5.10286

>  <filename>  (1) 
[H]OC([H])(c1c([H])c([H])c([H])c(-c2c([H])c([H])nn2-c2c([H])nc([H])c([H])c2[H])c1[H])C(F)(F)F

$$$$
