
     RDKit          3D

 34 36  0  0  0  0  0  0  0  0999 V2000
    8.6916   -0.5464   21.1193 O   0  0  0  0  0  0  0  0  0  0  0  0
    7.2840   -0.7781   21.0354 C   0  0  0  0  0  0  0  0  0  0  0  0
    6.6681    0.0559   19.9290 C   0  0  0  0  0  0  0  0  0  0  0  0
    5.4387    0.6946   20.1368 C   0  0  0  0  0  0  0  0  0  0  0  0
    4.8146    1.3416   19.0718 C   0  0  0  0  0  0  0  0  0  0  0  0
    5.4513    1.3372   17.8289 C   0  0  0  0  0  0  0  0  0  0  0  0
    6.6385    0.7540   17.6069 N   0  0  0  0  0  0  0  0  0  0  0  0
    7.2335    0.1392   18.6423 C   0  0  0  0  0  0  0  0  0  0  0  0
    8.1999   -0.3175   18.4190 H   0  0  0  0  0  0  0  0  0  0  0  0
    4.9698    1.8020   16.9711 H   0  0  0  0  0  0  0  0  0  0  0  0
    3.8520    1.8206   19.1891 H   0  0  0  0  0  0  0  0  0  0  0  0
    4.9834    0.6939   21.1295 H   0  0  0  0  0  0  0  0  0  0  0  0
    7.0130   -2.2780   20.9024 C   0  0  0  0  0  0  0  0  0  0  0  0
    6.1607   -2.8661   20.0830 N   0  0  0  0  0  0  0  0  0  0  0  0
    6.3164   -4.2122   20.2821 C   0  0  0  0  0  0  0  0  0  0  0  0
    7.2417   -4.4419   21.2629 C   0  0  0  0  0  0  0  0  0  0  0  0
    7.6710   -3.2027   21.6787 N   0  0  0  0  0  0  0  0  0  0  0  0
    8.4968   -2.9381   22.8576 C   0  0  0  0  0  0  0  0  0  0  0  0
    7.7661   -2.1944   23.9663 C   0  0  0  0  0  0  0  0  0  0  0  0
    8.1883   -0.9148   24.3441 C   0  0  0  0  0  0  0  0  0  0  0  0
    7.6122   -0.1584   25.2815 N   0  0  0  0  0  0  0  0  0  0  0  0
    6.5585   -0.6718   25.9190 C   0  0  0  0  0  0  0  0  0  0  0  0
    6.0413   -1.9309   25.6568 C   0  0  0  0  0  0  0  0  0  0  0  0
    6.6673   -2.6995   24.6784 C   0  0  0  0  0  0  0  0  0  0  0  0
    6.0730   -4.3081   24.4273 Cl  0  0  0  0  0  0  0  0  0  0  0  0
    5.1895   -2.3125   26.2034 H   0  0  0  0  0  0  0  0  0  0  0  0
    6.1085   -0.0401   26.6774 H   0  0  0  0  0  0  0  0  0  0  0  0
    9.0437   -0.4680   23.8403 H   0  0  0  0  0  0  0  0  0  0  0  0
    9.3689   -2.3658   22.5395 H   0  0  0  0  0  0  0  0  0  0  0  0
    8.8644   -3.9060   23.2108 H   0  0  0  0  0  0  0  0  0  0  0  0
    7.5948   -5.3362   21.7554 H   0  0  0  0  0  0  0  0  0  0  0  0
    5.7717   -4.9416   19.6931 H   0  0  0  0  0  0  0  0  0  0  0  0
    6.8043   -0.4923   21.9887 H   0  0  0  0  0  0  0  0  0  0  0  0
    8.8127    0.4081   21.0409 H   0  0  0  0  0  0  0  0  0  0  0  0
  1  2  1  0
  2  3  1  0
  3  4  2  0
  4  5  1  0
  5  6  2  0
  6  7  1  0
  7  8  2  0
  8  9  1  0
  6 10  1  0
  5 11  1  0
  4 12  1  0
  2 13  1  0
 13 14  2  0
 14 15  1  0
 15 16  2  0
 16 17  1  0
 17 18  1  0
 18 19  1  0
 19 20  2  0
 20 21  1  0
 21 22  2  0
 22 23  1  0
 23 24  2  0
 24 25  1  0
 23 26  1  0
 22 27  1  0
 20 28  1  0
 18 29  1  0
 18 30  1  0
 16 31  1  0
 15 32  1  0
  2 33  1  0
  1 34  1  0
  8  3  1  0
 17 13  1  0
 24 19  1  0
M  END
>  <cnnaffinity>  (1) 
-4.71596

>  <filename>  (1) 
[H]OC([H])(c1c([H])nc([H])c([H])c1[H])c1nc([H])c([H])n1C([H])([H])c1c([H])nc([H])c([H])c1Cl

$$$$
