
     RDKit          3D

 39 41  0  0  0  0  0  0  0  0999 V2000
    6.2092   -0.6456   22.5204 H   0  0  0  0  0  0  0  0  0  0  0  0
    6.5818   -1.3169   21.9189 O   0  0  0  0  0  0  0  0  0  0  0  0
    7.4234   -0.6431   21.0182 C   0  0  1  0  0  0  0  0  0  0  0  0
    8.0615   -1.4136   20.5530 H   0  0  0  0  0  0  0  0  0  0  0  0
    6.6349    0.0308   19.9116 C   0  0  0  0  0  0  0  0  0  0  0  0
    7.1459    0.0635   18.6078 C   0  0  0  0  0  0  0  0  0  0  0  0
    8.0878   -0.4383   18.3675 H   0  0  0  0  0  0  0  0  0  0  0  0
    6.5590    0.6868   17.5774 N   0  0  0  0  0  0  0  0  0  0  0  0
    5.3965    1.3119   17.8145 C   0  0  0  0  0  0  0  0  0  0  0  0
    4.9431    1.8237   16.9687 H   0  0  0  0  0  0  0  0  0  0  0  0
    4.7714    1.3165   19.0634 C   0  0  0  0  0  0  0  0  0  0  0  0
    3.8319    1.8447   19.1991 H   0  0  0  0  0  0  0  0  0  0  0  0
    5.3920    0.6560   20.1255 C   0  0  0  0  0  0  0  0  0  0  0  0
    4.9280    0.6610   21.1140 H   0  0  0  0  0  0  0  0  0  0  0  0
    8.3599    0.3113   21.8115 C   0  0  0  0  0  0  0  0  0  0  0  0
    7.4662    1.3916   22.4264 C   0  0  0  0  0  0  0  0  0  0  0  0
    6.8391    1.1762   23.4613 O   0  0  0  0  0  0  0  0  0  0  0  0
    7.3674    2.5440   21.7274 N   0  0  0  0  0  0  0  0  0  0  0  0
    7.7210    2.4984   20.7899 H   0  0  0  0  0  0  0  0  0  0  0  0
    6.6809    3.7408   22.1877 C   0  0  0  0  0  0  0  0  0  0  0  0
    5.7486    3.4492   22.6758 H   0  0  0  0  0  0  0  0  0  0  0  0
    6.4056    4.3433   21.3087 H   0  0  0  0  0  0  0  0  0  0  0  0
    7.5169    4.5306   23.1691 C   0  0  0  0  0  0  0  0  0  0  0  0
    7.7643    3.9781   24.0699 H   0  0  0  0  0  0  0  0  0  0  0  0
    8.5498    5.5011   22.6787 C   0  0  0  0  0  0  0  0  0  0  0  0
    8.6259    5.6427   21.6053 H   0  0  0  0  0  0  0  0  0  0  0  0
    9.4944    5.5590   23.2087 H   0  0  0  0  0  0  0  0  0  0  0  0
    7.3081    6.0036   23.3556 C   0  0  0  0  0  0  0  0  0  0  0  0
    7.3974    6.4096   24.3577 H   0  0  0  0  0  0  0  0  0  0  0  0
    6.5559    6.4921   22.7436 H   0  0  0  0  0  0  0  0  0  0  0  0
    9.2273   -0.4564   22.8582 C   0  0  0  0  0  0  0  0  0  0  0  0
    9.0065   -1.5293   22.8749 H   0  0  0  0  0  0  0  0  0  0  0  0
    9.1246   -0.0738   23.8790 H   0  0  0  0  0  0  0  0  0  0  0  0
   10.5107   -0.0581   22.0982 C   0  0  0  0  0  0  0  0  0  0  0  0
   11.2122    0.5570   22.6685 H   0  0  0  0  0  0  0  0  0  0  0  0
   11.0600   -0.9087   21.6795 H   0  0  0  0  0  0  0  0  0  0  0  0
    9.6601    0.7313   21.0736 C   0  0  0  0  0  0  0  0  0  0  0  0
    9.8756    1.8044   21.0301 H   0  0  0  0  0  0  0  0  0  0  0  0
    9.6855    0.3461   20.0518 H   0  0  0  0  0  0  0  0  0  0  0  0
  1  2  1  0
  2  3  1  0
  3  4  1  6
  3  5  1  0
  5  6  2  0
  6  7  1  0
  6  8  1  0
  8  9  2  0
  9 10  1  0
  9 11  1  0
 11 12  1  0
 11 13  2  0
 13 14  1  0
  3 15  1  0
 15 16  1  0
 16 17  2  0
 16 18  1  0
 18 19  1  0
 18 20  1  0
 20 21  1  0
 20 22  1  0
 20 23  1  0
 23 24  1  0
 23 25  1  0
 25 26  1  0
 25 27  1  0
 25 28  1  0
 28 29  1  0
 28 30  1  0
 15 31  1  0
 31 32  1  0
 31 33  1  0
 31 34  1  0
 34 35  1  0
 34 36  1  0
 34 37  1  0
 37 38  1  0
 37 39  1  0
 13  5  1  0
 37 15  1  0
 28 23  1  0
M  END
>  <cnnaffinity>  (1) 
-4.80202

>  <filename>  (1) 
[H]O[C@@]([H])(c1c([H])nc([H])c([H])c1[H])C1(C(=O)N([H])C([H])([H])C2([H])C([H])([H])C2([H])[H])C([H])([H])C([H])([H])C1([H])[H]

$$$$
