
     RDKit          3D

 43 46  0  0  0  0  0  0  0  0999 V2000
   13.4482    2.8309   23.7237 O   0  0  0  0  0  0  0  0  0  0  0  0
   13.5781    1.4944   23.2663 C   0  0  0  0  0  0  0  0  0  0  0  0
   12.1672    0.9956   23.0381 C   0  0  0  0  0  0  0  0  0  0  0  0
   11.3571    1.9150   22.1156 C   0  0  0  0  0  0  0  0  0  0  0  0
    9.9570    1.5164   22.0881 N   0  0  0  0  0  0  0  0  0  0  0  0
    9.5666    0.5093   21.2733 N   0  0  0  0  0  0  0  0  0  0  0  0
    8.3161    0.3092   21.6327 C   0  0  0  0  0  0  0  0  0  0  0  0
    7.4384   -0.6877   20.9451 C   0  0  0  0  0  0  0  0  0  0  0  0
    6.6478   -0.0607   19.8062 C   0  0  0  0  0  0  0  0  0  0  0  0
    5.4499    0.6110   20.0795 C   0  0  0  0  0  0  0  0  0  0  0  0
    4.8070    1.2949   19.0482 C   0  0  0  0  0  0  0  0  0  0  0  0
    5.3903    1.3017   17.7787 C   0  0  0  0  0  0  0  0  0  0  0  0
    6.5312    0.6552   17.4893 N   0  0  0  0  0  0  0  0  0  0  0  0
    7.1342   -0.0021   18.4873 C   0  0  0  0  0  0  0  0  0  0  0  0
    8.0698   -0.5000   18.2263 H   0  0  0  0  0  0  0  0  0  0  0  0
    4.9271    1.8513   16.9609 H   0  0  0  0  0  0  0  0  0  0  0  0
    3.8861    1.8383   19.2186 H   0  0  0  0  0  0  0  0  0  0  0  0
    5.0479    0.6146   21.0954 H   0  0  0  0  0  0  0  0  0  0  0  0
    6.7609   -1.0808   21.7088 H   0  0  0  0  0  0  0  0  0  0  0  0
    8.0597   -1.5167   20.5925 H   0  0  0  0  0  0  0  0  0  0  0  0
    7.8752    1.1084   22.6308 N   0  0  0  0  0  0  0  0  0  0  0  0
    8.9290    1.8726   22.9009 C   0  0  0  0  0  0  0  0  0  0  0  0
    8.9864    2.9473   23.8787 C   0  0  0  0  0  0  0  0  0  0  0  0
   10.0360    3.4010   24.6243 C   0  0  0  0  0  0  0  0  0  0  0  0
    9.6623    4.3980   25.4689 O   0  0  0  0  0  0  0  0  0  0  0  0
    8.3467    4.6268   25.2578 C   0  0  0  0  0  0  0  0  0  0  0  0
    7.8592    3.7753   24.2646 C   0  0  0  0  0  0  0  0  0  0  0  0
    6.5342    3.9142   23.8096 C   0  0  0  0  0  0  0  0  0  0  0  0
    5.7234    4.8794   24.3952 C   0  0  0  0  0  0  0  0  0  0  0  0
    6.2144    5.7014   25.4363 C   0  0  0  0  0  0  0  0  0  0  0  0
    5.1710    6.8770   26.1598 Cl  0  0  0  0  0  0  0  0  0  0  0  0
    7.5319    5.5865   25.8889 C   0  0  0  0  0  0  0  0  0  0  0  0
    7.9985    6.3577   26.8710 F   0  0  0  0  0  0  0  0  0  0  0  0
    4.6984    5.0198   24.0593 H   0  0  0  0  0  0  0  0  0  0  0  0
    6.1785    3.2695   23.0115 H   0  0  0  0  0  0  0  0  0  0  0  0
   11.0922    3.1605   24.6761 H   0  0  0  0  0  0  0  0  0  0  0  0
   11.7388    1.8719   21.0893 H   0  0  0  0  0  0  0  0  0  0  0  0
   11.4223    2.9539   22.4421 H   0  0  0  0  0  0  0  0  0  0  0  0
   12.1856   -0.0080   22.6002 H   0  0  0  0  0  0  0  0  0  0  0  0
   11.6739    0.9113   24.0184 H   0  0  0  0  0  0  0  0  0  0  0  0
   14.0737    0.8604   24.0184 H   0  0  0  0  0  0  0  0  0  0  0  0
   14.1838    1.4612   22.3514 H   0  0  0  0  0  0  0  0  0  0  0  0
   14.3249    3.2261   23.8033 H   0  0  0  0  0  0  0  0  0  0  0  0
  1  2  1  0
  2  3  1  0
  3  4  1  0
  4  5  1  0
  5  6  1  0
  6  7  2  0
  7  8  1  0
  8  9  1  0
  9 10  2  0
 10 11  1  0
 11 12  2  0
 12 13  1  0
 13 14  2  0
 14 15  1  0
 12 16  1  0
 11 17  1  0
 10 18  1  0
  8 19  1  0
  8 20  1  0
  7 21  1  0
 21 22  2  0
 22 23  1  0
 23 24  2  0
 24 25  1  0
 25 26  1  0
 26 27  2  0
 27 28  1  0
 28 29  2  0
 29 30  1  0
 30 31  1  0
 30 32  2  0
 32 33  1  0
 29 34  1  0
 28 35  1  0
 24 36  1  0
  4 37  1  0
  4 38  1  0
  3 39  1  0
  3 40  1  0
  2 41  1  0
  2 42  1  0
  1 43  1  0
 22  5  1  0
 27 23  1  0
 14  9  1  0
 32 26  1  0
M  END
>  <cnnaffinity>  (1) 
-6.06243

>  <filename>  (1) 
[H]OC([H])([H])C([H])([H])C([H])([H])n1nc(C([H])([H])c2c([H])nc([H])c([H])c2[H])nc1-c1c([H])oc2c(F)c(Cl)c([H])c([H])c12

$$$$
