
     RDKit          3D

 31 33  0  0  0  0  0  0  0  0999 V2000
    6.4734    4.6790   24.4297 O   0  0  0  0  0  0  0  0  0  0  0  0
    6.7203    3.4775   23.9342 C   0  0  0  0  0  0  0  0  0  0  0  0
    7.2221    3.4753   22.7154 N   0  0  0  0  0  0  0  0  0  0  0  0
    7.4891    2.2900   22.1464 C   0  0  0  0  0  0  0  0  0  0  0  0
    7.2535    1.0613   22.7911 C   0  0  0  0  0  0  0  0  0  0  0  0
    7.5737   -0.2634   22.2328 C   0  0  0  0  0  0  0  0  0  0  0  0
    8.1808   -1.3200   22.8740 C   0  0  0  0  0  0  0  0  0  0  0  0
    8.3404   -2.3009   21.8765 C   0  0  0  0  0  0  0  0  0  0  0  0
    7.8560   -1.9043   20.7121 N   0  0  0  0  0  0  0  0  0  0  0  0
    7.3609   -0.6730   20.9357 N   0  0  0  0  0  0  0  0  0  0  0  0
    6.6455   -0.0083   19.9110 C   0  0  0  0  0  0  0  0  0  0  0  0
    5.4279    0.6351   20.1646 C   0  0  0  0  0  0  0  0  0  0  0  0
    4.8063    1.2954   19.1048 C   0  0  0  0  0  0  0  0  0  0  0  0
    5.4147    1.2838   17.8450 C   0  0  0  0  0  0  0  0  0  0  0  0
    6.5783    0.6578   17.5983 N   0  0  0  0  0  0  0  0  0  0  0  0
    7.1735    0.0228   18.6090 C   0  0  0  0  0  0  0  0  0  0  0  0
    8.1209   -0.4619   18.3869 H   0  0  0  0  0  0  0  0  0  0  0  0
    4.9536    1.7907   17.0021 H   0  0  0  0  0  0  0  0  0  0  0  0
    3.8774    1.8367   19.2489 H   0  0  0  0  0  0  0  0  0  0  0  0
    5.0061    0.6434   21.1709 H   0  0  0  0  0  0  0  0  0  0  0  0
    8.7828   -3.2847   21.9457 H   0  0  0  0  0  0  0  0  0  0  0  0
    8.4967   -1.3513   23.9050 H   0  0  0  0  0  0  0  0  0  0  0  0
    6.7364    1.1018   24.0869 C   0  0  0  0  0  0  0  0  0  0  0  0
    6.4617    2.3313   24.6616 C   0  0  0  0  0  0  0  0  0  0  0  0
    5.9167    2.5471   26.0114 C   0  0  0  0  0  0  0  0  0  0  0  0
    5.7270    1.3689   26.6342 F   0  0  0  0  0  0  0  0  0  0  0  0
    6.7415    3.2863   26.7660 F   0  0  0  0  0  0  0  0  0  0  0  0
    4.7407    3.1890   25.9687 F   0  0  0  0  0  0  0  0  0  0  0  0
    6.5406    0.1810   24.6348 H   0  0  0  0  0  0  0  0  0  0  0  0
    7.9049    2.3058   21.1358 H   0  0  0  0  0  0  0  0  0  0  0  0
    6.7533    5.2035   23.6613 H   0  0  0  0  0  0  0  0  0  0  0  0
  1  2  1  0
  2  3  2  0
  3  4  1  0
  4  5  2  0
  5  6  1  0
  6  7  2  0
  7  8  1  0
  8  9  2  0
  9 10  1  0
 10 11  1  0
 11 12  2  0
 12 13  1  0
 13 14  2  0
 14 15  1  0
 15 16  2  0
 16 17  1  0
 14 18  1  0
 13 19  1  0
 12 20  1  0
  8 21  1  0
  7 22  1  0
  5 23  1  0
 23 24  2  0
 24 25  1  0
 25 26  1  0
 25 27  1  0
 25 28  1  0
 23 29  1  0
  4 30  1  0
  1 31  1  0
 24  2  1  0
 10  6  1  0
 16 11  1  0
M  END
>  <cnnaffinity>  (1) 
-5.26951

>  <filename>  (1) 
[H]Oc1nc([H])c(-c2c([H])c([H])nn2-c2c([H])nc([H])c([H])c2[H])c([H])c1C(F)(F)F

$$$$
