
     RDKit          3D

 34 36  0  0  0  0  0  0  0  0999 V2000
   11.5893   -2.3427   23.7335 H   0  0  0  0  0  0  0  0  0  0  0  0
   11.0728   -2.4999   22.9303 O   0  0  0  0  0  0  0  0  0  0  0  0
    9.7345   -2.6960   23.3617 C   0  0  1  0  0  0  0  0  0  0  0  0
    9.5414   -3.7751   23.4676 H   0  0  0  0  0  0  0  0  0  0  0  0
    9.4699   -2.0246   24.7052 C   0  0  0  0  0  0  0  0  0  0  0  0
    9.7240   -0.6470   24.8342 C   0  0  0  0  0  0  0  0  0  0  0  0
   10.1976   -0.1076   24.0136 H   0  0  0  0  0  0  0  0  0  0  0  0
    9.3967    0.0270   26.0076 C   0  0  0  0  0  0  0  0  0  0  0  0
    9.5839    1.0945   26.0977 H   0  0  0  0  0  0  0  0  0  0  0  0
    8.8264   -0.6771   27.0715 C   0  0  0  0  0  0  0  0  0  0  0  0
    8.5554   -0.1517   27.9797 H   0  0  0  0  0  0  0  0  0  0  0  0
    8.5671   -2.0444   26.9562 C   0  0  0  0  0  0  0  0  0  0  0  0
    8.1043   -2.5785   27.7780 H   0  0  0  0  0  0  0  0  0  0  0  0
    8.9025   -2.7227   25.7810 C   0  0  0  0  0  0  0  0  0  0  0  0
    8.7257   -3.7955   25.7078 H   0  0  0  0  0  0  0  0  0  0  0  0
    8.8201   -2.1235   22.2979 C   0  0  0  0  0  0  0  0  0  0  0  0
    9.3207   -1.1490   21.3630 C   0  0  0  0  0  0  0  0  0  0  0  0
   10.3748   -0.9113   21.2904 H   0  0  0  0  0  0  0  0  0  0  0  0
    8.5746   -0.5020   20.5239 N   0  0  0  0  0  0  0  0  0  0  0  0
    7.2237   -0.7391   20.5222 N   0  0  0  0  0  0  0  0  0  0  0  0
    6.5276    0.0438   19.5383 C   0  0  0  0  0  0  0  0  0  0  0  0
    7.1393    0.2693   18.2834 C   0  0  0  0  0  0  0  0  0  0  0  0
    8.1248   -0.1438   18.0943 H   0  0  0  0  0  0  0  0  0  0  0  0
    6.5831    0.9755   17.2988 N   0  0  0  0  0  0  0  0  0  0  0  0
    5.3939    1.5504   17.5455 C   0  0  0  0  0  0  0  0  0  0  0  0
    4.9733    2.1300   16.7257 H   0  0  0  0  0  0  0  0  0  0  0  0
    4.7198    1.4138   18.7624 C   0  0  0  0  0  0  0  0  0  0  0  0
    3.7707    1.9215   18.8943 H   0  0  0  0  0  0  0  0  0  0  0  0
    5.2807    0.6285   19.7816 C   0  0  0  0  0  0  0  0  0  0  0  0
    4.7663    0.4697   20.7285 H   0  0  0  0  0  0  0  0  0  0  0  0
    6.5814   -1.7731   21.3107 C   0  0  0  0  0  0  0  0  0  0  0  0
    5.4119   -2.0789   21.1859 O   0  0  0  0  0  0  0  0  0  0  0  0
    7.4905   -2.4256   22.2418 C   0  0  0  0  0  0  0  0  0  0  0  0
    7.0369   -3.1854   22.8676 H   0  0  0  0  0  0  0  0  0  0  0  0
  1  2  1  0
  2  3  1  0
  3  4  1  1
  3  5  1  0
  5  6  2  0
  6  7  1  0
  6  8  1  0
  8  9  1  0
  8 10  2  0
 10 11  1  0
 10 12  1  0
 12 13  1  0
 12 14  2  0
 14 15  1  0
  3 16  1  0
 16 17  1  0
 17 18  1  0
 17 19  2  0
 19 20  1  0
 20 21  1  0
 21 22  2  0
 22 23  1  0
 22 24  1  0
 24 25  2  0
 25 26  1  0
 25 27  1  0
 27 28  1  0
 27 29  2  0
 29 30  1  0
 20 31  1  0
 31 32  2  0
 31 33  1  0
 33 34  1  0
 14  5  1  0
 33 16  2  0
 29 21  1  0
M  END
>  <cnnaffinity>  (1) 
-5.20722

>  <filename>  (1) 
[H]O[C@@]([H])(c1c([H])c([H])c([H])c([H])c1[H])c1c([H])nn(-c2c([H])nc([H])c([H])c2[H])c(=O)c1[H]

$$$$
