
     RDKit          3D

 25 26  0  0  0  0  0  0  0  0999 V2000
    8.8017    0.3561   21.5795 H   0  0  0  0  0  0  0  0  0  0  0  0
    8.6565   -0.4350   21.0283 O   0  0  0  0  0  0  0  0  0  0  0  0
    7.2754   -0.6286   21.0025 N   0  0  0  0  0  0  0  0  0  0  0  0
    6.6920   -1.7650   21.6253 C   0  0  0  0  0  0  0  0  0  0  0  0
    5.5679   -2.1173   21.3254 O   0  0  0  0  0  0  0  0  0  0  0  0
    7.5162   -2.4696   22.7077 C   0  0  0  0  0  0  0  0  0  0  0  0
    8.8241   -2.9250   22.4508 C   0  0  0  0  0  0  0  0  0  0  0  0
    9.3252   -2.7394   21.5046 H   0  0  0  0  0  0  0  0  0  0  0  0
    9.5013   -3.6316   23.4478 C   0  0  0  0  0  0  0  0  0  0  0  0
   10.5151   -3.9712   23.2660 H   0  0  0  0  0  0  0  0  0  0  0  0
    8.9846   -3.9142   24.6489 N   0  0  0  0  0  0  0  0  0  0  0  0
    7.7477   -3.4656   24.8983 C   0  0  0  0  0  0  0  0  0  0  0  0
    7.3544   -3.6966   25.8826 H   0  0  0  0  0  0  0  0  0  0  0  0
    6.9771   -2.7353   23.9872 C   0  0  0  0  0  0  0  0  0  0  0  0
    6.0009   -2.3652   24.3049 H   0  0  0  0  0  0  0  0  0  0  0  0
    6.6441    0.0453   19.9052 C   0  0  0  0  0  0  0  0  0  0  0  0
    7.2133    0.1012   18.6177 C   0  0  0  0  0  0  0  0  0  0  0  0
    8.1669   -0.3827   18.4075 H   0  0  0  0  0  0  0  0  0  0  0  0
    6.6073    0.7032   17.5846 N   0  0  0  0  0  0  0  0  0  0  0  0
    5.4310    1.3159   17.8100 C   0  0  0  0  0  0  0  0  0  0  0  0
    4.9685    1.8077   16.9549 H   0  0  0  0  0  0  0  0  0  0  0  0
    4.8006    1.3373   19.0585 C   0  0  0  0  0  0  0  0  0  0  0  0
    3.8566    1.8597   19.1934 H   0  0  0  0  0  0  0  0  0  0  0  0
    5.4174    0.6786   20.1253 C   0  0  0  0  0  0  0  0  0  0  0  0
    4.9756    0.6313   21.1177 H   0  0  0  0  0  0  0  0  0  0  0  0
  1  2  1  0
  2  3  1  0
  3  4  1  0
  4  5  2  0
  4  6  1  0
  6  7  2  0
  7  8  1  0
  7  9  1  0
  9 10  1  0
  9 11  2  0
 11 12  1  0
 12 13  1  0
 12 14  2  0
 14 15  1  0
  3 16  1  0
 16 17  2  0
 17 18  1  0
 17 19  1  0
 19 20  2  0
 20 21  1  0
 20 22  1  0
 22 23  1  0
 22 24  2  0
 24 25  1  0
 14  6  1  0
 24 16  1  0
M  END
>  <cnnaffinity>  (1) 
-3.87883

>  <filename>  (1) 
[H]ON(C(=O)c1c([H])c([H])nc([H])c1[H])c1c([H])nc([H])c([H])c1[H]

$$$$
