
     RDKit          3D

 31 31  0  0  0  0  0  0  0  0999 V2000
    9.7237   -6.6393   27.3251 H   0  0  0  0  0  0  0  0  0  0  0  0
    9.7068   -5.7500   26.9148 O   0  0  0  0  0  0  0  0  0  0  0  0
    8.7076   -5.7551   25.9228 N   0  0  0  0  0  0  0  0  0  0  0  0
    8.2182   -4.8709   25.9694 H   0  0  0  0  0  0  0  0  0  0  0  0
    9.0807   -6.0922   24.6176 C   0  0  0  0  0  0  0  0  0  0  0  0
    9.8903   -6.9496   24.3585 O   0  0  0  0  0  0  0  0  0  0  0  0
    8.3499   -5.2997   23.5491 C   0  0  0  0  0  0  0  0  0  0  0  0
    7.2769   -5.2495   23.7806 H   0  0  0  0  0  0  0  0  0  0  0  0
    8.4622   -5.8745   22.6267 H   0  0  0  0  0  0  0  0  0  0  0  0
    9.0011   -3.9153   23.3382 C   0  0  0  0  0  0  0  0  0  0  0  0
   10.0843   -4.0760   23.2280 H   0  0  0  0  0  0  0  0  0  0  0  0
    8.8811   -3.2928   24.2372 H   0  0  0  0  0  0  0  0  0  0  0  0
    8.4378   -3.1653   22.1360 C   0  0  0  0  0  0  0  0  0  0  0  0
    8.4325   -3.7978   21.2413 H   0  0  0  0  0  0  0  0  0  0  0  0
    7.3875   -2.9094   22.3241 H   0  0  0  0  0  0  0  0  0  0  0  0
    9.1828   -1.8742   21.7898 C   0  0  0  0  0  0  0  0  0  0  0  0
   10.2069   -2.1031   21.4759 H   0  0  0  0  0  0  0  0  0  0  0  0
    9.2764   -1.2291   22.6788 H   0  0  0  0  0  0  0  0  0  0  0  0
    8.5496   -1.1652   20.6901 N   0  0  0  0  0  0  0  0  0  0  0  0
    7.4046   -0.6531   20.9008 C   0  0  0  0  0  0  0  0  0  0  0  0
    6.9221   -0.6987   21.8880 H   0  0  0  0  0  0  0  0  0  0  0  0
    6.6478    0.0415   19.8547 C   0  0  0  0  0  0  0  0  0  0  0  0
    7.1574    0.0711   18.5485 C   0  0  0  0  0  0  0  0  0  0  0  0
    8.0906   -0.4443   18.3389 H   0  0  0  0  0  0  0  0  0  0  0  0
    6.5558    0.6936   17.5345 N   0  0  0  0  0  0  0  0  0  0  0  0
    5.3982    1.3191   17.7986 C   0  0  0  0  0  0  0  0  0  0  0  0
    4.9267    1.8222   16.9580 H   0  0  0  0  0  0  0  0  0  0  0  0
    4.7938    1.3370   19.0621 C   0  0  0  0  0  0  0  0  0  0  0  0
    3.8561    1.8643   19.2007 H   0  0  0  0  0  0  0  0  0  0  0  0
    5.4289    0.6837   20.1162 C   0  0  0  0  0  0  0  0  0  0  0  0
    4.9891    0.6776   21.1168 H   0  0  0  0  0  0  0  0  0  0  0  0
  1  2  1  0
  2  3  1  0
  3  4  1  0
  3  5  1  0
  5  6  2  0
  5  7  1  0
  7  8  1  0
  7  9  1  0
  7 10  1  0
 10 11  1  0
 10 12  1  0
 10 13  1  0
 13 14  1  0
 13 15  1  0
 13 16  1  0
 16 17  1  0
 16 18  1  0
 16 19  1  0
 19 20  2  3
 20 21  1  0
 20 22  1  0
 22 23  2  0
 23 24  1  0
 23 25  1  0
 25 26  2  0
 26 27  1  0
 26 28  1  0
 28 29  1  0
 28 30  2  0
 30 31  1  0
 30 22  1  0
M  END
>  <cnnaffinity>  (1) 
-4.59473

>  <filename>  (1) 
[H]ON([H])C(=O)C([H])([H])C([H])([H])C([H])([H])C([H])([H])N=C([H])c1c([H])nc([H])c([H])c1[H]

$$$$
