
     RDKit          3D

 51 54  0  0  0  0  0  0  0  0999 V2000
   14.3485    5.5765   22.0858 N   0  0  0  0  0  0  0  0  0  0  0  0
   13.0763    5.0369   22.0688 C   0  0  0  0  0  0  0  0  0  0  0  0
   12.1565    5.7645   21.7505 O   0  0  0  0  0  0  0  0  0  0  0  0
   12.8699    3.5760   22.3532 C   0  0  0  0  0  0  0  0  0  0  0  0
   13.9029    2.6706   22.6304 C   0  0  0  0  0  0  0  0  0  0  0  0
   13.6327    1.3020   22.7655 C   0  0  0  0  0  0  0  0  0  0  0  0
   12.3315    0.8140   22.5779 C   0  0  0  0  0  0  0  0  0  0  0  0
   11.2948    1.7212   22.3195 C   0  0  0  0  0  0  0  0  0  0  0  0
    9.9465    1.2668   22.2009 N   0  0  0  0  0  0  0  0  0  0  0  0
    9.5774    0.2675   21.3670 N   0  0  0  0  0  0  0  0  0  0  0  0
    8.2883    0.1405   21.6079 C   0  0  0  0  0  0  0  0  0  0  0  0
    7.4179   -0.8076   20.8290 C   0  0  0  0  0  0  0  0  0  0  0  0
    6.6402   -0.1234   19.7042 C   0  0  0  0  0  0  0  0  0  0  0  0
    5.4578    0.5720   19.9956 C   0  0  0  0  0  0  0  0  0  0  0  0
    4.8290    1.2942   18.9787 C   0  0  0  0  0  0  0  0  0  0  0  0
    5.4049    1.3032   17.7060 C   0  0  0  0  0  0  0  0  0  0  0  0
    6.5231    0.6303   17.3956 N   0  0  0  0  0  0  0  0  0  0  0  0
    7.1143   -0.0591   18.3804 C   0  0  0  0  0  0  0  0  0  0  0  0
    8.0288   -0.5849   18.1030 H   0  0  0  0  0  0  0  0  0  0  0  0
    4.9521    1.8776   16.8999 H   0  0  0  0  0  0  0  0  0  0  0  0
    3.9238    1.8612   19.1616 H   0  0  0  0  0  0  0  0  0  0  0  0
    5.0516    0.5604   21.0096 H   0  0  0  0  0  0  0  0  0  0  0  0
    6.7228   -1.2558   21.5466 H   0  0  0  0  0  0  0  0  0  0  0  0
    8.0560   -1.6133   20.4471 H   0  0  0  0  0  0  0  0  0  0  0  0
    7.8126    0.9571   22.5835 N   0  0  0  0  0  0  0  0  0  0  0  0
    8.8704    1.6808   22.9283 C   0  0  0  0  0  0  0  0  0  0  0  0
    9.0259    2.7954   23.9457 C   0  0  1  0  0  0  0  0  0  0  0  0
    8.7771    4.0484   23.3012 O   0  0  0  0  0  0  0  0  0  0  0  0
    8.7828    4.7500   23.9703 H   0  0  0  0  0  0  0  0  0  0  0  0
    8.2152    2.5929   25.2258 C   0  0  0  0  0  0  0  0  0  0  0  0
    6.6834    2.4904   25.1092 C   0  0  0  0  0  0  0  0  0  0  0  0
    6.1466    2.9521   26.4946 C   0  0  0  0  0  0  0  0  0  0  0  0
    7.4015    3.2246   27.3513 C   0  0  0  0  0  0  0  0  0  0  0  0
    8.4097    3.6719   26.2953 C   0  0  0  0  0  0  0  0  0  0  0  0
    9.4428    3.7611   26.6390 H   0  0  0  0  0  0  0  0  0  0  0  0
    8.1062    4.6606   25.9105 H   0  0  0  0  0  0  0  0  0  0  0  0
    7.7560    2.2943   27.8186 H   0  0  0  0  0  0  0  0  0  0  0  0
    7.2422    3.9490   28.1568 H   0  0  0  0  0  0  0  0  0  0  0  0
    5.5764    3.8819   26.3782 H   0  0  0  0  0  0  0  0  0  0  0  0
    5.4747    2.2232   26.9605 H   0  0  0  0  0  0  0  0  0  0  0  0
    6.3435    3.1537   24.3064 H   0  0  0  0  0  0  0  0  0  0  0  0
    6.3724    1.4788   24.8399 H   0  0  0  0  0  0  0  0  0  0  0  0
    8.5969    1.6495   25.6454 H   0  0  0  0  0  0  0  0  0  0  0  0
   10.0824    2.7732   24.2658 H   0  0  0  0  0  0  0  0  0  0  0  0
   11.5538    3.0923   22.2497 C   0  0  0  0  0  0  0  0  0  0  0  0
   10.7312    3.7883   22.1096 H   0  0  0  0  0  0  0  0  0  0  0  0
   12.1111   -0.2489   22.6214 H   0  0  0  0  0  0  0  0  0  0  0  0
   14.4551    0.6221   22.9765 H   0  0  0  0  0  0  0  0  0  0  0  0
   14.9391    3.0010   22.5652 H   0  0  0  0  0  0  0  0  0  0  0  0
   14.1877    6.5664   21.9523 H   0  0  0  0  0  0  0  0  0  0  0  0
   14.9040    5.3772   22.9057 H   0  0  0  0  0  0  0  0  0  0  0  0
  1  2  1  0
  2  3  2  0
  2  4  1  0
  4  5  2  0
  5  6  1  0
  6  7  2  0
  7  8  1  0
  8  9  1  0
  9 10  1  0
 10 11  2  0
 11 12  1  0
 12 13  1  0
 13 14  2  0
 14 15  1  0
 15 16  2  0
 16 17  1  0
 17 18  2  0
 18 19  1  0
 16 20  1  0
 15 21  1  0
 14 22  1  0
 12 23  1  0
 12 24  1  0
 11 25  1  0
 25 26  2  0
 26 27  1  0
 27 28  1  0
 28 29  1  0
 27 30  1  0
 30 31  1  0
 31 32  1  0
 32 33  1  0
 33 34  1  0
 34 35  1  0
 34 36  1  0
 33 37  1  0
 33 38  1  0
 32 39  1  0
 32 40  1  0
 31 41  1  0
 31 42  1  0
 30 43  1  0
 27 44  1  1
  8 45  2  0
 45 46  1  0
  7 47  1  0
  6 48  1  0
  5 49  1  0
  1 50  1  0
  1 51  1  0
 45  4  1  0
 26  9  1  0
 34 30  1  0
 18 13  1  0
M  END
>  <cnnaffinity>  (1) 
-6.16926

>  <filename>  (1) 
[H]O[C@]([H])(c1nc(C([H])([H])c2c([H])nc([H])c([H])c2[H])nn1-c1c([H])c([H])c([H])c(C(=O)N([H])[H])c1[H])C1([H])C([H])([H])C([H])([H])C([H])([H])C1([H])[H]

$$$$
