
     RDKit          3D

 38 40  0  0  0  0  0  0  0  0999 V2000
    9.3455   -5.2303   24.1768 H   0  0  0  0  0  0  0  0  0  0  0  0
    8.9436   -4.7103   23.4698 O   0  0  0  0  0  0  0  0  0  0  0  0
    7.7139   -4.3298   23.9120 C   0  0  0  0  0  0  0  0  0  0  0  0
    7.2722   -4.7333   25.1694 C   0  0  0  0  0  0  0  0  0  0  0  0
    7.9030   -5.3671   25.7939 H   0  0  0  0  0  0  0  0  0  0  0  0
    6.0062   -4.3449   25.6154 C   0  0  0  0  0  0  0  0  0  0  0  0
    5.4563   -4.8703   27.1774 Cl  0  0  0  0  0  0  0  0  0  0  0  0
    5.1727   -3.5830   24.8019 C   0  0  0  0  0  0  0  0  0  0  0  0
    4.2003   -3.2875   25.1740 H   0  0  0  0  0  0  0  0  0  0  0  0
    5.5965   -3.2232   23.5143 C   0  0  0  0  0  0  0  0  0  0  0  0
    4.9082   -2.7616   22.8134 H   0  0  0  0  0  0  0  0  0  0  0  0
    6.8784   -3.5426   23.0674 C   0  0  0  0  0  0  0  0  0  0  0  0
    7.3849   -3.1933   21.8500 O   0  0  0  0  0  0  0  0  0  0  0  0
    6.7548   -2.2656   20.9837 C   0  0  0  0  0  0  0  0  0  0  0  0
    6.9090   -2.6754   19.9856 H   0  0  0  0  0  0  0  0  0  0  0  0
    5.6731   -2.2169   21.1473 H   0  0  0  0  0  0  0  0  0  0  0  0
    7.3418   -0.8283   21.0064 C   0  0  1  0  0  0  0  0  0  0  0  0
    6.6401   -0.0214   19.8989 C   0  0  0  0  0  0  0  0  0  0  0  0
    7.1504    0.0516   18.5842 C   0  0  0  0  0  0  0  0  0  0  0  0
    8.1090   -0.4047   18.3341 H   0  0  0  0  0  0  0  0  0  0  0  0
    6.5501    0.6773   17.5620 N   0  0  0  0  0  0  0  0  0  0  0  0
    5.3907    1.3002   17.8137 C   0  0  0  0  0  0  0  0  0  0  0  0
    4.9261    1.8108   16.9712 H   0  0  0  0  0  0  0  0  0  0  0  0
    4.7899    1.3122   19.0758 C   0  0  0  0  0  0  0  0  0  0  0  0
    3.8632    1.8559   19.2293 H   0  0  0  0  0  0  0  0  0  0  0  0
    5.4222    0.6432   20.1273 C   0  0  0  0  0  0  0  0  0  0  0  0
    4.9775    0.6618   21.1238 H   0  0  0  0  0  0  0  0  0  0  0  0
    7.1943   -0.1802   22.4202 C   0  0  0  0  0  0  0  0  0  0  0  0
    7.1201    0.9141   22.3044 H   0  0  0  0  0  0  0  0  0  0  0  0
    6.2839   -0.5101   22.9413 H   0  0  0  0  0  0  0  0  0  0  0  0
    8.3868   -0.5126   23.1965 N   0  0  0  0  0  0  0  0  0  0  0  0
    8.1790   -1.2257   23.8793 H   0  0  0  0  0  0  0  0  0  0  0  0
    9.4491   -0.9724   22.2922 C   0  0  0  0  0  0  0  0  0  0  0  0
   10.3563   -0.3661   22.4262 H   0  0  0  0  0  0  0  0  0  0  0  0
    9.7260   -2.0078   22.5153 H   0  0  0  0  0  0  0  0  0  0  0  0
    8.8906   -0.8294   20.8644 C   0  0  0  0  0  0  0  0  0  0  0  0
    9.2045    0.1328   20.4364 H   0  0  0  0  0  0  0  0  0  0  0  0
    9.2537   -1.6222   20.1985 H   0  0  0  0  0  0  0  0  0  0  0  0
  1  2  1  0
  2  3  1  0
  3  4  2  0
  4  5  1  0
  4  6  1  0
  6  7  1  0
  6  8  2  0
  8  9  1  0
  8 10  1  0
 10 11  1  0
 10 12  2  0
 12 13  1  0
 13 14  1  0
 14 15  1  0
 14 16  1  0
 17 14  1  1
 17 18  1  0
 18 19  2  0
 19 20  1  0
 19 21  1  0
 21 22  2  0
 22 23  1  0
 22 24  1  0
 24 25  1  0
 24 26  2  0
 26 27  1  0
 17 28  1  0
 28 29  1  0
 28 30  1  0
 28 31  1  0
 31 32  1  0
 31 33  1  0
 33 34  1  0
 33 35  1  0
 33 36  1  0
 36 37  1  0
 36 38  1  0
 12  3  1  0
 36 17  1  0
 26 18  1  0
M  END
>  <cnnaffinity>  (1) 
-5.00273

>  <filename>  (1) 
[H]Oc1c([H])c(Cl)c([H])c([H])c1OC([H])([H])[C@@]1(c2c([H])nc([H])c([H])c2[H])C([H])([H])N([H])C([H])([H])C1([H])[H]

$$$$
