
     RDKit          3D

 29 31  0  0  0  0  0  0  0  0999 V2000
   10.3633    1.9034   24.3260 H   0  0  0  0  0  0  0  0  0  0  0  0
    9.5989    1.7204   23.7669 O   0  0  0  0  0  0  0  0  0  0  0  0
    8.4786    1.9835   24.4747 C   0  0  0  0  0  0  0  0  0  0  0  0
    8.5308    2.4500   25.7908 C   0  0  0  0  0  0  0  0  0  0  0  0
    9.4990    2.6181   26.2569 H   0  0  0  0  0  0  0  0  0  0  0  0
    7.3351    2.6385   26.4951 C   0  0  0  0  0  0  0  0  0  0  0  0
    7.3597    3.2667   28.1192 Cl  0  0  0  0  0  0  0  0  0  0  0  0
    6.1046    2.3168   25.9228 C   0  0  0  0  0  0  0  0  0  0  0  0
    5.1895    2.4238   26.4924 H   0  0  0  0  0  0  0  0  0  0  0  0
    6.0567    1.8377   24.6074 C   0  0  0  0  0  0  0  0  0  0  0  0
    5.1240    1.5179   24.1466 H   0  0  0  0  0  0  0  0  0  0  0  0
    7.2276    1.7015   23.8829 C   0  0  0  0  0  0  0  0  0  0  0  0
    7.1531    1.2527   22.5673 O   0  0  0  0  0  0  0  0  0  0  0  0
    7.4802   -0.0215   22.2992 C   0  0  0  0  0  0  0  0  0  0  0  0
    8.1906   -1.1274   23.4179 S   0  0  0  0  0  0  0  0  0  0  0  0
    8.2519   -2.3582   22.2930 N   0  0  0  0  0  0  0  0  0  0  0  0
    7.7649   -1.9434   21.1606 C   0  0  0  0  0  0  0  0  0  0  0  0
    7.7175   -2.6752   20.3684 H   0  0  0  0  0  0  0  0  0  0  0  0
    7.2897   -0.5926   21.0688 C   0  0  0  0  0  0  0  0  0  0  0  0
    6.6366    0.1008   19.9189 C   0  0  0  0  0  0  0  0  0  0  0  0
    7.1726    0.1271   18.6082 C   0  0  0  0  0  0  0  0  0  0  0  0
    8.1426   -0.3263   18.4062 H   0  0  0  0  0  0  0  0  0  0  0  0
    6.5789    0.7146   17.5584 N   0  0  0  0  0  0  0  0  0  0  0  0
    5.4023    1.3211   17.7836 C   0  0  0  0  0  0  0  0  0  0  0  0
    4.9429    1.7911   16.9187 H   0  0  0  0  0  0  0  0  0  0  0  0
    4.7843    1.3831   19.0375 C   0  0  0  0  0  0  0  0  0  0  0  0
    3.8512    1.9271   19.1608 H   0  0  0  0  0  0  0  0  0  0  0  0
    5.4284    0.7875   20.1224 C   0  0  0  0  0  0  0  0  0  0  0  0
    5.0312    0.8588   21.1358 H   0  0  0  0  0  0  0  0  0  0  0  0
  1  2  1  0
  2  3  1  0
  3  4  2  0
  4  5  1  0
  4  6  1  0
  6  7  1  0
  6  8  2  0
  8  9  1  0
  8 10  1  0
 10 11  1  0
 10 12  2  0
 12 13  1  0
 13 14  1  0
 14 15  1  0
 15 16  1  0
 16 17  2  0
 17 18  1  0
 17 19  1  0
 19 20  1  0
 20 21  2  0
 21 22  1  0
 21 23  1  0
 23 24  2  0
 24 25  1  0
 24 26  1  0
 26 27  1  0
 26 28  2  0
 28 29  1  0
 12  3  1  0
 19 14  2  0
 28 20  1  0
M  END
>  <cnnaffinity>  (1) 
-5.03996

>  <filename>  (1) 
[H]Oc1c([H])c(Cl)c([H])c([H])c1Oc1snc([H])c1-c1c([H])nc([H])c([H])c1[H]

$$$$
