
     RDKit          3D

 40 42  0  0  0  0  0  0  0  0999 V2000
   11.1762   -2.5864   22.3465 O   0  0  0  0  0  0  0  0  0  0  0  0
   10.3456   -1.9024   21.4291 C   0  0  0  0  0  0  0  0  0  0  0  0
    9.5574   -0.8819   22.2348 C   0  0  0  0  0  0  0  0  0  0  0  0
    8.6736   -0.0248   21.3424 N   0  0  0  0  0  4  0  0  0  0  0  0
    7.3787   -0.7587   20.9627 C   0  0  0  0  0  0  0  0  0  0  0  0
    6.6476   -0.0074   19.8942 C   0  0  0  0  0  0  0  0  0  0  0  0
    5.4374    0.6524   20.1460 C   0  0  0  0  0  0  0  0  0  0  0  0
    4.8011    1.3153   19.0933 C   0  0  0  0  0  0  0  0  0  0  0  0
    5.4080    1.3043   17.8339 C   0  0  0  0  0  0  0  0  0  0  0  0
    6.5776    0.6977   17.5840 N   0  0  0  0  0  0  0  0  0  0  0  0
    7.1819    0.0747   18.6019 C   0  0  0  0  0  0  0  0  0  0  0  0
    8.1394   -0.3951   18.3662 H   0  0  0  0  0  0  0  0  0  0  0  0
    4.9402    1.8027   16.9842 H   0  0  0  0  0  0  0  0  0  0  0  0
    3.8676    1.8524   19.2260 H   0  0  0  0  0  0  0  0  0  0  0  0
    5.0327    0.6706   21.1576 H   0  0  0  0  0  0  0  0  0  0  0  0
    7.6198   -1.7759   20.6355 H   0  0  0  0  0  0  0  0  0  0  0  0
    6.7754   -0.8471   21.8668 H   0  0  0  0  0  0  0  0  0  0  0  0
    8.3458    1.3371   22.0112 C   0  0  0  0  0  0  0  0  0  0  0  0
    7.5942    1.2604   23.3182 C   0  0  0  0  0  0  0  0  0  0  0  0
    6.2961    1.3128   23.4612 N   0  0  0  0  0  0  0  0  0  0  0  0
    6.0698    1.1122   24.8135 C   0  0  0  0  0  0  0  0  0  0  0  0
    4.8560    1.0313   25.5154 C   0  0  0  0  0  0  0  0  0  0  0  0
    4.9041    0.8502   26.8954 C   0  0  0  0  0  0  0  0  0  0  0  0
    6.1414    0.7318   27.5715 C   0  0  0  0  0  0  0  0  0  0  0  0
    7.3510    0.7815   26.8827 C   0  0  0  0  0  0  0  0  0  0  0  0
    7.2925    0.9692   25.4952 C   0  0  0  0  0  0  0  0  0  0  0  0
    8.2529    1.0761   24.5077 N   0  0  0  0  0  0  0  0  0  0  0  0
    9.2444    1.0163   24.6421 H   0  0  0  0  0  0  0  0  0  0  0  0
    8.2972    0.6937   27.4078 H   0  0  0  0  0  0  0  0  0  0  0  0
    6.1443    0.6046   28.6505 H   0  0  0  0  0  0  0  0  0  0  0  0
    3.9780    0.8108   27.4592 H   0  0  0  0  0  0  0  0  0  0  0  0
    3.9264    1.1145   24.9634 H   0  0  0  0  0  0  0  0  0  0  0  0
    7.7488    1.9122   21.3087 H   0  0  0  0  0  0  0  0  0  0  0  0
    9.2841    1.8725   22.1779 H   0  0  0  0  0  0  0  0  0  0  0  0
    9.1349    0.1534   20.4186 H   0  0  0  0  0  0  0  0  0  0  0  0
    8.9421   -1.3967   22.9815 H   0  0  0  0  0  0  0  0  0  0  0  0
   10.2770   -0.2621   22.7795 H   0  0  0  0  0  0  0  0  0  0  0  0
    9.6462   -2.5780   20.9090 H   0  0  0  0  0  0  0  0  0  0  0  0
   10.9148   -1.3270   20.6835 H   0  0  0  0  0  0  0  0  0  0  0  0
   11.7258   -3.2447   21.8918 H   0  0  0  0  0  0  0  0  0  0  0  0
  1  2  1  0
  2  3  1  0
  3  4  1  0
  4  5  1  0
  5  6  1  0
  6  7  2  0
  7  8  1  0
  8  9  2  0
  9 10  1  0
 10 11  2  0
 11 12  1  0
  9 13  1  0
  8 14  1  0
  7 15  1  0
  5 16  1  0
  5 17  1  0
  4 18  1  0
 18 19  1  0
 19 20  2  0
 20 21  1  0
 21 22  2  0
 22 23  1  0
 23 24  2  0
 24 25  1  0
 25 26  2  0
 26 27  1  0
 27 28  1  0
 25 29  1  0
 24 30  1  0
 23 31  1  0
 22 32  1  0
 18 33  1  0
 18 34  1  0
  4 35  1  0
  3 36  1  0
  3 37  1  0
  2 38  1  0
  2 39  1  0
  1 40  1  0
 11  6  1  0
 27 19  1  0
 26 21  1  0
M  CHG  1   4   1
M  END
>  <cnnaffinity>  (1) 
-4.98965

>  <filename>  (1) 
[H]OC([H])([H])C([H])([H])[N+]([H])(C([H])([H])c1c([H])nc([H])c([H])c1[H])C([H])([H])c1nc2c([H])c([H])c([H])c([H])c2n1[H]

$$$$
