
     RDKit          3D

 30 32  0  0  0  0  0  0  0  0999 V2000
    8.7641   -1.1718   22.8462 H   0  0  0  0  0  0  0  0  0  0  0  0
    7.9099   -1.6199   22.8568 O   0  0  0  0  0  0  0  0  0  0  0  0
    7.0359   -0.6522   22.3230 C   0  0  1  0  0  0  0  0  0  0  0  0
    6.0060   -0.9937   22.5123 H   0  0  0  0  0  0  0  0  0  0  0  0
    7.2193    0.7355   22.9277 C   0  0  0  0  0  0  0  0  0  0  0  0
    6.2254    1.2618   23.8008 C   0  0  0  0  0  0  0  0  0  0  0  0
    5.3571    0.6510   24.0386 H   0  0  0  0  0  0  0  0  0  0  0  0
    6.3271    2.5316   24.3518 C   0  0  0  0  0  0  0  0  0  0  0  0
    5.5650    2.9171   25.0200 H   0  0  0  0  0  0  0  0  0  0  0  0
    7.4655    3.2991   24.0102 C   0  0  0  0  0  0  0  0  0  0  0  0
    8.4622    2.8001   23.1388 C   0  0  0  0  0  0  0  0  0  0  0  0
    9.4148    3.8664   23.0492 C   0  0  0  0  0  0  0  0  0  0  0  0
   10.3417    3.9156   22.4830 H   0  0  0  0  0  0  0  0  0  0  0  0
    9.0526    4.8941   23.7901 N   0  0  0  0  0  0  0  0  0  0  0  0
    7.8783    4.5484   24.3657 N   0  0  0  0  0  0  0  0  0  0  0  0
    7.4056    5.2087   24.9691 H   0  0  0  0  0  0  0  0  0  0  0  0
    8.3322    1.4997   22.5945 C   0  0  0  0  0  0  0  0  0  0  0  0
    9.0669    1.1196   21.8917 H   0  0  0  0  0  0  0  0  0  0  0  0
    7.3679   -0.6797   20.9292 N   0  0  0  0  0  0  0  0  0  0  0  0
    8.1219   -1.3267   20.7648 H   0  0  0  0  0  0  0  0  0  0  0  0
    6.6926   -0.0209   19.9066 C   0  0  0  0  0  0  0  0  0  0  0  0
    7.1862    0.0457   18.5721 C   0  0  0  0  0  0  0  0  0  0  0  0
    8.1358   -0.4303   18.3282 H   0  0  0  0  0  0  0  0  0  0  0  0
    6.5694    0.6721   17.5604 N   0  0  0  0  0  0  0  0  0  0  0  0
    5.4063    1.2898   17.8298 C   0  0  0  0  0  0  0  0  0  0  0  0
    4.9280    1.7973   16.9961 H   0  0  0  0  0  0  0  0  0  0  0  0
    4.8251    1.2957   19.1024 C   0  0  0  0  0  0  0  0  0  0  0  0
    3.8887    1.8239   19.2631 H   0  0  0  0  0  0  0  0  0  0  0  0
    5.4692    0.6336   20.1517 C   0  0  0  0  0  0  0  0  0  0  0  0
    5.0419    0.6226   21.1534 H   0  0  0  0  0  0  0  0  0  0  0  0
  1  2  1  0
  2  3  1  0
  3  4  1  6
  3  5  1  0
  5  6  2  0
  6  7  1  0
  6  8  1  0
  8  9  1  0
  8 10  2  0
 10 11  1  0
 11 12  1  0
 12 13  1  0
 12 14  2  0
 14 15  1  0
 15 16  1  0
 11 17  2  0
 17 18  1  0
  3 19  1  0
 19 20  1  0
 19 21  1  0
 21 22  2  0
 22 23  1  0
 22 24  1  0
 24 25  2  0
 25 26  1  0
 25 27  1  0
 27 28  1  0
 27 29  2  0
 29 30  1  0
 17  5  1  0
 29 21  1  0
 15 10  1  0
M  END
>  <cnnaffinity>  (1) 
-4.54933

>  <filename>  (1) 
[H]O[C@@]([H])(c1c([H])c([H])c2c(c([H])nn2[H])c1[H])N([H])c1c([H])nc([H])c([H])c1[H]

$$$$
