
     RDKit          3D

 24 25  0  0  0  0  0  0  0  0999 V2000
   11.8222    0.3308   21.5758 H   0  0  0  0  0  0  0  0  0  0  0  0
   10.9938   -0.1099   21.3583 O   0  0  0  0  0  0  0  0  0  0  0  0
   11.0514   -1.2366   22.4387 P   0  0  0  0  0  0  0  0  0  0  0  0
   12.4206   -1.7462   22.4156 O   0  0  0  0  0  0  0  0  0  0  0  0
   10.7673   -0.6654   23.8615 O   0  0  0  0  0  0  0  0  0  0  0  0
   11.1104   -1.3969   24.3801 H   0  0  0  0  0  0  0  0  0  0  0  0
    9.9340   -2.4553   22.2105 C   0  0  0  0  0  0  0  0  0  0  0  0
   10.1367   -2.9565   21.2792 H   0  0  0  0  0  0  0  0  0  0  0  0
    9.8618   -3.1276   23.0617 H   0  0  0  0  0  0  0  0  0  0  0  0
    8.8048   -1.5869   22.0637 C   0  0  0  0  0  0  0  0  0  0  0  0
    8.6262   -1.0288   20.9166 N   0  0  0  0  0  0  0  0  0  0  0  0
    7.3708   -0.4847   21.0695 C   0  0  0  0  0  0  0  0  0  0  0  0
    6.6525    0.1179   19.9712 C   0  0  0  0  0  0  0  0  0  0  0  0
    7.2276    0.0599   18.7018 C   0  0  0  0  0  0  0  0  0  0  0  0
    8.1713   -0.4596   18.5651 H   0  0  0  0  0  0  0  0  0  0  0  0
    6.6529    0.6163   17.6255 N   0  0  0  0  0  0  0  0  0  0  0  0
    5.4803    1.2553   17.7854 C   0  0  0  0  0  0  0  0  0  0  0  0
    5.0272    1.7444   16.9274 H   0  0  0  0  0  0  0  0  0  0  0  0
    4.8266    1.3140   19.0189 C   0  0  0  0  0  0  0  0  0  0  0  0
    3.8811    1.8376   19.0973 H   0  0  0  0  0  0  0  0  0  0  0  0
    5.4042    0.7268   20.1382 C   0  0  0  0  0  0  0  0  0  0  0  0
    4.9029    0.7571   21.1075 H   0  0  0  0  0  0  0  0  0  0  0  0
    6.8579   -0.6297   22.2624 N   0  0  0  0  0  0  0  0  0  0  0  0
    7.8252   -1.3689   22.9715 O   0  0  0  0  0  0  0  0  0  0  0  0
  1  2  1  0
  2  3  1  0
  3  4  2  0
  3  5  1  0
  5  6  1  0
  3  7  1  0
  7  8  1  0
  7  9  1  0
  7 10  1  0
 10 11  2  0
 11 12  1  0
 12 13  1  0
 13 14  2  0
 14 15  1  0
 14 16  1  0
 16 17  2  0
 17 18  1  0
 17 19  1  0
 19 20  1  0
 19 21  2  0
 21 22  1  0
 12 23  2  0
 23 24  1  0
 24 10  1  0
 21 13  1  0
M  END
>  <cnnaffinity>  (1) 
-4.4485

>  <filename>  (1) 
[H]OP(=O)(O[H])C([H])([H])c1nc(-c2c([H])nc([H])c([H])c2[H])no1

$$$$
