
     RDKit          3D

 44 45  0  0  0  0  0  0  0  0999 V2000
    7.8403    6.9402   21.9487 H   0  0  0  0  0  0  0  0  0  0  0  0
    8.6784    6.4660   22.1043 O   0  0  0  0  0  0  0  0  0  0  0  0
    8.3336    5.2285   22.6576 N   0  0  0  0  0  0  0  0  0  0  0  0
    8.5236    4.4891   21.9909 H   0  0  0  0  0  0  0  0  0  0  0  0
    8.8302    4.8469   23.9123 C   0  0  0  0  0  0  0  0  0  0  0  0
    9.2756    5.5792   24.7608 O   0  0  0  0  0  0  0  0  0  0  0  0
    8.6727    3.3443   24.0946 C   0  0  0  0  0  0  0  0  0  0  0  0
    7.8895    2.9631   23.4311 H   0  0  0  0  0  0  0  0  0  0  0  0
    8.3210    3.1907   25.1161 H   0  0  0  0  0  0  0  0  0  0  0  0
    9.9682    2.5418   23.9030 C   0  0  0  0  0  0  0  0  0  0  0  0
   10.3299    2.6563   22.8742 H   0  0  0  0  0  0  0  0  0  0  0  0
   10.7546    2.9709   24.5336 H   0  0  0  0  0  0  0  0  0  0  0  0
    9.7809    1.0553   24.2464 C   0  0  0  0  0  0  0  0  0  0  0  0
   10.6818    0.4991   23.9592 H   0  0  0  0  0  0  0  0  0  0  0  0
    9.7006    0.9422   25.3381 H   0  0  0  0  0  0  0  0  0  0  0  0
    8.5486    0.3947   23.5963 C   0  0  0  0  0  0  0  0  0  0  0  0
    7.6476    0.8124   24.0687 H   0  0  0  0  0  0  0  0  0  0  0  0
    8.5431   -0.6725   23.8557 H   0  0  0  0  0  0  0  0  0  0  0  0
    8.4078    0.5561   22.0565 C   0  0  1  0  0  0  0  0  0  0  0  0
    8.0478    1.5725   21.8573 H   0  0  0  0  0  0  0  0  0  0  0  0
    9.7487    0.3885   21.3037 C   0  0  0  0  0  0  0  0  0  0  0  0
   10.4958    1.1006   21.6711 H   0  0  0  0  0  0  0  0  0  0  0  0
    9.5889    0.6360   20.2428 H   0  0  0  0  0  0  0  0  0  0  0  0
   10.2828   -1.0435   21.4455 C   0  0  0  0  0  0  0  0  0  0  0  0
   10.4726   -1.2506   22.5097 H   0  0  0  0  0  0  0  0  0  0  0  0
   11.2479   -1.1493   20.9302 H   0  0  0  0  0  0  0  0  0  0  0  0
    9.2698   -2.0397   20.8769 C   0  0  0  0  0  0  0  0  0  0  0  0
    9.6175   -3.0611   21.0300 H   0  0  0  0  0  0  0  0  0  0  0  0
    9.2685   -1.8909   19.7947 H   0  0  0  0  0  0  0  0  0  0  0  0
    7.8470   -1.8788   21.4524 C   0  0  0  0  0  0  0  0  0  0  0  0
    7.8390   -2.2805   22.4801 H   0  0  0  0  0  0  0  0  0  0  0  0
    7.1385   -2.4939   20.8822 H   0  0  0  0  0  0  0  0  0  0  0  0
    7.3219   -0.4175   21.4882 C   0  0  2  0  0  0  0  0  0  0  0  0
    6.4891   -0.4023   22.2039 H   0  0  0  0  0  0  0  0  0  0  0  0
    6.7128    0.0798   20.1719 C   0  0  0  0  0  0  0  0  0  0  0  0
    7.3245   -0.0789   18.9135 C   0  0  0  0  0  0  0  0  0  0  0  0
    8.2555   -0.6313   18.8161 H   0  0  0  0  0  0  0  0  0  0  0  0
    6.8468    0.4192   17.7595 N   0  0  0  0  0  0  0  0  0  0  0  0
    5.7062    1.1170   17.8175 C   0  0  0  0  0  0  0  0  0  0  0  0
    5.3543    1.5310   16.8737 H   0  0  0  0  0  0  0  0  0  0  0  0
    4.9935    1.3258   18.9998 C   0  0  0  0  0  0  0  0  0  0  0  0
    4.0764    1.9052   18.9804 H   0  0  0  0  0  0  0  0  0  0  0  0
    5.5035    0.7990   20.1905 C   0  0  0  0  0  0  0  0  0  0  0  0
    4.9671    0.9445   21.1292 H   0  0  0  0  0  0  0  0  0  0  0  0
  1  2  1  0
  2  3  1  0
  3  4  1  0
  3  5  1  0
  5  6  2  0
  5  7  1  0
  7  8  1  0
  7  9  1  0
  7 10  1  0
 10 11  1  0
 10 12  1  0
 10 13  1  0
 13 14  1  0
 13 15  1  0
 13 16  1  0
 16 17  1  0
 16 18  1  0
 16 19  1  0
 19 20  1  1
 19 21  1  0
 21 22  1  0
 21 23  1  0
 21 24  1  0
 24 25  1  0
 24 26  1  0
 24 27  1  0
 27 28  1  0
 27 29  1  0
 27 30  1  0
 30 31  1  0
 30 32  1  0
 30 33  1  0
 33 34  1  1
 33 35  1  0
 35 36  2  0
 36 37  1  0
 36 38  1  0
 38 39  2  0
 39 40  1  0
 39 41  1  0
 41 42  1  0
 41 43  2  0
 43 44  1  0
 33 19  1  0
 43 35  1  0
M  END
>  <cnnaffinity>  (1) 
-5.14131

>  <filename>  (1) 
[H]ON([H])C(=O)C([H])([H])C([H])([H])C([H])([H])C([H])([H])[C@@]1([H])C([H])([H])C([H])([H])C([H])([H])C([H])([H])[C@]1([H])c1c([H])nc([H])c([H])c1[H]

$$$$
