
     RDKit          3D

 44 47  0  0  0  0  0  0  0  0999 V2000
    3.4547   -4.7804   30.2039 O   0  0  0  0  0  0  0  0  0  0  0  0
    3.7091   -3.9961   29.1225 C   0  0  0  0  0  0  0  0  0  0  0  0
    2.8444   -2.9251   28.8747 C   0  0  0  0  0  0  0  0  0  0  0  0
    3.0703   -2.1044   27.7664 C   0  0  0  0  0  0  0  0  0  0  0  0
    4.1553   -2.3505   26.9145 C   0  0  0  0  0  0  0  0  0  0  0  0
    5.0404   -3.4238   27.1634 C   0  0  0  0  0  0  0  0  0  0  0  0
    6.2226   -3.6858   26.2571 C   0  0  0  0  0  0  0  0  0  0  0  0
    6.9966   -4.7394   26.5297 N   0  0  0  0  0  0  0  0  0  0  0  0
    8.0248   -4.9670   25.7157 C   0  0  0  0  0  0  0  0  0  0  0  0
    8.2851   -4.1936   24.6113 C   0  0  0  0  0  0  0  0  0  0  0  0
    7.4225   -3.1131   24.4211 C   0  0  0  0  0  0  0  0  0  0  0  0
    7.5999   -2.2690   23.3709 N   0  0  0  0  0  0  0  0  0  0  0  0
    8.2918   -2.6589   22.1412 C   0  0  0  0  0  0  0  0  0  0  0  0
    7.6992   -2.0142   20.8627 C   0  0  0  0  0  0  0  0  0  0  0  0
    7.3205   -0.6093   20.9986 N   0  0  0  0  0  0  0  0  0  0  0  0
    6.6645    0.0326   19.9276 C   0  0  0  0  0  0  0  0  0  0  0  0
    5.4396    0.6987   20.1405 C   0  0  0  0  0  0  0  0  0  0  0  0
    4.7932    1.3346   19.0745 C   0  0  0  0  0  0  0  0  0  0  0  0
    5.3909    1.3042   17.8098 C   0  0  0  0  0  0  0  0  0  0  0  0
    6.5462    0.6656   17.5625 N   0  0  0  0  0  0  0  0  0  0  0  0
    7.1547    0.0475   18.5887 C   0  0  0  0  0  0  0  0  0  0  0  0
    8.0974   -0.4414   18.3416 H   0  0  0  0  0  0  0  0  0  0  0  0
    4.9363    1.8140   16.9640 H   0  0  0  0  0  0  0  0  0  0  0  0
    3.8536    1.8608   19.2159 H   0  0  0  0  0  0  0  0  0  0  0  0
    5.0109    0.6813   21.1409 H   0  0  0  0  0  0  0  0  0  0  0  0
    7.6251   -0.0058   22.2961 C   0  0  0  0  0  0  0  0  0  0  0  0
    7.1499   -0.8726   23.4819 C   0  0  0  0  0  0  0  0  0  0  0  0
    6.0628   -0.8585   23.5496 H   0  0  0  0  0  0  0  0  0  0  0  0
    7.5170   -0.4400   24.4229 H   0  0  0  0  0  0  0  0  0  0  0  0
    7.2039    1.0016   22.3680 H   0  0  0  0  0  0  0  0  0  0  0  0
    8.7185    0.0957   22.3837 H   0  0  0  0  0  0  0  0  0  0  0  0
    8.4791   -2.0865   20.1036 H   0  0  0  0  0  0  0  0  0  0  0  0
    6.8326   -2.5996   20.5105 H   0  0  0  0  0  0  0  0  0  0  0  0
    9.3609   -2.3983   22.2000 H   0  0  0  0  0  0  0  0  0  0  0  0
    8.2222   -3.7425   22.0096 H   0  0  0  0  0  0  0  0  0  0  0  0
    6.4217   -2.8369   25.2516 N   0  0  0  0  0  0  0  0  0  0  0  0
    9.1172   -4.3388   23.9481 H   0  0  0  0  0  0  0  0  0  0  0  0
    8.6591   -5.8176   25.9760 H   0  0  0  0  0  0  0  0  0  0  0  0
    4.7937   -4.2476   28.2847 C   0  0  0  0  0  0  0  0  0  0  0  0
    5.4413   -5.0925   28.5195 H   0  0  0  0  0  0  0  0  0  0  0  0
    4.3291   -1.7139   26.0504 H   0  0  0  0  0  0  0  0  0  0  0  0
    2.4055   -1.2649   27.5602 H   0  0  0  0  0  0  0  0  0  0  0  0
    2.0295   -2.7848   29.5762 H   0  0  0  0  0  0  0  0  0  0  0  0
    4.1589   -5.4382   30.2608 H   0  0  0  0  0  0  0  0  0  0  0  0
  1  2  1  0
  2  3  2  0
  3  4  1  0
  4  5  2  0
  5  6  1  0
  6  7  1  0
  7  8  2  0
  8  9  1  0
  9 10  2  0
 10 11  1  0
 11 12  1  0
 12 13  1  0
 13 14  1  0
 14 15  1  0
 15 16  1  0
 16 17  2  0
 17 18  1  0
 18 19  2  0
 19 20  1  0
 20 21  2  0
 21 22  1  0
 19 23  1  0
 18 24  1  0
 17 25  1  0
 15 26  1  0
 26 27  1  0
 27 28  1  0
 27 29  1  0
 26 30  1  0
 26 31  1  0
 14 32  1  0
 14 33  1  0
 13 34  1  0
 13 35  1  0
 11 36  2  0
 10 37  1  0
  9 38  1  0
  6 39  2  0
 39 40  1  0
  5 41  1  0
  4 42  1  0
  3 43  1  0
  1 44  1  0
 39  2  1  0
 36  7  1  0
 27 12  1  0
 21 16  1  0
M  END
>  <cnnaffinity>  (1) 
-5.35126

>  <filename>  (1) 
[H]Oc1c([H])c([H])c([H])c(-c2nc([H])c([H])c(N3C([H])([H])C([H])([H])N(c4c([H])nc([H])c([H])c4[H])C([H])([H])C3([H])[H])n2)c1[H]

$$$$
