
     RDKit          3D

 28 30  0  0  0  0  0  0  0  0999 V2000
    6.2199   -1.2678   22.5812 H   0  0  0  0  0  0  0  0  0  0  0  0
    6.3889   -1.6773   21.7137 O   0  0  0  0  0  0  0  0  0  0  0  0
    7.2595   -0.8022   21.0677 N   0  0  0  0  0  0  0  0  0  0  0  0
    6.7005   -0.1067   19.9842 C   0  0  0  0  0  0  0  0  0  0  0  0
    7.3013   -0.0333   18.7079 C   0  0  0  0  0  0  0  0  0  0  0  0
    8.2267   -0.5684   18.4956 H   0  0  0  0  0  0  0  0  0  0  0  0
    6.7706    0.6443   17.6755 N   0  0  0  0  0  0  0  0  0  0  0  0
    5.6127    1.2904   17.8815 C   0  0  0  0  0  0  0  0  0  0  0  0
    5.2054    1.8234   17.0252 H   0  0  0  0  0  0  0  0  0  0  0  0
    4.9314    1.2718   19.1054 C   0  0  0  0  0  0  0  0  0  0  0  0
    3.9950    1.8073   19.2177 H   0  0  0  0  0  0  0  0  0  0  0  0
    5.4710    0.5512   20.1674 C   0  0  0  0  0  0  0  0  0  0  0  0
    4.9769    0.4769   21.1356 H   0  0  0  0  0  0  0  0  0  0  0  0
    8.6187   -0.9949   21.3158 C   0  0  0  0  0  0  0  0  0  0  0  0
    9.1923   -2.1762   21.7054 C   0  0  0  0  0  0  0  0  0  0  0  0
    8.7146   -3.1434   21.7955 H   0  0  0  0  0  0  0  0  0  0  0  0
   10.5033   -1.9586   22.0285 N   0  0  0  0  0  0  0  0  0  0  0  0
   11.1809   -2.6658   22.2565 H   0  0  0  0  0  0  0  0  0  0  0  0
   10.7986   -0.6252   21.8744 C   0  0  0  0  0  0  0  0  0  0  0  0
   11.9829    0.0623   22.1825 C   0  0  0  0  0  0  0  0  0  0  0  0
   12.8007   -0.4505   22.6730 H   0  0  0  0  0  0  0  0  0  0  0  0
   12.0502    1.4054   21.8408 C   0  0  0  0  0  0  0  0  0  0  0  0
   12.9592    1.9571   22.0547 H   0  0  0  0  0  0  0  0  0  0  0  0
   10.9561    2.0676   21.2433 C   0  0  0  0  0  0  0  0  0  0  0  0
   11.0778    3.1198   21.0113 H   0  0  0  0  0  0  0  0  0  0  0  0
    9.7569    1.3937   21.0153 C   0  0  0  0  0  0  0  0  0  0  0  0
    8.9083    1.9051   20.5653 H   0  0  0  0  0  0  0  0  0  0  0  0
    9.6572    0.0271   21.3585 C   0  0  0  0  0  0  0  0  0  0  0  0
  1  2  1  0
  2  3  1  0
  3  4  1  0
  4  5  2  0
  5  6  1  0
  5  7  1  0
  7  8  2  0
  8  9  1  0
  8 10  1  0
 10 11  1  0
 10 12  2  0
 12 13  1  0
  3 14  1  0
 14 15  2  0
 15 16  1  0
 15 17  1  0
 17 18  1  0
 17 19  1  0
 19 20  2  0
 20 21  1  0
 20 22  1  0
 22 23  1  0
 22 24  2  0
 24 25  1  0
 24 26  1  0
 26 27  1  0
 26 28  2  0
 12  4  1  0
 28 14  1  0
 28 19  1  0
M  END
>  <cnnaffinity>  (1) 
-5.27375

>  <filename>  (1) 
[H]ON(c1c([H])nc([H])c([H])c1[H])c1c([H])n([H])c2c([H])c([H])c([H])c([H])c12

$$$$
