
     RDKit          3D

 37 38  0  0  0  0  0  0  0  0999 V2000
   14.1830   -0.5179   23.9078 H   0  0  0  0  0  0  0  0  0  0  0  0
   14.6094   -0.1027   23.1370 O   0  0  0  0  0  0  0  0  0  0  0  0
   13.6085    0.5800   22.4445 N   0  0  0  0  0  0  0  0  0  0  0  0
   13.8279    0.5556   21.4589 H   0  0  0  0  0  0  0  0  0  0  0  0
   13.1155    1.7938   22.9135 C   0  0  0  0  0  0  0  0  0  0  0  0
   13.2165    2.1578   24.0622 O   0  0  0  0  0  0  0  0  0  0  0  0
   12.3013    2.5736   21.8978 C   0  0  0  0  0  0  0  0  0  0  0  0
   12.6047    3.6194   22.0129 H   0  0  0  0  0  0  0  0  0  0  0  0
   12.5228    2.2789   20.8682 H   0  0  0  0  0  0  0  0  0  0  0  0
   10.7755    2.4275   22.1306 C   0  0  0  0  0  0  0  0  0  0  0  0
   10.5088    2.8960   23.0870 H   0  0  0  0  0  0  0  0  0  0  0  0
   10.2693    2.9996   21.3459 H   0  0  0  0  0  0  0  0  0  0  0  0
   10.3171    0.9623   22.0801 C   0  0  0  0  0  0  0  0  0  0  0  0
   11.0198    0.4120   21.4379 H   0  0  0  0  0  0  0  0  0  0  0  0
   10.3872    0.5136   23.0807 H   0  0  0  0  0  0  0  0  0  0  0  0
    8.9153    0.7256   21.5199 C   0  0  0  0  0  0  0  0  0  0  0  0
    8.7765    1.2914   20.5867 H   0  0  0  0  0  0  0  0  0  0  0  0
    8.1372    1.0741   22.2108 H   0  0  0  0  0  0  0  0  0  0  0  0
    8.6994   -0.7603   21.1808 C   0  0  1  0  0  0  0  0  0  0  0  0
    9.4240   -1.0601   20.4110 H   0  0  0  0  0  0  0  0  0  0  0  0
    8.8563   -1.7578   22.3405 C   0  0  0  0  0  0  0  0  0  0  0  0
    9.8516   -2.1154   22.9181 O   0  0  0  0  0  0  0  0  0  0  0  0
    7.6106   -2.2506   22.5802 N   0  0  0  0  0  0  0  0  0  0  0  0
    7.4329   -3.0137   23.2039 H   0  0  0  0  0  0  0  0  0  0  0  0
    6.6947   -1.9238   21.6065 C   0  0  0  0  0  0  0  0  0  0  0  0
    5.5925   -2.4034   21.5349 O   0  0  0  0  0  0  0  0  0  0  0  0
    7.3316   -1.0397   20.7444 N   0  0  0  0  0  0  0  0  0  0  0  0
    6.6713   -0.2593   19.7595 C   0  0  0  0  0  0  0  0  0  0  0  0
    7.2231   -0.0509   18.4762 C   0  0  0  0  0  0  0  0  0  0  0  0
    8.1730   -0.5125   18.2103 H   0  0  0  0  0  0  0  0  0  0  0  0
    6.6433    0.6962   17.5278 N   0  0  0  0  0  0  0  0  0  0  0  0
    5.4933    1.3156   17.8400 C   0  0  0  0  0  0  0  0  0  0  0  0
    5.0490    1.9296   17.0591 H   0  0  0  0  0  0  0  0  0  0  0  0
    4.8782    1.1984   19.0921 C   0  0  0  0  0  0  0  0  0  0  0  0
    3.9644    1.7462   19.2969 H   0  0  0  0  0  0  0  0  0  0  0  0
    5.4694    0.3909   20.0692 C   0  0  0  0  0  0  0  0  0  0  0  0
    5.0375    0.2595   21.0614 H   0  0  0  0  0  0  0  0  0  0  0  0
  1  2  1  0
  2  3  1  0
  3  4  1  0
  3  5  1  0
  5  6  2  0
  5  7  1  0
  7  8  1  0
  7  9  1  0
  7 10  1  0
 10 11  1  0
 10 12  1  0
 10 13  1  0
 13 14  1  0
 13 15  1  0
 13 16  1  0
 16 17  1  0
 16 18  1  0
 16 19  1  0
 19 20  1  6
 19 21  1  0
 21 22  2  0
 21 23  1  0
 23 24  1  0
 23 25  1  0
 25 26  2  0
 25 27  1  0
 27 28  1  0
 28 29  2  0
 29 30  1  0
 29 31  1  0
 31 32  2  0
 32 33  1  0
 32 34  1  0
 34 35  1  0
 34 36  2  0
 36 37  1  0
 27 19  1  0
 36 28  1  0
M  END
>  <cnnaffinity>  (1) 
-5.51435

>  <filename>  (1) 
[H]ON([H])C(=O)C([H])([H])C([H])([H])C([H])([H])C([H])([H])[C@@]1([H])C(=O)N([H])C(=O)N1c1c([H])nc([H])c([H])c1[H]

$$$$
