
     RDKit          3D

 27 29  0  0  0  0  0  0  0  0999 V2000
    9.1664   -0.0008   21.0588 H   0  0  0  0  0  0  0  0  0  0  0  0
    8.6944   -0.7936   20.7527 O   0  0  0  0  0  0  0  0  0  0  0  0
    7.3394   -0.5430   21.0078 N   0  0  0  0  0  0  0  0  0  0  0  0
    6.6309    0.0188   19.9148 C   0  0  0  0  0  0  0  0  0  0  0  0
    7.1731    0.0503   18.6089 C   0  0  0  0  0  0  0  0  0  0  0  0
    8.1271   -0.4360   18.4128 H   0  0  0  0  0  0  0  0  0  0  0  0
    6.5790    0.6604   17.5764 N   0  0  0  0  0  0  0  0  0  0  0  0
    5.4146    1.2915   17.8107 C   0  0  0  0  0  0  0  0  0  0  0  0
    4.9710    1.8007   16.9590 H   0  0  0  0  0  0  0  0  0  0  0  0
    4.7856    1.3122   19.0610 C   0  0  0  0  0  0  0  0  0  0  0  0
    3.8559    1.8594   19.1830 H   0  0  0  0  0  0  0  0  0  0  0  0
    5.3982    0.6567   20.1352 C   0  0  0  0  0  0  0  0  0  0  0  0
    4.9715    0.6711   21.1399 H   0  0  0  0  0  0  0  0  0  0  0  0
    6.7685   -1.4809   21.9024 C   0  0  0  0  0  0  0  0  0  0  0  0
    5.8357   -2.4242   21.6063 C   0  0  0  0  0  0  0  0  0  0  0  0
    5.4130   -2.6589   20.6379 H   0  0  0  0  0  0  0  0  0  0  0  0
    5.3419   -3.3662   22.9737 S   0  0  0  0  0  0  0  0  0  0  0  0
    6.3681   -2.4405   24.0469 C   0  0  0  0  0  0  0  0  0  0  0  0
    6.4789   -2.5303   25.4550 C   0  0  0  0  0  0  0  0  0  0  0  0
    5.8203   -3.1670   26.0375 H   0  0  0  0  0  0  0  0  0  0  0  0
    7.4354   -1.7508   26.1008 C   0  0  0  0  0  0  0  0  0  0  0  0
    7.5556   -1.8195   27.1854 H   0  0  0  0  0  0  0  0  0  0  0  0
    8.2484   -0.8603   25.3683 C   0  0  0  0  0  0  0  0  0  0  0  0
    9.0147   -0.2846   25.8797 H   0  0  0  0  0  0  0  0  0  0  0  0
    8.0891   -0.7149   23.9940 C   0  0  0  0  0  0  0  0  0  0  0  0
    8.6855    0.0063   23.4354 H   0  0  0  0  0  0  0  0  0  0  0  0
    7.1330   -1.5026   23.3189 C   0  0  0  0  0  0  0  0  0  0  0  0
  1  2  1  0
  2  3  1  0
  3  4  1  0
  4  5  2  0
  5  6  1  0
  5  7  1  0
  7  8  2  0
  8  9  1  0
  8 10  1  0
 10 11  1  0
 10 12  2  0
 12 13  1  0
  3 14  1  0
 14 15  2  0
 15 16  1  0
 15 17  1  0
 17 18  1  0
 18 19  2  0
 19 20  1  0
 19 21  1  0
 21 22  1  0
 21 23  2  0
 23 24  1  0
 23 25  1  0
 25 26  1  0
 25 27  2  0
 12  4  1  0
 27 14  1  0
 27 18  1  0
M  END
>  <cnnaffinity>  (1) 
-4.93882

>  <filename>  (1) 
[H]ON(c1c([H])nc([H])c([H])c1[H])c1c([H])sc2c([H])c([H])c([H])c([H])c12

$$$$
