
     RDKit          3D

 39 40  0  0  0  0  0  0  0  0999 V2000
    7.7295    7.0013   22.3041 H   0  0  0  0  0  0  0  0  0  0  0  0
    8.3519    6.5425   21.7106 O   0  0  0  0  0  0  0  0  0  0  0  0
    8.4649    5.2232   22.1744 N   0  0  0  0  0  0  0  0  0  0  0  0
    8.1074    4.5872   21.4712 H   0  0  0  0  0  0  0  0  0  0  0  0
    9.6728    4.7960   22.7337 C   0  0  0  0  0  0  0  0  0  0  0  0
   10.3796    5.5022   23.4155 O   0  0  0  0  0  0  0  0  0  0  0  0
    9.9462    3.3062   22.5319 C   0  0  0  0  0  0  0  0  0  0  0  0
    9.5182    2.9400   21.5945 H   0  0  0  0  0  0  0  0  0  0  0  0
   11.0307    3.2053   22.4471 H   0  0  0  0  0  0  0  0  0  0  0  0
    9.4470    2.4437   23.6995 C   0  0  0  0  0  0  0  0  0  0  0  0
    8.3549    2.4961   23.7697 H   0  0  0  0  0  0  0  0  0  0  0  0
    9.8250    2.8716   24.6360 H   0  0  0  0  0  0  0  0  0  0  0  0
    9.8773    0.9686   23.6385 C   0  0  0  0  0  0  0  0  0  0  0  0
   10.9751    0.9105   23.7010 H   0  0  0  0  0  0  0  0  0  0  0  0
    9.4884    0.4749   24.5408 H   0  0  0  0  0  0  0  0  0  0  0  0
    9.4236    0.1550   22.4081 C   0  0  0  0  0  0  0  0  0  0  0  0
    9.9746    0.4699   21.5082 H   0  0  0  0  0  0  0  0  0  0  0  0
    9.7187   -0.8914   22.5728 H   0  0  0  0  0  0  0  0  0  0  0  0
    7.9125    0.2244   22.0865 C   0  0  2  0  0  0  0  0  0  0  0  0
    7.6783    1.2723   21.8538 H   0  0  0  0  0  0  0  0  0  0  0  0
    7.0382   -0.1564   23.2699 C   0  0  0  0  0  0  0  0  0  0  0  0
    6.7732    0.4857   24.2676 O   0  0  0  0  0  0  0  0  0  0  0  0
    6.5473   -1.4061   23.0513 N   0  0  0  0  0  0  0  0  0  0  0  0
    5.7611   -1.6014   23.6555 H   0  0  0  0  0  0  0  0  0  0  0  0
    6.6273   -1.8518   21.6730 C   0  0  0  0  0  0  0  0  0  0  0  0
    5.6253   -1.9675   21.2329 H   0  0  0  0  0  0  0  0  0  0  0  0
    7.1114   -2.8357   21.6061 H   0  0  0  0  0  0  0  0  0  0  0  0
    7.4554   -0.7436   20.9507 C   0  0  1  0  0  0  0  0  0  0  0  0
    8.3227   -1.2266   20.4757 H   0  0  0  0  0  0  0  0  0  0  0  0
    6.6799   -0.0176   19.8622 C   0  0  0  0  0  0  0  0  0  0  0  0
    7.1795    0.0560   18.5498 C   0  0  0  0  0  0  0  0  0  0  0  0
    8.1219   -0.4352   18.3076 H   0  0  0  0  0  0  0  0  0  0  0  0
    6.5767    0.6919   17.5387 N   0  0  0  0  0  0  0  0  0  0  0  0
    5.4194    1.3118   17.8088 C   0  0  0  0  0  0  0  0  0  0  0  0
    4.9557    1.8355   16.9755 H   0  0  0  0  0  0  0  0  0  0  0  0
    4.8211    1.3032   19.0726 C   0  0  0  0  0  0  0  0  0  0  0  0
    3.8873    1.8314   19.2227 H   0  0  0  0  0  0  0  0  0  0  0  0
    5.4605    0.6301   20.1173 C   0  0  0  0  0  0  0  0  0  0  0  0
    5.0199    0.6141   21.1168 H   0  0  0  0  0  0  0  0  0  0  0  0
  1  2  1  0
  2  3  1  0
  3  4  1  0
  3  5  1  0
  5  6  2  0
  5  7  1  0
  7  8  1  0
  7  9  1  0
  7 10  1  0
 10 11  1  0
 10 12  1  0
 10 13  1  0
 13 14  1  0
 13 15  1  0
 13 16  1  0
 16 17  1  0
 16 18  1  0
 16 19  1  0
 19 20  1  6
 19 21  1  0
 21 22  2  0
 21 23  1  0
 23 24  1  0
 23 25  1  0
 25 26  1  0
 25 27  1  0
 25 28  1  0
 28 29  1  6
 28 30  1  0
 30 31  2  0
 31 32  1  0
 31 33  1  0
 33 34  2  0
 34 35  1  0
 34 36  1  0
 36 37  1  0
 36 38  2  0
 38 39  1  0
 28 19  1  0
 38 30  1  0
M  END
>  <cnnaffinity>  (1) 
-5.18608

>  <filename>  (1) 
[H]ON([H])C(=O)C([H])([H])C([H])([H])C([H])([H])C([H])([H])[C@]1([H])C(=O)N([H])C([H])([H])[C@@]1([H])c1c([H])nc([H])c([H])c1[H]

$$$$
