
     RDKit          3D

 34 37  0  0  0  0  0  0  0  0999 V2000
    8.0463    2.5434   27.7971 O   0  0  0  0  0  0  0  0  0  0  0  0
    8.2629    1.4629   27.0460 C   0  0  0  0  0  0  0  0  0  0  0  0
    8.2802    0.1895   27.5453 C   0  0  0  0  0  0  0  0  0  0  0  0
    8.3475   -0.8751   26.6164 C   0  0  0  0  0  0  0  0  0  0  0  0
    8.3329   -2.2428   26.9966 C   0  0  0  0  0  0  0  0  0  0  0  0
    8.3116   -3.2506   26.0613 C   0  0  0  0  0  0  0  0  0  0  0  0
    8.2810   -2.9243   24.6920 C   0  0  0  0  0  0  0  0  0  0  0  0
    8.2864   -1.6102   24.2615 C   0  0  0  0  0  0  0  0  0  0  0  0
    8.1141   -1.3316   22.8367 C   0  0  0  0  0  0  0  0  0  0  0  0
    7.2243   -0.4805   22.2163 C   0  0  0  0  0  0  0  0  0  0  0  0
    7.3522   -0.6530   20.8771 N   0  0  0  0  0  0  0  0  0  0  0  0
    6.6357    0.0072   19.8523 C   0  0  0  0  0  0  0  0  0  0  0  0
    5.4096    0.6446   20.0893 C   0  0  0  0  0  0  0  0  0  0  0  0
    4.8062    1.3142   19.0219 C   0  0  0  0  0  0  0  0  0  0  0  0
    5.4349    1.3132   17.7726 C   0  0  0  0  0  0  0  0  0  0  0  0
    6.5956    0.6785   17.5377 N   0  0  0  0  0  0  0  0  0  0  0  0
    7.1767    0.0401   18.5555 C   0  0  0  0  0  0  0  0  0  0  0  0
    8.1128   -0.4705   18.3489 H   0  0  0  0  0  0  0  0  0  0  0  0
    4.9923    1.8308   16.9257 H   0  0  0  0  0  0  0  0  0  0  0  0
    3.8709    1.8486   19.1494 H   0  0  0  0  0  0  0  0  0  0  0  0
    4.9322    0.6185   21.0697 H   0  0  0  0  0  0  0  0  0  0  0  0
    8.3026   -1.5652   20.5834 N   0  0  0  0  0  0  0  0  0  0  0  0
    8.7454   -1.9911   21.7495 C   0  0  0  0  0  0  0  0  0  0  0  0
    9.5240   -2.7440   21.7881 H   0  0  0  0  0  0  0  0  0  0  0  0
    6.5427    0.2445   22.6414 H   0  0  0  0  0  0  0  0  0  0  0  0
    8.3904   -0.5515   25.2238 C   0  0  0  0  0  0  0  0  0  0  0  0
    8.5243    0.8258   24.8868 C   0  0  0  0  0  0  0  0  0  0  0  0
    8.4438    1.8139   25.7604 N   0  0  0  0  0  0  0  0  0  0  0  0
    8.6633    1.1028   23.8439 H   0  0  0  0  0  0  0  0  0  0  0  0
    8.2311   -3.7125   23.9492 H   0  0  0  0  0  0  0  0  0  0  0  0
    8.3195   -4.2931   26.3673 H   0  0  0  0  0  0  0  0  0  0  0  0
    8.3264   -2.4919   28.0378 H   0  0  0  0  0  0  0  0  0  0  0  0
    8.2429    0.0532   28.6158 H   0  0  0  0  0  0  0  0  0  0  0  0
    8.0866    3.1722   27.0557 H   0  0  0  0  0  0  0  0  0  0  0  0
  1  2  1  0
  2  3  2  0
  3  4  1  0
  4  5  2  0
  5  6  1  0
  6  7  2  0
  7  8  1  0
  8  9  1  0
  9 10  2  0
 10 11  1  0
 11 12  1  0
 12 13  2  0
 13 14  1  0
 14 15  2  0
 15 16  1  0
 16 17  2  0
 17 18  1  0
 15 19  1  0
 14 20  1  0
 13 21  1  0
 11 22  1  0
 22 23  2  0
 23 24  1  0
 10 25  1  0
  8 26  2  0
 26 27  1  0
 27 28  2  0
 27 29  1  0
  7 30  1  0
  6 31  1  0
  5 32  1  0
  3 33  1  0
  1 34  1  0
 28  2  1  0
 26  4  1  0
 23  9  1  0
 17 12  1  0
M  END
>  <cnnaffinity>  (1) 
-5.46262

>  <filename>  (1) 
[H]Oc1nc([H])c2c(-c3c([H])nn(-c4c([H])nc([H])c([H])c4[H])c3[H])c([H])c([H])c([H])c2c1[H]

$$$$
