
     RDKit          3D

 36 38  0  0  0  0  0  0  0  0999 V2000
    6.4924    3.2429   22.9922 H   0  0  0  0  0  0  0  0  0  0  0  0
    7.1779    2.7289   22.5309 O   0  0  0  0  0  0  0  0  0  0  0  0
    8.2356    3.0436   23.2880 C   0  0  0  0  0  0  0  0  0  0  0  0
    8.0849    3.7952   24.2309 O   0  0  0  0  0  0  0  0  0  0  0  0
    9.5306    2.4044   22.9437 C   0  0  0  0  0  0  0  0  0  0  0  0
    9.9811    1.5581   21.9489 C   0  0  0  0  0  0  0  0  0  0  0  0
    9.0349    0.9041   20.9400 C   0  0  0  0  0  0  0  0  0  0  0  0
    8.2851    1.6442   20.6722 H   0  0  0  0  0  0  0  0  0  0  0  0
    9.5465    0.6409   20.0076 H   0  0  0  0  0  0  0  0  0  0  0  0
    8.3916   -0.3448   21.4934 C   0  0  0  0  0  0  0  0  0  0  0  0
    9.0210   -1.1080   22.4801 C   0  0  0  0  0  0  0  0  0  0  0  0
   10.0079   -0.8166   22.8297 H   0  0  0  0  0  0  0  0  0  0  0  0
    8.4940   -2.1959   23.0579 N   0  0  0  0  0  0  0  0  0  0  0  0
    7.2705   -2.5649   22.6731 C   0  0  0  0  0  0  0  0  0  0  0  0
    6.8499   -3.4290   23.1821 H   0  0  0  0  0  0  0  0  0  0  0  0
    6.5518   -1.9063   21.6737 C   0  0  0  0  0  0  0  0  0  0  0  0
    5.5623   -2.2433   21.3880 H   0  0  0  0  0  0  0  0  0  0  0  0
    7.1381   -0.8161   21.0298 C   0  0  0  0  0  0  0  0  0  0  0  0
    6.4547   -0.1674   19.8780 C   0  0  0  0  0  0  0  0  0  0  0  0
    7.0526   -0.1571   18.6043 C   0  0  0  0  0  0  0  0  0  0  0  0
    7.9652   -0.7314   18.4393 H   0  0  0  0  0  0  0  0  0  0  0  0
    6.5776    0.5185   17.5476 N   0  0  0  0  0  0  0  0  0  0  0  0
    5.4506    1.2232   17.7369 C   0  0  0  0  0  0  0  0  0  0  0  0
    5.0932    1.7908   16.8803 H   0  0  0  0  0  0  0  0  0  0  0  0
    4.7452    1.2463   18.9473 C   0  0  0  0  0  0  0  0  0  0  0  0
    3.8348    1.8306   19.0273 H   0  0  0  0  0  0  0  0  0  0  0  0
    5.2494    0.5268   20.0345 C   0  0  0  0  0  0  0  0  0  0  0  0
    4.7469    0.5236   21.0050 H   0  0  0  0  0  0  0  0  0  0  0  0
   11.4696    1.7262   21.7381 C   0  0  0  0  0  0  0  0  0  0  0  0
   11.5606    1.4103   21.5379 C   0  0  0  0  0  0  0  0  0  0  0  0
   12.1213    2.2085   20.8358 H   0  0  0  0  0  0  0  0  0  0  0  0
   12.4703    1.3054   22.2553 H   0  0  0  0  0  0  0  0  0  0  0  0
   11.6616    0.1417   21.0599 H   0  0  0  0  0  0  0  0  0  0  0  0
   11.5010    1.8686   24.0967 N   0  0  0  0  0  0  0  0  0  0  0  0
   10.4542    2.4973   23.9596 N   0  0  0  0  0  0  0  0  0  0  0  0
   10.1370    3.1220   24.7716 H   0  0  0  0  0  0  0  0  0  0  0  0
  1  2  1  0
  2  3  1  0
  3  4  2  0
  3  5  1  0
  5  6  2  0
  6  7  1  0
  7  8  1  0
  7  9  1  0
  7 10  1  0
 10 11  2  0
 11 12  1  0
 11 13  1  0
 13 14  2  0
 14 15  1  0
 14 16  1  0
 16 17  1  0
 16 18  2  0
 18 19  1  0
 19 20  2  0
 20 21  1  0
 20 22  1  0
 22 23  2  0
 23 24  1  0
 23 25  1  0
 25 26  1  0
 25 27  2  0
 27 28  1  0
  6 29  1  0
 29 30  1  0
 30 31  1  0
 30 32  1  0
 30 33  1  0
 29 34  2  0
 34 35  1  0
 35 36  1  0
 35  5  1  0
 18 10  1  0
 27 19  1  0
M  END
>  <cnnaffinity>  (1) 
-5.01804

>  <filename>  (1) 
[H]OC(=O)c1c(C([H])([H])c2c([H])nc([H])c([H])c2-c2c([H])nc([H])c([H])c2[H])c(C([H])([H])[H])nn1[H]

$$$$
