
     RDKit          3D

 28 29  0  0  0  0  0  0  0  0999 V2000
    8.8972    2.0032   23.8491 H   0  0  0  0  0  0  0  0  0  0  0  0
    9.1631    1.0454   23.7867 O   0  0  0  0  0  0  0  0  0  0  0  0
    8.7198    1.1819   22.3288 P   0  0  0  0  0  0  0  0  0  0  0  0
    7.2788    1.2540   22.0211 O   0  0  0  0  0  0  0  0  0  0  0  0
    9.2717    2.4180   23.0696 O   0  0  0  0  0  0  0  0  0  0  0  0
    9.7161    1.8230   23.7271 H   0  0  0  0  0  0  0  0  0  0  0  0
    9.5187    0.2303   20.9939 C   0  0  0  0  0  0  0  0  0  0  0  0
   10.8647   -0.0090   21.1394 F   0  0  0  0  0  0  0  0  0  0  0  0
    9.2588    0.6654   19.7247 F   0  0  0  0  0  0  0  0  0  0  0  0
    8.6560   -0.8799   21.4293 C   0  0  0  0  0  0  0  0  0  0  0  0
    8.9034   -1.6025   22.4829 N   0  0  0  0  0  0  0  0  0  0  0  0
    7.7715   -2.5224   22.6870 C   0  0  0  0  0  0  0  0  0  0  0  0
    8.0903   -3.5436   22.4638 H   0  0  0  0  0  0  0  0  0  0  0  0
    7.4175   -2.4860   23.7211 H   0  0  0  0  0  0  0  0  0  0  0  0
    6.6844   -2.0910   21.7090 C   0  0  0  0  0  0  0  0  0  0  0  0
    6.3745   -2.9227   21.0680 H   0  0  0  0  0  0  0  0  0  0  0  0
    5.8200   -1.6785   22.2263 H   0  0  0  0  0  0  0  0  0  0  0  0
    7.3720   -1.0666   20.9368 N   0  0  0  0  0  0  0  0  0  0  0  0
    6.7449   -0.2919   19.9297 C   0  0  0  0  0  0  0  0  0  0  0  0
    7.2673   -0.1913   18.6164 C   0  0  0  0  0  0  0  0  0  0  0  0
    8.1729   -0.7423   18.3875 H   0  0  0  0  0  0  0  0  0  0  0  0
    6.7054    0.5352   17.6242 N   0  0  0  0  0  0  0  0  0  0  0  0
    5.5777    1.2059   17.9067 C   0  0  0  0  0  0  0  0  0  0  0  0
    5.1253    1.7995   17.1178 H   0  0  0  0  0  0  0  0  0  0  0  0
    4.9804    1.1714   19.1753 C   0  0  0  0  0  0  0  0  0  0  0  0
    4.0843    1.7584   19.3476 H   0  0  0  0  0  0  0  0  0  0  0  0
    5.5655    0.4149   20.2011 C   0  0  0  0  0  0  0  0  0  0  0  0
    5.1354    0.4049   21.2026 H   0  0  0  0  0  0  0  0  0  0  0  0
  1  2  1  0
  2  3  1  0
  3  4  2  0
  3  5  1  0
  5  6  1  0
  3  7  1  0
  7  8  1  0
  7  9  1  0
  7 10  1  0
 10 11  2  0
 11 12  1  0
 12 13  1  0
 12 14  1  0
 12 15  1  0
 15 16  1  0
 15 17  1  0
 15 18  1  0
 18 19  1  0
 19 20  2  0
 20 21  1  0
 20 22  1  0
 22 23  2  0
 23 24  1  0
 23 25  1  0
 25 26  1  0
 25 27  2  0
 27 28  1  0
 18 10  1  0
 27 19  1  0
M  END
>  <cnnaffinity>  (1) 
-4.09289

>  <filename>  (1) 
[H]OP(=O)(O[H])C(F)(F)C1=NC([H])([H])C([H])([H])N1c1c([H])nc([H])c([H])c1[H]

$$$$
