
     RDKit          3D

 46 49  0  0  0  0  0  0  0  0999 V2000
   12.3672   -3.3658   21.7858 H   0  0  0  0  0  0  0  0  0  0  0  0
   12.0180   -2.5312   22.1800 O   0  0  0  0  0  0  0  0  0  0  0  0
   13.1391   -1.8007   22.0772 C   0  0  0  0  0  0  0  0  0  0  0  0
   14.1239   -2.3174   21.5944 O   0  0  0  0  0  0  0  0  0  0  0  0
   13.0587   -0.4079   22.5629 C   0  0  0  0  0  0  0  0  0  0  0  0
   12.0283    0.4639   22.9399 C   0  0  0  0  0  0  0  0  0  0  0  0
   10.5720    0.2022   23.2434 C   0  0  0  0  0  0  0  0  0  0  0  0
   10.2993    0.7208   24.1757 H   0  0  0  0  0  0  0  0  0  0  0  0
   10.4421   -0.8644   23.4479 H   0  0  0  0  0  0  0  0  0  0  0  0
    9.6029    0.6718   22.1242 C   0  0  2  0  0  0  0  0  0  0  0  0
    9.9540    1.6661   21.8142 H   0  0  0  0  0  0  0  0  0  0  0  0
    8.1292    0.8662   22.5985 C   0  0  0  0  0  0  0  0  0  0  0  0
    7.6695    1.6916   22.0369 H   0  0  0  0  0  0  0  0  0  0  0  0
    8.1053    1.1533   23.6584 H   0  0  0  0  0  0  0  0  0  0  0  0
    7.2148   -0.3671   22.3874 C   0  0  1  0  0  0  0  0  0  0  0  0
    6.1940   -0.1309   22.7048 H   0  0  0  0  0  0  0  0  0  0  0  0
    7.2534   -0.7854   20.9739 N   0  0  0  0  0  0  0  0  0  0  0  0
    6.6550   -0.0502   19.9371 C   0  0  0  0  0  0  0  0  0  0  0  0
    7.1688   -0.0079   18.6065 C   0  0  0  0  0  0  0  0  0  0  0  0
    8.0968   -0.5239   18.3653 H   0  0  0  0  0  0  0  0  0  0  0  0
    6.5943    0.6479   17.5883 N   0  0  0  0  0  0  0  0  0  0  0  0
    5.4553    1.3102   17.8357 C   0  0  0  0  0  0  0  0  0  0  0  0
    5.0141    1.8363   16.9927 H   0  0  0  0  0  0  0  0  0  0  0  0
    4.8436    1.3199   19.0914 C   0  0  0  0  0  0  0  0  0  0  0  0
    3.9171    1.8662   19.2312 H   0  0  0  0  0  0  0  0  0  0  0  0
    5.4415    0.6349   20.1514 C   0  0  0  0  0  0  0  0  0  0  0  0
    4.9767    0.6137   21.1355 H   0  0  0  0  0  0  0  0  0  0  0  0
    8.5984   -1.3581   20.8497 C   0  0  2  0  0  0  0  0  0  0  0  0
    8.6971   -1.8793   19.9030 H   0  0  0  0  0  0  0  0  0  0  0  0
    8.6061   -2.3405   22.0328 C   0  0  0  0  0  0  0  0  0  0  0  0
    8.1317   -3.2725   21.7121 H   0  0  0  0  0  0  0  0  0  0  0  0
    9.6160   -2.5918   22.3674 H   0  0  0  0  0  0  0  0  0  0  0  0
    7.7256   -1.6401   23.0982 C   0  0  0  0  0  0  0  0  0  0  0  0
    8.2629   -1.4068   24.0219 H   0  0  0  0  0  0  0  0  0  0  0  0
    6.8812   -2.2738   23.3812 H   0  0  0  0  0  0  0  0  0  0  0  0
    9.6720   -0.2486   20.8805 C   0  0  0  0  0  0  0  0  0  0  0  0
   10.6594   -0.7161   20.7913 H   0  0  0  0  0  0  0  0  0  0  0  0
    9.5220    0.3534   19.9760 H   0  0  0  0  0  0  0  0  0  0  0  0
   12.6628    1.7342   22.9941 C   0  0  0  0  0  0  0  0  0  0  0  0
   12.0504    3.0858   23.1867 C   0  0  0  0  0  0  0  0  0  0  0  0
   11.3582    3.1159   24.0337 H   0  0  0  0  0  0  0  0  0  0  0  0
   12.8375    3.8237   23.3397 H   0  0  0  0  0  0  0  0  0  0  0  0
   11.4945    3.3927   22.2910 H   0  0  0  0  0  0  0  0  0  0  0  0
   13.9659    1.6270   22.7608 N   0  0  0  0  0  0  0  0  0  0  0  0
   14.1843    0.3444   22.5012 N   0  0  0  0  0  0  0  0  0  0  0  0
   15.0929    0.0504   22.1610 H   0  0  0  0  0  0  0  0  0  0  0  0
  1  2  1  0
  2  3  1  0
  3  4  2  0
  3  5  1  0
  5  6  2  0
  6  7  1  0
  7  8  1  0
  7  9  1  0
  7 10  1  0
 10 11  1  6
 10 12  1  0
 12 13  1  0
 12 14  1  0
 12 15  1  0
 15 16  1  1
 15 17  1  0
 17 18  1  0
 18 19  2  0
 19 20  1  0
 19 21  1  0
 21 22  2  0
 22 23  1  0
 22 24  1  0
 24 25  1  0
 24 26  2  0
 26 27  1  0
 17 28  1  0
 28 29  1  6
 28 30  1  0
 30 31  1  0
 30 32  1  0
 30 33  1  0
 33 34  1  0
 33 35  1  0
 28 36  1  0
 36 37  1  0
 36 38  1  0
  6 39  1  0
 39 40  1  0
 40 41  1  0
 40 42  1  0
 40 43  1  0
 39 44  2  0
 44 45  1  0
 45 46  1  0
 45  5  1  0
 36 10  1  0
 33 15  1  0
 26 18  1  0
M  END
>  <cnnaffinity>  (1) 
-6.43009

>  <filename>  (1) 
[H]OC(=O)c1c(C([H])([H])[C@]2([H])C([H])([H])[C@@]3([H])N(c4c([H])nc([H])c([H])c4[H])[C@]([H])(C([H])([H])C3([H])[H])C2([H])[H])c(C([H])([H])[H])nn1[H]

$$$$
