
     RDKit          3D

 42 45  0  0  0  0  0  0  0  0999 V2000
   11.4875   -0.3279   21.8897 C   0  0  0  0  0  0  0  0  0  0  0  0
   11.1506   -1.5860   22.6871 C   0  0  0  0  0  0  0  0  0  0  0  0
   10.0292   -2.4415   22.0938 C   0  0  0  0  0  0  0  0  0  0  0  0
    8.7552   -1.7546   21.9121 N   0  0  0  0  0  0  0  0  0  0  0  0
    8.4245   -1.3261   20.6754 N   0  0  0  0  0  0  0  0  0  0  0  0
    7.3161   -0.6459   20.8820 C   0  0  0  0  0  0  0  0  0  0  0  0
    6.5957    0.0321   19.8156 C   0  0  0  0  0  0  0  0  0  0  0  0
    5.3865    0.6947   20.0588 C   0  0  0  0  0  0  0  0  0  0  0  0
    4.7808    1.3498   18.9908 C   0  0  0  0  0  0  0  0  0  0  0  0
    5.4093    1.3301   17.7383 C   0  0  0  0  0  0  0  0  0  0  0  0
    6.5683    0.6960   17.5011 N   0  0  0  0  0  0  0  0  0  0  0  0
    7.1436    0.0634   18.5275 C   0  0  0  0  0  0  0  0  0  0  0  0
    8.0867   -0.4392   18.3246 H   0  0  0  0  0  0  0  0  0  0  0  0
    4.9632    1.8413   16.8869 H   0  0  0  0  0  0  0  0  0  0  0  0
    3.8457    1.8839   19.1181 H   0  0  0  0  0  0  0  0  0  0  0  0
    4.9591    0.6999   21.0656 H   0  0  0  0  0  0  0  0  0  0  0  0
    6.9155   -0.5982   22.1744 N   0  0  0  0  0  0  0  0  0  0  0  0
    7.8188   -1.3313   22.7930 C   0  0  0  0  0  0  0  0  0  0  0  0
    7.8603   -1.6814   24.2297 C   0  0  0  0  0  0  0  0  0  0  0  0
    8.0369   -0.6713   25.1664 C   0  0  0  0  0  0  0  0  0  0  0  0
    8.1842   -0.9719   26.5436 C   0  0  0  0  0  0  0  0  0  0  0  0
    8.1027   -2.2814   26.9666 C   0  0  0  0  0  0  0  0  0  0  0  0
    7.8069   -3.3320   26.0651 C   0  0  0  0  0  0  0  0  0  0  0  0
    7.5969   -4.5661   26.6207 N   0  0  0  0  0  0  0  0  0  0  0  0
    7.3277   -5.5378   25.8113 C   0  0  0  0  0  0  0  0  0  0  0  0
    7.0285   -6.7010   26.4067 O   0  0  0  0  0  0  0  0  0  0  0  0
    7.1649   -7.3911   25.7575 H   0  0  0  0  0  0  0  0  0  0  0  0
    7.3065   -5.4398   24.3875 C   0  0  0  0  0  0  0  0  0  0  0  0
    7.4892   -4.2030   23.8187 C   0  0  0  0  0  0  0  0  0  0  0  0
    7.7255   -3.0594   24.6604 C   0  0  0  0  0  0  0  0  0  0  0  0
    7.4588   -4.0818   22.7364 H   0  0  0  0  0  0  0  0  0  0  0  0
    7.1312   -6.3295   23.7922 H   0  0  0  0  0  0  0  0  0  0  0  0
    8.2513   -2.5902   27.9890 H   0  0  0  0  0  0  0  0  0  0  0  0
    8.3494   -0.1641   27.2593 H   0  0  0  0  0  0  0  0  0  0  0  0
    8.0644    0.3728   24.8474 H   0  0  0  0  0  0  0  0  0  0  0  0
   10.2894   -2.7608   21.0860 H   0  0  0  0  0  0  0  0  0  0  0  0
    9.8554   -3.3197   22.7266 H   0  0  0  0  0  0  0  0  0  0  0  0
   12.0390   -2.2328   22.7310 H   0  0  0  0  0  0  0  0  0  0  0  0
   10.8741   -1.3282   23.7173 H   0  0  0  0  0  0  0  0  0  0  0  0
   10.6106    0.3200   21.7718 H   0  0  0  0  0  0  0  0  0  0  0  0
   12.2719    0.2493   22.3943 H   0  0  0  0  0  0  0  0  0  0  0  0
   11.8580   -0.5923   20.8920 H   0  0  0  0  0  0  0  0  0  0  0  0
  1  2  1  0
  2  3  1  0
  3  4  1  0
  4  5  1  0
  5  6  2  0
  6  7  1  0
  7  8  2  0
  8  9  1  0
  9 10  2  0
 10 11  1  0
 11 12  2  0
 12 13  1  0
 10 14  1  0
  9 15  1  0
  8 16  1  0
  6 17  1  0
 17 18  2  0
 18 19  1  0
 19 20  2  0
 20 21  1  0
 21 22  2  0
 22 23  1  0
 23 24  2  0
 24 25  1  0
 25 26  1  0
 26 27  1  0
 25 28  2  0
 28 29  1  0
 29 30  2  0
 29 31  1  0
 28 32  1  0
 22 33  1  0
 21 34  1  0
 20 35  1  0
  3 36  1  0
  3 37  1  0
  2 38  1  0
  2 39  1  0
  1 40  1  0
  1 41  1  0
  1 42  1  0
 18  4  1  0
 30 19  1  0
 12  7  1  0
 30 23  1  0
M  END
>  <cnnaffinity>  (1) 
-6.16376

>  <filename>  (1) 
[H]Oc1nc2c([H])c([H])c([H])c(-c3nc(-c4c([H])nc([H])c([H])c4[H])nn3C([H])([H])C([H])([H])C([H])([H])[H])c2c([H])c1[H]

$$$$
