
     RDKit          3D

 34 36  0  0  0  0  0  0  0  0999 V2000
    9.6363   -0.2189   19.6539 O   0  0  0  0  0  0  0  0  0  0  0  0
    9.3867    0.3246   20.9464 C   0  0  0  0  0  0  0  0  0  0  0  0
    8.3259   -0.4726   21.6623 C   0  0  0  0  0  0  0  0  0  0  0  0
    8.4705   -1.2103   22.7416 N   0  0  0  0  0  0  0  0  0  0  0  0
    7.3016   -1.9093   22.8148 C   0  0  0  0  0  0  0  0  0  0  0  0
    7.0728   -2.9665   23.8334 C   0  0  0  0  0  0  0  0  0  0  0  0
    8.1538   -3.4096   24.6153 C   0  0  0  0  0  0  0  0  0  0  0  0
    7.9696   -4.4036   25.5845 C   0  0  0  0  0  0  0  0  0  0  0  0
    9.1590   -4.9299   26.3597 C   0  0  0  0  0  0  0  0  0  0  0  0
    8.8243   -5.3203   27.6037 F   0  0  0  0  0  0  0  0  0  0  0  0
   10.1273   -4.0080   26.4831 F   0  0  0  0  0  0  0  0  0  0  0  0
    9.7113   -5.9950   25.7449 F   0  0  0  0  0  0  0  0  0  0  0  0
    6.7031   -4.9770   25.7632 C   0  0  0  0  0  0  0  0  0  0  0  0
    5.6325   -4.5541   24.9698 C   0  0  0  0  0  0  0  0  0  0  0  0
    5.8057   -3.5603   24.0035 C   0  0  0  0  0  0  0  0  0  0  0  0
    4.9803   -3.2666   23.3544 H   0  0  0  0  0  0  0  0  0  0  0  0
    4.6615   -5.0222   25.0903 H   0  0  0  0  0  0  0  0  0  0  0  0
    6.5559   -5.7617   26.5029 H   0  0  0  0  0  0  0  0  0  0  0  0
    9.1400   -2.9849   24.4286 H   0  0  0  0  0  0  0  0  0  0  0  0
    6.4396   -1.6101   21.8580 N   0  0  0  0  0  0  0  0  0  0  0  0
    7.0989   -0.6982   21.1069 N   0  0  0  0  0  0  0  0  0  0  0  0
    6.4651   -0.0727   19.9902 C   0  0  0  0  0  0  0  0  0  0  0  0
    5.2630    0.6161   20.1690 C   0  0  0  0  0  0  0  0  0  0  0  0
    4.7358    1.3186   19.0829 C   0  0  0  0  0  0  0  0  0  0  0  0
    5.4106    1.2876   17.8556 C   0  0  0  0  0  0  0  0  0  0  0  0
    6.5360    0.5846   17.6660 N   0  0  0  0  0  0  0  0  0  0  0  0
    7.0318   -0.1000   18.6998 C   0  0  0  0  0  0  0  0  0  0  0  0
    7.9278   -0.6734   18.5030 H   0  0  0  0  0  0  0  0  0  0  0  0
    5.0337    1.8279   16.9906 H   0  0  0  0  0  0  0  0  0  0  0  0
    3.8202    1.8901   19.1744 H   0  0  0  0  0  0  0  0  0  0  0  0
    4.7769    0.5871   21.1460 H   0  0  0  0  0  0  0  0  0  0  0  0
   10.2854    0.3734   21.5776 H   0  0  0  0  0  0  0  0  0  0  0  0
    9.0309    1.3461   20.7817 H   0  0  0  0  0  0  0  0  0  0  0  0
   10.1117   -1.0644   19.7319 H   0  0  0  0  0  0  0  0  0  0  0  0
  1  2  1  0
  2  3  1  0
  3  4  2  0
  4  5  1  0
  5  6  1  0
  6  7  2  0
  7  8  1  0
  8  9  1  0
  9 10  1  0
  9 11  1  0
  9 12  1  0
  8 13  2  0
 13 14  1  0
 14 15  2  0
 15 16  1  0
 14 17  1  0
 13 18  1  0
  7 19  1  0
  5 20  2  0
 20 21  1  0
 21 22  1  0
 22 23  2  0
 23 24  1  0
 24 25  2  0
 25 26  1  0
 26 27  2  0
 27 28  1  0
 25 29  1  0
 24 30  1  0
 23 31  1  0
  2 32  1  0
  2 33  1  0
  1 34  1  0
 21  3  1  0
 27 22  1  0
 15  6  1  0
M  END
>  <cnnaffinity>  (1) 
-5.25723

>  <filename>  (1) 
[H]OC([H])([H])c1nc(-c2c([H])c([H])c([H])c(C(F)(F)F)c2[H])nn1-c1c([H])nc([H])c([H])c1[H]

$$$$
