
     RDKit          3D

 32 34  0  0  0  0  0  0  0  0999 V2000
    5.2136   -4.6401   24.8139 H   0  0  0  0  0  0  0  0  0  0  0  0
    5.1460   -4.3503   25.7353 O   0  0  0  0  0  0  0  0  0  0  0  0
    5.4634   -3.0295   25.7565 C   0  0  0  0  0  0  0  0  0  0  0  0
    5.4464   -2.4131   27.0051 C   0  0  0  0  0  0  0  0  0  0  0  0
    5.2079   -3.0253   27.8594 H   0  0  0  0  0  0  0  0  0  0  0  0
    5.7470   -1.0560   27.1374 C   0  0  0  0  0  0  0  0  0  0  0  0
    5.7328   -0.3233   28.7106 Cl  0  0  0  0  0  0  0  0  0  0  0  0
    6.0634   -0.2869   26.0204 C   0  0  0  0  0  0  0  0  0  0  0  0
    6.2759    0.7733   26.1266 H   0  0  0  0  0  0  0  0  0  0  0  0
    6.1087   -0.9022   24.7663 C   0  0  0  0  0  0  0  0  0  0  0  0
    6.4135   -0.3309   23.8950 H   0  0  0  0  0  0  0  0  0  0  0  0
    5.8157   -2.2667   24.6204 C   0  0  0  0  0  0  0  0  0  0  0  0
    5.9203   -2.9908   23.4245 O   0  0  0  0  0  0  0  0  0  0  0  0
    5.9952   -2.2868   22.2254 N   0  0  0  0  0  0  0  0  0  0  0  0
    5.2310   -1.6118   22.1866 H   0  0  0  0  0  0  0  0  0  0  0  0
    7.2524   -1.7451   21.9125 C   0  0  0  0  0  0  0  0  0  0  0  0
    8.4872   -1.9879   22.5704 C   0  0  0  0  0  0  0  0  0  0  0  0
    8.6624   -2.6084   23.4348 H   0  0  0  0  0  0  0  0  0  0  0  0
    9.4735   -1.2835   22.0328 N   0  0  0  0  0  0  0  0  0  0  0  0
    8.8863   -0.6232   21.0229 N   0  0  0  0  0  0  0  0  0  0  0  0
    9.4214    0.0722   20.5223 H   0  0  0  0  0  0  0  0  0  0  0  0
    7.5504   -0.8552   20.8900 C   0  0  0  0  0  0  0  0  0  0  0  0
    6.7375   -0.1879   19.8499 C   0  0  0  0  0  0  0  0  0  0  0  0
    7.1951   -0.1155   18.5160 C   0  0  0  0  0  0  0  0  0  0  0  0
    8.0940   -0.6545   18.2158 H   0  0  0  0  0  0  0  0  0  0  0  0
    6.5911    0.5749   17.5453 N   0  0  0  0  0  0  0  0  0  0  0  0
    5.4676    1.2346   17.8670 C   0  0  0  0  0  0  0  0  0  0  0  0
    5.0136    1.8177   17.0690 H   0  0  0  0  0  0  0  0  0  0  0  0
    4.8918    1.1916   19.1401 C   0  0  0  0  0  0  0  0  0  0  0  0
    3.9797    1.7439   19.3269 H   0  0  0  0  0  0  0  0  0  0  0  0
    5.5241    0.4548   20.1444 C   0  0  0  0  0  0  0  0  0  0  0  0
    5.0963    0.3995   21.1468 H   0  0  0  0  0  0  0  0  0  0  0  0
  1  2  1  0
  2  3  1  0
  3  4  2  0
  4  5  1  0
  4  6  1  0
  6  7  1  0
  6  8  2  0
  8  9  1  0
  8 10  1  0
 10 11  1  0
 10 12  2  0
 12 13  1  0
 13 14  1  0
 14 15  1  0
 14 16  1  0
 16 17  1  0
 17 18  1  0
 17 19  2  0
 19 20  1  0
 20 21  1  0
 20 22  1  0
 22 23  1  0
 23 24  2  0
 24 25  1  0
 24 26  1  0
 26 27  2  0
 27 28  1  0
 27 29  1  0
 29 30  1  0
 29 31  2  0
 31 32  1  0
 12  3  1  0
 22 16  2  0
 31 23  1  0
M  END
>  <cnnaffinity>  (1) 
-5.26469

>  <filename>  (1) 
[H]Oc1c([H])c(Cl)c([H])c([H])c1ON([H])c1c([H])nn([H])c1-c1c([H])nc([H])c([H])c1[H]

$$$$
