
     RDKit          3D

 37 39  0  0  0  0  0  0  0  0999 V2000
    6.1986   -0.8616   22.4738 H   0  0  0  0  0  0  0  0  0  0  0  0
    6.5524   -1.4857   21.8236 O   0  0  0  0  0  0  0  0  0  0  0  0
    7.4275   -0.7514   21.0000 C   0  0  1  0  0  0  0  0  0  0  0  0
    8.0244   -1.5165   20.4825 H   0  0  0  0  0  0  0  0  0  0  0  0
    6.6675    0.0123   19.9274 C   0  0  0  0  0  0  0  0  0  0  0  0
    7.1603    0.0555   18.6094 C   0  0  0  0  0  0  0  0  0  0  0  0
    8.1047   -0.4294   18.3593 H   0  0  0  0  0  0  0  0  0  0  0  0
    6.5587    0.6682   17.5806 N   0  0  0  0  0  0  0  0  0  0  0  0
    5.4022    1.2936   17.8361 C   0  0  0  0  0  0  0  0  0  0  0  0
    4.9243    1.7857   16.9915 H   0  0  0  0  0  0  0  0  0  0  0  0
    4.8086    1.3100   19.1014 C   0  0  0  0  0  0  0  0  0  0  0  0
    3.8779    1.8397   19.2543 H   0  0  0  0  0  0  0  0  0  0  0  0
    5.4415    0.6545   20.1599 C   0  0  0  0  0  0  0  0  0  0  0  0
    4.9754    0.6352   21.1496 H   0  0  0  0  0  0  0  0  0  0  0  0
    8.4081    0.1134   21.8545 C   0  0  0  0  0  0  0  0  0  0  0  0
    9.0828   -0.8213   22.8517 C   0  0  0  0  0  0  0  0  0  0  0  0
    8.6203   -0.8279   24.1068 N   0  0  0  0  0  0  0  0  0  0  0  0
    9.1833   -1.6530   25.0055 C   0  0  0  0  0  0  0  0  0  0  0  0
    8.6307   -1.6556   26.4599 C   0  0  0  0  0  0  0  0  0  0  0  0
    9.6046   -1.3969   27.3580 F   0  0  0  0  0  0  0  0  0  0  0  0
    7.6451   -0.7809   26.6859 F   0  0  0  0  0  0  0  0  0  0  0  0
    8.1589   -2.8812   26.7764 F   0  0  0  0  0  0  0  0  0  0  0  0
   10.2225   -2.5388   24.6587 C   0  0  0  0  0  0  0  0  0  0  0  0
   10.6126   -3.2606   25.3648 H   0  0  0  0  0  0  0  0  0  0  0  0
   10.7350   -2.5161   23.3612 C   0  0  0  0  0  0  0  0  0  0  0  0
   11.5761   -3.1594   23.0878 H   0  0  0  0  0  0  0  0  0  0  0  0
   10.1488   -1.6477   22.4453 C   0  0  0  0  0  0  0  0  0  0  0  0
   10.5015   -1.5919   21.4226 H   0  0  0  0  0  0  0  0  0  0  0  0
    7.8249    1.4313   22.4683 C   0  0  0  0  0  0  0  0  0  0  0  0
    6.7615    1.6073   22.2786 H   0  0  0  0  0  0  0  0  0  0  0  0
    7.9866    1.5089   23.5443 H   0  0  0  0  0  0  0  0  0  0  0  0
    8.7868    2.2687   21.6032 C   0  0  0  0  0  0  0  0  0  0  0  0
    9.4668    2.9247   22.1537 H   0  0  0  0  0  0  0  0  0  0  0  0
    8.2816    2.8819   20.8613 H   0  0  0  0  0  0  0  0  0  0  0  0
    9.4141    0.9794   21.0349 C   0  0  0  0  0  0  0  0  0  0  0  0
   10.4631    0.8405   21.3073 H   0  0  0  0  0  0  0  0  0  0  0  0
    9.3529    0.8567   19.9530 H   0  0  0  0  0  0  0  0  0  0  0  0
  1  2  1  0
  2  3  1  0
  3  4  1  6
  3  5  1  0
  5  6  2  0
  6  7  1  0
  6  8  1  0
  8  9  2  0
  9 10  1  0
  9 11  1  0
 11 12  1  0
 11 13  2  0
 13 14  1  0
  3 15  1  0
 15 16  1  0
 16 17  2  0
 17 18  1  0
 18 19  1  0
 19 20  1  0
 19 21  1  0
 19 22  1  0
 18 23  2  0
 23 24  1  0
 23 25  1  0
 25 26  1  0
 25 27  2  0
 27 28  1  0
 15 29  1  0
 29 30  1  0
 29 31  1  0
 29 32  1  0
 32 33  1  0
 32 34  1  0
 32 35  1  0
 35 36  1  0
 35 37  1  0
 13  5  1  0
 35 15  1  0
 27 16  1  0
M  END
>  <cnnaffinity>  (1) 
-5.04298

>  <filename>  (1) 
[H]O[C@@]([H])(c1c([H])nc([H])c([H])c1[H])C1(c2nc(C(F)(F)F)c([H])c([H])c2[H])C([H])([H])C([H])([H])C1([H])[H]

$$$$
