
     RDKit          3D

 50 52  0  0  0  0  0  0  0  0999 V2000
    7.5062   -1.8227   26.5531 N   0  0  0  0  0  4  0  0  0  0  0  0
    8.3031   -1.8456   25.1973 C   0  0  1  0  0  0  0  0  0  0  0  0
    8.4233   -3.3145   24.7092 C   0  0  0  0  0  0  0  0  0  0  0  0
    7.1999   -3.9359   23.9906 C   0  0  0  0  0  0  0  0  0  0  0  0
    5.9914   -4.1733   24.8830 C   0  0  0  0  0  0  0  0  0  0  0  0
    6.0482   -5.0998   25.9384 C   0  0  0  0  0  0  0  0  0  0  0  0
    4.9409   -5.3189   26.7667 C   0  0  0  0  0  0  0  0  0  0  0  0
    3.7533   -4.6091   26.5524 C   0  0  0  0  0  0  0  0  0  0  0  0
    3.6785   -3.6892   25.5015 C   0  0  0  0  0  0  0  0  0  0  0  0
    4.7918   -3.4784   24.6780 C   0  0  0  0  0  0  0  0  0  0  0  0
    4.7470   -2.7705   23.8595 H   0  0  0  0  0  0  0  0  0  0  0  0
    2.7587   -3.1390   25.3193 H   0  0  0  0  0  0  0  0  0  0  0  0
    2.8908   -4.7798   27.1948 H   0  0  0  0  0  0  0  0  0  0  0  0
    5.0093   -6.0440   27.5758 H   0  0  0  0  0  0  0  0  0  0  0  0
    6.9680   -5.6608   26.1027 H   0  0  0  0  0  0  0  0  0  0  0  0
    6.9070   -3.3008   23.1427 H   0  0  0  0  0  0  0  0  0  0  0  0
    7.5071   -4.8955   23.5518 H   0  0  0  0  0  0  0  0  0  0  0  0
    9.2841   -3.3837   24.0323 H   0  0  0  0  0  0  0  0  0  0  0  0
    8.6941   -3.9469   25.5668 H   0  0  0  0  0  0  0  0  0  0  0  0
    7.7214   -0.8973   24.0674 C   0  0  0  0  0  0  0  0  0  0  0  0
    6.5236   -0.6449   23.9882 O   0  0  0  0  0  0  0  0  0  0  0  0
    8.6074   -0.4207   23.1379 N   0  0  0  0  0  0  0  0  0  0  0  0
   10.0689   -0.4518   23.1950 C   0  0  0  0  0  0  0  0  0  0  0  0
   10.5107    0.2062   21.8728 C   0  0  0  0  0  0  0  0  0  0  0  0
    9.2860    0.9992   21.3794 C   0  0  0  0  0  0  0  0  0  0  0  0
    8.0676    0.2787   21.9622 C   0  0  0  0  0  0  0  0  0  0  0  0
    7.3842   -0.7147   20.9978 C   0  0  0  0  0  0  0  0  0  0  0  0
    6.6409   -0.0293   19.8708 C   0  0  0  0  0  0  0  0  0  0  0  0
    5.4312    0.6418   20.1199 C   0  0  0  0  0  0  0  0  0  0  0  0
    4.7901    1.3142   19.0778 C   0  0  0  0  0  0  0  0  0  0  0  0
    5.3862    1.3081   17.8117 C   0  0  0  0  0  0  0  0  0  0  0  0
    6.5452    0.6853   17.5490 N   0  0  0  0  0  0  0  0  0  0  0  0
    7.1496    0.0479   18.5612 C   0  0  0  0  0  0  0  0  0  0  0  0
    8.1037   -0.4217   18.3164 H   0  0  0  0  0  0  0  0  0  0  0  0
    4.9174    1.8219   16.9740 H   0  0  0  0  0  0  0  0  0  0  0  0
    3.8618    1.8594   19.2290 H   0  0  0  0  0  0  0  0  0  0  0  0
    5.0154    0.6444   21.1297 H   0  0  0  0  0  0  0  0  0  0  0  0
    6.6737   -1.3021   21.5907 H   0  0  0  0  0  0  0  0  0  0  0  0
    8.1383   -1.4139   20.6128 H   0  0  0  0  0  0  0  0  0  0  0  0
    7.2972    0.9879   22.3001 H   0  0  0  0  0  0  0  0  0  0  0  0
    9.3008    2.0328   21.7440 H   0  0  0  0  0  0  0  0  0  0  0  0
    9.2211    1.0306   20.2838 H   0  0  0  0  0  0  0  0  0  0  0  0
   10.7801   -0.5687   21.1452 H   0  0  0  0  0  0  0  0  0  0  0  0
   11.3877    0.8494   22.0181 H   0  0  0  0  0  0  0  0  0  0  0  0
   10.4442    0.1039   24.0699 H   0  0  0  0  0  0  0  0  0  0  0  0
   10.4404   -1.4853   23.2858 H   0  0  0  0  0  0  0  0  0  0  0  0
    9.3127   -1.4751   25.3906 H   0  0  0  0  0  0  0  0  0  0  0  0
    7.4853   -0.8911   27.0054 H   0  0  0  0  0  0  0  0  0  0  0  0
    6.5230   -2.0979   26.3319 H   0  0  0  0  0  0  0  0  0  0  0  0
    7.8702   -2.5059   27.2418 H   0  0  0  0  0  0  0  0  0  0  0  0
  1  2  1  0
  2  3  1  0
  3  4  1  0
  4  5  1  0
  5  6  2  0
  6  7  1  0
  7  8  2  0
  8  9  1  0
  9 10  2  0
 10 11  1  0
  9 12  1  0
  8 13  1  0
  7 14  1  0
  6 15  1  0
  4 16  1  0
  4 17  1  0
  3 18  1  0
  3 19  1  0
  2 20  1  0
 20 21  2  0
 20 22  1  0
 22 23  1  0
 23 24  1  0
 24 25  1  0
 25 26  1  0
 26 27  1  0
 27 28  1  0
 28 29  2  0
 29 30  1  0
 30 31  2  0
 31 32  1  0
 32 33  2  0
 33 34  1  0
 31 35  1  0
 30 36  1  0
 29 37  1  0
 27 38  1  0
 27 39  1  0
 26 40  1  0
 25 41  1  0
 25 42  1  0
 24 43  1  0
 24 44  1  0
 23 45  1  0
 23 46  1  0
  2 47  1  1
  1 48  1  0
  1 49  1  0
  1 50  1  0
 10  5  1  0
 26 22  1  0
 33 28  1  0
M  CHG  1   1   1
M  END
>  <cnnaffinity>  (1) 
-5.4114

>  <filename>  (1) 
[NH3+][C@@H](CCc1ccccc1)C(=O)N1CCCC1Cc1cccnc1

$$$$
