
     RDKit          3D

 43 45  0  0  0  0  0  0  0  0999 V2000
    9.1769   -4.8244   24.5760 N   0  0  0  0  0  4  0  0  0  0  0  0
    8.0569   -3.7804   24.4552 C   0  0  0  0  0  0  0  0  0  0  0  0
    8.1458   -2.9801   23.1342 C   0  0  0  0  0  0  0  0  0  0  0  0
    6.9101   -2.0827   22.9097 N   0  0  0  0  0  4  0  0  0  0  0  0
    7.1061   -0.6400   23.4065 C   0  0  0  0  0  0  0  0  0  0  0  0
    7.6890    0.1250   22.2127 C   0  0  0  0  0  0  0  0  0  0  0  0
    7.3934   -0.7175   20.9408 C   0  0  0  0  0  0  0  0  0  0  0  0
    6.6824    0.0284   19.8243 C   0  0  0  0  0  0  0  0  0  0  0  0
    5.4637    0.6769   20.0766 C   0  0  0  0  0  0  0  0  0  0  0  0
    4.8129    1.3434   19.0374 C   0  0  0  0  0  0  0  0  0  0  0  0
    5.3985    1.3399   17.7676 C   0  0  0  0  0  0  0  0  0  0  0  0
    6.5506    0.7165   17.4907 N   0  0  0  0  0  0  0  0  0  0  0  0
    7.1671    0.0900   18.5008 C   0  0  0  0  0  0  0  0  0  0  0  0
    8.1038   -0.4020   18.2401 H   0  0  0  0  0  0  0  0  0  0  0  0
    4.9162    1.8561   16.9381 H   0  0  0  0  0  0  0  0  0  0  0  0
    3.8781    1.8622   19.1966 H   0  0  0  0  0  0  0  0  0  0  0  0
    5.0313    0.6705   21.0814 H   0  0  0  0  0  0  0  0  0  0  0  0
    6.5376   -1.8888   21.4650 C   0  0  0  0  0  0  0  0  0  0  0  0
    6.7060   -2.8058   20.8994 H   0  0  0  0  0  0  0  0  0  0  0  0
    5.4746   -1.6413   21.4132 H   0  0  0  0  0  0  0  0  0  0  0  0
    8.3434   -1.1253   20.5712 H   0  0  0  0  0  0  0  0  0  0  0  0
    8.7639    0.2676   22.3499 H   0  0  0  0  0  0  0  0  0  0  0  0
    7.2501    1.1231   22.1529 H   0  0  0  0  0  0  0  0  0  0  0  0
    7.7638   -0.6305   24.2744 H   0  0  0  0  0  0  0  0  0  0  0  0
    6.1300   -0.2457   23.7085 H   0  0  0  0  0  0  0  0  0  0  0  0
    6.1151   -2.4835   23.4419 H   0  0  0  0  0  0  0  0  0  0  0  0
    8.2539   -3.6519   22.2789 H   0  0  0  0  0  0  0  0  0  0  0  0
    9.0279   -2.3320   23.1642 H   0  0  0  0  0  0  0  0  0  0  0  0
    8.1426   -2.8370   25.6526 C   0  0  0  0  0  0  0  0  0  0  0  0
    9.2913   -2.0521   25.8834 C   0  0  0  0  0  0  0  0  0  0  0  0
    9.3288   -1.0869   26.8929 C   0  0  0  0  0  0  0  0  0  0  0  0
    8.1740   -0.8179   27.6325 C   0  0  0  0  0  0  0  0  0  0  0  0
    7.0162   -1.5776   27.4198 C   0  0  0  0  0  0  0  0  0  0  0  0
    7.0082   -2.5966   26.4564 C   0  0  0  0  0  0  0  0  0  0  0  0
    6.1042   -3.1900   26.3049 H   0  0  0  0  0  0  0  0  0  0  0  0
    6.1199   -1.3755   28.0027 H   0  0  0  0  0  0  0  0  0  0  0  0
    8.1799   -0.0326   28.3888 H   0  0  0  0  0  0  0  0  0  0  0  0
   10.2515   -0.5330   27.0754 H   0  0  0  0  0  0  0  0  0  0  0  0
   10.1542   -2.1309   25.2206 H   0  0  0  0  0  0  0  0  0  0  0  0
    7.0903   -4.2915   24.4669 H   0  0  0  0  0  0  0  0  0  0  0  0
    9.1512   -5.2133   25.5383 H   0  0  0  0  0  0  0  0  0  0  0  0
    9.1265   -5.6030   23.8963 H   0  0  0  0  0  0  0  0  0  0  0  0
   10.0786   -4.3215   24.4812 H   0  0  0  0  0  0  0  0  0  0  0  0
  1  2  1  0
  2  3  1  0
  3  4  1  0
  4  5  1  0
  5  6  1  0
  6  7  1  0
  7  8  1  0
  8  9  2  0
  9 10  1  0
 10 11  2  0
 11 12  1  0
 12 13  2  0
 13 14  1  0
 11 15  1  0
 10 16  1  0
  9 17  1  0
  7 18  1  0
 18 19  1  0
 18 20  1  0
  7 21  1  0
  6 22  1  0
  6 23  1  0
  5 24  1  0
  5 25  1  0
  4 26  1  0
  3 27  1  0
  3 28  1  0
  2 29  1  0
 29 30  2  0
 30 31  1  0
 31 32  2  0
 32 33  1  0
 33 34  2  0
 34 35  1  0
 33 36  1  0
 32 37  1  0
 31 38  1  0
 30 39  1  0
  2 40  1  0
  1 41  1  0
  1 42  1  0
  1 43  1  0
 18  4  1  0
 34 29  1  0
 13  8  1  0
M  CHG  2   1   1   4   1
M  END
>  <cnnaffinity>  (1) 
-4.72972

>  <filename>  (1) 
[NH3+]C(C[NH+]1CCC(c2cccnc2)C1)c1ccccc1

$$$$
