
     RDKit          3D

 35 36  0  0  0  0  0  0  0  0999 V2000
   12.7729    5.5351   23.8127 N   0  0  0  0  0  4  0  0  0  0  0  0
   11.8022    5.0868   24.8900 C   0  0  0  0  0  0  0  0  0  0  0  0
   10.8197    4.0921   24.3166 C   0  0  0  0  0  0  0  0  0  0  0  0
   11.1007    2.7155   24.3138 C   0  0  0  0  0  0  0  0  0  0  0  0
   10.2130    1.8164   23.7202 C   0  0  0  0  0  0  0  0  0  0  0  0
    9.0333    2.2643   23.1268 C   0  0  0  0  0  0  0  0  0  0  0  0
    8.1338    1.3124   22.5297 N   0  0  0  0  0  0  0  0  0  0  0  0
    8.5553    0.4195   21.5637 C   0  0  0  0  0  0  0  0  0  0  0  0
    9.6848    0.4097   21.1273 O   0  0  0  0  0  0  0  0  0  0  0  0
    7.4375   -0.5547   20.9706 C   0  0  0  0  0  0  0  0  0  0  0  0
    6.6000   -0.9371   21.9948 F   0  0  0  0  0  0  0  0  0  0  0  0
    8.0525   -1.6848   20.5330 F   0  0  0  0  0  0  0  0  0  0  0  0
    6.6015    0.0362   19.8533 C   0  0  0  0  0  0  0  0  0  0  0  0
    5.3727    0.6767   20.0774 C   0  0  0  0  0  0  0  0  0  0  0  0
    4.7817    1.3466   19.0070 C   0  0  0  0  0  0  0  0  0  0  0  0
    5.4126    1.3134   17.7590 C   0  0  0  0  0  0  0  0  0  0  0  0
    6.5427    0.6322   17.5198 N   0  0  0  0  0  0  0  0  0  0  0  0
    7.1041   -0.0101   18.5446 C   0  0  0  0  0  0  0  0  0  0  0  0
    7.9969   -0.5948   18.3292 H   0  0  0  0  0  0  0  0  0  0  0  0
    4.9915    1.8376   16.9051 H   0  0  0  0  0  0  0  0  0  0  0  0
    3.8509    1.8912   19.1185 H   0  0  0  0  0  0  0  0  0  0  0  0
    4.8828    0.6249   21.0522 H   0  0  0  0  0  0  0  0  0  0  0  0
    7.3349    1.0607   23.0940 H   0  0  0  0  0  0  0  0  0  0  0  0
    8.7179    3.6434   23.1679 C   0  0  0  0  0  0  0  0  0  0  0  0
    7.5682    4.1933   22.6708 O   0  0  0  0  0  0  0  0  0  0  0  0
    7.2706    3.6585   21.9208 H   0  0  0  0  0  0  0  0  0  0  0  0
    9.5996    4.5369   23.7774 C   0  0  0  0  0  0  0  0  0  0  0  0
    9.2709    5.5751   23.8118 H   0  0  0  0  0  0  0  0  0  0  0  0
   10.4202    0.7522   23.6918 H   0  0  0  0  0  0  0  0  0  0  0  0
   12.0107    2.3439   24.7816 H   0  0  0  0  0  0  0  0  0  0  0  0
   12.3566    4.6335   25.7145 H   0  0  0  0  0  0  0  0  0  0  0  0
   11.2574    5.9530   25.2728 H   0  0  0  0  0  0  0  0  0  0  0  0
   13.2242    4.7080   23.3846 H   0  0  0  0  0  0  0  0  0  0  0  0
   13.4906    6.1742   24.1755 H   0  0  0  0  0  0  0  0  0  0  0  0
   12.2271    5.9892   23.0606 H   0  0  0  0  0  0  0  0  0  0  0  0
  1  2  1  0
  2  3  1  0
  3  4  2  0
  4  5  1  0
  5  6  2  0
  6  7  1  0
  7  8  1  0
  8  9  2  0
  8 10  1  0
 10 11  1  0
 10 12  1  0
 10 13  1  0
 13 14  2  0
 14 15  1  0
 15 16  2  0
 16 17  1  0
 17 18  2  0
 18 19  1  0
 16 20  1  0
 15 21  1  0
 14 22  1  0
  7 23  1  0
  6 24  1  0
 24 25  1  0
 25 26  1  0
 24 27  2  0
 27 28  1  0
  5 29  1  0
  4 30  1  0
  2 31  1  0
  2 32  1  0
  1 33  1  0
  1 34  1  0
  1 35  1  0
 27  3  1  0
 18 13  1  0
M  CHG  1   1   1
M  END
>  <cnnaffinity>  (1) 
-4.98087

>  <filename>  (1) 
[NH3+]Cc1ccc(NC(=O)C(F)(F)c2cccnc2)c(O)c1

$$$$
