
     RDKit          3D

 49 51  0  0  0  0  0  0  0  0999 V2000
    6.5137   -1.3554   24.6254 N   0  0  0  0  0  4  0  0  0  0  0  0
    6.7216    0.2488   24.7695 C   0  0  0  0  0  0  0  0  0  0  0  0
    8.0930    0.4232   25.4460 C   0  0  0  0  0  0  0  0  0  0  0  0
    8.3657    1.8692   25.9161 C   0  0  0  0  0  0  0  0  0  0  0  0
    7.4050    2.3407   26.9770 C   0  0  0  0  0  0  0  0  0  0  0  0
    7.5467    1.8955   28.2967 C   0  0  0  0  0  0  0  0  0  0  0  0
    6.6316    2.3159   29.2575 C   0  0  0  0  0  0  0  0  0  0  0  0
    5.6027    3.1348   28.9953 N   0  0  0  0  0  0  0  0  0  0  0  0
    5.4604    3.5469   27.7270 C   0  0  0  0  0  0  0  0  0  0  0  0
    6.3174    3.1779   26.6883 C   0  0  0  0  0  0  0  0  0  0  0  0
    6.1211    3.5083   25.6706 H   0  0  0  0  0  0  0  0  0  0  0  0
    4.6186    4.2103   27.5330 H   0  0  0  0  0  0  0  0  0  0  0  0
    6.7318    1.9786   30.2877 H   0  0  0  0  0  0  0  0  0  0  0  0
    8.3596    1.2253   28.5684 H   0  0  0  0  0  0  0  0  0  0  0  0
    9.3895    1.9258   26.3026 H   0  0  0  0  0  0  0  0  0  0  0  0
    8.3242    2.5584   25.0643 H   0  0  0  0  0  0  0  0  0  0  0  0
    8.1545   -0.2430   26.3126 H   0  0  0  0  0  0  0  0  0  0  0  0
    8.8942    0.1111   24.7659 H   0  0  0  0  0  0  0  0  0  0  0  0
    6.5597    1.3092   23.5864 C   0  0  0  0  0  0  0  0  0  0  0  0
    5.6894    2.1581   23.6779 O   0  0  0  0  0  0  0  0  0  0  0  0
    7.4917    1.3238   22.5779 N   0  0  0  0  0  0  0  0  0  0  0  0
    7.8007    2.5929   21.9048 C   0  0  0  0  0  0  0  0  0  0  0  0
    8.7402    2.1711   20.7916 C   0  0  0  0  0  0  0  0  0  0  0  0
    9.3441    0.8432   21.2334 C   0  0  0  0  0  0  0  0  0  0  0  0
    8.1956    0.1758   21.9916 C   0  0  0  0  0  0  0  0  0  0  0  0
    7.3031   -0.7060   21.0757 C   0  0  0  0  0  0  0  0  0  0  0  0
    6.6074   -0.0091   19.9156 C   0  0  0  0  0  0  0  0  0  0  0  0
    5.4186    0.7090   20.1209 C   0  0  0  0  0  0  0  0  0  0  0  0
    4.8223    1.3684   19.0427 C   0  0  0  0  0  0  0  0  0  0  0  0
    5.4488    1.3149   17.7950 C   0  0  0  0  0  0  0  0  0  0  0  0
    6.5761    0.6260   17.5663 N   0  0  0  0  0  0  0  0  0  0  0  0
    7.1213   -0.0278   18.6031 C   0  0  0  0  0  0  0  0  0  0  0  0
    8.0288   -0.5916   18.3759 H   0  0  0  0  0  0  0  0  0  0  0  0
    5.0176    1.8344   16.9411 H   0  0  0  0  0  0  0  0  0  0  0  0
    3.8936    1.9172   19.1590 H   0  0  0  0  0  0  0  0  0  0  0  0
    4.9726    0.7539   21.1163 H   0  0  0  0  0  0  0  0  0  0  0  0
    7.9443   -1.5044   20.6789 H   0  0  0  0  0  0  0  0  0  0  0  0
    6.5480   -1.1846   21.7107 H   0  0  0  0  0  0  0  0  0  0  0  0
    8.6111   -0.4748   22.7691 H   0  0  0  0  0  0  0  0  0  0  0  0
    9.6986    0.2354   20.3921 H   0  0  0  0  0  0  0  0  0  0  0  0
   10.2009    1.0090   21.8978 H   0  0  0  0  0  0  0  0  0  0  0  0
    8.1544    2.0525   19.8788 H   0  0  0  0  0  0  0  0  0  0  0  0
    9.5251    2.9034   20.6291 H   0  0  0  0  0  0  0  0  0  0  0  0
    8.2785    3.3069   22.5914 H   0  0  0  0  0  0  0  0  0  0  0  0
    6.8827    3.0664   21.5368 H   0  0  0  0  0  0  0  0  0  0  0  0
    5.9170    0.5795   25.4304 H   0  0  0  0  0  0  0  0  0  0  0  0
    7.3158   -1.8030   24.1357 H   0  0  0  0  0  0  0  0  0  0  0  0
    6.4787   -1.7433   25.5932 H   0  0  0  0  0  0  0  0  0  0  0  0
    5.6272   -1.6012   24.1393 H   0  0  0  0  0  0  0  0  0  0  0  0
  1  2  1  0
  2  3  1  0
  3  4  1  0
  4  5  1  0
  5  6  2  0
  6  7  1  0
  7  8  2  0
  8  9  1  0
  9 10  2  0
 10 11  1  0
  9 12  1  0
  7 13  1  0
  6 14  1  0
  4 15  1  0
  4 16  1  0
  3 17  1  0
  3 18  1  0
  2 19  1  0
 19 20  2  0
 19 21  1  0
 21 22  1  0
 22 23  1  0
 23 24  1  0
 24 25  1  0
 25 26  1  0
 26 27  1  0
 27 28  2  0
 28 29  1  0
 29 30  2  0
 30 31  1  0
 31 32  2  0
 32 33  1  0
 30 34  1  0
 29 35  1  0
 28 36  1  0
 26 37  1  0
 26 38  1  0
 25 39  1  0
 24 40  1  0
 24 41  1  0
 23 42  1  0
 23 43  1  0
 22 44  1  0
 22 45  1  0
  2 46  1  0
  1 47  1  0
  1 48  1  0
  1 49  1  0
 10  5  1  0
 25 21  1  0
 32 27  1  0
M  CHG  1   1   1
M  END
>  <cnnaffinity>  (1) 
-4.86731

>  <filename>  (1) 
[NH3+]C(CCc1ccncc1)C(=O)N1CCCC1Cc1cccnc1

$$$$
