
     RDKit          3D

 50 52  0  0  0  0  0  0  0  0999 V2000
    6.1011    0.8078   25.3575 N   0  0  0  0  0  4  0  0  0  0  0  0
    6.4386   -0.4944   24.4482 C   0  0  2  0  0  0  0  0  0  0  0  0
    5.5743   -1.6026   25.0591 C   0  0  0  0  0  0  0  0  0  0  0  0
    5.5647   -2.9105   24.2378 C   0  0  0  0  0  0  0  0  0  0  0  0
    4.5920   -3.9571   24.7460 C   0  0  0  0  0  0  0  0  0  0  0  0
    5.0407   -5.1322   25.3726 C   0  0  0  0  0  0  0  0  0  0  0  0
    4.1444   -6.1142   25.8106 C   0  0  0  0  0  0  0  0  0  0  0  0
    2.7722   -5.9390   25.6104 C   0  0  0  0  0  0  0  0  0  0  0  0
    2.3035   -4.7599   25.0157 C   0  0  0  0  0  0  0  0  0  0  0  0
    3.2089   -3.7856   24.5936 C   0  0  0  0  0  0  0  0  0  0  0  0
    2.8413   -2.8631   24.1675 H   0  0  0  0  0  0  0  0  0  0  0  0
    1.2377   -4.5722   24.9148 H   0  0  0  0  0  0  0  0  0  0  0  0
    2.0700   -6.6982   25.9410 H   0  0  0  0  0  0  0  0  0  0  0  0
    4.5220   -7.0082   26.3069 H   0  0  0  0  0  0  0  0  0  0  0  0
    6.1041   -5.2435   25.5511 H   0  0  0  0  0  0  0  0  0  0  0  0
    6.5833   -3.3133   24.2307 H   0  0  0  0  0  0  0  0  0  0  0  0
    5.3375   -2.6983   23.1795 H   0  0  0  0  0  0  0  0  0  0  0  0
    5.9464   -1.8225   26.0674 H   0  0  0  0  0  0  0  0  0  0  0  0
    4.5521   -1.2139   25.1762 H   0  0  0  0  0  0  0  0  0  0  0  0
    7.9361   -0.9819   24.1956 C   0  0  0  0  0  0  0  0  0  0  0  0
    8.4445   -1.8505   24.8912 O   0  0  0  0  0  0  0  0  0  0  0  0
    8.6359   -0.4061   23.1677 N   0  0  0  0  0  0  0  0  0  0  0  0
   10.1039   -0.5516   23.1565 C   0  0  0  0  0  0  0  0  0  0  0  0
   10.5251    0.0022   21.7950 C   0  0  0  0  0  0  0  0  0  0  0  0
    9.3608    0.9053   21.3735 C   0  0  0  0  0  0  0  0  0  0  0  0
    8.1008    0.2481   21.9609 C   0  0  0  0  0  0  0  0  0  0  0  0
    7.3835   -0.7253   20.9828 C   0  0  0  0  0  0  0  0  0  0  0  0
    6.6464   -0.0279   19.8480 C   0  0  0  0  0  0  0  0  0  0  0  0
    5.4272    0.6328   20.0753 C   0  0  0  0  0  0  0  0  0  0  0  0
    4.8101    1.3195   19.0275 C   0  0  0  0  0  0  0  0  0  0  0  0
    5.4257    1.3192   17.7725 C   0  0  0  0  0  0  0  0  0  0  0  0
    6.5695    0.6693   17.5155 N   0  0  0  0  0  0  0  0  0  0  0  0
    7.1498    0.0163   18.5324 C   0  0  0  0  0  0  0  0  0  0  0  0
    8.0739   -0.5086   18.2827 H   0  0  0  0  0  0  0  0  0  0  0  0
    4.9780    1.8567   16.9376 H   0  0  0  0  0  0  0  0  0  0  0  0
    3.8801    1.8591   19.1678 H   0  0  0  0  0  0  0  0  0  0  0  0
    4.9637    0.6046   21.0645 H   0  0  0  0  0  0  0  0  0  0  0  0
    8.1199   -1.4330   20.5793 H   0  0  0  0  0  0  0  0  0  0  0  0
    6.6653   -1.3358   21.5445 H   0  0  0  0  0  0  0  0  0  0  0  0
    7.3808    1.0286   22.2432 H   0  0  0  0  0  0  0  0  0  0  0  0
    9.2939    1.0168   20.2874 H   0  0  0  0  0  0  0  0  0  0  0  0
    9.4738    1.9038   21.8093 H   0  0  0  0  0  0  0  0  0  0  0  0
   11.4718    0.5503   21.8522 H   0  0  0  0  0  0  0  0  0  0  0  0
   10.6630   -0.8197   21.0829 H   0  0  0  0  0  0  0  0  0  0  0  0
   10.3766   -1.6034   23.3066 H   0  0  0  0  0  0  0  0  0  0  0  0
   10.5492    0.0098   23.9911 H   0  0  0  0  0  0  0  0  0  0  0  0
    6.0669   -0.2200   23.4570 H   0  0  0  0  0  0  0  0  0  0  0  0
    5.0742    0.9424   25.2783 H   0  0  0  0  0  0  0  0  0  0  0  0
    6.5708    1.6853   25.0830 H   0  0  0  0  0  0  0  0  0  0  0  0
    6.3248    0.6157   26.3563 H   0  0  0  0  0  0  0  0  0  0  0  0
  1  2  1  0
  2  3  1  0
  3  4  1  0
  4  5  1  0
  5  6  2  0
  6  7  1  0
  7  8  2  0
  8  9  1  0
  9 10  2  0
 10 11  1  0
  9 12  1  0
  8 13  1  0
  7 14  1  0
  6 15  1  0
  4 16  1  0
  4 17  1  0
  3 18  1  0
  3 19  1  0
  2 20  1  0
 20 21  2  0
 20 22  1  0
 22 23  1  0
 23 24  1  0
 24 25  1  0
 25 26  1  0
 26 27  1  0
 27 28  1  0
 28 29  2  0
 29 30  1  0
 30 31  2  0
 31 32  1  0
 32 33  2  0
 33 34  1  0
 31 35  1  0
 30 36  1  0
 29 37  1  0
 27 38  1  0
 27 39  1  0
 26 40  1  0
 25 41  1  0
 25 42  1  0
 24 43  1  0
 24 44  1  0
 23 45  1  0
 23 46  1  0
  2 47  1  6
  1 48  1  0
  1 49  1  0
  1 50  1  0
 10  5  1  0
 26 22  1  0
 33 28  1  0
M  CHG  1   1   1
M  END
>  <cnnaffinity>  (1) 
-5.38172

>  <filename>  (1) 
[NH3+][C@H](CCc1ccccc1)C(=O)N1CCCC1Cc1cccnc1

$$$$
