
     RDKit          3D

 36 38  0  0  0  0  0  0  0  0999 V2000
    8.5138    0.2051   21.4394 N   0  0  0  0  0  4  0  0  0  0  0  0
    7.1460   -0.3700   21.2440 C   0  0  2  0  0  0  0  0  0  0  0  0
    7.3253   -1.8759   21.0066 C   0  0  0  0  0  0  0  0  0  0  0  0
    7.9095   -2.5212   22.2005 C   0  0  0  0  0  0  0  0  0  0  0  0
    7.2407   -2.9267   23.2375 N   0  0  0  0  0  0  0  0  0  0  0  0
    8.2394   -3.3810   24.0595 C   0  0  0  0  0  0  0  0  0  0  0  0
    7.9523   -3.9942   25.3890 C   0  0  0  0  0  0  0  0  0  0  0  0
    8.9604   -3.6846   26.5106 C   0  0  0  0  0  0  0  0  0  0  0  0
    8.7493   -4.8733   27.4440 C   0  0  0  0  0  0  0  0  0  0  0  0
    8.4213   -5.9704   26.6115 O   0  0  0  0  0  0  0  0  0  0  0  0
    7.9890   -5.5398   25.3403 C   0  0  0  0  0  0  0  0  0  0  0  0
    8.6935   -5.9015   24.5736 H   0  0  0  0  0  0  0  0  0  0  0  0
    6.9995   -5.9666   25.1436 H   0  0  0  0  0  0  0  0  0  0  0  0
    9.6455   -5.1458   28.0021 H   0  0  0  0  0  0  0  0  0  0  0  0
    7.9388   -4.6928   28.1659 H   0  0  0  0  0  0  0  0  0  0  0  0
    9.9741   -3.7197   26.0918 H   0  0  0  0  0  0  0  0  0  0  0  0
    8.8145   -2.7124   26.9952 H   0  0  0  0  0  0  0  0  0  0  0  0
    6.9394   -3.6792   25.6634 H   0  0  0  0  0  0  0  0  0  0  0  0
    9.4434   -3.2707   23.5681 N   0  0  0  0  0  0  0  0  0  0  0  0
    9.2260   -2.6757   22.3267 O   0  0  0  0  0  0  0  0  0  0  0  0
    7.9593   -2.0189   20.1392 H   0  0  0  0  0  0  0  0  0  0  0  0
    6.3590   -2.3406   20.8153 H   0  0  0  0  0  0  0  0  0  0  0  0
    6.5397    0.3362   20.0533 C   0  0  0  0  0  0  0  0  0  0  0  0
    5.3083    1.0111   20.1055 C   0  0  0  0  0  0  0  0  0  0  0  0
    4.7837    1.5704   18.9356 C   0  0  0  0  0  0  0  0  0  0  0  0
    5.5082    1.4475   17.7471 C   0  0  0  0  0  0  0  0  0  0  0  0
    6.6918    0.8229   17.6752 N   0  0  0  0  0  0  0  0  0  0  0  0
    7.1870    0.3065   18.8078 C   0  0  0  0  0  0  0  0  0  0  0  0
    8.1561   -0.1759   18.6874 H   0  0  0  0  0  0  0  0  0  0  0  0
    5.1255    1.8754   16.8191 H   0  0  0  0  0  0  0  0  0  0  0  0
    3.8383    2.1069   18.9305 H   0  0  0  0  0  0  0  0  0  0  0  0
    4.7560    1.0997   21.0446 H   0  0  0  0  0  0  0  0  0  0  0  0
    6.5209   -0.2094   22.1363 H   0  0  0  0  0  0  0  0  0  0  0  0
    9.0561    0.0174   20.5755 H   0  0  0  0  0  0  0  0  0  0  0  0
    8.4300    1.2268   21.5716 H   0  0  0  0  0  0  0  0  0  0  0  0
    9.0006   -0.1934   22.2544 H   0  0  0  0  0  0  0  0  0  0  0  0
  1  2  1  0
  2  3  1  0
  3  4  1  0
  4  5  2  0
  5  6  1  0
  6  7  1  0
  7  8  1  0
  8  9  1  0
  9 10  1  0
 10 11  1  0
 11 12  1  0
 11 13  1  0
  9 14  1  0
  9 15  1  0
  8 16  1  0
  8 17  1  0
  7 18  1  0
  6 19  2  0
 19 20  1  0
  3 21  1  0
  3 22  1  0
  2 23  1  0
 23 24  2  0
 24 25  1  0
 25 26  2  0
 26 27  1  0
 27 28  2  0
 28 29  1  0
 26 30  1  0
 25 31  1  0
 24 32  1  0
  2 33  1  1
  1 34  1  0
  1 35  1  0
  1 36  1  0
 20  4  1  0
 28 23  1  0
 11  7  1  0
M  CHG  1   1   1
M  END
>  <cnnaffinity>  (1) 
-4.66448

>  <filename>  (1) 
[NH3+][C@H](Cc1nc(C2CCOC2)no1)c1cccnc1

$$$$
