
     RDKit          3D

 35 36  0  0  0  0  0  0  0  0999 V2000
    5.1133    1.8380   17.0647 H   0  0  0  0  0  0  0  0  0  0  0  0
    5.5479    1.2387   17.8603 C   0  0  0  0  0  0  0  0  0  0  0  0
    6.6737    0.5537   17.6062 N   0  0  0  0  0  0  0  0  0  0  0  0
    7.2023   -0.1672   18.6093 C   0  0  0  0  0  0  0  0  0  0  0  0
    8.1109   -0.7287   18.4284 H   0  0  0  0  0  0  0  0  0  0  0  0
    6.6563   -0.2415   19.9007 C   0  0  0  0  0  0  0  0  0  0  0  0
    7.4123   -1.0490   20.9509 C   0  0  0  0  0  0  0  0  0  0  0  0
    7.7923   -0.3769   21.7234 H   0  0  0  0  0  0  0  0  0  0  0  0
    8.2851   -1.5226   20.4846 H   0  0  0  0  0  0  0  0  0  0  0  0
    6.5671   -2.1198   21.6507 C   0  0  1  0  0  0  0  0  0  0  0  0
    5.8730   -1.6146   22.3272 H   0  0  0  0  0  0  0  0  0  0  0  0
    5.5769   -3.1940   20.3176 Br  0  0  0  0  0  0  0  0  0  0  0  0
    7.4215   -3.0568   22.4091 N   0  0  0  0  0  0  0  0  0  0  0  0
    7.9723   -3.6249   21.7674 H   0  0  0  0  0  0  0  0  0  0  0  0
    6.7996   -3.8959   23.4684 C   0  0  0  0  0  0  0  0  0  0  0  0
    7.5800   -4.3553   24.0865 H   0  0  0  0  0  0  0  0  0  0  0  0
    5.9398   -3.0111   24.3751 C   0  0  0  0  0  0  0  0  0  0  0  0
    6.5691   -2.2923   24.9108 H   0  0  0  0  0  0  0  0  0  0  0  0
    5.2811   -2.4680   23.7169 H   0  0  0  0  0  0  0  0  0  0  0  0
    5.0510   -3.7777   25.3561 C   0  0  0  0  0  0  0  0  0  0  0  0
    4.4090   -3.0738   25.8960 H   0  0  0  0  0  0  0  0  0  0  0  0
    5.6762   -4.3042   26.0852 H   0  0  0  0  0  0  0  0  0  0  0  0
    4.1667   -4.7486   24.5802 C   0  0  0  0  0  0  0  0  0  0  0  0
    3.5495   -4.1726   23.8827 H   0  0  0  0  0  0  0  0  0  0  0  0
    3.4908   -5.2759   25.2630 H   0  0  0  0  0  0  0  0  0  0  0  0
    5.0348   -5.7429   23.8070 C   0  0  0  0  0  0  0  0  0  0  0  0
    5.6193   -6.3379   24.5184 H   0  0  0  0  0  0  0  0  0  0  0  0
    4.3838   -6.4199   23.2450 H   0  0  0  0  0  0  0  0  0  0  0  0
    5.9866   -5.0344   22.8288 C   0  0  0  0  0  0  0  0  0  0  0  0
    5.3872   -4.6450   22.0025 H   0  0  0  0  0  0  0  0  0  0  0  0
    6.6882   -5.7694   22.4256 H   0  0  0  0  0  0  0  0  0  0  0  0
    5.4656    0.4538   20.1567 C   0  0  0  0  0  0  0  0  0  0  0  0
    4.9790    0.4335   21.1326 H   0  0  0  0  0  0  0  0  0  0  0  0
    4.9161    1.2042   19.1102 C   0  0  0  0  0  0  0  0  0  0  0  0
    4.0078    1.7792   19.2426 H   0  0  0  0  0  0  0  0  0  0  0  0
  1  2  1  0
  2  3  2  0
  3  4  1  0
  4  5  1  0
  4  6  2  0
  6  7  1  0
  7  8  1  0
  7  9  1  0
  7 10  1  0
 10 11  1  1
 10 12  1  0
 10 13  1  0
 13 14  1  0
 13 15  1  0
 15 16  1  0
 15 17  1  0
 17 18  1  0
 17 19  1  0
 17 20  1  0
 20 21  1  0
 20 22  1  0
 20 23  1  0
 23 24  1  0
 23 25  1  0
 23 26  1  0
 26 27  1  0
 26 28  1  0
 26 29  1  0
 29 30  1  0
 29 31  1  0
  6 32  1  0
 32 33  1  0
 32 34  2  0
 34 35  1  0
 34  2  1  0
 29 15  1  0
M  END
>  <cnnaffinity>  (1) 
-4.60976

>  <filename>  (1) 
Br[C@H](Cc1cccnc1)NC1CCCCC1

$$$$
