
     RDKit          3D

 22 23  0  0  0  0  0  0  0  0999 V2000
    4.8899    1.7887   17.0137 H   0  0  0  0  0  0  0  0  0  0  0  0
    5.4003    1.2943   17.8332 C   0  0  0  0  0  0  0  0  0  0  0  0
    6.5684    0.6765   17.5742 N   0  0  0  0  0  0  0  0  0  0  0  0
    7.1848    0.0581   18.5983 C   0  0  0  0  0  0  0  0  0  0  0  0
    8.1295   -0.4373   18.3964 H   0  0  0  0  0  0  0  0  0  0  0  0
    6.6693    0.0162   19.9037 C   0  0  0  0  0  0  0  0  0  0  0  0
    7.4242   -0.7031   20.9872 C   0  0  2  0  0  0  0  0  0  0  0  0
    8.2904   -1.2075   20.5487 H   0  0  0  0  0  0  0  0  0  0  0  0
    6.2537   -2.0900   21.7870 Br  0  0  0  0  0  0  0  0  0  0  0  0
    7.8938    0.2962   22.0543 C   0  0  0  0  0  0  0  0  0  0  0  0
    7.0345    0.7270   22.5704 H   0  0  0  0  0  0  0  0  0  0  0  0
    8.4361    1.1137   21.5681 H   0  0  0  0  0  0  0  0  0  0  0  0
    8.7905   -0.3836   23.0470 C   0  0  0  0  0  0  0  0  0  0  0  0
   10.1240   -0.6632   22.8098 N   0  0  0  0  0  0  0  0  0  0  0  0
   10.5850   -1.2543   23.8374 N   0  0  0  0  0  0  0  0  0  0  0  0
    9.5460   -1.3280   24.6936 N   0  0  0  0  0  0  0  0  0  0  0  0
    9.6240   -1.7650   25.6138 H   0  0  0  0  0  0  0  0  0  0  0  0
    8.3984   -0.7852   24.2268 N   0  0  0  0  0  0  0  0  0  0  0  0
    5.4478    0.6495   20.1627 C   0  0  0  0  0  0  0  0  0  0  0  0
    5.0089    0.6329   21.1619 H   0  0  0  0  0  0  0  0  0  0  0  0
    4.8149    1.3074   19.1070 C   0  0  0  0  0  0  0  0  0  0  0  0
    3.8811    1.8340   19.2630 H   0  0  0  0  0  0  0  0  0  0  0  0
  1  2  1  0
  2  3  2  0
  3  4  1  0
  4  5  1  0
  4  6  2  0
  6  7  1  0
  7  8  1  6
  7  9  1  0
  7 10  1  0
 10 11  1  0
 10 12  1  0
 10 13  1  0
 13 14  1  0
 14 15  2  0
 15 16  1  0
 16 17  1  0
 16 18  1  0
  6 19  1  0
 19 20  1  0
 19 21  2  0
 21 22  1  0
 21  2  1  0
 18 13  2  0
M  END
>  <cnnaffinity>  (1) 
-4.72652

>  <filename>  (1) 
Br[C@H](Cc1nn[nH]n1)c1cccnc1

$$$$
