
     RDKit          3D

 31 32  0  0  0  0  0  0  0  0999 V2000
    4.9713    1.7831   16.9493 H   0  0  0  0  0  0  0  0  0  0  0  0
    5.4296    1.3042   17.8058 C   0  0  0  0  0  0  0  0  0  0  0  0
    6.6086    0.6732   17.6509 N   0  0  0  0  0  0  0  0  0  0  0  0
    7.1628    0.1125   18.7388 C   0  0  0  0  0  0  0  0  0  0  0  0
    8.1146   -0.3997   18.6239 H   0  0  0  0  0  0  0  0  0  0  0  0
    6.5654    0.1475   20.0166 C   0  0  0  0  0  0  0  0  0  0  0  0
    7.2412   -0.4928   21.2085 C   0  0  2  0  0  0  0  0  0  0  0  0
    6.7220   -0.2356   22.1414 H   0  0  0  0  0  0  0  0  0  0  0  0
    9.1037    0.1829   21.2879 Br  0  0  0  0  0  0  0  0  0  0  0  0
    7.2488   -2.0090   21.0455 C   0  0  0  0  0  0  0  0  0  0  0  0
    6.2679   -2.3422   20.6958 H   0  0  0  0  0  0  0  0  0  0  0  0
    7.9905   -2.2638   20.2913 H   0  0  0  0  0  0  0  0  0  0  0  0
    7.5814   -2.6777   22.2683 O   0  0  0  0  0  0  0  0  0  0  0  0
    7.6895   -4.0877   22.0799 C   0  0  0  0  0  0  0  0  0  0  0  0
    8.1581   -4.2995   21.1142 H   0  0  0  0  0  0  0  0  0  0  0  0
    8.5267   -4.6962   23.1781 C   0  0  0  0  0  0  0  0  0  0  0  0
    8.2776   -4.2486   24.1449 H   0  0  0  0  0  0  0  0  0  0  0  0
    9.5810   -4.5146   22.9937 H   0  0  0  0  0  0  0  0  0  0  0  0
    8.1455   -6.1689   23.1619 C   0  0  0  0  0  0  0  0  0  0  0  0
    8.3176   -6.6071   24.1517 H   0  0  0  0  0  0  0  0  0  0  0  0
    8.7375   -6.7092   22.4104 H   0  0  0  0  0  0  0  0  0  0  0  0
    6.6642   -6.1973   22.7515 C   0  0  0  0  0  0  0  0  0  0  0  0
    6.0165   -6.3826   23.6164 H   0  0  0  0  0  0  0  0  0  0  0  0
    6.4897   -6.9870   22.0121 H   0  0  0  0  0  0  0  0  0  0  0  0
    6.3524   -4.8206   22.1482 C   0  0  0  0  0  0  0  0  0  0  0  0
    5.9095   -4.9215   21.1534 H   0  0  0  0  0  0  0  0  0  0  0  0
    5.6535   -4.2696   22.7903 H   0  0  0  0  0  0  0  0  0  0  0  0
    5.3349    0.7813   20.1634 C   0  0  0  0  0  0  0  0  0  0  0  0
    4.8450    0.8215   21.1372 H   0  0  0  0  0  0  0  0  0  0  0  0
    4.7666    1.3668   19.0376 C   0  0  0  0  0  0  0  0  0  0  0  0
    3.8189    1.8868   19.1066 H   0  0  0  0  0  0  0  0  0  0  0  0
  1  2  1  0
  2  3  2  0
  3  4  1  0
  4  5  1  0
  4  6  2  0
  6  7  1  0
  7  8  1  1
  7  9  1  0
  7 10  1  0
 10 11  1  0
 10 12  1  0
 10 13  1  0
 13 14  1  0
 14 15  1  0
 14 16  1  0
 16 17  1  0
 16 18  1  0
 16 19  1  0
 19 20  1  0
 19 21  1  0
 19 22  1  0
 22 23  1  0
 22 24  1  0
 22 25  1  0
 25 26  1  0
 25 27  1  0
  6 28  1  0
 28 29  1  0
 28 30  2  0
 30 31  1  0
 30  2  1  0
 25 14  1  0
M  END
>  <cnnaffinity>  (1) 
-4.44122

>  <filename>  (1) 
Br[C@H](COC1CCCC1)c1cccnc1

$$$$
