
     RDKit          3D

 30 32  0  0  0  0  0  0  0  0999 V2000
    4.9514    1.8514   16.9860 H   0  0  0  0  0  0  0  0  0  0  0  0
    5.4308    1.3085   17.7909 C   0  0  0  0  0  0  0  0  0  0  0  0
    6.5834    0.6605   17.5338 N   0  0  0  0  0  0  0  0  0  0  0  0
    7.1701    0.0123   18.5548 C   0  0  0  0  0  0  0  0  0  0  0  0
    8.1026   -0.5108   18.3655 H   0  0  0  0  0  0  0  0  0  0  0  0
    6.6337   -0.0298   19.8547 C   0  0  0  0  0  0  0  0  0  0  0  0
    7.3346   -0.7925   20.9536 C   0  0  0  0  0  0  0  0  0  0  0  0
    7.5495   -0.1102   21.7829 H   0  0  0  0  0  0  0  0  0  0  0  0
    8.2800   -1.1823   20.5746 H   0  0  0  0  0  0  0  0  0  0  0  0
    6.4635   -1.9372   21.4734 C   0  0  1  0  0  0  0  0  0  0  0  0
    5.5055   -1.5084   21.7577 H   0  0  0  0  0  0  0  0  0  0  0  0
    6.0357   -3.2442   20.0451 Br  0  0  0  0  0  0  0  0  0  0  0  0
    7.0695   -2.6457   22.6709 C   0  0  0  0  0  0  0  0  0  0  0  0
    6.2534   -3.0950   23.6879 C   0  0  0  0  0  0  0  0  0  0  0  0
    5.1855   -2.9131   23.7440 H   0  0  0  0  0  0  0  0  0  0  0  0
    7.1009   -3.9892   24.9352 S   0  0  0  0  0  0  0  0  0  0  0  0
    8.6226   -3.6612   24.1321 C   0  0  0  0  0  0  0  0  0  0  0  0
    9.8756   -4.0216   24.6216 C   0  0  0  0  0  0  0  0  0  0  0  0
    9.9772   -4.5709   25.5497 H   0  0  0  0  0  0  0  0  0  0  0  0
   11.0108   -3.6339   23.9175 C   0  0  0  0  0  0  0  0  0  0  0  0
   11.9836   -3.8967   24.3113 H   0  0  0  0  0  0  0  0  0  0  0  0
   10.9035   -2.8981   22.7338 C   0  0  0  0  0  0  0  0  0  0  0  0
   11.8116   -2.5764   22.2268 H   0  0  0  0  0  0  0  0  0  0  0  0
    9.6388   -2.5595   22.2221 C   0  0  0  0  0  0  0  0  0  0  0  0
    9.5808   -1.9899   21.2985 H   0  0  0  0  0  0  0  0  0  0  0  0
    8.4878   -2.9347   22.9415 C   0  0  0  0  0  0  0  0  0  0  0  0
    5.4333    0.6313   20.1108 C   0  0  0  0  0  0  0  0  0  0  0  0
    4.9842    0.6098   21.1039 H   0  0  0  0  0  0  0  0  0  0  0  0
    4.8316    1.3120   19.0553 C   0  0  0  0  0  0  0  0  0  0  0  0
    3.9045    1.8546   19.2048 H   0  0  0  0  0  0  0  0  0  0  0  0
  1  2  1  0
  2  3  2  0
  3  4  1  0
  4  5  1  0
  4  6  2  0
  6  7  1  0
  7  8  1  0
  7  9  1  0
  7 10  1  0
 10 11  1  1
 10 12  1  0
 10 13  1  0
 13 14  2  0
 14 15  1  0
 14 16  1  0
 16 17  1  0
 17 18  2  0
 18 19  1  0
 18 20  1  0
 20 21  1  0
 20 22  2  0
 22 23  1  0
 22 24  1  0
 24 25  1  0
 24 26  2  0
  6 27  1  0
 27 28  1  0
 27 29  2  0
 29 30  1  0
 29  2  1  0
 26 13  1  0
 26 17  1  0
M  END
>  <cnnaffinity>  (1) 
-5.07581

>  <filename>  (1) 
Br[C@H](Cc1cccnc1)c1csc2ccccc12

$$$$
