
     RDKit          3D

 36 37  0  0  0  0  0  0  0  0999 V2000
    4.9421    1.8557   17.0014 H   0  0  0  0  0  0  0  0  0  0  0  0
    5.4179    1.2987   17.8033 C   0  0  0  0  0  0  0  0  0  0  0  0
    6.5643    0.6516   17.5402 N   0  0  0  0  0  0  0  0  0  0  0  0
    7.1549   -0.0018   18.5572 C   0  0  0  0  0  0  0  0  0  0  0  0
    8.0938   -0.5056   18.3525 H   0  0  0  0  0  0  0  0  0  0  0  0
    6.6337   -0.0604   19.8635 C   0  0  0  0  0  0  0  0  0  0  0  0
    7.3745   -0.8086   20.9581 C   0  0  0  0  0  0  0  0  0  0  0  0
    8.3225   -1.1994   20.5699 H   0  0  0  0  0  0  0  0  0  0  0  0
    7.5950   -0.1190   21.7818 H   0  0  0  0  0  0  0  0  0  0  0  0
    6.5743   -1.9778   21.5252 C   0  0  1  0  0  0  0  0  0  0  0  0
    5.7264   -1.5598   22.0679 H   0  0  0  0  0  0  0  0  0  0  0  0
    5.9040   -3.1668   20.0747 Br  0  0  0  0  0  0  0  0  0  0  0  0
    7.4188   -2.7347   22.4130 O   0  0  0  0  0  0  0  0  0  0  0  0
    6.6876   -3.6635   23.2388 C   0  0  0  0  0  0  0  0  0  0  0  0
    7.3549   -4.4154   23.6764 H   0  0  0  0  0  0  0  0  0  0  0  0
    5.9798   -4.2003   22.6005 H   0  0  0  0  0  0  0  0  0  0  0  0
    5.9323   -2.9642   24.3881 C   0  0  0  0  0  0  0  0  0  0  0  0
    5.5732   -1.9963   24.0512 H   0  0  0  0  0  0  0  0  0  0  0  0
    6.6147   -2.7674   25.2243 H   0  0  0  0  0  0  0  0  0  0  0  0
    4.7816   -3.7715   24.8506 N   0  0  0  0  0  0  0  0  0  0  0  0
    5.1075   -5.0256   25.5311 C   0  0  0  0  0  0  0  0  0  0  0  0
    6.1630   -5.0683   25.8167 H   0  0  0  0  0  0  0  0  0  0  0  0
    4.4918   -5.1262   26.4287 H   0  0  0  0  0  0  0  0  0  0  0  0
    4.7547   -6.0976   24.5163 C   0  0  0  0  0  0  0  0  0  0  0  0
    5.6063   -6.2675   23.8513 H   0  0  0  0  0  0  0  0  0  0  0  0
    4.4926   -7.0400   25.0038 H   0  0  0  0  0  0  0  0  0  0  0  0
    3.5852   -5.5216   23.7286 C   0  0  0  0  0  0  0  0  0  0  0  0
    2.6338   -5.8615   24.1493 H   0  0  0  0  0  0  0  0  0  0  0  0
    3.6278   -5.8270   22.6792 H   0  0  0  0  0  0  0  0  0  0  0  0
    3.7049   -4.0087   23.8740 C   0  0  0  0  0  0  0  0  0  0  0  0
    2.7595   -3.5860   24.2283 H   0  0  0  0  0  0  0  0  0  0  0  0
    3.9481   -3.5547   22.9078 H   0  0  0  0  0  0  0  0  0  0  0  0
    5.4239    0.5944   20.1243 C   0  0  0  0  0  0  0  0  0  0  0  0
    4.9733    0.5789   21.1156 H   0  0  0  0  0  0  0  0  0  0  0  0
    4.8208    1.2865   19.0707 C   0  0  0  0  0  0  0  0  0  0  0  0
    3.9002    1.8388   19.2198 H   0  0  0  0  0  0  0  0  0  0  0  0
  1  2  1  0
  2  3  2  0
  3  4  1  0
  4  5  1  0
  4  6  2  0
  6  7  1  0
  7  8  1  0
  7  9  1  0
  7 10  1  0
 10 11  1  1
 10 12  1  0
 10 13  1  0
 13 14  1  0
 14 15  1  0
 14 16  1  0
 14 17  1  0
 17 18  1  0
 17 19  1  0
 17 20  1  0
 20 21  1  0
 21 22  1  0
 21 23  1  0
 21 24  1  0
 24 25  1  0
 24 26  1  0
 24 27  1  0
 27 28  1  0
 27 29  1  0
 27 30  1  0
 30 31  1  0
 30 32  1  0
  6 33  1  0
 33 34  1  0
 33 35  2  0
 35 36  1  0
 35  2  1  0
 30 20  1  0
M  END
>  <cnnaffinity>  (1) 
-4.47989

>  <filename>  (1) 
Br[C@H](Cc1cccnc1)OCCN1CCCC1

$$$$
