
     RDKit          3D

 27 28  0  0  0  0  0  0  0  0999 V2000
    4.9585    1.7039   16.9427 H   0  0  0  0  0  0  0  0  0  0  0  0
    5.4316    1.2775   17.8216 C   0  0  0  0  0  0  0  0  0  0  0  0
    6.6208    0.6628   17.6816 N   0  0  0  0  0  0  0  0  0  0  0  0
    7.1933    0.1495   18.7850 C   0  0  0  0  0  0  0  0  0  0  0  0
    8.1417   -0.3707   18.6910 H   0  0  0  0  0  0  0  0  0  0  0  0
    6.6247    0.2362   20.0645 C   0  0  0  0  0  0  0  0  0  0  0  0
    7.3635   -0.3338   21.2526 C   0  0  2  0  0  0  0  0  0  0  0  0
    6.8818   -0.0094   22.1823 H   0  0  0  0  0  0  0  0  0  0  0  0
    9.2361    0.3423   21.2132 Br  0  0  0  0  0  0  0  0  0  0  0  0
    7.3661   -1.8641   21.1747 C   0  0  0  0  0  0  0  0  0  0  0  0
    7.8139   -2.1641   20.2288 H   0  0  0  0  0  0  0  0  0  0  0  0
    7.9533   -2.3032   21.9862 H   0  0  0  0  0  0  0  0  0  0  0  0
    5.9505   -2.4005   21.2731 C   0  0  0  0  0  0  0  0  0  0  0  0
    5.3067   -1.8407   20.5931 H   0  0  0  0  0  0  0  0  0  0  0  0
    5.5882   -2.2941   22.2954 H   0  0  0  0  0  0  0  0  0  0  0  0
    5.9449   -3.8383   20.8965 C   0  0  0  0  0  0  0  0  0  0  0  0
    5.6477   -4.3854   19.2600 S   0  0  0  0  0  0  0  0  0  0  0  0
    5.8252   -6.0530   19.7766 C   0  0  0  0  0  0  0  0  0  0  0  0
    5.7441   -6.9147   19.1181 H   0  0  0  0  0  0  0  0  0  0  0  0
    6.1152   -6.1499   21.1149 C   0  0  0  0  0  0  0  0  0  0  0  0
    6.3014   -7.0913   21.6180 H   0  0  0  0  0  0  0  0  0  0  0  0
    6.1740   -4.8575   21.7784 C   0  0  0  0  0  0  0  0  0  0  0  0
    6.3745   -4.7110   22.8394 H   0  0  0  0  0  0  0  0  0  0  0  0
    5.3737    0.8411   20.2026 C   0  0  0  0  0  0  0  0  0  0  0  0
    4.8821    0.9049   21.1735 H   0  0  0  0  0  0  0  0  0  0  0  0
    4.7761    1.3662   19.0569 C   0  0  0  0  0  0  0  0  0  0  0  0
    3.8100    1.8544   19.1120 H   0  0  0  0  0  0  0  0  0  0  0  0
  1  2  1  0
  2  3  2  0
  3  4  1  0
  4  5  1  0
  4  6  2  0
  6  7  1  0
  7  8  1  1
  7  9  1  0
  7 10  1  0
 10 11  1  0
 10 12  1  0
 10 13  1  0
 13 14  1  0
 13 15  1  0
 13 16  1  0
 16 17  1  0
 17 18  1  0
 18 19  1  0
 18 20  2  0
 20 21  1  0
 20 22  1  0
 22 23  1  0
  6 24  1  0
 24 25  1  0
 24 26  2  0
 26 27  1  0
 26  2  1  0
 22 16  2  0
M  END
>  <cnnaffinity>  (1) 
-4.92065

>  <filename>  (1) 
Br[C@H](CCc1cccs1)c1cccnc1

$$$$
