
     RDKit          3D

 40 42  0  0  0  0  0  0  0  0999 V2000
   10.2354   -5.5943   28.5617 H   0  0  0  0  0  0  0  0  0  0  0  0
    9.3185   -5.4387   28.0057 C   0  0  0  0  0  0  0  0  0  0  0  0
    9.3276   -4.5361   27.0237 N   0  0  0  0  0  0  0  0  0  0  0  0
    8.1833   -4.3474   26.3696 C   0  0  0  0  0  0  0  0  0  0  0  0
    8.1822   -3.4502   25.3145 N   0  0  0  0  0  0  0  0  0  0  0  0
    9.3599   -3.3567   24.4216 C   0  0  0  0  0  0  0  0  0  0  0  0
    9.8977   -2.4297   24.6284 H   0  0  0  0  0  0  0  0  0  0  0  0
   10.0542   -4.1796   24.6087 H   0  0  0  0  0  0  0  0  0  0  0  0
    8.9287   -3.3616   22.9319 C   0  0  0  0  0  0  0  0  0  0  0  0
    8.4582   -4.3239   22.7031 H   0  0  0  0  0  0  0  0  0  0  0  0
    9.8245   -3.2702   22.3182 H   0  0  0  0  0  0  0  0  0  0  0  0
    7.9917   -2.2445   22.6260 N   0  0  0  0  0  0  0  0  0  0  0  0
    7.4111   -2.0681   21.2708 C   0  0  1  0  0  0  0  0  0  0  0  0
    8.1857   -2.2008   20.5094 H   0  0  0  0  0  0  0  0  0  0  0  0
    5.9855   -3.4306   21.0002 Br  0  0  0  0  0  0  0  0  0  0  0  0
    6.8558   -0.6285   21.1753 C   0  0  0  0  0  0  0  0  0  0  0  0
    7.6636    0.0548   21.4519 H   0  0  0  0  0  0  0  0  0  0  0  0
    6.0857   -0.5195   21.9403 H   0  0  0  0  0  0  0  0  0  0  0  0
    6.2625   -0.1512   19.8554 C   0  0  0  0  0  0  0  0  0  0  0  0
    6.9222   -0.2768   18.6137 C   0  0  0  0  0  0  0  0  0  0  0  0
    7.8785   -0.7840   18.5659 H   0  0  0  0  0  0  0  0  0  0  0  0
    6.4489    0.2363   17.4628 N   0  0  0  0  0  0  0  0  0  0  0  0
    5.2952    0.9260   17.5135 C   0  0  0  0  0  0  0  0  0  0  0  0
    4.9028    1.3593   16.6015 H   0  0  0  0  0  0  0  0  0  0  0  0
    4.5819    1.1173   18.7004 C   0  0  0  0  0  0  0  0  0  0  0  0
    3.6809    1.7246   18.6971 H   0  0  0  0  0  0  0  0  0  0  0  0
    5.0561    0.5612   19.8859 C   0  0  0  0  0  0  0  0  0  0  0  0
    4.5078    0.7121   20.8153 H   0  0  0  0  0  0  0  0  0  0  0  0
    7.2113   -1.7526   23.7917 C   0  0  0  0  0  0  0  0  0  0  0  0
    7.7999   -0.9677   24.2731 H   0  0  0  0  0  0  0  0  0  0  0  0
    6.2627   -1.3155   23.4791 H   0  0  0  0  0  0  0  0  0  0  0  0
    6.9227   -2.8505   24.8292 C   0  0  0  0  0  0  0  0  0  0  0  0
    6.3678   -2.4052   25.6615 H   0  0  0  0  0  0  0  0  0  0  0  0
    6.3008   -3.6251   24.3716 H   0  0  0  0  0  0  0  0  0  0  0  0
    7.0074   -5.0319   26.6721 C   0  0  0  0  0  0  0  0  0  0  0  0
    6.1316   -4.8006   26.0852 H   0  0  0  0  0  0  0  0  0  0  0  0
    6.9943   -5.9982   27.6662 C   0  0  0  0  0  0  0  0  0  0  0  0
    6.1045   -6.5837   27.8935 H   0  0  0  0  0  0  0  0  0  0  0  0
    8.1871   -6.1952   28.3427 C   0  0  0  0  0  0  0  0  0  0  0  0
    8.2352   -6.9515   29.1115 H   0  0  0  0  0  0  0  0  0  0  0  0
  1  2  1  0
  2  3  2  0
  3  4  1  0
  4  5  1  0
  5  6  1  0
  6  7  1  0
  6  8  1  0
  6  9  1  0
  9 10  1  0
  9 11  1  0
  9 12  1  0
 12 13  1  0
 13 14  1  1
 13 15  1  0
 13 16  1  0
 16 17  1  0
 16 18  1  0
 16 19  1  0
 19 20  2  0
 20 21  1  0
 20 22  1  0
 22 23  2  0
 23 24  1  0
 23 25  1  0
 25 26  1  0
 25 27  2  0
 27 28  1  0
 12 29  1  0
 29 30  1  0
 29 31  1  0
 29 32  1  0
 32 33  1  0
 32 34  1  0
  4 35  2  0
 35 36  1  0
 35 37  1  0
 37 38  1  0
 37 39  2  0
 39 40  1  0
 39  2  1  0
 32  5  1  0
 27 19  1  0
M  END
>  <cnnaffinity>  (1) 
-5.21469

>  <filename>  (1) 
Br[C@H](Cc1cccnc1)N1CCN(c2ccccn2)CC1

$$$$
