
     RDKit          3D

 23 24  0  0  0  0  0  0  0  0999 V2000
    9.6740   -4.5078   24.5778 H   0  0  0  0  0  0  0  0  0  0  0  0
    8.9546   -3.9761   23.9628 C   0  0  0  0  0  0  0  0  0  0  0  0
    7.6548   -4.0967   24.1194 N   0  0  0  0  0  0  0  0  0  0  0  0
    6.9811   -3.3373   23.1673 C   0  0  0  0  0  0  0  0  0  0  0  0
    5.8986   -3.3324   23.0894 H   0  0  0  0  0  0  0  0  0  0  0  0
    7.7722   -2.6288   22.2982 C   0  0  0  0  0  0  0  0  0  0  0  0
    7.2743   -1.8762   21.0871 C   0  0  0  0  0  0  0  0  0  0  0  0
    7.9210   -2.1325   20.2461 H   0  0  0  0  0  0  0  0  0  0  0  0
    6.2527   -2.2059   20.8660 H   0  0  0  0  0  0  0  0  0  0  0  0
    7.2615   -0.3497   21.2250 C   0  0  1  0  0  0  0  0  0  0  0  0
    6.7467   -0.0605   22.1535 H   0  0  0  0  0  0  0  0  0  0  0  0
    9.1098    0.3766   21.2732 Br  0  0  0  0  0  0  0  0  0  0  0  0
    6.5637    0.2313   20.0106 C   0  0  0  0  0  0  0  0  0  0  0  0
    7.1486    0.1539   18.7306 C   0  0  0  0  0  0  0  0  0  0  0  0
    8.0994   -0.3616   18.6191 H   0  0  0  0  0  0  0  0  0  0  0  0
    6.5873    0.6826   17.6273 N   0  0  0  0  0  0  0  0  0  0  0  0
    5.4084    1.3155   17.7646 C   0  0  0  0  0  0  0  0  0  0  0  0
    4.9526    1.7758   16.8948 H   0  0  0  0  0  0  0  0  0  0  0  0
    4.7439    1.3959   18.9905 C   0  0  0  0  0  0  0  0  0  0  0  0
    3.7906    1.9048   19.0409 H   0  0  0  0  0  0  0  0  0  0  0  0
    5.3175    0.8459   20.1336 C   0  0  0  0  0  0  0  0  0  0  0  0
    4.8195    0.9044   21.0988 H   0  0  0  0  0  0  0  0  0  0  0  0
    9.4525   -2.8867   22.6772 S   0  0  0  0  0  0  0  0  0  0  0  0
  1  2  1  0
  2  3  2  0
  3  4  1  0
  4  5  1  0
  4  6  2  0
  6  7  1  0
  7  8  1  0
  7  9  1  0
  7 10  1  0
 10 11  1  1
 10 12  1  0
 10 13  1  0
 13 14  2  0
 14 15  1  0
 14 16  1  0
 16 17  2  0
 17 18  1  0
 17 19  1  0
 19 20  1  0
 19 21  2  0
 21 22  1  0
  6 23  1  0
 23  2  1  0
 21 13  1  0
M  END
>  <cnnaffinity>  (1) 
-4.94619

>  <filename>  (1) 
Br[C@H](Cc1cncs1)c1cccnc1

$$$$
