
     RDKit          3D

 31 33  0  0  0  0  0  0  0  0999 V2000
    4.9217    1.8839   16.9711 H   0  0  0  0  0  0  0  0  0  0  0  0
    5.4005    1.3225   17.7656 C   0  0  0  0  0  0  0  0  0  0  0  0
    6.5453    0.6753   17.4917 N   0  0  0  0  0  0  0  0  0  0  0  0
    7.1428    0.0193   18.5004 C   0  0  0  0  0  0  0  0  0  0  0  0
    8.0813   -0.4850   18.2964 H   0  0  0  0  0  0  0  0  0  0  0  0
    6.6297   -0.0336   19.8076 C   0  0  0  0  0  0  0  0  0  0  0  0
    7.3759   -0.7804   20.8925 C   0  0  0  0  0  0  0  0  0  0  0  0
    8.2983   -1.2263   20.5000 H   0  0  0  0  0  0  0  0  0  0  0  0
    7.6590   -0.0726   21.6797 H   0  0  0  0  0  0  0  0  0  0  0  0
    6.5080   -1.8865   21.4890 C   0  0  1  0  0  0  0  0  0  0  0  0
    5.6281   -1.4191   21.9286 H   0  0  0  0  0  0  0  0  0  0  0  0
    5.8929   -3.1446   20.0782 Br  0  0  0  0  0  0  0  0  0  0  0  0
    7.2393   -2.6264   22.5807 C   0  0  0  0  0  0  0  0  0  0  0  0
    6.6526   -2.9501   23.7752 C   0  0  0  0  0  0  0  0  0  0  0  0
    5.6328   -2.7528   24.0814 H   0  0  0  0  0  0  0  0  0  0  0  0
    7.6531   -3.5556   24.6155 C   0  0  0  0  0  0  0  0  0  0  0  0
    7.5544   -4.0076   25.9292 C   0  0  0  0  0  0  0  0  0  0  0  0
    6.6005   -3.9388   26.4476 H   0  0  0  0  0  0  0  0  0  0  0  0
    8.6952   -4.5313   26.5492 C   0  0  0  0  0  0  0  0  0  0  0  0
    8.6338   -4.8748   27.5800 H   0  0  0  0  0  0  0  0  0  0  0  0
    9.9137   -4.5948   25.8431 C   0  0  0  0  0  0  0  0  0  0  0  0
   10.7941   -4.9919   26.3411 H   0  0  0  0  0  0  0  0  0  0  0  0
    9.9964   -4.1290   24.5156 C   0  0  0  0  0  0  0  0  0  0  0  0
   10.9433   -4.1654   23.9808 H   0  0  0  0  0  0  0  0  0  0  0  0
    8.8452   -3.6071   23.9036 C   0  0  0  0  0  0  0  0  0  0  0  0
    8.5726   -3.0570   22.6530 N   0  0  0  0  0  0  0  0  0  0  0  0
    9.2692   -2.9340   21.9216 H   0  0  0  0  0  0  0  0  0  0  0  0
    5.4204    0.6136   20.0797 C   0  0  0  0  0  0  0  0  0  0  0  0
    4.9780    0.5927   21.0770 H   0  0  0  0  0  0  0  0  0  0  0  0
    4.8089    1.3055   19.0348 C   0  0  0  0  0  0  0  0  0  0  0  0
    3.8924    1.8586   19.1953 H   0  0  0  0  0  0  0  0  0  0  0  0
  1  2  1  0
  2  3  2  0
  3  4  1  0
  4  5  1  0
  4  6  2  0
  6  7  1  0
  7  8  1  0
  7  9  1  0
  7 10  1  0
 10 11  1  1
 10 12  1  0
 10 13  1  0
 13 14  2  0
 14 15  1  0
 14 16  1  0
 16 17  2  0
 17 18  1  0
 17 19  1  0
 19 20  1  0
 19 21  2  0
 21 22  1  0
 21 23  1  0
 23 24  1  0
 23 25  2  0
 25 26  1  0
 26 27  1  0
  6 28  1  0
 28 29  1  0
 28 30  2  0
 30 31  1  0
 30  2  1  0
 26 13  1  0
 25 16  1  0
M  END
>  <cnnaffinity>  (1) 
-4.843

>  <filename>  (1) 
Br[C@H](Cc1cccnc1)c1cc2ccccc2[nH]1

$$$$
