
     RDKit          3D

 24 25  0  0  0  0  0  0  0  0999 V2000
    4.9229    1.8706   16.9873 H   0  0  0  0  0  0  0  0  0  0  0  0
    5.4055    1.3100   17.7827 C   0  0  0  0  0  0  0  0  0  0  0  0
    6.5522    0.6596   17.5174 N   0  0  0  0  0  0  0  0  0  0  0  0
    7.1427   -0.0017   18.5269 C   0  0  0  0  0  0  0  0  0  0  0  0
    8.0862   -0.4927   18.3213 H   0  0  0  0  0  0  0  0  0  0  0  0
    6.6197   -0.0580   19.8343 C   0  0  0  0  0  0  0  0  0  0  0  0
    7.3695   -0.7809   20.9312 C   0  0  0  0  0  0  0  0  0  0  0  0
    8.2926   -1.2121   20.5433 H   0  0  0  0  0  0  0  0  0  0  0  0
    7.6383   -0.0567   21.7116 H   0  0  0  0  0  0  0  0  0  0  0  0
    6.5385   -1.9107   21.5364 C   0  0  1  0  0  0  0  0  0  0  0  0
    5.6872   -1.4446   22.0109 H   0  0  0  0  0  0  0  0  0  0  0  0
    5.8523   -3.1842   20.1568 Br  0  0  0  0  0  0  0  0  0  0  0  0
    7.2878   -2.6548   22.6157 C   0  0  0  0  0  0  0  0  0  0  0  0
    8.6064   -3.0560   22.6095 O   0  0  0  0  0  0  0  0  0  0  0  0
    8.8664   -3.6293   23.8359 C   0  0  0  0  0  0  0  0  0  0  0  0
    9.8304   -4.0489   24.1362 H   0  0  0  0  0  0  0  0  0  0  0  0
    7.7386   -3.6143   24.6123 C   0  0  0  0  0  0  0  0  0  0  0  0
    7.6373   -3.9933   25.6275 H   0  0  0  0  0  0  0  0  0  0  0  0
    6.7181   -2.9820   23.8139 C   0  0  0  0  0  0  0  0  0  0  0  0
    5.6960   -2.7756   24.1126 H   0  0  0  0  0  0  0  0  0  0  0  0
    5.4175    0.5993   20.0981 C   0  0  0  0  0  0  0  0  0  0  0  0
    4.9803    0.5873   21.0974 H   0  0  0  0  0  0  0  0  0  0  0  0
    4.8119    1.2941   19.0510 C   0  0  0  0  0  0  0  0  0  0  0  0
    3.8982    1.8512   19.2125 H   0  0  0  0  0  0  0  0  0  0  0  0
  1  2  1  0
  2  3  2  0
  3  4  1  0
  4  5  1  0
  4  6  2  0
  6  7  1  0
  7  8  1  0
  7  9  1  0
  7 10  1  0
 10 11  1  1
 10 12  1  0
 10 13  1  0
 13 14  1  0
 14 15  1  0
 15 16  1  0
 15 17  2  0
 17 18  1  0
 17 19  1  0
 19 20  1  0
  6 21  1  0
 21 22  1  0
 21 23  2  0
 23 24  1  0
 23  2  1  0
 19 13  2  0
M  END
>  <cnnaffinity>  (1) 
-4.15194

>  <filename>  (1) 
Br[C@H](Cc1cccnc1)c1ccco1

$$$$
