
     RDKit          3D

 24 25  0  0  0  0  0  0  0  0999 V2000
    8.4343   -0.9219   22.9414 H   0  0  0  0  0  0  0  0  0  0  0  0
    7.8101   -0.9113   22.0555 C   0  0  0  0  0  0  0  0  0  0  0  0
    8.0712    0.0111   21.0525 C   0  0  0  0  0  0  0  0  0  0  0  0
    9.6339    1.1058   21.1315 Br  0  0  0  0  0  0  0  0  0  0  0  0
    7.1350    0.2782   19.9630 C   0  0  0  0  0  0  0  0  0  0  0  0
    7.5516    0.2774   18.6238 C   0  0  0  0  0  0  0  0  0  0  0  0
    8.5776    0.0052   18.4025 H   0  0  0  0  0  0  0  0  0  0  0  0
    6.7463    0.6395   17.6059 N   0  0  0  0  0  0  0  0  0  0  0  0
    5.5091    1.0778   17.9030 C   0  0  0  0  0  0  0  0  0  0  0  0
    4.8688    1.4350   17.1017 H   0  0  0  0  0  0  0  0  0  0  0  0
    5.0242    1.1152   19.2165 C   0  0  0  0  0  0  0  0  0  0  0  0
    4.0304    1.4967   19.4132 H   0  0  0  0  0  0  0  0  0  0  0  0
    5.8409    0.6947   20.2631 C   0  0  0  0  0  0  0  0  0  0  0  0
    5.5029    0.7521   21.2988 H   0  0  0  0  0  0  0  0  0  0  0  0
    6.8048   -1.9740   21.9536 C   0  0  0  0  0  0  0  0  0  0  0  0
    6.4251   -2.4638   20.7097 C   0  0  0  0  0  0  0  0  0  0  0  0
    6.8523   -2.0311   19.8138 H   0  0  0  0  0  0  0  0  0  0  0  0
    5.5723   -3.5602   20.6248 C   0  0  0  0  0  0  0  0  0  0  0  0
    5.3040   -3.9447   19.6427 H   0  0  0  0  0  0  0  0  0  0  0  0
    5.0651   -4.1645   21.7135 N   0  0  0  0  0  0  0  0  0  0  0  0
    5.4052   -3.6937   22.9252 C   0  0  0  0  0  0  0  0  0  0  0  0
    4.9907   -4.1817   23.8090 H   0  0  0  0  0  0  0  0  0  0  0  0
    6.2679   -2.6039   23.0769 C   0  0  0  0  0  0  0  0  0  0  0  0
    6.4909   -2.2344   24.0681 H   0  0  0  0  0  0  0  0  0  0  0  0
  1  2  1  0
  2  3  2  3
  3  4  1  0
  3  5  1  0
  5  6  2  0
  6  7  1  0
  6  8  1  0
  8  9  2  0
  9 10  1  0
  9 11  1  0
 11 12  1  0
 11 13  2  0
 13 14  1  0
  2 15  1  0
 15 16  2  0
 16 17  1  0
 16 18  1  0
 18 19  1  0
 18 20  2  0
 20 21  1  0
 21 22  1  0
 21 23  2  0
 23 24  1  0
 13  5  1  0
 23 15  1  0
M  END
>  <cnnaffinity>  (1) 
-4.75565

>  <filename>  (1) 
BrC(=Cc1ccncc1)c1cccnc1

$$$$
