
     RDKit          3D

 38 40  0  0  0  0  0  0  0  0999 V2000
    5.7468   -0.7190   21.3535 H   0  0  0  0  0  0  0  0  0  0  0  0
    6.4296   -0.3341   20.5972 C   0  0  0  0  0  0  0  0  0  0  0  0
    7.7843   -0.3402   20.8777 C   0  0  0  0  0  0  0  0  0  0  0  0
    9.0613    0.3708   19.6421 Br  0  0  0  0  0  0  0  0  0  0  0  0
    8.3041   -0.8111   22.0815 N   0  0  0  0  0  0  0  0  0  0  0  0
    7.4849   -0.9088   23.3169 C   0  0  0  0  0  0  0  0  0  0  0  0
    6.7921   -0.0634   23.3808 H   0  0  0  0  0  0  0  0  0  0  0  0
    6.8987   -1.8314   23.2865 H   0  0  0  0  0  0  0  0  0  0  0  0
    8.3915   -0.9134   24.5735 C   0  0  0  0  0  0  0  0  0  0  0  0
    7.7826   -1.0763   25.4734 H   0  0  0  0  0  0  0  0  0  0  0  0
    8.8697    0.0718   24.6548 H   0  0  0  0  0  0  0  0  0  0  0  0
    9.4541   -1.9466   24.4562 N   0  0  0  0  0  0  0  0  0  0  0  0
    9.5503   -2.9714   25.3915 C   0  0  0  0  0  0  0  0  0  0  0  0
    8.7761   -2.9162   26.4776 N   0  0  0  0  0  0  0  0  0  0  0  0
    8.8461   -3.9319   27.3378 C   0  0  0  0  0  0  0  0  0  0  0  0
    8.2120   -3.9211   28.2168 H   0  0  0  0  0  0  0  0  0  0  0  0
    9.7032   -5.0099   27.1593 C   0  0  0  0  0  0  0  0  0  0  0  0
    9.6883   -5.7764   27.9104 H   0  0  0  0  0  0  0  0  0  0  0  0
   10.5316   -5.0748   26.0480 C   0  0  0  0  0  0  0  0  0  0  0  0
   11.1848   -5.9232   25.8516 H   0  0  0  0  0  0  0  0  0  0  0  0
   10.4374   -4.0231   25.1536 C   0  0  0  0  0  0  0  0  0  0  0  0
   11.0240   -4.0035   24.2496 H   0  0  0  0  0  0  0  0  0  0  0  0
   10.1108   -2.1100   23.1320 C   0  0  0  0  0  0  0  0  0  0  0  0
   11.1974   -2.1859   23.2294 H   0  0  0  0  0  0  0  0  0  0  0  0
    9.7574   -3.0309   22.6569 H   0  0  0  0  0  0  0  0  0  0  0  0
    9.7750   -0.9356   22.2141 C   0  0  0  0  0  0  0  0  0  0  0  0
   10.2420   -1.1089   21.2383 H   0  0  0  0  0  0  0  0  0  0  0  0
   10.1943   -0.0114   22.6276 H   0  0  0  0  0  0  0  0  0  0  0  0
    5.9112    0.2855   19.3586 C   0  0  0  0  0  0  0  0  0  0  0  0
    6.7415    0.4472   18.2286 C   0  0  0  0  0  0  0  0  0  0  0  0
    7.7053   -0.0386   18.2113 H   0  0  0  0  0  0  0  0  0  0  0  0
    6.4130    1.1703   17.1460 N   0  0  0  0  0  0  0  0  0  0  0  0
    5.2163    1.7682   17.1516 C   0  0  0  0  0  0  0  0  0  0  0  0
    4.9609    2.4055   16.3096 H   0  0  0  0  0  0  0  0  0  0  0  0
    4.2923    1.5919   18.1916 C   0  0  0  0  0  0  0  0  0  0  0  0
    3.3332    2.0868   18.1277 H   0  0  0  0  0  0  0  0  0  0  0  0
    4.6249    0.8197   19.3062 C   0  0  0  0  0  0  0  0  0  0  0  0
    3.9225    0.6909   20.1281 H   0  0  0  0  0  0  0  0  0  0  0  0
  1  2  1  0
  2  3  2  3
  3  4  1  0
  3  5  1  0
  5  6  1  0
  6  7  1  0
  6  8  1  0
  6  9  1  0
  9 10  1  0
  9 11  1  0
  9 12  1  0
 12 13  1  0
 13 14  2  0
 14 15  1  0
 15 16  1  0
 15 17  2  0
 17 18  1  0
 17 19  1  0
 19 20  1  0
 19 21  2  0
 21 22  1  0
 12 23  1  0
 23 24  1  0
 23 25  1  0
 23 26  1  0
 26 27  1  0
 26 28  1  0
  2 29  1  0
 29 30  2  0
 30 31  1  0
 30 32  1  0
 32 33  2  0
 33 34  1  0
 33 35  1  0
 35 36  1  0
 35 37  2  0
 37 38  1  0
 26  5  1  0
 37 29  1  0
 21 13  1  0
M  END
>  <cnnaffinity>  (1) 
-5.32712

>  <filename>  (1) 
BrC(=Cc1cccnc1)N1CCN(c2ccccn2)CC1

$$$$
