
     RDKit          3D

 28 30  0  0  0  0  0  0  0  0999 V2000
    6.6828   -1.4580   21.5593 H   0  0  0  0  0  0  0  0  0  0  0  0
    7.2597   -0.7185   21.0074 C   0  0  0  0  0  0  0  0  0  0  0  0
    8.5536   -0.4821   21.4098 C   0  0  0  0  0  0  0  0  0  0  0  0
    9.6116    0.8807   20.6169 Br  0  0  0  0  0  0  0  0  0  0  0  0
    9.1398   -1.2915   22.4600 C   0  0  0  0  0  0  0  0  0  0  0  0
   10.4434   -1.7849   22.2933 C   0  0  0  0  0  0  0  0  0  0  0  0
   11.0228   -1.4607   21.4325 H   0  0  0  0  0  0  0  0  0  0  0  0
   10.9715   -2.7174   23.1983 C   0  0  0  0  0  0  0  0  0  0  0  0
   11.9416   -3.1848   23.0370 H   0  0  0  0  0  0  0  0  0  0  0  0
   10.2340   -3.0213   24.3472 C   0  0  0  0  0  0  0  0  0  0  0  0
    8.9841   -2.4704   24.5502 C   0  0  0  0  0  0  0  0  0  0  0  0
    8.3925   -1.6481   23.5916 C   0  0  0  0  0  0  0  0  0  0  0  0
    7.3817   -1.2749   23.7394 H   0  0  0  0  0  0  0  0  0  0  0  0
    8.4703   -2.8535   25.7439 O   0  0  0  0  0  0  0  0  0  0  0  0
    9.5057   -3.6451   26.3529 C   0  0  0  0  0  0  0  0  0  0  0  0
    9.0836   -4.6027   26.6822 H   0  0  0  0  0  0  0  0  0  0  0  0
    9.9200   -3.1125   27.2187 H   0  0  0  0  0  0  0  0  0  0  0  0
   10.5527   -3.8429   25.3810 O   0  0  0  0  0  0  0  0  0  0  0  0
    6.6219   -0.0074   19.9012 C   0  0  0  0  0  0  0  0  0  0  0  0
    7.1889    0.0663   18.6141 C   0  0  0  0  0  0  0  0  0  0  0  0
    8.1397   -0.4223   18.4256 H   0  0  0  0  0  0  0  0  0  0  0  0
    6.5914    0.7008   17.5858 N   0  0  0  0  0  0  0  0  0  0  0  0
    5.4143    1.3107   17.8180 C   0  0  0  0  0  0  0  0  0  0  0  0
    4.9140    1.8320   17.0081 H   0  0  0  0  0  0  0  0  0  0  0  0
    4.8059    1.3028   19.0751 C   0  0  0  0  0  0  0  0  0  0  0  0
    3.8713    1.8298   19.2185 H   0  0  0  0  0  0  0  0  0  0  0  0
    5.4108    0.6309   20.1326 C   0  0  0  0  0  0  0  0  0  0  0  0
    4.9701    0.6240   21.1266 H   0  0  0  0  0  0  0  0  0  0  0  0
  1  2  1  0
  2  3  2  3
  3  4  1  0
  3  5  1  0
  5  6  2  0
  6  7  1  0
  6  8  1  0
  8  9  1  0
  8 10  2  0
 10 11  1  0
 11 12  2  0
 12 13  1  0
 11 14  1  0
 14 15  1  0
 15 16  1  0
 15 17  1  0
 15 18  1  0
  2 19  1  0
 19 20  2  0
 20 21  1  0
 20 22  1  0
 22 23  2  0
 23 24  1  0
 23 25  1  0
 25 26  1  0
 25 27  2  0
 27 28  1  0
 12  5  1  0
 27 19  1  0
 18 10  1  0
M  END
>  <cnnaffinity>  (1) 
-4.9718

>  <filename>  (1) 
BrC(=Cc1cccnc1)c1ccc2c(c1)OCO2

$$$$
