
     RDKit          3D

 29 31  0  0  0  0  0  0  0  0999 V2000
    5.7294   -1.0653   21.9419 H   0  0  0  0  0  0  0  0  0  0  0  0
    6.7913   -1.2715   21.9442 C   0  0  0  0  0  0  0  0  0  0  0  0
    7.4579   -0.8049   20.8254 C   0  0  0  0  0  0  0  0  0  0  0  0
    9.3465   -1.0253   20.5806 Br  0  0  0  0  0  0  0  0  0  0  0  0
    6.7158   -0.0798   19.7839 C   0  0  0  0  0  0  0  0  0  0  0  0
    7.2877    0.0782   18.5132 C   0  0  0  0  0  0  0  0  0  0  0  0
    8.2574   -0.3694   18.3206 H   0  0  0  0  0  0  0  0  0  0  0  0
    6.7065    0.7613   17.5130 N   0  0  0  0  0  0  0  0  0  0  0  0
    5.5143    1.3351   17.7515 C   0  0  0  0  0  0  0  0  0  0  0  0
    5.0353    1.9032   16.9597 H   0  0  0  0  0  0  0  0  0  0  0  0
    4.8717    1.2236   18.9883 C   0  0  0  0  0  0  0  0  0  0  0  0
    3.9233    1.7239   19.1367 H   0  0  0  0  0  0  0  0  0  0  0  0
    5.4650    0.5013   20.0229 C   0  0  0  0  0  0  0  0  0  0  0  0
    4.9867    0.4243   20.9986 H   0  0  0  0  0  0  0  0  0  0  0  0
    7.3436   -2.0182   23.0979 C   0  0  0  0  0  0  0  0  0  0  0  0
    6.5226   -2.2531   24.2291 C   0  0  0  0  0  0  0  0  0  0  0  0
    5.5103   -1.8669   24.2861 H   0  0  0  0  0  0  0  0  0  0  0  0
    6.9861   -3.0009   25.3192 C   0  0  0  0  0  0  0  0  0  0  0  0
    6.3469   -3.1855   26.1753 H   0  0  0  0  0  0  0  0  0  0  0  0
    8.2703   -3.5353   25.2837 C   0  0  0  0  0  0  0  0  0  0  0  0
    9.0986   -3.2969   24.1950 C   0  0  0  0  0  0  0  0  0  0  0  0
    8.6560   -2.5454   23.1006 C   0  0  0  0  0  0  0  0  0  0  0  0
    9.3362   -2.4096   22.2674 H   0  0  0  0  0  0  0  0  0  0  0  0
   10.3650   -3.9546   24.4690 C   0  0  0  0  0  0  0  0  0  0  0  0
   11.2474   -3.9113   23.8381 H   0  0  0  0  0  0  0  0  0  0  0  0
   10.2450   -4.5985   25.6775 C   0  0  0  0  0  0  0  0  0  0  0  0
   11.0202   -5.1764   26.1683 H   0  0  0  0  0  0  0  0  0  0  0  0
    8.9638   -4.3476   26.1647 N   0  0  0  0  0  0  0  0  0  0  0  0
    8.5559   -4.7824   26.9927 H   0  0  0  0  0  0  0  0  0  0  0  0
  1  2  1  0
  2  3  2  3
  3  4  1  0
  3  5  1  0
  5  6  2  0
  6  7  1  0
  6  8  1  0
  8  9  2  0
  9 10  1  0
  9 11  1  0
 11 12  1  0
 11 13  2  0
 13 14  1  0
  2 15  1  0
 15 16  2  0
 16 17  1  0
 16 18  1  0
 18 19  1  0
 18 20  2  0
 20 21  1  0
 21 22  2  0
 22 23  1  0
 21 24  1  0
 24 25  1  0
 24 26  2  0
 26 27  1  0
 26 28  1  0
 28 29  1  0
 13  5  1  0
 22 15  1  0
 28 20  1  0
M  END
>  <cnnaffinity>  (1) 
-4.34772

>  <filename>  (1) 
BrC(=Cc1ccc2[nH]ccc2c1)c1cccnc1

$$$$
