
     RDKit          3D

 30 32  0  0  0  0  0  0  0  0999 V2000
    5.7137   -0.9616   21.3198 H   0  0  0  0  0  0  0  0  0  0  0  0
    6.3806   -0.2370   20.8613 C   0  0  0  0  0  0  0  0  0  0  0  0
    7.5876    0.0262   21.4900 C   0  0  0  0  0  0  0  0  0  0  0  0
    8.7441    1.4037   20.8333 Br  0  0  0  0  0  0  0  0  0  0  0  0
    7.9971   -0.7873   22.6395 C   0  0  0  0  0  0  0  0  0  0  0  0
    7.0924   -1.0892   23.6708 C   0  0  0  0  0  0  0  0  0  0  0  0
    6.1210   -0.6065   23.6655 H   0  0  0  0  0  0  0  0  0  0  0  0
    7.3614   -1.9724   24.6444 N   0  0  0  0  0  0  0  0  0  0  0  0
    8.5393   -2.6119   24.6103 C   0  0  0  0  0  0  0  0  0  0  0  0
    8.7447   -3.6337   25.5359 C   0  0  0  0  0  0  0  0  0  0  0  0
    7.9728   -3.8687   26.2608 H   0  0  0  0  0  0  0  0  0  0  0  0
    9.9208   -4.3790   25.5149 C   0  0  0  0  0  0  0  0  0  0  0  0
   10.0513   -5.1997   26.2108 H   0  0  0  0  0  0  0  0  0  0  0  0
   10.9255   -4.0620   24.6020 C   0  0  0  0  0  0  0  0  0  0  0  0
   11.8565   -4.6133   24.6027 H   0  0  0  0  0  0  0  0  0  0  0  0
   10.7383   -3.0438   23.6679 C   0  0  0  0  0  0  0  0  0  0  0  0
   11.5204   -2.8389   22.9452 H   0  0  0  0  0  0  0  0  0  0  0  0
    9.5366   -2.3232   23.6499 C   0  0  0  0  0  0  0  0  0  0  0  0
    9.2752   -1.3615   22.6714 C   0  0  0  0  0  0  0  0  0  0  0  0
   10.0126   -1.1344   21.9025 H   0  0  0  0  0  0  0  0  0  0  0  0
    5.9558    0.3973   19.6035 C   0  0  0  0  0  0  0  0  0  0  0  0
    6.7901    0.4252   18.4636 C   0  0  0  0  0  0  0  0  0  0  0  0
    7.7510   -0.0751   18.5102 H   0  0  0  0  0  0  0  0  0  0  0  0
    6.4475    1.0178   17.3033 N   0  0  0  0  0  0  0  0  0  0  0  0
    5.2538    1.6299   17.2557 C   0  0  0  0  0  0  0  0  0  0  0  0
    4.9805    2.1576   16.3483 H   0  0  0  0  0  0  0  0  0  0  0  0
    4.3519    1.6226   18.3288 C   0  0  0  0  0  0  0  0  0  0  0  0
    3.3992    2.1271   18.2212 H   0  0  0  0  0  0  0  0  0  0  0  0
    4.6938    0.9835   19.5191 C   0  0  0  0  0  0  0  0  0  0  0  0
    4.0081    0.9735   20.3663 H   0  0  0  0  0  0  0  0  0  0  0  0
  1  2  1  0
  2  3  2  3
  3  4  1  0
  3  5  1  0
  5  6  2  0
  6  7  1  0
  6  8  1  0
  8  9  2  0
  9 10  1  0
 10 11  1  0
 10 12  2  0
 12 13  1  0
 12 14  1  0
 14 15  1  0
 14 16  2  0
 16 17  1  0
 16 18  1  0
 18 19  2  0
 19 20  1  0
  2 21  1  0
 21 22  2  0
 22 23  1  0
 22 24  1  0
 24 25  2  0
 25 26  1  0
 25 27  1  0
 27 28  1  0
 27 29  2  0
 29 30  1  0
 19  5  1  0
 29 21  1  0
 18  9  1  0
M  END
>  <cnnaffinity>  (1) 
-5.34109

>  <filename>  (1) 
BrC(=Cc1cccnc1)c1cnc2ccccc2c1

$$$$
