
     RDKit          3D

 22 23  0  0  0  0  0  0  0  0999 V2000
    7.6078   -1.7836   20.7038 H   0  0  0  0  0  0  0  0  0  0  0  0
    7.3662   -0.7452   20.9181 C   0  0  0  0  0  0  0  0  0  0  0  0
    7.7428   -0.1992   22.1248 C   0  0  0  0  0  0  0  0  0  0  0  0
    7.4426    1.6580   22.5006 Br  0  0  0  0  0  0  0  0  0  0  0  0
    8.4406   -1.0201   23.1147 C   0  0  0  0  0  0  0  0  0  0  0  0
    8.4353   -0.7498   24.4646 C   0  0  0  0  0  0  0  0  0  0  0  0
    7.9054    0.0846   24.9138 H   0  0  0  0  0  0  0  0  0  0  0  0
    9.3600   -1.9160   25.3955 S   0  0  0  0  0  0  0  0  0  0  0  0
    9.7809   -2.7816   23.9205 C   0  0  0  0  0  0  0  0  0  0  0  0
   10.4155   -3.6655   23.9066 H   0  0  0  0  0  0  0  0  0  0  0  0
    9.2285   -2.2085   22.7986 C   0  0  0  0  0  0  0  0  0  0  0  0
    9.3798   -2.5781   21.7834 H   0  0  0  0  0  0  0  0  0  0  0  0
    6.6595    0.0066   19.8863 C   0  0  0  0  0  0  0  0  0  0  0  0
    7.1786    0.0547   18.5829 C   0  0  0  0  0  0  0  0  0  0  0  0
    8.1265   -0.4424   18.3922 H   0  0  0  0  0  0  0  0  0  0  0  0
    6.5678    0.6807   17.5664 N   0  0  0  0  0  0  0  0  0  0  0  0
    5.4002    1.2979   17.8307 C   0  0  0  0  0  0  0  0  0  0  0  0
    4.8880    1.7904   17.0129 H   0  0  0  0  0  0  0  0  0  0  0  0
    4.8203    1.3124   19.1083 C   0  0  0  0  0  0  0  0  0  0  0  0
    3.8796    1.8359   19.2637 H   0  0  0  0  0  0  0  0  0  0  0  0
    5.4542    0.6581   20.1642 C   0  0  0  0  0  0  0  0  0  0  0  0
    5.0142    0.6320   21.1630 H   0  0  0  0  0  0  0  0  0  0  0  0
  1  2  1  0
  2  3  2  3
  3  4  1  0
  3  5  1  0
  5  6  2  0
  6  7  1  0
  6  8  1  0
  8  9  1  0
  9 10  1  0
  9 11  2  0
 11 12  1  0
  2 13  1  0
 13 14  2  0
 14 15  1  0
 14 16  1  0
 16 17  2  0
 17 18  1  0
 17 19  1  0
 19 20  1  0
 19 21  2  0
 21 22  1  0
 11  5  1  0
 21 13  1  0
M  END
>  <cnnaffinity>  (1) 
-4.49872

>  <filename>  (1) 
BrC(=Cc1cccnc1)c1ccsc1

$$$$
