
     RDKit          3D

 37 41  0  0  0  0  0  0  0  0999 V2000
    7.6342   -4.5577   22.5066 Br  0  0  0  0  0  0  0  0  0  0  0  0
    7.7664   -4.1818   24.3734 C   0  0  0  0  0  0  0  0  0  0  0  0
    7.7396   -5.2300   25.2973 C   0  0  0  0  0  0  0  0  0  0  0  0
    7.8526   -4.9604   26.6667 C   0  0  0  0  0  0  0  0  0  0  0  0
    8.0010   -3.7162   27.1469 N   0  0  0  0  0  0  0  0  0  0  0  0
    8.0058   -2.7312   26.2454 C   0  0  0  0  0  0  0  0  0  0  0  0
    7.8773   -2.8836   24.8697 C   0  0  0  0  0  0  0  0  0  0  0  0
    7.8613   -1.5288   24.2825 C   0  0  0  0  0  0  0  0  0  0  0  0
    7.7088   -1.2055   22.8473 C   0  0  0  0  0  0  0  0  0  0  0  0
    6.8490   -0.4098   22.2702 N   0  0  0  0  0  0  0  0  0  0  0  0
    7.1538   -0.5340   20.9182 C   0  0  0  0  0  0  0  0  0  0  0  0
    6.4650    0.1303   19.8366 C   0  0  0  0  0  0  0  0  0  0  0  0
    5.2543    0.8044   20.0133 C   0  0  0  0  0  0  0  0  0  0  0  0
    4.7215    1.4398   18.8965 C   0  0  0  0  0  0  0  0  0  0  0  0
    5.3874    1.3759   17.6682 C   0  0  0  0  0  0  0  0  0  0  0  0
    6.5256    0.6850   17.4949 N   0  0  0  0  0  0  0  0  0  0  0  0
    7.0486    0.0742   18.5654 C   0  0  0  0  0  0  0  0  0  0  0  0
    7.9668   -0.4849   18.4078 H   0  0  0  0  0  0  0  0  0  0  0  0
    4.9693    1.9099   16.8227 H   0  0  0  0  0  0  0  0  0  0  0  0
    3.7996    2.0030   18.9695 H   0  0  0  0  0  0  0  0  0  0  0  0
    4.7478    0.8343   20.9808 H   0  0  0  0  0  0  0  0  0  0  0  0
    8.1577   -1.3242   20.6475 N   0  0  0  0  0  0  0  0  0  0  0  0
    8.5139   -1.7483   21.8724 N   0  0  0  0  0  0  0  0  0  0  0  0
    9.7435   -2.4688   22.1612 C   0  0  0  0  0  0  0  0  0  0  0  0
   10.4760   -2.0493   23.4249 C   0  0  0  0  0  0  0  0  0  0  0  0
   11.1141   -1.7991   22.0646 C   0  0  0  0  0  0  0  0  0  0  0  0
   11.9746   -2.4099   21.7671 H   0  0  0  0  0  0  0  0  0  0  0  0
   11.1718   -0.7638   21.7225 H   0  0  0  0  0  0  0  0  0  0  0  0
   10.0648   -1.1924   23.9740 H   0  0  0  0  0  0  0  0  0  0  0  0
   10.9081   -2.8430   24.0382 H   0  0  0  0  0  0  0  0  0  0  0  0
    9.6457   -3.5272   21.9872 H   0  0  0  0  0  0  0  0  0  0  0  0
    8.0273   -0.6471   25.3296 C   0  0  0  0  0  0  0  0  0  0  0  0
    8.1199   -1.3922   26.5041 N   0  0  0  0  0  0  0  0  0  0  0  0
    8.2663   -1.0327   27.4422 H   0  0  0  0  0  0  0  0  0  0  0  0
    8.0903    0.4340   25.2508 H   0  0  0  0  0  0  0  0  0  0  0  0
    7.8106   -5.7893   27.3687 H   0  0  0  0  0  0  0  0  0  0  0  0
    7.6212   -6.2508   24.9616 H   0  0  0  0  0  0  0  0  0  0  0  0
  1  2  1  0
  2  3  2  0
  3  4  1  0
  4  5  2  0
  5  6  1  0
  6  7  2  0
  7  8  1  0
  8  9  1  0
  9 10  2  0
 10 11  1  0
 11 12  1  0
 12 13  2  0
 13 14  1  0
 14 15  2  0
 15 16  1  0
 16 17  2  0
 17 18  1  0
 15 19  1  0
 14 20  1  0
 13 21  1  0
 11 22  2  0
 22 23  1  0
 23 24  1  0
 24 25  1  0
 25 26  1  0
 26 27  1  0
 26 28  1  0
 25 29  1  0
 25 30  1  0
 24 31  1  0
  8 32  2  0
 32 33  1  0
 33 34  1  0
 32 35  1  0
  4 36  1  0
  3 37  1  0
  7  2  1  0
 23  9  1  0
 26 24  1  0
 33  6  1  0
 17 12  1  0
M  END
>  <cnnaffinity>  (1) 
-6.19176

>  <filename>  (1) 
Brc1ccnc2[nH]cc(-c3nc(-c4cccnc4)nn3C3CC3)c12

$$$$
