
     RDKit          3D

 43 46  0  0  0  0  0  0  0  0999 V2000
   10.5963    4.1307   23.5658 Br  0  0  0  0  0  0  0  0  0  0  0  0
   11.8195    2.6664   23.6667 C   0  0  0  0  0  0  0  0  0  0  0  0
   12.9492    2.6592   22.8364 C   0  0  0  0  0  0  0  0  0  0  0  0
   13.8994    1.6378   22.9496 C   0  0  0  0  0  0  0  0  0  0  0  0
   13.6897    0.6056   23.8604 C   0  0  0  0  0  0  0  0  0  0  0  0
   12.5562    0.5965   24.6839 C   0  0  0  0  0  0  0  0  0  0  0  0
   11.6172    1.6365   24.5981 C   0  0  0  0  0  0  0  0  0  0  0  0
   10.4341    1.6932   25.5412 C   0  0  0  0  0  0  0  0  0  0  0  0
    9.6230    0.4254   25.6325 C   0  0  0  0  0  0  0  0  0  0  0  0
    9.0813    0.2349   24.2926 N   0  0  0  0  0  4  0  0  0  0  0  0
    7.8176    0.9943   24.1028 C   0  0  0  0  0  0  0  0  0  0  0  0
    7.4774    1.0261   22.6067 C   0  0  0  0  0  0  0  0  0  0  0  0
    7.5633   -0.3421   22.0495 N   0  0  0  0  0  0  0  0  0  0  0  0
    8.3153   -1.3510   22.6054 C   0  0  0  0  0  0  0  0  0  0  0  0
    8.4586   -2.3339   21.7546 N   0  0  0  0  0  0  0  0  0  0  0  0
    7.8195   -1.9532   20.6026 N   0  0  0  0  0  0  0  0  0  0  0  0
    7.2895   -0.7692   20.7763 C   0  0  0  0  0  0  0  0  0  0  0  0
    6.5849   -0.0164   19.7714 C   0  0  0  0  0  0  0  0  0  0  0  0
    5.4316    0.7132   20.0673 C   0  0  0  0  0  0  0  0  0  0  0  0
    4.8349    1.3980   19.0147 C   0  0  0  0  0  0  0  0  0  0  0  0
    5.4060    1.3478   17.7379 C   0  0  0  0  0  0  0  0  0  0  0  0
    6.5216    0.6449   17.4719 N   0  0  0  0  0  0  0  0  0  0  0  0
    7.0978   -0.0290   18.4764 C   0  0  0  0  0  0  0  0  0  0  0  0
    8.0090   -0.5866   18.2770 H   0  0  0  0  0  0  0  0  0  0  0  0
    4.9270    1.8976   16.9333 H   0  0  0  0  0  0  0  0  0  0  0  0
    3.9338    1.9784   19.1721 H   0  0  0  0  0  0  0  0  0  0  0  0
    5.0011    0.7401   21.0710 H   0  0  0  0  0  0  0  0  0  0  0  0
    8.8892   -1.2071   23.9853 C   0  0  0  0  0  0  0  0  0  0  0  0
    9.8373   -1.7530   24.0380 H   0  0  0  0  0  0  0  0  0  0  0  0
    8.1983   -1.6610   24.7027 H   0  0  0  0  0  0  0  0  0  0  0  0
    8.1988    1.6749   22.0972 H   0  0  0  0  0  0  0  0  0  0  0  0
    6.4780    1.4484   22.4645 H   0  0  0  0  0  0  0  0  0  0  0  0
    7.9117    2.0211   24.4803 H   0  0  0  0  0  0  0  0  0  0  0  0
    6.9989    0.5134   24.6517 H   0  0  0  0  0  0  0  0  0  0  0  0
    9.7760    0.6137   23.6349 H   0  0  0  0  0  0  0  0  0  0  0  0
   10.2553   -0.4089   25.9616 H   0  0  0  0  0  0  0  0  0  0  0  0
    8.8215    0.5446   26.3718 H   0  0  0  0  0  0  0  0  0  0  0  0
    9.7702    2.5239   25.2660 H   0  0  0  0  0  0  0  0  0  0  0  0
   10.8115    1.8435   26.5341 H   0  0  0  0  0  0  0  0  0  0  0  0
   12.4042   -0.2114   25.3954 H   0  0  0  0  0  0  0  0  0  0  0  0
   14.4408   -0.1703   23.9343 H   0  0  0  0  0  0  0  0  0  0  0  0
   14.8342    1.6587   22.3869 H   0  0  0  0  0  0  0  0  0  0  0  0
   13.0769    3.4640   22.1202 H   0  0  0  0  0  0  0  0  0  0  0  0
  1  2  1  0
  2  3  2  0
  3  4  1  0
  4  5  2  0
  5  6  1  0
  6  7  2  0
  7  8  1  0
  8  9  1  0
  9 10  1  0
 10 11  1  0
 11 12  1  0
 12 13  1  0
 13 14  1  0
 14 15  2  0
 15 16  1  0
 16 17  2  0
 17 18  1  0
 18 19  2  0
 19 20  1  0
 20 21  2  0
 21 22  1  0
 22 23  2  0
 23 24  1  0
 21 25  1  0
 20 26  1  0
 19 27  1  0
 14 28  1  0
 28 29  1  0
 28 30  1  0
 12 31  1  0
 12 32  1  0
 11 33  1  0
 11 34  1  0
 10 35  1  0
  9 36  1  0
  9 37  1  0
  8 38  1  0
  8 39  1  0
  6 40  1  0
  5 41  1  0
  4 42  1  0
  3 43  1  0
  7  2  1  0
 28 10  1  0
 17 13  1  0
 23 18  1  0
M  CHG  1  10   1
M  END
>  <cnnaffinity>  (1) 
-5.75677

>  <filename>  (1) 
Brc1ccccc1CC[NH+]1CCn2c(nnc2-c2cccnc2)C1

$$$$
