
     RDKit          3D

 26 28  0  0  0  0  0  0  0  0999 V2000
    4.8856    1.7972   17.0121 H   0  0  0  0  0  0  0  0  0  0  0  0
    5.4019    1.2971   17.8266 C   0  0  0  0  0  0  0  0  0  0  0  0
    6.5660    0.6705   17.5695 N   0  0  0  0  0  0  0  0  0  0  0  0
    7.1805    0.0547   18.5986 C   0  0  0  0  0  0  0  0  0  0  0  0
    8.1237   -0.4426   18.3980 H   0  0  0  0  0  0  0  0  0  0  0  0
    6.6791    0.0284   19.9178 C   0  0  0  0  0  0  0  0  0  0  0  0
    7.3684   -0.7082   21.0009 C   0  0  0  0  0  0  0  0  0  0  0  0
    8.0795   -2.2688   20.7777 S   0  0  0  0  0  0  0  0  0  0  0  0
    8.4850   -2.3842   22.4036 N   0  0  0  0  0  0  0  0  0  0  0  0
    8.1461   -1.3494   23.0796 N   0  0  0  0  0  0  0  0  0  0  0  0
    7.5256   -0.3679   22.3186 C   0  0  0  0  0  0  0  0  0  0  0  0
    7.1323    0.9049   22.9219 C   0  0  0  0  0  0  0  0  0  0  0  0
    7.3433    2.1203   22.2473 C   0  0  0  0  0  0  0  0  0  0  0  0
    7.8061    2.1381   21.2646 H   0  0  0  0  0  0  0  0  0  0  0  0
    6.9957    3.3278   22.8575 C   0  0  0  0  0  0  0  0  0  0  0  0
    7.1682    4.2662   22.3383 H   0  0  0  0  0  0  0  0  0  0  0  0
    6.4308    3.3292   24.1371 C   0  0  0  0  0  0  0  0  0  0  0  0
    6.1519    4.2656   24.6085 H   0  0  0  0  0  0  0  0  0  0  0  0
    6.2230    2.1258   24.8182 C   0  0  0  0  0  0  0  0  0  0  0  0
    5.4549    2.1277   26.5681 Br  0  0  0  0  0  0  0  0  0  0  0  0
    6.5810    0.9214   24.2102 C   0  0  0  0  0  0  0  0  0  0  0  0
    6.4197   -0.0100   24.7475 H   0  0  0  0  0  0  0  0  0  0  0  0
    5.4617    0.6689   20.1724 C   0  0  0  0  0  0  0  0  0  0  0  0
    5.0134    0.6400   21.1680 H   0  0  0  0  0  0  0  0  0  0  0  0
    4.8244    1.3120   19.1044 C   0  0  0  0  0  0  0  0  0  0  0  0
    3.8822    1.8306   19.2595 H   0  0  0  0  0  0  0  0  0  0  0  0
  1  2  1  0
  2  3  2  0
  3  4  1  0
  4  5  1  0
  4  6  2  0
  6  7  1  0
  7  8  1  0
  8  9  1  0
  9 10  2  0
 10 11  1  0
 11 12  1  0
 12 13  2  0
 13 14  1  0
 13 15  1  0
 15 16  1  0
 15 17  2  0
 17 18  1  0
 17 19  1  0
 19 20  1  0
 19 21  2  0
 21 22  1  0
  6 23  1  0
 23 24  1  0
 23 25  2  0
 25 26  1  0
 25  2  1  0
 11  7  2  0
 21 12  1  0
M  END
>  <cnnaffinity>  (1) 
-5.00807

>  <filename>  (1) 
Brc1cccc(-c2nnsc2-c2cccnc2)c1

$$$$
