
     RDKit          3D

 40 44  0  0  0  0  0  0  0  0999 V2000
   12.9343    5.7573   22.8031 Br  0  0  0  0  0  0  0  0  0  0  0  0
   12.6210    3.8769   22.6262 C   0  0  0  0  0  0  0  0  0  0  0  0
   13.7013    3.0217   22.6434 C   0  0  0  0  0  0  0  0  0  0  0  0
   13.4827    1.6467   22.5381 N   0  0  0  0  0  0  0  0  0  0  0  0
   14.4006    0.6340   22.4388 C   0  0  0  0  0  0  0  0  0  0  0  0
   13.6771   -0.5232   22.3865 C   0  0  0  0  0  0  0  0  0  0  0  0
   12.3159   -0.2449   22.3807 N   0  0  0  0  0  0  0  0  0  0  0  0
   12.2344    1.0677   22.4458 C   0  0  0  0  0  0  0  0  0  0  0  0
   11.0566    1.9384   22.4158 C   0  0  0  0  0  0  0  0  0  0  0  0
    9.7198    1.3554   22.2606 C   0  0  0  0  0  0  0  0  0  0  0  0
    9.4514    0.3412   21.4896 N   0  0  0  0  0  0  0  0  0  0  0  0
    8.0797    0.2003   21.6060 C   0  0  0  0  0  0  0  0  0  0  0  0
    7.3375   -0.8316   20.7870 C   0  0  0  0  0  0  0  0  0  0  0  0
    6.5825   -0.1457   19.6599 C   0  0  0  0  0  0  0  0  0  0  0  0
    5.4112    0.5543   19.9546 C   0  0  0  0  0  0  0  0  0  0  0  0
    4.8125    1.2839   18.9297 C   0  0  0  0  0  0  0  0  0  0  0  0
    5.3869    1.3023   17.6552 C   0  0  0  0  0  0  0  0  0  0  0  0
    6.5024    0.6131   17.3552 N   0  0  0  0  0  0  0  0  0  0  0  0
    7.0810   -0.0976   18.3404 C   0  0  0  0  0  0  0  0  0  0  0  0
    7.9951   -0.6345   18.1112 H   0  0  0  0  0  0  0  0  0  0  0  0
    4.9121    1.8952   16.8811 H   0  0  0  0  0  0  0  0  0  0  0  0
    3.9137    1.8610   19.1102 H   0  0  0  0  0  0  0  0  0  0  0  0
    4.9977    0.5571   20.9633 H   0  0  0  0  0  0  0  0  0  0  0  0
    8.0554   -1.5633   20.3949 H   0  0  0  0  0  0  0  0  0  0  0  0
    6.6357   -1.3602   21.4368 H   0  0  0  0  0  0  0  0  0  0  0  0
    7.5084    1.0494   22.4321 N   0  0  0  0  0  0  0  0  0  0  0  0
    8.5553    1.7902   22.8778 N   0  0  0  0  0  0  0  0  0  0  0  0
    8.5116    2.7984   23.9548 C   0  0  0  0  0  0  0  0  0  0  0  0
    9.8035    2.9386   24.7602 C   0  0  0  0  0  0  0  0  0  0  0  0
    8.5602    2.3711   25.4244 C   0  0  0  0  0  0  0  0  0  0  0  0
    8.0835    3.0089   26.1748 H   0  0  0  0  0  0  0  0  0  0  0  0
    8.5243    1.2953   25.6297 H   0  0  0  0  0  0  0  0  0  0  0  0
   10.6114    2.2291   24.5489 H   0  0  0  0  0  0  0  0  0  0  0  0
   10.1240    3.9575   24.9988 H   0  0  0  0  0  0  0  0  0  0  0  0
    7.9791    3.7222   23.6943 H   0  0  0  0  0  0  0  0  0  0  0  0
   11.2592    3.3166   22.4970 C   0  0  0  0  0  0  0  0  0  0  0  0
   10.4170    4.0023   22.4340 H   0  0  0  0  0  0  0  0  0  0  0  0
   14.0878   -1.5280   22.3558 H   0  0  0  0  0  0  0  0  0  0  0  0
   15.4670    0.7561   22.3972 H   0  0  0  0  0  0  0  0  0  0  0  0
   14.7091    3.4181   22.6984 H   0  0  0  0  0  0  0  0  0  0  0  0
  1  2  1  0
  2  3  2  0
  3  4  1  0
  4  5  1  0
  5  6  2  0
  6  7  1  0
  7  8  2  0
  8  9  1  0
  9 10  1  0
 10 11  2  0
 11 12  1  0
 12 13  1  0
 13 14  1  0
 14 15  2  0
 15 16  1  0
 16 17  2  0
 17 18  1  0
 18 19  2  0
 19 20  1  0
 17 21  1  0
 16 22  1  0
 15 23  1  0
 13 24  1  0
 13 25  1  0
 12 26  2  0
 26 27  1  0
 27 28  1  0
 28 29  1  0
 29 30  1  0
 30 31  1  0
 30 32  1  0
 29 33  1  0
 29 34  1  0
 28 35  1  0
  9 36  2  0
 36 37  1  0
  6 38  1  0
  5 39  1  0
  3 40  1  0
 36  2  1  0
  8  4  1  0
 27 10  1  0
 30 28  1  0
 19 14  1  0
M  END
>  <cnnaffinity>  (1) 
-6.57518

>  <filename>  (1) 
Brc1cc(-c2nc(Cc3cccnc3)nn2C2CC2)c2nccn2c1

$$$$
