
     RDKit          3D

 40 44  0  0  0  0  0  0  0  0999 V2000
   11.5633   -1.4942   21.9671 Br  0  0  0  0  0  0  0  0  0  0  0  0
   12.6683   -0.0057   22.4192 C   0  0  0  0  0  0  0  0  0  0  0  0
   12.3216    1.3069   22.4939 C   0  0  0  0  0  0  0  0  0  0  0  0
   11.0739    2.0665   22.3541 C   0  0  0  0  0  0  0  0  0  0  0  0
    9.7798    1.4030   22.2286 C   0  0  0  0  0  0  0  0  0  0  0  0
    9.5117    0.4086   21.4350 N   0  0  0  0  0  0  0  0  0  0  0  0
    8.1520    0.2094   21.6282 C   0  0  0  0  0  0  0  0  0  0  0  0
    7.4035   -0.8183   20.8160 C   0  0  0  0  0  0  0  0  0  0  0  0
    6.6437   -0.1373   19.6874 C   0  0  0  0  0  0  0  0  0  0  0  0
    5.4673    0.5523   19.9791 C   0  0  0  0  0  0  0  0  0  0  0  0
    4.8527    1.2648   18.9510 C   0  0  0  0  0  0  0  0  0  0  0  0
    5.4169    1.2743   17.6716 C   0  0  0  0  0  0  0  0  0  0  0  0
    6.5323    0.5844   17.3703 N   0  0  0  0  0  0  0  0  0  0  0  0
    7.1286   -0.1057   18.3623 C   0  0  0  0  0  0  0  0  0  0  0  0
    8.0448   -0.6389   18.1293 H   0  0  0  0  0  0  0  0  0  0  0  0
    4.9376    1.8691   16.9002 H   0  0  0  0  0  0  0  0  0  0  0  0
    3.9547    1.8414   19.1401 H   0  0  0  0  0  0  0  0  0  0  0  0
    5.0647    0.5585   20.9908 H   0  0  0  0  0  0  0  0  0  0  0  0
    8.1265   -1.5327   20.4126 H   0  0  0  0  0  0  0  0  0  0  0  0
    6.7086   -1.3669   21.4625 H   0  0  0  0  0  0  0  0  0  0  0  0
    7.5881    1.0085   22.5055 N   0  0  0  0  0  0  0  0  0  0  0  0
    8.6230    1.7878   22.8959 N   0  0  0  0  0  0  0  0  0  0  0  0
    8.5603    2.8470   23.9196 C   0  0  0  0  0  0  0  0  0  0  0  0
    9.8485    3.0583   24.7147 C   0  0  0  0  0  0  0  0  0  0  0  0
    8.6064    2.5400   25.4157 C   0  0  0  0  0  0  0  0  0  0  0  0
    8.6112    1.4988   25.7356 H   0  0  0  0  0  0  0  0  0  0  0  0
    8.1146    3.2290   26.1076 H   0  0  0  0  0  0  0  0  0  0  0  0
   10.1457    4.0956   24.8838 H   0  0  0  0  0  0  0  0  0  0  0  0
   10.6742    2.3494   24.5750 H   0  0  0  0  0  0  0  0  0  0  0  0
    7.9962    3.7375   23.6315 H   0  0  0  0  0  0  0  0  0  0  0  0
   11.1351    3.4470   22.4603 C   0  0  0  0  0  0  0  0  0  0  0  0
   12.4067    4.1204   22.7296 C   0  0  0  0  0  0  0  0  0  0  0  0
   13.5503    3.3704   22.9290 C   0  0  0  0  0  0  0  0  0  0  0  0
   13.4912    1.9792   22.8284 N   0  0  0  0  0  0  0  0  0  0  0  0
   14.5369    1.1343   23.0418 N   0  0  0  0  0  0  0  0  0  0  0  0
   14.0693   -0.0610   22.7858 C   0  0  0  0  0  0  0  0  0  0  0  0
   14.6487   -0.9715   22.9041 H   0  0  0  0  0  0  0  0  0  0  0  0
   14.5060    3.8383   23.1383 H   0  0  0  0  0  0  0  0  0  0  0  0
   12.4285    5.2054   22.7736 H   0  0  0  0  0  0  0  0  0  0  0  0
   10.2339    4.0540   22.3819 H   0  0  0  0  0  0  0  0  0  0  0  0
  1  2  1  0
  2  3  2  0
  3  4  1  0
  4  5  1  0
  5  6  2  0
  6  7  1  0
  7  8  1  0
  8  9  1  0
  9 10  2  0
 10 11  1  0
 11 12  2  0
 12 13  1  0
 13 14  2  0
 14 15  1  0
 12 16  1  0
 11 17  1  0
 10 18  1  0
  8 19  1  0
  8 20  1  0
  7 21  2  0
 21 22  1  0
 22 23  1  0
 23 24  1  0
 24 25  1  0
 25 26  1  0
 25 27  1  0
 24 28  1  0
 24 29  1  0
 23 30  1  0
  4 31  2  0
 31 32  1  0
 32 33  2  0
 33 34  1  0
 34 35  1  0
 35 36  2  0
 36 37  1  0
 33 38  1  0
 32 39  1  0
 31 40  1  0
 36  2  1  0
 34  3  1  0
 22  5  1  0
 25 23  1  0
 14  9  1  0
M  END
>  <cnnaffinity>  (1) 
-6.67852

>  <filename>  (1) 
Brc1cnn2cccc(-c3nc(Cc4cccnc4)nn3C3CC3)c12

$$$$
