
     RDKit          3D

 37 41  0  0  0  0  0  0  0  0999 V2000
    7.3604    0.1497   27.8921 Br  0  0  0  0  0  0  0  0  0  0  0  0
    7.6356   -1.1624   26.5351 C   0  0  0  0  0  0  0  0  0  0  0  0
    8.0313   -2.4472   26.8626 C   0  0  0  0  0  0  0  0  0  0  0  0
    8.2050   -3.3860   25.8556 N   0  0  0  0  0  0  0  0  0  0  0  0
    8.4237   -4.7333   25.9758 C   0  0  0  0  0  0  0  0  0  0  0  0
    8.5346   -5.1889   24.6907 C   0  0  0  0  0  0  0  0  0  0  0  0
    8.3528   -4.1502   23.7771 N   0  0  0  0  0  0  0  0  0  0  0  0
    8.1240   -3.0783   24.5085 C   0  0  0  0  0  0  0  0  0  0  0  0
    7.7399   -1.7035   24.1197 C   0  0  0  0  0  0  0  0  0  0  0  0
    7.6606   -1.3110   22.7040 C   0  0  0  0  0  0  0  0  0  0  0  0
    6.8066   -0.5145   22.1223 N   0  0  0  0  0  0  0  0  0  0  0  0
    7.2093   -0.5229   20.7943 C   0  0  0  0  0  0  0  0  0  0  0  0
    6.4963    0.1527   19.7404 C   0  0  0  0  0  0  0  0  0  0  0  0
    5.2802    0.8121   19.9485 C   0  0  0  0  0  0  0  0  0  0  0  0
    4.7124    1.4502   18.8525 C   0  0  0  0  0  0  0  0  0  0  0  0
    5.3518    1.4102   17.6111 C   0  0  0  0  0  0  0  0  0  0  0  0
    6.4967    0.7340   17.4146 N   0  0  0  0  0  0  0  0  0  0  0  0
    7.0530    0.1166   18.4625 C   0  0  0  0  0  0  0  0  0  0  0  0
    7.9753   -0.4337   18.2883 H   0  0  0  0  0  0  0  0  0  0  0  0
    4.9166    1.9463   16.7755 H   0  0  0  0  0  0  0  0  0  0  0  0
    3.7828    1.9967   18.9484 H   0  0  0  0  0  0  0  0  0  0  0  0
    4.7927    0.8299   20.9260 H   0  0  0  0  0  0  0  0  0  0  0  0
    8.2877   -1.2260   20.5482 N   0  0  0  0  0  0  0  0  0  0  0  0
    8.5784   -1.7204   21.7674 N   0  0  0  0  0  0  0  0  0  0  0  0
    9.7585   -2.4995   22.1200 C   0  0  0  0  0  0  0  0  0  0  0  0
   10.4740   -2.0714   23.3980 C   0  0  0  0  0  0  0  0  0  0  0  0
   11.1690   -1.9170   22.0537 C   0  0  0  0  0  0  0  0  0  0  0  0
   12.0145   -2.5816   21.8557 H   0  0  0  0  0  0  0  0  0  0  0  0
   11.2802   -0.9113   21.6465 H   0  0  0  0  0  0  0  0  0  0  0  0
   10.1271   -1.1605   23.8999 H   0  0  0  0  0  0  0  0  0  0  0  0
   10.8385   -2.8617   24.0605 H   0  0  0  0  0  0  0  0  0  0  0  0
    9.5864   -3.5612   22.0062 H   0  0  0  0  0  0  0  0  0  0  0  0
    7.4560   -0.7924   25.1249 C   0  0  0  0  0  0  0  0  0  0  0  0
    7.1339    0.2152   24.8694 H   0  0  0  0  0  0  0  0  0  0  0  0
    8.7026   -6.2266   24.4197 H   0  0  0  0  0  0  0  0  0  0  0  0
    8.4665   -5.2933   26.9038 H   0  0  0  0  0  0  0  0  0  0  0  0
    8.2016   -2.7363   27.8883 H   0  0  0  0  0  0  0  0  0  0  0  0
  1  2  1  0
  2  3  2  0
  3  4  1  0
  4  5  1  0
  5  6  2  0
  6  7  1  0
  7  8  2  0
  8  9  1  0
  9 10  1  0
 10 11  2  0
 11 12  1  0
 12 13  1  0
 13 14  2  0
 14 15  1  0
 15 16  2  0
 16 17  1  0
 17 18  2  0
 18 19  1  0
 16 20  1  0
 15 21  1  0
 14 22  1  0
 12 23  2  0
 23 24  1  0
 24 25  1  0
 25 26  1  0
 26 27  1  0
 27 28  1  0
 27 29  1  0
 26 30  1  0
 26 31  1  0
 25 32  1  0
  9 33  2  0
 33 34  1  0
  6 35  1  0
  5 36  1  0
  3 37  1  0
 33  2  1  0
  8  4  1  0
 24 10  1  0
 27 25  1  0
 18 13  1  0
M  END
>  <cnnaffinity>  (1) 
-6.33026

>  <filename>  (1) 
Brc1cc(-c2nc(-c3cccnc3)nn2C2CC2)c2nccn2c1

$$$$
