
     RDKit          3D

 30 32  0  0  0  0  0  0  0  0999 V2000
    4.8921    1.7966   17.0144 H   0  0  0  0  0  0  0  0  0  0  0  0
    5.4051    1.2906   17.8255 C   0  0  0  0  0  0  0  0  0  0  0  0
    6.5704    0.6599   17.5769 N   0  0  0  0  0  0  0  0  0  0  0  0
    7.1799    0.0522   18.6035 C   0  0  0  0  0  0  0  0  0  0  0  0
    8.1326   -0.4362   18.4106 H   0  0  0  0  0  0  0  0  0  0  0  0
    6.6539    0.0347   19.8984 C   0  0  0  0  0  0  0  0  0  0  0  0
    7.4331   -0.6172   20.9937 C   0  0  0  0  0  0  0  0  0  0  0  0
    8.3685    0.4009   21.6019 C   0  0  0  0  0  0  0  0  0  0  0  0
    9.6746    0.5467   21.1125 C   0  0  0  0  0  0  0  0  0  0  0  0
   10.0127   -0.1062   20.3123 H   0  0  0  0  0  0  0  0  0  0  0  0
   10.5238    1.5125   21.6529 C   0  0  0  0  0  0  0  0  0  0  0  0
   11.5282    1.6319   21.2622 H   0  0  0  0  0  0  0  0  0  0  0  0
   10.0820    2.3369   22.6918 C   0  0  0  0  0  0  0  0  0  0  0  0
   11.2423    3.6632   23.4261 Br  0  0  0  0  0  0  0  0  0  0  0  0
    8.7836    2.1883   23.1875 C   0  0  0  0  0  0  0  0  0  0  0  0
    8.4316    2.8326   23.9844 H   0  0  0  0  0  0  0  0  0  0  0  0
    7.9291    1.2286   22.6487 C   0  0  0  0  0  0  0  0  0  0  0  0
    6.9172    1.1224   23.0363 H   0  0  0  0  0  0  0  0  0  0  0  0
    8.1425   -1.7455   20.4630 O   0  0  0  0  0  0  0  0  0  0  0  0
    7.7612   -2.9058   21.2048 C   0  0  0  0  0  0  0  0  0  0  0  0
    7.5757   -3.7797   20.5807 H   0  0  0  0  0  0  0  0  0  0  0  0
    8.5442   -3.1788   21.9190 H   0  0  0  0  0  0  0  0  0  0  0  0
    6.4785   -2.5330   21.8876 C   0  0  0  0  0  0  0  0  0  0  0  0
    6.4036   -3.0121   22.8675 H   0  0  0  0  0  0  0  0  0  0  0  0
    5.6127   -2.8363   21.2866 H   0  0  0  0  0  0  0  0  0  0  0  0
    6.5393   -1.1209   21.9918 O   0  0  0  0  0  0  0  0  0  0  0  0
    5.4333    0.6588   20.1585 C   0  0  0  0  0  0  0  0  0  0  0  0
    4.9981    0.6508   21.1620 H   0  0  0  0  0  0  0  0  0  0  0  0
    4.8142    1.3043   19.0963 C   0  0  0  0  0  0  0  0  0  0  0  0
    3.8797    1.8317   19.2558 H   0  0  0  0  0  0  0  0  0  0  0  0
  1  2  1  0
  2  3  2  0
  3  4  1  0
  4  5  1  0
  4  6  2  0
  6  7  1  0
  7  8  1  0
  8  9  2  0
  9 10  1  0
  9 11  1  0
 11 12  1  0
 11 13  2  0
 13 14  1  0
 13 15  1  0
 15 16  1  0
 15 17  2  0
 17 18  1  0
  7 19  1  0
 19 20  1  0
 20 21  1  0
 20 22  1  0
 20 23  1  0
 23 24  1  0
 23 25  1  0
 23 26  1  0
  6 27  1  0
 27 28  1  0
 27 29  2  0
 29 30  1  0
 29  2  1  0
 26  7  1  0
 17  8  1  0
M  END
>  <cnnaffinity>  (1) 
-4.41444

>  <filename>  (1) 
Brc1ccc(C2(c3cccnc3)OCCO2)cc1

$$$$
