
     RDKit          3D

 39 42  0  0  0  0  0  0  0  0999 V2000
    5.9945   -4.6236   28.8821 Br  0  0  0  0  0  0  0  0  0  0  0  0
    6.1441   -3.3173   27.4963 C   0  0  0  0  0  0  0  0  0  0  0  0
    4.9785   -2.6930   27.0447 C   0  0  0  0  0  0  0  0  0  0  0  0
    5.0247   -1.8397   25.9364 C   0  0  0  0  0  0  0  0  0  0  0  0
    6.2474   -1.6003   25.3132 C   0  0  0  0  0  0  0  0  0  0  0  0
    6.6406   -0.8935   24.2055 N   0  0  0  0  0  0  0  0  0  0  0  0
    8.0047   -0.9918   24.0873 C   0  0  0  0  0  0  0  0  0  0  0  0
    8.7225   -0.3653   23.0735 N   0  0  0  0  0  0  0  0  0  0  0  0
   10.1679   -0.1680   23.1837 C   0  0  0  0  0  0  0  0  0  0  0  0
   10.4543    0.9570   22.1963 C   0  0  0  0  0  0  0  0  0  0  0  0
    9.2807    0.9831   21.2133 C   0  0  0  0  0  0  0  0  0  0  0  0
    8.0986    0.3238   21.9319 C   0  0  0  0  0  0  0  0  0  0  0  0
    7.3881   -0.6852   21.0203 C   0  0  0  0  0  0  0  0  0  0  0  0
    6.6540    0.0029   19.8860 C   0  0  0  0  0  0  0  0  0  0  0  0
    5.4435    0.6471   20.1349 C   0  0  0  0  0  0  0  0  0  0  0  0
    4.8124    1.3028   19.0778 C   0  0  0  0  0  0  0  0  0  0  0  0
    5.3990    1.3005   17.8075 C   0  0  0  0  0  0  0  0  0  0  0  0
    6.5635    0.6739   17.5544 N   0  0  0  0  0  0  0  0  0  0  0  0
    7.1742    0.0454   18.5782 C   0  0  0  0  0  0  0  0  0  0  0  0
    8.1259   -0.4374   18.3882 H   0  0  0  0  0  0  0  0  0  0  0  0
    4.8940    1.8302   17.0048 H   0  0  0  0  0  0  0  0  0  0  0  0
    3.8781    1.8320   19.2295 H   0  0  0  0  0  0  0  0  0  0  0  0
    5.0138    0.6542   21.1342 H   0  0  0  0  0  0  0  0  0  0  0  0
    6.6778   -1.2592   21.6223 H   0  0  0  0  0  0  0  0  0  0  0  0
    8.1217   -1.3909   20.6182 H   0  0  0  0  0  0  0  0  0  0  0  0
    7.3852    1.0900   22.2609 H   0  0  0  0  0  0  0  0  0  0  0  0
    9.5364    0.4126   20.3138 H   0  0  0  0  0  0  0  0  0  0  0  0
    9.0387    2.0093   20.9157 H   0  0  0  0  0  0  0  0  0  0  0  0
   10.5017    1.9075   22.7361 H   0  0  0  0  0  0  0  0  0  0  0  0
   11.4080    0.7988   21.6828 H   0  0  0  0  0  0  0  0  0  0  0  0
   10.4572    0.1266   24.1980 H   0  0  0  0  0  0  0  0  0  0  0  0
   10.7118   -1.0784   22.9121 H   0  0  0  0  0  0  0  0  0  0  0  0
    8.5181   -1.7314   25.0454 N   0  0  0  0  0  0  0  0  0  0  0  0
    7.4259   -2.1423   25.8069 C   0  0  0  0  0  0  0  0  0  0  0  0
    7.3831   -3.0048   26.9078 C   0  0  0  0  0  0  0  0  0  0  0  0
    8.3086   -3.4330   27.2782 H   0  0  0  0  0  0  0  0  0  0  0  0
    6.0457   -0.3587   23.5806 H   0  0  0  0  0  0  0  0  0  0  0  0
    4.1212   -1.3844   25.5521 H   0  0  0  0  0  0  0  0  0  0  0  0
    4.0439   -2.8974   27.5592 H   0  0  0  0  0  0  0  0  0  0  0  0
  1  2  1  0
  2  3  2  0
  3  4  1  0
  4  5  2  0
  5  6  1  0
  6  7  1  0
  7  8  1  0
  8  9  1  0
  9 10  1  0
 10 11  1  0
 11 12  1  0
 12 13  1  0
 13 14  1  0
 14 15  2  0
 15 16  1  0
 16 17  2  0
 17 18  1  0
 18 19  2  0
 19 20  1  0
 17 21  1  0
 16 22  1  0
 15 23  1  0
 13 24  1  0
 13 25  1  0
 12 26  1  0
 11 27  1  0
 11 28  1  0
 10 29  1  0
 10 30  1  0
  9 31  1  0
  9 32  1  0
  7 33  2  0
 33 34  1  0
 34 35  2  0
 35 36  1  0
  6 37  1  0
  4 38  1  0
  3 39  1  0
 35  2  1  0
 34  5  1  0
 12  8  1  0
 19 14  1  0
M  END
>  <cnnaffinity>  (1) 
-5.79552

>  <filename>  (1) 
Brc1ccc2[nH]c(N3CCCC3Cc3cccnc3)nc2c1

$$$$
