
     RDKit          3D

 29 31  0  0  0  0  0  0  0  0999 V2000
    5.1270    2.5945   16.5321 H   0  0  0  0  0  0  0  0  0  0  0  0
    5.4554    1.9518   17.3423 C   0  0  0  0  0  0  0  0  0  0  0  0
    6.4016    1.0188   17.1199 N   0  0  0  0  0  0  0  0  0  0  0  0
    6.7983    0.2720   18.1736 C   0  0  0  0  0  0  0  0  0  0  0  0
    7.5621   -0.4778   18.0011 H   0  0  0  0  0  0  0  0  0  0  0  0
    6.2974    0.4367   19.4918 C   0  0  0  0  0  0  0  0  0  0  0  0
    6.7914   -0.3090   20.6853 C   0  0  0  0  0  0  0  0  0  0  0  0
    6.8665    0.3312   21.9139 C   0  0  0  0  0  0  0  0  0  0  0  0
    6.5557    1.3700   21.9735 H   0  0  0  0  0  0  0  0  0  0  0  0
    7.3371   -0.2680   23.0015 N   0  0  0  0  0  0  0  0  0  0  0  0
    7.7357   -1.5478   22.9225 C   0  0  0  0  0  0  0  0  0  0  0  0
    8.2772   -2.1675   24.1616 C   0  0  0  0  0  0  0  0  0  0  0  0
    8.5458   -3.5508   24.2406 C   0  0  0  0  0  0  0  0  0  0  0  0
    8.3841   -4.1997   23.3851 H   0  0  0  0  0  0  0  0  0  0  0  0
    9.0109   -4.1229   25.4321 C   0  0  0  0  0  0  0  0  0  0  0  0
    9.1924   -5.1914   25.4997 H   0  0  0  0  0  0  0  0  0  0  0  0
    9.2580   -3.3269   26.5479 C   0  0  0  0  0  0  0  0  0  0  0  0
    9.6230   -3.8036   27.4518 H   0  0  0  0  0  0  0  0  0  0  0  0
    9.0495   -1.9461   26.4871 C   0  0  0  0  0  0  0  0  0  0  0  0
    9.4405   -0.8290   27.9902 Br  0  0  0  0  0  0  0  0  0  0  0  0
    8.5493   -1.3820   25.3071 C   0  0  0  0  0  0  0  0  0  0  0  0
    8.4074   -0.3048   25.2860 H   0  0  0  0  0  0  0  0  0  0  0  0
    7.6601   -2.2495   21.7793 N   0  0  0  0  0  0  0  0  0  0  0  0
    7.1999   -1.6348   20.6792 C   0  0  0  0  0  0  0  0  0  0  0  0
    7.1152   -2.1908   19.7545 H   0  0  0  0  0  0  0  0  0  0  0  0
    5.2971    1.3884   19.6864 C   0  0  0  0  0  0  0  0  0  0  0  0
    4.8628    1.5326   20.6752 H   0  0  0  0  0  0  0  0  0  0  0  0
    4.8681    2.1413   18.5957 C   0  0  0  0  0  0  0  0  0  0  0  0
    4.0946    2.8933   18.7080 H   0  0  0  0  0  0  0  0  0  0  0  0
  1  2  1  0
  2  3  2  0
  3  4  1  0
  4  5  1  0
  4  6  2  0
  6  7  1  0
  7  8  2  0
  8  9  1  0
  8 10  1  0
 10 11  2  0
 11 12  1  0
 12 13  2  0
 13 14  1  0
 13 15  1  0
 15 16  1  0
 15 17  2  0
 17 18  1  0
 17 19  1  0
 19 20  1  0
 19 21  2  0
 21 22  1  0
 11 23  1  0
 23 24  2  0
 24 25  1  0
  6 26  1  0
 26 27  1  0
 26 28  2  0
 28 29  1  0
 28  2  1  0
 24  7  1  0
 21 12  1  0
M  END
>  <cnnaffinity>  (1) 
-4.92129

>  <filename>  (1) 
Brc1cccc(-c2ncc(-c3cccnc3)cn2)c1

$$$$
