
     RDKit          3D

 29 31  0  0  0  0  0  0  0  0999 V2000
    5.0097    1.8197   17.0626 H   0  0  0  0  0  0  0  0  0  0  0  0
    5.4724    1.2734   17.8810 C   0  0  0  0  0  0  0  0  0  0  0  0
    6.6453    0.6577   17.6710 N   0  0  0  0  0  0  0  0  0  0  0  0
    7.2089   -0.0005   18.7022 C   0  0  0  0  0  0  0  0  0  0  0  0
    8.1622   -0.4790   18.5121 H   0  0  0  0  0  0  0  0  0  0  0  0
    6.6401   -0.1105   19.9918 C   0  0  0  0  0  0  0  0  0  0  0  0
    7.3628   -0.8323   21.0818 C   0  0  0  0  0  0  0  0  0  0  0  0
    8.7619   -0.7584   21.1606 C   0  0  0  0  0  0  0  0  0  0  0  0
    9.2983   -0.1367   20.4527 H   0  0  0  0  0  0  0  0  0  0  0  0
    9.4655   -1.4312   22.0862 N   0  0  0  0  0  0  0  0  0  0  0  0
    8.8440   -2.1992   22.9877 N   0  0  0  0  0  0  0  0  0  0  0  0
    7.4997   -2.3175   23.0305 C   0  0  0  0  0  0  0  0  0  0  0  0
    6.9002   -3.2331   24.0479 C   0  0  0  0  0  0  0  0  0  0  0  0
    7.6090   -4.3767   24.4840 C   0  0  0  0  0  0  0  0  0  0  0  0
    8.6103   -4.5699   24.1035 H   0  0  0  0  0  0  0  0  0  0  0  0
    7.0348   -5.2962   25.3746 C   0  0  0  0  0  0  0  0  0  0  0  0
    7.5745   -6.1913   25.6799 H   0  0  0  0  0  0  0  0  0  0  0  0
    5.7377   -5.0978   25.8518 C   0  0  0  0  0  0  0  0  0  0  0  0
    4.9474   -6.4408   26.9708 Br  0  0  0  0  0  0  0  0  0  0  0  0
    5.0422   -3.9367   25.4750 C   0  0  0  0  0  0  0  0  0  0  0  0
    4.0386   -3.7549   25.8471 H   0  0  0  0  0  0  0  0  0  0  0  0
    5.6256   -3.0065   24.6013 C   0  0  0  0  0  0  0  0  0  0  0  0
    5.0866   -2.1011   24.3604 H   0  0  0  0  0  0  0  0  0  0  0  0
    6.7337   -1.6290   22.0606 C   0  0  0  0  0  0  0  0  0  0  0  0
    5.6646   -1.7682   22.0391 H   0  0  0  0  0  0  0  0  0  0  0  0
    5.4058    0.5214   20.1869 C   0  0  0  0  0  0  0  0  0  0  0  0
    4.9168    0.5000   21.1571 H   0  0  0  0  0  0  0  0  0  0  0  0
    4.8306    1.2268   19.1215 C   0  0  0  0  0  0  0  0  0  0  0  0
    3.8942    1.7596   19.2361 H   0  0  0  0  0  0  0  0  0  0  0  0
  1  2  1  0
  2  3  2  0
  3  4  1  0
  4  5  1  0
  4  6  2  0
  6  7  1  0
  7  8  2  0
  8  9  1  0
  8 10  1  0
 10 11  2  0
 11 12  1  0
 12 13  1  0
 13 14  2  0
 14 15  1  0
 14 16  1  0
 16 17  1  0
 16 18  2  0
 18 19  1  0
 18 20  1  0
 20 21  1  0
 20 22  2  0
 22 23  1  0
 12 24  2  0
 24 25  1  0
  6 26  1  0
 26 27  1  0
 26 28  2  0
 28 29  1  0
 28  2  1  0
 24  7  1  0
 22 13  1  0
M  END
>  <cnnaffinity>  (1) 
-4.93409

>  <filename>  (1) 
Brc1ccc(-c2cc(-c3cccnc3)cnn2)cc1

$$$$
