
     RDKit          3D

 40 44  0  0  0  0  0  0  0  0999 V2000
   12.8447    5.8058   22.9448 Br  0  0  0  0  0  0  0  0  0  0  0  0
   12.6033    3.9219   22.7266 C   0  0  0  0  0  0  0  0  0  0  0  0
   11.3233    3.3641   22.5836 C   0  0  0  0  0  0  0  0  0  0  0  0
   11.1530    1.9670   22.4489 C   0  0  0  0  0  0  0  0  0  0  0  0
    9.8292    1.3500   22.2794 C   0  0  0  0  0  0  0  0  0  0  0  0
    9.5652    0.3334   21.5028 N   0  0  0  0  0  0  0  0  0  0  0  0
    8.1865    0.1997   21.6013 C   0  0  0  0  0  0  0  0  0  0  0  0
    7.4137   -0.8153   20.7955 C   0  0  0  0  0  0  0  0  0  0  0  0
    6.6430   -0.1166   19.6862 C   0  0  0  0  0  0  0  0  0  0  0  0
    5.4626    0.5675   19.9927 C   0  0  0  0  0  0  0  0  0  0  0  0
    4.8348    1.2815   18.9729 C   0  0  0  0  0  0  0  0  0  0  0  0
    5.3932    1.2979   17.6914 C   0  0  0  0  0  0  0  0  0  0  0  0
    6.5186    0.6277   17.3836 N   0  0  0  0  0  0  0  0  0  0  0  0
    7.1276   -0.0640   18.3644 C   0  0  0  0  0  0  0  0  0  0  0  0
    8.0492   -0.5883   18.1289 H   0  0  0  0  0  0  0  0  0  0  0  0
    4.8976    1.8724   16.9161 H   0  0  0  0  0  0  0  0  0  0  0  0
    3.9245    1.8404   19.1588 H   0  0  0  0  0  0  0  0  0  0  0  0
    5.0551    0.5610   21.0036 H   0  0  0  0  0  0  0  0  0  0  0  0
    6.7160   -1.3349   21.4560 H   0  0  0  0  0  0  0  0  0  0  0  0
    8.1055   -1.5669   20.3995 H   0  0  0  0  0  0  0  0  0  0  0  0
    7.6077    1.0426   22.4216 N   0  0  0  0  0  0  0  0  0  0  0  0
    8.6498    1.7697   22.8863 N   0  0  0  0  0  0  0  0  0  0  0  0
    8.5473    2.7751   23.9548 C   0  0  0  0  0  0  0  0  0  0  0  0
    8.5136    2.3320   25.4189 C   0  0  0  0  0  0  0  0  0  0  0  0
    9.7903    2.9064   24.8247 C   0  0  0  0  0  0  0  0  0  0  0  0
   10.6122    2.2060   24.6405 H   0  0  0  0  0  0  0  0  0  0  0  0
   10.0875    3.9269   25.0811 H   0  0  0  0  0  0  0  0  0  0  0  0
    8.4616    1.2510   25.6060 H   0  0  0  0  0  0  0  0  0  0  0  0
    7.9831    2.9600   26.1436 H   0  0  0  0  0  0  0  0  0  0  0  0
    8.0241    3.6993   23.6764 H   0  0  0  0  0  0  0  0  0  0  0  0
   12.2913    1.1567   22.4733 C   0  0  0  0  0  0  0  0  0  0  0  0
   12.3688   -0.2240   22.3600 N   0  0  0  0  0  0  0  0  0  0  0  0
   13.6447   -0.5141   22.4931 C   0  0  0  0  0  0  0  0  0  0  0  0
   14.4037    0.6302   22.6648 N   0  0  0  0  0  0  0  0  0  0  0  0
   13.5528    1.7070   22.6567 C   0  0  0  0  0  0  0  0  0  0  0  0
   13.7203    3.0907   22.7496 C   0  0  0  0  0  0  0  0  0  0  0  0
   14.6985    3.5524   22.8022 H   0  0  0  0  0  0  0  0  0  0  0  0
   15.4155    0.6626   22.7961 H   0  0  0  0  0  0  0  0  0  0  0  0
   14.0462   -1.5228   22.4757 H   0  0  0  0  0  0  0  0  0  0  0  0
   10.4672    4.0317   22.5525 H   0  0  0  0  0  0  0  0  0  0  0  0
  1  2  1  0
  2  3  2  0
  3  4  1  0
  4  5  1  0
  5  6  2  0
  6  7  1  0
  7  8  1  0
  8  9  1  0
  9 10  2  0
 10 11  1  0
 11 12  2  0
 12 13  1  0
 13 14  2  0
 14 15  1  0
 12 16  1  0
 11 17  1  0
 10 18  1  0
  8 19  1  0
  8 20  1  0
  7 21  2  0
 21 22  1  0
 22 23  1  0
 23 24  1  0
 24 25  1  0
 25 26  1  0
 25 27  1  0
 24 28  1  0
 24 29  1  0
 23 30  1  0
  4 31  2  0
 31 32  1  0
 32 33  2  0
 33 34  1  0
 34 35  1  0
 35 36  2  0
 36 37  1  0
 34 38  1  0
 33 39  1  0
  3 40  1  0
 36  2  1  0
 22  5  1  0
 25 23  1  0
 35 31  1  0
 14  9  1  0
M  END
>  <cnnaffinity>  (1) 
-6.57542

>  <filename>  (1) 
Brc1cc(-c2nc(Cc3cccnc3)nn2C2CC2)c2nc[nH]c2c1

$$$$
