
     RDKit          3D

 35 38  0  0  0  0  0  0  0  0999 V2000
   13.9314    6.8578   22.3375 Br  0  0  0  0  0  0  0  0  0  0  0  0
   12.9591    5.2383   22.6523 C   0  0  0  0  0  0  0  0  0  0  0  0
   13.6232    4.0551   22.9645 C   0  0  0  0  0  0  0  0  0  0  0  0
   12.8554    2.9021   23.1682 C   0  0  0  0  0  0  0  0  0  0  0  0
   11.4635    2.9527   23.0241 C   0  0  0  0  0  0  0  0  0  0  0  0
   10.5215    1.4594   23.1169 S   0  0  0  0  0  0  0  0  0  0  0  0
    9.1251    1.9241   24.2345 C   0  0  0  0  0  0  0  0  0  0  0  0
    8.0350    0.8367   24.2585 C   0  0  0  0  0  0  0  0  0  0  0  0
    7.1635    0.8886   22.9747 C   0  0  0  0  0  0  0  0  0  0  0  0
    7.6291   -0.2389   22.1637 N   0  0  0  0  0  0  0  0  0  0  0  0
    8.4224   -1.1513   22.7544 C   0  0  0  0  0  0  0  0  0  0  0  0
    8.8091   -2.0643   21.9021 N   0  0  0  0  0  0  0  0  0  0  0  0
    8.2177   -1.7320   20.6959 N   0  0  0  0  0  0  0  0  0  0  0  0
    7.5010   -0.6392   20.8550 C   0  0  0  0  0  0  0  0  0  0  0  0
    6.7141   -0.0002   19.8143 C   0  0  0  0  0  0  0  0  0  0  0  0
    5.5422    0.7070   20.1024 C   0  0  0  0  0  0  0  0  0  0  0  0
    4.9027    1.3444   19.0405 C   0  0  0  0  0  0  0  0  0  0  0  0
    5.4360    1.2593   17.7506 C   0  0  0  0  0  0  0  0  0  0  0  0
    6.5461    0.5521   17.4775 N   0  0  0  0  0  0  0  0  0  0  0  0
    7.1639   -0.0732   18.4945 C   0  0  0  0  0  0  0  0  0  0  0  0
    8.0670   -0.6325   18.2721 H   0  0  0  0  0  0  0  0  0  0  0  0
    4.9313    1.7864   16.9447 H   0  0  0  0  0  0  0  0  0  0  0  0
    3.9973    1.9177   19.2019 H   0  0  0  0  0  0  0  0  0  0  0  0
    5.1335    0.7650   21.1118 H   0  0  0  0  0  0  0  0  0  0  0  0
    8.7866   -0.8610   24.4411 S   0  0  0  0  0  0  0  0  0  0  0  0
    6.1028    0.7657   23.2312 H   0  0  0  0  0  0  0  0  0  0  0  0
    7.2963    1.8437   22.4550 H   0  0  0  0  0  0  0  0  0  0  0  0
    7.3953    1.0387   25.1213 H   0  0  0  0  0  0  0  0  0  0  0  0
    9.5108    2.0777   25.2489 H   0  0  0  0  0  0  0  0  0  0  0  0
    8.6764    2.8681   23.9043 H   0  0  0  0  0  0  0  0  0  0  0  0
   10.8316    4.1049   22.7694 N   0  0  0  0  0  0  0  0  0  0  0  0
   11.5606    5.2172   22.5817 C   0  0  0  0  0  0  0  0  0  0  0  0
   11.0452    6.1448   22.3542 H   0  0  0  0  0  0  0  0  0  0  0  0
   13.3070    1.9560   23.4405 H   0  0  0  0  0  0  0  0  0  0  0  0
   14.7108    4.0283   23.0235 H   0  0  0  0  0  0  0  0  0  0  0  0
  1  2  1  0
  2  3  2  0
  3  4  1  0
  4  5  2  0
  5  6  1  0
  6  7  1  0
  7  8  1  0
  8  9  1  0
  9 10  1  0
 10 11  1  0
 11 12  2  0
 12 13  1  0
 13 14  2  0
 14 15  1  0
 15 16  2  0
 16 17  1  0
 17 18  2  0
 18 19  1  0
 19 20  2  0
 20 21  1  0
 18 22  1  0
 17 23  1  0
 16 24  1  0
 11 25  1  0
  9 26  1  0
  9 27  1  0
  8 28  1  0
  7 29  1  0
  7 30  1  0
  5 31  1  0
 31 32  2  0
 32 33  1  0
  4 34  1  0
  3 35  1  0
 32  2  1  0
 25  8  1  0
 14 10  1  0
 20 15  1  0
M  END
>  <cnnaffinity>  (1) 
-5.7769

>  <filename>  (1) 
Brc1ccc(SCC2Cn3c(nnc3-c3cccnc3)S2)nc1

$$$$
