
     RDKit          3D

 28 30  0  0  0  0  0  0  0  0999 V2000
    4.9160    1.7990   17.0204 H   0  0  0  0  0  0  0  0  0  0  0  0
    5.4192    1.2978   17.8394 C   0  0  0  0  0  0  0  0  0  0  0  0
    6.5788    0.6635   17.5845 N   0  0  0  0  0  0  0  0  0  0  0  0
    7.1982    0.0581   18.6145 C   0  0  0  0  0  0  0  0  0  0  0  0
    8.1245   -0.4789   18.4162 H   0  0  0  0  0  0  0  0  0  0  0  0
    6.7019    0.0740   19.9378 C   0  0  0  0  0  0  0  0  0  0  0  0
    7.3519   -0.6166   20.9758 N   0  0  0  0  0  0  0  0  0  0  0  0
    7.6375   -1.9781   20.9891 C   0  0  0  0  0  0  0  0  0  0  0  0
    7.3784   -2.6319   20.1748 H   0  0  0  0  0  0  0  0  0  0  0  0
    8.1605   -2.3960   22.1172 N   0  0  0  0  0  0  0  0  0  0  0  0
    8.1435   -1.2688   22.9170 C   0  0  0  0  0  0  0  0  0  0  0  0
    8.4607   -1.2405   23.9518 H   0  0  0  0  0  0  0  0  0  0  0  0
    7.6065   -0.1953   22.2634 C   0  0  0  0  0  0  0  0  0  0  0  0
    7.3154    1.0959   22.8551 C   0  0  0  0  0  0  0  0  0  0  0  0
    7.4931    2.2459   22.0939 C   0  0  0  0  0  0  0  0  0  0  0  0
    7.8477    2.1461   21.0732 H   0  0  0  0  0  0  0  0  0  0  0  0
    7.2405    3.4999   22.6513 C   0  0  0  0  0  0  0  0  0  0  0  0
    7.4175    4.3850   22.0503 H   0  0  0  0  0  0  0  0  0  0  0  0
    6.7669    3.5971   23.9662 C   0  0  0  0  0  0  0  0  0  0  0  0
    6.5648    4.5723   24.3984 H   0  0  0  0  0  0  0  0  0  0  0  0
    6.5427    2.4404   24.7232 C   0  0  0  0  0  0  0  0  0  0  0  0
    5.8514    2.5516   26.5005 Br  0  0  0  0  0  0  0  0  0  0  0  0
    6.8302    1.1911   24.1652 C   0  0  0  0  0  0  0  0  0  0  0  0
    6.6517    0.2906   24.7456 H   0  0  0  0  0  0  0  0  0  0  0  0
    5.4941    0.7396   20.1860 C   0  0  0  0  0  0  0  0  0  0  0  0
    5.0705    0.7544   21.1899 H   0  0  0  0  0  0  0  0  0  0  0  0
    4.8344    1.3436   19.1115 C   0  0  0  0  0  0  0  0  0  0  0  0
    3.8803    1.8517   19.2419 H   0  0  0  0  0  0  0  0  0  0  0  0
  1  2  1  0
  2  3  2  0
  3  4  1  0
  4  5  1  0
  4  6  2  0
  6  7  1  0
  7  8  1  0
  8  9  1  0
  8 10  2  0
 10 11  1  0
 11 12  1  0
 11 13  2  0
 13 14  1  0
 14 15  2  0
 15 16  1  0
 15 17  1  0
 17 18  1  0
 17 19  2  0
 19 20  1  0
 19 21  1  0
 21 22  1  0
 21 23  2  0
 23 24  1  0
  6 25  1  0
 25 26  1  0
 25 27  2  0
 27 28  1  0
 27  2  1  0
 13  7  1  0
 23 14  1  0
M  END
>  <cnnaffinity>  (1) 
-5.17215

>  <filename>  (1) 
Brc1cccc(-c2cncn2-c2cccnc2)c1

$$$$
