
     RDKit          3D

 28 30  0  0  0  0  0  0  0  0999 V2000
   10.6122   -5.2488   27.5106 Br  0  0  0  0  0  0  0  0  0  0  0  0
    9.8166   -4.0711   26.2607 C   0  0  0  0  0  0  0  0  0  0  0  0
   10.4881   -3.7231   25.0915 C   0  0  0  0  0  0  0  0  0  0  0  0
    9.9019   -2.7327   24.3101 C   0  0  0  0  0  0  0  0  0  0  0  0
    8.6986   -2.1641   24.7172 C   0  0  0  0  0  0  0  0  0  0  0  0
    8.0948   -1.1691   24.0514 N   0  0  0  0  0  0  0  0  0  0  0  0
    8.1027   -1.1967   22.6995 C   0  0  0  0  0  0  0  0  0  0  0  0
    8.9329   -1.7040   21.8334 N   0  0  0  0  0  0  0  0  0  0  0  0
    8.4489   -1.3547   20.5881 N   0  0  0  0  0  0  0  0  0  0  0  0
    7.3461   -0.6621   20.7601 C   0  0  0  0  0  0  0  0  0  0  0  0
    6.5629   -0.0161   19.7382 C   0  0  0  0  0  0  0  0  0  0  0  0
    5.3646    0.6534   20.0088 C   0  0  0  0  0  0  0  0  0  0  0  0
    4.7818    1.3535   18.9586 C   0  0  0  0  0  0  0  0  0  0  0  0
    5.3809    1.3463   17.6949 C   0  0  0  0  0  0  0  0  0  0  0  0
    6.5055    0.6541   17.4354 N   0  0  0  0  0  0  0  0  0  0  0  0
    7.0816   -0.0096   18.4456 C   0  0  0  0  0  0  0  0  0  0  0  0
    8.0116   -0.5359   18.2473 H   0  0  0  0  0  0  0  0  0  0  0  0
    4.9229    1.9239   16.8989 H   0  0  0  0  0  0  0  0  0  0  0  0
    3.8769    1.9282   19.1155 H   0  0  0  0  0  0  0  0  0  0  0  0
    4.9159    0.6546   21.0027 H   0  0  0  0  0  0  0  0  0  0  0  0
    7.0909   -0.5892   22.0867 N   0  0  0  0  0  0  0  0  0  0  0  0
    6.3351   -0.1182   22.5549 H   0  0  0  0  0  0  0  0  0  0  0  0
    7.2514   -0.8421   24.5022 H   0  0  0  0  0  0  0  0  0  0  0  0
    8.0295   -2.5214   25.7998 N   0  0  0  0  0  0  0  0  0  0  0  0
    8.5880   -3.4709   26.5606 C   0  0  0  0  0  0  0  0  0  0  0  0
    8.1009   -3.7717   27.4837 H   0  0  0  0  0  0  0  0  0  0  0  0
   10.3563   -2.3680   23.3999 H   0  0  0  0  0  0  0  0  0  0  0  0
   11.4436   -4.1730   24.8197 H   0  0  0  0  0  0  0  0  0  0  0  0
  1  2  1  0
  2  3  2  0
  3  4  1  0
  4  5  2  0
  5  6  1  0
  6  7  1  0
  7  8  2  0
  8  9  1  0
  9 10  2  0
 10 11  1  0
 11 12  2  0
 12 13  1  0
 13 14  2  0
 14 15  1  0
 15 16  2  0
 16 17  1  0
 14 18  1  0
 13 19  1  0
 12 20  1  0
 10 21  1  0
 21 22  1  0
  6 23  1  0
  5 24  1  0
 24 25  2  0
 25 26  1  0
  4 27  1  0
  3 28  1  0
 25  2  1  0
 21  7  1  0
 16 11  1  0
M  END
>  <cnnaffinity>  (1) 
-4.93614

>  <filename>  (1) 
Brc1ccc(Nc2nnc(-c3cccnc3)[nH]2)nc1

$$$$
