
     RDKit          3D

 32 35  0  0  0  0  0  0  0  0999 V2000
   11.9746    3.3347   21.9021 Br  0  0  0  0  0  0  0  0  0  0  0  0
   11.2903    4.3257   23.4021 C   0  0  0  0  0  0  0  0  0  0  0  0
   11.8748    5.5293   23.8121 C   0  0  0  0  0  0  0  0  0  0  0  0
   11.4143    6.1941   24.9547 C   0  0  0  0  0  0  0  0  0  0  0  0
   10.4082    5.7201   25.7035 N   0  0  0  0  0  0  0  0  0  0  0  0
    9.8289    4.5916   25.2805 C   0  0  0  0  0  0  0  0  0  0  0  0
   10.1966    3.8718   24.1445 C   0  0  0  0  0  0  0  0  0  0  0  0
    9.2806    2.7218   24.0382 C   0  0  0  0  0  0  0  0  0  0  0  0
    9.1583    1.7386   22.9422 C   0  0  0  0  0  0  0  0  0  0  0  0
    8.0858    1.0127   22.7605 N   0  0  0  0  0  0  0  0  0  0  0  0
    8.3771    0.2779   21.6303 C   0  0  0  0  0  0  0  0  0  0  0  0
    7.4123   -0.6861   20.9892 C   0  0  0  0  0  0  0  0  0  0  0  0
    6.6494   -0.0158   19.8585 C   0  0  0  0  0  0  0  0  0  0  0  0
    5.4429    0.6348   20.1238 C   0  0  0  0  0  0  0  0  0  0  0  0
    4.8092    1.2966   19.0729 C   0  0  0  0  0  0  0  0  0  0  0  0
    5.3883    1.2954   17.7999 C   0  0  0  0  0  0  0  0  0  0  0  0
    6.5441    0.6610   17.5321 N   0  0  0  0  0  0  0  0  0  0  0  0
    7.1603    0.0262   18.5458 C   0  0  0  0  0  0  0  0  0  0  0  0
    8.1146   -0.4542   18.3487 H   0  0  0  0  0  0  0  0  0  0  0  0
    4.8905    1.8359   17.0018 H   0  0  0  0  0  0  0  0  0  0  0  0
    3.8822    1.8362   19.2325 H   0  0  0  0  0  0  0  0  0  0  0  0
    5.0263    0.6454   21.1297 H   0  0  0  0  0  0  0  0  0  0  0  0
    7.9664   -1.5494   20.6078 H   0  0  0  0  0  0  0  0  0  0  0  0
    6.7143   -1.0478   21.7512 H   0  0  0  0  0  0  0  0  0  0  0  0
    9.5681    0.5042   21.1399 N   0  0  0  0  0  0  0  0  0  0  0  0
   10.1100    1.4884   21.9972 O   0  0  0  0  0  0  0  0  0  0  0  0
    8.4765    2.7651   25.1536 C   0  0  0  0  0  0  0  0  0  0  0  0
    8.8421    3.8707   25.9155 N   0  0  0  0  0  0  0  0  0  0  0  0
    8.5208    4.0729   26.8566 H   0  0  0  0  0  0  0  0  0  0  0  0
    7.6882    2.0550   25.3905 H   0  0  0  0  0  0  0  0  0  0  0  0
   11.8813    7.1234   25.2613 H   0  0  0  0  0  0  0  0  0  0  0  0
   12.6867    5.9675   23.2503 H   0  0  0  0  0  0  0  0  0  0  0  0
  1  2  1  0
  2  3  2  0
  3  4  1  0
  4  5  2  0
  5  6  1  0
  6  7  2  0
  7  8  1  0
  8  9  1  0
  9 10  2  0
 10 11  1  0
 11 12  1  0
 12 13  1  0
 13 14  2  0
 14 15  1  0
 15 16  2  0
 16 17  1  0
 17 18  2  0
 18 19  1  0
 16 20  1  0
 15 21  1  0
 14 22  1  0
 12 23  1  0
 12 24  1  0
 11 25  2  0
 25 26  1  0
  8 27  2  0
 27 28  1  0
 28 29  1  0
 27 30  1  0
  4 31  1  0
  3 32  1  0
  7  2  1  0
 26  9  1  0
 28  6  1  0
 18 13  1  0
M  END
>  <cnnaffinity>  (1) 
-5.41045

>  <filename>  (1) 
Brc1ccnc2[nH]cc(-c3nc(Cc4cccnc4)no3)c12

$$$$
