
     RDKit          3D

 35 38  0  0  0  0  0  0  0  0999 V2000
    4.9437    1.8313   17.0333 H   0  0  0  0  0  0  0  0  0  0  0  0
    5.4424    1.3031   17.8387 C   0  0  0  0  0  0  0  0  0  0  0  0
    6.6042    0.6738   17.5850 N   0  0  0  0  0  0  0  0  0  0  0  0
    7.1957    0.0203   18.6043 C   0  0  0  0  0  0  0  0  0  0  0  0
    8.1386   -0.4837   18.4099 H   0  0  0  0  0  0  0  0  0  0  0  0
    6.6621   -0.0339   19.9082 C   0  0  0  0  0  0  0  0  0  0  0  0
    7.3729   -0.8091   21.0078 C   0  0  1  0  0  0  0  0  0  0  0  0
    6.9973   -1.8385   20.9991 H   0  0  0  0  0  0  0  0  0  0  0  0
    8.9177   -0.8632   20.7821 C   0  0  0  0  0  0  0  0  0  0  0  0
    9.2609   -0.0280   20.1655 H   0  0  0  0  0  0  0  0  0  0  0  0
    9.2336   -1.7875   20.2948 H   0  0  0  0  0  0  0  0  0  0  0  0
    9.4371   -0.7442   22.1738 C   0  0  0  0  0  0  0  0  0  0  0  0
   10.6026   -0.8980   22.7450 N   0  0  0  0  0  0  0  0  0  0  0  0
   10.3227   -0.5602   24.0520 N   0  0  0  0  0  0  0  0  0  0  0  0
   11.0497   -0.4389   24.7499 H   0  0  0  0  0  0  0  0  0  0  0  0
    8.9820   -0.2328   24.3053 C   0  0  0  0  0  0  0  0  0  0  0  0
    8.3374    0.1481   25.5681 C   0  0  0  0  0  0  0  0  0  0  0  0
    9.0246    0.0151   26.7801 C   0  0  0  0  0  0  0  0  0  0  0  0
   10.0385   -0.3672   26.7931 H   0  0  0  0  0  0  0  0  0  0  0  0
    8.4290    0.3973   27.9825 C   0  0  0  0  0  0  0  0  0  0  0  0
    8.9823    0.2621   28.9040 H   0  0  0  0  0  0  0  0  0  0  0  0
    7.1793    1.0152   27.9909 C   0  0  0  0  0  0  0  0  0  0  0  0
    6.4826    1.7426   29.6179 Br  0  0  0  0  0  0  0  0  0  0  0  0
    6.4869    1.1611   26.7841 C   0  0  0  0  0  0  0  0  0  0  0  0
    5.5317    1.6736   26.7764 H   0  0  0  0  0  0  0  0  0  0  0  0
    7.0439    0.6939   25.5829 C   0  0  0  0  0  0  0  0  0  0  0  0
    6.5011    0.8082   24.6476 H   0  0  0  0  0  0  0  0  0  0  0  0
    8.4439   -0.3553   23.0682 C   0  0  0  0  0  0  0  0  0  0  0  0
    7.1075   -0.2304   22.4380 C   0  0  0  0  0  0  0  0  0  0  0  0
    6.3617   -0.8181   22.9764 H   0  0  0  0  0  0  0  0  0  0  0  0
    6.7822    0.8128   22.3960 H   0  0  0  0  0  0  0  0  0  0  0  0
    5.4510    0.6229   20.1570 C   0  0  0  0  0  0  0  0  0  0  0  0
    5.0117    0.6219   21.1542 H   0  0  0  0  0  0  0  0  0  0  0  0
    4.8378    1.2969   19.1002 C   0  0  0  0  0  0  0  0  0  0  0  0
    3.9028    1.8267   19.2449 H   0  0  0  0  0  0  0  0  0  0  0  0
  1  2  1  0
  2  3  2  0
  3  4  1  0
  4  5  1  0
  4  6  2  0
  6  7  1  0
  7  8  1  1
  7  9  1  0
  9 10  1  0
  9 11  1  0
  9 12  1  0
 12 13  2  0
 13 14  1  0
 14 15  1  0
 14 16  1  0
 16 17  1  0
 17 18  2  0
 18 19  1  0
 18 20  1  0
 20 21  1  0
 20 22  2  0
 22 23  1  0
 22 24  1  0
 24 25  1  0
 24 26  2  0
 26 27  1  0
 16 28  2  0
 28 29  1  0
 29 30  1  0
 29 31  1  0
  6 32  1  0
 32 33  1  0
 32 34  2  0
 34 35  1  0
 34  2  1  0
 29  7  1  0
 28 12  1  0
 26 17  1  0
M  END
>  <cnnaffinity>  (1) 
-5.19123

>  <filename>  (1) 
Brc1ccc(-c2[nH]nc3c2C[C@@H](c2cccnc2)C3)cc1

$$$$
