
     RDKit          3D

 36 39  0  0  0  0  0  0  0  0999 V2000
    4.8785    1.6468   17.0843 H   0  0  0  0  0  0  0  0  0  0  0  0
    5.4429    1.2110   17.9025 C   0  0  0  0  0  0  0  0  0  0  0  0
    6.5954    0.5719   17.6340 N   0  0  0  0  0  0  0  0  0  0  0  0
    7.2751    0.0595   18.6844 C   0  0  0  0  0  0  0  0  0  0  0  0
    8.2165   -0.4348   18.4717 H   0  0  0  0  0  0  0  0  0  0  0  0
    6.8543    0.1416   20.0356 C   0  0  0  0  0  0  0  0  0  0  0  0
    7.6389   -0.4207   21.0718 N   0  0  0  0  0  0  0  0  0  0  0  0
    8.3743   -1.6861   20.8737 C   0  0  0  0  0  0  0  0  0  0  0  0
    9.2890   -1.5561   20.2870 H   0  0  0  0  0  0  0  0  0  0  0  0
    7.7024   -2.4165   20.4149 H   0  0  0  0  0  0  0  0  0  0  0  0
    8.6694   -2.1172   22.3256 C   0  0  2  0  0  0  0  0  0  0  0  0
    9.5622   -2.7420   22.4552 H   0  0  0  0  0  0  0  0  0  0  0  0
    7.4282   -2.6880   22.8881 N   0  0  0  0  0  0  0  0  0  0  0  0
    6.9160   -3.9363   22.4936 C   0  0  0  0  0  0  0  0  0  0  0  0
    7.5010   -4.6515   21.4481 C   0  0  0  0  0  0  0  0  0  0  0  0
    8.3690   -4.2323   20.9626 H   0  0  0  0  0  0  0  0  0  0  0  0
    6.9600   -5.8697   21.0157 C   0  0  0  0  0  0  0  0  0  0  0  0
    7.4118   -6.4230   20.1989 H   0  0  0  0  0  0  0  0  0  0  0  0
    5.8218   -6.3768   21.6473 C   0  0  0  0  0  0  0  0  0  0  0  0
    5.3755   -7.3064   21.3207 H   0  0  0  0  0  0  0  0  0  0  0  0
    5.2348   -5.6881   22.7014 C   0  0  0  0  0  0  0  0  0  0  0  0
    3.7105   -6.4302   23.5764 Br  0  0  0  0  0  0  0  0  0  0  0  0
    5.7759   -4.4647   23.1104 C   0  0  0  0  0  0  0  0  0  0  0  0
    5.3201   -3.9132   23.9188 H   0  0  0  0  0  0  0  0  0  0  0  0
    6.4905   -1.5494   22.9279 C   0  0  0  0  0  0  0  0  0  0  0  0
    6.0666   -1.4250   23.9280 H   0  0  0  0  0  0  0  0  0  0  0  0
    5.7145   -1.6975   22.1716 H   0  0  0  0  0  0  0  0  0  0  0  0
    7.3611   -0.3453   22.5189 C   0  0  1  0  0  0  0  0  0  0  0  0
    7.0059    0.6296   22.8709 H   0  0  0  0  0  0  0  0  0  0  0  0
    8.7160   -0.7762   23.0441 C   0  0  0  0  0  0  0  0  0  0  0  0
    8.7486   -0.8686   24.1354 H   0  0  0  0  0  0  0  0  0  0  0  0
    9.5253   -0.1262   22.6944 H   0  0  0  0  0  0  0  0  0  0  0  0
    5.6502    0.8038   20.2925 C   0  0  0  0  0  0  0  0  0  0  0  0
    5.2871    0.8939   21.3142 H   0  0  0  0  0  0  0  0  0  0  0  0
    4.9442    1.3443   19.2066 C   0  0  0  0  0  0  0  0  0  0  0  0
    4.0210    1.8898   19.3625 H   0  0  0  0  0  0  0  0  0  0  0  0
  1  2  1  0
  2  3  2  0
  3  4  1  0
  4  5  1  0
  4  6  2  0
  6  7  1  0
  7  8  1  0
  8  9  1  0
  8 10  1  0
  8 11  1  0
 11 12  1  6
 11 13  1  0
 13 14  1  0
 14 15  2  0
 15 16  1  0
 15 17  1  0
 17 18  1  0
 17 19  2  0
 19 20  1  0
 19 21  1  0
 21 22  1  0
 21 23  2  0
 23 24  1  0
 13 25  1  0
 25 26  1  0
 25 27  1  0
 25 28  1  0
 28 29  1  1
 28 30  1  0
 30 31  1  0
 30 32  1  0
  6 33  1  0
 33 34  1  0
 33 35  2  0
 35 36  1  0
 35  2  1  0
 28  7  1  0
 30 11  1  0
 23 14  1  0
M  END
>  <cnnaffinity>  (1) 
-5.4451

>  <filename>  (1) 
Brc1cccc(N2C[C@H]3C[C@@H]2CN3c2cccnc2)c1

$$$$
