
     RDKit          3D

 43 44  0  0  0  0  0  0  0  0999 V2000
    8.8165    3.7341   31.4007 C   0  0  0  0  0  0  0  0  0  0  0  0
    7.7801    3.7844   30.7870 C   0  0  0  0  0  0  0  0  0  0  0  0
    6.5118    3.8831   30.0443 C   0  0  0  0  0  0  0  0  0  0  0  0
    6.5998    3.3947   28.5812 C   0  0  0  0  0  0  0  0  0  0  0  0
    6.8819    1.8910   28.4408 C   0  0  0  0  0  0  0  0  0  0  0  0
    6.8776    1.3937   26.9914 C   0  0  0  0  0  0  0  0  0  0  0  0
    7.1498   -0.1192   26.8865 C   0  0  0  0  0  0  0  0  0  0  0  0
    7.2365   -0.5646   25.4771 N   0  0  0  0  0  4  0  0  0  0  0  0
    8.4610   -0.1210   24.7152 C   0  0  0  0  0  0  0  0  0  0  0  0
    8.2373   -0.6525   23.3312 C   0  0  0  0  0  0  0  0  0  0  0  0
    8.6164   -1.9728   23.0586 C   0  0  0  0  0  0  0  0  0  0  0  0
    8.3138   -2.6036   21.9186 N   0  0  0  0  0  0  0  0  0  0  0  0
    7.6535   -1.9051   20.9901 C   0  0  0  0  0  0  0  0  0  0  0  0
    7.2796   -0.5555   21.1011 C   0  0  0  0  0  0  0  0  0  0  0  0
    6.5981    0.1400   19.9608 C   0  0  0  0  0  0  0  0  0  0  0  0
    5.3690    0.7882   20.1345 C   0  0  0  0  0  0  0  0  0  0  0  0
    4.7513    1.3871   19.0344 C   0  0  0  0  0  0  0  0  0  0  0  0
    5.3884    1.3486   17.7923 C   0  0  0  0  0  0  0  0  0  0  0  0
    6.5654    0.7354   17.5960 N   0  0  0  0  0  0  0  0  0  0  0  0
    7.1407    0.1514   18.6545 C   0  0  0  0  0  0  0  0  0  0  0  0
    8.0910   -0.3432   18.4549 H   0  0  0  0  0  0  0  0  0  0  0  0
    4.9319    1.8130   16.9175 H   0  0  0  0  0  0  0  0  0  0  0  0
    3.7956    1.8850   19.1236 H   0  0  0  0  0  0  0  0  0  0  0  0
    4.9028    0.8027   21.1197 H   0  0  0  0  0  0  0  0  0  0  0  0
    7.5411    0.0553   22.3380 C   0  0  0  0  0  0  0  0  0  0  0  0
    7.1641    1.0572   22.5384 H   0  0  0  0  0  0  0  0  0  0  0  0
    7.3443   -2.4501   20.1039 H   0  0  0  0  0  0  0  0  0  0  0  0
    9.1810   -2.5566   23.7893 H   0  0  0  0  0  0  0  0  0  0  0  0
    9.3623   -0.5373   25.1828 H   0  0  0  0  0  0  0  0  0  0  0  0
    8.5533    0.9694   24.7437 H   0  0  0  0  0  0  0  0  0  0  0  0
    6.4170   -0.1835   24.9283 H   0  0  0  0  0  0  0  0  0  0  0  0
    7.1935   -1.6031   25.3683 H   0  0  0  0  0  0  0  0  0  0  0  0
    8.0924   -0.3487   27.4105 H   0  0  0  0  0  0  0  0  0  0  0  0
    6.3623   -0.6877   27.3944 H   0  0  0  0  0  0  0  0  0  0  0  0
    7.6479    1.9425   26.4241 H   0  0  0  0  0  0  0  0  0  0  0  0
    5.9076    1.6156   26.5160 H   0  0  0  0  0  0  0  0  0  0  0  0
    7.8606    1.6660   28.8944 H   0  0  0  0  0  0  0  0  0  0  0  0
    6.1317    1.3328   29.0262 H   0  0  0  0  0  0  0  0  0  0  0  0
    5.6431    3.6422   28.0983 H   0  0  0  0  0  0  0  0  0  0  0  0
    7.3767    3.9791   28.0652 H   0  0  0  0  0  0  0  0  0  0  0  0
    6.1929    4.9349   30.0577 H   0  0  0  0  0  0  0  0  0  0  0  0
    5.7321    3.3236   30.5846 H   0  0  0  0  0  0  0  0  0  0  0  0
    9.7312    3.6944   31.9547 H   0  0  0  0  0  0  0  0  0  0  0  0
  1  2  3  0
  2  3  1  0
  3  4  1  0
  4  5  1  0
  5  6  1  0
  6  7  1  0
  7  8  1  0
  8  9  1  0
  9 10  1  0
 10 11  2  0
 11 12  1  0
 12 13  2  0
 13 14  1  0
 14 15  1  0
 15 16  2  0
 16 17  1  0
 17 18  2  0
 18 19  1  0
 19 20  2  0
 20 21  1  0
 18 22  1  0
 17 23  1  0
 16 24  1  0
 14 25  2  0
 25 26  1  0
 13 27  1  0
 11 28  1  0
  9 29  1  0
  9 30  1  0
  8 31  1  0
  8 32  1  0
  7 33  1  0
  7 34  1  0
  6 35  1  0
  6 36  1  0
  5 37  1  0
  5 38  1  0
  4 39  1  0
  4 40  1  0
  3 41  1  0
  3 42  1  0
  1 43  1  0
 25 10  1  0
 20 15  1  0
M  CHG  1   8   1
M  END
>  <cnnaffinity>  (1) 
-4.69483

>  <filename>  (1) 
C#CCCCCC[NH2+]Cc1cncc(-c2cccnc2)c1

$$$$
