
     RDKit          3D

 24 24  0  0  0  0  0  0  0  0999 V2000
   13.7877   -1.6830   20.9474 H   0  0  0  0  0  0  0  0  0  0  0  0
   12.7655   -1.7013   21.2517 C   0  0  0  0  0  0  0  0  0  0  0  0
   11.5970   -1.7018   21.5474 C   0  0  0  0  0  0  0  0  0  0  0  0
   10.1948   -1.6841   21.9725 C   0  0  0  0  0  0  0  0  0  0  0  0
   10.0327   -0.7364   22.5111 H   0  0  0  0  0  0  0  0  0  0  0  0
   10.0286   -2.5173   22.6747 H   0  0  0  0  0  0  0  0  0  0  0  0
    9.3475   -1.8080   20.8449 O   0  0  0  0  0  0  0  0  0  0  0  0
    7.9529   -1.8353   21.1252 C   0  0  0  0  0  0  0  0  0  0  0  0
    7.4903   -2.3564   20.2866 H   0  0  0  0  0  0  0  0  0  0  0  0
    7.7463   -2.4457   22.0199 H   0  0  0  0  0  0  0  0  0  0  0  0
    7.3183   -0.4530   21.2808 C   0  0  0  0  0  0  0  0  0  0  0  0
    7.3470    0.1740   22.4583 C   0  0  0  0  0  0  0  0  0  0  0  0
    6.9721    1.1887   22.5691 H   0  0  0  0  0  0  0  0  0  0  0  0
    7.8001   -0.2803   23.3370 H   0  0  0  0  0  0  0  0  0  0  0  0
    6.6518    0.1664   20.1024 C   0  0  0  0  0  0  0  0  0  0  0  0
    7.2384    0.1018   18.8273 C   0  0  0  0  0  0  0  0  0  0  0  0
    8.1988   -0.4068   18.7165 H   0  0  0  0  0  0  0  0  0  0  0  0
    6.7062    0.6377   17.7207 N   0  0  0  0  0  0  0  0  0  0  0  0
    5.5200    1.2515   17.8479 C   0  0  0  0  0  0  0  0  0  0  0  0
    5.1016    1.6756   16.9354 H   0  0  0  0  0  0  0  0  0  0  0  0
    4.8373    1.3655   19.0665 C   0  0  0  0  0  0  0  0  0  0  0  0
    3.8809    1.8747   19.1006 H   0  0  0  0  0  0  0  0  0  0  0  0
    5.4156    0.8289   20.2159 C   0  0  0  0  0  0  0  0  0  0  0  0
    4.9266    0.8844   21.1910 H   0  0  0  0  0  0  0  0  0  0  0  0
  1  2  1  0
  2  3  3  0
  3  4  1  0
  4  5  1  0
  4  6  1  0
  4  7  1  0
  7  8  1  0
  8  9  1  0
  8 10  1  0
  8 11  1  0
 11 12  2  3
 12 13  1  0
 12 14  1  0
 11 15  1  0
 15 16  2  0
 16 17  1  0
 16 18  1  0
 18 19  2  0
 19 20  1  0
 19 21  1  0
 21 22  1  0
 21 23  2  0
 23 24  1  0
 23 15  1  0
M  END
>  <cnnaffinity>  (1) 
-4.41676

>  <filename>  (1) 
C#CCOCC(=C)c1cccnc1

$$$$
