
     RDKit          3D

 22 23  0  0  0  0  0  0  0  0999 V2000
    8.0924   -4.3645   23.9928 H   0  0  0  0  0  0  0  0  0  0  0  0
    8.4807   -3.5609   23.4052 C   0  0  0  0  0  0  0  0  0  0  0  0
    8.9460   -2.6607   22.7564 C   0  0  0  0  0  0  0  0  0  0  0  0
    9.4025   -1.5680   21.9645 C   0  0  0  0  0  0  0  0  0  0  0  0
    8.7074   -0.6978   21.1463 C   0  0  0  0  0  0  0  0  0  0  0  0
    7.3263   -0.6905   20.9341 N   0  0  0  0  0  0  0  0  0  0  0  0
    6.7737   -1.1521   21.6489 H   0  0  0  0  0  0  0  0  0  0  0  0
    6.6630   -0.0079   19.9094 C   0  0  0  0  0  0  0  0  0  0  0  0
    7.1709    0.0632   18.5863 C   0  0  0  0  0  0  0  0  0  0  0  0
    8.1197   -0.4290   18.3710 H   0  0  0  0  0  0  0  0  0  0  0  0
    6.5601    0.6830   17.5699 N   0  0  0  0  0  0  0  0  0  0  0  0
    5.3961    1.2980   17.8364 C   0  0  0  0  0  0  0  0  0  0  0  0
    4.9098    1.7845   16.9945 H   0  0  0  0  0  0  0  0  0  0  0  0
    4.8100    1.3072   19.1096 C   0  0  0  0  0  0  0  0  0  0  0  0
    3.8777    1.8408   19.2643 H   0  0  0  0  0  0  0  0  0  0  0  0
    5.4419    0.6342   20.1602 C   0  0  0  0  0  0  0  0  0  0  0  0
    5.0220    0.6201   21.1691 H   0  0  0  0  0  0  0  0  0  0  0  0
    9.6952    0.1810   20.6516 C   0  0  0  0  0  0  0  0  0  0  0  0
    9.5294    1.0087   19.9838 H   0  0  0  0  0  0  0  0  0  0  0  0
   10.9030   -0.1067   21.1166 N   0  0  0  0  0  0  0  0  0  0  0  0
   10.7044   -1.1696   21.8981 N   0  0  0  0  0  0  0  0  0  0  0  0
   11.4795   -1.5842   22.3871 H   0  0  0  0  0  0  0  0  0  0  0  0
  1  2  1  0
  2  3  3  0
  3  4  1  0
  4  5  2  0
  5  6  1  0
  6  7  1  0
  6  8  1  0
  8  9  2  0
  9 10  1  0
  9 11  1  0
 11 12  2  0
 12 13  1  0
 12 14  1  0
 14 15  1  0
 14 16  2  0
 16 17  1  0
  5 18  1  0
 18 19  1  0
 18 20  2  0
 20 21  1  0
 21 22  1  0
 21  4  1  0
 16  8  1  0
M  END
>  <cnnaffinity>  (1) 
-4.60734

>  <filename>  (1) 
C#Cc1[nH]ncc1Nc1cccnc1

$$$$
