
     RDKit          3D

 24 24  0  0  0  0  0  0  0  0999 V2000
    5.5333   -6.3825   18.8985 H   0  0  0  0  0  0  0  0  0  0  0  0
    5.9417   -5.6452   19.5539 C   0  0  0  0  0  0  0  0  0  0  0  0
    6.4423   -4.8231   20.2729 C   0  0  0  0  0  0  0  0  0  0  0  0
    7.1730   -3.8720   21.1138 C   0  0  0  0  0  0  0  0  0  0  0  0
    8.2452   -4.0860   21.0064 H   0  0  0  0  0  0  0  0  0  0  0  0
    6.9099   -3.9785   22.1758 H   0  0  0  0  0  0  0  0  0  0  0  0
    6.8800   -2.5601   20.6651 O   0  0  0  0  0  0  0  0  0  0  0  0
    8.0047   -1.7055   20.8410 N   0  0  0  0  0  0  0  0  0  0  0  0
    8.4625   -1.7511   19.9269 H   0  0  0  0  0  0  0  0  0  0  0  0
    7.5169   -0.3893   21.0225 N   0  0  0  0  0  0  0  0  0  0  0  0
    6.7576    0.1597   19.9589 C   0  0  0  0  0  0  0  0  0  0  0  0
    7.2088    0.1000   18.6168 C   0  0  0  0  0  0  0  0  0  0  0  0
    8.1484   -0.4009   18.3793 H   0  0  0  0  0  0  0  0  0  0  0  0
    6.5796    0.6571   17.5725 N   0  0  0  0  0  0  0  0  0  0  0  0
    5.4139    1.2822   17.8173 C   0  0  0  0  0  0  0  0  0  0  0  0
    4.9139    1.7328   16.9607 H   0  0  0  0  0  0  0  0  0  0  0  0
    4.8332    1.3338   19.0867 C   0  0  0  0  0  0  0  0  0  0  0  0
    3.8682    1.8116   19.2204 H   0  0  0  0  0  0  0  0  0  0  0  0
    5.5076    0.7716   20.1769 C   0  0  0  0  0  0  0  0  0  0  0  0
    5.0863    0.7792   21.1814 H   0  0  0  0  0  0  0  0  0  0  0  0
    7.1752   -0.1774   22.4159 C   0  0  0  0  0  0  0  0  0  0  0  0
    7.9484   -0.6472   23.0262 H   0  0  0  0  0  0  0  0  0  0  0  0
    7.1522    0.8927   22.6482 H   0  0  0  0  0  0  0  0  0  0  0  0
    6.2123   -0.6392   22.6777 H   0  0  0  0  0  0  0  0  0  0  0  0
  1  2  1  0
  2  3  3  0
  3  4  1  0
  4  5  1  0
  4  6  1  0
  4  7  1  0
  7  8  1  0
  8  9  1  0
  8 10  1  0
 10 11  1  0
 11 12  2  0
 12 13  1  0
 12 14  1  0
 14 15  2  0
 15 16  1  0
 15 17  1  0
 17 18  1  0
 17 19  2  0
 19 20  1  0
 10 21  1  0
 21 22  1  0
 21 23  1  0
 21 24  1  0
 19 11  1  0
M  END
>  <cnnaffinity>  (1) 
-4.49835

>  <filename>  (1) 
C#CCONN(C)c1cccnc1

$$$$
