
     RDKit          3D

 29 31  0  0  0  0  0  0  0  0999 V2000
    6.8197    5.0554   26.4754 H   0  0  0  0  0  0  0  0  0  0  0  0
    6.3824    4.7779   25.5194 C   0  0  0  0  0  0  0  0  0  0  0  0
    6.8041    3.6144   25.0149 N   0  0  0  0  0  0  0  0  0  0  0  0
    6.2937    3.2280   23.8312 C   0  0  0  0  0  0  0  0  0  0  0  0
    6.7537    1.9609   23.2890 C   0  0  0  0  0  0  0  0  0  0  0  0
    7.1130    0.9144   22.8047 C   0  0  0  0  0  0  0  0  0  0  0  0
    7.5243   -0.2667   22.2501 N   0  0  0  0  0  0  0  0  0  0  0  0
    7.4006   -0.6876   20.9279 C   0  0  0  0  0  0  0  0  0  0  0  0
    6.6483    0.0255   19.9019 C   0  0  0  0  0  0  0  0  0  0  0  0
    7.1612    0.0466   18.5947 C   0  0  0  0  0  0  0  0  0  0  0  0
    8.1083   -0.4406   18.3671 H   0  0  0  0  0  0  0  0  0  0  0  0
    6.5616    0.6707   17.5781 N   0  0  0  0  0  0  0  0  0  0  0  0
    5.4013    1.2931   17.8371 C   0  0  0  0  0  0  0  0  0  0  0  0
    4.9272    1.7852   16.9927 H   0  0  0  0  0  0  0  0  0  0  0  0
    4.8004    1.3155   19.1004 C   0  0  0  0  0  0  0  0  0  0  0  0
    3.8687    1.8445   19.2458 H   0  0  0  0  0  0  0  0  0  0  0  0
    5.4280    0.6662   20.1594 C   0  0  0  0  0  0  0  0  0  0  0  0
    4.9910    0.6338   21.1605 H   0  0  0  0  0  0  0  0  0  0  0  0
    8.0415   -1.8103   20.7282 N   0  0  0  0  0  0  0  0  0  0  0  0
    8.5788   -2.1652   21.9412 C   0  0  0  0  0  0  0  0  0  0  0  0
    9.1584   -3.0752   22.0413 H   0  0  0  0  0  0  0  0  0  0  0  0
    8.2930   -1.2328   22.8899 C   0  0  0  0  0  0  0  0  0  0  0  0
    8.5662   -1.1306   23.9278 H   0  0  0  0  0  0  0  0  0  0  0  0
    5.3458    4.0074   23.1392 C   0  0  0  0  0  0  0  0  0  0  0  0
    4.9714    3.6564   22.1895 H   0  0  0  0  0  0  0  0  0  0  0  0
    4.9098    5.2221   23.6758 C   0  0  0  0  0  0  0  0  0  0  0  0
    4.1786    5.8477   23.1544 H   0  0  0  0  0  0  0  0  0  0  0  0
    5.4460    5.6161   24.9024 C   0  0  0  0  0  0  0  0  0  0  0  0
    5.1584    6.5477   25.3806 H   0  0  0  0  0  0  0  0  0  0  0  0
  1  2  1  0
  2  3  2  0
  3  4  1  0
  4  5  1  0
  5  6  3  0
  6  7  1  0
  7  8  1  0
  8  9  1  0
  9 10  2  0
 10 11  1  0
 10 12  1  0
 12 13  2  0
 13 14  1  0
 13 15  1  0
 15 16  1  0
 15 17  2  0
 17 18  1  0
  8 19  2  0
 19 20  1  0
 20 21  1  0
 20 22  2  0
 22 23  1  0
  4 24  2  0
 24 25  1  0
 24 26  1  0
 26 27  1  0
 26 28  2  0
 28 29  1  0
 28  2  1  0
 22  7  1  0
 17  9  1  0
M  END
>  <cnnaffinity>  (1) 
-4.96465

>  <filename>  (1) 
C(#Cn1ccnc1-c1cccnc1)c1ccccn1

$$$$
