
     RDKit          3D

 26 27  0  0  0  0  0  0  0  0999 V2000
    5.0677    1.8546   16.9921 H   0  0  0  0  0  0  0  0  0  0  0  0
    5.4739    1.2743   17.8186 C   0  0  0  0  0  0  0  0  0  0  0  0
    6.6060    0.5996   17.5593 N   0  0  0  0  0  0  0  0  0  0  0  0
    7.1614   -0.0814   18.5692 C   0  0  0  0  0  0  0  0  0  0  0  0
    8.0891   -0.6033   18.3398 H   0  0  0  0  0  0  0  0  0  0  0  0
    6.6329   -0.1383   19.8815 C   0  0  0  0  0  0  0  0  0  0  0  0
    7.3883   -0.7641   20.9580 C   0  0  0  0  0  0  0  0  0  0  0  0
    8.1935   -1.0445   21.8208 C   0  0  0  0  0  0  0  0  0  0  0  0
    8.8285   -1.6202   22.8220 O   0  0  0  0  0  0  0  0  0  0  0  0
    8.3287   -2.9584   23.0774 C   0  0  0  0  0  0  0  0  0  0  0  0
    7.2394   -2.9175   23.1984 H   0  0  0  0  0  0  0  0  0  0  0  0
    8.5758   -3.5688   22.1946 H   0  0  0  0  0  0  0  0  0  0  0  0
    9.0116   -3.5217   24.3092 C   0  0  0  0  0  0  0  0  0  0  0  0
   10.3549   -3.9106   24.2048 C   0  0  0  0  0  0  0  0  0  0  0  0
   10.9059   -3.6965   23.2943 H   0  0  0  0  0  0  0  0  0  0  0  0
   10.9562   -4.5718   25.2790 C   0  0  0  0  0  0  0  0  0  0  0  0
   11.9718   -4.9557   25.1929 H   0  0  0  0  0  0  0  0  0  0  0  0
   10.3439   -4.7862   26.4492 N   0  0  0  0  0  0  0  0  0  0  0  0
    9.0796   -4.3616   26.5698 C   0  0  0  0  0  0  0  0  0  0  0  0
    8.5982   -4.5592   27.5232 H   0  0  0  0  0  0  0  0  0  0  0  0
    8.3708   -3.7277   25.5411 C   0  0  0  0  0  0  0  0  0  0  0  0
    7.3476   -3.3959   25.7138 H   0  0  0  0  0  0  0  0  0  0  0  0
    5.4201    0.5431   20.1131 C   0  0  0  0  0  0  0  0  0  0  0  0
    4.9682    0.5300   21.1053 H   0  0  0  0  0  0  0  0  0  0  0  0
    4.8366    1.2629   19.0641 C   0  0  0  0  0  0  0  0  0  0  0  0
    3.9308    1.8464   19.2051 H   0  0  0  0  0  0  0  0  0  0  0  0
  1  2  1  0
  2  3  2  0
  3  4  1  0
  4  5  1  0
  4  6  2  0
  6  7  1  0
  7  8  3  0
  8  9  1  0
  9 10  1  0
 10 11  1  0
 10 12  1  0
 10 13  1  0
 13 14  2  0
 14 15  1  0
 14 16  1  0
 16 17  1  0
 16 18  2  0
 18 19  1  0
 19 20  1  0
 19 21  2  0
 21 22  1  0
  6 23  1  0
 23 24  1  0
 23 25  2  0
 25 26  1  0
 25  2  1  0
 21 13  1  0
M  END
>  <cnnaffinity>  (1) 
-4.20898

>  <filename>  (1) 
C(#Cc1cccnc1)OCc1ccncc1

$$$$
