
     RDKit          3D

 26 28  0  0  0  0  0  0  0  0999 V2000
    4.9135    1.7802   16.9961 H   0  0  0  0  0  0  0  0  0  0  0  0
    5.3993    1.2942   17.8381 C   0  0  0  0  0  0  0  0  0  0  0  0
    6.5646    0.6816   17.5675 N   0  0  0  0  0  0  0  0  0  0  0  0
    7.1743    0.0654   18.5868 C   0  0  0  0  0  0  0  0  0  0  0  0
    8.1224   -0.4259   18.3676 H   0  0  0  0  0  0  0  0  0  0  0  0
    6.6552    0.0128   19.8992 C   0  0  0  0  0  0  0  0  0  0  0  0
    7.3479   -0.6762   20.9357 C   0  0  0  0  0  0  0  0  0  0  0  0
    7.9527   -1.2659   21.7965 C   0  0  0  0  0  0  0  0  0  0  0  0
    8.6374   -1.9483   22.8298 C   0  0  0  0  0  0  0  0  0  0  0  0
    9.8142   -2.5986   22.6733 C   0  0  0  0  0  0  0  0  0  0  0  0
   10.3697   -2.6697   21.7521 H   0  0  0  0  0  0  0  0  0  0  0  0
   10.4003   -3.3367   24.1182 S   0  0  0  0  0  0  0  0  0  0  0  0
    9.0163   -2.7613   25.0075 C   0  0  0  0  0  0  0  0  0  0  0  0
    8.7239   -2.9562   26.3634 C   0  0  0  0  0  0  0  0  0  0  0  0
    9.3889   -3.5244   27.0083 H   0  0  0  0  0  0  0  0  0  0  0  0
    7.5485   -2.3958   26.8475 C   0  0  0  0  0  0  0  0  0  0  0  0
    7.2867   -2.5215   27.8710 H   0  0  0  0  0  0  0  0  0  0  0  0
    6.6595   -1.6559   26.0480 C   0  0  0  0  0  0  0  0  0  0  0  0
    5.7540   -1.2416   26.4866 H   0  0  0  0  0  0  0  0  0  0  0  0
    6.9487   -1.4630   24.7070 C   0  0  0  0  0  0  0  0  0  0  0  0
    6.2833   -0.8971   24.0606 H   0  0  0  0  0  0  0  0  0  0  0  0
    8.1370   -2.0203   24.1825 C   0  0  0  0  0  0  0  0  0  0  0  0
    5.4345    0.6567   20.1558 C   0  0  0  0  0  0  0  0  0  0  0  0
    5.0086    0.6317   21.1621 H   0  0  0  0  0  0  0  0  0  0  0  0
    4.7995    1.3147   19.1038 C   0  0  0  0  0  0  0  0  0  0  0  0
    3.8682    1.8473   19.2577 H   0  0  0  0  0  0  0  0  0  0  0  0
  1  2  1  0
  2  3  2  0
  3  4  1  0
  4  5  1  0
  4  6  2  0
  6  7  1  0
  7  8  3  0
  8  9  1  0
  9 10  2  0
 10 11  1  0
 10 12  1  0
 12 13  1  0
 13 14  2  0
 14 15  1  0
 14 16  1  0
 16 17  1  0
 16 18  2  0
 18 19  1  0
 18 20  1  0
 20 21  1  0
 20 22  2  0
  6 23  1  0
 23 24  1  0
 23 25  2  0
 25 26  1  0
 25  2  1  0
 22  9  1  0
 22 13  1  0
M  END
>  <cnnaffinity>  (1) 
-4.8607

>  <filename>  (1) 
C(#Cc1csc2ccccc12)c1cccnc1

$$$$
