
     RDKit          3D

 28 29  0  0  0  0  0  0  0  0999 V2000
    4.9193    1.7864   16.9907 H   0  0  0  0  0  0  0  0  0  0  0  0
    5.3973    1.2950   17.8351 C   0  0  0  0  0  0  0  0  0  0  0  0
    6.5613    0.6786   17.5733 N   0  0  0  0  0  0  0  0  0  0  0  0
    7.1728    0.0624   18.5913 C   0  0  0  0  0  0  0  0  0  0  0  0
    8.1192   -0.4218   18.3608 H   0  0  0  0  0  0  0  0  0  0  0  0
    6.6628    0.0072   19.9075 C   0  0  0  0  0  0  0  0  0  0  0  0
    7.3564   -0.6929   20.9523 C   0  0  0  0  0  0  0  0  0  0  0  0
    7.9078   -1.2980   21.8390 C   0  0  0  0  0  0  0  0  0  0  0  0
    8.6296   -1.9956   22.9049 C   0  0  0  0  0  0  0  0  0  0  0  0
    9.1020   -1.2442   23.5581 H   0  0  0  0  0  0  0  0  0  0  0  0
    9.4530   -2.5687   22.4511 H   0  0  0  0  0  0  0  0  0  0  0  0
    7.7467   -2.8619   23.6497 N   0  0  0  0  0  0  0  0  0  0  0  0
    6.7763   -2.8614   23.3894 H   0  0  0  0  0  0  0  0  0  0  0  0
    8.1277   -3.6417   24.7184 C   0  0  0  0  0  0  0  0  0  0  0  0
    7.1658   -4.4399   25.3734 C   0  0  0  0  0  0  0  0  0  0  0  0
    6.1352   -4.4194   25.0295 H   0  0  0  0  0  0  0  0  0  0  0  0
    7.5419   -5.2423   26.4507 C   0  0  0  0  0  0  0  0  0  0  0  0
    6.7976   -5.8569   26.9494 H   0  0  0  0  0  0  0  0  0  0  0  0
    8.8675   -5.2673   26.8975 C   0  0  0  0  0  0  0  0  0  0  0  0
    9.1547   -5.8907   27.7391 H   0  0  0  0  0  0  0  0  0  0  0  0
    9.8189   -4.4804   26.2468 C   0  0  0  0  0  0  0  0  0  0  0  0
   10.8543   -4.5014   26.5716 H   0  0  0  0  0  0  0  0  0  0  0  0
    9.4620   -3.6701   25.1700 C   0  0  0  0  0  0  0  0  0  0  0  0
   10.2032   -3.0570   24.6683 H   0  0  0  0  0  0  0  0  0  0  0  0
    5.4377    0.6540   20.1578 C   0  0  0  0  0  0  0  0  0  0  0  0
    5.0069    0.6366   21.1588 H   0  0  0  0  0  0  0  0  0  0  0  0
    4.8033    1.3120   19.1018 C   0  0  0  0  0  0  0  0  0  0  0  0
    3.8705    1.8454   19.2507 H   0  0  0  0  0  0  0  0  0  0  0  0
  1  2  1  0
  2  3  2  0
  3  4  1  0
  4  5  1  0
  4  6  2  0
  6  7  1  0
  7  8  3  0
  8  9  1  0
  9 10  1  0
  9 11  1  0
  9 12  1  0
 12 13  1  0
 12 14  1  0
 14 15  2  0
 15 16  1  0
 15 17  1  0
 17 18  1  0
 17 19  2  0
 19 20  1  0
 19 21  1  0
 21 22  1  0
 21 23  2  0
 23 24  1  0
  6 25  1  0
 25 26  1  0
 25 27  2  0
 27 28  1  0
 27  2  1  0
 23 14  1  0
M  END
>  <cnnaffinity>  (1) 
-4.34832

>  <filename>  (1) 
C(#Cc1cccnc1)CNc1ccccc1

$$$$
