
     RDKit          3D

 33 36  0  0  0  0  0  0  0  0999 V2000
    4.9149    1.8331   16.9254 H   0  0  0  0  0  0  0  0  0  0  0  0
    5.4052    1.3294   17.7569 C   0  0  0  0  0  0  0  0  0  0  0  0
    6.5597    0.7113   17.4646 N   0  0  0  0  0  0  0  0  0  0  0  0
    7.2007    0.0857   18.4556 C   0  0  0  0  0  0  0  0  0  0  0  0
    8.1289   -0.4145   18.1839 H   0  0  0  0  0  0  0  0  0  0  0  0
    6.7378    0.0392   19.7882 C   0  0  0  0  0  0  0  0  0  0  0  0
    7.5062   -0.6371   20.8004 C   0  0  0  0  0  0  0  0  0  0  0  0
    8.1468   -1.2140   21.6479 C   0  0  0  0  0  0  0  0  0  0  0  0
    8.6453   -1.8818   22.7178 N   0  0  0  0  0  0  0  0  0  0  0  0
    9.6979   -2.8110   22.7418 C   0  0  0  0  0  0  0  0  0  0  0  0
   10.3909   -2.8530   21.9140 H   0  0  0  0  0  0  0  0  0  0  0  0
    9.6461   -3.5016   23.9103 C   0  0  0  0  0  0  0  0  0  0  0  0
   10.2421   -4.2868   24.3493 H   0  0  0  0  0  0  0  0  0  0  0  0
    8.5483   -3.0011   24.6032 N   0  0  0  0  0  0  0  0  0  0  0  0
    7.9167   -3.3085   25.7485 N   0  0  0  0  0  0  0  0  0  0  0  0
    6.9251   -2.4013   25.8064 C   0  0  0  0  0  0  0  0  0  0  0  0
    5.9689   -2.4185   26.9320 C   0  0  0  0  0  0  0  0  0  0  0  0
    5.7984   -3.5882   27.6952 C   0  0  0  0  0  0  0  0  0  0  0  0
    6.3808   -4.4821   27.4721 H   0  0  0  0  0  0  0  0  0  0  0  0
    4.9241   -3.6914   28.6994 N   0  0  0  0  0  0  0  0  0  0  0  0
    4.1974   -2.6096   29.0051 C   0  0  0  0  0  0  0  0  0  0  0  0
    3.5293   -2.7237   29.8546 H   0  0  0  0  0  0  0  0  0  0  0  0
    4.2815   -1.3974   28.3154 C   0  0  0  0  0  0  0  0  0  0  0  0
    3.6555   -0.5635   28.6136 H   0  0  0  0  0  0  0  0  0  0  0  0
    5.1809   -1.2987   27.2558 C   0  0  0  0  0  0  0  0  0  0  0  0
    5.2677   -0.3712   26.6889 H   0  0  0  0  0  0  0  0  0  0  0  0
    6.9146   -1.5252   24.6914 C   0  0  0  0  0  0  0  0  0  0  0  0
    6.2690   -0.6897   24.4827 H   0  0  0  0  0  0  0  0  0  0  0  0
    7.9614   -1.9946   23.9199 C   0  0  0  0  0  0  0  0  0  0  0  0
    5.5098    0.6737   20.0694 C   0  0  0  0  0  0  0  0  0  0  0  0
    5.0941    0.6484   21.0767 H   0  0  0  0  0  0  0  0  0  0  0  0
    4.8380    1.3286   19.0349 C   0  0  0  0  0  0  0  0  0  0  0  0
    3.8936    1.8374   19.1950 H   0  0  0  0  0  0  0  0  0  0  0  0
  1  2  1  0
  2  3  2  0
  3  4  1  0
  4  5  1  0
  4  6  2  0
  6  7  1  0
  7  8  3  0
  8  9  1  0
  9 10  1  0
 10 11  1  0
 10 12  2  0
 12 13  1  0
 12 14  1  0
 14 15  1  0
 15 16  2  0
 16 17  1  0
 17 18  2  0
 18 19  1  0
 18 20  1  0
 20 21  2  0
 21 22  1  0
 21 23  1  0
 23 24  1  0
 23 25  2  0
 25 26  1  0
 16 27  1  0
 27 28  1  0
 27 29  2  0
  6 30  1  0
 30 31  1  0
 30 32  2  0
 32 33  1  0
 32  2  1  0
 29  9  1  0
 29 14  1  0
 25 17  1  0
M  END
>  <cnnaffinity>  (1) 
-5.34765

>  <filename>  (1) 
C(#Cn1ccn2nc(-c3cccnc3)cc12)c1cccnc1

$$$$
