
     RDKit          3D

 31 33  0  0  0  0  0  0  0  0999 V2000
   12.9766    3.4888   22.0480 H   0  0  0  0  0  0  0  0  0  0  0  0
   12.0183    3.3102   22.5397 C   0  0  0  0  0  0  0  0  0  0  0  0
   11.2700    2.3205   22.0367 N   0  0  0  0  0  0  0  0  0  0  0  0
   10.0895    2.0658   22.6315 C   0  0  0  0  0  0  0  0  0  0  0  0
    9.2316    1.0512   22.0489 C   0  0  0  0  0  0  0  0  0  0  0  0
    8.4034    0.2857   21.6036 C   0  0  0  0  0  0  0  0  0  0  0  0
    7.3773   -0.6534   21.0583 C   0  0  0  0  0  0  0  0  0  0  0  0
    6.5687   -0.0352   19.9136 C   0  0  0  0  0  0  0  0  0  0  0  0
    7.1218   -0.0421   18.6313 C   0  0  0  0  0  0  0  0  0  0  0  0
    8.0466   -0.5795   18.4372 H   0  0  0  0  0  0  0  0  0  0  0  0
    6.5806    0.5876   17.5794 N   0  0  0  0  0  0  0  0  0  0  0  0
    5.4404    1.2615   17.7739 C   0  0  0  0  0  0  0  0  0  0  0  0
    5.0372    1.7964   16.9119 H   0  0  0  0  0  0  0  0  0  0  0  0
    4.7821    1.2964   19.0070 C   0  0  0  0  0  0  0  0  0  0  0  0
    3.8600    1.8594   19.0950 H   0  0  0  0  0  0  0  0  0  0  0  0
    5.3521    0.6393   20.0968 C   0  0  0  0  0  0  0  0  0  0  0  0
    4.8641    0.6575   21.0715 H   0  0  0  0  0  0  0  0  0  0  0  0
    6.5005   -1.0439   22.0970 O   0  0  0  0  0  0  0  0  0  0  0  0
    6.4996   -2.4577   22.2122 C   0  0  0  0  0  0  0  0  0  0  0  0
    7.0366   -2.7596   23.1182 H   0  0  0  0  0  0  0  0  0  0  0  0
    5.4663   -2.8066   22.2790 H   0  0  0  0  0  0  0  0  0  0  0  0
    7.2032   -2.9204   20.9482 C   0  0  0  0  0  0  0  0  0  0  0  0
    7.8259   -3.8084   21.0890 H   0  0  0  0  0  0  0  0  0  0  0  0
    6.4980   -3.0976   20.1267 H   0  0  0  0  0  0  0  0  0  0  0  0
    8.0483   -1.8251   20.6431 O   0  0  0  0  0  0  0  0  0  0  0  0
    9.6432    2.7750   23.7646 C   0  0  0  0  0  0  0  0  0  0  0  0
    8.6960    2.5255   24.2196 H   0  0  0  0  0  0  0  0  0  0  0  0
   10.4197    3.8143   24.2679 C   0  0  0  0  0  0  0  0  0  0  0  0
   10.0826    4.4002   25.1257 H   0  0  0  0  0  0  0  0  0  0  0  0
   11.6295    4.0945   23.6337 C   0  0  0  0  0  0  0  0  0  0  0  0
   12.2444    4.9173   23.9715 H   0  0  0  0  0  0  0  0  0  0  0  0
  1  2  1  0
  2  3  2  0
  3  4  1  0
  4  5  1  0
  5  6  3  0
  6  7  1  0
  7  8  1  0
  8  9  2  0
  9 10  1  0
  9 11  1  0
 11 12  2  0
 12 13  1  0
 12 14  1  0
 14 15  1  0
 14 16  2  0
 16 17  1  0
  7 18  1  0
 18 19  1  0
 19 20  1  0
 19 21  1  0
 19 22  1  0
 22 23  1  0
 22 24  1  0
 22 25  1  0
  4 26  2  0
 26 27  1  0
 26 28  1  0
 28 29  1  0
 28 30  2  0
 30 31  1  0
 30  2  1  0
 25  7  1  0
 16  8  1  0
M  END
>  <cnnaffinity>  (1) 
-4.70613

>  <filename>  (1) 
C(#CC1(c2cccnc2)OCCO1)c1ccccn1

$$$$
