
     RDKit          3D

 26 28  0  0  0  0  0  0  0  0999 V2000
    4.9565    1.8669   16.8592 H   0  0  0  0  0  0  0  0  0  0  0  0
    5.4214    1.3508   17.6958 C   0  0  0  0  0  0  0  0  0  0  0  0
    6.5709    0.7083   17.4248 N   0  0  0  0  0  0  0  0  0  0  0  0
    7.1686    0.0742   18.4408 C   0  0  0  0  0  0  0  0  0  0  0  0
    8.0987   -0.4428   18.2085 H   0  0  0  0  0  0  0  0  0  0  0  0
    6.6674    0.0419   19.7613 C   0  0  0  0  0  0  0  0  0  0  0  0
    7.3908   -0.6150   20.8167 C   0  0  0  0  0  0  0  0  0  0  0  0
    7.9943   -1.1180   21.7380 C   0  0  0  0  0  0  0  0  0  0  0  0
    8.5522   -1.7256   22.9090 C   0  0  0  0  0  0  0  0  0  0  0  0
    7.9911   -1.7273   24.0925 N   0  0  0  0  0  0  0  0  0  0  0  0
    8.7707   -2.5701   24.8585 C   0  0  0  0  0  0  0  0  0  0  0  0
    8.6002   -2.9789   26.1962 C   0  0  0  0  0  0  0  0  0  0  0  0
    7.7728   -2.5756   26.7754 H   0  0  0  0  0  0  0  0  0  0  0  0
    9.4775   -3.9317   26.7200 C   0  0  0  0  0  0  0  0  0  0  0  0
    9.3469   -4.2907   27.7402 H   0  0  0  0  0  0  0  0  0  0  0  0
   10.5106   -4.4783   25.9155 C   0  0  0  0  0  0  0  0  0  0  0  0
   11.1573   -5.2573   26.3135 H   0  0  0  0  0  0  0  0  0  0  0  0
   10.7063   -4.0646   24.5996 C   0  0  0  0  0  0  0  0  0  0  0  0
   11.5180   -4.4519   23.9936 H   0  0  0  0  0  0  0  0  0  0  0  0
    9.8349   -3.0924   24.0893 C   0  0  0  0  0  0  0  0  0  0  0  0
    9.6920   -2.4970   22.8562 N   0  0  0  0  0  0  0  0  0  0  0  0
   10.2189   -2.7013   22.0234 H   0  0  0  0  0  0  0  0  0  0  0  0
    5.4480    0.6997   20.0151 C   0  0  0  0  0  0  0  0  0  0  0  0
    5.0141    0.6756   21.0181 H   0  0  0  0  0  0  0  0  0  0  0  0
    4.8190    1.3661   18.9600 C   0  0  0  0  0  0  0  0  0  0  0  0
    3.8791    1.8922   19.1028 H   0  0  0  0  0  0  0  0  0  0  0  0
  1  2  1  0
  2  3  2  0
  3  4  1  0
  4  5  1  0
  4  6  2  0
  6  7  1  0
  7  8  3  0
  8  9  1  0
  9 10  2  0
 10 11  1  0
 11 12  2  0
 12 13  1  0
 12 14  1  0
 14 15  1  0
 14 16  2  0
 16 17  1  0
 16 18  1  0
 18 19  1  0
 18 20  2  0
 20 21  1  0
 21 22  1  0
  6 23  1  0
 23 24  1  0
 23 25  2  0
 25 26  1  0
 25  2  1  0
 21  9  1  0
 20 11  1  0
M  END
>  <cnnaffinity>  (1) 
-4.96462

>  <filename>  (1) 
C(#Cc1nc2ccccc2[nH]1)c1cccnc1

$$$$
