
     RDKit          3D

 29 31  0  0  0  0  0  0  0  0999 V2000
    4.9175    1.7686   16.9739 H   0  0  0  0  0  0  0  0  0  0  0  0
    5.4039    1.3200   17.8420 C   0  0  0  0  0  0  0  0  0  0  0  0
    6.5739    0.6987   17.6176 N   0  0  0  0  0  0  0  0  0  0  0  0
    7.1659    0.1087   18.6625 C   0  0  0  0  0  0  0  0  0  0  0  0
    8.1103   -0.3923   18.4554 H   0  0  0  0  0  0  0  0  0  0  0  0
    6.6540    0.0897   19.9772 C   0  0  0  0  0  0  0  0  0  0  0  0
    7.3420   -0.6297   21.0771 C   0  0  0  0  0  0  0  0  0  0  0  0
    7.7873   -1.9967   21.0533 C   0  0  0  0  0  0  0  0  0  0  0  0
    7.5415   -2.6945   20.2660 H   0  0  0  0  0  0  0  0  0  0  0  0
    8.4441   -2.4432   22.0828 N   0  0  0  0  0  0  0  0  0  0  0  0
    8.5664   -1.2232   23.2188 S   0  0  0  0  0  0  0  0  0  0  0  0
    7.6396   -0.0776   22.3108 C   0  0  0  0  0  0  0  0  0  0  0  0
    7.2297    1.1691   22.8334 C   0  0  0  0  0  0  0  0  0  0  0  0
    6.8225    2.2204   23.2738 C   0  0  0  0  0  0  0  0  0  0  0  0
    6.4003    3.5050   23.7544 C   0  0  0  0  0  0  0  0  0  0  0  0
    5.4835    4.2831   23.0243 C   0  0  0  0  0  0  0  0  0  0  0  0
    5.0936    3.9064   22.0807 H   0  0  0  0  0  0  0  0  0  0  0  0
    5.0944    5.5383   23.4980 C   0  0  0  0  0  0  0  0  0  0  0  0
    4.3832    6.1315   22.9320 H   0  0  0  0  0  0  0  0  0  0  0  0
    5.6208    6.0317   24.6958 C   0  0  0  0  0  0  0  0  0  0  0  0
    5.3099    7.0056   25.0644 H   0  0  0  0  0  0  0  0  0  0  0  0
    6.5468    5.2718   25.4173 C   0  0  0  0  0  0  0  0  0  0  0  0
    6.9646    5.6564   26.3421 H   0  0  0  0  0  0  0  0  0  0  0  0
    6.9367    4.0148   24.9510 C   0  0  0  0  0  0  0  0  0  0  0  0
    7.6642    3.4225   25.4980 H   0  0  0  0  0  0  0  0  0  0  0  0
    5.4482    0.7757   20.1892 C   0  0  0  0  0  0  0  0  0  0  0  0
    5.0180    0.8196   21.1879 H   0  0  0  0  0  0  0  0  0  0  0  0
    4.8043    1.3735   19.1027 C   0  0  0  0  0  0  0  0  0  0  0  0
    3.8463    1.8707   19.2131 H   0  0  0  0  0  0  0  0  0  0  0  0
  1  2  1  0
  2  3  2  0
  3  4  1  0
  4  5  1  0
  4  6  2  0
  6  7  1  0
  7  8  1  0
  8  9  1  0
  8 10  2  0
 10 11  1  0
 11 12  1  0
 12 13  1  0
 13 14  3  0
 14 15  1  0
 15 16  2  0
 16 17  1  0
 16 18  1  0
 18 19  1  0
 18 20  2  0
 20 21  1  0
 20 22  1  0
 22 23  1  0
 22 24  2  0
 24 25  1  0
  6 26  1  0
 26 27  1  0
 26 28  2  0
 28 29  1  0
 28  2  1  0
 12  7  2  0
 24 15  1  0
M  END
>  <cnnaffinity>  (1) 
-5.04598

>  <filename>  (1) 
C(#Cc1sncc1-c1cccnc1)c1ccccc1

$$$$
