
     RDKit          3D

 30 33  0  0  0  0  0  0  0  0999 V2000
    4.9356    1.8278   16.9616 H   0  0  0  0  0  0  0  0  0  0  0  0
    5.3990    1.3144   17.8017 C   0  0  0  0  0  0  0  0  0  0  0  0
    6.5604    0.6881   17.5461 N   0  0  0  0  0  0  0  0  0  0  0  0
    7.1608    0.0580   18.5624 C   0  0  0  0  0  0  0  0  0  0  0  0
    8.1098   -0.4338   18.3430 H   0  0  0  0  0  0  0  0  0  0  0  0
    6.6382    0.0080   19.8708 C   0  0  0  0  0  0  0  0  0  0  0  0
    7.3429   -0.6848   20.9078 C   0  0  0  0  0  0  0  0  0  0  0  0
    7.9521   -1.2534   21.7801 C   0  0  0  0  0  0  0  0  0  0  0  0
    8.6217   -1.9184   22.8419 C   0  0  0  0  0  0  0  0  0  0  0  0
    7.9958   -2.2892   23.9195 N   0  0  0  0  0  0  0  0  0  0  0  0
    8.8649   -2.9920   24.7005 N   0  0  0  0  0  0  0  0  0  0  0  0
    8.8218   -3.7775   25.8395 C   0  0  0  0  0  0  0  0  0  0  0  0
    7.6495   -4.0079   26.6801 C   0  0  0  0  0  0  0  0  0  0  0  0
    7.8838   -4.6394   27.9112 C   0  0  0  0  0  0  0  0  0  0  0  0
    8.8927   -4.9535   28.1690 H   0  0  0  0  0  0  0  0  0  0  0  0
    6.9263   -4.8800   28.8024 N   0  0  0  0  0  0  0  0  0  0  0  0
    5.6796   -4.5142   28.4845 C   0  0  0  0  0  0  0  0  0  0  0  0
    4.9189   -4.7076   29.2351 H   0  0  0  0  0  0  0  0  0  0  0  0
    5.3325   -3.9254   27.2640 C   0  0  0  0  0  0  0  0  0  0  0  0
    4.2941   -3.7016   27.0495 H   0  0  0  0  0  0  0  0  0  0  0  0
    6.3328   -3.6634   26.3329 C   0  0  0  0  0  0  0  0  0  0  0  0
    6.0876   -3.2415   25.3575 H   0  0  0  0  0  0  0  0  0  0  0  0
   10.0154   -4.2783   26.0512 N   0  0  0  0  0  0  0  0  0  0  0  0
   10.8674   -3.8622   25.0564 N   0  0  0  0  0  0  0  0  0  0  0  0
   10.1512   -3.1135   24.2666 C   0  0  0  0  0  0  0  0  0  0  0  0
   10.3359   -2.3318   22.7329 S   0  0  0  0  0  0  0  0  0  0  0  0
    5.4215    0.6687   20.1156 C   0  0  0  0  0  0  0  0  0  0  0  0
    4.9953    0.6684   21.1174 H   0  0  0  0  0  0  0  0  0  0  0  0
    4.7903    1.3286   19.0609 C   0  0  0  0  0  0  0  0  0  0  0  0
    3.8542    1.8600   19.2020 H   0  0  0  0  0  0  0  0  0  0  0  0
  1  2  1  0
  2  3  2  0
  3  4  1  0
  4  5  1  0
  4  6  2  0
  6  7  1  0
  7  8  3  0
  8  9  1  0
  9 10  2  0
 10 11  1  0
 11 12  1  0
 12 13  1  0
 13 14  2  0
 14 15  1  0
 14 16  1  0
 16 17  2  0
 17 18  1  0
 17 19  1  0
 19 20  1  0
 19 21  2  0
 21 22  1  0
 12 23  2  0
 23 24  1  0
 24 25  2  0
 25 26  1  0
  6 27  1  0
 27 28  1  0
 27 29  2  0
 29 30  1  0
 29  2  1  0
 26  9  1  0
 25 11  1  0
 21 13  1  0
M  END
>  <cnnaffinity>  (1) 
-5.59069

>  <filename>  (1) 
C(#Cc1nn2c(-c3cccnc3)nnc2s1)c1cccnc1

$$$$
