
     RDKit          3D

 26 27  0  0  0  0  0  0  0  0999 V2000
    4.9426    1.8055   16.9570 H   0  0  0  0  0  0  0  0  0  0  0  0
    5.4074    1.3052   17.8047 C   0  0  0  0  0  0  0  0  0  0  0  0
    6.5704    0.6805   17.5542 N   0  0  0  0  0  0  0  0  0  0  0  0
    7.1864    0.0890   18.5849 C   0  0  0  0  0  0  0  0  0  0  0  0
    8.1201   -0.4279   18.3686 H   0  0  0  0  0  0  0  0  0  0  0  0
    6.6884    0.0916   19.9053 C   0  0  0  0  0  0  0  0  0  0  0  0
    7.3901   -0.5990   20.9661 C   0  0  0  0  0  0  0  0  0  0  0  0
    7.8677   -1.3610   21.7643 C   0  0  0  0  0  0  0  0  0  0  0  0
    8.6178   -2.0211   22.6032 O   0  0  0  0  0  0  0  0  0  0  0  0
    9.1912   -1.2634   23.6987 C   0  0  0  0  0  0  0  0  0  0  0  0
   10.0471   -0.6873   23.3161 H   0  0  0  0  0  0  0  0  0  0  0  0
    8.4609   -0.5771   24.1483 H   0  0  0  0  0  0  0  0  0  0  0  0
    9.6502   -2.3234   24.6592 C   0  0  0  0  0  0  0  0  0  0  0  0
   10.5741   -3.2473   24.1545 C   0  0  0  0  0  0  0  0  0  0  0  0
   10.9601   -3.1002   23.1460 H   0  0  0  0  0  0  0  0  0  0  0  0
   10.9744   -4.3399   24.8000 N   0  0  0  0  0  0  0  0  0  0  0  0
   10.4452   -4.5737   26.0066 C   0  0  0  0  0  0  0  0  0  0  0  0
   10.7664   -5.4884   26.5016 H   0  0  0  0  0  0  0  0  0  0  0  0
    9.5214   -3.7199   26.6100 C   0  0  0  0  0  0  0  0  0  0  0  0
    9.0766   -4.0020   27.5593 H   0  0  0  0  0  0  0  0  0  0  0  0
    9.1116   -2.5711   25.9246 C   0  0  0  0  0  0  0  0  0  0  0  0
    8.3400   -1.9146   26.3368 H   0  0  0  0  0  0  0  0  0  0  0  0
    5.4472    0.7103   20.1352 C   0  0  0  0  0  0  0  0  0  0  0  0
    5.0117    0.6890   21.1334 H   0  0  0  0  0  0  0  0  0  0  0  0
    4.8001    1.3306   19.0651 C   0  0  0  0  0  0  0  0  0  0  0  0
    3.8509    1.8377   19.1961 H   0  0  0  0  0  0  0  0  0  0  0  0
  1  2  1  0
  2  3  2  0
  3  4  1  0
  4  5  1  0
  4  6  2  0
  6  7  1  0
  7  8  3  0
  8  9  1  0
  9 10  1  0
 10 11  1  0
 10 12  1  0
 10 13  1  0
 13 14  2  0
 14 15  1  0
 14 16  1  0
 16 17  2  0
 17 18  1  0
 17 19  1  0
 19 20  1  0
 19 21  2  0
 21 22  1  0
  6 23  1  0
 23 24  1  0
 23 25  2  0
 25 26  1  0
 25  2  1  0
 21 13  1  0
M  END
>  <cnnaffinity>  (1) 
-4.4254

>  <filename>  (1) 
C(#Cc1cccnc1)OCc1cccnc1

$$$$
