
     RDKit          3D

 30 31  0  0  0  0  0  0  0  0999 V2000
    5.1555    2.2751   16.5873 H   0  0  0  0  0  0  0  0  0  0  0  0
    5.4206    1.6387   17.4271 C   0  0  0  0  0  0  0  0  0  0  0  0
    6.4957    0.8524   17.2489 N   0  0  0  0  0  0  0  0  0  0  0  0
    6.8602    0.0707   18.2715 C   0  0  0  0  0  0  0  0  0  0  0  0
    7.7150   -0.5851   18.0988 H   0  0  0  0  0  0  0  0  0  0  0  0
    6.1934    0.0429   19.5171 C   0  0  0  0  0  0  0  0  0  0  0  0
    6.6862   -0.7445   20.6103 C   0  0  0  0  0  0  0  0  0  0  0  0
    7.1664   -1.3875   21.5106 C   0  0  0  0  0  0  0  0  0  0  0  0
    7.9179   -2.1186   22.5340 C   0  0  0  0  0  0  0  0  0  0  0  0
    7.3834   -3.0418   22.8154 H   0  0  0  0  0  0  0  0  0  0  0  0
    7.9848   -1.4936   23.4395 H   0  0  0  0  0  0  0  0  0  0  0  0
    9.1832   -2.4145   21.9688 O   0  0  0  0  0  0  0  0  0  0  0  0
   10.2780   -2.6140   22.8475 C   0  0  0  0  0  0  0  0  0  0  0  0
   11.0111   -3.1412   22.2344 H   0  0  0  0  0  0  0  0  0  0  0  0
   10.0063   -3.2906   23.6708 H   0  0  0  0  0  0  0  0  0  0  0  0
   10.8909   -1.3305   23.3792 C   0  0  0  0  0  0  0  0  0  0  0  0
   10.5658   -0.8386   24.6552 C   0  0  0  0  0  0  0  0  0  0  0  0
    9.8715   -1.3993   25.2853 H   0  0  0  0  0  0  0  0  0  0  0  0
   11.1773    0.3212   25.1509 C   0  0  0  0  0  0  0  0  0  0  0  0
   10.9319    0.6666   26.1519 H   0  0  0  0  0  0  0  0  0  0  0  0
   12.1116    1.0138   24.3753 C   0  0  0  0  0  0  0  0  0  0  0  0
   12.5757    1.9305   24.7451 H   0  0  0  0  0  0  0  0  0  0  0  0
   12.4532    0.5233   23.1123 C   0  0  0  0  0  0  0  0  0  0  0  0
   13.2138    1.0235   22.5166 H   0  0  0  0  0  0  0  0  0  0  0  0
   11.8504   -0.6378   22.6194 C   0  0  0  0  0  0  0  0  0  0  0  0
   12.1182   -1.0043   21.6288 H   0  0  0  0  0  0  0  0  0  0  0  0
    5.0399    0.8302   19.6576 C   0  0  0  0  0  0  0  0  0  0  0  0
    4.4611    0.7857   20.5796 H   0  0  0  0  0  0  0  0  0  0  0  0
    4.6559    1.6496   18.5974 C   0  0  0  0  0  0  0  0  0  0  0  0
    3.7925    2.3004   18.6679 H   0  0  0  0  0  0  0  0  0  0  0  0
  1  2  1  0
  2  3  2  0
  3  4  1  0
  4  5  1  0
  4  6  2  0
  6  7  1  0
  7  8  3  0
  8  9  1  0
  9 10  1  0
  9 11  1  0
  9 12  1  0
 12 13  1  0
 13 14  1  0
 13 15  1  0
 13 16  1  0
 16 17  2  0
 17 18  1  0
 17 19  1  0
 19 20  1  0
 19 21  2  0
 21 22  1  0
 21 23  1  0
 23 24  1  0
 23 25  2  0
 25 26  1  0
  6 27  1  0
 27 28  1  0
 27 29  2  0
 29 30  1  0
 29  2  1  0
 25 16  1  0
M  END
>  <cnnaffinity>  (1) 
-4.4771

>  <filename>  (1) 
C(#Cc1cccnc1)COCc1ccccc1

$$$$
