
     RDKit          3D

 25 27  0  0  0  0  0  0  0  0999 V2000
    4.9448    1.8909   16.8121 H   0  0  0  0  0  0  0  0  0  0  0  0
    5.3870    1.4074   17.6790 C   0  0  0  0  0  0  0  0  0  0  0  0
    6.5517    0.7737   17.4625 N   0  0  0  0  0  0  0  0  0  0  0  0
    7.1035    0.1209   18.4910 C   0  0  0  0  0  0  0  0  0  0  0  0
    8.0527   -0.3764   18.2937 H   0  0  0  0  0  0  0  0  0  0  0  0
    6.5201    0.0488   19.7736 C   0  0  0  0  0  0  0  0  0  0  0  0
    7.0699   -0.7626   20.8175 C   0  0  0  0  0  0  0  0  0  0  0  0
    7.4711   -1.4637   21.7151 C   0  0  0  0  0  0  0  0  0  0  0  0
    8.0523   -2.3392   22.6758 C   0  0  0  0  0  0  0  0  0  0  0  0
    7.4091   -3.1948   23.3988 N   0  0  0  0  0  0  0  0  0  0  0  0
    8.2977   -3.9647   24.1357 C   0  0  0  0  0  0  0  0  0  0  0  0
    7.9185   -5.0144   24.9878 C   0  0  0  0  0  0  0  0  0  0  0  0
    6.8553   -5.2081   25.0795 H   0  0  0  0  0  0  0  0  0  0  0  0
    8.9069   -5.7214   25.6659 C   0  0  0  0  0  0  0  0  0  0  0  0
    8.6577   -6.5296   26.3485 H   0  0  0  0  0  0  0  0  0  0  0  0
   10.2652   -5.3829   25.4921 C   0  0  0  0  0  0  0  0  0  0  0  0
   11.0299   -5.9350   26.0215 H   0  0  0  0  0  0  0  0  0  0  0  0
   10.6594   -4.3483   24.6506 C   0  0  0  0  0  0  0  0  0  0  0  0
   11.7069   -4.0940   24.5387 H   0  0  0  0  0  0  0  0  0  0  0  0
    9.6649   -3.6473   23.9583 C   0  0  0  0  0  0  0  0  0  0  0  0
    9.8060   -2.3483   22.8215 S   0  0  0  0  0  0  0  0  0  0  0  0
    5.3367    0.7713   19.9930 C   0  0  0  0  0  0  0  0  0  0  0  0
    4.9075    0.7860   20.9925 H   0  0  0  0  0  0  0  0  0  0  0  0
    4.7512    1.4457   18.9227 C   0  0  0  0  0  0  0  0  0  0  0  0
    3.8172    1.9817   19.0363 H   0  0  0  0  0  0  0  0  0  0  0  0
  1  2  1  0
  2  3  2  0
  3  4  1  0
  4  5  1  0
  4  6  2  0
  6  7  1  0
  7  8  3  0
  8  9  1  0
  9 10  2  0
 10 11  1  0
 11 12  2  0
 12 13  1  0
 12 14  1  0
 14 15  1  0
 14 16  2  0
 16 17  1  0
 16 18  1  0
 18 19  1  0
 18 20  2  0
 20 21  1  0
  6 22  1  0
 22 23  1  0
 22 24  2  0
 24 25  1  0
 24  2  1  0
 21  9  1  0
 20 11  1  0
M  END
>  <cnnaffinity>  (1) 
-5.10133

>  <filename>  (1) 
C(#Cc1nc2ccccc2s1)c1cccnc1

$$$$
