
     RDKit          3D

 28 30  0  0  0  0  0  0  0  0999 V2000
    4.9142    1.7810   16.9958 H   0  0  0  0  0  0  0  0  0  0  0  0
    5.3978    1.2945   17.8381 C   0  0  0  0  0  0  0  0  0  0  0  0
    6.5634    0.6811   17.5724 N   0  0  0  0  0  0  0  0  0  0  0  0
    7.1746    0.0639   18.5891 C   0  0  0  0  0  0  0  0  0  0  0  0
    8.1220   -0.4251   18.3657 H   0  0  0  0  0  0  0  0  0  0  0  0
    6.6598    0.0093   19.9019 C   0  0  0  0  0  0  0  0  0  0  0  0
    7.3586   -0.6836   20.9395 C   0  0  0  0  0  0  0  0  0  0  0  0
    7.9452   -1.2677   21.8183 C   0  0  0  0  0  0  0  0  0  0  0  0
    8.6308   -1.9528   22.8617 C   0  0  0  0  0  0  0  0  0  0  0  0
    9.8373   -2.5843   22.6126 C   0  0  0  0  0  0  0  0  0  0  0  0
   10.2640   -2.5587   21.6133 H   0  0  0  0  0  0  0  0  0  0  0  0
   10.5527   -3.2604   23.5473 N   0  0  0  0  0  0  0  0  0  0  0  0
   10.0590   -3.3127   24.7700 C   0  0  0  0  0  0  0  0  0  0  0  0
   10.6390   -3.8563   25.5120 H   0  0  0  0  0  0  0  0  0  0  0  0
    8.8375   -2.7101   25.1750 C   0  0  0  0  0  0  0  0  0  0  0  0
    8.3385   -2.7859   26.5111 C   0  0  0  0  0  0  0  0  0  0  0  0
    8.9117   -3.3294   27.2621 H   0  0  0  0  0  0  0  0  0  0  0  0
    7.1482   -2.1808   26.8345 C   0  0  0  0  0  0  0  0  0  0  0  0
    6.7536   -2.2295   27.8428 H   0  0  0  0  0  0  0  0  0  0  0  0
    6.3980   -1.4746   25.8562 C   0  0  0  0  0  0  0  0  0  0  0  0
    5.4592   -1.0038   26.1338 H   0  0  0  0  0  0  0  0  0  0  0  0
    6.8580   -1.3861   24.5590 C   0  0  0  0  0  0  0  0  0  0  0  0
    6.2967   -0.8498   23.7982 H   0  0  0  0  0  0  0  0  0  0  0  0
    8.0875   -2.0005   24.1862 C   0  0  0  0  0  0  0  0  0  0  0  0
    5.4369    0.6553   20.1554 C   0  0  0  0  0  0  0  0  0  0  0  0
    5.0071    0.6338   21.1589 H   0  0  0  0  0  0  0  0  0  0  0  0
    4.8014    1.3138   19.1037 C   0  0  0  0  0  0  0  0  0  0  0  0
    3.8693    1.8466   19.2566 H   0  0  0  0  0  0  0  0  0  0  0  0
  1  2  1  0
  2  3  2  0
  3  4  1  0
  4  5  1  0
  4  6  2  0
  6  7  1  0
  7  8  3  0
  8  9  1  0
  9 10  2  0
 10 11  1  0
 10 12  1  0
 12 13  2  0
 13 14  1  0
 13 15  1  0
 15 16  2  0
 16 17  1  0
 16 18  1  0
 18 19  1  0
 18 20  2  0
 20 21  1  0
 20 22  1  0
 22 23  1  0
 22 24  2  0
  6 25  1  0
 25 26  1  0
 25 27  2  0
 27 28  1  0
 27  2  1  0
 24  9  1  0
 24 15  1  0
M  END
>  <cnnaffinity>  (1) 
-5.15956

>  <filename>  (1) 
C(#Cc1cncc2ccccc12)c1cccnc1

$$$$
