
     RDKit          3D

 37 40  0  0  0  0  0  0  0  0999 V2000
    6.8375    1.2178   23.9544 C   0  0  0  0  0  0  0  0  0  0  0  0
    7.2180    1.0050   22.6797 C   0  0  0  0  0  0  0  0  0  0  0  0
    7.6843   -0.2644   22.1305 C   0  0  0  0  0  0  0  0  0  0  0  0
    8.4499   -1.2602   22.7075 C   0  0  0  0  0  0  0  0  0  0  0  0
    8.6037   -2.2230   21.7013 C   0  0  0  0  0  0  0  0  0  0  0  0
    8.0184   -1.8529   20.5718 N   0  0  0  0  0  0  0  0  0  0  0  0
    7.4490   -0.6656   20.8354 N   0  0  0  0  0  0  0  0  0  0  0  0
    6.7038   -0.0064   19.8249 C   0  0  0  0  0  0  0  0  0  0  0  0
    5.4930    0.6473   20.0933 C   0  0  0  0  0  0  0  0  0  0  0  0
    4.8524    1.3012   19.0378 C   0  0  0  0  0  0  0  0  0  0  0  0
    5.4393    1.2838   17.7696 C   0  0  0  0  0  0  0  0  0  0  0  0
    6.5837    0.6309   17.5021 N   0  0  0  0  0  0  0  0  0  0  0  0
    7.1848   -0.0138   18.5037 C   0  0  0  0  0  0  0  0  0  0  0  0
    8.0896   -0.5624   18.2517 H   0  0  0  0  0  0  0  0  0  0  0  0
    4.9750    1.8008   16.9330 H   0  0  0  0  0  0  0  0  0  0  0  0
    3.9174    1.8294   19.1902 H   0  0  0  0  0  0  0  0  0  0  0  0
    5.0636    0.6318   21.0956 H   0  0  0  0  0  0  0  0  0  0  0  0
    9.1055   -3.1797   21.7432 H   0  0  0  0  0  0  0  0  0  0  0  0
    8.7773   -1.2930   23.7342 H   0  0  0  0  0  0  0  0  0  0  0  0
    7.2194    1.8401   21.9807 H   0  0  0  0  0  0  0  0  0  0  0  0
    6.5106    0.1939   24.9599 C   0  0  0  0  0  0  0  0  0  0  0  0
    6.0186   -0.9593   24.5303 N   0  0  0  0  0  0  0  0  0  0  0  0
    5.5059   -1.8380   25.4162 C   0  0  0  0  0  0  0  0  0  0  0  0
    5.5024   -1.6352   26.7751 C   0  0  0  0  0  0  0  0  0  0  0  0
    6.1425   -0.4748   27.3002 C   0  0  0  0  0  0  0  0  0  0  0  0
    6.2300   -0.2140   28.6961 C   0  0  0  0  0  0  0  0  0  0  0  0
    6.9107    0.8844   29.1625 C   0  0  0  0  0  0  0  0  0  0  0  0
    7.5538    1.7582   28.2522 C   0  0  0  0  0  0  0  0  0  0  0  0
    7.4608    1.5598   26.8926 C   0  0  0  0  0  0  0  0  0  0  0  0
    6.7127    0.4572   26.3763 C   0  0  0  0  0  0  0  0  0  0  0  0
    7.9599    2.2436   26.2064 H   0  0  0  0  0  0  0  0  0  0  0  0
    8.1389    2.5773   28.6424 H   0  0  0  0  0  0  0  0  0  0  0  0
    6.9420    1.0994   30.2266 H   0  0  0  0  0  0  0  0  0  0  0  0
    5.7801   -0.9170   29.3884 H   0  0  0  0  0  0  0  0  0  0  0  0
    5.0347   -2.3513   27.4416 H   0  0  0  0  0  0  0  0  0  0  0  0
    5.1039   -2.7502   24.9793 H   0  0  0  0  0  0  0  0  0  0  0  0
    6.7429    2.2476   24.2898 H   0  0  0  0  0  0  0  0  0  0  0  0
  1  2  2  3
  2  3  1  0
  3  4  2  0
  4  5  1  0
  5  6  2  0
  6  7  1  0
  7  8  1  0
  8  9  2  0
  9 10  1  0
 10 11  2  0
 11 12  1  0
 12 13  2  0
 13 14  1  0
 11 15  1  0
 10 16  1  0
  9 17  1  0
  5 18  1  0
  4 19  1  0
  2 20  1  0
  1 21  1  0
 21 22  2  0
 22 23  1  0
 23 24  2  0
 24 25  1  0
 25 26  2  0
 26 27  1  0
 27 28  2  0
 28 29  1  0
 29 30  2  0
 29 31  1  0
 28 32  1  0
 27 33  1  0
 26 34  1  0
 24 35  1  0
 23 36  1  0
  1 37  1  0
  7  3  1  0
 13  8  1  0
 30 21  1  0
 30 25  1  0
M  END
>  <cnnaffinity>  (1) 
-5.61739

>  <filename>  (1) 
C(=Cc1ccnn1-c1cccnc1)c1nccc2ccccc12

$$$$
