
     RDKit          3D

 31 33  0  0  0  0  0  0  0  0999 V2000
    6.8955   -2.9262   21.7580 H   0  0  0  0  0  0  0  0  0  0  0  0
    7.4730   -3.1688   22.6472 C   0  0  0  0  0  0  0  0  0  0  0  0
    8.6686   -2.6031   22.8151 C   0  0  0  0  0  0  0  0  0  0  0  0
    9.3702   -2.8511   23.6064 H   0  0  0  0  0  0  0  0  0  0  0  0
    9.1995   -1.6294   21.9483 N   0  0  0  0  0  0  0  0  0  0  0  0
   10.5435   -1.4413   21.8662 N   0  0  0  0  0  0  0  0  0  0  0  0
   10.7303   -0.5353   20.9889 N   0  0  0  0  0  0  0  0  0  0  0  0
    9.5616   -0.0930   20.4608 N   0  0  0  0  0  0  0  0  0  0  0  0
    8.6303   -0.7731   21.0767 C   0  0  0  0  0  0  0  0  0  0  0  0
    7.2977   -0.6878   20.9480 O   0  0  0  0  0  0  0  0  0  0  0  0
    6.6935    0.0242   19.9005 C   0  0  0  0  0  0  0  0  0  0  0  0
    7.1889    0.0609   18.5814 C   0  0  0  0  0  0  0  0  0  0  0  0
    8.1368   -0.4191   18.3564 H   0  0  0  0  0  0  0  0  0  0  0  0
    6.5542    0.6675   17.5707 N   0  0  0  0  0  0  0  0  0  0  0  0
    5.3989    1.2916   17.8402 C   0  0  0  0  0  0  0  0  0  0  0  0
    4.9145    1.7863   16.9979 H   0  0  0  0  0  0  0  0  0  0  0  0
    4.8242    1.2984   19.1173 C   0  0  0  0  0  0  0  0  0  0  0  0
    3.8898    1.8284   19.2691 H   0  0  0  0  0  0  0  0  0  0  0  0
    5.4702    0.6406   20.1738 C   0  0  0  0  0  0  0  0  0  0  0  0
    5.0408    0.6084   21.1772 H   0  0  0  0  0  0  0  0  0  0  0  0
    6.8506   -4.1343   23.5769 C   0  0  0  0  0  0  0  0  0  0  0  0
    7.2258   -4.2455   24.9299 C   0  0  0  0  0  0  0  0  0  0  0  0
    7.9806   -3.5755   25.3353 H   0  0  0  0  0  0  0  0  0  0  0  0
    6.6093   -5.1853   25.7614 C   0  0  0  0  0  0  0  0  0  0  0  0
    6.9101   -5.2565   26.8049 H   0  0  0  0  0  0  0  0  0  0  0  0
    5.6120   -6.0285   25.2567 C   0  0  0  0  0  0  0  0  0  0  0  0
    5.1380   -6.7592   25.9087 H   0  0  0  0  0  0  0  0  0  0  0  0
    5.2265   -5.9255   23.9133 C   0  0  0  0  0  0  0  0  0  0  0  0
    4.4480   -6.5740   23.5160 H   0  0  0  0  0  0  0  0  0  0  0  0
    5.8374   -4.9798   23.0860 C   0  0  0  0  0  0  0  0  0  0  0  0
    5.5422   -4.8983   22.0420 H   0  0  0  0  0  0  0  0  0  0  0  0
  1  2  1  0
  2  3  2  3
  3  4  1  0
  3  5  1  0
  5  6  1  0
  6  7  2  0
  7  8  1  0
  8  9  2  0
  9 10  1  0
 10 11  1  0
 11 12  2  0
 12 13  1  0
 12 14  1  0
 14 15  2  0
 15 16  1  0
 15 17  1  0
 17 18  1  0
 17 19  2  0
 19 20  1  0
  2 21  1  0
 21 22  2  0
 22 23  1  0
 22 24  1  0
 24 25  1  0
 24 26  2  0
 26 27  1  0
 26 28  1  0
 28 29  1  0
 28 30  2  0
 30 31  1  0
  9  5  1  0
 19 11  1  0
 30 21  1  0
M  END
>  <cnnaffinity>  (1) 
-5.15905

>  <filename>  (1) 
C(=Cn1nnnc1Oc1cccnc1)c1ccccc1

$$$$
