
     RDKit          3D

 35 37  0  0  0  0  0  0  0  0999 V2000
    6.5558    2.7892   24.0160 H   0  0  0  0  0  0  0  0  0  0  0  0
    6.4437    1.7095   23.8779 C   0  0  0  0  0  0  0  0  0  0  0  0
    7.2894    1.0942   23.0443 C   0  0  0  0  0  0  0  0  0  0  0  0
    8.2169    1.5770   22.7610 H   0  0  0  0  0  0  0  0  0  0  0  0
    7.1498   -0.2955   22.4865 C   0  0  2  0  0  0  0  0  0  0  0  0
    6.1292   -0.7036   22.6474 H   0  0  0  0  0  0  0  0  0  0  0  0
    8.1131   -1.0982   23.1374 O   0  0  0  0  0  0  0  0  0  0  0  0
    8.5786   -2.0983   22.2560 C   0  0  0  0  0  0  0  0  0  0  0  0
    8.0142   -3.0341   22.3831 H   0  0  0  0  0  0  0  0  0  0  0  0
    9.6261   -2.2999   22.4802 H   0  0  0  0  0  0  0  0  0  0  0  0
    8.3868   -1.5258   20.8574 C   0  0  0  0  0  0  0  0  0  0  0  0
    7.8787   -2.2554   20.2258 H   0  0  0  0  0  0  0  0  0  0  0  0
    9.3273   -1.2192   20.3833 H   0  0  0  0  0  0  0  0  0  0  0  0
    7.5173   -0.3846   21.0728 N   0  0  0  0  0  0  0  0  0  0  0  0
    6.7521    0.1198   20.0149 C   0  0  0  0  0  0  0  0  0  0  0  0
    7.2001    0.0288   18.6609 C   0  0  0  0  0  0  0  0  0  0  0  0
    8.1003   -0.5335   18.4424 H   0  0  0  0  0  0  0  0  0  0  0  0
    6.5998    0.5886   17.6018 N   0  0  0  0  0  0  0  0  0  0  0  0
    5.4504    1.2466   17.8295 C   0  0  0  0  0  0  0  0  0  0  0  0
    4.9861    1.7234   16.9686 H   0  0  0  0  0  0  0  0  0  0  0  0
    4.8630    1.3134   19.1004 C   0  0  0  0  0  0  0  0  0  0  0  0
    3.8969    1.7932   19.2061 H   0  0  0  0  0  0  0  0  0  0  0  0
    5.5145    0.7619   20.2121 C   0  0  0  0  0  0  0  0  0  0  0  0
    5.1016    0.8270   21.2180 H   0  0  0  0  0  0  0  0  0  0  0  0
    5.3298    1.0840   24.6261 C   0  0  0  0  0  0  0  0  0  0  0  0
    4.1010    1.7645   24.6941 C   0  0  0  0  0  0  0  0  0  0  0  0
    4.0213    2.7532   24.2420 H   0  0  0  0  0  0  0  0  0  0  0  0
    2.9872    1.1697   25.2903 C   0  0  0  0  0  0  0  0  0  0  0  0
    2.0299    1.6867   25.2865 H   0  0  0  0  0  0  0  0  0  0  0  0
    3.1053   -0.1007   25.8692 C   0  0  0  0  0  0  0  0  0  0  0  0
    2.2425   -0.5632   26.3404 H   0  0  0  0  0  0  0  0  0  0  0  0
    4.3333   -0.7705   25.8508 C   0  0  0  0  0  0  0  0  0  0  0  0
    4.4311   -1.7552   26.3020 H   0  0  0  0  0  0  0  0  0  0  0  0
    5.4408   -0.1850   25.2270 C   0  0  0  0  0  0  0  0  0  0  0  0
    6.3875   -0.7229   25.1809 H   0  0  0  0  0  0  0  0  0  0  0  0
  1  2  1  0
  2  3  2  3
  3  4  1  0
  3  5  1  0
  5  6  1  6
  5  7  1  0
  7  8  1  0
  8  9  1  0
  8 10  1  0
  8 11  1  0
 11 12  1  0
 11 13  1  0
 11 14  1  0
 14 15  1  0
 15 16  2  0
 16 17  1  0
 16 18  1  0
 18 19  2  0
 19 20  1  0
 19 21  1  0
 21 22  1  0
 21 23  2  0
 23 24  1  0
  2 25  1  0
 25 26  2  0
 26 27  1  0
 26 28  1  0
 28 29  1  0
 28 30  2  0
 30 31  1  0
 30 32  1  0
 32 33  1  0
 32 34  2  0
 34 35  1  0
 14  5  1  0
 23 15  1  0
 34 25  1  0
M  END
>  <cnnaffinity>  (1) 
-4.53826

>  <filename>  (1) 
C(=C[C@@H]1OCCN1c1cccnc1)c1ccccc1

$$$$
