
     RDKit          3D

 26 27  0  0  0  0  0  0  0  0999 V2000
    8.7546   -1.3701   20.1746 H   0  0  0  0  0  0  0  0  0  0  0  0
    8.1877   -1.2520   21.0927 C   0  0  0  0  0  0  0  0  0  0  0  0
    8.9567   -1.9969   22.5097 S   0  0  0  0  0  0  0  0  0  0  0  0
   10.4368   -0.9948   22.5855 C   0  0  0  0  0  0  0  0  0  0  0  0
   11.6162   -1.4068   21.9449 C   0  0  0  0  0  0  0  0  0  0  0  0
   11.6378   -2.3320   21.3816 H   0  0  0  0  0  0  0  0  0  0  0  0
   12.7828   -0.6437   22.0750 C   0  0  0  0  0  0  0  0  0  0  0  0
   13.6913   -1.0019   21.6041 H   0  0  0  0  0  0  0  0  0  0  0  0
   12.7759    0.5459   22.8137 C   0  0  0  0  0  0  0  0  0  0  0  0
   13.6896    1.1252   22.9322 H   0  0  0  0  0  0  0  0  0  0  0  0
   11.5871    0.9802   23.4126 C   0  0  0  0  0  0  0  0  0  0  0  0
   11.5743    1.9151   23.9679 H   0  0  0  0  0  0  0  0  0  0  0  0
   10.4270    0.2021   23.3187 C   0  0  0  0  0  0  0  0  0  0  0  0
    9.5039    0.5205   23.8043 H   0  0  0  0  0  0  0  0  0  0  0  0
    7.0236   -0.5884   21.1148 C   0  0  0  0  0  0  0  0  0  0  0  0
    6.4643   -0.5141   22.0488 H   0  0  0  0  0  0  0  0  0  0  0  0
    6.4288    0.0828   19.9379 C   0  0  0  0  0  0  0  0  0  0  0  0
    7.0253    0.0263   18.6534 C   0  0  0  0  0  0  0  0  0  0  0  0
    7.9501   -0.5236   18.4882 H   0  0  0  0  0  0  0  0  0  0  0  0
    6.5394    0.6330   17.5655 N   0  0  0  0  0  0  0  0  0  0  0  0
    5.4110    1.3430   17.7047 C   0  0  0  0  0  0  0  0  0  0  0  0
    5.0282    1.8028   16.7949 H   0  0  0  0  0  0  0  0  0  0  0  0
    4.7349    1.4782   18.9212 C   0  0  0  0  0  0  0  0  0  0  0  0
    3.8254    2.0695   18.9534 H   0  0  0  0  0  0  0  0  0  0  0  0
    5.2469    0.8471   20.0554 C   0  0  0  0  0  0  0  0  0  0  0  0
    4.7527    0.9645   21.0239 H   0  0  0  0  0  0  0  0  0  0  0  0
  1  2  1  0
  2  3  1  0
  3  4  1  0
  4  5  2  0
  5  6  1  0
  5  7  1  0
  7  8  1  0
  7  9  2  0
  9 10  1  0
  9 11  1  0
 11 12  1  0
 11 13  2  0
 13 14  1  0
  2 15  2  3
 15 16  1  0
 15 17  1  0
 17 18  2  0
 18 19  1  0
 18 20  1  0
 20 21  2  0
 21 22  1  0
 21 23  1  0
 23 24  1  0
 23 25  2  0
 25 26  1  0
 13  4  1  0
 25 17  1  0
M  END
>  <cnnaffinity>  (1) 
-4.64452

>  <filename>  (1) 
C(=Cc1cccnc1)Sc1ccccc1

$$$$
