
     RDKit          3D

 34 37  0  0  0  0  0  0  0  0999 V2000
    6.4538    2.3656   25.0620 H   0  0  0  0  0  0  0  0  0  0  0  0
    7.0365    1.5005   25.3606 C   0  0  0  0  0  0  0  0  0  0  0  0
    7.4451    1.3281   26.6269 C   0  0  0  0  0  0  0  0  0  0  0  0
    8.1556    0.5294   26.8666 H   0  0  0  0  0  0  0  0  0  0  0  0
    7.0540    2.1688   27.7733 C   0  0  0  0  0  0  0  0  0  0  0  0
    6.0955    3.1987   27.6890 C   0  0  0  0  0  0  0  0  0  0  0  0
    5.5129    3.3216   26.7820 H   0  0  0  0  0  0  0  0  0  0  0  0
    5.8921    4.0704   28.7630 C   0  0  0  0  0  0  0  0  0  0  0  0
    5.1746    4.8819   28.6664 H   0  0  0  0  0  0  0  0  0  0  0  0
    6.5948    3.8858   29.9578 C   0  0  0  0  0  0  0  0  0  0  0  0
    6.4681    4.5905   30.7751 H   0  0  0  0  0  0  0  0  0  0  0  0
    7.4751    2.8044   30.0919 C   0  0  0  0  0  0  0  0  0  0  0  0
    7.9970    2.6290   31.0296 H   0  0  0  0  0  0  0  0  0  0  0  0
    7.6922    1.9505   29.0087 C   0  0  0  0  0  0  0  0  0  0  0  0
    8.3906    1.1210   29.0982 H   0  0  0  0  0  0  0  0  0  0  0  0
    7.3240    0.5861   24.2709 C   0  0  0  0  0  0  0  0  0  0  0  0
    8.0897   -0.5389   24.4152 N   0  0  0  0  0  0  0  0  0  0  0  0
    8.0741   -1.0115   23.2002 C   0  0  0  0  0  0  0  0  0  0  0  0
    8.8889   -2.2704   22.3343 S   0  0  0  0  0  0  0  0  0  0  0  0
    8.3006   -1.5983   20.8440 C   0  0  0  0  0  0  0  0  0  0  0  0
    8.6974   -1.9697   19.9185 H   0  0  0  0  0  0  0  0  0  0  0  0
    7.4304   -0.5760   21.0142 C   0  0  0  0  0  0  0  0  0  0  0  0
    6.6492    0.1050   19.9667 C   0  0  0  0  0  0  0  0  0  0  0  0
    7.1615    0.0960   18.6558 C   0  0  0  0  0  0  0  0  0  0  0  0
    8.1055   -0.4080   18.4551 H   0  0  0  0  0  0  0  0  0  0  0  0
    6.5774    0.6739   17.6041 N   0  0  0  0  0  0  0  0  0  0  0  0
    5.4083    1.2952   17.8245 C   0  0  0  0  0  0  0  0  0  0  0  0
    4.9473    1.7652   16.9580 H   0  0  0  0  0  0  0  0  0  0  0  0
    4.7875    1.3396   19.0777 C   0  0  0  0  0  0  0  0  0  0  0  0
    3.8340    1.8455   19.1752 H   0  0  0  0  0  0  0  0  0  0  0  0
    5.4096    0.7429   20.1751 C   0  0  0  0  0  0  0  0  0  0  0  0
    4.9619    0.7723   21.1697 H   0  0  0  0  0  0  0  0  0  0  0  0
    7.3332   -0.2477   22.3680 N   0  0  0  0  0  0  0  0  0  0  0  0
    6.8478    0.8182   23.0524 N   0  0  0  0  0  0  0  0  0  0  0  0
  1  2  1  0
  2  3  2  3
  3  4  1  0
  3  5  1  0
  5  6  2  0
  6  7  1  0
  6  8  1  0
  8  9  1  0
  8 10  2  0
 10 11  1  0
 10 12  1  0
 12 13  1  0
 12 14  2  0
 14 15  1  0
  2 16  1  0
 16 17  1  0
 17 18  2  0
 18 19  1  0
 19 20  1  0
 20 21  1  0
 20 22  2  0
 22 23  1  0
 23 24  2  0
 24 25  1  0
 24 26  1  0
 26 27  2  0
 27 28  1  0
 27 29  1  0
 29 30  1  0
 29 31  2  0
 31 32  1  0
 22 33  1  0
 33 34  1  0
 14  5  1  0
 34 16  2  0
 33 18  1  0
 31 23  1  0
M  END
>  <cnnaffinity>  (1) 
-5.1808

>  <filename>  (1) 
C(=Cc1nc2scc(-c3cccnc3)n2n1)c1ccccc1

$$$$
