
     RDKit          3D

 43 45  0  0  0  0  0  0  0  0999 V2000
    7.7366   -1.7041   20.6251 H   0  0  0  0  0  0  0  0  0  0  0  0
    7.3923   -0.7019   20.9161 C   0  0  0  0  0  0  0  0  0  0  0  0
    7.6743   -0.2753   22.1586 C   0  0  0  0  0  0  0  0  0  0  0  0
    7.5921    1.1041   22.7096 C   0  0  0  0  0  0  0  0  0  0  0  0
    7.4003    2.1880   21.9109 N   0  0  0  0  0  0  0  0  0  0  0  0
    7.4766    2.0179   20.9244 H   0  0  0  0  0  0  0  0  0  0  0  0
    6.9337    3.4634   22.4301 C   0  0  0  0  0  0  0  0  0  0  0  0
    7.5368    3.7094   23.3119 H   0  0  0  0  0  0  0  0  0  0  0  0
    7.1237    4.2348   21.6731 H   0  0  0  0  0  0  0  0  0  0  0  0
    5.4348    3.4941   22.8577 C   0  0  0  0  0  0  0  0  0  0  0  0
    4.8265    3.1066   22.0285 H   0  0  0  0  0  0  0  0  0  0  0  0
    5.3076    2.7702   23.6737 H   0  0  0  0  0  0  0  0  0  0  0  0
    4.8825    4.7835   23.2754 N   0  0  0  0  0  0  0  0  0  0  0  0
    5.5836    5.4649   24.3591 C   0  0  0  0  0  0  0  0  0  0  0  0
    6.5719    5.8513   24.0443 H   0  0  0  0  0  0  0  0  0  0  0  0
    5.7645    4.7549   25.1776 H   0  0  0  0  0  0  0  0  0  0  0  0
    4.7616    6.6645   24.9134 C   0  0  0  0  0  0  0  0  0  0  0  0
    5.4577    7.4889   25.1447 H   0  0  0  0  0  0  0  0  0  0  0  0
    4.2542    6.4001   25.8419 H   0  0  0  0  0  0  0  0  0  0  0  0
    3.7283    7.1247   24.0550 O   0  0  0  0  0  0  0  0  0  0  0  0
    4.0988    7.1016   22.6920 C   0  0  0  0  0  0  0  0  0  0  0  0
    3.2314    7.4706   22.1400 H   0  0  0  0  0  0  0  0  0  0  0  0
    4.9215    7.8130   22.5110 H   0  0  0  0  0  0  0  0  0  0  0  0
    4.5190    5.6921   22.1822 C   0  0  0  0  0  0  0  0  0  0  0  0
    3.6917    5.2356   21.6211 H   0  0  0  0  0  0  0  0  0  0  0  0
    5.3449    5.8442   21.4612 H   0  0  0  0  0  0  0  0  0  0  0  0
    7.7381    1.2011   23.9806 N   0  0  0  0  0  0  0  0  0  0  0  0
    8.0060   -0.1240   24.5187 C   0  0  0  0  0  0  0  0  0  0  0  0
    8.9034   -0.0895   25.1451 H   0  0  0  0  0  0  0  0  0  0  0  0
    7.1729   -0.3988   25.1733 H   0  0  0  0  0  0  0  0  0  0  0  0
    8.1484   -1.1127   23.3334 C   0  0  0  0  0  0  0  0  0  0  0  0
    7.5327   -2.0120   23.4596 H   0  0  0  0  0  0  0  0  0  0  0  0
    9.1953   -1.4237   23.2032 H   0  0  0  0  0  0  0  0  0  0  0  0
    6.6427    0.0244   19.8562 C   0  0  0  0  0  0  0  0  0  0  0  0
    7.1351    0.0567   18.5339 C   0  0  0  0  0  0  0  0  0  0  0  0
    8.0799   -0.4373   18.2956 H   0  0  0  0  0  0  0  0  0  0  0  0
    6.5380    0.6926   17.5212 N   0  0  0  0  0  0  0  0  0  0  0  0
    5.3829    1.3289   17.7881 C   0  0  0  0  0  0  0  0  0  0  0  0
    4.9250    1.8545   16.9555 H   0  0  0  0  0  0  0  0  0  0  0  0
    4.7795    1.3312   19.0450 C   0  0  0  0  0  0  0  0  0  0  0  0
    3.8494    1.8690   19.1979 H   0  0  0  0  0  0  0  0  0  0  0  0
    5.4130    0.6609   20.0928 C   0  0  0  0  0  0  0  0  0  0  0  0
    4.9813    0.6359   21.0939 H   0  0  0  0  0  0  0  0  0  0  0  0
  1  2  1  0
  2  3  2  3
  3  4  1  0
  4  5  1  0
  5  6  1  0
  5  7  1  0
  7  8  1  0
  7  9  1  0
  7 10  1  0
 10 11  1  0
 10 12  1  0
 10 13  1  0
 13 14  1  0
 14 15  1  0
 14 16  1  0
 14 17  1  0
 17 18  1  0
 17 19  1  0
 17 20  1  0
 20 21  1  0
 21 22  1  0
 21 23  1  0
 21 24  1  0
 24 25  1  0
 24 26  1  0
  4 27  2  0
 27 28  1  0
 28 29  1  0
 28 30  1  0
 28 31  1  0
 31 32  1  0
 31 33  1  0
  2 34  1  0
 34 35  2  0
 35 36  1  0
 35 37  1  0
 37 38  2  0
 38 39  1  0
 38 40  1  0
 40 41  1  0
 40 42  2  0
 42 43  1  0
 31  3  1  0
 42 34  1  0
 24 13  1  0
M  END
>  <cnnaffinity>  (1) 
-4.75495

>  <filename>  (1) 
C(=C1CCN=C1NCCN1CCOCC1)c1cccnc1

$$$$
