
     RDKit          3D

 29 31  0  0  0  0  0  0  0  0999 V2000
   10.4297   -2.8287   23.3801 C   0  0  0  0  0  0  0  0  0  0  0  0
    9.9910   -2.4254   22.1783 C   0  0  0  0  0  0  0  0  0  0  0  0
    8.7307   -1.7286   21.9868 C   0  0  0  0  0  0  0  0  0  0  0  0
    7.7843   -1.5058   22.8474 N   0  0  0  0  0  0  0  0  0  0  0  0
    6.8121   -0.7990   22.1783 N   0  0  0  0  0  0  0  0  0  0  0  0
    7.2358   -0.6645   20.9635 C   0  0  0  0  0  0  0  0  0  0  0  0
    6.5860    0.0239   19.8707 C   0  0  0  0  0  0  0  0  0  0  0  0
    5.3796    0.6952   20.0939 C   0  0  0  0  0  0  0  0  0  0  0  0
    4.7924    1.3430   19.0121 C   0  0  0  0  0  0  0  0  0  0  0  0
    5.4383    1.3065   17.7695 C   0  0  0  0  0  0  0  0  0  0  0  0
    6.5995    0.6652   17.5559 N   0  0  0  0  0  0  0  0  0  0  0  0
    7.1591    0.0415   18.5956 C   0  0  0  0  0  0  0  0  0  0  0  0
    8.1029   -0.4616   18.3915 H   0  0  0  0  0  0  0  0  0  0  0  0
    5.0054    1.8118   16.9076 H   0  0  0  0  0  0  0  0  0  0  0  0
    3.8595    1.8809   19.1209 H   0  0  0  0  0  0  0  0  0  0  0  0
    4.9391    0.7047   21.0942 H   0  0  0  0  0  0  0  0  0  0  0  0
    8.4409   -1.2429   20.7585 O   0  0  0  0  0  0  0  0  0  0  0  0
   10.5574   -2.5641   21.2603 H   0  0  0  0  0  0  0  0  0  0  0  0
    9.9721   -2.2670   24.6894 C   0  0  0  0  0  0  0  0  0  0  0  0
    9.9538   -0.8756   24.9066 C   0  0  0  0  0  0  0  0  0  0  0  0
    9.6089   -0.3951   26.1660 C   0  0  0  0  0  0  0  0  0  0  0  0
    9.2222   -1.3319   27.1287 C   0  0  0  0  0  0  0  0  0  0  0  0
    9.2004   -2.6929   26.7927 C   0  0  0  0  0  0  0  0  0  0  0  0
    9.6075   -3.1699   25.6097 N   0  0  0  0  0  0  0  0  0  0  0  0
    8.8455   -3.4384   27.5007 H   0  0  0  0  0  0  0  0  0  0  0  0
    8.9673   -1.0228   28.1322 H   0  0  0  0  0  0  0  0  0  0  0  0
    9.6251    0.6786   26.3774 H   0  0  0  0  0  0  0  0  0  0  0  0
   10.1718   -0.2191   24.0706 H   0  0  0  0  0  0  0  0  0  0  0  0
   11.1543   -3.6428   23.4532 H   0  0  0  0  0  0  0  0  0  0  0  0
  1  2  2  3
  2  3  1  0
  3  4  2  0
  4  5  1  0
  5  6  2  0
  6  7  1  0
  7  8  2  0
  8  9  1  0
  9 10  2  0
 10 11  1  0
 11 12  2  0
 12 13  1  0
 10 14  1  0
  9 15  1  0
  8 16  1  0
  6 17  1  0
  2 18  1  0
  1 19  1  0
 19 20  2  0
 20 21  1  0
 21 22  2  0
 22 23  1  0
 23 24  2  0
 23 25  1  0
 22 26  1  0
 21 27  1  0
 20 28  1  0
  1 29  1  0
 17  3  1  0
 24 19  1  0
 12  7  1  0
M  END
>  <cnnaffinity>  (1) 
-5.03445

>  <filename>  (1) 
C(=Cc1nnc(-c2cccnc2)o1)c1ccccn1

$$$$
