
     RDKit          3D

 36 38  0  0  0  0  0  0  0  0999 V2000
    7.9032   -1.8895   24.2084 C   0  0  0  0  0  0  0  0  0  0  0  0
    6.9580   -1.5300   25.0853 C   0  0  0  0  0  0  0  0  0  0  0  0
    6.9808   -1.9555   26.5378 C   0  0  0  0  0  0  0  0  0  0  0  0
    6.7890   -3.4890   26.7060 C   0  0  0  0  0  0  0  0  0  0  0  0
    5.3517   -3.9351   26.4056 C   0  0  0  0  0  0  0  0  0  0  0  0
    4.3398   -3.1630   27.2598 C   0  0  0  0  0  0  0  0  0  0  0  0
    4.4932   -1.6456   27.0962 C   0  0  0  0  0  0  0  0  0  0  0  0
    5.9331   -1.1863   27.3732 C   0  0  0  0  0  0  0  0  0  0  0  0
    6.1552   -1.3342   28.4367 H   0  0  0  0  0  0  0  0  0  0  0  0
    6.0354   -0.1104   27.1868 H   0  0  0  0  0  0  0  0  0  0  0  0
    4.2092   -1.3619   26.0742 H   0  0  0  0  0  0  0  0  0  0  0  0
    3.8013   -1.1173   27.7619 H   0  0  0  0  0  0  0  0  0  0  0  0
    3.3170   -3.4717   27.0168 H   0  0  0  0  0  0  0  0  0  0  0  0
    4.4978   -3.4238   28.3143 H   0  0  0  0  0  0  0  0  0  0  0  0
    5.2482   -5.0142   26.5661 H   0  0  0  0  0  0  0  0  0  0  0  0
    5.1378   -3.7613   25.3430 H   0  0  0  0  0  0  0  0  0  0  0  0
    7.4981   -4.0268   26.0661 H   0  0  0  0  0  0  0  0  0  0  0  0
    7.0415   -3.7698   27.7353 H   0  0  0  0  0  0  0  0  0  0  0  0
    7.9817   -1.7089   26.9263 H   0  0  0  0  0  0  0  0  0  0  0  0
    6.1053   -0.9408   24.7233 H   0  0  0  0  0  0  0  0  0  0  0  0
    7.8571   -1.4831   22.8136 C   0  0  0  0  0  0  0  0  0  0  0  0
    6.9345   -0.7823   22.2252 N   0  0  0  0  0  0  0  0  0  0  0  0
    7.4019   -0.7066   20.9426 C   0  0  0  0  0  0  0  0  0  0  0  0
    6.6590    0.0089   19.9054 C   0  0  0  0  0  0  0  0  0  0  0  0
    5.4376    0.6510   20.1695 C   0  0  0  0  0  0  0  0  0  0  0  0
    4.8091    1.3055   19.1125 C   0  0  0  0  0  0  0  0  0  0  0  0
    5.4088    1.2866   17.8456 C   0  0  0  0  0  0  0  0  0  0  0  0
    6.5709    0.6698   17.5872 N   0  0  0  0  0  0  0  0  0  0  0  0
    7.1789    0.0563   18.6050 C   0  0  0  0  0  0  0  0  0  0  0  0
    8.1228   -0.4265   18.3705 H   0  0  0  0  0  0  0  0  0  0  0  0
    4.9264    1.7753   17.0015 H   0  0  0  0  0  0  0  0  0  0  0  0
    3.8764    1.8411   19.2589 H   0  0  0  0  0  0  0  0  0  0  0  0
    5.0027    0.6337   21.1736 H   0  0  0  0  0  0  0  0  0  0  0  0
    8.5383   -1.3215   20.7426 N   0  0  0  0  0  0  0  0  0  0  0  0
    8.8455   -1.8425   21.9906 O   0  0  0  0  0  0  0  0  0  0  0  0
    8.7618   -2.4873   24.5029 H   0  0  0  0  0  0  0  0  0  0  0  0
  1  2  2  3
  2  3  1  0
  3  4  1  0
  4  5  1  0
  5  6  1  0
  6  7  1  0
  7  8  1  0
  8  9  1  0
  8 10  1  0
  7 11  1  0
  7 12  1  0
  6 13  1  0
  6 14  1  0
  5 15  1  0
  5 16  1  0
  4 17  1  0
  4 18  1  0
  3 19  1  0
  2 20  1  0
  1 21  1  0
 21 22  2  0
 22 23  1  0
 23 24  1  0
 24 25  2  0
 25 26  1  0
 26 27  2  0
 27 28  1  0
 28 29  2  0
 29 30  1  0
 27 31  1  0
 26 32  1  0
 25 33  1  0
 23 34  2  0
 34 35  1  0
  1 36  1  0
  8  3  1  0
 35 21  1  0
 29 24  1  0
M  END
>  <cnnaffinity>  (1) 
-5.36498

>  <filename>  (1) 
C(=CC1CCCCC1)c1nc(-c2cccnc2)no1

$$$$
