
     RDKit          3D

 34 36  0  0  0  0  0  0  0  0999 V2000
    7.0103    2.3828   25.8906 H   0  0  0  0  0  0  0  0  0  0  0  0
    7.1143    2.3601   24.8100 C   0  0  0  0  0  0  0  0  0  0  0  0
    7.1990    1.1434   24.2545 C   0  0  0  0  0  0  0  0  0  0  0  0
    7.2810    0.2461   24.8631 H   0  0  0  0  0  0  0  0  0  0  0  0
    7.1835    0.8959   22.9045 N   0  0  0  0  0  0  0  0  0  0  0  0
    6.9317    1.6593   22.2901 H   0  0  0  0  0  0  0  0  0  0  0  0
    7.5741   -0.3098   22.3094 C   0  0  0  0  0  0  0  0  0  0  0  0
    8.3147   -1.3914   22.8615 C   0  0  0  0  0  0  0  0  0  0  0  0
    8.7047   -1.4998   23.8671 H   0  0  0  0  0  0  0  0  0  0  0  0
    8.5480   -2.3361   21.9526 N   0  0  0  0  0  0  0  0  0  0  0  0
    7.9792   -1.8694   20.8324 N   0  0  0  0  0  0  0  0  0  0  0  0
    7.9924   -2.4352   19.9964 H   0  0  0  0  0  0  0  0  0  0  0  0
    7.3683   -0.6616   20.9820 C   0  0  0  0  0  0  0  0  0  0  0  0
    6.6532    0.0177   19.8872 C   0  0  0  0  0  0  0  0  0  0  0  0
    7.1577    0.0674   18.5706 C   0  0  0  0  0  0  0  0  0  0  0  0
    8.1137   -0.3985   18.3305 H   0  0  0  0  0  0  0  0  0  0  0  0
    6.5493    0.6890   17.5539 N   0  0  0  0  0  0  0  0  0  0  0  0
    5.3849    1.3066   17.8181 C   0  0  0  0  0  0  0  0  0  0  0  0
    4.9112    1.8050   16.9739 H   0  0  0  0  0  0  0  0  0  0  0  0
    4.7910    1.3190   19.0850 C   0  0  0  0  0  0  0  0  0  0  0  0
    3.8608    1.8510   19.2396 H   0  0  0  0  0  0  0  0  0  0  0  0
    5.4320    0.6625   20.1361 C   0  0  0  0  0  0  0  0  0  0  0  0
    5.0102    0.6260   21.1410 H   0  0  0  0  0  0  0  0  0  0  0  0
    7.1372    3.6578   24.1029 C   0  0  0  0  0  0  0  0  0  0  0  0
    8.0622    3.9228   23.0786 C   0  0  0  0  0  0  0  0  0  0  0  0
    8.7899    3.1552   22.8232 H   0  0  0  0  0  0  0  0  0  0  0  0
    8.0555    5.1574   22.4211 C   0  0  0  0  0  0  0  0  0  0  0  0
    8.7703    5.3525   21.6302 H   0  0  0  0  0  0  0  0  0  0  0  0
    7.1205    6.1337   22.7767 C   0  0  0  0  0  0  0  0  0  0  0  0
    7.1163    7.0866   22.2539 H   0  0  0  0  0  0  0  0  0  0  0  0
    6.1993    5.8866   23.8020 C   0  0  0  0  0  0  0  0  0  0  0  0
    5.4744    6.6470   24.0825 H   0  0  0  0  0  0  0  0  0  0  0  0
    6.2165    4.6578   24.4686 C   0  0  0  0  0  0  0  0  0  0  0  0
    5.5010    4.4416   25.2588 H   0  0  0  0  0  0  0  0  0  0  0  0
  1  2  1  0
  2  3  2  3
  3  4  1  0
  3  5  1  0
  5  6  1  0
  5  7  1  0
  7  8  1  0
  8  9  1  0
  8 10  2  0
 10 11  1  0
 11 12  1  0
 11 13  1  0
 13 14  1  0
 14 15  2  0
 15 16  1  0
 15 17  1  0
 17 18  2  0
 18 19  1  0
 18 20  1  0
 20 21  1  0
 20 22  2  0
 22 23  1  0
  2 24  1  0
 24 25  2  0
 25 26  1  0
 25 27  1  0
 27 28  1  0
 27 29  2  0
 29 30  1  0
 29 31  1  0
 31 32  1  0
 31 33  2  0
 33 34  1  0
 13  7  2  0
 22 14  1  0
 33 24  1  0
M  END
>  <cnnaffinity>  (1) 
-5.16553

>  <filename>  (1) 
C(=Cc1ccccc1)Nc1cn[nH]c1-c1cccnc1

$$$$
