
     RDKit          3D

 34 37  0  0  0  0  0  0  0  0999 V2000
    6.7052   -1.3787   21.6200 H   0  0  0  0  0  0  0  0  0  0  0  0
    7.3114   -0.6995   21.0186 C   0  0  0  0  0  0  0  0  0  0  0  0
    8.5873   -0.4636   21.3749 C   0  0  0  0  0  0  0  0  0  0  0  0
    9.3709   -1.0972   22.4378 C   0  0  0  0  0  0  0  0  0  0  0  0
    8.8799   -2.3137   23.1564 C   0  0  0  0  0  0  0  0  0  0  0  0
    7.8886   -3.0877   22.8398 N   0  0  0  0  0  0  0  0  0  0  0  0
    7.8818   -4.0644   23.8241 C   0  0  0  0  0  0  0  0  0  0  0  0
    7.0030   -5.1296   24.0738 C   0  0  0  0  0  0  0  0  0  0  0  0
    6.2132   -5.3459   23.3631 H   0  0  0  0  0  0  0  0  0  0  0  0
    7.2018   -5.8766   25.2340 C   0  0  0  0  0  0  0  0  0  0  0  0
    6.4830   -6.6412   25.5145 H   0  0  0  0  0  0  0  0  0  0  0  0
    8.3175   -5.6426   26.0624 C   0  0  0  0  0  0  0  0  0  0  0  0
    8.5027   -6.3086   26.8965 H   0  0  0  0  0  0  0  0  0  0  0  0
    9.2014   -4.5887   25.8218 C   0  0  0  0  0  0  0  0  0  0  0  0
   10.0284   -4.3436   26.4762 H   0  0  0  0  0  0  0  0  0  0  0  0
    8.9306   -3.8033   24.7083 C   0  0  0  0  0  0  0  0  0  0  0  0
    9.5660   -2.6817   24.2830 O   0  0  0  0  0  0  0  0  0  0  0  0
   10.5132   -0.5496   22.6576 N   0  0  0  0  0  0  0  0  0  0  0  0
   10.6977    0.5809   21.7412 C   0  0  0  0  0  0  0  0  0  0  0  0
   10.7550    1.4996   22.3407 H   0  0  0  0  0  0  0  0  0  0  0  0
   11.6670    0.4622   21.2433 H   0  0  0  0  0  0  0  0  0  0  0  0
    9.4771    0.5941   20.7754 C   0  0  0  0  0  0  0  0  0  0  0  0
    9.6986    0.2991   19.7454 H   0  0  0  0  0  0  0  0  0  0  0  0
    8.9588    1.5556   20.7181 H   0  0  0  0  0  0  0  0  0  0  0  0
    6.6323   -0.0211   19.9036 C   0  0  0  0  0  0  0  0  0  0  0  0
    7.1519    0.0509   18.5933 C   0  0  0  0  0  0  0  0  0  0  0  0
    8.0962   -0.4348   18.3544 H   0  0  0  0  0  0  0  0  0  0  0  0
    6.5556    0.6844   17.5763 N   0  0  0  0  0  0  0  0  0  0  0  0
    5.3941    1.3058   17.8247 C   0  0  0  0  0  0  0  0  0  0  0  0
    4.9326    1.8152   16.9786 H   0  0  0  0  0  0  0  0  0  0  0  0
    4.7871    1.3080   19.0855 C   0  0  0  0  0  0  0  0  0  0  0  0
    3.8617    1.8524   19.2292 H   0  0  0  0  0  0  0  0  0  0  0  0
    5.4076    0.6284   20.1324 C   0  0  0  0  0  0  0  0  0  0  0  0
    4.9872    0.6174   21.1363 H   0  0  0  0  0  0  0  0  0  0  0  0
  1  2  1  0
  2  3  2  3
  3  4  1  0
  4  5  1  0
  5  6  2  0
  6  7  1  0
  7  8  2  0
  8  9  1  0
  8 10  1  0
 10 11  1  0
 10 12  2  0
 12 13  1  0
 12 14  1  0
 14 15  1  0
 14 16  2  0
 16 17  1  0
  4 18  2  0
 18 19  1  0
 19 20  1  0
 19 21  1  0
 19 22  1  0
 22 23  1  0
 22 24  1  0
  2 25  1  0
 25 26  2  0
 26 27  1  0
 26 28  1  0
 28 29  2  0
 29 30  1  0
 29 31  1  0
 31 32  1  0
 31 33  2  0
 33 34  1  0
 22  3  1  0
 33 25  1  0
 17  5  1  0
 16  7  1  0
M  END
>  <cnnaffinity>  (1) 
-5.50393

>  <filename>  (1) 
C(=C1CCN=C1c1nc2ccccc2o1)c1cccnc1

$$$$
