
     RDKit          3D

 27 29  0  0  0  0  0  0  0  0999 V2000
    5.2375   -2.2629   21.0530 H   0  0  0  0  0  0  0  0  0  0  0  0
    5.8973   -2.3788   21.9067 C   0  0  0  0  0  0  0  0  0  0  0  0
    7.0682   -1.7201   21.9339 C   0  0  0  0  0  0  0  0  0  0  0  0
    7.5564   -0.7054   20.9571 C   0  0  0  0  0  0  0  0  0  0  0  0
    6.7190   -0.0454   19.9306 C   0  0  0  0  0  0  0  0  0  0  0  0
    7.2504    0.0375   18.6371 C   0  0  0  0  0  0  0  0  0  0  0  0
    8.2123   -0.4191   18.4181 H   0  0  0  0  0  0  0  0  0  0  0  0
    6.6397    0.6398   17.6151 N   0  0  0  0  0  0  0  0  0  0  0  0
    5.4640    1.2365   17.8681 C   0  0  0  0  0  0  0  0  0  0  0  0
    4.9928    1.7349   17.0228 H   0  0  0  0  0  0  0  0  0  0  0  0
    4.8551    1.2432   19.1283 C   0  0  0  0  0  0  0  0  0  0  0  0
    3.9180    1.7743   19.2682 H   0  0  0  0  0  0  0  0  0  0  0  0
    5.4890    0.5821   20.1845 C   0  0  0  0  0  0  0  0  0  0  0  0
    5.0460    0.5691   21.1830 H   0  0  0  0  0  0  0  0  0  0  0  0
    8.8004   -0.4247   21.0797 N   0  0  0  0  0  0  0  0  0  0  0  0
    9.3596   -1.1656   22.2112 C   0  0  0  0  0  0  0  0  0  0  0  0
    9.8397   -0.4570   22.8916 H   0  0  0  0  0  0  0  0  0  0  0  0
   10.1276   -1.8344   21.8066 H   0  0  0  0  0  0  0  0  0  0  0  0
    8.2064   -1.9401   22.9032 C   0  0  0  0  0  0  0  0  0  0  0  0
    7.9698   -1.5198   23.8838 H   0  0  0  0  0  0  0  0  0  0  0  0
    8.4307   -2.9978   23.0519 H   0  0  0  0  0  0  0  0  0  0  0  0
    5.3847   -3.2933   22.9372 C   0  0  0  0  0  0  0  0  0  0  0  0
    4.2812   -4.0613   22.7161 N   0  0  0  0  0  0  0  0  0  0  0  0
    4.0486   -4.7136   23.8126 N   0  0  0  0  0  0  0  0  0  0  0  0
    4.9863   -4.3412   24.6549 N   0  0  0  0  0  0  0  0  0  0  0  0
    4.9887   -4.6743   25.6132 H   0  0  0  0  0  0  0  0  0  0  0  0
    5.8513   -3.4691   24.1761 N   0  0  0  0  0  0  0  0  0  0  0  0
  1  2  1  0
  2  3  2  3
  3  4  1  0
  4  5  1  0
  5  6  2  0
  6  7  1  0
  6  8  1  0
  8  9  2  0
  9 10  1  0
  9 11  1  0
 11 12  1  0
 11 13  2  0
 13 14  1  0
  4 15  2  0
 15 16  1  0
 16 17  1  0
 16 18  1  0
 16 19  1  0
 19 20  1  0
 19 21  1  0
  2 22  1  0
 22 23  1  0
 23 24  2  0
 24 25  1  0
 25 26  1  0
 25 27  1  0
 19  3  1  0
 27 22  2  0
 13  5  1  0
M  END
>  <cnnaffinity>  (1) 
-4.90123

>  <filename>  (1) 
C(=C1CCN=C1c1cccnc1)c1nn[nH]n1

$$$$
