
     RDKit          3D

 34 36  0  0  0  0  0  0  0  0999 V2000
   10.8853   -3.3140   23.3793 H   0  0  0  0  0  0  0  0  0  0  0  0
    9.8077   -3.4560   23.2933 C   0  0  0  0  0  0  0  0  0  0  0  0
    9.1096   -2.7120   22.4220 C   0  0  0  0  0  0  0  0  0  0  0  0
    8.0540   -2.9201   22.2437 H   0  0  0  0  0  0  0  0  0  0  0  0
    9.5516   -1.5220   21.7358 C   0  0  0  0  0  0  0  0  0  0  0  0
    8.7713   -0.5952   21.0571 C   0  0  0  0  0  0  0  0  0  0  0  0
    7.3732   -0.6902   20.8341 N   0  0  0  0  0  0  0  0  0  0  0  0
    6.8368   -0.7584   21.6910 H   0  0  0  0  0  0  0  0  0  0  0  0
    6.6905   -0.0137   19.8005 C   0  0  0  0  0  0  0  0  0  0  0  0
    7.1546    0.0444   18.4611 C   0  0  0  0  0  0  0  0  0  0  0  0
    8.0642   -0.4857   18.1826 H   0  0  0  0  0  0  0  0  0  0  0  0
    6.5262    0.7031   17.4736 N   0  0  0  0  0  0  0  0  0  0  0  0
    5.3834    1.3401   17.7731 C   0  0  0  0  0  0  0  0  0  0  0  0
    4.9076    1.8791   16.9563 H   0  0  0  0  0  0  0  0  0  0  0  0
    4.8094    1.3074   19.0497 C   0  0  0  0  0  0  0  0  0  0  0  0
    3.8736    1.8275   19.2250 H   0  0  0  0  0  0  0  0  0  0  0  0
    5.4627    0.6097   20.0721 C   0  0  0  0  0  0  0  0  0  0  0  0
    5.0432    0.5545   21.0771 H   0  0  0  0  0  0  0  0  0  0  0  0
    9.6734    0.4289   20.7137 C   0  0  0  0  0  0  0  0  0  0  0  0
    9.4200    1.3261   20.1911 H   0  0  0  0  0  0  0  0  0  0  0  0
   10.9100    0.1757   21.1264 N   0  0  0  0  0  0  0  0  0  0  0  0
   10.8162   -1.0123   21.7421 N   0  0  0  0  0  0  0  0  0  0  0  0
   11.6629   -1.4348   22.0967 H   0  0  0  0  0  0  0  0  0  0  0  0
    9.2068   -4.4383   24.2049 C   0  0  0  0  0  0  0  0  0  0  0  0
    7.8142   -4.4693   24.4340 C   0  0  0  0  0  0  0  0  0  0  0  0
    7.1752   -3.7497   23.9255 H   0  0  0  0  0  0  0  0  0  0  0  0
    7.2675   -5.3555   25.3578 C   0  0  0  0  0  0  0  0  0  0  0  0
    6.1919   -5.3653   25.5342 H   0  0  0  0  0  0  0  0  0  0  0  0
    8.1001   -6.2307   26.0627 C   0  0  0  0  0  0  0  0  0  0  0  0
    7.6469   -6.8784   26.8090 H   0  0  0  0  0  0  0  0  0  0  0  0
    9.4832   -6.2288   25.8256 C   0  0  0  0  0  0  0  0  0  0  0  0
   10.1421   -6.9058   26.3627 H   0  0  0  0  0  0  0  0  0  0  0  0
   10.0362   -5.3354   24.9072 C   0  0  0  0  0  0  0  0  0  0  0  0
   11.1144   -5.3198   24.7262 H   0  0  0  0  0  0  0  0  0  0  0  0
  1  2  1  0
  2  3  2  3
  3  4  1  0
  3  5  1  0
  5  6  2  0
  6  7  1  0
  7  8  1  0
  7  9  1  0
  9 10  2  0
 10 11  1  0
 10 12  1  0
 12 13  2  0
 13 14  1  0
 13 15  1  0
 15 16  1  0
 15 17  2  0
 17 18  1  0
  6 19  1  0
 19 20  1  0
 19 21  2  0
 21 22  1  0
 22 23  1  0
  2 24  1  0
 24 25  2  0
 25 26  1  0
 25 27  1  0
 27 28  1  0
 27 29  2  0
 29 30  1  0
 29 31  1  0
 31 32  1  0
 31 33  2  0
 33 34  1  0
 22  5  1  0
 33 24  1  0
 17  9  1  0
M  END
>  <cnnaffinity>  (1) 
-5.67833

>  <filename>  (1) 
C(=Cc1[nH]ncc1Nc1cccnc1)c1ccccc1

$$$$
