
     RDKit          3D

 36 38  0  0  0  0  0  0  0  0999 V2000
    6.2542   -2.6354   21.0801 H   0  0  0  0  0  0  0  0  0  0  0  0
    6.7107   -1.8311   21.6500 C   0  0  0  0  0  0  0  0  0  0  0  0
    6.5945   -1.6788   22.9749 C   0  0  0  0  0  0  0  0  0  0  0  0
    5.8493   -2.5717   23.8791 C   0  0  0  0  0  0  0  0  0  0  0  0
    5.5474   -3.5202   23.4319 H   0  0  0  0  0  0  0  0  0  0  0  0
    5.4293   -2.2686   25.1192 C   0  0  0  0  0  0  0  0  0  0  0  0
    5.7273   -1.3090   25.5534 H   0  0  0  0  0  0  0  0  0  0  0  0
    4.5222   -3.0709   25.9784 C   0  0  0  0  0  0  0  0  0  0  0  0
    3.9422   -2.4793   27.1226 C   0  0  0  0  0  0  0  0  0  0  0  0
    4.1351   -1.4320   27.3453 H   0  0  0  0  0  0  0  0  0  0  0  0
    3.1217   -3.2178   27.9810 C   0  0  0  0  0  0  0  0  0  0  0  0
    2.6786   -2.7466   28.8560 H   0  0  0  0  0  0  0  0  0  0  0  0
    2.8572   -4.5637   27.7065 C   0  0  0  0  0  0  0  0  0  0  0  0
    2.2201   -5.1431   28.3705 H   0  0  0  0  0  0  0  0  0  0  0  0
    3.4041   -5.1610   26.5680 C   0  0  0  0  0  0  0  0  0  0  0  0
    3.1878   -6.2016   26.3385 H   0  0  0  0  0  0  0  0  0  0  0  0
    4.2203   -4.4211   25.7082 C   0  0  0  0  0  0  0  0  0  0  0  0
    4.6422   -4.9124   24.8354 H   0  0  0  0  0  0  0  0  0  0  0  0
    7.1501   -0.3380   23.4073 C   0  0  0  0  0  0  0  0  0  0  0  0
    6.3142    0.3152   23.7025 H   0  0  0  0  0  0  0  0  0  0  0  0
    7.8142   -0.4143   24.2757 H   0  0  0  0  0  0  0  0  0  0  0  0
    7.8751    0.2073   22.1548 C   0  0  0  0  0  0  0  0  0  0  0  0
    7.6309    1.2589   21.9844 H   0  0  0  0  0  0  0  0  0  0  0  0
    8.9616    0.1645   22.2913 H   0  0  0  0  0  0  0  0  0  0  0  0
    7.4549   -0.7046   20.9601 C   0  0  2  0  0  0  0  0  0  0  0  0
    8.3556   -1.1231   20.4931 H   0  0  0  0  0  0  0  0  0  0  0  0
    6.6806    0.0003   19.8414 C   0  0  0  0  0  0  0  0  0  0  0  0
    7.1653    0.0542   18.5199 C   0  0  0  0  0  0  0  0  0  0  0  0
    8.1018   -0.4365   18.2541 H   0  0  0  0  0  0  0  0  0  0  0  0
    6.5560    0.6836   17.5057 N   0  0  0  0  0  0  0  0  0  0  0  0
    5.4035    1.3133   17.7759 C   0  0  0  0  0  0  0  0  0  0  0  0
    4.9306    1.8459   16.9497 H   0  0  0  0  0  0  0  0  0  0  0  0
    4.8174    1.3143   19.0447 C   0  0  0  0  0  0  0  0  0  0  0  0
    3.8877    1.8444   19.2060 H   0  0  0  0  0  0  0  0  0  0  0  0
    5.4644    0.6548   20.0905 C   0  0  0  0  0  0  0  0  0  0  0  0
    5.0228    0.6461   21.0893 H   0  0  0  0  0  0  0  0  0  0  0  0
  1  2  1  0
  2  3  2  0
  3  4  1  0
  4  5  1  0
  4  6  2  3
  6  7  1  0
  6  8  1  0
  8  9  2  0
  9 10  1  0
  9 11  1  0
 11 12  1  0
 11 13  2  0
 13 14  1  0
 13 15  1  0
 15 16  1  0
 15 17  2  0
 17 18  1  0
  3 19  1  0
 19 20  1  0
 19 21  1  0
 19 22  1  0
 22 23  1  0
 22 24  1  0
 22 25  1  0
 25 26  1  6
 25 27  1  0
 27 28  2  0
 28 29  1  0
 28 30  1  0
 30 31  2  0
 31 32  1  0
 31 33  1  0
 33 34  1  0
 33 35  2  0
 35 36  1  0
 25  2  1  0
 35 27  1  0
 17  8  1  0
M  END
>  <cnnaffinity>  (1) 
-4.8763

>  <filename>  (1) 
C(=Cc1ccccc1)C1=C[C@@H](c2cccnc2)CC1

$$$$
