
     RDKit          3D

 44 46  0  0  0  0  0  0  0  0999 V2000
    8.9192    4.5005   23.1102 C   0  0  0  0  0  0  0  0  0  0  0  0
    8.6443    3.2864   22.6100 C   0  0  0  0  0  0  0  0  0  0  0  0
    9.5632    2.0899   22.7419 C   0  0  0  0  0  0  0  0  0  0  0  0
   11.0197    2.3691   22.3402 C   0  0  0  0  0  0  0  0  0  0  0  0
   11.5657    1.0650   21.7348 C   0  0  0  0  0  0  0  0  0  0  0  0
   10.3641    0.1265   21.5628 C   0  0  0  0  0  0  0  0  0  0  0  0
    9.1532    1.0018   21.7636 N   0  0  0  0  0  4  0  0  0  0  0  0
    7.9014    0.2726   22.1082 C   0  0  0  0  0  0  0  0  0  0  0  0
    7.3847   -0.6261   20.9732 C   0  0  0  0  0  0  0  0  0  0  0  0
    6.6678    0.0811   19.8390 C   0  0  0  0  0  0  0  0  0  0  0  0
    5.4499    0.7453   20.0552 C   0  0  0  0  0  0  0  0  0  0  0  0
    4.8350    1.4001   18.9827 C   0  0  0  0  0  0  0  0  0  0  0  0
    5.4565    1.3656   17.7264 C   0  0  0  0  0  0  0  0  0  0  0  0
    6.6033    0.7113   17.4905 N   0  0  0  0  0  0  0  0  0  0  0  0
    7.1703    0.0827   18.5265 C   0  0  0  0  0  0  0  0  0  0  0  0
    8.0709   -0.4908   18.3032 H   0  0  0  0  0  0  0  0  0  0  0  0
    5.0096    1.8692   16.8705 H   0  0  0  0  0  0  0  0  0  0  0  0
    3.8989    1.9332   19.1009 H   0  0  0  0  0  0  0  0  0  0  0  0
    4.9881    0.7182   21.0463 H   0  0  0  0  0  0  0  0  0  0  0  0
    8.2278   -1.2030   20.5735 H   0  0  0  0  0  0  0  0  0  0  0  0
    6.6936   -1.3566   21.4126 H   0  0  0  0  0  0  0  0  0  0  0  0
    8.0783   -0.3552   22.9953 H   0  0  0  0  0  0  0  0  0  0  0  0
    7.1284    0.9966   22.3967 H   0  0  0  0  0  0  0  0  0  0  0  0
    8.9532    1.5508   20.8933 H   0  0  0  0  0  0  0  0  0  0  0  0
   10.3702   -0.6584   22.3315 H   0  0  0  0  0  0  0  0  0  0  0  0
   10.3421   -0.3698   20.5861 H   0  0  0  0  0  0  0  0  0  0  0  0
   12.3277    0.5820   22.3556 H   0  0  0  0  0  0  0  0  0  0  0  0
   12.0235    1.2971   20.7757 H   0  0  0  0  0  0  0  0  0  0  0  0
   11.6101    2.7175   23.1873 H   0  0  0  0  0  0  0  0  0  0  0  0
   11.0421    3.1767   21.5962 H   0  0  0  0  0  0  0  0  0  0  0  0
    9.5272    1.6738   23.7646 H   0  0  0  0  0  0  0  0  0  0  0  0
    7.7221    3.0925   22.0502 H   0  0  0  0  0  0  0  0  0  0  0  0
    8.0898    5.7277   23.1102 C   0  0  0  0  0  0  0  0  0  0  0  0
    8.6195    6.8744   23.7384 C   0  0  0  0  0  0  0  0  0  0  0  0
    7.8899    8.0592   23.8237 C   0  0  0  0  0  0  0  0  0  0  0  0
    6.6100    8.1266   23.2619 C   0  0  0  0  0  0  0  0  0  0  0  0
    6.0724    7.0039   22.6227 C   0  0  0  0  0  0  0  0  0  0  0  0
    6.8061    5.8145   22.5408 C   0  0  0  0  0  0  0  0  0  0  0  0
    6.3710    4.9540   22.0350 H   0  0  0  0  0  0  0  0  0  0  0  0
    5.0778    7.0504   22.1814 H   0  0  0  0  0  0  0  0  0  0  0  0
    6.0331    9.0474   23.3330 H   0  0  0  0  0  0  0  0  0  0  0  0
    8.3237    8.9268   24.3210 H   0  0  0  0  0  0  0  0  0  0  0  0
    9.6174    6.8189   24.1679 H   0  0  0  0  0  0  0  0  0  0  0  0
    9.8768    4.6688   23.6137 H   0  0  0  0  0  0  0  0  0  0  0  0
  1  2  2  3
  2  3  1  0
  3  4  1  0
  4  5  1  0
  5  6  1  0
  6  7  1  0
  7  8  1  0
  8  9  1  0
  9 10  1  0
 10 11  2  0
 11 12  1  0
 12 13  2  0
 13 14  1  0
 14 15  2  0
 15 16  1  0
 13 17  1  0
 12 18  1  0
 11 19  1  0
  9 20  1  0
  9 21  1  0
  8 22  1  0
  8 23  1  0
  7 24  1  0
  6 25  1  0
  6 26  1  0
  5 27  1  0
  5 28  1  0
  4 29  1  0
  4 30  1  0
  3 31  1  0
  2 32  1  0
  1 33  1  0
 33 34  2  0
 34 35  1  0
 35 36  2  0
 36 37  1  0
 37 38  2  0
 38 39  1  0
 37 40  1  0
 36 41  1  0
 35 42  1  0
 34 43  1  0
  1 44  1  0
  7  3  1  0
 15 10  1  0
 38 33  1  0
M  CHG  1   7   1
M  END
>  <cnnaffinity>  (1) 
-4.62922

>  <filename>  (1) 
C(=CC1CCC[NH+]1CCc1cccnc1)c1ccccc1

$$$$
