
     RDKit          3D

 34 36  0  0  0  0  0  0  0  0999 V2000
    7.4592    1.9666   21.6135 H   0  0  0  0  0  0  0  0  0  0  0  0
    7.4119    1.2914   22.4699 C   0  0  0  0  0  0  0  0  0  0  0  0
    7.0884    1.7838   23.6745 C   0  0  0  0  0  0  0  0  0  0  0  0
    7.0375    1.1047   24.5250 H   0  0  0  0  0  0  0  0  0  0  0  0
    6.7655    3.1952   23.9622 C   0  0  0  0  0  0  0  0  0  0  0  0
    6.3351    4.0903   22.9632 C   0  0  0  0  0  0  0  0  0  0  0  0
    6.1952    3.7352   21.9424 H   0  0  0  0  0  0  0  0  0  0  0  0
    6.0564    5.4219   23.2732 C   0  0  0  0  0  0  0  0  0  0  0  0
    5.7194    6.0954   22.4864 H   0  0  0  0  0  0  0  0  0  0  0  0
    6.2088    5.8844   24.5853 C   0  0  0  0  0  0  0  0  0  0  0  0
    5.9912    6.9214   24.8242 H   0  0  0  0  0  0  0  0  0  0  0  0
    6.6369    5.0059   25.5899 C   0  0  0  0  0  0  0  0  0  0  0  0
    6.7497    5.3566   26.6139 H   0  0  0  0  0  0  0  0  0  0  0  0
    6.9067    3.6732   25.2789 C   0  0  0  0  0  0  0  0  0  0  0  0
    7.2437    2.9876   26.0548 H   0  0  0  0  0  0  0  0  0  0  0  0
    7.7065   -0.1382   22.1996 C   0  0  0  0  0  0  0  0  0  0  0  0
    7.3931   -0.7558   20.9504 C   0  0  0  0  0  0  0  0  0  0  0  0
    6.6500   -0.0210   19.9014 C   0  0  0  0  0  0  0  0  0  0  0  0
    7.1671    0.0304   18.6031 C   0  0  0  0  0  0  0  0  0  0  0  0
    8.1184   -0.4420   18.3672 H   0  0  0  0  0  0  0  0  0  0  0  0
    6.5752    0.6720   17.5912 N   0  0  0  0  0  0  0  0  0  0  0  0
    5.4095    1.2888   17.8468 C   0  0  0  0  0  0  0  0  0  0  0  0
    4.9266    1.7783   17.0027 H   0  0  0  0  0  0  0  0  0  0  0  0
    4.8098    1.3023   19.1100 C   0  0  0  0  0  0  0  0  0  0  0  0
    3.8786    1.8397   19.2584 H   0  0  0  0  0  0  0  0  0  0  0  0
    5.4416    0.6440   20.1640 C   0  0  0  0  0  0  0  0  0  0  0  0
    5.0071    0.6396   21.1679 H   0  0  0  0  0  0  0  0  0  0  0  0
    7.7373   -2.0164   20.6558 N   0  0  0  0  0  0  0  0  0  0  0  0
    8.3342   -2.7393   21.6074 C   0  0  0  0  0  0  0  0  0  0  0  0
    8.5770   -3.7621   21.3380 H   0  0  0  0  0  0  0  0  0  0  0  0
    8.6633   -2.2441   22.8714 C   0  0  0  0  0  0  0  0  0  0  0  0
    9.1728   -2.8730   23.5906 H   0  0  0  0  0  0  0  0  0  0  0  0
    8.3467   -0.9234   23.1712 C   0  0  0  0  0  0  0  0  0  0  0  0
    8.6204   -0.4886   24.1348 H   0  0  0  0  0  0  0  0  0  0  0  0
  1  2  1  0
  2  3  2  3
  3  4  1  0
  3  5  1  0
  5  6  2  0
  6  7  1  0
  6  8  1  0
  8  9  1  0
  8 10  2  0
 10 11  1  0
 10 12  1  0
 12 13  1  0
 12 14  2  0
 14 15  1  0
  2 16  1  0
 16 17  1  0
 17 18  1  0
 18 19  2  0
 19 20  1  0
 19 21  1  0
 21 22  2  0
 22 23  1  0
 22 24  1  0
 24 25  1  0
 24 26  2  0
 26 27  1  0
 17 28  2  0
 28 29  1  0
 29 30  1  0
 29 31  2  0
 31 32  1  0
 31 33  1  0
 33 34  1  0
 14  5  1  0
 33 16  2  0
 26 18  1  0
M  END
>  <cnnaffinity>  (1) 
-4.95443

>  <filename>  (1) 
C(=Cc1cccnc1-c1cccnc1)c1ccccc1

$$$$
