
     RDKit          3D

 31 33  0  0  0  0  0  0  0  0999 V2000
    7.7810   -2.3827   24.0227 C   0  0  0  0  0  0  0  0  0  0  0  0
    8.7551   -2.9070   24.7678 C   0  0  0  0  0  0  0  0  0  0  0  0
    8.5837   -3.6994   25.9920 C   0  0  0  0  0  0  0  0  0  0  0  0
    7.3379   -4.1234   26.5054 C   0  0  0  0  0  0  0  0  0  0  0  0
    7.3345   -5.0126   27.5833 C   0  0  0  0  0  0  0  0  0  0  0  0
    8.5515   -5.3676   28.1633 C   0  0  0  0  0  0  0  0  0  0  0  0
    9.7308   -4.8337   27.6360 C   0  0  0  0  0  0  0  0  0  0  0  0
    9.7538   -4.0372   26.5677 N   0  0  0  0  0  0  0  0  0  0  0  0
   10.6962   -5.0453   28.0963 H   0  0  0  0  0  0  0  0  0  0  0  0
    8.5838   -6.0201   29.0278 H   0  0  0  0  0  0  0  0  0  0  0  0
    6.4028   -5.4368   27.9560 H   0  0  0  0  0  0  0  0  0  0  0  0
    6.4113   -3.7985   26.0451 H   0  0  0  0  0  0  0  0  0  0  0  0
    9.8006   -2.7677   24.5015 H   0  0  0  0  0  0  0  0  0  0  0  0
    7.9562   -1.7474   22.7264 C   0  0  0  0  0  0  0  0  0  0  0  0
    6.9184   -1.1776   22.0330 C   0  0  0  0  0  0  0  0  0  0  0  0
    7.4040   -0.6796   20.8805 N   0  0  0  0  0  0  0  0  0  0  0  0
    6.6859    0.0113   19.8794 C   0  0  0  0  0  0  0  0  0  0  0  0
    5.4756    0.6690   20.1408 C   0  0  0  0  0  0  0  0  0  0  0  0
    4.8454    1.3085   19.0725 C   0  0  0  0  0  0  0  0  0  0  0  0
    5.4442    1.2812   17.8084 C   0  0  0  0  0  0  0  0  0  0  0  0
    6.6042    0.6477   17.5597 N   0  0  0  0  0  0  0  0  0  0  0  0
    7.2080    0.0357   18.5797 C   0  0  0  0  0  0  0  0  0  0  0  0
    8.1532   -0.4668   18.3876 H   0  0  0  0  0  0  0  0  0  0  0  0
    4.9838    1.7881   16.9645 H   0  0  0  0  0  0  0  0  0  0  0  0
    3.9072    1.8337   19.2142 H   0  0  0  0  0  0  0  0  0  0  0  0
    5.0545    0.7106   21.1468 H   0  0  0  0  0  0  0  0  0  0  0  0
    8.7233   -0.9279   20.7541 N   0  0  0  0  0  0  0  0  0  0  0  0
    9.0687   -1.5599   21.8606 C   0  0  0  0  0  0  0  0  0  0  0  0
   10.0995   -1.8722   21.9778 H   0  0  0  0  0  0  0  0  0  0  0  0
    5.8714   -1.1312   22.2650 H   0  0  0  0  0  0  0  0  0  0  0  0
    6.7446   -2.3811   24.3728 H   0  0  0  0  0  0  0  0  0  0  0  0
  1  2  2  3
  2  3  1  0
  3  4  2  0
  4  5  1  0
  5  6  2  0
  6  7  1  0
  7  8  2  0
  7  9  1  0
  6 10  1  0
  5 11  1  0
  4 12  1  0
  2 13  1  0
  1 14  1  0
 14 15  2  0
 15 16  1  0
 16 17  1  0
 17 18  2  0
 18 19  1  0
 19 20  2  0
 20 21  1  0
 21 22  2  0
 22 23  1  0
 20 24  1  0
 19 25  1  0
 18 26  1  0
 16 27  1  0
 27 28  2  0
 28 29  1  0
 15 30  1  0
  1 31  1  0
  8  3  1  0
 28 14  1  0
 22 17  1  0
M  END
>  <cnnaffinity>  (1) 
-5.19995

>  <filename>  (1) 
C(=Cc1ccccn1)c1cnn(-c2cccnc2)c1

$$$$
