
     RDKit          3D

 38 40  0  0  0  0  0  0  0  0999 V2000
    7.6056   -2.2358   24.1047 C   0  0  0  0  0  0  0  0  0  0  0  0
    8.1107   -3.3378   24.6732 C   0  0  0  0  0  0  0  0  0  0  0  0
    9.0183   -4.3607   24.0229 C   0  0  0  0  0  0  0  0  0  0  0  0
    8.5082   -5.8121   24.2197 C   0  0  0  0  0  0  0  0  0  0  0  0
    8.7905   -6.3233   25.6353 C   0  0  0  0  0  0  0  0  0  0  0  0
   10.2838   -6.3185   25.8234 N   0  0  0  0  0  4  0  0  0  0  0  0
   10.7580   -4.8881   25.8742 C   0  0  0  0  0  0  0  0  0  0  0  0
   10.4601   -4.1560   24.5605 C   0  0  0  0  0  0  0  0  0  0  0  0
   11.2176   -4.4526   23.8337 H   0  0  0  0  0  0  0  0  0  0  0  0
   10.6359   -3.0823   24.6980 H   0  0  0  0  0  0  0  0  0  0  0  0
   11.8274   -4.8540   26.0728 H   0  0  0  0  0  0  0  0  0  0  0  0
   10.2418   -4.3790   26.6935 H   0  0  0  0  0  0  0  0  0  0  0  0
   10.5742   -6.8809   26.6517 H   0  0  0  0  0  0  0  0  0  0  0  0
   10.7123   -6.7508   24.9527 H   0  0  0  0  0  0  0  0  0  0  0  0
    8.3371   -5.6620   26.3857 H   0  0  0  0  0  0  0  0  0  0  0  0
    8.3922   -7.3225   25.7956 H   0  0  0  0  0  0  0  0  0  0  0  0
    7.4383   -5.8677   23.9929 H   0  0  0  0  0  0  0  0  0  0  0  0
    9.0123   -6.4849   23.5059 H   0  0  0  0  0  0  0  0  0  0  0  0
    8.9928   -4.1299   22.9529 H   0  0  0  0  0  0  0  0  0  0  0  0
    7.9027   -3.5056   25.7276 H   0  0  0  0  0  0  0  0  0  0  0  0
    7.8324   -1.7054   22.7497 C   0  0  0  0  0  0  0  0  0  0  0  0
    6.8677   -1.0579   22.0166 C   0  0  0  0  0  0  0  0  0  0  0  0
    7.4253   -0.6152   20.8654 N   0  0  0  0  0  0  0  0  0  0  0  0
    6.7429    0.0647   19.8259 C   0  0  0  0  0  0  0  0  0  0  0  0
    5.5362    0.7490   20.0625 C   0  0  0  0  0  0  0  0  0  0  0  0
    4.9056    1.3698   18.9836 C   0  0  0  0  0  0  0  0  0  0  0  0
    5.4923    1.2930   17.7194 C   0  0  0  0  0  0  0  0  0  0  0  0
    6.6423    0.6386   17.4883 N   0  0  0  0  0  0  0  0  0  0  0  0
    7.2517    0.0455   18.5177 C   0  0  0  0  0  0  0  0  0  0  0  0
    8.1810   -0.4712   18.2948 H   0  0  0  0  0  0  0  0  0  0  0  0
    5.0212    1.7647   16.8590 H   0  0  0  0  0  0  0  0  0  0  0  0
    3.9691    1.9033   19.1169 H   0  0  0  0  0  0  0  0  0  0  0  0
    5.1044    0.8250   21.0599 H   0  0  0  0  0  0  0  0  0  0  0  0
    8.7298   -0.9544   20.7870 N   0  0  0  0  0  0  0  0  0  0  0  0
    8.9814   -1.6034   21.9139 C   0  0  0  0  0  0  0  0  0  0  0  0
    9.9919   -1.9512   22.0962 H   0  0  0  0  0  0  0  0  0  0  0  0
    5.8176   -0.9121   22.2145 H   0  0  0  0  0  0  0  0  0  0  0  0
    6.8567   -1.6717   24.6691 H   0  0  0  0  0  0  0  0  0  0  0  0
  1  2  2  3
  2  3  1  0
  3  4  1  0
  4  5  1  0
  5  6  1  0
  6  7  1  0
  7  8  1  0
  8  9  1  0
  8 10  1  0
  7 11  1  0
  7 12  1  0
  6 13  1  0
  6 14  1  0
  5 15  1  0
  5 16  1  0
  4 17  1  0
  4 18  1  0
  3 19  1  0
  2 20  1  0
  1 21  1  0
 21 22  2  0
 22 23  1  0
 23 24  1  0
 24 25  2  0
 25 26  1  0
 26 27  2  0
 27 28  1  0
 28 29  2  0
 29 30  1  0
 27 31  1  0
 26 32  1  0
 25 33  1  0
 23 34  1  0
 34 35  2  0
 35 36  1  0
 22 37  1  0
  1 38  1  0
  8  3  1  0
 35 21  1  0
 29 24  1  0
M  CHG  1   6   1
M  END
>  <cnnaffinity>  (1) 
-5.36948

>  <filename>  (1) 
C(=CC1CC[NH2+]CC1)c1cnn(-c2cccnc2)c1

$$$$
