
     RDKit          3D

 31 33  0  0  0  0  0  0  0  0999 V2000
    6.9442    0.7689   24.0424 H   0  0  0  0  0  0  0  0  0  0  0  0
    7.2431    0.8868   22.9996 C   0  0  0  0  0  0  0  0  0  0  0  0
    7.2420    2.0954   22.3994 C   0  0  0  0  0  0  0  0  0  0  0  0
    7.5026    2.1673   21.3410 H   0  0  0  0  0  0  0  0  0  0  0  0
    6.8928    3.3790   23.0283 C   0  0  0  0  0  0  0  0  0  0  0  0
    6.5515    4.4812   22.2186 C   0  0  0  0  0  0  0  0  0  0  0  0
    6.5406    4.3667   21.1358 H   0  0  0  0  0  0  0  0  0  0  0  0
    6.2021    5.7075   22.7898 C   0  0  0  0  0  0  0  0  0  0  0  0
    5.9445    6.5465   22.1458 H   0  0  0  0  0  0  0  0  0  0  0  0
    6.1939    5.8505   24.1841 C   0  0  0  0  0  0  0  0  0  0  0  0
    5.9260    6.8037   24.6319 H   0  0  0  0  0  0  0  0  0  0  0  0
    6.5328    4.7627   24.9984 C   0  0  0  0  0  0  0  0  0  0  0  0
    6.5325    4.8635   26.0809 H   0  0  0  0  0  0  0  0  0  0  0  0
    6.8754    3.5366   24.4263 C   0  0  0  0  0  0  0  0  0  0  0  0
    7.1546    2.6986   25.0621 H   0  0  0  0  0  0  0  0  0  0  0  0
    7.5165   -0.3415   22.2693 C   0  0  0  0  0  0  0  0  0  0  0  0
    8.1249   -1.3921   22.8980 O   0  0  0  0  0  0  0  0  0  0  0  0
    8.3430   -2.2906   21.9223 C   0  0  0  0  0  0  0  0  0  0  0  0
    8.8363   -3.2070   22.2229 H   0  0  0  0  0  0  0  0  0  0  0  0
    7.9425   -1.9487   20.7487 N   0  0  0  0  0  0  0  0  0  0  0  0
    7.3655   -0.7042   20.9480 C   0  0  0  0  0  0  0  0  0  0  0  0
    6.6456   -0.0021   19.8897 C   0  0  0  0  0  0  0  0  0  0  0  0
    7.1648    0.0418   18.5850 C   0  0  0  0  0  0  0  0  0  0  0  0
    8.1167   -0.4341   18.3667 H   0  0  0  0  0  0  0  0  0  0  0  0
    6.5707    0.6736   17.5681 N   0  0  0  0  0  0  0  0  0  0  0  0
    5.4091    1.2948   17.8335 C   0  0  0  0  0  0  0  0  0  0  0  0
    4.9264    1.7845   16.9924 H   0  0  0  0  0  0  0  0  0  0  0  0
    4.8016    1.3108   19.0962 C   0  0  0  0  0  0  0  0  0  0  0  0
    3.8685    1.8449   19.2520 H   0  0  0  0  0  0  0  0  0  0  0  0
    5.4252    0.6441   20.1473 C   0  0  0  0  0  0  0  0  0  0  0  0
    4.9953    0.6360   21.1551 H   0  0  0  0  0  0  0  0  0  0  0  0
  1  2  1  0
  2  3  2  3
  3  4  1  0
  3  5  1  0
  5  6  2  0
  6  7  1  0
  6  8  1  0
  8  9  1  0
  8 10  2  0
 10 11  1  0
 10 12  1  0
 12 13  1  0
 12 14  2  0
 14 15  1  0
  2 16  1  0
 16 17  1  0
 17 18  1  0
 18 19  1  0
 18 20  2  0
 20 21  1  0
 21 22  1  0
 22 23  2  0
 23 24  1  0
 23 25  1  0
 25 26  2  0
 26 27  1  0
 26 28  1  0
 28 29  1  0
 28 30  2  0
 30 31  1  0
 14  5  1  0
 21 16  2  0
 30 22  1  0
M  END
>  <cnnaffinity>  (1) 
-4.90628

>  <filename>  (1) 
C(=Cc1ocnc1-c1cccnc1)c1ccccc1

$$$$
