
     RDKit          3D

 36 38  0  0  0  0  0  0  0  0999 V2000
    9.3929   -0.5446   20.2497 H   0  0  0  0  0  0  0  0  0  0  0  0
    8.6534   -0.9165   20.9534 C   0  0  0  0  0  0  0  0  0  0  0  0
    7.3336   -0.7132   20.8892 C   0  0  0  0  0  0  0  0  0  0  0  0
    6.6011    0.0079   19.8299 C   0  0  0  0  0  0  0  0  0  0  0  0
    7.1159    0.0741   18.5161 C   0  0  0  0  0  0  0  0  0  0  0  0
    8.0483   -0.4361   18.2774 H   0  0  0  0  0  0  0  0  0  0  0  0
    6.5306    0.7135   17.4983 N   0  0  0  0  0  0  0  0  0  0  0  0
    5.3738    1.3473   17.7546 C   0  0  0  0  0  0  0  0  0  0  0  0
    4.9163    1.8739   16.9198 H   0  0  0  0  0  0  0  0  0  0  0  0
    4.7640    1.3451   19.0133 C   0  0  0  0  0  0  0  0  0  0  0  0
    3.8310    1.8787   19.1519 H   0  0  0  0  0  0  0  0  0  0  0  0
    5.3792    0.6679   20.0640 C   0  0  0  0  0  0  0  0  0  0  0  0
    4.9342    0.6696   21.0614 H   0  0  0  0  0  0  0  0  0  0  0  0
    6.6648   -1.2729   22.1355 C   0  0  0  0  0  0  0  0  0  0  0  0
    6.3367   -0.4455   22.7783 H   0  0  0  0  0  0  0  0  0  0  0  0
    5.7943   -1.8874   21.8924 H   0  0  0  0  0  0  0  0  0  0  0  0
    7.7573   -2.0909   22.8482 C   0  0  0  0  0  0  0  0  0  0  0  0
    7.6079   -3.1677   22.7188 H   0  0  0  0  0  0  0  0  0  0  0  0
    7.7560   -1.8912   23.9263 H   0  0  0  0  0  0  0  0  0  0  0  0
    9.0994   -1.6538   22.1939 C   0  0  2  0  0  0  0  0  0  0  0  0
    9.6888   -2.5386   21.9010 H   0  0  0  0  0  0  0  0  0  0  0  0
    9.9693   -0.8248   23.1296 C   0  0  0  0  0  0  0  0  0  0  0  0
   10.2481    0.1765   22.8018 H   0  0  0  0  0  0  0  0  0  0  0  0
   10.3459   -1.2530   24.3387 C   0  0  0  0  0  0  0  0  0  0  0  0
   10.8664   -0.5731   25.0187 H   0  0  0  0  0  0  0  0  0  0  0  0
   10.1794   -2.6462   24.8263 C   0  0  0  0  0  0  0  0  0  0  0  0
    9.4190   -2.9344   25.9827 C   0  0  0  0  0  0  0  0  0  0  0  0
    8.7916   -2.1609   26.4178 H   0  0  0  0  0  0  0  0  0  0  0  0
    9.4933   -4.1957   26.5861 C   0  0  0  0  0  0  0  0  0  0  0  0
    8.9161   -4.3988   27.4842 H   0  0  0  0  0  0  0  0  0  0  0  0
   10.3057   -5.1824   26.0163 C   0  0  0  0  0  0  0  0  0  0  0  0
   10.3601   -6.1642   26.4745 H   0  0  0  0  0  0  0  0  0  0  0  0
   11.0123   -4.9186   24.8410 C   0  0  0  0  0  0  0  0  0  0  0  0
   11.6437   -5.6802   24.4052 H   0  0  0  0  0  0  0  0  0  0  0  0
   10.9113   -3.6746   24.2175 C   0  0  0  0  0  0  0  0  0  0  0  0
   11.4461   -3.4826   23.2860 H   0  0  0  0  0  0  0  0  0  0  0  0
  1  2  1  0
  2  3  2  0
  3  4  1  0
  4  5  2  0
  5  6  1  0
  5  7  1  0
  7  8  2  0
  8  9  1  0
  8 10  1  0
 10 11  1  0
 10 12  2  0
 12 13  1  0
  3 14  1  0
 14 15  1  0
 14 16  1  0
 14 17  1  0
 17 18  1  0
 17 19  1  0
 17 20  1  0
 20 21  1  6
 20 22  1  0
 22 23  1  0
 22 24  2  3
 24 25  1  0
 24 26  1  0
 26 27  2  0
 27 28  1  0
 27 29  1  0
 29 30  1  0
 29 31  2  0
 31 32  1  0
 31 33  1  0
 33 34  1  0
 33 35  2  0
 35 36  1  0
 20  2  1  0
 35 26  1  0
 12  4  1  0
M  END
>  <cnnaffinity>  (1) 
-5.37058

>  <filename>  (1) 
C(=C[C@@H]1C=C(c2cccnc2)CC1)c1ccccc1

$$$$
