
     RDKit          3D

 32 34  0  0  0  0  0  0  0  0999 V2000
    6.9824    0.8250   23.9923 H   0  0  0  0  0  0  0  0  0  0  0  0
    7.2694    0.9163   22.9478 C   0  0  0  0  0  0  0  0  0  0  0  0
    7.3049    2.1164   22.3295 C   0  0  0  0  0  0  0  0  0  0  0  0
    7.5725    2.1707   21.2728 H   0  0  0  0  0  0  0  0  0  0  0  0
    6.9789    3.4195   22.9399 C   0  0  0  0  0  0  0  0  0  0  0  0
    6.9683    3.6152   24.3319 C   0  0  0  0  0  0  0  0  0  0  0  0
    7.2312    2.7859   24.9849 H   0  0  0  0  0  0  0  0  0  0  0  0
    6.6471    4.8627   24.8740 C   0  0  0  0  0  0  0  0  0  0  0  0
    6.6481    4.9911   25.9530 H   0  0  0  0  0  0  0  0  0  0  0  0
    6.3287    5.9367   24.0341 C   0  0  0  0  0  0  0  0  0  0  0  0
    6.0778    6.9059   24.4569 H   0  0  0  0  0  0  0  0  0  0  0  0
    6.3335    5.7601   22.6455 C   0  0  0  0  0  0  0  0  0  0  0  0
    6.0906    6.5858   21.9777 H   0  0  0  0  0  0  0  0  0  0  0  0
    6.6565    4.5113   22.1088 C   0  0  0  0  0  0  0  0  0  0  0  0
    6.6253    4.3750   21.0328 H   0  0  0  0  0  0  0  0  0  0  0  0
    7.5497   -0.3600   22.3014 C   0  0  0  0  0  0  0  0  0  0  0  0
    8.1400   -1.4182   22.9572 N   0  0  0  0  0  0  0  0  0  0  0  0
    8.3440   -2.3288   22.0444 C   0  0  0  0  0  0  0  0  0  0  0  0
    8.8011   -3.3030   22.2036 H   0  0  0  0  0  0  0  0  0  0  0  0
    7.9106   -1.9246   20.8213 N   0  0  0  0  0  0  0  0  0  0  0  0
    7.8653   -2.4781   19.9838 H   0  0  0  0  0  0  0  0  0  0  0  0
    7.3546   -0.6787   20.9627 C   0  0  0  0  0  0  0  0  0  0  0  0
    6.6447    0.0001   19.8743 C   0  0  0  0  0  0  0  0  0  0  0  0
    7.1574    0.0556   18.5602 C   0  0  0  0  0  0  0  0  0  0  0  0
    8.1176   -0.4095   18.3458 H   0  0  0  0  0  0  0  0  0  0  0  0
    6.5573    0.6865   17.5445 N   0  0  0  0  0  0  0  0  0  0  0  0
    5.3955    1.3036   17.8183 C   0  0  0  0  0  0  0  0  0  0  0  0
    4.9137    1.7960   16.9816 H   0  0  0  0  0  0  0  0  0  0  0  0
    4.7957    1.3172   19.0836 C   0  0  0  0  0  0  0  0  0  0  0  0
    3.8664    1.8476   19.2477 H   0  0  0  0  0  0  0  0  0  0  0  0
    5.4221    0.6467   20.1320 C   0  0  0  0  0  0  0  0  0  0  0  0
    5.0061    0.6296   21.1439 H   0  0  0  0  0  0  0  0  0  0  0  0
  1  2  1  0
  2  3  2  3
  3  4  1  0
  3  5  1  0
  5  6  2  0
  6  7  1  0
  6  8  1  0
  8  9  1  0
  8 10  2  0
 10 11  1  0
 10 12  1  0
 12 13  1  0
 12 14  2  0
 14 15  1  0
  2 16  1  0
 16 17  1  0
 17 18  2  0
 18 19  1  0
 18 20  1  0
 20 21  1  0
 20 22  1  0
 22 23  1  0
 23 24  2  0
 24 25  1  0
 24 26  1  0
 26 27  2  0
 27 28  1  0
 27 29  1  0
 29 30  1  0
 29 31  2  0
 31 32  1  0
 14  5  1  0
 22 16  2  0
 31 23  1  0
M  END
>  <cnnaffinity>  (1) 
-4.97531

>  <filename>  (1) 
C(=Cc1nc[nH]c1-c1cccnc1)c1ccccc1

$$$$
