
     RDKit          3D

 32 34  0  0  0  0  0  0  0  0999 V2000
    6.5986   -3.0766   23.7874 C   0  0  0  0  0  0  0  0  0  0  0  0
    7.1015   -4.0622   24.5382 C   0  0  0  0  0  0  0  0  0  0  0  0
    6.3130   -4.9158   25.4424 C   0  0  0  0  0  0  0  0  0  0  0  0
    6.9467   -5.9416   26.1484 C   0  0  0  0  0  0  0  0  0  0  0  0
    6.1415   -6.6932   26.9838 C   0  0  0  0  0  0  0  0  0  0  0  0
    4.8288   -6.4909   27.1210 N   0  0  0  0  0  0  0  0  0  0  0  0
    4.3299   -5.4910   26.4026 C   0  0  0  0  0  0  0  0  0  0  0  0
    4.9978   -4.6973   25.5713 N   0  0  0  0  0  0  0  0  0  0  0  0
    3.2634   -5.3066   26.5080 H   0  0  0  0  0  0  0  0  0  0  0  0
    6.5515   -7.4860   27.5954 H   0  0  0  0  0  0  0  0  0  0  0  0
    8.0058   -6.1325   26.0535 H   0  0  0  0  0  0  0  0  0  0  0  0
    8.1611   -4.2944   24.4734 H   0  0  0  0  0  0  0  0  0  0  0  0
    7.3582   -2.2109   22.8779 C   0  0  0  0  0  0  0  0  0  0  0  0
    8.7497   -1.9966   22.9620 C   0  0  0  0  0  0  0  0  0  0  0  0
    9.4461   -1.2072   22.1349 N   0  0  0  0  0  0  0  0  0  0  0  0
    8.7645   -0.5873   21.1648 C   0  0  0  0  0  0  0  0  0  0  0  0
    7.3750   -0.7093   20.9779 C   0  0  0  0  0  0  0  0  0  0  0  0
    6.6606    0.0148   19.8973 C   0  0  0  0  0  0  0  0  0  0  0  0
    5.4369    0.6520   20.1495 C   0  0  0  0  0  0  0  0  0  0  0  0
    4.8026    1.3178   19.1026 C   0  0  0  0  0  0  0  0  0  0  0  0
    5.3982    1.2962   17.8352 C   0  0  0  0  0  0  0  0  0  0  0  0
    6.5618    0.6811   17.5661 N   0  0  0  0  0  0  0  0  0  0  0  0
    7.1715    0.0713   18.5885 C   0  0  0  0  0  0  0  0  0  0  0  0
    8.1142   -0.4294   18.3707 H   0  0  0  0  0  0  0  0  0  0  0  0
    4.9094    1.7806   16.9958 H   0  0  0  0  0  0  0  0  0  0  0  0
    3.8688    1.8473   19.2600 H   0  0  0  0  0  0  0  0  0  0  0  0
    5.0144    0.6338   21.1576 H   0  0  0  0  0  0  0  0  0  0  0  0
    6.6752   -1.5329   21.8601 C   0  0  0  0  0  0  0  0  0  0  0  0
    5.6006   -1.6650   21.7307 H   0  0  0  0  0  0  0  0  0  0  0  0
    9.3291    0.0629   20.4978 H   0  0  0  0  0  0  0  0  0  0  0  0
    9.3219   -2.4677   23.7530 H   0  0  0  0  0  0  0  0  0  0  0  0
    5.5206   -2.8980   23.8266 H   0  0  0  0  0  0  0  0  0  0  0  0
  1  2  2  3
  2  3  1  0
  3  4  2  0
  4  5  1  0
  5  6  2  0
  6  7  1  0
  7  8  2  0
  7  9  1  0
  5 10  1  0
  4 11  1  0
  2 12  1  0
  1 13  1  0
 13 14  2  0
 14 15  1  0
 15 16  2  0
 16 17  1  0
 17 18  1  0
 18 19  2  0
 19 20  1  0
 20 21  2  0
 21 22  1  0
 22 23  2  0
 23 24  1  0
 21 25  1  0
 20 26  1  0
 19 27  1  0
 17 28  2  0
 28 29  1  0
 16 30  1  0
 14 31  1  0
  1 32  1  0
  8  3  1  0
 28 13  1  0
 23 18  1  0
M  END
>  <cnnaffinity>  (1) 
-5.18227

>  <filename>  (1) 
C(=Cc1ccncn1)c1cncc(-c2cccnc2)c1

$$$$
