
     RDKit          3D

 45 48  0  0  0  0  0  0  0  0999 V2000
    5.9776    0.0415   21.6114 H   0  0  0  0  0  0  0  0  0  0  0  0
    6.7489    0.2757   20.8709 C   0  0  0  0  0  0  0  0  0  0  0  0
    8.0381    0.2212   21.2340 C   0  0  0  0  0  0  0  0  0  0  0  0
    8.5746   -0.5671   22.3570 C   0  0  0  0  0  0  0  0  0  0  0  0
    7.7940   -1.4817   23.0206 N   0  0  0  0  0  0  0  0  0  0  0  0
    6.8344   -2.3805   22.3576 C   0  0  0  0  0  0  0  0  0  0  0  0
    6.8671   -2.2383   21.2767 H   0  0  0  0  0  0  0  0  0  0  0  0
    5.8150   -2.1452   22.6885 H   0  0  0  0  0  0  0  0  0  0  0  0
    7.0695   -3.8828   22.6780 C   0  0  0  0  0  0  0  0  0  0  0  0
    6.1502   -4.4368   22.4444 H   0  0  0  0  0  0  0  0  0  0  0  0
    7.8392   -4.2848   22.0123 H   0  0  0  0  0  0  0  0  0  0  0  0
    7.4611   -4.1375   24.0742 N   0  0  0  0  0  0  0  0  0  0  0  0
    8.6840   -5.0373   24.2007 C   0  0  0  0  0  0  0  0  0  0  0  0
    8.7255   -5.9931   23.4224 N   0  0  0  0  0  0  0  0  0  0  0  0
    9.9151   -6.9961   25.7080 C   0  0  0  0  0  0  0  0  0  0  0  0
   10.0674   -7.6803   24.7659 H   0  0  0  0  0  0  0  0  0  0  0  0
    9.9623   -6.7725   26.0041 C   0  0  0  0  0  0  0  0  0  0  0  0
    9.0278   -7.3476   26.4882 H   0  0  0  0  0  0  0  0  0  0  0  0
   10.4794   -5.5928   25.7872 C   0  0  0  0  0  0  0  0  0  0  0  0
   10.5378   -5.5285   26.8543 H   0  0  0  0  0  0  0  0  0  0  0  0
    9.6632   -4.5581   25.1973 C   0  0  0  0  0  0  0  0  0  0  0  0
    9.8483   -3.5194   25.3886 H   0  0  0  0  0  0  0  0  0  0  0  0
    7.3671   -2.9696   24.9500 C   0  0  0  0  0  0  0  0  0  0  0  0
    6.3107   -2.6957   25.0673 H   0  0  0  0  0  0  0  0  0  0  0  0
    7.7353   -3.2431   25.9406 H   0  0  0  0  0  0  0  0  0  0  0  0
    8.1455   -1.7615   24.4121 C   0  0  0  0  0  0  0  0  0  0  0  0
    9.2280   -1.9353   24.4579 H   0  0  0  0  0  0  0  0  0  0  0  0
    7.9512   -0.8841   25.0443 H   0  0  0  0  0  0  0  0  0  0  0  0
    9.7973   -0.3147   22.6717 N   0  0  0  0  0  0  0  0  0  0  0  0
   10.3099    0.6938   21.7528 C   0  0  0  0  0  0  0  0  0  0  0  0
   11.2183    0.3185   21.2663 H   0  0  0  0  0  0  0  0  0  0  0  0
   10.6034    1.5793   22.3303 H   0  0  0  0  0  0  0  0  0  0  0  0
    9.2000    1.0309   20.7241 C   0  0  0  0  0  0  0  0  0  0  0  0
    8.9792    2.1053   20.6952 H   0  0  0  0  0  0  0  0  0  0  0  0
    9.4800    0.7118   19.7150 H   0  0  0  0  0  0  0  0  0  0  0  0
    6.2380    0.6756   19.5577 C   0  0  0  0  0  0  0  0  0  0  0  0
    6.9184    0.3956   18.3604 C   0  0  0  0  0  0  0  0  0  0  0  0
    7.8349   -0.1938   18.3857 H   0  0  0  0  0  0  0  0  0  0  0  0
    6.5038    0.7982   17.1521 N   0  0  0  0  0  0  0  0  0  0  0  0
    5.3629    1.5021   17.1087 C   0  0  0  0  0  0  0  0  0  0  0  0
    5.0516    1.8626   16.1374 H   0  0  0  0  0  0  0  0  0  0  0  0
    4.5785    1.7886   18.2294 C   0  0  0  0  0  0  0  0  0  0  0  0
    3.6591    2.3513   18.1113 H   0  0  0  0  0  0  0  0  0  0  0  0
    5.0220    1.3633   19.4751 C   0  0  0  0  0  0  0  0  0  0  0  0
    4.4662    1.5824   20.3879 H   0  0  0  0  0  0  0  0  0  0  0  0
  1  2  1  0
  2  3  2  3
  3  4  1  0
  4  5  1  0
  5  6  1  0
  6  7  1  0
  6  8  1  0
  6  9  1  0
  9 10  1  0
  9 11  1  0
  9 12  1  0
 12 13  1  0
 13 14  2  0
 14 15  1  0
 15 16  1  0
 15 17  2  0
 17 18  1  0
 17 19  1  0
 19 20  1  0
 19 21  2  0
 21 22  1  0
 12 23  1  0
 23 24  1  0
 23 25  1  0
 23 26  1  0
 26 27  1  0
 26 28  1  0
  4 29  2  0
 29 30  1  0
 30 31  1  0
 30 32  1  0
 30 33  1  0
 33 34  1  0
 33 35  1  0
  2 36  1  0
 36 37  2  0
 37 38  1  0
 37 39  1  0
 39 40  2  0
 40 41  1  0
 40 42  1  0
 42 43  1  0
 42 44  2  0
 44 45  1  0
 33  3  1  0
 44 36  1  0
 26  5  1  0
 21 13  1  0
M  END
>  <cnnaffinity>  (1) 
-5.69193

>  <filename>  (1) 
C(=C1CCN=C1N1CCN(c2ccccn2)CC1)c1cccnc1

$$$$
