
     RDKit          3D

 35 38  0  0  0  0  0  0  0  0999 V2000
    6.7030   -1.4790   21.4331 H   0  0  0  0  0  0  0  0  0  0  0  0
    7.2871   -0.6804   20.9662 C   0  0  0  0  0  0  0  0  0  0  0  0
    8.5067   -0.3500   21.4293 C   0  0  0  0  0  0  0  0  0  0  0  0
    9.2438   -0.9876   22.5506 C   0  0  0  0  0  0  0  0  0  0  0  0
    8.5754   -1.9816   23.4244 C   0  0  0  0  0  0  0  0  0  0  0  0
    7.2591   -1.9340   23.7769 C   0  0  0  0  0  0  0  0  0  0  0  0
    6.5798   -1.0930   23.6892 H   0  0  0  0  0  0  0  0  0  0  0  0
    6.6915   -3.3681   24.5709 S   0  0  0  0  0  0  0  0  0  0  0  0
    8.3198   -3.9906   24.6725 C   0  0  0  0  0  0  0  0  0  0  0  0
    8.7492   -5.1603   25.3311 C   0  0  0  0  0  0  0  0  0  0  0  0
    8.0410   -5.8508   25.7793 H   0  0  0  0  0  0  0  0  0  0  0  0
   10.1100   -5.4342   25.3672 C   0  0  0  0  0  0  0  0  0  0  0  0
   10.5013   -6.2924   25.9101 H   0  0  0  0  0  0  0  0  0  0  0  0
   11.0330   -4.5774   24.7416 C   0  0  0  0  0  0  0  0  0  0  0  0
   12.0730   -4.8251   24.8817 H   0  0  0  0  0  0  0  0  0  0  0  0
   10.6141   -3.4495   24.0507 C   0  0  0  0  0  0  0  0  0  0  0  0
   11.2919   -2.7746   23.5370 H   0  0  0  0  0  0  0  0  0  0  0  0
    9.2377   -3.1263   24.0302 C   0  0  0  0  0  0  0  0  0  0  0  0
   10.4594   -0.5771   22.6673 N   0  0  0  0  0  0  0  0  0  0  0  0
   10.6969    0.5313   21.7437 C   0  0  0  0  0  0  0  0  0  0  0  0
   11.5679    0.2894   21.1263 H   0  0  0  0  0  0  0  0  0  0  0  0
   10.9438    1.4295   22.3239 H   0  0  0  0  0  0  0  0  0  0  0  0
    9.4106    0.7425   20.8957 C   0  0  0  0  0  0  0  0  0  0  0  0
    9.5723    0.6291   19.8217 H   0  0  0  0  0  0  0  0  0  0  0  0
    8.9749    1.7373   21.0379 H   0  0  0  0  0  0  0  0  0  0  0  0
    6.5986   -0.0060   19.8490 C   0  0  0  0  0  0  0  0  0  0  0  0
    7.1299    0.0515   18.5477 C   0  0  0  0  0  0  0  0  0  0  0  0
    8.0597   -0.4748   18.3333 H   0  0  0  0  0  0  0  0  0  0  0  0
    6.5538    0.6996   17.5263 N   0  0  0  0  0  0  0  0  0  0  0  0
    5.3977    1.3319   17.7780 C   0  0  0  0  0  0  0  0  0  0  0  0
    4.9578    1.8662   16.9375 H   0  0  0  0  0  0  0  0  0  0  0  0
    4.7584    1.3108   19.0236 C   0  0  0  0  0  0  0  0  0  0  0  0
    3.8221    1.8418   19.1586 H   0  0  0  0  0  0  0  0  0  0  0  0
    5.3604    0.6123   20.0725 C   0  0  0  0  0  0  0  0  0  0  0  0
    4.9123    0.5619   21.0651 H   0  0  0  0  0  0  0  0  0  0  0  0
  1  2  1  0
  2  3  2  3
  3  4  1  0
  4  5  1  0
  5  6  2  0
  6  7  1  0
  6  8  1  0
  8  9  1  0
  9 10  2  0
 10 11  1  0
 10 12  1  0
 12 13  1  0
 12 14  2  0
 14 15  1  0
 14 16  1  0
 16 17  1  0
 16 18  2  0
  4 19  2  0
 19 20  1  0
 20 21  1  0
 20 22  1  0
 20 23  1  0
 23 24  1  0
 23 25  1  0
  2 26  1  0
 26 27  2  0
 27 28  1  0
 27 29  1  0
 29 30  2  0
 30 31  1  0
 30 32  1  0
 32 33  1  0
 32 34  2  0
 34 35  1  0
 23  3  1  0
 34 26  1  0
 18  5  1  0
 18  9  1  0
M  END
>  <cnnaffinity>  (1) 
-5.74786

>  <filename>  (1) 
C(=C1CCN=C1c1csc2ccccc12)c1cccnc1

$$$$
