
     RDKit          3D

 22 23  0  0  0  0  0  0  0  0999 V2000
    9.3601   -0.5495   20.3520 H   0  0  0  0  0  0  0  0  0  0  0  0
    8.6590   -0.9084   21.1011 C   0  0  0  0  0  0  0  0  0  0  0  0
    7.3469   -0.6309   20.9994 C   0  0  0  0  0  0  0  0  0  0  0  0
    6.6750   -0.9009   21.8189 H   0  0  0  0  0  0  0  0  0  0  0  0
    6.6572    0.0281   19.8699 C   0  0  0  0  0  0  0  0  0  0  0  0
    7.1688    0.0733   18.5561 C   0  0  0  0  0  0  0  0  0  0  0  0
    8.1039   -0.4367   18.3202 H   0  0  0  0  0  0  0  0  0  0  0  0
    6.5658    0.6945   17.5337 N   0  0  0  0  0  0  0  0  0  0  0  0
    5.4039    1.3208   17.7900 C   0  0  0  0  0  0  0  0  0  0  0  0
    4.9445    1.8483   16.9573 H   0  0  0  0  0  0  0  0  0  0  0  0
    4.7853    1.3155   19.0453 C   0  0  0  0  0  0  0  0  0  0  0  0
    3.8455    1.8371   19.1864 H   0  0  0  0  0  0  0  0  0  0  0  0
    5.4137    0.6499   20.0932 C   0  0  0  0  0  0  0  0  0  0  0  0
    4.9701    0.6318   21.0894 H   0  0  0  0  0  0  0  0  0  0  0  0
    9.2339   -1.7052   22.1900 C   0  0  0  0  0  0  0  0  0  0  0  0
   10.9187   -2.1323   22.2130 S   0  0  0  0  0  0  0  0  0  0  0  0
   10.7203   -3.0479   23.6493 C   0  0  0  0  0  0  0  0  0  0  0  0
   11.5748   -3.5901   24.0351 H   0  0  0  0  0  0  0  0  0  0  0  0
    9.4442   -3.0018   24.1162 C   0  0  0  0  0  0  0  0  0  0  0  0
    9.0980   -3.5076   25.0105 H   0  0  0  0  0  0  0  0  0  0  0  0
    8.5895   -2.2399   23.2771 C   0  0  0  0  0  0  0  0  0  0  0  0
    7.5317   -2.0993   23.4781 H   0  0  0  0  0  0  0  0  0  0  0  0
  1  2  1  0
  2  3  2  3
  3  4  1  0
  3  5  1  0
  5  6  2  0
  6  7  1  0
  6  8  1  0
  8  9  2  0
  9 10  1  0
  9 11  1  0
 11 12  1  0
 11 13  2  0
 13 14  1  0
  2 15  1  0
 15 16  1  0
 16 17  1  0
 17 18  1  0
 17 19  2  0
 19 20  1  0
 19 21  1  0
 21 22  1  0
 13  5  1  0
 21 15  2  0
M  END
>  <cnnaffinity>  (1) 
-4.54291

>  <filename>  (1) 
C(=Cc1cccs1)c1cccnc1

$$$$
