
     RDKit          3D

 37 40  0  0  0  0  0  0  0  0999 V2000
    6.7364   -1.4770   21.4978 H   0  0  0  0  0  0  0  0  0  0  0  0
    7.3299   -0.7178   20.9738 C   0  0  0  0  0  0  0  0  0  0  0  0
    8.5606   -0.4117   21.4161 C   0  0  0  0  0  0  0  0  0  0  0  0
    9.2893   -1.0096   22.5513 C   0  0  0  0  0  0  0  0  0  0  0  0
    8.7430   -2.1174   23.3750 C   0  0  0  0  0  0  0  0  0  0  0  0
    9.4349   -3.3108   23.4648 C   0  0  0  0  0  0  0  0  0  0  0  0
   10.3721   -3.4230   22.9211 H   0  0  0  0  0  0  0  0  0  0  0  0
    8.9591   -4.3789   24.2590 C   0  0  0  0  0  0  0  0  0  0  0  0
    9.5385   -5.3003   24.3172 H   0  0  0  0  0  0  0  0  0  0  0  0
    7.7928   -4.2465   24.9760 C   0  0  0  0  0  0  0  0  0  0  0  0
    7.4232   -5.0583   25.6024 H   0  0  0  0  0  0  0  0  0  0  0  0
    7.0573   -3.0328   24.9238 C   0  0  0  0  0  0  0  0  0  0  0  0
    5.8503   -2.8482   25.6669 C   0  0  0  0  0  0  0  0  0  0  0  0
    5.4754   -3.6691   26.2838 H   0  0  0  0  0  0  0  0  0  0  0  0
    5.2104   -1.6406   25.5906 C   0  0  0  0  0  0  0  0  0  0  0  0
    4.2851   -1.4504   26.1254 H   0  0  0  0  0  0  0  0  0  0  0  0
    5.7732   -0.6109   24.7845 C   0  0  0  0  0  0  0  0  0  0  0  0
    5.2439    0.3403   24.7104 H   0  0  0  0  0  0  0  0  0  0  0  0
    6.8772   -0.7315   24.0832 N   0  0  0  0  0  0  0  0  0  0  0  0
    7.5328   -1.9355   24.1201 C   0  0  0  0  0  0  0  0  0  0  0  0
   10.4740   -0.5512   22.7138 N   0  0  0  0  0  0  0  0  0  0  0  0
   10.7133    0.5364   21.7547 C   0  0  0  0  0  0  0  0  0  0  0  0
   10.9349    1.4525   22.3098 H   0  0  0  0  0  0  0  0  0  0  0  0
   11.6033    0.2844   21.1743 H   0  0  0  0  0  0  0  0  0  0  0  0
    9.4509    0.6837   20.8665 C   0  0  0  0  0  0  0  0  0  0  0  0
    8.9839    1.6701   20.9523 H   0  0  0  0  0  0  0  0  0  0  0  0
    9.6383    0.5285   19.8029 H   0  0  0  0  0  0  0  0  0  0  0  0
    6.6412   -0.0108   19.8866 C   0  0  0  0  0  0  0  0  0  0  0  0
    7.1602    0.0683   18.5802 C   0  0  0  0  0  0  0  0  0  0  0  0
    8.1052   -0.4273   18.3691 H   0  0  0  0  0  0  0  0  0  0  0  0
    6.5572    0.6885   17.5594 N   0  0  0  0  0  0  0  0  0  0  0  0
    5.3944    1.3030   17.8290 C   0  0  0  0  0  0  0  0  0  0  0  0
    4.9143    1.7921   16.9861 H   0  0  0  0  0  0  0  0  0  0  0  0
    4.7964    1.3149   19.0954 C   0  0  0  0  0  0  0  0  0  0  0  0
    3.8681    1.8498   19.2501 H   0  0  0  0  0  0  0  0  0  0  0  0
    5.4183    0.6341   20.1423 C   0  0  0  0  0  0  0  0  0  0  0  0
    5.0135    0.6195   21.1597 H   0  0  0  0  0  0  0  0  0  0  0  0
  1  2  1  0
  2  3  2  3
  3  4  1  0
  4  5  1  0
  5  6  2  0
  6  7  1  0
  6  8  1  0
  8  9  1  0
  8 10  2  0
 10 11  1  0
 10 12  1  0
 12 13  2  0
 13 14  1  0
 13 15  1  0
 15 16  1  0
 15 17  2  0
 17 18  1  0
 17 19  1  0
 19 20  2  0
  4 21  2  0
 21 22  1  0
 22 23  1  0
 22 24  1  0
 22 25  1  0
 25 26  1  0
 25 27  1  0
  2 28  1  0
 28 29  2  0
 29 30  1  0
 29 31  1  0
 31 32  2  0
 32 33  1  0
 32 34  1  0
 34 35  1  0
 34 36  2  0
 36 37  1  0
 25  3  1  0
 36 28  1  0
 20  5  1  0
 20 12  1  0
M  END
>  <cnnaffinity>  (1) 
-5.79737

>  <filename>  (1) 
C(=C1CCN=C1c1cccc2cccnc12)c1cccnc1

$$$$
