
     RDKit          3D

 33 35  0  0  0  0  0  0  0  0999 V2000
    5.8800   -0.8873   22.2141 H   0  0  0  0  0  0  0  0  0  0  0  0
    6.9139   -1.1008   21.9337 C   0  0  0  0  0  0  0  0  0  0  0  0
    7.3813   -0.8057   20.7867 N   0  0  0  0  0  0  0  0  0  0  0  0
    6.6472   -0.0614   19.8372 C   0  0  0  0  0  0  0  0  0  0  0  0
    7.1617    0.0252   18.5187 C   0  0  0  0  0  0  0  0  0  0  0  0
    8.0964   -0.4859   18.3072 H   0  0  0  0  0  0  0  0  0  0  0  0
    6.5741    0.6823   17.5145 N   0  0  0  0  0  0  0  0  0  0  0  0
    5.4158    1.3161   17.7869 C   0  0  0  0  0  0  0  0  0  0  0  0
    4.9489    1.8435   16.9585 H   0  0  0  0  0  0  0  0  0  0  0  0
    4.8240    1.3086   19.0531 C   0  0  0  0  0  0  0  0  0  0  0  0
    3.8924    1.8387   19.2184 H   0  0  0  0  0  0  0  0  0  0  0  0
    5.4494    0.6222   20.1012 C   0  0  0  0  0  0  0  0  0  0  0  0
    5.0340    0.6304   21.1087 H   0  0  0  0  0  0  0  0  0  0  0  0
    7.7604   -1.8319   22.9463 C   0  0  0  0  0  0  0  0  0  0  0  0
    8.1460   -2.7283   22.4491 H   0  0  0  0  0  0  0  0  0  0  0  0
    7.1293   -2.1639   23.7703 H   0  0  0  0  0  0  0  0  0  0  0  0
    8.9233   -0.9926   23.4385 C   0  0  0  0  0  0  0  0  0  0  0  0
    8.7846   -0.1126   24.5574 C   0  0  0  0  0  0  0  0  0  0  0  0
    7.8532   -0.1022   25.1239 H   0  0  0  0  0  0  0  0  0  0  0  0
    9.8064    0.7378   24.9208 C   0  0  0  0  0  0  0  0  0  0  0  0
    9.7167    1.4133   25.7691 H   0  0  0  0  0  0  0  0  0  0  0  0
   11.0210    0.7842   24.1698 C   0  0  0  0  0  0  0  0  0  0  0  0
   12.0615    1.7226   24.4412 C   0  0  0  0  0  0  0  0  0  0  0  0
   11.9277    2.4135   25.2687 H   0  0  0  0  0  0  0  0  0  0  0  0
   13.1831    1.7677   23.6498 C   0  0  0  0  0  0  0  0  0  0  0  0
   13.9434    2.5130   23.8351 H   0  0  0  0  0  0  0  0  0  0  0  0
   13.3430    0.8622   22.5633 C   0  0  0  0  0  0  0  0  0  0  0  0
   14.2413    0.9010   21.9537 H   0  0  0  0  0  0  0  0  0  0  0  0
   12.3585   -0.0491   22.2724 C   0  0  0  0  0  0  0  0  0  0  0  0
   12.4486   -0.7176   21.4170 H   0  0  0  0  0  0  0  0  0  0  0  0
   11.1681   -0.1055   23.0579 C   0  0  0  0  0  0  0  0  0  0  0  0
   10.0954   -0.9790   22.7157 C   0  0  0  0  0  0  0  0  0  0  0  0
   10.1941   -1.6023   21.8254 H   0  0  0  0  0  0  0  0  0  0  0  0
  1  2  1  0
  2  3  2  3
  3  4  1  0
  4  5  2  0
  5  6  1  0
  5  7  1  0
  7  8  2  0
  8  9  1  0
  8 10  1  0
 10 11  1  0
 10 12  2  0
 12 13  1  0
  2 14  1  0
 14 15  1  0
 14 16  1  0
 14 17  1  0
 17 18  2  0
 18 19  1  0
 18 20  1  0
 20 21  1  0
 20 22  2  0
 22 23  1  0
 23 24  1  0
 23 25  2  0
 25 26  1  0
 25 27  1  0
 27 28  1  0
 27 29  2  0
 29 30  1  0
 29 31  1  0
 31 32  2  0
 32 33  1  0
 12  4  1  0
 32 17  1  0
 31 22  1  0
M  END
>  <cnnaffinity>  (1) 
-5.06489

>  <filename>  (1) 
C(Cc1ccc2ccccc2c1)=Nc1cccnc1

$$$$
