
     RDKit          3D

 39 41  0  0  0  0  0  0  0  0999 V2000
    6.9695    1.7606   22.1372 H   0  0  0  0  0  0  0  0  0  0  0  0
    7.3416    0.9689   22.7951 C   0  0  0  0  0  0  0  0  0  0  0  0
    7.5954   -0.2519   22.3097 C   0  0  0  0  0  0  0  0  0  0  0  0
    7.3767   -0.7575   20.9350 C   0  0  0  0  0  0  0  0  0  0  0  0
    6.6373   -0.0008   19.9018 C   0  0  0  0  0  0  0  0  0  0  0  0
    7.1587    0.0321   18.6023 C   0  0  0  0  0  0  0  0  0  0  0  0
    8.0983   -0.4680   18.3780 H   0  0  0  0  0  0  0  0  0  0  0  0
    6.5716    0.6690   17.5850 N   0  0  0  0  0  0  0  0  0  0  0  0
    5.4114    1.2969   17.8331 C   0  0  0  0  0  0  0  0  0  0  0  0
    4.9495    1.8033   16.9885 H   0  0  0  0  0  0  0  0  0  0  0  0
    4.7963    1.3142   19.0891 C   0  0  0  0  0  0  0  0  0  0  0  0
    3.8634    1.8488   19.2286 H   0  0  0  0  0  0  0  0  0  0  0  0
    5.4226    0.6574   20.1484 C   0  0  0  0  0  0  0  0  0  0  0  0
    4.9797    0.6537   21.1466 H   0  0  0  0  0  0  0  0  0  0  0  0
    7.8876   -1.9078   20.7085 N   0  0  0  0  0  0  0  0  0  0  0  0
    8.4899   -2.4328   21.9365 C   0  0  0  0  0  0  0  0  0  0  0  0
    8.0195   -3.3903   22.1802 H   0  0  0  0  0  0  0  0  0  0  0  0
    9.5498   -2.6280   21.7450 H   0  0  0  0  0  0  0  0  0  0  0  0
    8.2845   -1.3812   23.0548 C   0  0  0  0  0  0  0  0  0  0  0  0
    9.2255   -1.0315   23.4899 H   0  0  0  0  0  0  0  0  0  0  0  0
    7.6492   -1.7604   23.8632 H   0  0  0  0  0  0  0  0  0  0  0  0
    7.7102    1.4055   24.1887 C   0  0  0  0  0  0  0  0  0  0  0  0
    7.8296    0.5413   24.8535 H   0  0  0  0  0  0  0  0  0  0  0  0
    6.9125    2.0365   24.5967 H   0  0  0  0  0  0  0  0  0  0  0  0
    8.9968    2.2213   24.2207 C   0  0  0  0  0  0  0  0  0  0  0  0
    9.1830    2.6041   25.2324 H   0  0  0  0  0  0  0  0  0  0  0  0
    8.9243    3.0758   23.5310 H   0  0  0  0  0  0  0  0  0  0  0  0
   10.0840    1.3773   23.8547 O   0  0  0  0  0  0  0  0  0  0  0  0
   11.3097    1.9312   23.6357 C   0  0  0  0  0  0  0  0  0  0  0  0
   11.6478    3.2641   23.9157 C   0  0  0  0  0  0  0  0  0  0  0  0
   10.9322    3.9050   24.4179 H   0  0  0  0  0  0  0  0  0  0  0  0
   12.9164    3.7467   23.5706 C   0  0  0  0  0  0  0  0  0  0  0  0
   13.1854    4.7761   23.8191 H   0  0  0  0  0  0  0  0  0  0  0  0
   13.8521    2.8957   22.9876 C   0  0  0  0  0  0  0  0  0  0  0  0
   14.8054    3.2807   22.6346 H   0  0  0  0  0  0  0  0  0  0  0  0
   13.5498    1.5347   22.8227 C   0  0  0  0  0  0  0  0  0  0  0  0
   14.3068    0.8554   22.4424 H   0  0  0  0  0  0  0  0  0  0  0  0
   12.2820    1.0513   23.1372 C   0  0  0  0  0  0  0  0  0  0  0  0
   12.0103    0.0069   23.0138 H   0  0  0  0  0  0  0  0  0  0  0  0
  1  2  1  0
  2  3  2  3
  3  4  1  0
  4  5  1  0
  5  6  2  0
  6  7  1  0
  6  8  1  0
  8  9  2  0
  9 10  1  0
  9 11  1  0
 11 12  1  0
 11 13  2  0
 13 14  1  0
  4 15  2  0
 15 16  1  0
 16 17  1  0
 16 18  1  0
 16 19  1  0
 19 20  1  0
 19 21  1  0
  2 22  1  0
 22 23  1  0
 22 24  1  0
 22 25  1  0
 25 26  1  0
 25 27  1  0
 25 28  1  0
 28 29  1  0
 29 30  2  0
 30 31  1  0
 30 32  1  0
 32 33  1  0
 32 34  2  0
 34 35  1  0
 34 36  1  0
 36 37  1  0
 36 38  2  0
 38 39  1  0
 19  3  1  0
 38 29  1  0
 13  5  1  0
M  END
>  <cnnaffinity>  (1) 
-5.54097

>  <filename>  (1) 
C(CCOc1ccccc1)=C1CCN=C1c1cccnc1

$$$$
