
     RDKit          3D

 44 47  0  0  0  0  0  0  0  0999 V2000
    8.7176   -0.7854   20.9868 C   0  0  0  0  0  0  0  0  0  0  0  0
    7.3806   -0.6880   20.9652 C   0  0  0  0  0  0  0  0  0  0  0  0
    6.6711   -0.0083   19.8440 C   0  0  0  0  0  0  0  0  0  0  0  0
    5.4613    0.6872   20.0134 C   0  0  0  0  0  0  0  0  0  0  0  0
    4.8875    1.3504   18.9252 C   0  0  0  0  0  0  0  0  0  0  0  0
    5.5279    1.2984   17.6859 C   0  0  0  0  0  0  0  0  0  0  0  0
    6.6719    0.6233   17.4863 N   0  0  0  0  0  0  0  0  0  0  0  0
    7.2184    0.0059   18.5378 C   0  0  0  0  0  0  0  0  0  0  0  0
    8.1448   -0.5298   18.3300 H   0  0  0  0  0  0  0  0  0  0  0  0
    5.1148    1.8130   16.8176 H   0  0  0  0  0  0  0  0  0  0  0  0
    3.9692    1.9191   19.0242 H   0  0  0  0  0  0  0  0  0  0  0  0
    4.9779    0.7309   20.9883 H   0  0  0  0  0  0  0  0  0  0  0  0
    6.5434   -1.1814   22.1413 C   0  0  0  0  0  0  0  0  0  0  0  0
    7.3158   -2.1734   23.0724 N   0  0  0  0  0  4  0  0  0  0  0  0
    6.4657   -2.5591   24.2641 C   0  0  0  0  0  0  0  0  0  0  0  0
    5.5357   -3.6935   23.8639 C   0  0  0  0  0  0  0  0  0  0  0  0
    4.1557   -3.5930   23.9341 C   0  0  0  0  0  0  0  0  0  0  0  0
    3.3196   -4.5314   23.2624 C   0  0  0  0  0  0  0  0  0  0  0  0
    3.8656   -5.5452   22.5121 C   0  0  0  0  0  0  0  0  0  0  0  0
    5.2752   -5.7633   22.5334 C   0  0  0  0  0  0  0  0  0  0  0  0
    5.8841   -6.8298   21.8168 C   0  0  0  0  0  0  0  0  0  0  0  0
    7.1957   -7.1586   22.0294 C   0  0  0  0  0  0  0  0  0  0  0  0
    8.0092   -6.3856   22.8900 C   0  0  0  0  0  0  0  0  0  0  0  0
    7.4820   -5.2685   23.5107 C   0  0  0  0  0  0  0  0  0  0  0  0
    6.1093   -4.9061   23.3264 C   0  0  0  0  0  0  0  0  0  0  0  0
    8.0969   -4.6771   24.1845 H   0  0  0  0  0  0  0  0  0  0  0  0
    9.0395   -6.6817   23.0454 H   0  0  0  0  0  0  0  0  0  0  0  0
    7.5905   -8.0504   21.5609 H   0  0  0  0  0  0  0  0  0  0  0  0
    5.2798   -7.3978   21.1155 H   0  0  0  0  0  0  0  0  0  0  0  0
    3.2440   -6.2166   21.9165 H   0  0  0  0  0  0  0  0  0  0  0  0
    2.2360   -4.4267   23.3101 H   0  0  0  0  0  0  0  0  0  0  0  0
    3.6825   -2.7607   24.4614 H   0  0  0  0  0  0  0  0  0  0  0  0
    5.8802   -1.6902   24.5951 H   0  0  0  0  0  0  0  0  0  0  0  0
    7.1136   -2.8378   25.1050 H   0  0  0  0  0  0  0  0  0  0  0  0
    8.6858   -1.6334   23.3582 C   0  0  0  0  0  0  0  0  0  0  0  0
    9.4605   -1.5664   22.0444 C   0  0  0  0  0  0  0  0  0  0  0  0
    9.6412   -2.5890   21.6873 H   0  0  0  0  0  0  0  0  0  0  0  0
   10.4459   -1.1279   22.2136 H   0  0  0  0  0  0  0  0  0  0  0  0
    8.5910   -0.6321   23.7925 H   0  0  0  0  0  0  0  0  0  0  0  0
    9.2146   -2.2609   24.0839 H   0  0  0  0  0  0  0  0  0  0  0  0
    7.4099   -3.0527   22.5084 H   0  0  0  0  0  0  0  0  0  0  0  0
    5.6352   -1.6781   21.7918 H   0  0  0  0  0  0  0  0  0  0  0  0
    6.2357   -0.3243   22.7565 H   0  0  0  0  0  0  0  0  0  0  0  0
    9.3119   -0.2847   20.2209 H   0  0  0  0  0  0  0  0  0  0  0  0
  1  2  2  0
  2  3  1  0
  3  4  2  0
  4  5  1  0
  5  6  2  0
  6  7  1  0
  7  8  2  0
  8  9  1  0
  6 10  1  0
  5 11  1  0
  4 12  1  0
  2 13  1  0
 13 14  1  0
 14 15  1  0
 15 16  1  0
 16 17  2  0
 17 18  1  0
 18 19  2  0
 19 20  1  0
 20 21  2  0
 21 22  1  0
 22 23  2  0
 23 24  1  0
 24 25  2  0
 24 26  1  0
 23 27  1  0
 22 28  1  0
 21 29  1  0
 19 30  1  0
 18 31  1  0
 17 32  1  0
 15 33  1  0
 15 34  1  0
 14 35  1  0
 35 36  1  0
 36 37  1  0
 36 38  1  0
 35 39  1  0
 35 40  1  0
 14 41  1  0
 13 42  1  0
 13 43  1  0
  1 44  1  0
 36  1  1  0
  8  3  1  0
 25 16  1  0
 25 20  1  0
M  CHG  1  14   1
M  END
>  <cnnaffinity>  (1) 
-5.23522

>  <filename>  (1) 
C1=C(c2cccnc2)C[NH+](Cc2cccc3ccccc23)CC1

$$$$
