
     RDKit          3D

 39 41  0  0  0  0  0  0  0  0999 V2000
    7.1223    0.9008   22.4229 H   0  0  0  0  0  0  0  0  0  0  0  0
    7.5203   -0.0981   22.2379 C   0  0  0  0  0  0  0  0  0  0  0  0
    7.3982   -0.6369   21.0188 C   0  0  0  0  0  0  0  0  0  0  0  0
    6.6657    0.0391   19.9118 C   0  0  0  0  0  0  0  0  0  0  0  0
    7.1589    0.0594   18.5916 C   0  0  0  0  0  0  0  0  0  0  0  0
    8.1038   -0.4277   18.3530 H   0  0  0  0  0  0  0  0  0  0  0  0
    6.5500    0.6689   17.5643 N   0  0  0  0  0  0  0  0  0  0  0  0
    5.3917    1.2956   17.8136 C   0  0  0  0  0  0  0  0  0  0  0  0
    4.9333    1.8085   16.9691 H   0  0  0  0  0  0  0  0  0  0  0  0
    4.7887    1.3120   19.0762 C   0  0  0  0  0  0  0  0  0  0  0  0
    3.8593    1.8473   19.2238 H   0  0  0  0  0  0  0  0  0  0  0  0
    5.4328    0.6720   20.1364 C   0  0  0  0  0  0  0  0  0  0  0  0
    5.0036    0.6465   21.1368 H   0  0  0  0  0  0  0  0  0  0  0  0
    7.9591   -2.0100   20.6979 C   0  0  0  0  0  0  0  0  0  0  0  0
    8.8769   -1.8761   20.1018 H   0  0  0  0  0  0  0  0  0  0  0  0
    7.2052   -2.4965   20.0751 H   0  0  0  0  0  0  0  0  0  0  0  0
    8.2528   -2.8817   21.9234 C   0  0  0  0  0  0  0  0  0  0  0  0
    7.3120   -3.2750   22.3347 H   0  0  0  0  0  0  0  0  0  0  0  0
    8.8506   -3.7570   21.6384 H   0  0  0  0  0  0  0  0  0  0  0  0
    8.9820   -2.0604   23.0035 C   0  0  2  0  0  0  0  0  0  0  0  0
    9.9329   -1.7016   22.5754 H   0  0  0  0  0  0  0  0  0  0  0  0
    9.3846   -2.9087   24.2099 C   0  0  0  0  0  0  0  0  0  0  0  0
    9.9051   -2.2898   24.9598 H   0  0  0  0  0  0  0  0  0  0  0  0
   10.0677   -3.7189   23.9042 H   0  0  0  0  0  0  0  0  0  0  0  0
    8.2118   -3.4758   24.7839 O   0  0  0  0  0  0  0  0  0  0  0  0
    8.3109   -4.2550   25.8923 C   0  0  0  0  0  0  0  0  0  0  0  0
    9.5071   -4.5632   26.5502 C   0  0  0  0  0  0  0  0  0  0  0  0
   10.4554   -4.2074   26.1657 H   0  0  0  0  0  0  0  0  0  0  0  0
    9.4728   -5.3547   27.7016 C   0  0  0  0  0  0  0  0  0  0  0  0
   10.4090   -5.5468   28.2217 H   0  0  0  0  0  0  0  0  0  0  0  0
    8.2656   -5.8846   28.1624 C   0  0  0  0  0  0  0  0  0  0  0  0
    8.2415   -6.5527   29.0167 H   0  0  0  0  0  0  0  0  0  0  0  0
    7.0720   -5.5745   27.5000 C   0  0  0  0  0  0  0  0  0  0  0  0
    6.1235   -5.9677   27.8646 H   0  0  0  0  0  0  0  0  0  0  0  0
    7.0891   -4.7549   26.3733 C   0  0  0  0  0  0  0  0  0  0  0  0
    6.1874   -4.4763   25.8411 H   0  0  0  0  0  0  0  0  0  0  0  0
    8.1237   -0.8320   23.4159 C   0  0  0  0  0  0  0  0  0  0  0  0
    8.7210   -0.1216   24.0027 H   0  0  0  0  0  0  0  0  0  0  0  0
    7.3098   -1.1690   24.0806 H   0  0  0  0  0  0  0  0  0  0  0  0
  1  2  1  0
  2  3  2  0
  3  4  1  0
  4  5  2  0
  5  6  1  0
  5  7  1  0
  7  8  2  0
  8  9  1  0
  8 10  1  0
 10 11  1  0
 10 12  2  0
 12 13  1  0
  3 14  1  0
 14 15  1  0
 14 16  1  0
 14 17  1  0
 17 18  1  0
 17 19  1  0
 17 20  1  0
 20 21  1  6
 20 22  1  0
 22 23  1  0
 22 24  1  0
 22 25  1  0
 25 26  1  0
 26 27  2  0
 27 28  1  0
 27 29  1  0
 29 30  1  0
 29 31  2  0
 31 32  1  0
 31 33  1  0
 33 34  1  0
 33 35  2  0
 35 36  1  0
 20 37  1  0
 37 38  1  0
 37 39  1  0
 37  2  1  0
 12  4  1  0
 35 26  1  0
M  END
>  <cnnaffinity>  (1) 
-4.9976

>  <filename>  (1) 
C1=C(c2cccnc2)CC[C@H](COc2ccccc2)C1

$$$$
