
     RDKit          3D

 47 51  0  0  0  0  0  0  0  0999 V2000
    8.5441    3.0419   26.4999 C   0  0  0  0  0  0  0  0  0  0  0  0
    8.6478    2.2126   25.4610 C   0  0  0  0  0  0  0  0  0  0  0  0
    8.9882    2.7961   24.0949 C   0  0  0  0  0  0  0  0  0  0  0  0
    8.9126    1.7896   22.9805 C   0  0  0  0  0  0  0  0  0  0  0  0
    7.8723    1.0332   22.6806 N   0  0  0  0  0  0  0  0  0  0  0  0
    8.3301    0.2491   21.6731 C   0  0  0  0  0  0  0  0  0  0  0  0
    7.4257   -0.7071   20.9496 C   0  0  0  0  0  0  0  0  0  0  0  0
    6.6512   -0.0446   19.8142 C   0  0  0  0  0  0  0  0  0  0  0  0
    5.4482    0.6235   20.0766 C   0  0  0  0  0  0  0  0  0  0  0  0
    4.8074    1.3077   19.0413 C   0  0  0  0  0  0  0  0  0  0  0  0
    5.3995    1.3023   17.7755 C   0  0  0  0  0  0  0  0  0  0  0  0
    6.5392    0.6521   17.4935 N   0  0  0  0  0  0  0  0  0  0  0  0
    7.1393    0.0010   18.4975 C   0  0  0  0  0  0  0  0  0  0  0  0
    8.0646   -0.5193   18.2432 H   0  0  0  0  0  0  0  0  0  0  0  0
    4.9408    1.8377   16.9469 H   0  0  0  0  0  0  0  0  0  0  0  0
    3.8841    1.8532   19.2049 H   0  0  0  0  0  0  0  0  0  0  0  0
    5.0390    0.6088   21.0881 H   0  0  0  0  0  0  0  0  0  0  0  0
    6.7240   -1.1111   21.6891 H   0  0  0  0  0  0  0  0  0  0  0  0
    8.0411   -1.5325   20.5804 H   0  0  0  0  0  0  0  0  0  0  0  0
    9.5961    0.4461   21.3447 N   0  0  0  0  0  0  0  0  0  0  0  0
    9.9575    1.4731   22.1622 N   0  0  0  0  0  0  0  0  0  0  0  0
   11.2572    2.0530   22.1828 C   0  0  0  0  0  0  0  0  0  0  0  0
   11.4745    3.4320   22.2161 C   0  0  0  0  0  0  0  0  0  0  0  0
   12.7635    3.9581   22.4582 C   0  0  0  0  0  0  0  0  0  0  0  0
   13.8584    3.1298   22.6616 C   0  0  0  0  0  0  0  0  0  0  0  0
   13.6640    1.7286   22.6227 C   0  0  0  0  0  0  0  0  0  0  0  0
   12.3839    1.2261   22.3238 C   0  0  0  0  0  0  0  0  0  0  0  0
   12.5524   -0.1366   22.2411 N   0  0  0  0  0  0  0  0  0  0  0  0
   13.8691   -0.3926   22.4830 C   0  0  0  0  0  0  0  0  0  0  0  0
   14.5689    0.6785   22.7241 N   0  0  0  0  0  0  0  0  0  0  0  0
   14.2587   -1.4061   22.4814 H   0  0  0  0  0  0  0  0  0  0  0  0
   11.8638   -0.7507   21.8391 H   0  0  0  0  0  0  0  0  0  0  0  0
   14.8496    3.5575   22.7640 H   0  0  0  0  0  0  0  0  0  0  0  0
   12.9083    5.0344   22.4517 H   0  0  0  0  0  0  0  0  0  0  0  0
   10.6381    4.1196   22.1260 H   0  0  0  0  0  0  0  0  0  0  0  0
    8.1391    4.0595   23.7867 C   0  0  0  0  0  0  0  0  0  0  0  0
    8.0435    5.0433   24.9831 C   0  0  0  0  0  0  0  0  0  0  0  0
    8.6886    4.5351   26.3033 C   0  0  0  0  0  0  0  0  0  0  0  0
    8.2608    5.0747   27.1565 H   0  0  0  0  0  0  0  0  0  0  0  0
    9.7592    4.7928   26.3046 H   0  0  0  0  0  0  0  0  0  0  0  0
    6.9833    5.2532   25.1722 H   0  0  0  0  0  0  0  0  0  0  0  0
    8.5035    6.0040   24.7247 H   0  0  0  0  0  0  0  0  0  0  0  0
    7.1359    3.7340   23.4875 H   0  0  0  0  0  0  0  0  0  0  0  0
    8.5673    4.5562   22.9062 H   0  0  0  0  0  0  0  0  0  0  0  0
   10.0323    3.1367   24.1887 H   0  0  0  0  0  0  0  0  0  0  0  0
    8.5750    1.1314   25.5753 H   0  0  0  0  0  0  0  0  0  0  0  0
    8.4166    2.6531   27.5119 H   0  0  0  0  0  0  0  0  0  0  0  0
  1  2  2  0
  2  3  1  0
  3  4  1  0
  4  5  2  0
  5  6  1  0
  6  7  1  0
  7  8  1  0
  8  9  2  0
  9 10  1  0
 10 11  2  0
 11 12  1  0
 12 13  2  0
 13 14  1  0
 11 15  1  0
 10 16  1  0
  9 17  1  0
  7 18  1  0
  7 19  1  0
  6 20  2  0
 20 21  1  0
 21 22  1  0
 22 23  2  0
 23 24  1  0
 24 25  2  0
 25 26  1  0
 26 27  2  0
 27 28  1  0
 28 29  1  0
 29 30  2  0
 29 31  1  0
 28 32  1  0
 25 33  1  0
 24 34  1  0
 23 35  1  0
  3 36  1  0
 36 37  1  0
 37 38  1  0
 38 39  1  0
 38 40  1  0
 37 41  1  0
 37 42  1  0
 36 43  1  0
 36 44  1  0
  3 45  1  0
  2 46  1  0
  1 47  1  0
 38  1  1  0
 21  4  1  0
 27 22  1  0
 13  8  1  0
 30 26  1  0
M  END
>  <cnnaffinity>  (1) 
-6.70958

>  <filename>  (1) 
C1=CC(c2nc(Cc3cccnc3)nn2-c2cccc3nc[nH]c23)CCC1

$$$$
