
     RDKit          3D

 28 30  0  0  0  0  0  0  0  0999 V2000
    5.7860   -1.2790   22.2035 H   0  0  0  0  0  0  0  0  0  0  0  0
    6.8500   -1.1905   22.0549 C   0  0  0  0  0  0  0  0  0  0  0  0
    7.3971   -0.6815   20.9516 C   0  0  0  0  0  0  0  0  0  0  0  0
    6.6638    0.0139   19.8908 C   0  0  0  0  0  0  0  0  0  0  0  0
    7.1663    0.0781   18.5774 C   0  0  0  0  0  0  0  0  0  0  0  0
    8.1116   -0.4101   18.3528 H   0  0  0  0  0  0  0  0  0  0  0  0
    6.5595    0.6827   17.5517 N   0  0  0  0  0  0  0  0  0  0  0  0
    5.3984    1.2983   17.8230 C   0  0  0  0  0  0  0  0  0  0  0  0
    4.9178    1.7910   16.9836 H   0  0  0  0  0  0  0  0  0  0  0  0
    4.8036    1.3129   19.0930 C   0  0  0  0  0  0  0  0  0  0  0  0
    3.8716    1.8437   19.2505 H   0  0  0  0  0  0  0  0  0  0  0  0
    5.4333    0.6527   20.1458 C   0  0  0  0  0  0  0  0  0  0  0  0
    5.0072    0.6536   21.1550 H   0  0  0  0  0  0  0  0  0  0  0  0
    8.8913   -0.9249   20.9353 C   0  0  0  0  0  0  0  0  0  0  0  0
    9.4404   -0.0027   20.7251 H   0  0  0  0  0  0  0  0  0  0  0  0
    9.1572   -1.6201   20.1292 H   0  0  0  0  0  0  0  0  0  0  0  0
    9.1972   -1.4953   22.3419 C   0  0  0  0  0  0  0  0  0  0  0  0
    9.6780   -0.7411   22.9692 H   0  0  0  0  0  0  0  0  0  0  0  0
    9.8813   -2.3468   22.2984 H   0  0  0  0  0  0  0  0  0  0  0  0
    7.8175   -1.8912   22.9646 C   0  0  2  0  0  0  0  0  0  0  0  0
    7.6995   -1.5604   24.0040 H   0  0  0  0  0  0  0  0  0  0  0  0
    7.5788   -3.3731   22.9249 C   0  0  0  0  0  0  0  0  0  0  0  0
    7.3579   -4.1014   24.0529 O   0  0  0  0  0  0  0  0  0  0  0  0
    7.2319   -5.3771   23.6166 C   0  0  0  0  0  0  0  0  0  0  0  0
    7.0457   -6.1073   24.3887 H   0  0  0  0  0  0  0  0  0  0  0  0
    7.3470   -5.5286   22.3405 N   0  0  0  0  0  0  0  0  0  0  0  0
    7.5674   -4.2406   21.8881 C   0  0  0  0  0  0  0  0  0  0  0  0
    7.6947   -4.0053   20.8466 H   0  0  0  0  0  0  0  0  0  0  0  0
  1  2  1  0
  2  3  2  0
  3  4  1  0
  4  5  2  0
  5  6  1  0
  5  7  1  0
  7  8  2  0
  8  9  1  0
  8 10  1  0
 10 11  1  0
 10 12  2  0
 12 13  1  0
  3 14  1  0
 14 15  1  0
 14 16  1  0
 14 17  1  0
 17 18  1  0
 17 19  1  0
 17 20  1  0
 20 21  1  1
 20 22  1  0
 22 23  1  0
 23 24  1  0
 24 25  1  0
 24 26  2  0
 26 27  1  0
 27 28  1  0
 20  2  1  0
 27 22  2  0
 12  4  1  0
M  END
>  <cnnaffinity>  (1) 
-4.88941

>  <filename>  (1) 
C1=C(c2cccnc2)CC[C@@H]1c1cnco1

$$$$
