
     RDKit          3D

 38 40  0  0  0  0  0  0  0  0999 V2000
    9.2549    0.1365   20.4357 H   0  0  0  0  0  0  0  0  0  0  0  0
    8.7257   -0.5745   21.0692 C   0  0  0  0  0  0  0  0  0  0  0  0
    7.3946   -0.7106   20.9498 C   0  0  0  0  0  0  0  0  0  0  0  0
    6.6471    0.0070   19.8866 C   0  0  0  0  0  0  0  0  0  0  0  0
    7.1530    0.0698   18.5737 C   0  0  0  0  0  0  0  0  0  0  0  0
    8.1016   -0.4196   18.3458 H   0  0  0  0  0  0  0  0  0  0  0  0
    6.5461    0.6794   17.5499 N   0  0  0  0  0  0  0  0  0  0  0  0
    5.3856    1.3041   17.8131 C   0  0  0  0  0  0  0  0  0  0  0  0
    4.9267    1.8145   16.9690 H   0  0  0  0  0  0  0  0  0  0  0  0
    4.7869    1.3193   19.0779 C   0  0  0  0  0  0  0  0  0  0  0  0
    3.8543    1.8571   19.2229 H   0  0  0  0  0  0  0  0  0  0  0  0
    5.4233    0.6542   20.1279 C   0  0  0  0  0  0  0  0  0  0  0  0
    4.9890    0.6400   21.1304 H   0  0  0  0  0  0  0  0  0  0  0  0
    6.5809   -1.5456   21.9337 C   0  0  0  0  0  0  0  0  0  0  0  0
    5.7578   -2.0295   21.3971 H   0  0  0  0  0  0  0  0  0  0  0  0
    6.1370   -0.8496   22.6569 H   0  0  0  0  0  0  0  0  0  0  0  0
    7.4285   -2.5704   22.7013 C   0  0  0  0  0  0  0  0  0  0  0  0
    6.8687   -3.0122   23.5343 H   0  0  0  0  0  0  0  0  0  0  0  0
    7.7204   -3.3940   22.0375 H   0  0  0  0  0  0  0  0  0  0  0  0
    8.7138   -1.9271   23.2348 C   0  0  2  0  0  0  0  0  0  0  0  0
    9.3113   -2.6928   23.7564 H   0  0  0  0  0  0  0  0  0  0  0  0
    8.4079   -0.8594   24.1396 O   0  0  0  0  0  0  0  0  0  0  0  0
    8.6406   -1.1018   25.5168 C   0  0  0  0  0  0  0  0  0  0  0  0
    8.5526   -0.1109   25.9759 H   0  0  0  0  0  0  0  0  0  0  0  0
    9.6722   -1.4490   25.6863 H   0  0  0  0  0  0  0  0  0  0  0  0
    7.6527   -2.0963   26.1208 C   0  0  0  0  0  0  0  0  0  0  0  0
    8.0202   -3.4086   26.4633 C   0  0  0  0  0  0  0  0  0  0  0  0
    9.0369   -3.7709   26.3274 H   0  0  0  0  0  0  0  0  0  0  0  0
    7.0500   -4.2878   26.9662 C   0  0  0  0  0  0  0  0  0  0  0  0
    7.3095   -5.3120   27.2392 H   0  0  0  0  0  0  0  0  0  0  0  0
    5.7663   -3.9448   27.1373 N   0  0  0  0  0  0  0  0  0  0  0  0
    5.4093   -2.6964   26.8071 C   0  0  0  0  0  0  0  0  0  0  0  0
    4.3574   -2.4456   26.9601 H   0  0  0  0  0  0  0  0  0  0  0  0
    6.3022   -1.7501   26.2929 C   0  0  0  0  0  0  0  0  0  0  0  0
    5.9444   -0.7653   26.0014 H   0  0  0  0  0  0  0  0  0  0  0  0
    9.5506   -1.3343   22.0883 C   0  0  0  0  0  0  0  0  0  0  0  0
   10.0994   -2.1412   21.5791 H   0  0  0  0  0  0  0  0  0  0  0  0
   10.3083   -0.6778   22.5280 H   0  0  0  0  0  0  0  0  0  0  0  0
  1  2  1  0
  2  3  2  0
  3  4  1  0
  4  5  2  0
  5  6  1  0
  5  7  1  0
  7  8  2  0
  8  9  1  0
  8 10  1  0
 10 11  1  0
 10 12  2  0
 12 13  1  0
  3 14  1  0
 14 15  1  0
 14 16  1  0
 14 17  1  0
 17 18  1  0
 17 19  1  0
 17 20  1  0
 20 21  1  1
 20 22  1  0
 22 23  1  0
 23 24  1  0
 23 25  1  0
 23 26  1  0
 26 27  2  0
 27 28  1  0
 27 29  1  0
 29 30  1  0
 29 31  2  0
 31 32  1  0
 32 33  1  0
 32 34  2  0
 34 35  1  0
 20 36  1  0
 36 37  1  0
 36 38  1  0
 36  2  1  0
 12  4  1  0
 34 26  1  0
M  END
>  <cnnaffinity>  (1) 
-5.08131

>  <filename>  (1) 
C1=C(c2cccnc2)CC[C@H](OCc2ccncc2)C1

$$$$
