
     RDKit          3D

 34 37  0  0  0  0  0  0  0  0999 V2000
    6.7523    0.3001   25.2190 C   0  0  0  0  0  0  0  0  0  0  0  0
    5.5298   -0.2728   25.2050 C   0  0  0  0  0  0  0  0  0  0  0  0
    5.3508   -1.7142   25.0358 C   0  0  0  0  0  0  0  0  0  0  0  0
    4.0907   -2.3380   25.2227 C   0  0  0  0  0  0  0  0  0  0  0  0
    3.9417   -3.6971   25.0116 C   0  0  0  0  0  0  0  0  0  0  0  0
    5.0393   -4.4760   24.5917 C   0  0  0  0  0  0  0  0  0  0  0  0
    6.2762   -3.8694   24.3882 C   0  0  0  0  0  0  0  0  0  0  0  0
    6.4457   -2.4966   24.6248 C   0  0  0  0  0  0  0  0  0  0  0  0
    7.7664   -1.8210   24.2996 C   0  0  0  0  0  0  0  0  0  0  0  0
    7.8724   -1.5192   22.8226 C   0  0  0  0  0  0  0  0  0  0  0  0
    8.8358   -1.8644   22.0334 N   0  0  0  0  0  0  0  0  0  0  0  0
    8.5374   -1.3335   20.7869 N   0  0  0  0  0  0  0  0  0  0  0  0
    7.4134   -0.7068   20.9174 C   0  0  0  0  0  0  0  0  0  0  0  0
    6.6491    0.0156   19.9048 C   0  0  0  0  0  0  0  0  0  0  0  0
    5.4282    0.6559   20.1714 C   0  0  0  0  0  0  0  0  0  0  0  0
    4.8028    1.3097   19.1112 C   0  0  0  0  0  0  0  0  0  0  0  0
    5.4048    1.2889   17.8450 C   0  0  0  0  0  0  0  0  0  0  0  0
    6.5670    0.6730   17.5833 N   0  0  0  0  0  0  0  0  0  0  0  0
    7.1713    0.0608   18.6033 C   0  0  0  0  0  0  0  0  0  0  0  0
    8.1180   -0.4275   18.3844 H   0  0  0  0  0  0  0  0  0  0  0  0
    4.9254    1.7778   16.9997 H   0  0  0  0  0  0  0  0  0  0  0  0
    3.8708    1.8449   19.2559 H   0  0  0  0  0  0  0  0  0  0  0  0
    4.9934    0.6395   21.1744 H   0  0  0  0  0  0  0  0  0  0  0  0
    6.9338   -0.7805   22.1831 O   0  0  0  0  0  0  0  0  0  0  0  0
    7.9872   -0.5510   25.1702 C   0  0  0  0  0  0  0  0  0  0  0  0
    8.8484    0.0290   24.8077 H   0  0  0  0  0  0  0  0  0  0  0  0
    8.2506   -0.8860   26.1907 H   0  0  0  0  0  0  0  0  0  0  0  0
    8.5901   -2.5177   24.4680 H   0  0  0  0  0  0  0  0  0  0  0  0
    7.1247   -4.4604   24.0464 H   0  0  0  0  0  0  0  0  0  0  0  0
    4.9167   -5.5441   24.4336 H   0  0  0  0  0  0  0  0  0  0  0  0
    2.9733   -4.1666   25.1700 H   0  0  0  0  0  0  0  0  0  0  0  0
    3.2490   -1.7204   25.5245 H   0  0  0  0  0  0  0  0  0  0  0  0
    4.6410    0.3330   25.3502 H   0  0  0  0  0  0  0  0  0  0  0  0
    6.8539    1.3745   25.3483 H   0  0  0  0  0  0  0  0  0  0  0  0
  1  2  2  0
  2  3  1  0
  3  4  2  0
  4  5  1  0
  5  6  2  0
  6  7  1  0
  7  8  2  0
  8  9  1  0
  9 10  1  0
 10 11  2  0
 11 12  1  0
 12 13  2  0
 13 14  1  0
 14 15  2  0
 15 16  1  0
 16 17  2  0
 17 18  1  0
 18 19  2  0
 19 20  1  0
 17 21  1  0
 16 22  1  0
 15 23  1  0
 13 24  1  0
  9 25  1  0
 25 26  1  0
 25 27  1  0
  9 28  1  0
  7 29  1  0
  6 30  1  0
  5 31  1  0
  4 32  1  0
  2 33  1  0
  1 34  1  0
 25  1  1  0
  8  3  1  0
 24 10  1  0
 19 14  1  0
M  END
>  <cnnaffinity>  (1) 
-5.35905

>  <filename>  (1) 
C1=Cc2ccccc2C(c2nnc(-c3cccnc3)o2)C1

$$$$
