
     RDKit          3D

 39 41  0  0  0  0  0  0  0  0999 V2000
    5.8023   -1.3069   22.1840 H   0  0  0  0  0  0  0  0  0  0  0  0
    6.8652   -1.2200   22.0174 C   0  0  0  0  0  0  0  0  0  0  0  0
    7.4140   -0.6586   20.9414 C   0  0  0  0  0  0  0  0  0  0  0  0
    6.6711    0.0334   19.8780 C   0  0  0  0  0  0  0  0  0  0  0  0
    7.1627    0.0855   18.5623 C   0  0  0  0  0  0  0  0  0  0  0  0
    8.1125   -0.3981   18.3248 H   0  0  0  0  0  0  0  0  0  0  0  0
    6.5497    0.6894   17.5404 N   0  0  0  0  0  0  0  0  0  0  0  0
    5.3862    1.3067   17.8038 C   0  0  0  0  0  0  0  0  0  0  0  0
    4.9187    1.8138   16.9620 H   0  0  0  0  0  0  0  0  0  0  0  0
    4.7949    1.3186   19.0734 C   0  0  0  0  0  0  0  0  0  0  0  0
    3.8609    1.8486   19.2257 H   0  0  0  0  0  0  0  0  0  0  0  0
    5.4372    0.6671   20.1254 C   0  0  0  0  0  0  0  0  0  0  0  0
    5.0103    0.6688   21.1298 H   0  0  0  0  0  0  0  0  0  0  0  0
    8.9135   -0.8997   20.9271 C   0  0  0  0  0  0  0  0  0  0  0  0
    9.1761   -1.5973   20.1198 H   0  0  0  0  0  0  0  0  0  0  0  0
    9.4654    0.0235   20.7227 H   0  0  0  0  0  0  0  0  0  0  0  0
    9.2094   -1.4973   22.3355 C   0  0  0  0  0  0  0  0  0  0  0  0
    9.6886   -0.7525   22.9815 H   0  0  0  0  0  0  0  0  0  0  0  0
    9.8893   -2.3571   22.2870 H   0  0  0  0  0  0  0  0  0  0  0  0
    7.8214   -1.8920   22.9492 C   0  0  2  0  0  0  0  0  0  0  0  0
    7.6927   -1.5241   23.9799 H   0  0  0  0  0  0  0  0  0  0  0  0
    7.5473   -3.4061   23.0412 C   0  0  0  0  0  0  0  0  0  0  0  0
    8.0700   -3.9172   22.2039 H   0  0  0  0  0  0  0  0  0  0  0  0
    6.4747   -3.5837   22.8825 H   0  0  0  0  0  0  0  0  0  0  0  0
    7.8971   -3.9697   24.3352 N   0  0  0  0  0  0  0  0  0  0  0  0
    7.3255   -5.3099   24.5159 C   0  0  0  0  0  0  0  0  0  0  0  0
    6.2376   -5.2308   24.4031 H   0  0  0  0  0  0  0  0  0  0  0  0
    7.6858   -6.0138   23.7353 H   0  0  0  0  0  0  0  0  0  0  0  0
    7.6682   -5.8870   25.9028 C   0  0  0  0  0  0  0  0  0  0  0  0
    7.2154   -5.2443   26.6716 H   0  0  0  0  0  0  0  0  0  0  0  0
    7.2331   -6.8853   26.0187 H   0  0  0  0  0  0  0  0  0  0  0  0
    9.1137   -5.9452   26.1827 N   0  0  0  0  0  0  0  0  0  0  0  0
    9.5642   -6.6171   25.5559 H   0  0  0  0  0  0  0  0  0  0  0  0
    9.6873   -4.6060   25.9567 C   0  0  0  0  0  0  0  0  0  0  0  0
    9.2891   -3.9486   26.7442 H   0  0  0  0  0  0  0  0  0  0  0  0
   10.7766   -4.6544   26.0772 H   0  0  0  0  0  0  0  0  0  0  0  0
    9.3506   -3.9952   24.5796 C   0  0  0  0  0  0  0  0  0  0  0  0
    9.8761   -4.5872   23.8009 H   0  0  0  0  0  0  0  0  0  0  0  0
    9.7422   -2.9733   24.5314 H   0  0  0  0  0  0  0  0  0  0  0  0
  1  2  1  0
  2  3  2  0
  3  4  1  0
  4  5  2  0
  5  6  1  0
  5  7  1  0
  7  8  2  0
  8  9  1  0
  8 10  1  0
 10 11  1  0
 10 12  2  0
 12 13  1  0
  3 14  1  0
 14 15  1  0
 14 16  1  0
 14 17  1  0
 17 18  1  0
 17 19  1  0
 17 20  1  0
 20 21  1  1
 20 22  1  0
 22 23  1  0
 22 24  1  0
 22 25  1  0
 25 26  1  0
 26 27  1  0
 26 28  1  0
 26 29  1  0
 29 30  1  0
 29 31  1  0
 29 32  1  0
 32 33  1  0
 32 34  1  0
 34 35  1  0
 34 36  1  0
 34 37  1  0
 37 38  1  0
 37 39  1  0
 20  2  1  0
 37 25  1  0
 12  4  1  0
M  END
>  <cnnaffinity>  (1) 
-4.86874

>  <filename>  (1) 
C1=C(c2cccnc2)CC[C@@H]1CN1CCNCC1

$$$$
