
     RDKit          3D

 31 33  0  0  0  0  0  0  0  0999 V2000
    7.6059    0.7341   24.7379 H   0  0  0  0  0  0  0  0  0  0  0  0
    7.7907   -0.1942   25.2731 C   0  0  0  0  0  0  0  0  0  0  0  0
    8.0729   -1.3202   24.6089 C   0  0  0  0  0  0  0  0  0  0  0  0
    8.0647   -1.3563   23.1400 C   0  0  0  0  0  0  0  0  0  0  0  0
    8.8220   -2.1849   22.3607 C   0  0  0  0  0  0  0  0  0  0  0  0
    9.5399   -2.9160   22.6969 H   0  0  0  0  0  0  0  0  0  0  0  0
    8.5659   -1.9245   20.6955 S   0  0  0  0  0  0  0  0  0  0  0  0
    7.3775   -0.7012   20.9937 C   0  0  0  0  0  0  0  0  0  0  0  0
    6.6662    0.0022   19.9078 C   0  0  0  0  0  0  0  0  0  0  0  0
    7.1777    0.0598   18.5930 C   0  0  0  0  0  0  0  0  0  0  0  0
    8.1245   -0.4266   18.3702 H   0  0  0  0  0  0  0  0  0  0  0  0
    6.5681    0.6812   17.5752 N   0  0  0  0  0  0  0  0  0  0  0  0
    5.4016    1.2919   17.8420 C   0  0  0  0  0  0  0  0  0  0  0  0
    4.9103    1.7759   17.0016 H   0  0  0  0  0  0  0  0  0  0  0  0
    4.8031    1.3114   19.1081 C   0  0  0  0  0  0  0  0  0  0  0  0
    3.8702    1.8457   19.2647 H   0  0  0  0  0  0  0  0  0  0  0  0
    5.4459    0.6527   20.1573 C   0  0  0  0  0  0  0  0  0  0  0  0
    5.0052    0.6274   21.1551 H   0  0  0  0  0  0  0  0  0  0  0  0
    7.2406   -0.5029   22.3345 C   0  0  0  0  0  0  0  0  0  0  0  0
    6.5574    0.2271   22.7576 H   0  0  0  0  0  0  0  0  0  0  0  0
    8.3351   -2.6233   25.3529 C   0  0  0  0  0  0  0  0  0  0  0  0
    7.4675   -3.2781   25.2010 H   0  0  0  0  0  0  0  0  0  0  0  0
    9.2014   -3.1441   24.9350 H   0  0  0  0  0  0  0  0  0  0  0  0
    8.5401   -2.4050   26.8530 C   0  0  0  0  0  0  0  0  0  0  0  0
    9.5541   -2.0332   27.0408 H   0  0  0  0  0  0  0  0  0  0  0  0
    8.4537   -3.3560   27.3882 H   0  0  0  0  0  0  0  0  0  0  0  0
    7.5953   -1.4397   27.4149 N   0  0  0  0  0  0  0  0  0  0  0  0
    6.6586   -1.7654   27.1808 H   0  0  0  0  0  0  0  0  0  0  0  0
    7.7656   -0.1328   26.7776 C   0  0  0  0  0  0  0  0  0  0  0  0
    6.9782    0.5477   27.1154 H   0  0  0  0  0  0  0  0  0  0  0  0
    8.7108    0.3054   27.1220 H   0  0  0  0  0  0  0  0  0  0  0  0
  1  2  1  0
  2  3  2  0
  3  4  1  0
  4  5  2  0
  5  6  1  0
  5  7  1  0
  7  8  1  0
  8  9  1  0
  9 10  2  0
 10 11  1  0
 10 12  1  0
 12 13  2  0
 13 14  1  0
 13 15  1  0
 15 16  1  0
 15 17  2  0
 17 18  1  0
  8 19  2  0
 19 20  1  0
  3 21  1  0
 21 22  1  0
 21 23  1  0
 21 24  1  0
 24 25  1  0
 24 26  1  0
 24 27  1  0
 27 28  1  0
 27 29  1  0
 29 30  1  0
 29 31  1  0
 29  2  1  0
 19  4  1  0
 17  9  1  0
M  END
>  <cnnaffinity>  (1) 
-4.95066

>  <filename>  (1) 
C1=C(c2csc(-c3cccnc3)c2)CCNC1

$$$$
