
     RDKit          3D

 33 35  0  0  0  0  0  0  0  0999 V2000
    7.4828   -3.3397   21.0759 H   0  0  0  0  0  0  0  0  0  0  0  0
    7.9211   -3.6120   22.0321 C   0  0  0  0  0  0  0  0  0  0  0  0
    8.9415   -2.9019   22.5316 C   0  0  0  0  0  0  0  0  0  0  0  0
    9.4185   -1.7105   21.8428 C   0  0  0  0  0  0  0  0  0  0  0  0
    8.7154   -0.7717   21.1017 C   0  0  0  0  0  0  0  0  0  0  0  0
    7.3253   -0.7117   20.9252 N   0  0  0  0  0  0  0  0  0  0  0  0
    6.7609   -1.0624   21.6941 H   0  0  0  0  0  0  0  0  0  0  0  0
    6.6656   -0.0081   19.9128 C   0  0  0  0  0  0  0  0  0  0  0  0
    7.1741    0.0629   18.5903 C   0  0  0  0  0  0  0  0  0  0  0  0
    8.1212   -0.4306   18.3788 H   0  0  0  0  0  0  0  0  0  0  0  0
    6.5635    0.6828   17.5728 N   0  0  0  0  0  0  0  0  0  0  0  0
    5.3975    1.2968   17.8382 C   0  0  0  0  0  0  0  0  0  0  0  0
    4.9089    1.7813   16.9971 H   0  0  0  0  0  0  0  0  0  0  0  0
    4.8111    1.3072   19.1117 C   0  0  0  0  0  0  0  0  0  0  0  0
    3.8771    1.8411   19.2657 H   0  0  0  0  0  0  0  0  0  0  0  0
    5.4436    0.6365   20.1630 C   0  0  0  0  0  0  0  0  0  0  0  0
    5.0152    0.6235   21.1676 H   0  0  0  0  0  0  0  0  0  0  0  0
    9.7007    0.1405   20.6704 C   0  0  0  0  0  0  0  0  0  0  0  0
    9.5235    1.0198   20.0761 H   0  0  0  0  0  0  0  0  0  0  0  0
   10.9121   -0.1760   21.1127 N   0  0  0  0  0  0  0  0  0  0  0  0
   10.7113   -1.2935   21.8187 N   0  0  0  0  0  0  0  0  0  0  0  0
   11.4961   -1.7363   22.2714 H   0  0  0  0  0  0  0  0  0  0  0  0
    9.6513   -3.3375   23.8078 C   0  0  0  0  0  0  0  0  0  0  0  0
   10.5997   -3.8121   23.5271 H   0  0  0  0  0  0  0  0  0  0  0  0
    9.8973   -2.4678   24.4252 H   0  0  0  0  0  0  0  0  0  0  0  0
    8.8148   -4.3395   24.6063 C   0  0  0  0  0  0  0  0  0  0  0  0
    9.4258   -4.8023   25.3886 H   0  0  0  0  0  0  0  0  0  0  0  0
    7.9950   -3.8194   25.1173 H   0  0  0  0  0  0  0  0  0  0  0  0
    8.2364   -5.3804   23.7533 N   0  0  0  0  0  0  0  0  0  0  0  0
    9.0093   -5.8099   23.2490 H   0  0  0  0  0  0  0  0  0  0  0  0
    7.3371   -4.7945   22.7583 C   0  0  0  0  0  0  0  0  0  0  0  0
    7.0333   -5.5611   22.0389 H   0  0  0  0  0  0  0  0  0  0  0  0
    6.4158   -4.4748   23.2645 H   0  0  0  0  0  0  0  0  0  0  0  0
  1  2  1  0
  2  3  2  0
  3  4  1  0
  4  5  2  0
  5  6  1  0
  6  7  1  0
  6  8  1  0
  8  9  2  0
  9 10  1  0
  9 11  1  0
 11 12  2  0
 12 13  1  0
 12 14  1  0
 14 15  1  0
 14 16  2  0
 16 17  1  0
  5 18  1  0
 18 19  1  0
 18 20  2  0
 20 21  1  0
 21 22  1  0
  3 23  1  0
 23 24  1  0
 23 25  1  0
 23 26  1  0
 26 27  1  0
 26 28  1  0
 26 29  1  0
 29 30  1  0
 29 31  1  0
 31 32  1  0
 31 33  1  0
 31  2  1  0
 21  4  1  0
 16  8  1  0
M  END
>  <cnnaffinity>  (1) 
-5.3226

>  <filename>  (1) 
C1=C(c2[nH]ncc2Nc2cccnc2)CCNC1

$$$$
