
     RDKit          3D

 31 33  0  0  0  0  0  0  0  0999 V2000
    6.2129    0.2301   24.5343 H   0  0  0  0  0  0  0  0  0  0  0  0
    6.5380    1.1325   24.0271 C   0  0  0  0  0  0  0  0  0  0  0  0
    7.2421    1.0593   22.8803 C   0  0  0  0  0  0  0  0  0  0  0  0
    7.6197   -0.2255   22.3097 C   0  0  0  0  0  0  0  0  0  0  0  0
    8.2071   -1.3057   22.9100 C   0  0  0  0  0  0  0  0  0  0  0  0
    8.5381   -1.3755   23.9329 H   0  0  0  0  0  0  0  0  0  0  0  0
    8.2887   -2.3717   22.0572 N   0  0  0  0  0  0  0  0  0  0  0  0
    7.7424   -1.9477   20.9526 C   0  0  0  0  0  0  0  0  0  0  0  0
    7.4522   -2.5549   20.1183 H   0  0  0  0  0  0  0  0  0  0  0  0
    7.3540   -0.6323   21.0002 N   0  0  0  0  0  0  0  0  0  0  0  0
    6.6720    0.0674   19.9499 C   0  0  0  0  0  0  0  0  0  0  0  0
    7.1973    0.0954   18.6394 C   0  0  0  0  0  0  0  0  0  0  0  0
    8.1499   -0.3862   18.4105 H   0  0  0  0  0  0  0  0  0  0  0  0
    6.5812    0.6863   17.6098 N   0  0  0  0  0  0  0  0  0  0  0  0
    5.4096    1.2960   17.8476 C   0  0  0  0  0  0  0  0  0  0  0  0
    4.9517    1.7999   17.0014 H   0  0  0  0  0  0  0  0  0  0  0  0
    4.7950    1.3154   19.1043 C   0  0  0  0  0  0  0  0  0  0  0  0
    3.8476    1.8301   19.2333 H   0  0  0  0  0  0  0  0  0  0  0  0
    5.4322    0.6847   20.1761 C   0  0  0  0  0  0  0  0  0  0  0  0
    4.9896    0.6618   21.1739 H   0  0  0  0  0  0  0  0  0  0  0  0
    7.7549    2.3032   22.1725 C   0  0  0  0  0  0  0  0  0  0  0  0
    7.6380    2.1887   21.0919 H   0  0  0  0  0  0  0  0  0  0  0  0
    8.8349    2.3653   22.3545 H   0  0  0  0  0  0  0  0  0  0  0  0
    7.0505    3.5586   22.6927 C   0  0  0  0  0  0  0  0  0  0  0  0
    6.0380    3.6129   22.2723 H   0  0  0  0  0  0  0  0  0  0  0  0
    7.5687    4.4633   22.3593 H   0  0  0  0  0  0  0  0  0  0  0  0
    6.9531    3.5746   24.1583 N   0  0  0  0  0  0  0  0  0  0  0  0
    7.8986    3.4094   24.5003 H   0  0  0  0  0  0  0  0  0  0  0  0
    6.1580    2.4503   24.6541 C   0  0  0  0  0  0  0  0  0  0  0  0
    6.2678    2.3899   25.7424 H   0  0  0  0  0  0  0  0  0  0  0  0
    5.0910    2.6550   24.4901 H   0  0  0  0  0  0  0  0  0  0  0  0
  1  2  1  0
  2  3  2  0
  3  4  1  0
  4  5  2  0
  5  6  1  0
  5  7  1  0
  7  8  2  0
  8  9  1  0
  8 10  1  0
 10 11  1  0
 11 12  2  0
 12 13  1  0
 12 14  1  0
 14 15  2  0
 15 16  1  0
 15 17  1  0
 17 18  1  0
 17 19  2  0
 19 20  1  0
  3 21  1  0
 21 22  1  0
 21 23  1  0
 21 24  1  0
 24 25  1  0
 24 26  1  0
 24 27  1  0
 27 28  1  0
 27 29  1  0
 29 30  1  0
 29 31  1  0
 29  2  1  0
 10  4  1  0
 19 11  1  0
M  END
>  <cnnaffinity>  (1) 
-4.85107

>  <filename>  (1) 
C1=C(c2cncn2-c2cccnc2)CCNC1

$$$$
