
     RDKit          3D

 29 31  0  0  0  0  0  0  0  0999 V2000
    5.0172    1.9081   16.7158 H   0  0  0  0  0  0  0  0  0  0  0  0
    5.3873    1.4287   17.6177 C   0  0  0  0  0  0  0  0  0  0  0  0
    6.5505    0.7664   17.5001 N   0  0  0  0  0  0  0  0  0  0  0  0
    7.0287    0.1755   18.6006 C   0  0  0  0  0  0  0  0  0  0  0  0
    7.9899   -0.3236   18.4818 H   0  0  0  0  0  0  0  0  0  0  0  0
    6.3881    0.1864   19.8561 C   0  0  0  0  0  0  0  0  0  0  0  0
    7.0468   -0.4391   21.0089 C   0  0  0  0  0  0  0  0  0  0  0  0
    8.2417   -1.1266   21.0868 C   0  0  0  0  0  0  0  0  0  0  0  0
    8.8780   -1.4974   20.2979 H   0  0  0  0  0  0  0  0  0  0  0  0
    8.4443   -1.3623   22.4624 C   0  0  0  0  0  0  0  0  0  0  0  0
    9.7896   -2.2617   23.1857 S   0  0  0  0  0  0  0  0  0  0  0  0
   11.1877   -1.1601   22.9300 C   0  0  0  0  0  0  0  0  0  0  0  0
   11.3218    0.0362   23.6516 C   0  0  0  0  0  0  0  0  0  0  0  0
   10.5112    0.3634   24.2937 H   0  0  0  0  0  0  0  0  0  0  0  0
   12.5204    0.7627   23.6014 C   0  0  0  0  0  0  0  0  0  0  0  0
   12.6208    1.6889   24.1670 H   0  0  0  0  0  0  0  0  0  0  0  0
   13.5847    0.2954   22.8180 C   0  0  0  0  0  0  0  0  0  0  0  0
   14.5325    0.8279   22.8160 H   0  0  0  0  0  0  0  0  0  0  0  0
   13.4370   -0.8646   22.0533 C   0  0  0  0  0  0  0  0  0  0  0  0
   14.2441   -1.2081   21.4082 H   0  0  0  0  0  0  0  0  0  0  0  0
   12.2332   -1.5770   22.0928 C   0  0  0  0  0  0  0  0  0  0  0  0
   12.1074   -2.4725   21.4993 H   0  0  0  0  0  0  0  0  0  0  0  0
    7.4320   -0.9053   23.1879 N   0  0  0  0  0  0  0  0  0  0  0  0
    6.6062   -0.3367   22.2970 N   0  0  0  0  0  0  0  0  0  0  0  0
    5.7063   -0.0117   22.6228 H   0  0  0  0  0  0  0  0  0  0  0  0
    5.1655    0.8732   19.9464 C   0  0  0  0  0  0  0  0  0  0  0  0
    4.6216    0.9253   20.8913 H   0  0  0  0  0  0  0  0  0  0  0  0
    4.6647    1.5067   18.8134 C   0  0  0  0  0  0  0  0  0  0  0  0
    3.7353    2.0657   18.8540 H   0  0  0  0  0  0  0  0  0  0  0  0
  1  2  1  0
  2  3  2  0
  3  4  1  0
  4  5  1  0
  4  6  2  0
  6  7  1  0
  7  8  2  0
  8  9  1  0
  8 10  1  0
 10 11  1  0
 11 12  1  0
 12 13  2  0
 13 14  1  0
 13 15  1  0
 15 16  1  0
 15 17  2  0
 17 18  1  0
 17 19  1  0
 19 20  1  0
 19 21  2  0
 21 22  1  0
 10 23  2  0
 23 24  1  0
 24 25  1  0
  6 26  1  0
 26 27  1  0
 26 28  2  0
 28 29  1  0
 28  2  1  0
 24  7  1  0
 21 12  1  0
M  END
>  <cnnaffinity>  (1) 
-5.0905

>  <filename>  (1) 
c1ccc(Sc2cc(-c3cccnc3)[nH]n2)cc1

$$$$
