
     RDKit          3D

 37 39  0  0  0  0  0  0  0  0999 V2000
    5.0313    1.7866   16.9566 H   0  0  0  0  0  0  0  0  0  0  0  0
    5.5050    1.3878   17.8531 C   0  0  0  0  0  0  0  0  0  0  0  0
    6.7457    0.9044   17.7083 N   0  0  0  0  0  0  0  0  0  0  0  0
    7.3490    0.4161   18.8030 C   0  0  0  0  0  0  0  0  0  0  0  0
    8.3577    0.0375   18.6378 H   0  0  0  0  0  0  0  0  0  0  0  0
    6.7599    0.3266   20.0718 C   0  0  0  0  0  0  0  0  0  0  0  0
    7.5269   -0.2742   21.2448 C   0  0  0  0  0  0  0  0  0  0  0  0
    8.1975    0.7540   22.0099 N   0  0  0  0  0  0  0  0  0  0  0  0
    8.4919    0.4315   22.9179 H   0  0  0  0  0  0  0  0  0  0  0  0
    9.3187    1.3886   21.3979 C   0  0  0  0  0  0  0  0  0  0  0  0
    8.9910    2.2840   20.8447 H   0  0  0  0  0  0  0  0  0  0  0  0
    9.8709    0.7458   20.6820 H   0  0  0  0  0  0  0  0  0  0  0  0
   10.1866    1.7172   22.4638 O   0  0  0  0  0  0  0  0  0  0  0  0
   11.1622    2.6331   22.1601 C   0  0  0  0  0  0  0  0  0  0  0  0
   11.6335    3.4305   23.2170 C   0  0  0  0  0  0  0  0  0  0  0  0
   11.2760    3.2229   24.2193 H   0  0  0  0  0  0  0  0  0  0  0  0
   12.4758    4.5109   22.9444 C   0  0  0  0  0  0  0  0  0  0  0  0
   12.7499    5.2009   23.7355 H   0  0  0  0  0  0  0  0  0  0  0  0
   12.9408    4.7397   21.6427 C   0  0  0  0  0  0  0  0  0  0  0  0
   13.5504    5.6080   21.4154 H   0  0  0  0  0  0  0  0  0  0  0  0
   12.5542    3.8763   20.6201 C   0  0  0  0  0  0  0  0  0  0  0  0
   12.9163    4.0136   19.6108 H   0  0  0  0  0  0  0  0  0  0  0  0
   11.6681    2.8267   20.8637 C   0  0  0  0  0  0  0  0  0  0  0  0
   11.3465    2.2026   20.0397 H   0  0  0  0  0  0  0  0  0  0  0  0
    8.4820   -1.4701   20.9155 C   0  0  0  0  0  0  0  0  0  0  0  0
    9.4740   -1.3168   21.3485 H   0  0  0  0  0  0  0  0  0  0  0  0
    8.6102   -1.6784   19.8541 H   0  0  0  0  0  0  0  0  0  0  0  0
    7.6014   -2.4392   21.7449 C   0  0  0  0  0  0  0  0  0  0  0  0
    7.1016   -3.2197   21.1610 H   0  0  0  0  0  0  0  0  0  0  0  0
    8.1096   -2.9359   22.5836 H   0  0  0  0  0  0  0  0  0  0  0  0
    6.6970   -1.2393   22.1293 C   0  0  0  0  0  0  0  0  0  0  0  0
    5.6705   -1.3561   21.7835 H   0  0  0  0  0  0  0  0  0  0  0  0
    6.6764   -0.9633   23.1893 H   0  0  0  0  0  0  0  0  0  0  0  0
    5.4640    0.8576   20.1991 C   0  0  0  0  0  0  0  0  0  0  0  0
    4.9582    0.8450   21.1653 H   0  0  0  0  0  0  0  0  0  0  0  0
    4.8291    1.3947   19.0772 C   0  0  0  0  0  0  0  0  0  0  0  0
    3.8318    1.8170   19.1355 H   0  0  0  0  0  0  0  0  0  0  0  0
  1  2  1  0
  2  3  2  0
  3  4  1  0
  4  5  1  0
  4  6  2  0
  6  7  1  0
  7  8  1  0
  8  9  1  0
  8 10  1  0
 10 11  1  0
 10 12  1  0
 10 13  1  0
 13 14  1  0
 14 15  2  0
 15 16  1  0
 15 17  1  0
 17 18  1  0
 17 19  2  0
 19 20  1  0
 19 21  1  0
 21 22  1  0
 21 23  2  0
 23 24  1  0
  7 25  1  0
 25 26  1  0
 25 27  1  0
 25 28  1  0
 28 29  1  0
 28 30  1  0
 28 31  1  0
 31 32  1  0
 31 33  1  0
  6 34  1  0
 34 35  1  0
 34 36  2  0
 36 37  1  0
 36  2  1  0
 31  7  1  0
 23 14  1  0
M  END
>  <cnnaffinity>  (1) 
-4.97957

>  <filename>  (1) 
c1ccc(OCNC2(c3cccnc3)CCC2)cc1

$$$$
