
     RDKit          3D

 29 31  0  0  0  0  0  0  0  0999 V2000
    5.0739    1.6943   17.1584 H   0  0  0  0  0  0  0  0  0  0  0  0
    5.5817    1.1728   17.9665 C   0  0  0  0  0  0  0  0  0  0  0  0
    6.7748    0.6452   17.6584 N   0  0  0  0  0  0  0  0  0  0  0  0
    7.4462    0.0520   18.6429 C   0  0  0  0  0  0  0  0  0  0  0  0
    8.4250   -0.3502   18.3958 H   0  0  0  0  0  0  0  0  0  0  0  0
    6.9709   -0.0771   19.9545 C   0  0  0  0  0  0  0  0  0  0  0  0
    7.9348   -0.6740   20.8775 C   0  0  0  0  0  0  0  0  0  0  0  0
    9.2221   -0.4934   20.7108 N   0  0  0  0  0  0  0  0  0  0  0  0
    9.8402   -1.0630   21.7890 C   0  0  0  0  0  0  0  0  0  0  0  0
   10.9197   -1.0254   21.8893 H   0  0  0  0  0  0  0  0  0  0  0  0
    8.9154   -1.6395   22.6090 C   0  0  0  0  0  0  0  0  0  0  0  0
    8.9422   -2.1767   23.5436 H   0  0  0  0  0  0  0  0  0  0  0  0
    7.6816   -1.4093   22.0224 N   0  0  0  0  0  0  0  0  0  0  0  0
    6.2775   -2.2072   22.5948 S   0  0  0  0  0  0  0  0  0  0  0  0
    6.0554   -3.5168   21.3883 C   0  0  0  0  0  0  0  0  0  0  0  0
    6.0980   -4.8743   21.7429 C   0  0  0  0  0  0  0  0  0  0  0  0
    6.3286   -5.1624   22.7650 H   0  0  0  0  0  0  0  0  0  0  0  0
    5.8441   -5.8535   20.7722 C   0  0  0  0  0  0  0  0  0  0  0  0
    5.8184   -6.9049   21.0549 H   0  0  0  0  0  0  0  0  0  0  0  0
    5.5771   -5.4848   19.4487 C   0  0  0  0  0  0  0  0  0  0  0  0
    5.4213   -6.2547   18.6929 H   0  0  0  0  0  0  0  0  0  0  0  0
    5.5378   -4.1251   19.1084 C   0  0  0  0  0  0  0  0  0  0  0  0
    5.3151   -3.7895   18.1026 H   0  0  0  0  0  0  0  0  0  0  0  0
    5.7542   -3.1502   20.0732 C   0  0  0  0  0  0  0  0  0  0  0  0
    5.6745   -2.0999   19.8138 H   0  0  0  0  0  0  0  0  0  0  0  0
    5.7032    0.4371   20.2641 C   0  0  0  0  0  0  0  0  0  0  0  0
    5.2792    0.3269   21.2675 H   0  0  0  0  0  0  0  0  0  0  0  0
    5.0063    1.0864   19.2403 C   0  0  0  0  0  0  0  0  0  0  0  0
    4.0448    1.5508   19.4138 H   0  0  0  0  0  0  0  0  0  0  0  0
  1  2  1  0
  2  3  2  0
  3  4  1  0
  4  5  1  0
  4  6  2  0
  6  7  1  0
  7  8  2  0
  8  9  1  0
  9 10  1  0
  9 11  2  0
 11 12  1  0
 11 13  1  0
 13 14  1  0
 14 15  1  0
 15 16  2  0
 16 17  1  0
 16 18  1  0
 18 19  1  0
 18 20  2  0
 20 21  1  0
 20 22  1  0
 22 23  1  0
 22 24  2  0
 24 25  1  0
  6 26  1  0
 26 27  1  0
 26 28  2  0
 28 29  1  0
 28  2  1  0
 13  7  1  0
 24 15  1  0
M  END
>  <cnnaffinity>  (1) 
-4.95891

>  <filename>  (1) 
c1ccc(Sn2ccnc2-c2cccnc2)cc1

$$$$
