
     RDKit          3D

 28 30  0  0  0  0  0  0  0  0999 V2000
    4.9292    1.7824   16.9941 H   0  0  0  0  0  0  0  0  0  0  0  0
    5.4067    1.2887   17.8392 C   0  0  0  0  0  0  0  0  0  0  0  0
    6.5739    0.6693   17.5907 N   0  0  0  0  0  0  0  0  0  0  0  0
    7.1795    0.0523   18.6079 C   0  0  0  0  0  0  0  0  0  0  0  0
    8.1231   -0.4358   18.3766 H   0  0  0  0  0  0  0  0  0  0  0  0
    6.6539    0.0202   19.9162 C   0  0  0  0  0  0  0  0  0  0  0  0
    7.3593   -0.6265   20.9739 N   0  0  0  0  0  0  0  0  0  0  0  0
    8.0695   -1.7560   20.7159 N   0  0  0  0  0  0  0  0  0  0  0  0
    8.5829   -2.1785   21.8188 N   0  0  0  0  0  0  0  0  0  0  0  0
    8.2310   -1.3374   22.8270 C   0  0  0  0  0  0  0  0  0  0  0  0
    8.5351   -1.4883   23.8500 H   0  0  0  0  0  0  0  0  0  0  0  0
    7.4572   -0.3360   22.2998 C   0  0  0  0  0  0  0  0  0  0  0  0
    6.8342    0.7365   22.8315 O   0  0  0  0  0  0  0  0  0  0  0  0
    7.2329    1.2671   24.0597 C   0  0  0  0  0  0  0  0  0  0  0  0
    6.2266    1.8328   24.8497 C   0  0  0  0  0  0  0  0  0  0  0  0
    5.1982    1.8191   24.5008 H   0  0  0  0  0  0  0  0  0  0  0  0
    6.5642    2.4220   26.0746 C   0  0  0  0  0  0  0  0  0  0  0  0
    5.7876    2.8588   26.6961 H   0  0  0  0  0  0  0  0  0  0  0  0
    7.8953    2.4571   26.5084 C   0  0  0  0  0  0  0  0  0  0  0  0
    8.1562    2.9031   27.4673 H   0  0  0  0  0  0  0  0  0  0  0  0
    8.8909    1.9125   25.6937 C   0  0  0  0  0  0  0  0  0  0  0  0
    9.9279    1.9252   26.0178 H   0  0  0  0  0  0  0  0  0  0  0  0
    8.5733    1.3298   24.4618 C   0  0  0  0  0  0  0  0  0  0  0  0
    9.3478    0.9169   23.8219 H   0  0  0  0  0  0  0  0  0  0  0  0
    5.4307    0.6456   20.1699 C   0  0  0  0  0  0  0  0  0  0  0  0
    5.0058    0.6424   21.1746 H   0  0  0  0  0  0  0  0  0  0  0  0
    4.8064    1.2974   19.1033 C   0  0  0  0  0  0  0  0  0  0  0  0
    3.8787    1.8362   19.2568 H   0  0  0  0  0  0  0  0  0  0  0  0
  1  2  1  0
  2  3  2  0
  3  4  1  0
  4  5  1  0
  4  6  2  0
  6  7  1  0
  7  8  1  0
  8  9  2  0
  9 10  1  0
 10 11  1  0
 10 12  2  0
 12 13  1  0
 13 14  1  0
 14 15  2  0
 15 16  1  0
 15 17  1  0
 17 18  1  0
 17 19  2  0
 19 20  1  0
 19 21  1  0
 21 22  1  0
 21 23  2  0
 23 24  1  0
  6 25  1  0
 25 26  1  0
 25 27  2  0
 27 28  1  0
 27  2  1  0
 12  7  1  0
 23 14  1  0
M  END
>  <cnnaffinity>  (1) 
-4.86251

>  <filename>  (1) 
c1ccc(Oc2cnnn2-c2cccnc2)cc1

$$$$
