
     RDKit          3D

 35 38  0  0  0  0  0  0  0  0999 V2000
    3.6603   -0.7591   29.0884 C   0  0  0  0  0  0  0  0  0  0  0  0
    4.1468    0.1517   28.1434 C   0  0  0  0  0  0  0  0  0  0  0  0
    5.1850   -0.2213   27.2858 C   0  0  0  0  0  0  0  0  0  0  0  0
    5.7582   -1.5044   27.3585 C   0  0  0  0  0  0  0  0  0  0  0  0
    6.8557   -1.8926   26.4244 C   0  0  0  0  0  0  0  0  0  0  0  0
    7.9650   -2.6506   26.8430 C   0  0  0  0  0  0  0  0  0  0  0  0
    8.9798   -3.0138   26.0515 N   0  0  0  0  0  0  0  0  0  0  0  0
    8.9346   -2.6417   24.7697 C   0  0  0  0  0  0  0  0  0  0  0  0
    7.8807   -1.8884   24.2341 C   0  0  0  0  0  0  0  0  0  0  0  0
    7.8607   -1.4891   22.8287 C   0  0  0  0  0  0  0  0  0  0  0  0
    6.9389   -0.7887   22.2407 N   0  0  0  0  0  0  0  0  0  0  0  0
    7.4002   -0.7078   20.9531 C   0  0  0  0  0  0  0  0  0  0  0  0
    6.6594    0.0075   19.9099 C   0  0  0  0  0  0  0  0  0  0  0  0
    5.4378    0.6507   20.1699 C   0  0  0  0  0  0  0  0  0  0  0  0
    4.8093    1.3059   19.1133 C   0  0  0  0  0  0  0  0  0  0  0  0
    5.4073    1.2861   17.8477 C   0  0  0  0  0  0  0  0  0  0  0  0
    6.5699    0.6701   17.5923 N   0  0  0  0  0  0  0  0  0  0  0  0
    7.1799    0.0544   18.6082 C   0  0  0  0  0  0  0  0  0  0  0  0
    8.1247   -0.4281   18.3718 H   0  0  0  0  0  0  0  0  0  0  0  0
    4.9265    1.7749   17.0027 H   0  0  0  0  0  0  0  0  0  0  0  0
    3.8780    1.8403   19.2587 H   0  0  0  0  0  0  0  0  0  0  0  0
    5.0037    0.6330   21.1733 H   0  0  0  0  0  0  0  0  0  0  0  0
    8.5369   -1.3212   20.7529 N   0  0  0  0  0  0  0  0  0  0  0  0
    8.8477   -1.8445   22.0041 O   0  0  0  0  0  0  0  0  0  0  0  0
    6.8320   -1.5095   25.0809 C   0  0  0  0  0  0  0  0  0  0  0  0
    5.9901   -0.9353   24.6857 H   0  0  0  0  0  0  0  0  0  0  0  0
    9.7752   -2.9651   24.1626 H   0  0  0  0  0  0  0  0  0  0  0  0
    8.0471   -2.9689   27.8766 H   0  0  0  0  0  0  0  0  0  0  0  0
    5.2591   -2.4078   28.3116 C   0  0  0  0  0  0  0  0  0  0  0  0
    4.2188   -2.0397   29.1708 C   0  0  0  0  0  0  0  0  0  0  0  0
    3.8527   -2.7503   29.9081 H   0  0  0  0  0  0  0  0  0  0  0  0
    5.6781   -3.4098   28.3673 H   0  0  0  0  0  0  0  0  0  0  0  0
    5.5718    0.4863   26.5553 H   0  0  0  0  0  0  0  0  0  0  0  0
    3.7152    1.1469   28.0671 H   0  0  0  0  0  0  0  0  0  0  0  0
    2.8522   -0.4720   29.7570 H   0  0  0  0  0  0  0  0  0  0  0  0
  1  2  2  0
  2  3  1  0
  3  4  2  0
  4  5  1  0
  5  6  2  0
  6  7  1  0
  7  8  2  0
  8  9  1  0
  9 10  1  0
 10 11  2  0
 11 12  1  0
 12 13  1  0
 13 14  2  0
 14 15  1  0
 15 16  2  0
 16 17  1  0
 17 18  2  0
 18 19  1  0
 16 20  1  0
 15 21  1  0
 14 22  1  0
 12 23  2  0
 23 24  1  0
  9 25  2  0
 25 26  1  0
  8 27  1  0
  6 28  1  0
  4 29  1  0
 29 30  2  0
 30 31  1  0
 29 32  1  0
  3 33  1  0
  2 34  1  0
  1 35  1  0
 30  1  1  0
 25  5  1  0
 24 10  1  0
 18 13  1  0
M  END
>  <cnnaffinity>  (1) 
-5.2495

>  <filename>  (1) 
c1ccc(-c2cncc(-c3nc(-c4cccnc4)no3)c2)cc1

$$$$
