
     RDKit          3D

 29 31  0  0  0  0  0  0  0  0999 V2000
    9.0608   -3.0078   22.1749 H   0  0  0  0  0  0  0  0  0  0  0  0
    8.4790   -2.1241   21.9797 C   0  0  0  0  0  0  0  0  0  0  0  0
    8.0211   -1.8507   20.7349 N   0  0  0  0  0  0  0  0  0  0  0  0
    7.3712   -0.7231   20.9116 C   0  0  0  0  0  0  0  0  0  0  0  0
    6.6427    0.0100   19.8904 C   0  0  0  0  0  0  0  0  0  0  0  0
    7.1706    0.0499   18.5942 C   0  0  0  0  0  0  0  0  0  0  0  0
    8.1204   -0.4365   18.3795 H   0  0  0  0  0  0  0  0  0  0  0  0
    6.5723    0.6783   17.5801 N   0  0  0  0  0  0  0  0  0  0  0  0
    5.4061    1.2920   17.8418 C   0  0  0  0  0  0  0  0  0  0  0  0
    4.9188    1.7757   17.0010 H   0  0  0  0  0  0  0  0  0  0  0  0
    4.8010    1.3135   19.1060 C   0  0  0  0  0  0  0  0  0  0  0  0
    3.8696    1.8453   19.2609 H   0  0  0  0  0  0  0  0  0  0  0  0
    5.4311    0.6644   20.1614 C   0  0  0  0  0  0  0  0  0  0  0  0
    4.9906    0.6332   21.1645 H   0  0  0  0  0  0  0  0  0  0  0  0
    7.4746   -0.3310   22.2282 N   0  0  0  0  0  0  0  0  0  0  0  0
    7.1072    0.8559   22.8186 N   0  0  0  0  0  0  0  0  0  0  0  0
    7.0571    1.6616   22.2237 H   0  0  0  0  0  0  0  0  0  0  0  0
    6.8390    1.0538   24.1794 C   0  0  0  0  0  0  0  0  0  0  0  0
    6.3870    0.0113   24.9957 C   0  0  0  0  0  0  0  0  0  0  0  0
    6.2444   -0.9651   24.5498 H   0  0  0  0  0  0  0  0  0  0  0  0
    6.1576    0.2328   26.3552 C   0  0  0  0  0  0  0  0  0  0  0  0
    5.8336   -0.5983   26.9735 H   0  0  0  0  0  0  0  0  0  0  0  0
    6.3454    1.4974   26.9209 C   0  0  0  0  0  0  0  0  0  0  0  0
    6.1594    1.6538   27.9828 H   0  0  0  0  0  0  0  0  0  0  0  0
    6.7627    2.5520   26.1000 C   0  0  0  0  0  0  0  0  0  0  0  0
    6.8970    3.5411   26.5333 H   0  0  0  0  0  0  0  0  0  0  0  0
    6.9981    2.3399   24.7349 C   0  0  0  0  0  0  0  0  0  0  0  0
    7.3217    3.1742   24.1150 H   0  0  0  0  0  0  0  0  0  0  0  0
    8.2005   -1.2362   22.9094 N   0  0  0  0  0  0  0  0  0  0  0  0
  1  2  1  0
  2  3  1  0
  3  4  2  0
  4  5  1  0
  5  6  2  0
  6  7  1  0
  6  8  1  0
  8  9  2  0
  9 10  1  0
  9 11  1  0
 11 12  1  0
 11 13  2  0
 13 14  1  0
  4 15  1  0
 15 16  1  0
 16 17  1  0
 16 18  1  0
 18 19  2  0
 19 20  1  0
 19 21  1  0
 21 22  1  0
 21 23  2  0
 23 24  1  0
 23 25  1  0
 25 26  1  0
 25 27  2  0
 27 28  1  0
 15 29  1  0
 29  2  2  0
 13  5  1  0
 27 18  1  0
M  END
>  <cnnaffinity>  (1) 
-4.61179

>  <filename>  (1) 
c1ccc(Nn2ncnc2-c2cccnc2)cc1

$$$$
