
     RDKit          3D

 36 38  0  0  0  0  0  0  0  0999 V2000
   10.7858   -0.3137   22.2017 H   0  0  0  0  0  0  0  0  0  0  0  0
    9.7561   -0.6596   22.0946 C   0  0  0  0  0  0  0  0  0  0  0  0
    9.3342   -1.5877   22.9507 N   0  0  0  0  0  0  0  0  0  0  0  0
    8.0807   -2.0134   22.7791 C   0  0  0  0  0  0  0  0  0  0  0  0
    7.7577   -2.8083   23.4575 H   0  0  0  0  0  0  0  0  0  0  0  0
    7.2167   -1.5340   21.7975 C   0  0  0  0  0  0  0  0  0  0  0  0
    5.8723   -2.1874   21.5307 C   0  0  0  0  0  0  0  0  0  0  0  0
    5.5484   -2.7526   22.4096 H   0  0  0  0  0  0  0  0  0  0  0  0
    5.1209   -1.4154   21.3619 H   0  0  0  0  0  0  0  0  0  0  0  0
    5.8658   -3.0621   20.2714 C   0  0  0  0  0  0  0  0  0  0  0  0
    4.8515   -3.2950   19.9448 H   0  0  0  0  0  0  0  0  0  0  0  0
    6.3308   -2.5040   19.4578 H   0  0  0  0  0  0  0  0  0  0  0  0
    6.6282   -4.2507   20.3501 O   0  0  0  0  0  0  0  0  0  0  0  0
    6.2936   -5.2560   21.2009 C   0  0  0  0  0  0  0  0  0  0  0  0
    5.0306   -5.4559   21.7684 C   0  0  0  0  0  0  0  0  0  0  0  0
    4.2706   -4.6890   21.6546 H   0  0  0  0  0  0  0  0  0  0  0  0
    4.8009   -6.6206   22.5126 C   0  0  0  0  0  0  0  0  0  0  0  0
    3.8071   -6.8250   22.9118 H   0  0  0  0  0  0  0  0  0  0  0  0
    5.8423   -7.5182   22.7636 C   0  0  0  0  0  0  0  0  0  0  0  0
    5.6489   -8.4079   23.3518 H   0  0  0  0  0  0  0  0  0  0  0  0
    7.1188   -7.2880   22.2308 C   0  0  0  0  0  0  0  0  0  0  0  0
    7.9504   -7.9567   22.4578 H   0  0  0  0  0  0  0  0  0  0  0  0
    7.3367   -6.1621   21.4457 C   0  0  0  0  0  0  0  0  0  0  0  0
    8.2913   -5.9405   20.9862 H   0  0  0  0  0  0  0  0  0  0  0  0
    7.7675   -0.5054   21.0019 C   0  0  0  0  0  0  0  0  0  0  0  0
    6.9911    0.1795   19.9465 C   0  0  0  0  0  0  0  0  0  0  0  0
    7.5427    0.2125   18.6586 C   0  0  0  0  0  0  0  0  0  0  0  0
    8.5404   -0.1847   18.4756 H   0  0  0  0  0  0  0  0  0  0  0  0
    6.9086    0.6985   17.5877 N   0  0  0  0  0  0  0  0  0  0  0  0
    5.6992    1.2480   17.7843 C   0  0  0  0  0  0  0  0  0  0  0  0
    5.1936    1.6283   16.8988 H   0  0  0  0  0  0  0  0  0  0  0  0
    5.0924    1.3383   19.0394 C   0  0  0  0  0  0  0  0  0  0  0  0
    4.1266    1.8200   19.1398 H   0  0  0  0  0  0  0  0  0  0  0  0
    5.7494    0.8005   20.1469 C   0  0  0  0  0  0  0  0  0  0  0  0
    5.3136    0.8780   21.1462 H   0  0  0  0  0  0  0  0  0  0  0  0
    9.0425   -0.1159   21.1129 N   0  0  0  0  0  0  0  0  0  0  0  0
  1  2  1  0
  2  3  2  0
  3  4  1  0
  4  5  1  0
  4  6  2  0
  6  7  1  0
  7  8  1  0
  7  9  1  0
  7 10  1  0
 10 11  1  0
 10 12  1  0
 10 13  1  0
 13 14  1  0
 14 15  2  0
 15 16  1  0
 15 17  1  0
 17 18  1  0
 17 19  2  0
 19 20  1  0
 19 21  1  0
 21 22  1  0
 21 23  2  0
 23 24  1  0
  6 25  1  0
 25 26  1  0
 26 27  2  0
 27 28  1  0
 27 29  1  0
 29 30  2  0
 30 31  1  0
 30 32  1  0
 32 33  1  0
 32 34  2  0
 34 35  1  0
 25 36  2  0
 36  2  1  0
 23 14  1  0
 34 26  1  0
M  END
>  <cnnaffinity>  (1) 
-4.86957

>  <filename>  (1) 
c1ccc(OCCc2cncnc2-c2cccnc2)cc1

$$$$
