
     RDKit          3D

 48 52  0  0  0  0  0  0  0  0999 V2000
    4.9296    1.8145   16.9568 H   0  0  0  0  0  0  0  0  0  0  0  0
    5.3941    1.3168   17.8053 C   0  0  0  0  0  0  0  0  0  0  0  0
    6.5602    0.6999   17.5639 N   0  0  0  0  0  0  0  0  0  0  0  0
    7.1749    0.0977   18.5973 C   0  0  0  0  0  0  0  0  0  0  0  0
    8.1195   -0.3890   18.3358 H   0  0  0  0  0  0  0  0  0  0  0  0
    6.6709    0.0628   19.9118 C   0  0  0  0  0  0  0  0  0  0  0  0
    7.2893   -0.7881   21.0416 C   0  0  2  0  0  0  0  0  0  0  0  0
    6.5051   -2.1406   21.0901 C   0  0  0  0  0  0  0  0  0  0  0  0
    6.2375   -2.8235   19.8845 C   0  0  0  0  0  0  0  0  0  0  0  0
    6.4275   -2.3316   18.9323 H   0  0  0  0  0  0  0  0  0  0  0  0
    5.7473   -4.1280   19.8713 C   0  0  0  0  0  0  0  0  0  0  0  0
    5.6652   -4.6698   18.9372 H   0  0  0  0  0  0  0  0  0  0  0  0
    5.3805   -4.7439   21.0640 C   0  0  0  0  0  0  0  0  0  0  0  0
    4.9302   -5.7342   21.0525 H   0  0  0  0  0  0  0  0  0  0  0  0
    5.5180   -4.0594   22.2775 C   0  0  0  0  0  0  0  0  0  0  0  0
    4.9958   -4.6614   23.5352 C   0  0  0  0  0  0  0  0  0  0  0  0
    5.1455   -6.0359   23.7926 C   0  0  0  0  0  0  0  0  0  0  0  0
    5.6618   -6.6523   23.0605 H   0  0  0  0  0  0  0  0  0  0  0  0
    4.6706   -6.5960   24.9783 C   0  0  0  0  0  0  0  0  0  0  0  0
    4.8147   -7.6570   25.1641 H   0  0  0  0  0  0  0  0  0  0  0  0
    4.0201   -5.7919   25.9212 C   0  0  0  0  0  0  0  0  0  0  0  0
    3.6591   -6.2267   26.8483 H   0  0  0  0  0  0  0  0  0  0  0  0
    3.8435   -4.4252   25.6690 C   0  0  0  0  0  0  0  0  0  0  0  0
    3.3462   -3.7921   26.3999 H   0  0  0  0  0  0  0  0  0  0  0  0
    4.3294   -3.8686   24.4844 C   0  0  0  0  0  0  0  0  0  0  0  0
    4.1987   -2.8083   24.2786 H   0  0  0  0  0  0  0  0  0  0  0  0
    6.1163   -2.7863   22.2760 C   0  0  0  0  0  0  0  0  0  0  0  0
    6.2820   -2.3293   23.2480 H   0  0  0  0  0  0  0  0  0  0  0  0
    7.3216   -0.0110   22.4166 C   0  0  0  0  0  0  0  0  0  0  0  0
    7.0575    1.0414   22.2566 H   0  0  0  0  0  0  0  0  0  0  0  0
    6.5961   -0.4059   23.1342 H   0  0  0  0  0  0  0  0  0  0  0  0
    8.7814   -0.1130   22.9303 C   0  0  2  0  0  0  0  0  0  0  0  0
    8.8679    0.0144   24.0135 H   0  0  0  0  0  0  0  0  0  0  0  0
    9.6337    0.8913   22.1186 C   0  0  0  0  0  0  0  0  0  0  0  0
   10.6414    1.0230   22.5416 H   0  0  0  0  0  0  0  0  0  0  0  0
    9.1710    1.8843   22.0967 H   0  0  0  0  0  0  0  0  0  0  0  0
    9.6883    0.1913   20.7272 C   0  0  0  0  0  0  0  0  0  0  0  0
    9.3735    0.8070   19.8767 H   0  0  0  0  0  0  0  0  0  0  0  0
   10.7124   -0.1536   20.5565 H   0  0  0  0  0  0  0  0  0  0  0  0
    8.8300   -1.0845   20.9073 C   0  0  1  0  0  0  0  0  0  0  0  0
    9.0397   -1.8313   20.1350 H   0  0  0  0  0  0  0  0  0  0  0  0
    9.2454   -1.4583   22.3451 C   0  0  0  0  0  0  0  0  0  0  0  0
   10.3277   -1.6280   22.4349 H   0  0  0  0  0  0  0  0  0  0  0  0
    8.7370   -2.3400   22.7570 H   0  0  0  0  0  0  0  0  0  0  0  0
    5.4305    0.6943   20.1215 C   0  0  0  0  0  0  0  0  0  0  0  0
    4.9643    0.6651   21.1077 H   0  0  0  0  0  0  0  0  0  0  0  0
    4.7877    1.3397   19.0648 C   0  0  0  0  0  0  0  0  0  0  0  0
    3.8443    1.8616   19.2042 H   0  0  0  0  0  0  0  0  0  0  0  0
  1  2  1  0
  2  3  2  0
  3  4  1  0
  4  5  1  0
  4  6  2  0
  7  6  1  6
  7  8  1  0
  8  9  2  0
  9 10  1  0
  9 11  1  0
 11 12  1  0
 11 13  2  0
 13 14  1  0
 13 15  1  0
 15 16  1  0
 16 17  2  0
 17 18  1  0
 17 19  1  0
 19 20  1  0
 19 21  2  0
 21 22  1  0
 21 23  1  0
 23 24  1  0
 23 25  2  0
 25 26  1  0
 15 27  2  0
 27 28  1  0
  7 29  1  0
 29 30  1  0
 29 31  1  0
 29 32  1  0
 32 33  1  1
 32 34  1  0
 34 35  1  0
 34 36  1  0
 34 37  1  0
 37 38  1  0
 37 39  1  0
 37 40  1  0
 40 41  1  6
 40 42  1  0
 42 43  1  0
 42 44  1  0
  6 45  1  0
 45 46  1  0
 45 47  2  0
 47 48  1  0
 47  2  1  0
 40  7  1  0
 27  8  1  0
 42 32  1  0
 25 16  1  0
M  END
>  <cnnaffinity>  (1) 
-5.44634

>  <filename>  (1) 
c1ccc(-c2cccc([C@@]3(c4cccnc4)C[C@@H]4CC[C@H]3C4)c2)cc1

$$$$
