
     RDKit          3D

 39 41  0  0  0  0  0  0  0  0999 V2000
    4.9342    1.8268   17.0021 H   0  0  0  0  0  0  0  0  0  0  0  0
    5.4051    1.3021   17.8299 C   0  0  0  0  0  0  0  0  0  0  0  0
    6.5612    0.6771   17.5548 N   0  0  0  0  0  0  0  0  0  0  0  0
    7.1698    0.0293   18.5601 C   0  0  0  0  0  0  0  0  0  0  0  0
    8.1112   -0.4656   18.3234 H   0  0  0  0  0  0  0  0  0  0  0  0
    6.6655   -0.0474   19.8842 C   0  0  0  0  0  0  0  0  0  0  0  0
    7.3215   -0.7590   20.9031 N   0  0  0  0  0  0  0  0  0  0  0  0
    6.7610   -0.9755   21.7189 H   0  0  0  0  0  0  0  0  0  0  0  0
    8.7081   -0.7266   21.1427 C   0  0  0  0  0  0  0  0  0  0  0  0
    9.6725    0.2131   20.7069 C   0  0  0  0  0  0  0  0  0  0  0  0
    9.4910    1.0750   20.0843 H   0  0  0  0  0  0  0  0  0  0  0  0
   10.8885   -0.0605   21.1735 N   0  0  0  0  0  0  0  0  0  0  0  0
   10.7084   -1.1685   21.9079 N   0  0  0  0  0  0  0  0  0  0  0  0
   11.5109   -1.5894   22.3571 H   0  0  0  0  0  0  0  0  0  0  0  0
    9.4198   -1.6140   21.9330 C   0  0  0  0  0  0  0  0  0  0  0  0
    8.9861   -2.7490   22.8027 C   0  0  0  0  0  0  0  0  0  0  0  0
    8.0389   -3.1389   22.4092 H   0  0  0  0  0  0  0  0  0  0  0  0
    9.7144   -3.5641   22.7352 H   0  0  0  0  0  0  0  0  0  0  0  0
    8.8130   -2.3339   24.2723 C   0  0  0  0  0  0  0  0  0  0  0  0
    9.7677   -1.9558   24.6588 H   0  0  0  0  0  0  0  0  0  0  0  0
    8.5702   -3.2165   24.8738 H   0  0  0  0  0  0  0  0  0  0  0  0
    7.7339   -1.2612   24.4530 C   0  0  0  0  0  0  0  0  0  0  0  0
    6.7753   -1.6460   24.0650 H   0  0  0  0  0  0  0  0  0  0  0  0
    7.9949   -0.3818   23.8411 H   0  0  0  0  0  0  0  0  0  0  0  0
    7.5375   -0.8275   25.8920 C   0  0  0  0  0  0  0  0  0  0  0  0
    8.2019    0.2927   26.4145 C   0  0  0  0  0  0  0  0  0  0  0  0
    8.9957    0.7862   25.8513 H   0  0  0  0  0  0  0  0  0  0  0  0
    7.8679    0.8081   27.6708 C   0  0  0  0  0  0  0  0  0  0  0  0
    8.3432    1.7271   27.9958 H   0  0  0  0  0  0  0  0  0  0  0  0
    6.9146    0.1630   28.4689 C   0  0  0  0  0  0  0  0  0  0  0  0
    6.6273    0.5539   29.4458 H   0  0  0  0  0  0  0  0  0  0  0  0
    6.3277   -1.0163   28.0039 C   0  0  0  0  0  0  0  0  0  0  0  0
    5.6248   -1.5513   28.6393 H   0  0  0  0  0  0  0  0  0  0  0  0
    6.6386   -1.5040   26.7322 C   0  0  0  0  0  0  0  0  0  0  0  0
    6.1881   -2.4354   26.3939 H   0  0  0  0  0  0  0  0  0  0  0  0
    5.4467    0.5979   20.1415 C   0  0  0  0  0  0  0  0  0  0  0  0
    5.0219    0.5881   21.1455 H   0  0  0  0  0  0  0  0  0  0  0  0
    4.8175    1.2870   19.0997 C   0  0  0  0  0  0  0  0  0  0  0  0
    3.8878    1.8194   19.2598 H   0  0  0  0  0  0  0  0  0  0  0  0
  1  2  1  0
  2  3  2  0
  3  4  1  0
  4  5  1  0
  4  6  2  0
  6  7  1  0
  7  8  1  0
  7  9  1  0
  9 10  1  0
 10 11  1  0
 10 12  2  0
 12 13  1  0
 13 14  1  0
 13 15  1  0
 15 16  1  0
 16 17  1  0
 16 18  1  0
 16 19  1  0
 19 20  1  0
 19 21  1  0
 19 22  1  0
 22 23  1  0
 22 24  1  0
 22 25  1  0
 25 26  2  0
 26 27  1  0
 26 28  1  0
 28 29  1  0
 28 30  2  0
 30 31  1  0
 30 32  1  0
 32 33  1  0
 32 34  2  0
 34 35  1  0
  6 36  1  0
 36 37  1  0
 36 38  2  0
 38 39  1  0
 38  2  1  0
 15  9  2  0
 34 25  1  0
M  END
>  <cnnaffinity>  (1) 
-5.25893

>  <filename>  (1) 
c1ccc(CCCc2[nH]ncc2Nc2cccnc2)cc1

$$$$
