
     RDKit          3D

 31 33  0  0  0  0  0  0  0  0999 V2000
    4.9826    1.8289   17.0494 H   0  0  0  0  0  0  0  0  0  0  0  0
    5.4651    1.2760   17.8558 C   0  0  0  0  0  0  0  0  0  0  0  0
    6.6107    0.6396   17.5582 N   0  0  0  0  0  0  0  0  0  0  0  0
    7.2221   -0.0494   18.5370 C   0  0  0  0  0  0  0  0  0  0  0  0
    8.1430   -0.5541   18.2564 H   0  0  0  0  0  0  0  0  0  0  0  0
    6.7366   -0.1566   19.8699 C   0  0  0  0  0  0  0  0  0  0  0  0
    7.3798   -0.9225   20.8840 N   0  0  0  0  0  0  0  0  0  0  0  0
    8.6763   -0.7816   21.4023 C   0  0  0  0  0  0  0  0  0  0  0  0
    9.8141    0.4564   20.8040 S   0  0  0  0  0  0  0  0  0  0  0  0
    9.3309    1.8200   21.8679 C   0  0  0  0  0  0  0  0  0  0  0  0
   10.0358    2.0875   23.0499 C   0  0  0  0  0  0  0  0  0  0  0  0
   10.8691    1.4558   23.3554 H   0  0  0  0  0  0  0  0  0  0  0  0
    9.6843    3.1983   23.8244 C   0  0  0  0  0  0  0  0  0  0  0  0
   10.2356    3.4027   24.7377 H   0  0  0  0  0  0  0  0  0  0  0  0
    8.6512    4.0493   23.4151 C   0  0  0  0  0  0  0  0  0  0  0  0
    8.4158    4.9361   23.9988 H   0  0  0  0  0  0  0  0  0  0  0  0
    7.9260    3.7582   22.2532 C   0  0  0  0  0  0  0  0  0  0  0  0
    7.1269    4.4162   21.9174 H   0  0  0  0  0  0  0  0  0  0  0  0
    8.2498    2.6272   21.4971 C   0  0  0  0  0  0  0  0  0  0  0  0
    7.6746    2.3584   20.6117 H   0  0  0  0  0  0  0  0  0  0  0  0
    8.9789   -1.5338   22.3834 N   0  0  0  0  0  0  0  0  0  0  0  0
    7.7904   -2.3154   22.7156 C   0  0  0  0  0  0  0  0  0  0  0  0
    7.5728   -2.2300   23.7887 H   0  0  0  0  0  0  0  0  0  0  0  0
    7.9497   -3.3777   22.4849 H   0  0  0  0  0  0  0  0  0  0  0  0
    6.6447   -1.7104   21.8813 C   0  0  0  0  0  0  0  0  0  0  0  0
    5.9902   -2.4606   21.4241 H   0  0  0  0  0  0  0  0  0  0  0  0
    6.0410   -1.0412   22.5059 H   0  0  0  0  0  0  0  0  0  0  0  0
    5.5418    0.5241   20.1482 C   0  0  0  0  0  0  0  0  0  0  0  0
    5.1436    0.5119   21.1610 H   0  0  0  0  0  0  0  0  0  0  0  0
    4.8984    1.2396   19.1326 C   0  0  0  0  0  0  0  0  0  0  0  0
    3.9736    1.7699   19.3268 H   0  0  0  0  0  0  0  0  0  0  0  0
  1  2  1  0
  2  3  2  0
  3  4  1  0
  4  5  1  0
  4  6  2  0
  6  7  1  0
  7  8  1  0
  8  9  1  0
  9 10  1  0
 10 11  2  0
 11 12  1  0
 11 13  1  0
 13 14  1  0
 13 15  2  0
 15 16  1  0
 15 17  1  0
 17 18  1  0
 17 19  2  0
 19 20  1  0
  8 21  2  0
 21 22  1  0
 22 23  1  0
 22 24  1  0
 22 25  1  0
 25 26  1  0
 25 27  1  0
  6 28  1  0
 28 29  1  0
 28 30  2  0
 30 31  1  0
 30  2  1  0
 25  7  1  0
 19 10  1  0
M  END
>  <cnnaffinity>  (1) 
-4.82827

>  <filename>  (1) 
c1ccc(SC2=NCCN2c2cccnc2)cc1

$$$$
