
     RDKit          3D

 44 46  0  0  0  0  0  0  0  0999 V2000
    4.9189    1.8291   16.9755 H   0  0  0  0  0  0  0  0  0  0  0  0
    5.3836    1.3014   17.8103 C   0  0  0  0  0  0  0  0  0  0  0  0
    6.5337    0.6675   17.5417 N   0  0  0  0  0  0  0  0  0  0  0  0
    7.1437    0.0372   18.5549 C   0  0  0  0  0  0  0  0  0  0  0  0
    8.0957   -0.4351   18.2983 H   0  0  0  0  0  0  0  0  0  0  0  0
    6.6543   -0.0264   19.8756 C   0  0  0  0  0  0  0  0  0  0  0  0
    7.4130   -0.7290   20.9938 C   0  0  0  0  0  0  0  0  0  0  0  0
    8.0281   -1.5330   20.5737 H   0  0  0  0  0  0  0  0  0  0  0  0
    6.6934   -1.2223   21.6595 H   0  0  0  0  0  0  0  0  0  0  0  0
    8.3433    0.1507   21.9042 C   0  0  1  0  0  0  0  0  0  0  0  0
    7.6251    1.1882   22.6434 N   0  0  0  0  0  0  0  0  0  0  0  0
    7.1759    1.8034   21.9627 H   0  0  0  0  0  0  0  0  0  0  0  0
    6.6940    0.7327   23.6630 C   0  0  0  0  0  0  0  0  0  0  0  0
    5.8720    0.1214   23.2523 H   0  0  0  0  0  0  0  0  0  0  0  0
    7.2369    0.0906   24.3729 H   0  0  0  0  0  0  0  0  0  0  0  0
    6.1298    1.9297   24.4206 C   0  0  0  0  0  0  0  0  0  0  0  0
    6.9705    2.5160   24.8085 H   0  0  0  0  0  0  0  0  0  0  0  0
    5.5981    2.5770   23.7089 H   0  0  0  0  0  0  0  0  0  0  0  0
    5.1936    1.4930   25.5257 C   0  0  0  0  0  0  0  0  0  0  0  0
    3.8372    1.2880   25.2415 C   0  0  0  0  0  0  0  0  0  0  0  0
    3.4787    1.5769   24.2613 H   0  0  0  0  0  0  0  0  0  0  0  0
    2.9685    0.7644   26.2054 C   0  0  0  0  0  0  0  0  0  0  0  0
    1.9274    0.5791   25.9548 H   0  0  0  0  0  0  0  0  0  0  0  0
    3.4449    0.4784   27.4913 C   0  0  0  0  0  0  0  0  0  0  0  0
    2.7677    0.1037   28.2563 H   0  0  0  0  0  0  0  0  0  0  0  0
    4.7944    0.6965   27.7970 C   0  0  0  0  0  0  0  0  0  0  0  0
    5.1680    0.4885   28.7980 H   0  0  0  0  0  0  0  0  0  0  0  0
    5.6644    1.1866   26.8132 C   0  0  0  0  0  0  0  0  0  0  0  0
    6.7151    1.3408   27.0459 H   0  0  0  0  0  0  0  0  0  0  0  0
    9.1769   -0.7624   22.8490 C   0  0  0  0  0  0  0  0  0  0  0  0
    9.4520   -0.1419   23.7179 H   0  0  0  0  0  0  0  0  0  0  0  0
    8.5887   -1.6170   23.2167 H   0  0  0  0  0  0  0  0  0  0  0  0
   10.3484   -1.2200   22.0805 N   0  0  0  0  0  0  0  0  0  0  0  0
   11.1728   -1.2791   22.6665 H   0  0  0  0  0  0  0  0  0  0  0  0
   10.5290   -0.2819   20.9656 C   0  0  0  0  0  0  0  0  0  0  0  0
   11.5539    0.1045   20.9202 H   0  0  0  0  0  0  0  0  0  0  0  0
   10.3169   -0.7892   20.0215 H   0  0  0  0  0  0  0  0  0  0  0  0
    9.4699    0.8146   21.1084 C   0  0  0  0  0  0  0  0  0  0  0  0
    9.8297    1.6918   21.6590 H   0  0  0  0  0  0  0  0  0  0  0  0
    9.0959    1.1460   20.1368 H   0  0  0  0  0  0  0  0  0  0  0  0
    5.4378    0.6339   20.1170 C   0  0  0  0  0  0  0  0  0  0  0  0
    5.0057    0.6350   21.1202 H   0  0  0  0  0  0  0  0  0  0  0  0
    4.7912    1.3096   19.0745 C   0  0  0  0  0  0  0  0  0  0  0  0
    3.8653    1.8569   19.2324 H   0  0  0  0  0  0  0  0  0  0  0  0
  1  2  1  0
  2  3  2  0
  3  4  1  0
  4  5  1  0
  4  6  2  0
  6  7  1  0
  7  8  1  0
  7  9  1  0
  7 10  1  0
 10 11  1  1
 11 12  1  0
 11 13  1  0
 13 14  1  0
 13 15  1  0
 13 16  1  0
 16 17  1  0
 16 18  1  0
 16 19  1  0
 19 20  2  0
 20 21  1  0
 20 22  1  0
 22 23  1  0
 22 24  2  0
 24 25  1  0
 24 26  1  0
 26 27  1  0
 26 28  2  0
 28 29  1  0
 10 30  1  0
 30 31  1  0
 30 32  1  0
 30 33  1  0
 33 34  1  0
 33 35  1  0
 35 36  1  0
 35 37  1  0
 35 38  1  0
 38 39  1  0
 38 40  1  0
  6 41  1  0
 41 42  1  0
 41 43  2  0
 43 44  1  0
 43  2  1  0
 38 10  1  0
 28 19  1  0
M  END
>  <cnnaffinity>  (1) 
-4.53297

>  <filename>  (1) 
c1ccc(CCN[C@@]2(Cc3cccnc3)CCNC2)cc1

$$$$
