
     RDKit          3D

 36 38  0  0  0  0  0  0  0  0999 V2000
    5.0988    1.8032   16.9548 H   0  0  0  0  0  0  0  0  0  0  0  0
    5.4804    1.2691   17.8209 C   0  0  0  0  0  0  0  0  0  0  0  0
    6.6084    0.5651   17.6362 N   0  0  0  0  0  0  0  0  0  0  0  0
    7.1051   -0.0751   18.7020 C   0  0  0  0  0  0  0  0  0  0  0  0
    8.0138   -0.6526   18.5313 H   0  0  0  0  0  0  0  0  0  0  0  0
    6.5284   -0.0604   19.9858 C   0  0  0  0  0  0  0  0  0  0  0  0
    7.2066   -0.7646   21.0889 C   0  0  0  0  0  0  0  0  0  0  0  0
    8.5460   -0.7922   21.4549 C   0  0  0  0  0  0  0  0  0  0  0  0
    9.6536    0.1124   20.9644 C   0  0  0  0  0  0  0  0  0  0  0  0
    9.6539    0.1231   19.8716 H   0  0  0  0  0  0  0  0  0  0  0  0
   10.6340   -0.2811   21.2570 H   0  0  0  0  0  0  0  0  0  0  0  0
    9.5200    1.5693   21.4399 C   0  0  0  0  0  0  0  0  0  0  0  0
    8.5223    1.9073   21.1331 H   0  0  0  0  0  0  0  0  0  0  0  0
    9.5227    1.6086   22.5396 H   0  0  0  0  0  0  0  0  0  0  0  0
   10.5171    2.4561   20.8479 N   0  0  0  0  0  0  0  0  0  0  0  0
   10.1121    3.2387   20.3479 H   0  0  0  0  0  0  0  0  0  0  0  0
   11.7091    2.8643   21.4415 C   0  0  0  0  0  0  0  0  0  0  0  0
   12.3731    4.0007   20.9322 C   0  0  0  0  0  0  0  0  0  0  0  0
   12.0105    4.4661   20.0213 H   0  0  0  0  0  0  0  0  0  0  0  0
   13.5196    4.4892   21.5486 C   0  0  0  0  0  0  0  0  0  0  0  0
   14.0083    5.3781   21.1526 H   0  0  0  0  0  0  0  0  0  0  0  0
   14.0754    3.8083   22.6356 C   0  0  0  0  0  0  0  0  0  0  0  0
   14.9735    4.2140   23.0852 H   0  0  0  0  0  0  0  0  0  0  0  0
   13.4815    2.6269   23.0868 C   0  0  0  0  0  0  0  0  0  0  0  0
   13.9441    2.0448   23.8833 H   0  0  0  0  0  0  0  0  0  0  0  0
   12.2988    2.1638   22.5040 C   0  0  0  0  0  0  0  0  0  0  0  0
   11.8302    1.2501   22.8505 H   0  0  0  0  0  0  0  0  0  0  0  0
    8.5890   -1.7467   22.4999 C   0  0  0  0  0  0  0  0  0  0  0  0
    9.4495   -2.0869   23.0576 H   0  0  0  0  0  0  0  0  0  0  0  0
    7.3937   -2.2460   22.7892 N   0  0  0  0  0  0  0  0  0  0  0  0
    6.5713   -1.6218   21.9318 N   0  0  0  0  0  0  0  0  0  0  0  0
    5.5785   -1.7968   21.9781 H   0  0  0  0  0  0  0  0  0  0  0  0
    5.3248    0.6495   20.1419 C   0  0  0  0  0  0  0  0  0  0  0  0
    4.8211    0.6835   21.1086 H   0  0  0  0  0  0  0  0  0  0  0  0
    4.8050    1.3329   19.0438 C   0  0  0  0  0  0  0  0  0  0  0  0
    3.8997    1.9248   19.1228 H   0  0  0  0  0  0  0  0  0  0  0  0
  1  2  1  0
  2  3  2  0
  3  4  1  0
  4  5  1  0
  4  6  2  0
  6  7  1  0
  7  8  2  0
  8  9  1  0
  9 10  1  0
  9 11  1  0
  9 12  1  0
 12 13  1  0
 12 14  1  0
 12 15  1  0
 15 16  1  0
 15 17  1  0
 17 18  2  0
 18 19  1  0
 18 20  1  0
 20 21  1  0
 20 22  2  0
 22 23  1  0
 22 24  1  0
 24 25  1  0
 24 26  2  0
 26 27  1  0
  8 28  1  0
 28 29  1  0
 28 30  2  0
 30 31  1  0
 31 32  1  0
  6 33  1  0
 33 34  1  0
 33 35  2  0
 35 36  1  0
 35  2  1  0
 31  7  1  0
 26 17  1  0
M  END
>  <cnnaffinity>  (1) 
-5.41435

>  <filename>  (1) 
c1ccc(NCCc2cn[nH]c2-c2cccnc2)cc1

$$$$
