
     RDKit          3D

 44 48  0  0  0  0  0  0  0  0999 V2000
    9.1031    4.7522   26.0606 C   0  0  0  0  0  0  0  0  0  0  0  0
    8.6922    3.4284   26.2589 C   0  0  0  0  0  0  0  0  0  0  0  0
    8.7788    2.4983   25.2211 C   0  0  0  0  0  0  0  0  0  0  0  0
    9.2865    2.8849   23.9705 C   0  0  0  0  0  0  0  0  0  0  0  0
    9.3091    1.9132   22.9164 N   0  0  0  0  0  0  0  0  0  0  0  0
    8.1994    1.1748   22.6370 N   0  0  0  0  0  0  0  0  0  0  0  0
    8.5405    0.5121   21.5515 C   0  0  0  0  0  0  0  0  0  0  0  0
    7.6189   -0.4583   20.8695 C   0  0  0  0  0  0  0  0  0  0  0  0
    6.8064    0.1258   19.7206 C   0  0  0  0  0  0  0  0  0  0  0  0
    5.5949    0.7841   19.9669 C   0  0  0  0  0  0  0  0  0  0  0  0
    4.9014    1.3538   18.8972 C   0  0  0  0  0  0  0  0  0  0  0  0
    5.4447    1.2463   17.6147 C   0  0  0  0  0  0  0  0  0  0  0  0
    6.5976    0.6130   17.3507 N   0  0  0  0  0  0  0  0  0  0  0  0
    7.2509    0.0729   18.3868 C   0  0  0  0  0  0  0  0  0  0  0  0
    8.1865   -0.4357   18.1465 H   0  0  0  0  0  0  0  0  0  0  0  0
    4.9351    1.6830   16.7580 H   0  0  0  0  0  0  0  0  0  0  0  0
    3.9654    1.8813   19.0446 H   0  0  0  0  0  0  0  0  0  0  0  0
    5.2068    0.8457   20.9851 H   0  0  0  0  0  0  0  0  0  0  0  0
    6.9454   -0.8608   21.6336 H   0  0  0  0  0  0  0  0  0  0  0  0
    8.2379   -1.2889   20.5148 H   0  0  0  0  0  0  0  0  0  0  0  0
    9.7987    0.7463   21.1131 N   0  0  0  0  0  0  0  0  0  0  0  0
   10.2837    1.5944   22.0122 C   0  0  0  0  0  0  0  0  0  0  0  0
   11.7241    1.9226   22.0884 C   0  0  0  0  0  0  0  0  0  0  0  0
   12.2062    2.6548   20.8604 C   0  0  0  0  0  0  0  0  0  0  0  0
   12.6036    4.0421   21.0550 C   0  0  0  0  0  0  0  0  0  0  0  0
   12.3563    3.9302   20.9417 C   0  0  0  0  0  0  0  0  0  0  0  0
   12.2140    4.7522   19.9896 H   0  0  0  0  0  0  0  0  0  0  0  0
   11.6962    4.6109   21.7135 H   0  0  0  0  0  0  0  0  0  0  0  0
   13.4169    4.1508   22.4110 H   0  0  0  0  0  0  0  0  0  0  0  0
   14.0967    4.3715   20.6562 H   0  0  0  0  0  0  0  0  0  0  0  0
   11.4528    2.8192   20.1363 H   0  0  0  0  0  0  0  0  0  0  0  0
   12.6460    0.8427   22.6549 C   0  0  0  0  0  0  0  0  0  0  0  0
   12.3774    2.1021   23.4254 C   0  0  0  0  0  0  0  0  0  0  0  0
   11.7390    2.0552   24.3080 H   0  0  0  0  0  0  0  0  0  0  0  0
   13.1807    2.8441   23.4556 H   0  0  0  0  0  0  0  0  0  0  0  0
   13.6385    0.7208   22.2192 H   0  0  0  0  0  0  0  0  0  0  0  0
   12.1864   -0.0909   22.9826 H   0  0  0  0  0  0  0  0  0  0  0  0
    9.6932    4.2143   23.7682 C   0  0  0  0  0  0  0  0  0  0  0  0
    9.6049    5.1380   24.8161 C   0  0  0  0  0  0  0  0  0  0  0  0
    9.9145    6.1669   24.6495 H   0  0  0  0  0  0  0  0  0  0  0  0
   10.0412    4.5488   22.7965 H   0  0  0  0  0  0  0  0  0  0  0  0
    8.4305    1.4770   25.3492 H   0  0  0  0  0  0  0  0  0  0  0  0
    8.2796    3.1203   27.2167 H   0  0  0  0  0  0  0  0  0  0  0  0
    9.0142    5.4823   26.8605 H   0  0  0  0  0  0  0  0  0  0  0  0
  1  2  2  0
  2  3  1  0
  3  4  2  0
  4  5  1  0
  5  6  1  0
  6  7  2  0
  7  8  1  0
  8  9  1  0
  9 10  2  0
 10 11  1  0
 11 12  2  0
 12 13  1  0
 13 14  2  0
 14 15  1  0
 12 16  1  0
 11 17  1  0
 10 18  1  0
  8 19  1  0
  8 20  1  0
  7 21  1  0
 21 22  2  0
 22 23  1  0
 23 24  1  0
 24 25  1  0
 25 26  1  0
 26 27  1  0
 26 28  1  0
 25 29  1  0
 25 30  1  0
 24 31  1  0
 23 32  1  0
 32 33  1  0
 33 34  1  0
 33 35  1  0
 32 36  1  0
 32 37  1  0
  4 38  1  0
 38 39  2  0
 39 40  1  0
 38 41  1  0
  3 42  1  0
  2 43  1  0
  1 44  1  0
 39  1  1  0
 22  5  1  0
 33 23  1  0
 14  9  1  0
 26 24  1  0
M  END
>  <cnnaffinity>  (1) 
-5.7904

>  <filename>  (1) 
c1ccc(-n2nc(Cc3cccnc3)nc2C2(C3CC3)CC2)cc1

$$$$
