
     RDKit          3D

 37 40  0  0  0  0  0  0  0  0999 V2000
    4.9040    1.5847   17.0455 H   0  0  0  0  0  0  0  0  0  0  0  0
    5.4410    1.1705   17.8960 C   0  0  0  0  0  0  0  0  0  0  0  0
    6.6294    0.6041   17.6345 N   0  0  0  0  0  0  0  0  0  0  0  0
    7.3074    0.0832   18.6642 C   0  0  0  0  0  0  0  0  0  0  0  0
    8.2915   -0.3242   18.4425 H   0  0  0  0  0  0  0  0  0  0  0  0
    6.8538    0.0621   20.0148 C   0  0  0  0  0  0  0  0  0  0  0  0
    7.6347   -0.4587   21.0365 N   0  0  0  0  0  0  0  0  0  0  0  0
    8.4989   -1.6589   20.9167 C   0  0  0  0  0  0  0  0  0  0  0  0
    9.4048   -1.4426   20.3429 H   0  0  0  0  0  0  0  0  0  0  0  0
    7.9577   -2.4943   20.4609 H   0  0  0  0  0  0  0  0  0  0  0  0
    8.7954   -2.0017   22.4026 C   0  0  2  0  0  0  0  0  0  0  0  0
    9.6971   -2.5937   22.5499 H   0  0  0  0  0  0  0  0  0  0  0  0
    7.5931   -2.6540   22.9461 N   0  0  0  0  0  0  0  0  0  0  0  0
    7.5569   -3.8564   24.1336 S   0  0  0  0  0  0  0  0  0  0  0  0
    6.1985   -4.8933   23.5219 C   0  0  0  0  0  0  0  0  0  0  0  0
    6.4636   -5.9208   22.6093 C   0  0  0  0  0  0  0  0  0  0  0  0
    7.4934   -6.1828   22.3846 H   0  0  0  0  0  0  0  0  0  0  0  0
    5.3891   -6.5824   22.0020 C   0  0  0  0  0  0  0  0  0  0  0  0
    5.5830   -7.3379   21.2519 H   0  0  0  0  0  0  0  0  0  0  0  0
    4.0717   -6.2606   22.3406 C   0  0  0  0  0  0  0  0  0  0  0  0
    3.2510   -6.7713   21.8470 H   0  0  0  0  0  0  0  0  0  0  0  0
    3.8115   -5.2753   23.2967 C   0  0  0  0  0  0  0  0  0  0  0  0
    2.7875   -5.0285   23.5660 H   0  0  0  0  0  0  0  0  0  0  0  0
    4.8782   -4.6075   23.9047 C   0  0  0  0  0  0  0  0  0  0  0  0
    4.7009   -3.8751   24.6864 H   0  0  0  0  0  0  0  0  0  0  0  0
    6.5331   -1.6380   22.9125 C   0  0  0  0  0  0  0  0  0  0  0  0
    5.7703   -1.9158   22.1759 H   0  0  0  0  0  0  0  0  0  0  0  0
    6.0676   -1.5239   23.8954 H   0  0  0  0  0  0  0  0  0  0  0  0
    7.3062   -0.3671   22.4639 C   0  0  1  0  0  0  0  0  0  0  0  0
    6.8267    0.5784   22.7199 H   0  0  0  0  0  0  0  0  0  0  0  0
    8.6950   -0.6237   23.0624 C   0  0  0  0  0  0  0  0  0  0  0  0
    8.7091   -0.6790   24.1518 H   0  0  0  0  0  0  0  0  0  0  0  0
    9.4352    0.1005   22.7139 H   0  0  0  0  0  0  0  0  0  0  0  0
    5.6050    0.6762   20.2552 C   0  0  0  0  0  0  0  0  0  0  0  0
    5.2140    0.7307   21.2698 H   0  0  0  0  0  0  0  0  0  0  0  0
    4.8963    1.2262   19.1855 C   0  0  0  0  0  0  0  0  0  0  0  0
    3.9329    1.7008   19.3404 H   0  0  0  0  0  0  0  0  0  0  0  0
  1  2  1  0
  2  3  2  0
  3  4  1  0
  4  5  1  0
  4  6  2  0
  6  7  1  0
  7  8  1  0
  8  9  1  0
  8 10  1  0
  8 11  1  0
 11 12  1  6
 11 13  1  0
 13 14  1  0
 14 15  1  0
 15 16  2  0
 16 17  1  0
 16 18  1  0
 18 19  1  0
 18 20  2  0
 20 21  1  0
 20 22  1  0
 22 23  1  0
 22 24  2  0
 24 25  1  0
 13 26  1  0
 26 27  1  0
 26 28  1  0
 26 29  1  0
 29 30  1  6
 29 31  1  0
 31 32  1  0
 31 33  1  0
  6 34  1  0
 34 35  1  0
 34 36  2  0
 36 37  1  0
 36  2  1  0
 29  7  1  0
 31 11  1  0
 24 15  1  0
M  END
>  <cnnaffinity>  (1) 
-5.19053

>  <filename>  (1) 
c1ccc(SN2C[C@H]3C[C@@H]2CN3c2cccnc2)cc1

$$$$
