
     RDKit          3D

 39 41  0  0  0  0  0  0  0  0999 V2000
    2.6198   -4.7290   23.1585 H   0  0  0  0  0  0  0  0  0  0  0  0
    3.5516   -4.9587   22.6431 C   0  0  0  0  0  0  0  0  0  0  0  0
    4.2115   -3.9270   22.0906 N   0  0  0  0  0  0  0  0  0  0  0  0
    5.3782   -4.1814   21.4828 C   0  0  0  0  0  0  0  0  0  0  0  0
    6.1165   -3.0366   20.8147 C   0  0  0  0  0  0  0  0  0  0  0  0
    6.9451   -3.4729   20.2551 H   0  0  0  0  0  0  0  0  0  0  0  0
    5.4689   -2.5704   20.0679 H   0  0  0  0  0  0  0  0  0  0  0  0
    6.6453   -1.9396   21.7621 C   0  0  1  0  0  0  0  0  0  0  0  0
    5.7699   -1.4578   22.2010 H   0  0  0  0  0  0  0  0  0  0  0  0
    7.4795   -2.5285   22.9190 C   0  0  0  0  0  0  0  0  0  0  0  0
    6.8911   -3.2991   23.4391 H   0  0  0  0  0  0  0  0  0  0  0  0
    8.3632   -3.0336   22.4920 H   0  0  0  0  0  0  0  0  0  0  0  0
    7.9374   -1.4429   23.9048 C   0  0  0  0  0  0  0  0  0  0  0  0
    8.5394   -1.8869   24.7065 H   0  0  0  0  0  0  0  0  0  0  0  0
    7.0582   -0.9958   24.3980 H   0  0  0  0  0  0  0  0  0  0  0  0
    8.7336   -0.3448   23.1862 C   0  0  0  0  0  0  0  0  0  0  0  0
    9.0120    0.4508   23.8880 H   0  0  0  0  0  0  0  0  0  0  0  0
    9.6833   -0.7600   22.8162 H   0  0  0  0  0  0  0  0  0  0  0  0
    7.9358    0.2479   22.0182 C   0  0  0  0  0  0  0  0  0  0  0  0
    8.5317    0.9890   21.4749 H   0  0  0  0  0  0  0  0  0  0  0  0
    7.0654    0.7933   22.4200 H   0  0  0  0  0  0  0  0  0  0  0  0
    7.4344   -0.8231   21.0140 C   0  0  2  0  0  0  0  0  0  0  0  0
    8.3137   -1.3209   20.5663 H   0  0  0  0  0  0  0  0  0  0  0  0
    6.6705   -0.1249   19.8840 C   0  0  0  0  0  0  0  0  0  0  0  0
    7.2000   -0.0439   18.5779 C   0  0  0  0  0  0  0  0  0  0  0  0
    8.1413   -0.5429   18.3453 H   0  0  0  0  0  0  0  0  0  0  0  0
    6.6351    0.6161   17.5572 N   0  0  0  0  0  0  0  0  0  0  0  0
    5.4840    1.2582   17.8012 C   0  0  0  0  0  0  0  0  0  0  0  0
    5.0390    1.7884   16.9604 H   0  0  0  0  0  0  0  0  0  0  0  0
    4.8592    1.2577   19.0532 C   0  0  0  0  0  0  0  0  0  0  0  0
    3.9325    1.8093   19.1901 H   0  0  0  0  0  0  0  0  0  0  0  0
    5.4617    0.5617   20.1061 C   0  0  0  0  0  0  0  0  0  0  0  0
    5.0044    0.5658   21.0965 H   0  0  0  0  0  0  0  0  0  0  0  0
    5.9208   -5.4773   21.4347 C   0  0  0  0  0  0  0  0  0  0  0  0
    6.9024   -5.6300   20.9958 H   0  0  0  0  0  0  0  0  0  0  0  0
    5.2058   -6.5499   21.9686 C   0  0  0  0  0  0  0  0  0  0  0  0
    5.6056   -7.5597   21.9083 H   0  0  0  0  0  0  0  0  0  0  0  0
    3.9747   -6.2876   22.5716 C   0  0  0  0  0  0  0  0  0  0  0  0
    3.3536   -7.0712   23.0005 H   0  0  0  0  0  0  0  0  0  0  0  0
  1  2  1  0
  2  3  2  0
  3  4  1  0
  4  5  1  0
  5  6  1  0
  5  7  1  0
  5  8  1  0
  8  9  1  1
  8 10  1  0
 10 11  1  0
 10 12  1  0
 10 13  1  0
 13 14  1  0
 13 15  1  0
 13 16  1  0
 16 17  1  0
 16 18  1  0
 16 19  1  0
 19 20  1  0
 19 21  1  0
 19 22  1  0
 22 23  1  6
 22 24  1  0
 24 25  2  0
 25 26  1  0
 25 27  1  0
 27 28  2  0
 28 29  1  0
 28 30  1  0
 30 31  1  0
 30 32  2  0
 32 33  1  0
  4 34  2  0
 34 35  1  0
 34 36  1  0
 36 37  1  0
 36 38  2  0
 38 39  1  0
 38  2  1  0
 22  8  1  0
 32 24  1  0
M  END
>  <cnnaffinity>  (1) 
-5.39938

>  <filename>  (1) 
c1ccc(C[C@H]2CCCC[C@@H]2c2cccnc2)nc1

$$$$
