
     RDKit          3D

 42 45  0  0  0  0  0  0  0  0999 V2000
    8.7131   -3.6713   21.4257 H   0  0  0  0  0  0  0  0  0  0  0  0
    8.3986   -2.6561   21.6526 C   0  0  0  0  0  0  0  0  0  0  0  0
    8.6504   -2.2129   22.8810 N   0  0  0  0  0  0  0  0  0  0  0  0
    8.2611   -0.9622   23.1399 C   0  0  0  0  0  0  0  0  0  0  0  0
    8.4813   -0.5733   24.1360 H   0  0  0  0  0  0  0  0  0  0  0  0
    7.6257   -0.1259   22.2118 C   0  0  0  0  0  0  0  0  0  0  0  0
    7.2865    1.2136   22.5061 N   0  0  0  0  0  0  0  0  0  0  0  0
    7.8720    2.3362   21.7816 C   0  0  0  0  0  0  0  0  0  0  0  0
    7.0806    2.9289   21.3025 H   0  0  0  0  0  0  0  0  0  0  0  0
    8.4980    1.9485   20.9735 H   0  0  0  0  0  0  0  0  0  0  0  0
    8.6991    3.2413   22.7193 C   0  0  0  0  0  0  0  0  0  0  0  0
    8.9978    4.1293   22.1544 H   0  0  0  0  0  0  0  0  0  0  0  0
    9.6201    2.6949   22.9800 H   0  0  0  0  0  0  0  0  0  0  0  0
    7.9300    3.6256   23.9151 N   0  0  0  0  0  0  0  0  0  0  0  0
    8.0545    4.8646   24.5252 C   0  0  0  0  0  0  0  0  0  0  0  0
    6.9890    5.3062   25.2128 N   0  0  0  0  0  0  0  0  0  0  0  0
    7.0731    6.5259   25.7521 C   0  0  0  0  0  0  0  0  0  0  0  0
    6.1875    6.8736   26.2789 H   0  0  0  0  0  0  0  0  0  0  0  0
    8.2070    7.3356   25.7120 C   0  0  0  0  0  0  0  0  0  0  0  0
    8.2126    8.3001   26.2026 H   0  0  0  0  0  0  0  0  0  0  0  0
    9.3321    6.8559   25.0373 C   0  0  0  0  0  0  0  0  0  0  0  0
   10.2484    7.4444   24.9810 H   0  0  0  0  0  0  0  0  0  0  0  0
    9.2547    5.6094   24.4274 C   0  0  0  0  0  0  0  0  0  0  0  0
   10.0942    5.1738   23.9037 H   0  0  0  0  0  0  0  0  0  0  0  0
    7.3265    2.4878   24.6253 C   0  0  0  0  0  0  0  0  0  0  0  0
    6.6720    2.8478   25.4207 H   0  0  0  0  0  0  0  0  0  0  0  0
    8.0994    1.8530   25.0929 H   0  0  0  0  0  0  0  0  0  0  0  0
    6.5109    1.6044   23.6709 C   0  0  0  0  0  0  0  0  0  0  0  0
    6.1635    0.7027   24.1840 H   0  0  0  0  0  0  0  0  0  0  0  0
    5.6131    2.1555   23.3523 H   0  0  0  0  0  0  0  0  0  0  0  0
    7.3963   -0.7392   20.9489 C   0  0  0  0  0  0  0  0  0  0  0  0
    6.6529   -0.0155   19.8973 C   0  0  0  0  0  0  0  0  0  0  0  0
    7.1733    0.0375   18.5999 C   0  0  0  0  0  0  0  0  0  0  0  0
    8.1226   -0.4402   18.3652 H   0  0  0  0  0  0  0  0  0  0  0  0
    6.5745    0.6757   17.5906 N   0  0  0  0  0  0  0  0  0  0  0  0
    5.4089    1.2893   17.8470 C   0  0  0  0  0  0  0  0  0  0  0  0
    4.9244    1.7775   17.0036 H   0  0  0  0  0  0  0  0  0  0  0  0
    4.8098    1.3047   19.1104 C   0  0  0  0  0  0  0  0  0  0  0  0
    3.8791    1.8383   19.2596 H   0  0  0  0  0  0  0  0  0  0  0  0
    5.4447    0.6490   20.1614 C   0  0  0  0  0  0  0  0  0  0  0  0
    5.0053    0.6394   21.1637 H   0  0  0  0  0  0  0  0  0  0  0  0
    7.8099   -1.9786   20.6705 N   0  0  0  0  0  0  0  0  0  0  0  0
  1  2  1  0
  2  3  2  0
  3  4  1  0
  4  5  1  0
  4  6  2  0
  6  7  1  0
  7  8  1  0
  8  9  1  0
  8 10  1  0
  8 11  1  0
 11 12  1  0
 11 13  1  0
 11 14  1  0
 14 15  1  0
 15 16  2  0
 16 17  1  0
 17 18  1  0
 17 19  2  0
 19 20  1  0
 19 21  1  0
 21 22  1  0
 21 23  2  0
 23 24  1  0
 14 25  1  0
 25 26  1  0
 25 27  1  0
 25 28  1  0
 28 29  1  0
 28 30  1  0
  6 31  1  0
 31 32  1  0
 32 33  2  0
 33 34  1  0
 33 35  1  0
 35 36  2  0
 36 37  1  0
 36 38  1  0
 38 39  1  0
 38 40  2  0
 40 41  1  0
 31 42  2  0
 42  2  1  0
 28  7  1  0
 40 32  1  0
 23 15  1  0
M  END
>  <cnnaffinity>  (1) 
-5.3475

>  <filename>  (1) 
c1ccc(N2CCN(c3cncnc3-c3cccnc3)CC2)nc1

$$$$
