
     RDKit          3D

 49 54  0  0  0  0  0  0  0  0999 V2000
    6.8237    6.7112   23.0702 C   0  0  0  0  0  0  0  0  0  0  0  0
    8.1787    6.6354   23.4129 C   0  0  0  0  0  0  0  0  0  0  0  0
    8.7544    5.3923   23.6810 C   0  0  0  0  0  0  0  0  0  0  0  0
    7.9984    4.2019   23.6229 C   0  0  0  0  0  0  0  0  0  0  0  0
    8.6045    2.8657   24.0183 C   0  0  0  0  0  0  0  0  0  0  0  0
    8.7000    1.8575   22.9651 N   0  0  0  0  0  0  0  0  0  0  0  0
    7.6295    1.0968   22.6079 N   0  0  0  0  0  0  0  0  0  0  0  0
    8.1438    0.2583   21.7295 C   0  0  0  0  0  0  0  0  0  0  0  0
    7.3226   -0.7231   20.9426 C   0  0  0  0  0  0  0  0  0  0  0  0
    6.5821   -0.0662   19.7846 C   0  0  0  0  0  0  0  0  0  0  0  0
    5.3917    0.6237   20.0374 C   0  0  0  0  0  0  0  0  0  0  0  0
    4.7804    1.3223   18.9953 C   0  0  0  0  0  0  0  0  0  0  0  0
    5.3892    1.3088   17.7373 C   0  0  0  0  0  0  0  0  0  0  0  0
    6.5207    0.6381   17.4667 N   0  0  0  0  0  0  0  0  0  0  0  0
    7.0929   -0.0307   18.4761 C   0  0  0  0  0  0  0  0  0  0  0  0
    8.0135   -0.5688   18.2375 H   0  0  0  0  0  0  0  0  0  0  0  0
    4.9533    1.8577   16.9053 H   0  0  0  0  0  0  0  0  0  0  0  0
    3.8642    1.8801   19.1508 H   0  0  0  0  0  0  0  0  0  0  0  0
    4.9828    0.6135   21.0492 H   0  0  0  0  0  0  0  0  0  0  0  0
    8.0189   -1.4848   20.5803 H   0  0  0  0  0  0  0  0  0  0  0  0
    6.6051   -1.1965   21.6237 H   0  0  0  0  0  0  0  0  0  0  0  0
    9.4744    0.4055   21.5102 N   0  0  0  0  0  0  0  0  0  0  0  0
    9.7888    1.4378   22.2703 C   0  0  0  0  0  0  0  0  0  0  0  0
   11.1105    2.0832   22.3962 C   0  0  0  0  0  0  0  0  0  0  0  0
   12.2516    1.2632   22.6157 C   0  0  0  0  0  0  0  0  0  0  0  0
   13.5107    1.8049   22.7968 C   0  0  0  0  0  0  0  0  0  0  0  0
   13.6208    3.2030   22.6421 C   0  0  0  0  0  0  0  0  0  0  0  0
   14.6640    4.0603   22.6033 N   0  0  0  0  0  0  0  0  0  0  0  0
   14.2532    5.3295   22.4179 N   0  0  0  0  0  0  0  0  0  0  0  0
   12.9699    5.3354   22.3148 N   0  0  0  0  0  0  0  0  0  0  0  0
   12.5205    4.0356   22.4235 C   0  0  0  0  0  0  0  0  0  0  0  0
   11.2379    3.4700   22.3321 C   0  0  0  0  0  0  0  0  0  0  0  0
   10.3878    4.1185   22.2159 H   0  0  0  0  0  0  0  0  0  0  0  0
   15.6440    3.8378   22.6664 H   0  0  0  0  0  0  0  0  0  0  0  0
   14.3690    1.1824   23.0156 H   0  0  0  0  0  0  0  0  0  0  0  0
   12.1191    0.1844   22.6358 H   0  0  0  0  0  0  0  0  0  0  0  0
    9.7058    2.9422   25.0416 C   0  0  0  0  0  0  0  0  0  0  0  0
    8.3989    2.3332   25.4266 C   0  0  0  0  0  0  0  0  0  0  0  0
    8.3956    1.2523   25.5476 H   0  0  0  0  0  0  0  0  0  0  0  0
    7.7374    2.8751   26.0969 H   0  0  0  0  0  0  0  0  0  0  0  0
   10.5706    2.2944   24.9256 H   0  0  0  0  0  0  0  0  0  0  0  0
    9.9148    3.9430   25.4082 H   0  0  0  0  0  0  0  0  0  0  0  0
    6.6591    4.2883   23.2153 C   0  0  0  0  0  0  0  0  0  0  0  0
    6.0715    5.5348   22.9645 C   0  0  0  0  0  0  0  0  0  0  0  0
    5.0234    5.5864   22.6804 H   0  0  0  0  0  0  0  0  0  0  0  0
    6.1010    3.3616   23.0937 H   0  0  0  0  0  0  0  0  0  0  0  0
    9.8092    5.3371   23.9389 H   0  0  0  0  0  0  0  0  0  0  0  0
    8.7915    7.5314   23.4695 H   0  0  0  0  0  0  0  0  0  0  0  0
    6.3647    7.6766   22.8708 H   0  0  0  0  0  0  0  0  0  0  0  0
  1  2  2  0
  2  3  1  0
  3  4  2  0
  4  5  1  0
  5  6  1  0
  6  7  1  0
  7  8  2  0
  8  9  1  0
  9 10  1  0
 10 11  2  0
 11 12  1  0
 12 13  2  0
 13 14  1  0
 14 15  2  0
 15 16  1  0
 13 17  1  0
 12 18  1  0
 11 19  1  0
  9 20  1  0
  9 21  1  0
  8 22  1  0
 22 23  2  0
 23 24  1  0
 24 25  2  0
 25 26  1  0
 26 27  2  0
 27 28  1  0
 28 29  1  0
 29 30  2  0
 30 31  1  0
 31 32  2  0
 32 33  1  0
 28 34  1  0
 26 35  1  0
 25 36  1  0
  5 37  1  0
 37 38  1  0
 38 39  1  0
 38 40  1  0
 37 41  1  0
 37 42  1  0
  4 43  1  0
 43 44  2  0
 44 45  1  0
 43 46  1  0
  3 47  1  0
  2 48  1  0
  1 49  1  0
 44  1  1  0
 38  5  1  0
 23  6  1  0
 32 24  1  0
 15 10  1  0
 31 27  1  0
M  END
>  <cnnaffinity>  (1) 
-6.67211

>  <filename>  (1) 
c1ccc(C2(n3nc(Cc4cccnc4)nc3-c3ccc4[nH]nnc4c3)CC2)cc1

$$$$
