
     RDKit          3D

 42 44  0  0  0  0  0  0  0  0999 V2000
    4.9038    1.8177   16.9651 H   0  0  0  0  0  0  0  0  0  0  0  0
    5.3775    1.3143   17.8081 C   0  0  0  0  0  0  0  0  0  0  0  0
    6.5433    0.7036   17.5414 N   0  0  0  0  0  0  0  0  0  0  0  0
    7.1622    0.0876   18.5596 C   0  0  0  0  0  0  0  0  0  0  0  0
    8.1068   -0.4039   18.3328 H   0  0  0  0  0  0  0  0  0  0  0  0
    6.6609    0.0153   19.8846 C   0  0  0  0  0  0  0  0  0  0  0  0
    7.3513   -0.6887   20.8871 N   0  0  0  0  0  0  0  0  0  0  0  0
    6.6698   -1.5198   21.8736 C   0  0  0  0  0  0  0  0  0  0  0  0
    6.4708   -0.9708   22.8063 H   0  0  0  0  0  0  0  0  0  0  0  0
    5.7143   -1.8499   21.4514 H   0  0  0  0  0  0  0  0  0  0  0  0
    7.5159   -2.7819   22.1892 C   0  0  0  0  0  0  0  0  0  0  0  0
    7.4541   -3.4404   21.3080 H   0  0  0  0  0  0  0  0  0  0  0  0
    7.0676   -3.3050   23.0421 H   0  0  0  0  0  0  0  0  0  0  0  0
    8.9386   -2.5550   22.4795 N   0  0  0  0  0  0  0  0  0  0  0  0
    9.3389   -2.5428   23.8797 C   0  0  0  0  0  0  0  0  0  0  0  0
    8.9253   -3.4445   24.3586 H   0  0  0  0  0  0  0  0  0  0  0  0
   10.4334   -2.6547   23.9099 H   0  0  0  0  0  0  0  0  0  0  0  0
    8.9961   -1.3057   24.7262 C   0  0  0  0  0  0  0  0  0  0  0  0
    9.5153   -1.3777   25.6924 H   0  0  0  0  0  0  0  0  0  0  0  0
    9.3381   -0.3972   24.2215 H   0  0  0  0  0  0  0  0  0  0  0  0
    7.6096   -1.0630   24.9414 O   0  0  0  0  0  0  0  0  0  0  0  0
    6.8633   -1.8707   25.7482 C   0  0  0  0  0  0  0  0  0  0  0  0
    7.3796   -2.8368   26.6162 C   0  0  0  0  0  0  0  0  0  0  0  0
    8.4508   -2.9992   26.6726 H   0  0  0  0  0  0  0  0  0  0  0  0
    6.5027   -3.5736   27.4193 C   0  0  0  0  0  0  0  0  0  0  0  0
    6.9054   -4.3167   28.1032 H   0  0  0  0  0  0  0  0  0  0  0  0
    5.1253   -3.3464   27.3678 C   0  0  0  0  0  0  0  0  0  0  0  0
    4.4562   -3.9078   28.0101 H   0  0  0  0  0  0  0  0  0  0  0  0
    4.6151   -2.3826   26.4906 C   0  0  0  0  0  0  0  0  0  0  0  0
    3.5440   -2.1923   26.4408 H   0  0  0  0  0  0  0  0  0  0  0  0
    5.4780   -1.6496   25.6828 C   0  0  0  0  0  0  0  0  0  0  0  0
    5.1254   -0.8851   24.9984 H   0  0  0  0  0  0  0  0  0  0  0  0
    9.5499   -1.5698   21.5770 C   0  0  0  0  0  0  0  0  0  0  0  0
   10.5272   -1.2707   21.9815 H   0  0  0  0  0  0  0  0  0  0  0  0
    9.7243   -2.0574   20.6049 H   0  0  0  0  0  0  0  0  0  0  0  0
    8.6937   -0.3042   21.3117 C   0  0  0  0  0  0  0  0  0  0  0  0
    8.6563    0.3342   22.2148 H   0  0  0  0  0  0  0  0  0  0  0  0
    9.1585    0.2818   20.5126 H   0  0  0  0  0  0  0  0  0  0  0  0
    5.4341    0.6532   20.1318 C   0  0  0  0  0  0  0  0  0  0  0  0
    5.0302    0.6188   21.1404 H   0  0  0  0  0  0  0  0  0  0  0  0
    4.7925    1.3211   19.0793 C   0  0  0  0  0  0  0  0  0  0  0  0
    3.8592    1.8476   19.2355 H   0  0  0  0  0  0  0  0  0  0  0  0
  1  2  1  0
  2  3  2  0
  3  4  1  0
  4  5  1  0
  4  6  2  0
  6  7  1  0
  7  8  1  0
  8  9  1  0
  8 10  1  0
  8 11  1  0
 11 12  1  0
 11 13  1  0
 11 14  1  0
 14 15  1  0
 15 16  1  0
 15 17  1  0
 15 18  1  0
 18 19  1  0
 18 20  1  0
 18 21  1  0
 21 22  1  0
 22 23  2  0
 23 24  1  0
 23 25  1  0
 25 26  1  0
 25 27  2  0
 27 28  1  0
 27 29  1  0
 29 30  1  0
 29 31  2  0
 31 32  1  0
 14 33  1  0
 33 34  1  0
 33 35  1  0
 33 36  1  0
 36 37  1  0
 36 38  1  0
  6 39  1  0
 39 40  1  0
 39 41  2  0
 41 42  1  0
 41  2  1  0
 36  7  1  0
 31 22  1  0
M  END
>  <cnnaffinity>  (1) 
-4.71505

>  <filename>  (1) 
c1ccc(OCCN2CCN(c3cccnc3)CC2)cc1

$$$$
