
     RDKit          3D

 43 45  0  0  0  0  0  0  0  0999 V2000
    4.9286    1.8588   17.0334 H   0  0  0  0  0  0  0  0  0  0  0  0
    5.4415    1.3306   17.8340 C   0  0  0  0  0  0  0  0  0  0  0  0
    6.5983    0.7301   17.5109 N   0  0  0  0  0  0  0  0  0  0  0  0
    7.2485    0.0629   18.4785 C   0  0  0  0  0  0  0  0  0  0  0  0
    8.1922   -0.4050   18.1902 H   0  0  0  0  0  0  0  0  0  0  0  0
    6.7822   -0.0708   19.8081 C   0  0  0  0  0  0  0  0  0  0  0  0
    7.5121   -0.8336   20.7694 N   0  0  0  0  0  0  0  0  0  0  0  0
    6.7239   -1.5988   21.7413 C   0  0  0  0  0  0  0  0  0  0  0  0
    5.9837   -2.1891   21.1891 H   0  0  0  0  0  0  0  0  0  0  0  0
    6.1820   -0.9602   22.4552 H   0  0  0  0  0  0  0  0  0  0  0  0
    7.6237   -2.5412   22.5391 C   0  0  0  0  0  0  0  0  0  0  0  0
    8.0178   -3.3306   21.8784 H   0  0  0  0  0  0  0  0  0  0  0  0
    7.0514   -3.0178   23.3415 H   0  0  0  0  0  0  0  0  0  0  0  0
    8.6884   -1.8382   23.1641 O   0  0  0  0  0  0  0  0  0  0  0  0
    9.5119   -1.1990   22.1946 C   0  0  0  0  0  0  0  0  0  0  0  0
   10.0138   -1.9580   21.5745 H   0  0  0  0  0  0  0  0  0  0  0  0
   10.2851   -0.6656   22.7601 H   0  0  0  0  0  0  0  0  0  0  0  0
    8.7563   -0.2116   21.2797 C   0  0  2  0  0  0  0  0  0  0  0  0
    9.3970   -0.0549   20.3985 H   0  0  0  0  0  0  0  0  0  0  0  0
    8.5702    1.1841   21.9146 C   0  0  0  0  0  0  0  0  0  0  0  0
    9.5630    1.6509   21.9818 H   0  0  0  0  0  0  0  0  0  0  0  0
    7.9907    1.7949   21.2086 H   0  0  0  0  0  0  0  0  0  0  0  0
    7.9146    1.2102   23.2965 C   0  0  0  0  0  0  0  0  0  0  0  0
    6.9492    0.6846   23.2719 H   0  0  0  0  0  0  0  0  0  0  0  0
    8.5388    0.6519   24.0082 H   0  0  0  0  0  0  0  0  0  0  0  0
    7.6733    2.6398   23.8099 C   0  0  0  0  0  0  0  0  0  0  0  0
    7.3780    2.5693   24.8658 H   0  0  0  0  0  0  0  0  0  0  0  0
    8.6260    3.1921   23.8031 H   0  0  0  0  0  0  0  0  0  0  0  0
    6.6046    3.4032   23.0379 C   0  0  0  0  0  0  0  0  0  0  0  0
    6.9059    4.4980   22.2076 C   0  0  0  0  0  0  0  0  0  0  0  0
    7.9389    4.8071   22.0630 H   0  0  0  0  0  0  0  0  0  0  0  0
    5.8966    5.2132   21.5566 C   0  0  0  0  0  0  0  0  0  0  0  0
    6.1464    6.0519   20.9116 H   0  0  0  0  0  0  0  0  0  0  0  0
    4.5595    4.8429   21.7199 C   0  0  0  0  0  0  0  0  0  0  0  0
    3.7731    5.4079   21.2246 H   0  0  0  0  0  0  0  0  0  0  0  0
    4.2415    3.7411   22.5174 C   0  0  0  0  0  0  0  0  0  0  0  0
    3.2062    3.4491   22.6446 H   0  0  0  0  0  0  0  0  0  0  0  0
    5.2533    3.0127   23.1533 C   0  0  0  0  0  0  0  0  0  0  0  0
    4.9968    2.1449   23.7567 H   0  0  0  0  0  0  0  0  0  0  0  0
    5.5810    0.5932   20.1213 C   0  0  0  0  0  0  0  0  0  0  0  0
    5.2164    0.5767   21.1459 H   0  0  0  0  0  0  0  0  0  0  0  0
    4.8960    1.2924   19.1206 C   0  0  0  0  0  0  0  0  0  0  0  0
    3.9576    1.8000   19.3275 H   0  0  0  0  0  0  0  0  0  0  0  0
  1  2  1  0
  2  3  2  0
  3  4  1  0
  4  5  1  0
  4  6  2  0
  6  7  1  0
  7  8  1  0
  8  9  1  0
  8 10  1  0
  8 11  1  0
 11 12  1  0
 11 13  1  0
 11 14  1  0
 14 15  1  0
 15 16  1  0
 15 17  1  0
 15 18  1  0
 18 19  1  6
 18 20  1  0
 20 21  1  0
 20 22  1  0
 20 23  1  0
 23 24  1  0
 23 25  1  0
 23 26  1  0
 26 27  1  0
 26 28  1  0
 26 29  1  0
 29 30  2  0
 30 31  1  0
 30 32  1  0
 32 33  1  0
 32 34  2  0
 34 35  1  0
 34 36  1  0
 36 37  1  0
 36 38  2  0
 38 39  1  0
  6 40  1  0
 40 41  1  0
 40 42  2  0
 42 43  1  0
 42  2  1  0
 18  7  1  0
 38 29  1  0
M  END
>  <cnnaffinity>  (1) 
-4.97913

>  <filename>  (1) 
c1ccc(CCC[C@H]2COCCN2c2cccnc2)cc1

$$$$
