
     RDKit          3D

 31 33  0  0  0  0  0  0  0  0999 V2000
    4.9306    1.7779   16.9979 H   0  0  0  0  0  0  0  0  0  0  0  0
    5.4066    1.2872   17.8433 C   0  0  0  0  0  0  0  0  0  0  0  0
    6.5689    0.6704   17.5857 N   0  0  0  0  0  0  0  0  0  0  0  0
    7.1788    0.0553   18.6046 C   0  0  0  0  0  0  0  0  0  0  0  0
    8.1245   -0.4270   18.3684 H   0  0  0  0  0  0  0  0  0  0  0  0
    6.6540    0.0122   19.9055 C   0  0  0  0  0  0  0  0  0  0  0  0
    7.3921   -0.7029   20.9441 C   0  0  0  0  0  0  0  0  0  0  0  0
    6.9691   -0.8142   22.2293 N   0  0  0  0  0  0  0  0  0  0  0  0
    7.8616   -1.5099   22.8598 N   0  0  0  0  0  0  0  0  0  0  0  0
    8.7933   -1.7959   21.9795 N   0  0  0  0  0  0  0  0  0  0  0  0
    9.9867   -2.5591   22.3697 C   0  0  0  0  0  0  0  0  0  0  0  0
    9.6617   -3.5617   22.6530 H   0  0  0  0  0  0  0  0  0  0  0  0
   10.5775   -2.6248   21.4552 H   0  0  0  0  0  0  0  0  0  0  0  0
   10.7799   -1.9824   23.4172 N   0  0  0  0  0  0  0  0  0  0  0  0
   10.7334   -2.3933   24.3358 H   0  0  0  0  0  0  0  0  0  0  0  0
   11.3234   -0.7078   23.3682 C   0  0  0  0  0  0  0  0  0  0  0  0
   11.4817   -0.0167   22.1569 C   0  0  0  0  0  0  0  0  0  0  0  0
   11.0808   -0.4545   21.2516 H   0  0  0  0  0  0  0  0  0  0  0  0
   12.1430    1.2165   22.1374 C   0  0  0  0  0  0  0  0  0  0  0  0
   12.2393    1.7522   21.2018 H   0  0  0  0  0  0  0  0  0  0  0  0
   12.6736    1.7683   23.3023 C   0  0  0  0  0  0  0  0  0  0  0  0
   13.1848    2.7292   23.2875 H   0  0  0  0  0  0  0  0  0  0  0  0
   12.5279    1.0698   24.4998 C   0  0  0  0  0  0  0  0  0  0  0  0
   12.9687    1.4599   25.3991 H   0  0  0  0  0  0  0  0  0  0  0  0
   11.8393   -0.1372   24.5506 C   0  0  0  0  0  0  0  0  0  0  0  0
   11.7832   -0.6934   25.4836 H   0  0  0  0  0  0  0  0  0  0  0  0
    8.5507   -1.3309   20.7608 N   0  0  0  0  0  0  0  0  0  0  0  0
    5.4313    0.6550   20.1662 C   0  0  0  0  0  0  0  0  0  0  0  0
    5.0007    0.6365   21.1739 H   0  0  0  0  0  0  0  0  0  0  0  0
    4.8060    1.3086   19.1077 C   0  0  0  0  0  0  0  0  0  0  0  0
    3.8763    1.8418   19.2523 H   0  0  0  0  0  0  0  0  0  0  0  0
  1  2  1  0
  2  3  2  0
  3  4  1  0
  4  5  1  0
  4  6  2  0
  6  7  1  0
  7  8  1  0
  8  9  2  0
  9 10  1  0
 10 11  1  0
 11 12  1  0
 11 13  1  0
 11 14  1  0
 14 15  1  0
 14 16  1  0
 16 17  2  0
 17 18  1  0
 17 19  1  0
 19 20  1  0
 19 21  2  0
 21 22  1  0
 21 23  1  0
 23 24  1  0
 23 25  2  0
 25 26  1  0
 10 27  1  0
  6 28  1  0
 28 29  1  0
 28 30  2  0
 30 31  1  0
 30  2  1  0
 27  7  2  0
 25 16  1  0
M  END
>  <cnnaffinity>  (1) 
-4.90903

>  <filename>  (1) 
c1ccc(NCn2nnc(-c3cccnc3)n2)cc1

$$$$
