
     RDKit          3D

 34 36  0  0  0  0  0  0  0  0999 V2000
    4.9764    1.7964   17.0057 H   0  0  0  0  0  0  0  0  0  0  0  0
    5.4464    1.2811   17.8431 C   0  0  0  0  0  0  0  0  0  0  0  0
    6.6012    0.6449   17.5891 N   0  0  0  0  0  0  0  0  0  0  0  0
    7.2033    0.0024   18.6000 C   0  0  0  0  0  0  0  0  0  0  0  0
    8.1454   -0.4975   18.3744 H   0  0  0  0  0  0  0  0  0  0  0  0
    6.6807   -0.0367   19.9048 C   0  0  0  0  0  0  0  0  0  0  0  0
    7.2400   -0.7354   20.9487 O   0  0  0  0  0  0  0  0  0  0  0  0
    8.5983   -0.7473   21.1317 C   0  0  0  0  0  0  0  0  0  0  0  0
    9.6185    0.1051   20.6577 C   0  0  0  0  0  0  0  0  0  0  0  0
    9.5208    0.9718   20.0219 H   0  0  0  0  0  0  0  0  0  0  0  0
   10.8100   -0.2882   21.1017 N   0  0  0  0  0  0  0  0  0  0  0  0
   10.5446   -1.3607   21.8513 N   0  0  0  0  0  0  0  0  0  0  0  0
   11.3175   -1.8614   22.2740 H   0  0  0  0  0  0  0  0  0  0  0  0
    9.2244   -1.6761   21.9275 C   0  0  0  0  0  0  0  0  0  0  0  0
    8.6641   -2.7805   22.7764 C   0  0  0  0  0  0  0  0  0  0  0  0
    8.3504   -3.6190   22.1407 H   0  0  0  0  0  0  0  0  0  0  0  0
    9.4659   -3.1803   23.4117 H   0  0  0  0  0  0  0  0  0  0  0  0
    7.5178   -2.4181   23.5858 N   0  0  0  0  0  0  0  0  0  0  0  0
    6.7301   -2.1889   22.9844 H   0  0  0  0  0  0  0  0  0  0  0  0
    7.6126   -1.4323   24.5812 C   0  0  0  0  0  0  0  0  0  0  0  0
    8.8190   -0.9562   25.1184 C   0  0  0  0  0  0  0  0  0  0  0  0
    9.7634   -1.3284   24.7371 H   0  0  0  0  0  0  0  0  0  0  0  0
    8.8006    0.0142   26.1287 C   0  0  0  0  0  0  0  0  0  0  0  0
    9.7378    0.3859   26.5368 H   0  0  0  0  0  0  0  0  0  0  0  0
    7.5927    0.5191   26.6180 C   0  0  0  0  0  0  0  0  0  0  0  0
    7.5860    1.2602   27.4130 H   0  0  0  0  0  0  0  0  0  0  0  0
    6.3914    0.0459   26.0795 C   0  0  0  0  0  0  0  0  0  0  0  0
    5.4437    0.4408   26.4329 H   0  0  0  0  0  0  0  0  0  0  0  0
    6.4028   -0.9233   25.0791 C   0  0  0  0  0  0  0  0  0  0  0  0
    5.4782   -1.3193   24.6716 H   0  0  0  0  0  0  0  0  0  0  0  0
    5.4763    0.6175   20.1630 C   0  0  0  0  0  0  0  0  0  0  0  0
    5.0780    0.6043   21.1754 H   0  0  0  0  0  0  0  0  0  0  0  0
    4.8529    1.2873   19.1102 C   0  0  0  0  0  0  0  0  0  0  0  0
    3.9218    1.8159   19.2666 H   0  0  0  0  0  0  0  0  0  0  0  0
  1  2  1  0
  2  3  2  0
  3  4  1  0
  4  5  1  0
  4  6  2  0
  6  7  1  0
  7  8  1  0
  8  9  1  0
  9 10  1  0
  9 11  2  0
 11 12  1  0
 12 13  1  0
 12 14  1  0
 14 15  1  0
 15 16  1  0
 15 17  1  0
 15 18  1  0
 18 19  1  0
 18 20  1  0
 20 21  2  0
 21 22  1  0
 21 23  1  0
 23 24  1  0
 23 25  2  0
 25 26  1  0
 25 27  1  0
 27 28  1  0
 27 29  2  0
 29 30  1  0
  6 31  1  0
 31 32  1  0
 31 33  2  0
 33 34  1  0
 33  2  1  0
 14  8  2  0
 29 20  1  0
M  END
>  <cnnaffinity>  (1) 
-5.38382

>  <filename>  (1) 
c1ccc(NCc2[nH]ncc2Oc2cccnc2)cc1

$$$$
