
     RDKit          3D

 48 51  0  0  0  0  0  0  0  0999 V2000
   12.2974    6.0455   22.8208 H   0  0  0  0  0  0  0  0  0  0  0  0
   12.4423    5.0005   22.7890 C   0  0  0  0  0  0  0  0  0  0  0  0
   11.4258    4.1752   22.8664 N   0  0  0  0  0  0  0  0  0  0  0  0
   11.7864    2.8062   22.6205 C   0  0  0  0  0  0  0  0  0  0  0  0
   10.7564    1.8800   22.5798 N   0  0  0  0  0  0  0  0  0  0  0  0
   10.9758    0.4696   22.1553 C   0  0  0  0  0  0  0  0  0  0  0  0
   11.7261    0.0004   22.8055 H   0  0  0  0  0  0  0  0  0  0  0  0
   11.3462    0.4161   21.1199 H   0  0  0  0  0  0  0  0  0  0  0  0
    9.7021   -0.3980   22.2329 C   0  0  0  0  0  0  0  0  0  0  0  0
    9.9622   -1.3892   21.8582 H   0  0  0  0  0  0  0  0  0  0  0  0
    9.4333   -0.5106   23.2927 H   0  0  0  0  0  0  0  0  0  0  0  0
    8.6101    0.1847   21.4316 N   0  0  0  0  0  0  0  0  0  0  0  0
    7.3918   -0.5778   21.1540 C   0  0  0  0  0  0  0  0  0  0  0  0
    6.6237    0.1302   20.0211 C   0  0  0  0  0  0  0  0  0  0  0  0
    7.2785    0.2549   18.7871 C   0  0  0  0  0  0  0  0  0  0  0  0
    8.2806   -0.1553   18.6552 H   0  0  0  0  0  0  0  0  0  0  0  0
    6.7514    0.8268   17.6945 N   0  0  0  0  0  0  0  0  0  0  0  0
    5.5245    1.3551   17.8097 C   0  0  0  0  0  0  0  0  0  0  0  0
    5.1180    1.8261   16.9180 H   0  0  0  0  0  0  0  0  0  0  0  0
    4.7827    1.3150   18.9921 C   0  0  0  0  0  0  0  0  0  0  0  0
    3.7995    1.7713   19.0313 H   0  0  0  0  0  0  0  0  0  0  0  0
    5.3387    0.6901   20.1129 C   0  0  0  0  0  0  0  0  0  0  0  0
    4.7693    0.6512   21.0431 H   0  0  0  0  0  0  0  0  0  0  0  0
    7.7575   -2.0064   20.6633 C   0  0  0  0  0  0  0  0  0  0  0  0
    7.0370   -2.3068   19.8959 H   0  0  0  0  0  0  0  0  0  0  0  0
    8.7461   -1.9515   20.1958 H   0  0  0  0  0  0  0  0  0  0  0  0
    7.7344   -3.0995   21.7498 C   0  0  0  0  0  0  0  0  0  0  0  0
    6.7533   -3.6066   21.7533 H   0  0  0  0  0  0  0  0  0  0  0  0
    8.4946   -3.8590   21.5545 H   0  0  0  0  0  0  0  0  0  0  0  0
    8.0211   -2.5832   23.0331 O   0  0  0  0  0  0  0  0  0  0  0  0
    7.0807   -1.6274   23.4965 C   0  0  0  0  0  0  0  0  0  0  0  0
    7.6276   -1.0113   24.2161 H   0  0  0  0  0  0  0  0  0  0  0  0
    6.2715   -2.1314   24.0524 H   0  0  0  0  0  0  0  0  0  0  0  0
    6.4814   -0.7750   22.3764 C   0  0  0  0  0  0  0  0  0  0  0  0
    5.6417   -1.3244   21.9423 H   0  0  0  0  0  0  0  0  0  0  0  0
    6.1147    0.1730   22.7752 H   0  0  0  0  0  0  0  0  0  0  0  0
    8.5005    1.6542   21.5578 C   0  0  0  0  0  0  0  0  0  0  0  0
    8.8361    2.1231   20.6219 H   0  0  0  0  0  0  0  0  0  0  0  0
    7.4568    1.9691   21.6910 H   0  0  0  0  0  0  0  0  0  0  0  0
    9.3302    2.2306   22.7175 C   0  0  0  0  0  0  0  0  0  0  0  0
    9.1717    3.3084   22.7640 H   0  0  0  0  0  0  0  0  0  0  0  0
    8.9486    1.8160   23.6651 H   0  0  0  0  0  0  0  0  0  0  0  0
   13.1297    2.5929   22.4593 C   0  0  0  0  0  0  0  0  0  0  0  0
   13.6083    1.6446   22.2720 H   0  0  0  0  0  0  0  0  0  0  0  0
   14.0847    4.7374   22.5774 C   0  0  0  0  0  0  0  0  0  0  0  0
   14.7076    3.9884   23.1929 H   0  0  0  0  0  0  0  0  0  0  0  0
   13.7096    4.5128   22.4544 C   0  0  0  0  0  0  0  0  0  0  0  0
   14.7316    5.6392   22.7006 H   0  0  0  0  0  0  0  0  0  0  0  0
  1  2  1  0
  2  3  2  0
  3  4  1  0
  4  5  1  0
  5  6  1  0
  6  7  1  0
  6  8  1  0
  6  9  1  0
  9 10  1  0
  9 11  1  0
  9 12  1  0
 12 13  1  0
 13 14  1  0
 14 15  2  0
 15 16  1  0
 15 17  1  0
 17 18  2  0
 18 19  1  0
 18 20  1  0
 20 21  1  0
 20 22  2  0
 22 23  1  0
 13 24  1  0
 24 25  1  0
 24 26  1  0
 24 27  1  0
 27 28  1  0
 27 29  1  0
 27 30  1  0
 30 31  1  0
 31 32  1  0
 31 33  1  0
 31 34  1  0
 34 35  1  0
 34 36  1  0
 12 37  1  0
 37 38  1  0
 37 39  1  0
 37 40  1  0
 40 41  1  0
 40 42  1  0
  4 43  2  0
 43 44  1  0
 43 45  1  0
 45 46  1  0
 45 47  2  0
 47 48  1  0
 47  2  1  0
 40  5  1  0
 34 13  1  0
 22 14  1  0
M  END
>  <cnnaffinity>  (1) 
-5.11452

>  <filename>  (1) 
c1ccc(N2CCN(C3(c4cccnc4)CCOCC3)CC2)nc1

$$$$
