
     RDKit          3D

 28 30  0  0  0  0  0  0  0  0999 V2000
    4.9178    1.8025   16.9829 H   0  0  0  0  0  0  0  0  0  0  0  0
    5.3886    1.3021   17.8260 C   0  0  0  0  0  0  0  0  0  0  0  0
    6.5458    0.6752   17.5602 N   0  0  0  0  0  0  0  0  0  0  0  0
    7.1496    0.0362   18.5717 C   0  0  0  0  0  0  0  0  0  0  0  0
    8.1168   -0.4154   18.3669 H   0  0  0  0  0  0  0  0  0  0  0  0
    6.6189   -0.0320   19.8731 C   0  0  0  0  0  0  0  0  0  0  0  0
    7.5003   -0.8389   21.2096 S   0  0  0  0  0  0  0  0  0  0  0  0
    8.8275    0.3152   21.4446 C   0  0  0  0  0  0  0  0  0  0  0  0
    9.8991    0.4333   20.7021 N   0  0  0  0  0  0  0  0  0  0  0  0
   10.6169    1.4572   21.2323 N   0  0  0  0  0  0  0  0  0  0  0  0
   10.0330    1.9609   22.2498 N   0  0  0  0  0  0  0  0  0  0  0  0
    8.8789    1.2662   22.4128 N   0  0  0  0  0  0  0  0  0  0  0  0
    7.6940    1.7108   23.5826 S   0  0  0  0  0  0  0  0  0  0  0  0
    7.2531    3.3435   22.9845 C   0  0  0  0  0  0  0  0  0  0  0  0
    6.0901    3.5598   22.2323 C   0  0  0  0  0  0  0  0  0  0  0  0
    5.4336    2.7270   21.9960 H   0  0  0  0  0  0  0  0  0  0  0  0
    5.8056    4.8366   21.7392 C   0  0  0  0  0  0  0  0  0  0  0  0
    4.8926    4.9910   21.1741 H   0  0  0  0  0  0  0  0  0  0  0  0
    6.6741    5.9044   21.9927 C   0  0  0  0  0  0  0  0  0  0  0  0
    6.4561    6.8894   21.5847 H   0  0  0  0  0  0  0  0  0  0  0  0
    7.8101    5.7013   22.7826 C   0  0  0  0  0  0  0  0  0  0  0  0
    8.4861    6.5257   22.9974 H   0  0  0  0  0  0  0  0  0  0  0  0
    8.0915    4.4286   23.2913 C   0  0  0  0  0  0  0  0  0  0  0  0
    8.9858    4.2395   23.8803 H   0  0  0  0  0  0  0  0  0  0  0  0
    5.4104    0.6196   20.1341 C   0  0  0  0  0  0  0  0  0  0  0  0
    4.9988    0.6047   21.1454 H   0  0  0  0  0  0  0  0  0  0  0  0
    4.7926    1.3136   19.0908 C   0  0  0  0  0  0  0  0  0  0  0  0
    3.8697    1.8539   19.2516 H   0  0  0  0  0  0  0  0  0  0  0  0
  1  2  1  0
  2  3  2  0
  3  4  1  0
  4  5  1  0
  4  6  2  0
  6  7  1  0
  7  8  1  0
  8  9  2  0
  9 10  1  0
 10 11  2  0
 11 12  1  0
 12 13  1  0
 13 14  1  0
 14 15  2  0
 15 16  1  0
 15 17  1  0
 17 18  1  0
 17 19  2  0
 19 20  1  0
 19 21  1  0
 21 22  1  0
 21 23  2  0
 23 24  1  0
  6 25  1  0
 25 26  1  0
 25 27  2  0
 27 28  1  0
 27  2  1  0
 12  8  1  0
 23 14  1  0
M  END
>  <cnnaffinity>  (1) 
-5.0003

>  <filename>  (1) 
c1ccc(Sn2nnnc2Sc2cccnc2)cc1

$$$$
