
     RDKit          3D

 35 37  0  0  0  0  0  0  0  0999 V2000
    4.9484    1.7923   16.9997 H   0  0  0  0  0  0  0  0  0  0  0  0
    5.4121    1.2859   17.8403 C   0  0  0  0  0  0  0  0  0  0  0  0
    6.5731    0.6623   17.5821 N   0  0  0  0  0  0  0  0  0  0  0  0
    7.1713    0.0309   18.5954 C   0  0  0  0  0  0  0  0  0  0  0  0
    8.1173   -0.4525   18.3616 H   0  0  0  0  0  0  0  0  0  0  0  0
    6.6520   -0.0094   19.9003 C   0  0  0  0  0  0  0  0  0  0  0  0
    7.3994   -0.7182   20.9567 C   0  0  0  0  0  0  0  0  0  0  0  0
    8.1078   -1.7864   20.5733 N   0  0  0  0  0  0  0  0  0  0  0  0
    8.7396   -2.4825   21.5202 C   0  0  0  0  0  0  0  0  0  0  0  0
    9.2656   -3.3723   21.1818 H   0  0  0  0  0  0  0  0  0  0  0  0
    8.7588   -2.1236   22.8696 C   0  0  0  0  0  0  0  0  0  0  0  0
    9.3256   -2.7249   23.5731 H   0  0  0  0  0  0  0  0  0  0  0  0
    8.0799   -0.9638   23.2817 C   0  0  0  0  0  0  0  0  0  0  0  0
    8.1412   -0.4672   24.7405 C   0  0  0  0  0  0  0  0  0  0  0  0
    7.7208   -1.2258   25.4094 H   0  0  0  0  0  0  0  0  0  0  0  0
    7.4968    0.4194   24.8250 H   0  0  0  0  0  0  0  0  0  0  0  0
    9.4552   -0.1422   25.2691 N   0  0  0  0  0  0  0  0  0  0  0  0
    9.9587   -0.8578   25.7676 H   0  0  0  0  0  0  0  0  0  0  0  0
   10.2939    0.7967   24.6980 C   0  0  0  0  0  0  0  0  0  0  0  0
   11.6649    0.7364   24.9963 C   0  0  0  0  0  0  0  0  0  0  0  0
   12.0274   -0.0703   25.6272 H   0  0  0  0  0  0  0  0  0  0  0  0
   12.5319    1.7020   24.4964 C   0  0  0  0  0  0  0  0  0  0  0  0
   13.5937    1.6162   24.6946 H   0  0  0  0  0  0  0  0  0  0  0  0
   12.0428    2.7667   23.7284 C   0  0  0  0  0  0  0  0  0  0  0  0
   12.7202    3.5407   23.3868 H   0  0  0  0  0  0  0  0  0  0  0  0
   10.6830    2.8169   23.4014 C   0  0  0  0  0  0  0  0  0  0  0  0
   10.2932    3.6198   22.7738 H   0  0  0  0  0  0  0  0  0  0  0  0
    9.8148    1.8266   23.8700 C   0  0  0  0  0  0  0  0  0  0  0  0
    8.7643    1.8262   23.6009 H   0  0  0  0  0  0  0  0  0  0  0  0
    7.3765   -0.2696   22.2876 C   0  0  0  0  0  0  0  0  0  0  0  0
    6.8325    0.6450   22.5003 H   0  0  0  0  0  0  0  0  0  0  0  0
    5.4357    0.6449   20.1545 C   0  0  0  0  0  0  0  0  0  0  0  0
    4.9914    0.6383   21.1517 H   0  0  0  0  0  0  0  0  0  0  0  0
    4.8067    1.3006   19.1013 C   0  0  0  0  0  0  0  0  0  0  0  0
    3.8774    1.8382   19.2485 H   0  0  0  0  0  0  0  0  0  0  0  0
  1  2  1  0
  2  3  2  0
  3  4  1  0
  4  5  1  0
  4  6  2  0
  6  7  1  0
  7  8  2  0
  8  9  1  0
  9 10  1  0
  9 11  2  0
 11 12  1  0
 11 13  1  0
 13 14  1  0
 14 15  1  0
 14 16  1  0
 14 17  1  0
 17 18  1  0
 17 19  1  0
 19 20  2  0
 20 21  1  0
 20 22  1  0
 22 23  1  0
 22 24  2  0
 24 25  1  0
 24 26  1  0
 26 27  1  0
 26 28  2  0
 28 29  1  0
 13 30  2  0
 30 31  1  0
  6 32  1  0
 32 33  1  0
 32 34  2  0
 34 35  1  0
 34  2  1  0
 30  7  1  0
 28 19  1  0
M  END
>  <cnnaffinity>  (1) 
-5.10331

>  <filename>  (1) 
c1ccc(NCc2ccnc(-c3cccnc3)c2)cc1

$$$$
