
     RDKit          3D

 45 48  0  0  0  0  0  0  0  0999 V2000
    5.0724    1.7705   16.9246 H   0  0  0  0  0  0  0  0  0  0  0  0
    5.4864    1.2875   17.8079 C   0  0  0  0  0  0  0  0  0  0  0  0
    6.6130    0.5841   17.6229 N   0  0  0  0  0  0  0  0  0  0  0  0
    7.1353   -0.0249   18.6963 C   0  0  0  0  0  0  0  0  0  0  0  0
    8.0617   -0.5737   18.5198 H   0  0  0  0  0  0  0  0  0  0  0  0
    6.5850    0.0319   19.9952 C   0  0  0  0  0  0  0  0  0  0  0  0
    7.1994   -0.7242   21.1365 C   0  0  0  0  0  0  0  0  0  0  0  0
    7.4613   -2.0986   20.9872 C   0  0  0  0  0  0  0  0  0  0  0  0
    7.0640   -2.6036   20.1122 H   0  0  0  0  0  0  0  0  0  0  0  0
    8.1789   -2.8102   21.9475 C   0  0  0  0  0  0  0  0  0  0  0  0
    8.3942   -3.8655   21.8019 H   0  0  0  0  0  0  0  0  0  0  0  0
    8.6405   -2.1531   23.0907 C   0  0  0  0  0  0  0  0  0  0  0  0
    9.2502   -2.6860   23.8143 H   0  0  0  0  0  0  0  0  0  0  0  0
    8.3023   -0.8155   23.3085 C   0  0  0  0  0  0  0  0  0  0  0  0
    8.6222   -0.3053   24.2127 H   0  0  0  0  0  0  0  0  0  0  0  0
    7.5402   -0.1083   22.3687 C   0  0  0  0  0  0  0  0  0  0  0  0
    7.1888    1.2486   22.5921 N   0  0  0  0  0  0  0  0  0  0  0  0
    6.6233    1.6899   23.8719 C   0  0  0  0  0  0  0  0  0  0  0  0
    5.9247    0.9364   24.2501 H   0  0  0  0  0  0  0  0  0  0  0  0
    7.4025    1.8489   24.6391 H   0  0  0  0  0  0  0  0  0  0  0  0
    5.8972    3.0262   23.6247 C   0  0  0  0  0  0  0  0  0  0  0  0
    5.1286    2.8465   22.8489 H   0  0  0  0  0  0  0  0  0  0  0  0
    5.3782    3.3742   24.5196 H   0  0  0  0  0  0  0  0  0  0  0  0
    6.8857    4.0221   23.1839 N   0  0  0  0  0  0  0  0  0  0  0  0
    6.5907    5.4147   23.2420 C   0  0  0  0  0  0  0  0  0  0  0  0
    7.6626    6.2920   23.4916 C   0  0  0  0  0  0  0  0  0  0  0  0
    8.6399    5.8364   23.6342 H   0  0  0  0  0  0  0  0  0  0  0  0
    7.4463    7.6738   23.5308 C   0  0  0  0  0  0  0  0  0  0  0  0
    8.2577    8.3683   23.7391 H   0  0  0  0  0  0  0  0  0  0  0  0
    6.1661    8.1817   23.2885 C   0  0  0  0  0  0  0  0  0  0  0  0
    5.9940    9.2528   23.3278 H   0  0  0  0  0  0  0  0  0  0  0  0
    5.1028    7.3199   23.0134 C   0  0  0  0  0  0  0  0  0  0  0  0
    4.1113    7.7282   22.8213 H   0  0  0  0  0  0  0  0  0  0  0  0
    5.3130    5.9379   22.9812 C   0  0  0  0  0  0  0  0  0  0  0  0
    4.5101    5.2531   22.7310 H   0  0  0  0  0  0  0  0  0  0  0  0
    7.4455    3.5856   21.8921 C   0  0  0  0  0  0  0  0  0  0  0  0
    8.1759    4.3214   21.5377 H   0  0  0  0  0  0  0  0  0  0  0  0
    6.6543    3.4887   21.1195 H   0  0  0  0  0  0  0  0  0  0  0  0
    8.1330    2.2279   22.0441 C   0  0  0  0  0  0  0  0  0  0  0  0
    8.4872    1.8853   21.0634 H   0  0  0  0  0  0  0  0  0  0  0  0
    9.0072    2.3485   22.7087 H   0  0  0  0  0  0  0  0  0  0  0  0
    5.4297    0.8064   20.1640 C   0  0  0  0  0  0  0  0  0  0  0  0
    4.9880    0.9124   21.1551 H   0  0  0  0  0  0  0  0  0  0  0  0
    4.8559    1.4197   19.0493 C   0  0  0  0  0  0  0  0  0  0  0  0
    3.9471    2.0050   19.1308 H   0  0  0  0  0  0  0  0  0  0  0  0
  1  2  1  0
  2  3  2  0
  3  4  1  0
  4  5  1  0
  4  6  2  0
  6  7  1  0
  7  8  2  0
  8  9  1  0
  8 10  1  0
 10 11  1  0
 10 12  2  0
 12 13  1  0
 12 14  1  0
 14 15  1  0
 14 16  2  0
 16 17  1  0
 17 18  1  0
 18 19  1  0
 18 20  1  0
 18 21  1  0
 21 22  1  0
 21 23  1  0
 21 24  1  0
 24 25  1  0
 25 26  2  0
 26 27  1  0
 26 28  1  0
 28 29  1  0
 28 30  2  0
 30 31  1  0
 30 32  1  0
 32 33  1  0
 32 34  2  0
 34 35  1  0
 24 36  1  0
 36 37  1  0
 36 38  1  0
 36 39  1  0
 39 40  1  0
 39 41  1  0
  6 42  1  0
 42 43  1  0
 42 44  2  0
 44 45  1  0
 44  2  1  0
 16  7  1  0
 39 17  1  0
 34 25  1  0
M  END
>  <cnnaffinity>  (1) 
-5.23925

>  <filename>  (1) 
c1ccc(N2CCN(c3ccccc3-c3cccnc3)CC2)cc1

$$$$
