
     RDKit          3D

 40 43  0  0  0  0  0  0  0  0999 V2000
    9.0373   -3.0714   22.2309 H   0  0  0  0  0  0  0  0  0  0  0  0
    8.4668   -2.2019   21.9210 C   0  0  0  0  0  0  0  0  0  0  0  0
    8.0965   -1.8696   20.7349 N   0  0  0  0  0  0  0  0  0  0  0  0
    7.3571   -0.7067   20.9308 C   0  0  0  0  0  0  0  0  0  0  0  0
    6.6428   -0.0137   19.8707 C   0  0  0  0  0  0  0  0  0  0  0  0
    7.1623    0.0310   18.5658 C   0  0  0  0  0  0  0  0  0  0  0  0
    8.1129   -0.4480   18.3432 H   0  0  0  0  0  0  0  0  0  0  0  0
    6.5619    0.6703   17.5584 N   0  0  0  0  0  0  0  0  0  0  0  0
    5.4024    1.2964   17.8220 C   0  0  0  0  0  0  0  0  0  0  0  0
    4.9350    1.8043   16.9814 H   0  0  0  0  0  0  0  0  0  0  0  0
    4.8019    1.3142   19.0862 C   0  0  0  0  0  0  0  0  0  0  0  0
    3.8690    1.8473   19.2314 H   0  0  0  0  0  0  0  0  0  0  0  0
    5.4335    0.6545   20.1351 C   0  0  0  0  0  0  0  0  0  0  0  0
    5.0200    0.6503   21.1444 H   0  0  0  0  0  0  0  0  0  0  0  0
    7.3781   -0.3840   22.2644 C   0  0  0  0  0  0  0  0  0  0  0  0
    6.9647    0.7077   22.9744 N   0  0  0  0  0  0  0  0  0  0  0  0
    7.2603    2.0682   22.5307 C   0  0  0  0  0  0  0  0  0  0  0  0
    7.6374    2.0373   21.5025 H   0  0  0  0  0  0  0  0  0  0  0  0
    6.3358    2.6716   22.5581 H   0  0  0  0  0  0  0  0  0  0  0  0
    8.3116    2.7310   23.4542 C   0  0  0  0  0  0  0  0  0  0  0  0
    8.4148    3.7833   23.1602 H   0  0  0  0  0  0  0  0  0  0  0  0
    9.2801    2.2271   23.2893 H   0  0  0  0  0  0  0  0  0  0  0  0
    7.9109    2.6368   24.8622 N   0  0  0  0  0  0  0  0  0  0  0  0
    8.2565    3.6025   25.7899 C   0  0  0  0  0  0  0  0  0  0  0  0
    7.4661    3.6770   26.8690 N   0  0  0  0  0  0  0  0  0  0  0  0
    7.7037    4.6622   27.7351 C   0  0  0  0  0  0  0  0  0  0  0  0
    7.0134    4.7086   28.5773 H   0  0  0  0  0  0  0  0  0  0  0  0
    8.7642    5.5656   27.6317 C   0  0  0  0  0  0  0  0  0  0  0  0
    8.9093    6.2971   28.4180 H   0  0  0  0  0  0  0  0  0  0  0  0
    9.6385    5.4405   26.5428 C   0  0  0  0  0  0  0  0  0  0  0  0
   10.5132    6.0885   26.4389 H   0  0  0  0  0  0  0  0  0  0  0  0
    9.3685    4.4539   25.5971 C   0  0  0  0  0  0  0  0  0  0  0  0
    9.9912    4.2706   24.7311 H   0  0  0  0  0  0  0  0  0  0  0  0
    7.5554    1.2751   25.2989 C   0  0  0  0  0  0  0  0  0  0  0  0
    7.1586    1.3142   26.3177 H   0  0  0  0  0  0  0  0  0  0  0  0
    8.4482    0.6247   25.2925 H   0  0  0  0  0  0  0  0  0  0  0  0
    6.5107    0.6529   24.3563 C   0  0  0  0  0  0  0  0  0  0  0  0
    5.5814    1.2382   24.4309 H   0  0  0  0  0  0  0  0  0  0  0  0
    6.3055   -0.3881   24.6287 H   0  0  0  0  0  0  0  0  0  0  0  0
    8.0767   -1.3622   22.9092 O   0  0  0  0  0  0  0  0  0  0  0  0
  1  2  1  0
  2  3  2  0
  3  4  1  0
  4  5  1  0
  5  6  2  0
  6  7  1  0
  6  8  1  0
  8  9  2  0
  9 10  1  0
  9 11  1  0
 11 12  1  0
 11 13  2  0
 13 14  1  0
  4 15  2  0
 15 16  1  0
 16 17  1  0
 17 18  1  0
 17 19  1  0
 17 20  1  0
 20 21  1  0
 20 22  1  0
 20 23  1  0
 23 24  1  0
 24 25  2  0
 25 26  1  0
 26 27  1  0
 26 28  2  0
 28 29  1  0
 28 30  1  0
 30 31  1  0
 30 32  2  0
 32 33  1  0
 23 34  1  0
 34 35  1  0
 34 36  1  0
 34 37  1  0
 37 38  1  0
 37 39  1  0
 15 40  1  0
 40  2  1  0
 13  5  1  0
 37 16  1  0
 32 24  1  0
M  END
>  <cnnaffinity>  (1) 
-5.27309

>  <filename>  (1) 
c1ccc(N2CCN(c3ocnc3-c3cccnc3)CC2)nc1

$$$$
