
     RDKit          3D

 30 32  0  0  0  0  0  0  0  0999 V2000
    4.9200    1.7782   16.9994 H   0  0  0  0  0  0  0  0  0  0  0  0
    5.4047    1.2912   17.8422 C   0  0  0  0  0  0  0  0  0  0  0  0
    6.5706    0.6773   17.5828 N   0  0  0  0  0  0  0  0  0  0  0  0
    7.1725    0.0466   18.5940 C   0  0  0  0  0  0  0  0  0  0  0  0
    8.1224   -0.4345   18.3746 H   0  0  0  0  0  0  0  0  0  0  0  0
    6.6526   -0.0029   19.8967 C   0  0  0  0  0  0  0  0  0  0  0  0
    7.3789   -0.7003   20.9484 C   0  0  0  0  0  0  0  0  0  0  0  0
    8.1148   -1.8445   20.7430 N   0  0  0  0  0  0  0  0  0  0  0  0
    8.5823   -2.1829   21.9118 C   0  0  0  0  0  0  0  0  0  0  0  0
    9.2154   -3.0376   22.1053 H   0  0  0  0  0  0  0  0  0  0  0  0
    8.2015   -1.3046   22.8843 N   0  0  0  0  0  0  0  0  0  0  0  0
    8.4810   -1.2955   23.8462 H   0  0  0  0  0  0  0  0  0  0  0  0
    7.4552   -0.3307   22.2807 C   0  0  0  0  0  0  0  0  0  0  0  0
    7.0154    0.7861   22.9586 N   0  0  0  0  0  0  0  0  0  0  0  0
    6.9309    1.6180   22.3949 H   0  0  0  0  0  0  0  0  0  0  0  0
    6.6782    0.9183   24.3102 C   0  0  0  0  0  0  0  0  0  0  0  0
    6.2024   -0.1761   25.0451 C   0  0  0  0  0  0  0  0  0  0  0  0
    6.0652   -1.1254   24.5373 H   0  0  0  0  0  0  0  0  0  0  0  0
    5.8954   -0.0274   26.3979 C   0  0  0  0  0  0  0  0  0  0  0  0
    5.5397   -0.8877   26.9548 H   0  0  0  0  0  0  0  0  0  0  0  0
    6.0443    1.2109   27.0270 C   0  0  0  0  0  0  0  0  0  0  0  0
    5.8023    1.3170   28.0807 H   0  0  0  0  0  0  0  0  0  0  0  0
    6.4962    2.3090   26.2865 C   0  0  0  0  0  0  0  0  0  0  0  0
    6.6035    3.2766   26.7677 H   0  0  0  0  0  0  0  0  0  0  0  0
    6.8022    2.1722   24.9294 C   0  0  0  0  0  0  0  0  0  0  0  0
    7.1557    3.0261   24.3552 H   0  0  0  0  0  0  0  0  0  0  0  0
    5.4369    0.6560   20.1569 C   0  0  0  0  0  0  0  0  0  0  0  0
    5.0036    0.6278   21.1607 H   0  0  0  0  0  0  0  0  0  0  0  0
    4.8033    1.3107   19.1065 C   0  0  0  0  0  0  0  0  0  0  0  0
    3.8721    1.8436   19.2589 H   0  0  0  0  0  0  0  0  0  0  0  0
  1  2  1  0
  2  3  2  0
  3  4  1  0
  4  5  1  0
  4  6  2  0
  6  7  1  0
  7  8  1  0
  8  9  2  0
  9 10  1  0
  9 11  1  0
 11 12  1  0
 11 13  1  0
 13 14  1  0
 14 15  1  0
 14 16  1  0
 16 17  2  0
 17 18  1  0
 17 19  1  0
 19 20  1  0
 19 21  2  0
 21 22  1  0
 21 23  1  0
 23 24  1  0
 23 25  2  0
 25 26  1  0
  6 27  1  0
 27 28  1  0
 27 29  2  0
 29 30  1  0
 29  2  1  0
 13  7  2  0
 25 16  1  0
M  END
>  <cnnaffinity>  (1) 
-5.03089

>  <filename>  (1) 
c1ccc(Nc2[nH]cnc2-c2cccnc2)cc1

$$$$
