
     RDKit          3D

 33 35  0  0  0  0  0  0  0  0999 V2000
    4.9595    1.8169   16.8494 H   0  0  0  0  0  0  0  0  0  0  0  0
    5.3866    1.3578   17.7381 C   0  0  0  0  0  0  0  0  0  0  0  0
    6.5586    0.7231   17.5783 N   0  0  0  0  0  0  0  0  0  0  0  0
    7.0990    0.1629   18.6654 C   0  0  0  0  0  0  0  0  0  0  0  0
    8.0402   -0.3575   18.5033 H   0  0  0  0  0  0  0  0  0  0  0  0
    6.5409    0.2025   19.9574 C   0  0  0  0  0  0  0  0  0  0  0  0
    7.2773   -0.4584   21.0535 C   0  0  0  0  0  0  0  0  0  0  0  0
    8.2899   -1.3957   21.0187 C   0  0  0  0  0  0  0  0  0  0  0  0
    8.8261   -1.7633   20.1602 H   0  0  0  0  0  0  0  0  0  0  0  0
    8.5361   -1.7644   22.3572 C   0  0  0  0  0  0  0  0  0  0  0  0
    9.5330   -2.8312   22.7986 C   0  0  0  0  0  0  0  0  0  0  0  0
   10.0695   -3.1118   21.8910 H   0  0  0  0  0  0  0  0  0  0  0  0
   10.2860   -2.3706   23.4456 H   0  0  0  0  0  0  0  0  0  0  0  0
    9.0816   -4.0564   23.4687 N   0  0  0  0  0  0  0  0  0  0  0  0
    9.1631   -4.0215   24.4748 H   0  0  0  0  0  0  0  0  0  0  0  0
    7.9489   -4.7945   23.1113 C   0  0  0  0  0  0  0  0  0  0  0  0
    7.1506   -5.2938   24.1594 C   0  0  0  0  0  0  0  0  0  0  0  0
    7.4377   -5.0735   25.1853 H   0  0  0  0  0  0  0  0  0  0  0  0
    6.0042   -6.0428   23.8963 C   0  0  0  0  0  0  0  0  0  0  0  0
    5.4102   -6.4364   24.7205 H   0  0  0  0  0  0  0  0  0  0  0  0
    5.6443   -6.3313   22.5755 C   0  0  0  0  0  0  0  0  0  0  0  0
    4.7269   -6.8780   22.3692 H   0  0  0  0  0  0  0  0  0  0  0  0
    6.4563   -5.8828   21.5302 C   0  0  0  0  0  0  0  0  0  0  0  0
    6.1829   -6.1209   20.5035 H   0  0  0  0  0  0  0  0  0  0  0  0
    7.5970   -5.1081   21.7857 C   0  0  0  0  0  0  0  0  0  0  0  0
    8.2068   -4.7569   20.9614 H   0  0  0  0  0  0  0  0  0  0  0  0
    7.7953   -1.0333   23.1835 N   0  0  0  0  0  0  0  0  0  0  0  0
    7.0278   -0.2790   22.3824 N   0  0  0  0  0  0  0  0  0  0  0  0
    6.4863    0.4502   22.8165 H   0  0  0  0  0  0  0  0  0  0  0  0
    5.2890    0.8365   20.0882 C   0  0  0  0  0  0  0  0  0  0  0  0
    4.7681    0.8474   21.0470 H   0  0  0  0  0  0  0  0  0  0  0  0
    4.7095    1.4230   18.9618 C   0  0  0  0  0  0  0  0  0  0  0  0
    3.7492    1.9258   19.0219 H   0  0  0  0  0  0  0  0  0  0  0  0
  1  2  1  0
  2  3  2  0
  3  4  1  0
  4  5  1  0
  4  6  2  0
  6  7  1  0
  7  8  2  0
  8  9  1  0
  8 10  1  0
 10 11  1  0
 11 12  1  0
 11 13  1  0
 11 14  1  0
 14 15  1  0
 14 16  1  0
 16 17  2  0
 17 18  1  0
 17 19  1  0
 19 20  1  0
 19 21  2  0
 21 22  1  0
 21 23  1  0
 23 24  1  0
 23 25  2  0
 25 26  1  0
 10 27  2  0
 27 28  1  0
 28 29  1  0
  6 30  1  0
 30 31  1  0
 30 32  2  0
 32 33  1  0
 32  2  1  0
 28  7  1  0
 25 16  1  0
M  END
>  <cnnaffinity>  (1) 
-5.10536

>  <filename>  (1) 
c1ccc(NCc2cc(-c3cccnc3)[nH]n2)cc1

$$$$
