
     RDKit          3D

 49 54  0  0  0  0  0  0  0  0999 V2000
    6.8285    6.6845   23.1538 C   0  0  0  0  0  0  0  0  0  0  0  0
    6.0689    5.5127   23.0509 C   0  0  0  0  0  0  0  0  0  0  0  0
    6.6560    4.2628   23.2856 C   0  0  0  0  0  0  0  0  0  0  0  0
    8.0008    4.1734   23.6754 C   0  0  0  0  0  0  0  0  0  0  0  0
    8.6175    2.8428   24.0611 C   0  0  0  0  0  0  0  0  0  0  0  0
    8.7588    1.8611   22.9938 N   0  0  0  0  0  0  0  0  0  0  0  0
    7.6934    1.1075   22.6176 N   0  0  0  0  0  0  0  0  0  0  0  0
    8.2038    0.2987   21.7094 C   0  0  0  0  0  0  0  0  0  0  0  0
    7.3652   -0.6872   20.9471 C   0  0  0  0  0  0  0  0  0  0  0  0
    6.5970   -0.0507   19.7955 C   0  0  0  0  0  0  0  0  0  0  0  0
    5.3979    0.6279   20.0460 C   0  0  0  0  0  0  0  0  0  0  0  0
    4.7806    1.3224   19.0042 C   0  0  0  0  0  0  0  0  0  0  0  0
    5.3880    1.3080   17.7457 C   0  0  0  0  0  0  0  0  0  0  0  0
    6.5184    0.6360   17.4727 N   0  0  0  0  0  0  0  0  0  0  0  0
    7.0955   -0.0273   18.4819 C   0  0  0  0  0  0  0  0  0  0  0  0
    8.0137   -0.5699   18.2424 H   0  0  0  0  0  0  0  0  0  0  0  0
    4.9529    1.8613   16.9170 H   0  0  0  0  0  0  0  0  0  0  0  0
    3.8616    1.8782   19.1574 H   0  0  0  0  0  0  0  0  0  0  0  0
    4.9775    0.6126   21.0526 H   0  0  0  0  0  0  0  0  0  0  0  0
    6.6615   -1.1360   21.6583 H   0  0  0  0  0  0  0  0  0  0  0  0
    8.0407   -1.4678   20.5805 H   0  0  0  0  0  0  0  0  0  0  0  0
    9.5269    0.4747   21.4763 N   0  0  0  0  0  0  0  0  0  0  0  0
    9.8494    1.4782   22.2782 C   0  0  0  0  0  0  0  0  0  0  0  0
   11.1834    2.1275   22.4215 C   0  0  0  0  0  0  0  0  0  0  0  0
   11.3766    3.5195   22.3996 C   0  0  0  0  0  0  0  0  0  0  0  0
   12.6621    4.0776   22.5664 C   0  0  0  0  0  0  0  0  0  0  0  0
   13.7784    3.3746   22.7705 N   0  0  0  0  0  0  0  0  0  0  0  0
   13.5808    2.0474   22.7657 C   0  0  0  0  0  0  0  0  0  0  0  0
   12.3636    1.3591   22.5833 C   0  0  0  0  0  0  0  0  0  0  0  0
   12.7640   -0.0129   22.5620 C   0  0  0  0  0  0  0  0  0  0  0  0
   14.0621   -0.1584   22.7105 N   0  0  0  0  0  0  0  0  0  0  0  0
   14.5400    1.1019   22.8615 N   0  0  0  0  0  0  0  0  0  0  0  0
   15.5176    1.3306   22.8055 H   0  0  0  0  0  0  0  0  0  0  0  0
   12.1195   -0.8686   22.4151 H   0  0  0  0  0  0  0  0  0  0  0  0
   12.7951    5.1551   22.5391 H   0  0  0  0  0  0  0  0  0  0  0  0
   10.5427    4.1914   22.2466 H   0  0  0  0  0  0  0  0  0  0  0  0
    9.6841    2.9045   25.1167 C   0  0  0  0  0  0  0  0  0  0  0  0
    8.3665    2.2827   25.4492 C   0  0  0  0  0  0  0  0  0  0  0  0
    8.3648    1.1998   25.5399 H   0  0  0  0  0  0  0  0  0  0  0  0
    7.6721    2.8134   26.0965 H   0  0  0  0  0  0  0  0  0  0  0  0
   10.5549    2.2614   25.0065 H   0  0  0  0  0  0  0  0  0  0  0  0
    9.8621    3.8999   25.5113 H   0  0  0  0  0  0  0  0  0  0  0  0
    8.7601    5.3588   23.7373 C   0  0  0  0  0  0  0  0  0  0  0  0
    8.1864    6.6046   23.4820 C   0  0  0  0  0  0  0  0  0  0  0  0
    8.7981    7.5005   23.5455 H   0  0  0  0  0  0  0  0  0  0  0  0
    9.8144    5.2904   23.9915 H   0  0  0  0  0  0  0  0  0  0  0  0
    6.0904    3.3398   23.1677 H   0  0  0  0  0  0  0  0  0  0  0  0
    5.0168    5.5722   22.7835 H   0  0  0  0  0  0  0  0  0  0  0  0
    6.3714    7.6523   22.9640 H   0  0  0  0  0  0  0  0  0  0  0  0
  1  2  2  0
  2  3  1  0
  3  4  2  0
  4  5  1  0
  5  6  1  0
  6  7  1  0
  7  8  2  0
  8  9  1  0
  9 10  1  0
 10 11  2  0
 11 12  1  0
 12 13  2  0
 13 14  1  0
 14 15  2  0
 15 16  1  0
 13 17  1  0
 12 18  1  0
 11 19  1  0
  9 20  1  0
  9 21  1  0
  8 22  1  0
 22 23  2  0
 23 24  1  0
 24 25  2  0
 25 26  1  0
 26 27  2  0
 27 28  1  0
 28 29  2  0
 29 30  1  0
 30 31  2  0
 31 32  1  0
 32 33  1  0
 30 34  1  0
 26 35  1  0
 25 36  1  0
  5 37  1  0
 37 38  1  0
 38 39  1  0
 38 40  1  0
 37 41  1  0
 37 42  1  0
  4 43  1  0
 43 44  2  0
 44 45  1  0
 43 46  1  0
  3 47  1  0
  2 48  1  0
  1 49  1  0
 44  1  1  0
 38  5  1  0
 23  6  1  0
 29 24  1  0
 15 10  1  0
 32 28  1  0
M  END
>  <cnnaffinity>  (1) 
-6.94331

>  <filename>  (1) 
c1ccc(C2(n3nc(Cc4cccnc4)nc3-c3ccnc4[nH]ncc34)CC2)cc1

$$$$
