
     RDKit          3D

 49 54  0  0  0  0  0  0  0  0999 V2000
   14.8657   -0.3499   22.7584 C   0  0  0  0  0  0  0  0  0  0  0  0
   13.7466   -0.9408   21.9664 C   0  0  0  0  0  0  0  0  0  0  0  0
   12.6751   -0.3335   21.8667 C   0  0  0  0  0  0  0  0  0  0  0  0
   11.7334    1.9668   21.5109 C   0  0  0  0  0  0  0  0  0  0  0  0
   11.6983    2.5317   20.9347 C   0  0  0  0  0  0  0  0  0  0  0  0
    9.8750    0.7475   22.3212 N   0  0  0  0  0  0  0  0  0  0  0  0
    9.6612    0.4468   21.0608 N   0  0  0  0  0  0  0  0  0  0  0  0
    8.2761    0.2273   21.6348 C   0  0  0  0  0  0  0  0  0  0  0  0
    7.3905   -0.6970   20.9957 C   0  0  0  0  0  0  0  0  0  0  0  0
    6.6433   -0.0091   19.8850 C   0  0  0  0  0  0  0  0  0  0  0  0
    5.4410    0.6492   20.1503 C   0  0  0  0  0  0  0  0  0  0  0  0
    4.8010    1.3153   19.1052 C   0  0  0  0  0  0  0  0  0  0  0  0
    5.3981    1.2943   17.8405 C   0  0  0  0  0  0  0  0  0  0  0  0
    6.5635    0.6854   17.5717 N   0  0  0  0  0  0  0  0  0  0  0  0
    7.1688    0.0593   18.5879 C   0  0  0  0  0  0  0  0  0  0  0  0
    8.1177   -0.4336   18.3687 H   0  0  0  0  0  0  0  0  0  0  0  0
    4.9084    1.7779   17.0003 H   0  0  0  0  0  0  0  0  0  0  0  0
    3.8693    1.8480   19.2619 H   0  0  0  0  0  0  0  0  0  0  0  0
    5.0149    0.6307   21.1565 H   0  0  0  0  0  0  0  0  0  0  0  0
    6.7138   -1.0368   21.7715 H   0  0  0  0  0  0  0  0  0  0  0  0
    7.9624   -1.5428   20.6092 H   0  0  0  0  0  0  0  0  0  0  0  0
    7.8655    1.1121   22.6438 N   0  0  0  0  0  0  0  0  0  0  0  0
    9.0532    1.7825   22.8342 C   0  0  0  0  0  0  0  0  0  0  0  0
    9.2498    2.8515   23.8512 C   0  0  0  0  0  0  0  0  0  0  0  0
    8.2149    3.6570   24.2611 C   0  0  0  0  0  0  0  0  0  0  0  0
    8.7386    4.5934   25.1789 C   0  0  0  0  0  0  0  0  0  0  0  0
    8.2564    5.5322   26.0585 C   0  0  0  0  0  0  0  0  0  0  0  0
    9.0389    6.1286   26.9900 N   0  0  0  0  0  0  0  0  0  0  0  0
   10.3627    5.9550   26.8103 C   0  0  0  0  0  0  0  0  0  0  0  0
   10.9706    5.3269   25.8247 N   0  0  0  0  0  0  0  0  0  0  0  0
   10.1341    4.4778   25.2071 C   0  0  0  0  0  0  0  0  0  0  0  0
   10.4009    3.2819   24.5480 N   0  0  0  0  0  0  0  0  0  0  0  0
   11.2831    2.7484   24.6374 H   0  0  0  0  0  0  0  0  0  0  0  0
   11.0210    6.3450   27.6306 H   0  0  0  0  0  0  0  0  0  0  0  0
    7.2087    5.7895   25.9866 H   0  0  0  0  0  0  0  0  0  0  0  0
    7.2018    3.6177   23.8972 H   0  0  0  0  0  0  0  0  0  0  0  0
   11.6983    2.5317   20.9348 C   0  0  0  0  0  0  0  0  0  0  0  0
   11.6304    2.5893   21.0048 C   0  0  0  0  0  0  0  0  0  0  0  0
   11.8713    3.4964   19.9340 H   0  0  0  0  0  0  0  0  0  0  0  0
   11.9506    3.0487   20.7862 H   0  0  0  0  0  0  0  0  0  0  0  0
   12.5468    4.0554   20.9449 H   0  0  0  0  0  0  0  0  0  0  0  0
   11.5343    4.0937   21.0314 H   0  0  0  0  0  0  0  0  0  0  0  0
   13.6522    1.5744   23.6309 C   0  0  0  0  0  0  0  0  0  0  0  0
   14.5198    0.7617   23.5811 C   0  0  0  0  0  0  0  0  0  0  0  0
   15.1954    0.6952   21.9593 H   0  0  0  0  0  0  0  0  0  0  0  0
   13.8994    2.6096   24.1043 H   0  0  0  0  0  0  0  0  0  0  0  0
   12.0013   -0.3936   21.0763 H   0  0  0  0  0  0  0  0  0  0  0  0
   14.0870   -1.9210   21.5415 H   0  0  0  0  0  0  0  0  0  0  0  0
   14.9632   -1.2388   23.4719 H   0  0  0  0  0  0  0  0  0  0  0  0
  1  2  2  0
  2  3  1  0
  3  4  2  0
  4  5  1  0
  5  6  1  0
  6  7  1  0
  7  8  2  0
  8  9  1  0
  9 10  1  0
 10 11  2  0
 11 12  1  0
 12 13  2  0
 13 14  1  0
 14 15  2  0
 15 16  1  0
 13 17  1  0
 12 18  1  0
 11 19  1  0
  9 20  1  0
  9 21  1  0
  8 22  1  0
 22 23  2  0
 23 24  1  0
 24 25  2  0
 25 26  1  0
 26 27  2  0
 27 28  1  0
 28 29  2  0
 29 30  1  0
 30 31  2  0
 31 32  1  0
 32 33  1  0
 29 34  1  0
 27 35  1  0
 25 36  1  0
  5 37  1  0
 37 38  1  0
 38 39  1  0
 38 40  1  0
 37 41  1  0
 37 42  1  0
  4 43  1  0
 43 44  2  0
 44 45  1  0
 43 46  1  0
  3 47  1  0
  2 48  1  0
  1 49  1  0
 44  1  1  0
 38  5  1  0
 23  6  1  0
 32 24  1  0
 15 10  1  0
 31 26  1  0
M  END
>  <cnnaffinity>  (1) 
-6.10388

>  <filename>  (1) 
c1ccc(C2(n3nc(Cc4cccnc4)nc3-c3cc4cncnc4[nH]3)CC2)cc1

$$$$
