
     RDKit          3D

 32 34  0  0  0  0  0  0  0  0999 V2000
    4.9111    1.8105   16.9711 H   0  0  0  0  0  0  0  0  0  0  0  0
    5.3826    1.3069   17.8142 C   0  0  0  0  0  0  0  0  0  0  0  0
    6.5420    0.6839   17.5485 N   0  0  0  0  0  0  0  0  0  0  0  0
    7.1533    0.0680   18.5669 C   0  0  0  0  0  0  0  0  0  0  0  0
    8.1106   -0.3928   18.3226 H   0  0  0  0  0  0  0  0  0  0  0  0
    6.6584    0.0157   19.8867 C   0  0  0  0  0  0  0  0  0  0  0  0
    7.4091   -0.6568   20.9653 C   0  0  0  0  0  0  0  0  0  0  0  0
    7.7562   -0.2222   22.2343 C   0  0  0  0  0  0  0  0  0  0  0  0
    7.4555    1.1191   22.8138 C   0  0  0  0  0  0  0  0  0  0  0  0
    6.3800    1.3285   22.8340 H   0  0  0  0  0  0  0  0  0  0  0  0
    7.8087    1.1842   23.8463 H   0  0  0  0  0  0  0  0  0  0  0  0
    8.2612    2.4245   21.8104 S   0  0  0  0  0  0  0  0  0  0  0  0
    7.4029    3.8144   22.5051 C   0  0  0  0  0  0  0  0  0  0  0  0
    7.8685    4.4370   23.6739 C   0  0  0  0  0  0  0  0  0  0  0  0
    8.7868    4.0846   24.1374 H   0  0  0  0  0  0  0  0  0  0  0  0
    7.1367    5.4850   24.2428 C   0  0  0  0  0  0  0  0  0  0  0  0
    7.5005    5.9661   25.1480 H   0  0  0  0  0  0  0  0  0  0  0  0
    5.9407    5.9113   23.6490 C   0  0  0  0  0  0  0  0  0  0  0  0
    5.3789    6.7327   24.0854 H   0  0  0  0  0  0  0  0  0  0  0  0
    5.4728    5.2870   22.4851 C   0  0  0  0  0  0  0  0  0  0  0  0
    4.5452    5.6099   22.0170 H   0  0  0  0  0  0  0  0  0  0  0  0
    6.2045    4.2396   21.9177 C   0  0  0  0  0  0  0  0  0  0  0  0
    5.8493    3.7236   21.0272 H   0  0  0  0  0  0  0  0  0  0  0  0
    8.4972   -1.2854   22.7931 C   0  0  0  0  0  0  0  0  0  0  0  0
    8.9675   -1.3327   23.7719 H   0  0  0  0  0  0  0  0  0  0  0  0
    8.6135   -2.3045   21.9509 N   0  0  0  0  0  0  0  0  0  0  0  0
    7.9614   -1.8944   20.8534 N   0  0  0  0  0  0  0  0  0  0  0  0
    7.8807   -2.5099   20.0547 H   0  0  0  0  0  0  0  0  0  0  0  0
    5.4388    0.6636   20.1347 C   0  0  0  0  0  0  0  0  0  0  0  0
    5.0020    0.6322   21.1342 H   0  0  0  0  0  0  0  0  0  0  0  0
    4.7956    1.3209   19.0850 C   0  0  0  0  0  0  0  0  0  0  0  0
    3.8632    1.8513   19.2384 H   0  0  0  0  0  0  0  0  0  0  0  0
  1  2  1  0
  2  3  2  0
  3  4  1  0
  4  5  1  0
  4  6  2  0
  6  7  1  0
  7  8  2  0
  8  9  1  0
  9 10  1  0
  9 11  1  0
  9 12  1  0
 12 13  1  0
 13 14  2  0
 14 15  1  0
 14 16  1  0
 16 17  1  0
 16 18  2  0
 18 19  1  0
 18 20  1  0
 20 21  1  0
 20 22  2  0
 22 23  1  0
  8 24  1  0
 24 25  1  0
 24 26  2  0
 26 27  1  0
 27 28  1  0
  6 29  1  0
 29 30  1  0
 29 31  2  0
 31 32  1  0
 31  2  1  0
 27  7  1  0
 22 13  1  0
M  END
>  <cnnaffinity>  (1) 
-5.09191

>  <filename>  (1) 
c1ccc(SCc2cn[nH]c2-c2cccnc2)cc1

$$$$
