
     RDKit          3D

 34 36  0  0  0  0  0  0  0  0999 V2000
    4.9163    1.7883   16.9941 H   0  0  0  0  0  0  0  0  0  0  0  0
    5.3967    1.2968   17.8376 C   0  0  0  0  0  0  0  0  0  0  0  0
    6.5601    0.6808   17.5721 N   0  0  0  0  0  0  0  0  0  0  0  0
    7.1712    0.0575   18.5905 C   0  0  0  0  0  0  0  0  0  0  0  0
    8.1199   -0.4281   18.3728 H   0  0  0  0  0  0  0  0  0  0  0  0
    6.6632   -0.0202   19.9133 C   0  0  0  0  0  0  0  0  0  0  0  0
    7.3230   -0.7278   20.9255 N   0  0  0  0  0  0  0  0  0  0  0  0
    6.7701   -1.1115   21.6816 H   0  0  0  0  0  0  0  0  0  0  0  0
    8.7034   -0.7054   21.1590 C   0  0  0  0  0  0  0  0  0  0  0  0
    9.6911    0.1810   20.6661 C   0  0  0  0  0  0  0  0  0  0  0  0
    9.5375    1.0081   19.9953 H   0  0  0  0  0  0  0  0  0  0  0  0
   10.8973   -0.1062   21.1387 N   0  0  0  0  0  0  0  0  0  0  0  0
   10.6895   -1.1712   21.9234 N   0  0  0  0  0  0  0  0  0  0  0  0
   11.4855   -1.5430   22.4149 H   0  0  0  0  0  0  0  0  0  0  0  0
    9.3918   -1.5695   21.9806 C   0  0  0  0  0  0  0  0  0  0  0  0
    8.8699   -2.6658   22.8390 C   0  0  0  0  0  0  0  0  0  0  0  0
    8.1485   -3.2602   22.2598 H   0  0  0  0  0  0  0  0  0  0  0  0
    9.6893   -3.3321   23.1492 H   0  0  0  0  0  0  0  0  0  0  0  0
    8.2271   -2.0671   23.9686 O   0  0  0  0  0  0  0  0  0  0  0  0
    7.6305   -2.8326   24.9305 C   0  0  0  0  0  0  0  0  0  0  0  0
    7.5575   -4.2324   24.9055 C   0  0  0  0  0  0  0  0  0  0  0  0
    8.0092   -4.7845   24.0878 H   0  0  0  0  0  0  0  0  0  0  0  0
    6.8974   -4.9069   25.9414 C   0  0  0  0  0  0  0  0  0  0  0  0
    6.8434   -5.9934   25.9138 H   0  0  0  0  0  0  0  0  0  0  0  0
    6.3158   -4.2068   26.9966 C   0  0  0  0  0  0  0  0  0  0  0  0
    5.8051   -4.7387   27.7963 H   0  0  0  0  0  0  0  0  0  0  0  0
    6.3961   -2.8081   27.0180 C   0  0  0  0  0  0  0  0  0  0  0  0
    5.9439   -2.2543   27.8363 H   0  0  0  0  0  0  0  0  0  0  0  0
    7.0493   -2.1190   25.9967 C   0  0  0  0  0  0  0  0  0  0  0  0
    7.1184   -1.0351   25.9999 H   0  0  0  0  0  0  0  0  0  0  0  0
    5.4423    0.6269   20.1652 C   0  0  0  0  0  0  0  0  0  0  0  0
    5.0211    0.6211   21.1712 H   0  0  0  0  0  0  0  0  0  0  0  0
    4.8140    1.3030   19.1097 C   0  0  0  0  0  0  0  0  0  0  0  0
    3.8850    1.8356   19.2635 H   0  0  0  0  0  0  0  0  0  0  0  0
  1  2  1  0
  2  3  2  0
  3  4  1  0
  4  5  1  0
  4  6  2  0
  6  7  1  0
  7  8  1  0
  7  9  1  0
  9 10  1  0
 10 11  1  0
 10 12  2  0
 12 13  1  0
 13 14  1  0
 13 15  1  0
 15 16  1  0
 16 17  1  0
 16 18  1  0
 16 19  1  0
 19 20  1  0
 20 21  2  0
 21 22  1  0
 21 23  1  0
 23 24  1  0
 23 25  2  0
 25 26  1  0
 25 27  1  0
 27 28  1  0
 27 29  2  0
 29 30  1  0
  6 31  1  0
 31 32  1  0
 31 33  2  0
 33 34  1  0
 33  2  1  0
 15  9  2  0
 29 20  1  0
M  END
>  <cnnaffinity>  (1) 
-5.43307

>  <filename>  (1) 
c1ccc(OCc2[nH]ncc2Nc2cccnc2)cc1

$$$$
