
     RDKit          3D

 43 47  0  0  0  0  0  0  0  0999 V2000
   13.4773    3.8282   22.0501 C   0  0  0  0  0  0  0  0  0  0  0  0
   12.6820    3.6565   20.9112 C   0  0  0  0  0  0  0  0  0  0  0  0
   11.6255    2.7538   20.9464 C   0  0  0  0  0  0  0  0  0  0  0  0
   11.2425    2.1293   22.1413 C   0  0  0  0  0  0  0  0  0  0  0  0
    9.9371    1.4315   22.1672 C   0  0  0  0  0  0  0  0  0  0  0  0
    9.5308    0.4651   21.3644 N   0  0  0  0  0  0  0  0  0  0  0  0
    8.2563    0.2314   21.7790 C   0  0  0  0  0  0  0  0  0  0  0  0
    7.3601   -0.7151   21.0233 C   0  0  0  0  0  0  0  0  0  0  0  0
    6.6150   -0.0373   19.8720 C   0  0  0  0  0  0  0  0  0  0  0  0
    5.4111    0.6378   20.1123 C   0  0  0  0  0  0  0  0  0  0  0  0
    4.7881    1.3163   19.0620 C   0  0  0  0  0  0  0  0  0  0  0  0
    5.3948    1.3035   17.8035 C   0  0  0  0  0  0  0  0  0  0  0  0
    6.5468    0.6649   17.5460 N   0  0  0  0  0  0  0  0  0  0  0  0
    7.1317    0.0208   18.5641 C   0  0  0  0  0  0  0  0  0  0  0  0
    8.0749   -0.4737   18.3277 H   0  0  0  0  0  0  0  0  0  0  0  0
    4.9414    1.8287   16.9645 H   0  0  0  0  0  0  0  0  0  0  0  0
    3.8637    1.8648   19.2083 H   0  0  0  0  0  0  0  0  0  0  0  0
    4.9824    0.6439   21.1163 H   0  0  0  0  0  0  0  0  0  0  0  0
    7.9943   -1.5256   20.6519 H   0  0  0  0  0  0  0  0  0  0  0  0
    6.6420   -1.1562   21.7228 H   0  0  0  0  0  0  0  0  0  0  0  0
    7.8549    0.9737   22.7907 N   0  0  0  0  0  0  0  0  0  0  0  0
    8.9238    1.7958   23.0012 N   0  0  0  0  0  0  0  0  0  0  0  0
    8.8845    2.8962   23.8971 C   0  0  0  0  0  0  0  0  0  0  0  0
    9.3686    4.1700   23.5847 C   0  0  0  0  0  0  0  0  0  0  0  0
    9.3102    5.2087   24.5406 C   0  0  0  0  0  0  0  0  0  0  0  0
    8.7966    4.9979   25.8214 C   0  0  0  0  0  0  0  0  0  0  0  0
    8.3310    3.7086   26.1518 C   0  0  0  0  0  0  0  0  0  0  0  0
    8.3736    2.6915   25.1864 C   0  0  0  0  0  0  0  0  0  0  0  0
    7.8826    1.5772   25.8148 N   0  0  0  0  0  0  0  0  0  0  0  0
    7.5568    1.9511   27.0838 C   0  0  0  0  0  0  0  0  0  0  0  0
    7.8033    3.2080   27.3350 N   0  0  0  0  0  0  0  0  0  0  0  0
    7.1386    1.2438   27.7905 H   0  0  0  0  0  0  0  0  0  0  0  0
    7.6868    0.7139   25.3330 H   0  0  0  0  0  0  0  0  0  0  0  0
    8.7385    5.7908   26.5582 H   0  0  0  0  0  0  0  0  0  0  0  0
    9.6846    6.1903   24.2588 H   0  0  0  0  0  0  0  0  0  0  0  0
    9.8260    4.3515   22.6151 H   0  0  0  0  0  0  0  0  0  0  0  0
   12.0721    2.2629   23.2743 C   0  0  0  0  0  0  0  0  0  0  0  0
   13.2079    3.0704   23.1904 C   0  0  0  0  0  0  0  0  0  0  0  0
   13.9207    3.0962   24.0010 H   0  0  0  0  0  0  0  0  0  0  0  0
   11.7974    1.7986   24.2229 H   0  0  0  0  0  0  0  0  0  0  0  0
   11.0397    2.5493   20.0670 H   0  0  0  0  0  0  0  0  0  0  0  0
   12.9296    4.1490   19.9791 H   0  0  0  0  0  0  0  0  0  0  0  0
   14.3382    4.4955   22.0179 H   0  0  0  0  0  0  0  0  0  0  0  0
  1  2  2  0
  2  3  1  0
  3  4  2  0
  4  5  1  0
  5  6  2  0
  6  7  1  0
  7  8  1  0
  8  9  1  0
  9 10  2  0
 10 11  1  0
 11 12  2  0
 12 13  1  0
 13 14  2  0
 14 15  1  0
 12 16  1  0
 11 17  1  0
 10 18  1  0
  8 19  1  0
  8 20  1  0
  7 21  2  0
 21 22  1  0
 22 23  1  0
 23 24  2  0
 24 25  1  0
 25 26  2  0
 26 27  1  0
 27 28  2  0
 28 29  1  0
 29 30  1  0
 30 31  2  0
 30 32  1  0
 29 33  1  0
 26 34  1  0
 25 35  1  0
 24 36  1  0
  4 37  1  0
 37 38  2  0
 38 39  1  0
 37 40  1  0
  3 41  1  0
  2 42  1  0
  1 43  1  0
 38  1  1  0
 22  5  1  0
 28 23  1  0
 14  9  1  0
 31 27  1  0
M  END
>  <cnnaffinity>  (1) 
-6.14521

>  <filename>  (1) 
c1ccc(-c2nc(Cc3cccnc3)nn2-c2cccc3nc[nH]c23)cc1

$$$$
