
     RDKit          3D

 49 54  0  0  0  0  0  0  0  0999 V2000
    6.8811    6.6776   23.1066 C   0  0  0  0  0  0  0  0  0  0  0  0
    8.2433    6.6016   23.4192 C   0  0  0  0  0  0  0  0  0  0  0  0
    8.8250    5.3554   23.6572 C   0  0  0  0  0  0  0  0  0  0  0  0
    8.0693    4.1667   23.6079 C   0  0  0  0  0  0  0  0  0  0  0  0
    8.6816    2.8387   24.0135 C   0  0  0  0  0  0  0  0  0  0  0  0
    8.8032    1.8298   22.9727 N   0  0  0  0  0  0  0  0  0  0  0  0
    7.7231    1.0855   22.6233 N   0  0  0  0  0  0  0  0  0  0  0  0
    8.1940    0.3049   21.6735 C   0  0  0  0  0  0  0  0  0  0  0  0
    7.3369   -0.6842   20.9372 C   0  0  0  0  0  0  0  0  0  0  0  0
    6.5695   -0.0521   19.7853 C   0  0  0  0  0  0  0  0  0  0  0  0
    5.3722    0.6295   20.0328 C   0  0  0  0  0  0  0  0  0  0  0  0
    4.7619    1.3289   18.9891 C   0  0  0  0  0  0  0  0  0  0  0  0
    5.3762    1.3163   17.7331 C   0  0  0  0  0  0  0  0  0  0  0  0
    6.5069    0.6438   17.4641 N   0  0  0  0  0  0  0  0  0  0  0  0
    7.0770   -0.0228   18.4753 C   0  0  0  0  0  0  0  0  0  0  0  0
    7.9961   -0.5639   18.2385 H   0  0  0  0  0  0  0  0  0  0  0  0
    4.9474    1.8746   16.9042 H   0  0  0  0  0  0  0  0  0  0  0  0
    3.8446    1.8883   19.1406 H   0  0  0  0  0  0  0  0  0  0  0  0
    4.9447    0.6130   21.0367 H   0  0  0  0  0  0  0  0  0  0  0  0
    6.6360   -1.1217   21.6588 H   0  0  0  0  0  0  0  0  0  0  0  0
    8.0061   -1.4704   20.5731 H   0  0  0  0  0  0  0  0  0  0  0  0
    9.5001    0.4982   21.3771 N   0  0  0  0  0  0  0  0  0  0  0  0
    9.8748    1.4484   22.2191 C   0  0  0  0  0  0  0  0  0  0  0  0
   11.2194    2.0648   22.3815 C   0  0  0  0  0  0  0  0  0  0  0  0
   11.4399    3.4663   22.3863 C   0  0  0  0  0  0  0  0  0  0  0  0
   12.7237    4.0023   22.5838 C   0  0  0  0  0  0  0  0  0  0  0  0
   13.8385    3.2823   22.7740 N   0  0  0  0  0  0  0  0  0  0  0  0
   13.6089    1.9732   22.7249 C   0  0  0  0  0  0  0  0  0  0  0  0
   12.3841    1.2830   22.5508 C   0  0  0  0  0  0  0  0  0  0  0  0
   12.6183   -0.0844   22.5224 N   0  0  0  0  0  0  0  0  0  0  0  0
   13.9110   -0.1972   22.6120 C   0  0  0  0  0  0  0  0  0  0  0  0
   14.5591    0.9978   22.7521 N   0  0  0  0  0  0  0  0  0  0  0  0
   15.5334    1.2090   22.7320 H   0  0  0  0  0  0  0  0  0  0  0  0
   14.4431   -1.1406   22.5485 H   0  0  0  0  0  0  0  0  0  0  0  0
   12.8716    5.0764   22.5966 H   0  0  0  0  0  0  0  0  0  0  0  0
   10.6204    4.1563   22.2319 H   0  0  0  0  0  0  0  0  0  0  0  0
    9.7551    2.9188   25.0588 C   0  0  0  0  0  0  0  0  0  0  0  0
    8.4365    2.3149   25.4146 C   0  0  0  0  0  0  0  0  0  0  0  0
    7.7524    2.8692   26.0525 H   0  0  0  0  0  0  0  0  0  0  0  0
    8.4275    1.2360   25.5325 H   0  0  0  0  0  0  0  0  0  0  0  0
   10.6154    2.2612   24.9600 H   0  0  0  0  0  0  0  0  0  0  0  0
    9.9492    3.9262   25.4121 H   0  0  0  0  0  0  0  0  0  0  0  0
    6.7206    4.2543   23.2315 C   0  0  0  0  0  0  0  0  0  0  0  0
    6.1257    5.5024   23.0050 C   0  0  0  0  0  0  0  0  0  0  0  0
    5.0703    5.5603   22.7474 H   0  0  0  0  0  0  0  0  0  0  0  0
    6.1532    3.3322   23.1237 H   0  0  0  0  0  0  0  0  0  0  0  0
    9.8831    5.2907   23.8935 H   0  0  0  0  0  0  0  0  0  0  0  0
    8.8526    7.5007   23.4860 H   0  0  0  0  0  0  0  0  0  0  0  0
    6.4194    7.6459   22.9266 H   0  0  0  0  0  0  0  0  0  0  0  0
  1  2  2  0
  2  3  1  0
  3  4  2  0
  4  5  1  0
  5  6  1  0
  6  7  1  0
  7  8  2  0
  8  9  1  0
  9 10  1  0
 10 11  2  0
 11 12  1  0
 12 13  2  0
 13 14  1  0
 14 15  2  0
 15 16  1  0
 13 17  1  0
 12 18  1  0
 11 19  1  0
  9 20  1  0
  9 21  1  0
  8 22  1  0
 22 23  2  0
 23 24  1  0
 24 25  2  0
 25 26  1  0
 26 27  2  0
 27 28  1  0
 28 29  2  0
 29 30  1  0
 30 31  2  0
 31 32  1  0
 32 33  1  0
 31 34  1  0
 26 35  1  0
 25 36  1  0
  5 37  1  0
 37 38  1  0
 38 39  1  0
 38 40  1  0
 37 41  1  0
 37 42  1  0
  4 43  1  0
 43 44  2  0
 44 45  1  0
 43 46  1  0
  3 47  1  0
  2 48  1  0
  1 49  1  0
 44  1  1  0
 38  5  1  0
 23  6  1  0
 29 24  1  0
 15 10  1  0
 32 28  1  0
M  END
>  <cnnaffinity>  (1) 
-6.89236

>  <filename>  (1) 
c1ccc(C2(n3nc(Cc4cccnc4)nc3-c3ccnc4[nH]cnc34)CC2)cc1

$$$$
