
     RDKit          3D

 43 46  0  0  0  0  0  0  0  0999 V2000
    7.4794    8.3572   21.8451 H   0  0  0  0  0  0  0  0  0  0  0  0
    6.7190    7.6096   22.0270 C   0  0  0  0  0  0  0  0  0  0  0  0
    7.1691    6.3656   22.1849 N   0  0  0  0  0  0  0  0  0  0  0  0
    6.2549    5.3997   22.3649 C   0  0  0  0  0  0  0  0  0  0  0  0
    6.7346    4.1328   22.5652 N   0  0  0  0  0  0  0  0  0  0  0  0
    8.1164    3.7711   22.2217 C   0  0  0  0  0  0  0  0  0  0  0  0
    8.5061    4.5078   21.5223 H   0  0  0  0  0  0  0  0  0  0  0  0
    8.7521    3.8173   23.1170 H   0  0  0  0  0  0  0  0  0  0  0  0
    8.1997    2.3626   21.6175 C   0  0  0  0  0  0  0  0  0  0  0  0
    9.2592    2.1167   21.4667 H   0  0  0  0  0  0  0  0  0  0  0  0
    7.7345    2.3530   20.6255 H   0  0  0  0  0  0  0  0  0  0  0  0
    7.5690    1.3736   22.4924 N   0  0  0  0  0  0  0  0  0  0  0  0
    7.7481    0.0168   22.2429 C   0  0  0  0  0  0  0  0  0  0  0  0
    8.3557   -0.7458   23.2448 C   0  0  0  0  0  0  0  0  0  0  0  0
    8.6215   -0.2757   24.1838 H   0  0  0  0  0  0  0  0  0  0  0  0
    8.6176   -2.0847   23.0195 C   0  0  0  0  0  0  0  0  0  0  0  0
    9.1527   -2.6765   23.7619 H   0  0  0  0  0  0  0  0  0  0  0  0
    8.2250   -2.7304   21.9130 N   0  0  0  0  0  0  0  0  0  0  0  0
    7.6024   -1.9991   20.9829 C   0  0  0  0  0  0  0  0  0  0  0  0
    7.2188   -2.5601   20.1353 H   0  0  0  0  0  0  0  0  0  0  0  0
    7.3776   -0.6138   21.0278 C   0  0  0  0  0  0  0  0  0  0  0  0
    6.6676    0.0791   19.8866 C   0  0  0  0  0  0  0  0  0  0  0  0
    7.1537    0.0850   18.5574 C   0  0  0  0  0  0  0  0  0  0  0  0
    8.0912   -0.4158   18.3119 H   0  0  0  0  0  0  0  0  0  0  0  0
    6.5445    0.6898   17.5267 N   0  0  0  0  0  0  0  0  0  0  0  0
    5.3828    1.3164   17.7753 C   0  0  0  0  0  0  0  0  0  0  0  0
    4.9097    1.8180   16.9309 H   0  0  0  0  0  0  0  0  0  0  0  0
    4.7858    1.3402   19.0372 C   0  0  0  0  0  0  0  0  0  0  0  0
    3.8348    1.8415   19.1696 H   0  0  0  0  0  0  0  0  0  0  0  0
    5.4400    0.7208   20.1036 C   0  0  0  0  0  0  0  0  0  0  0  0
    5.0020    0.7184   21.1032 H   0  0  0  0  0  0  0  0  0  0  0  0
    6.6877    1.8538   23.5573 C   0  0  0  0  0  0  0  0  0  0  0  0
    5.9932    1.0645   23.8568 H   0  0  0  0  0  0  0  0  0  0  0  0
    7.2470    2.1467   24.4598 H   0  0  0  0  0  0  0  0  0  0  0  0
    5.8710    3.0751   23.0965 C   0  0  0  0  0  0  0  0  0  0  0  0
    5.1377    2.7635   22.3380 H   0  0  0  0  0  0  0  0  0  0  0  0
    5.3040    3.4542   23.9553 H   0  0  0  0  0  0  0  0  0  0  0  0
    4.8627    5.6634   22.3549 C   0  0  0  0  0  0  0  0  0  0  0  0
    4.1658    4.8449   22.4441 H   0  0  0  0  0  0  0  0  0  0  0  0
    4.4219    6.9684   22.1952 C   0  0  0  0  0  0  0  0  0  0  0  0
    3.3540    7.1920   22.1766 H   0  0  0  0  0  0  0  0  0  0  0  0
    5.3773    7.9771   22.0480 C   0  0  0  0  0  0  0  0  0  0  0  0
    5.0964    9.0144   21.9359 H   0  0  0  0  0  0  0  0  0  0  0  0
  1  2  1  0
  2  3  2  0
  3  4  1  0
  4  5  1  0
  5  6  1  0
  6  7  1  0
  6  8  1  0
  6  9  1  0
  9 10  1  0
  9 11  1  0
  9 12  1  0
 12 13  1  0
 13 14  2  0
 14 15  1  0
 14 16  1  0
 16 17  1  0
 16 18  2  0
 18 19  1  0
 19 20  1  0
 19 21  2  0
 21 22  1  0
 22 23  2  0
 23 24  1  0
 23 25  1  0
 25 26  2  0
 26 27  1  0
 26 28  1  0
 28 29  1  0
 28 30  2  0
 30 31  1  0
 12 32  1  0
 32 33  1  0
 32 34  1  0
 32 35  1  0
 35 36  1  0
 35 37  1  0
  4 38  2  0
 38 39  1  0
 38 40  1  0
 40 41  1  0
 40 42  2  0
 42 43  1  0
 42  2  1  0
 35  5  1  0
 21 13  1  0
 30 22  1  0
M  END
>  <cnnaffinity>  (1) 
-5.52315

>  <filename>  (1) 
c1ccc(N2CCN(c3ccncc3-c3cccnc3)CC2)nc1

$$$$
