
     RDKit          3D

 35 37  0  0  0  0  0  0  0  0999 V2000
    4.3816   -7.5503   24.9795 C   0  0  0  0  0  0  0  0  0  0  0  0
    4.5333   -6.3634   25.7000 C   0  0  0  0  0  0  0  0  0  0  0  0
    5.2846   -5.3140   25.1648 C   0  0  0  0  0  0  0  0  0  0  0  0
    5.9034   -5.4421   23.9056 C   0  0  0  0  0  0  0  0  0  0  0  0
    6.6859   -4.4441   23.3676 N   0  0  0  0  0  0  0  0  0  0  0  0
    6.6472   -3.0875   23.8583 C   0  0  0  0  0  0  0  0  0  0  0  0
    7.3474   -2.2003   22.8716 C   0  0  0  0  0  0  0  0  0  0  0  0
    8.7355   -2.0681   22.9474 C   0  0  0  0  0  0  0  0  0  0  0  0
    9.4469   -1.2894   22.1260 N   0  0  0  0  0  0  0  0  0  0  0  0
    8.7849   -0.6325   21.1639 C   0  0  0  0  0  0  0  0  0  0  0  0
    7.3916   -0.7241   20.9519 C   0  0  0  0  0  0  0  0  0  0  0  0
    6.6750    0.0058   19.8599 C   0  0  0  0  0  0  0  0  0  0  0  0
    5.4540    0.6578   20.1061 C   0  0  0  0  0  0  0  0  0  0  0  0
    4.8161    1.3275   19.0617 C   0  0  0  0  0  0  0  0  0  0  0  0
    5.3990    1.3236   17.7924 C   0  0  0  0  0  0  0  0  0  0  0  0
    6.5528    0.6911   17.5247 N   0  0  0  0  0  0  0  0  0  0  0  0
    7.1614    0.0611   18.5373 C   0  0  0  0  0  0  0  0  0  0  0  0
    8.0920   -0.4444   18.2831 H   0  0  0  0  0  0  0  0  0  0  0  0
    4.9249    1.8390   16.9580 H   0  0  0  0  0  0  0  0  0  0  0  0
    3.8821    1.8526   19.2134 H   0  0  0  0  0  0  0  0  0  0  0  0
    5.0325    0.6666   21.1113 H   0  0  0  0  0  0  0  0  0  0  0  0
    6.6763   -1.5378   21.8398 C   0  0  0  0  0  0  0  0  0  0  0  0
    5.6032   -1.6816   21.7001 H   0  0  0  0  0  0  0  0  0  0  0  0
    9.3927    0.0239   20.5415 H   0  0  0  0  0  0  0  0  0  0  0  0
    9.2886   -2.6033   23.7237 H   0  0  0  0  0  0  0  0  0  0  0  0
    7.1521   -3.0556   24.8366 H   0  0  0  0  0  0  0  0  0  0  0  0
    5.6107   -2.7463   24.0173 H   0  0  0  0  0  0  0  0  0  0  0  0
    6.9474   -4.5772   22.4064 H   0  0  0  0  0  0  0  0  0  0  0  0
    5.7754   -6.6482   23.1945 C   0  0  0  0  0  0  0  0  0  0  0  0
    5.0201   -7.6819   23.7441 C   0  0  0  0  0  0  0  0  0  0  0  0
    4.9595   -8.6239   23.2282 H   0  0  0  0  0  0  0  0  0  0  0  0
    6.3063   -6.7693   22.2532 H   0  0  0  0  0  0  0  0  0  0  0  0
    5.4114   -4.3918   25.7192 H   0  0  0  0  0  0  0  0  0  0  0  0
    4.0786   -6.2491   26.6816 H   0  0  0  0  0  0  0  0  0  0  0  0
    3.7913   -8.3680   25.3838 H   0  0  0  0  0  0  0  0  0  0  0  0
  1  2  2  0
  2  3  1  0
  3  4  2  0
  4  5  1  0
  5  6  1  0
  6  7  1  0
  7  8  2  0
  8  9  1  0
  9 10  2  0
 10 11  1  0
 11 12  1  0
 12 13  2  0
 13 14  1  0
 14 15  2  0
 15 16  1  0
 16 17  2  0
 17 18  1  0
 15 19  1  0
 14 20  1  0
 13 21  1  0
 11 22  2  0
 22 23  1  0
 10 24  1  0
  8 25  1  0
  6 26  1  0
  6 27  1  0
  5 28  1  0
  4 29  1  0
 29 30  2  0
 30 31  1  0
 29 32  1  0
  3 33  1  0
  2 34  1  0
  1 35  1  0
 30  1  1  0
 22  7  1  0
 17 12  1  0
M  END
>  <cnnaffinity>  (1) 
-5.1109

>  <filename>  (1) 
c1ccc(NCc2cncc(-c3cccnc3)c2)cc1

$$$$
