
     RDKit          3D

 41 43  0  0  0  0  0  0  0  0999 V2000
   12.6032    5.6970   24.3935 C   0  0  0  0  0  0  0  0  0  0  0  0
   11.2714    5.8146   24.8152 C   0  0  0  0  0  0  0  0  0  0  0  0
   10.3237    4.8791   24.4137 C   0  0  0  0  0  0  0  0  0  0  0  0
   10.7071    3.8165   23.5800 C   0  0  0  0  0  0  0  0  0  0  0  0
    9.7162    2.9583   23.2427 O   0  0  0  0  0  0  0  0  0  0  0  0
    9.9841    1.8738   22.3704 C   0  0  0  0  0  0  0  0  0  0  0  0
    8.6236    1.2177   22.2464 C   0  0  0  0  0  0  0  0  0  0  0  0
    8.6248   -0.0223   21.4359 N   0  0  0  0  0  4  0  0  0  0  0  0
    9.4871   -1.1295   21.9597 C   0  0  0  0  0  0  0  0  0  0  0  0
    8.9651   -2.3483   21.2112 C   0  0  0  0  0  0  0  0  0  0  0  0
    7.4537   -2.0944   21.0232 C   0  0  0  0  0  0  0  0  0  0  0  0
    7.2301   -0.5832   21.2216 C   0  0  0  0  0  0  0  0  0  0  0  0
    6.5684    0.1398   20.0708 C   0  0  0  0  0  0  0  0  0  0  0  0
    5.3370    0.8049   20.1941 C   0  0  0  0  0  0  0  0  0  0  0  0
    4.7771    1.4023   19.0600 C   0  0  0  0  0  0  0  0  0  0  0  0
    5.4742    1.3418   17.8507 C   0  0  0  0  0  0  0  0  0  0  0  0
    6.6582    0.7271   17.7176 N   0  0  0  0  0  0  0  0  0  0  0  0
    7.1838    0.1572   18.8057 C   0  0  0  0  0  0  0  0  0  0  0  0
    8.1362   -0.3470   18.6468 H   0  0  0  0  0  0  0  0  0  0  0  0
    5.0650    1.8013   16.9505 H   0  0  0  0  0  0  0  0  0  0  0  0
    3.8229    1.9154   19.0987 H   0  0  0  0  0  0  0  0  0  0  0  0
    4.8280    0.8617   21.1577 H   0  0  0  0  0  0  0  0  0  0  0  0
    6.6482   -0.4142   22.1368 H   0  0  0  0  0  0  0  0  0  0  0  0
    6.8641   -2.6478   21.7613 H   0  0  0  0  0  0  0  0  0  0  0  0
    7.0758   -2.4034   20.0458 H   0  0  0  0  0  0  0  0  0  0  0  0
    9.4888   -2.3869   20.2510 H   0  0  0  0  0  0  0  0  0  0  0  0
    9.1873   -3.2806   21.7351 H   0  0  0  0  0  0  0  0  0  0  0  0
    9.3673   -1.2192   23.0474 H   0  0  0  0  0  0  0  0  0  0  0  0
   10.5460   -0.9401   21.7565 H   0  0  0  0  0  0  0  0  0  0  0  0
    8.9510    0.2175   20.4737 H   0  0  0  0  0  0  0  0  0  0  0  0
    8.2818    1.0065   23.2701 H   0  0  0  0  0  0  0  0  0  0  0  0
    7.9317    1.9537   21.8190 H   0  0  0  0  0  0  0  0  0  0  0  0
   10.3732    2.2317   21.4037 H   0  0  0  0  0  0  0  0  0  0  0  0
   10.7340    1.2037   22.8190 H   0  0  0  0  0  0  0  0  0  0  0  0
   12.0351    3.6937   23.1526 C   0  0  0  0  0  0  0  0  0  0  0  0
   12.9819    4.6393   23.5645 C   0  0  0  0  0  0  0  0  0  0  0  0
   14.0100    4.5329   23.2231 H   0  0  0  0  0  0  0  0  0  0  0  0
   12.3124    2.8738   22.5024 H   0  0  0  0  0  0  0  0  0  0  0  0
    9.2824    4.9356   24.7164 H   0  0  0  0  0  0  0  0  0  0  0  0
   10.9674    6.6419   25.4579 H   0  0  0  0  0  0  0  0  0  0  0  0
   13.3406    6.4309   24.7026 H   0  0  0  0  0  0  0  0  0  0  0  0
  1  2  2  0
  2  3  1  0
  3  4  2  0
  4  5  1  0
  5  6  1  0
  6  7  1  0
  7  8  1  0
  8  9  1  0
  9 10  1  0
 10 11  1  0
 11 12  1  0
 12 13  1  0
 13 14  2  0
 14 15  1  0
 15 16  2  0
 16 17  1  0
 17 18  2  0
 18 19  1  0
 16 20  1  0
 15 21  1  0
 14 22  1  0
 12 23  1  0
 11 24  1  0
 11 25  1  0
 10 26  1  0
 10 27  1  0
  9 28  1  0
  9 29  1  0
  8 30  1  0
  7 31  1  0
  7 32  1  0
  6 33  1  0
  6 34  1  0
  4 35  1  0
 35 36  2  0
 36 37  1  0
 35 38  1  0
  3 39  1  0
  2 40  1  0
  1 41  1  0
 36  1  1  0
 12  8  1  0
 18 13  1  0
M  CHG  1   8   1
M  END
>  <cnnaffinity>  (1) 
-4.6108

>  <filename>  (1) 
c1ccc(OCC[NH+]2CCCC2c2cccnc2)cc1

$$$$
