
     RDKit          3D

 35 37  0  0  0  0  0  0  0  0999 V2000
    4.9139    1.7858   16.9951 H   0  0  0  0  0  0  0  0  0  0  0  0
    5.3969    1.2967   17.8382 C   0  0  0  0  0  0  0  0  0  0  0  0
    6.5610    0.6812   17.5726 N   0  0  0  0  0  0  0  0  0  0  0  0
    7.1722    0.0585   18.5913 C   0  0  0  0  0  0  0  0  0  0  0  0
    8.1209   -0.4295   18.3762 H   0  0  0  0  0  0  0  0  0  0  0  0
    6.6633   -0.0170   19.9127 C   0  0  0  0  0  0  0  0  0  0  0  0
    7.3273   -0.7189   20.9269 N   0  0  0  0  0  0  0  0  0  0  0  0
    6.7688   -1.1275   21.6650 H   0  0  0  0  0  0  0  0  0  0  0  0
    8.7081   -0.7026   21.1506 C   0  0  0  0  0  0  0  0  0  0  0  0
    9.6937    0.1842   20.6612 C   0  0  0  0  0  0  0  0  0  0  0  0
    9.5292    1.0121   19.9940 H   0  0  0  0  0  0  0  0  0  0  0  0
   10.9020   -0.0974   21.1385 N   0  0  0  0  0  0  0  0  0  0  0  0
   10.6912   -1.1645   21.9215 N   0  0  0  0  0  0  0  0  0  0  0  0
   11.4804   -1.5459   22.4167 H   0  0  0  0  0  0  0  0  0  0  0  0
    9.3925   -1.5621   21.9798 C   0  0  0  0  0  0  0  0  0  0  0  0
    8.8758   -2.6661   22.8326 C   0  0  0  0  0  0  0  0  0  0  0  0
    8.1432   -3.2436   22.2490 H   0  0  0  0  0  0  0  0  0  0  0  0
    9.6900   -3.3656   23.0831 H   0  0  0  0  0  0  0  0  0  0  0  0
    8.2573   -2.1425   24.0318 N   0  0  0  0  0  0  0  0  0  0  0  0
    8.2967   -1.1521   24.2011 H   0  0  0  0  0  0  0  0  0  0  0  0
    7.6477   -2.9126   25.0007 C   0  0  0  0  0  0  0  0  0  0  0  0
    7.5806   -4.3162   24.8942 C   0  0  0  0  0  0  0  0  0  0  0  0
    8.0290   -4.8043   24.0361 H   0  0  0  0  0  0  0  0  0  0  0  0
    6.9461   -5.0688   25.8828 C   0  0  0  0  0  0  0  0  0  0  0  0
    6.9063   -6.1493   25.7805 H   0  0  0  0  0  0  0  0  0  0  0  0
    6.3687   -4.4489   26.9917 C   0  0  0  0  0  0  0  0  0  0  0  0
    5.8762   -5.0437   27.7573 H   0  0  0  0  0  0  0  0  0  0  0  0
    6.4333   -3.0557   27.1022 C   0  0  0  0  0  0  0  0  0  0  0  0
    5.9812   -2.5640   27.9589 H   0  0  0  0  0  0  0  0  0  0  0  0
    7.0675   -2.2867   26.1242 C   0  0  0  0  0  0  0  0  0  0  0  0
    7.1132   -1.2044   26.2191 H   0  0  0  0  0  0  0  0  0  0  0  0
    5.4429    0.6295   20.1647 C   0  0  0  0  0  0  0  0  0  0  0  0
    5.0196    0.6224   21.1700 H   0  0  0  0  0  0  0  0  0  0  0  0
    4.8127    1.3046   19.1102 C   0  0  0  0  0  0  0  0  0  0  0  0
    3.8822    1.8376   19.2643 H   0  0  0  0  0  0  0  0  0  0  0  0
  1  2  1  0
  2  3  2  0
  3  4  1  0
  4  5  1  0
  4  6  2  0
  6  7  1  0
  7  8  1  0
  7  9  1  0
  9 10  1  0
 10 11  1  0
 10 12  2  0
 12 13  1  0
 13 14  1  0
 13 15  1  0
 15 16  1  0
 16 17  1  0
 16 18  1  0
 16 19  1  0
 19 20  1  0
 19 21  1  0
 21 22  2  0
 22 23  1  0
 22 24  1  0
 24 25  1  0
 24 26  2  0
 26 27  1  0
 26 28  1  0
 28 29  1  0
 28 30  2  0
 30 31  1  0
  6 32  1  0
 32 33  1  0
 32 34  2  0
 34 35  1  0
 34  2  1  0
 15  9  2  0
 30 21  1  0
M  END
>  <cnnaffinity>  (1) 
-5.40783

>  <filename>  (1) 
c1ccc(NCc2[nH]ncc2Nc2cccnc2)cc1

$$$$
