
     RDKit          3D

 36 38  0  0  0  0  0  0  0  0999 V2000
    4.9884    1.8091   16.9425 H   0  0  0  0  0  0  0  0  0  0  0  0
    5.4500    1.3190   17.7960 C   0  0  0  0  0  0  0  0  0  0  0  0
    6.6207    0.7060   17.5602 N   0  0  0  0  0  0  0  0  0  0  0  0
    7.2164    0.1042   18.6002 C   0  0  0  0  0  0  0  0  0  0  0  0
    8.1649   -0.3868   18.3862 H   0  0  0  0  0  0  0  0  0  0  0  0
    6.6856    0.0656   19.9122 C   0  0  0  0  0  0  0  0  0  0  0  0
    7.3368   -0.6259   21.0472 C   0  0  0  0  0  0  0  0  0  0  0  0
    6.8357   -1.5843   21.8910 C   0  0  0  0  0  0  0  0  0  0  0  0
    5.8194   -1.9579   21.9132 H   0  0  0  0  0  0  0  0  0  0  0  0
    7.7993   -2.0790   22.7325 N   0  0  0  0  0  0  0  0  0  0  0  0
    8.8878   -1.4064   22.4298 C   0  0  0  0  0  0  0  0  0  0  0  0
    9.8487   -1.5271   22.9138 H   0  0  0  0  0  0  0  0  0  0  0  0
    8.6660   -0.4887   21.4249 N   0  0  0  0  0  0  0  0  0  0  0  0
    9.5440    0.4679   20.8329 N   0  0  0  0  0  0  0  0  0  0  0  0
    8.8941    1.1556   20.4457 H   0  0  0  0  0  0  0  0  0  0  0  0
   10.4432    1.1964   21.7471 C   0  0  0  0  0  0  0  0  0  0  0  0
   11.2486    0.5133   22.0605 H   0  0  0  0  0  0  0  0  0  0  0  0
   10.9193    1.9602   21.1150 H   0  0  0  0  0  0  0  0  0  0  0  0
    9.7755    1.8700   22.9638 C   0  0  0  0  0  0  0  0  0  0  0  0
    9.3061    1.1036   23.5904 H   0  0  0  0  0  0  0  0  0  0  0  0
   10.5681    2.3032   23.5780 H   0  0  0  0  0  0  0  0  0  0  0  0
    8.7605    2.9385   22.6218 C   0  0  0  0  0  0  0  0  0  0  0  0
    9.1413    4.2858   22.5182 C   0  0  0  0  0  0  0  0  0  0  0  0
   10.1661    4.5623   22.7650 H   0  0  0  0  0  0  0  0  0  0  0  0
    8.2280    5.2452   22.0598 C   0  0  0  0  0  0  0  0  0  0  0  0
    8.5364    6.2846   21.9600 H   0  0  0  0  0  0  0  0  0  0  0  0
    6.9344    4.8731   21.6915 C   0  0  0  0  0  0  0  0  0  0  0  0
    6.2479    5.6123   21.2794 H   0  0  0  0  0  0  0  0  0  0  0  0
    6.5234    3.5440   21.8590 C   0  0  0  0  0  0  0  0  0  0  0  0
    5.5063    3.2464   21.6086 H   0  0  0  0  0  0  0  0  0  0  0  0
    7.4237    2.5942   22.3466 C   0  0  0  0  0  0  0  0  0  0  0  0
    7.0994    1.5684   22.5225 H   0  0  0  0  0  0  0  0  0  0  0  0
    5.4516    0.6965   20.1176 C   0  0  0  0  0  0  0  0  0  0  0  0
    5.0223    0.7074   21.1203 H   0  0  0  0  0  0  0  0  0  0  0  0
    4.8240    1.3369   19.0479 C   0  0  0  0  0  0  0  0  0  0  0  0
    3.8807    1.8564   19.1741 H   0  0  0  0  0  0  0  0  0  0  0  0
  1  2  1  0
  2  3  2  0
  3  4  1  0
  4  5  1  0
  4  6  2  0
  6  7  1  0
  7  8  2  0
  8  9  1  0
  8 10  1  0
 10 11  2  0
 11 12  1  0
 11 13  1  0
 13 14  1  0
 14 15  1  0
 14 16  1  0
 16 17  1  0
 16 18  1  0
 16 19  1  0
 19 20  1  0
 19 21  1  0
 19 22  1  0
 22 23  2  0
 23 24  1  0
 23 25  1  0
 25 26  1  0
 25 27  2  0
 27 28  1  0
 27 29  1  0
 29 30  1  0
 29 31  2  0
 31 32  1  0
  6 33  1  0
 33 34  1  0
 33 35  2  0
 35 36  1  0
 35  2  1  0
 13  7  1  0
 31 22  1  0
M  END
>  <cnnaffinity>  (1) 
-5.05211

>  <filename>  (1) 
c1ccc(CCNn2cncc2-c2cccnc2)cc1

$$$$
