
     RDKit          3D

 42 45  0  0  0  0  0  0  0  0999 V2000
    5.0306    1.4950   16.8696 H   0  0  0  0  0  0  0  0  0  0  0  0
    5.5419    1.1358   17.7615 C   0  0  0  0  0  0  0  0  0  0  0  0
    6.7579    0.5978   17.5820 N   0  0  0  0  0  0  0  0  0  0  0  0
    7.4128    0.1536   18.6638 C   0  0  0  0  0  0  0  0  0  0  0  0
    8.4132   -0.2351   18.4842 H   0  0  0  0  0  0  0  0  0  0  0  0
    6.8960    0.1711   19.9946 C   0  0  0  0  0  0  0  0  0  0  0  0
    7.5838   -0.3406   21.0800 N   0  0  0  0  0  0  0  0  0  0  0  0
    6.9395   -0.5739   22.3714 C   0  0  0  0  0  0  0  0  0  0  0  0
    6.7304    0.3724   22.8810 H   0  0  0  0  0  0  0  0  0  0  0  0
    5.9932   -1.1058   22.2248 H   0  0  0  0  0  0  0  0  0  0  0  0
    7.9215   -1.4140   23.1653 C   0  0  1  0  0  0  0  0  0  0  0  0
    7.9963   -1.2512   24.2327 H   0  0  0  0  0  0  0  0  0  0  0  0
    8.1633   -2.8018   22.6408 C   0  0  1  0  0  0  0  0  0  0  0  0
    8.6086   -3.5168   23.3236 H   0  0  0  0  0  0  0  0  0  0  0  0
    7.1860   -3.3074   21.7128 N   0  0  0  0  0  0  0  0  0  0  0  0
    7.6046   -4.0000   21.1039 H   0  0  0  0  0  0  0  0  0  0  0  0
    5.9728   -3.8334   22.3391 C   0  0  0  0  0  0  0  0  0  0  0  0
    5.6764   -3.1570   23.1499 H   0  0  0  0  0  0  0  0  0  0  0  0
    5.1532   -3.7746   21.6094 H   0  0  0  0  0  0  0  0  0  0  0  0
    6.0346   -5.2670   22.9028 C   0  0  0  0  0  0  0  0  0  0  0  0
    6.1460   -5.9856   22.0813 H   0  0  0  0  0  0  0  0  0  0  0  0
    5.0598   -5.4731   23.3611 H   0  0  0  0  0  0  0  0  0  0  0  0
    7.0976   -5.5050   23.9523 C   0  0  0  0  0  0  0  0  0  0  0  0
    6.9105   -5.0224   25.2602 C   0  0  0  0  0  0  0  0  0  0  0  0
    6.0218   -4.4333   25.4803 H   0  0  0  0  0  0  0  0  0  0  0  0
    7.8485   -5.2859   26.2633 C   0  0  0  0  0  0  0  0  0  0  0  0
    7.6379   -4.9893   27.2882 H   0  0  0  0  0  0  0  0  0  0  0  0
    9.0383   -5.9533   25.9525 C   0  0  0  0  0  0  0  0  0  0  0  0
    9.7849   -6.1285   26.7256 H   0  0  0  0  0  0  0  0  0  0  0  0
    9.2594   -6.3844   24.6427 C   0  0  0  0  0  0  0  0  0  0  0  0
   10.1540   -6.9507   24.4108 H   0  0  0  0  0  0  0  0  0  0  0  0
    8.2943   -6.1729   23.6509 C   0  0  0  0  0  0  0  0  0  0  0  0
    8.4732   -6.5271   22.6368 H   0  0  0  0  0  0  0  0  0  0  0  0
    9.0955   -1.6795   22.2798 C   0  0  1  0  0  0  0  0  0  0  0  0
   10.1032   -1.7050   22.6741 H   0  0  0  0  0  0  0  0  0  0  0  0
    8.8713   -1.0074   20.9497 C   0  0  0  0  0  0  0  0  0  0  0  0
    8.8545   -1.7469   20.1402 H   0  0  0  0  0  0  0  0  0  0  0  0
    9.6579   -0.2810   20.7093 H   0  0  0  0  0  0  0  0  0  0  0  0
    5.6275    0.7771   20.1460 C   0  0  0  0  0  0  0  0  0  0  0  0
    5.2016    0.8744   21.1411 H   0  0  0  0  0  0  0  0  0  0  0  0
    4.9506    1.2556   19.0225 C   0  0  0  0  0  0  0  0  0  0  0  0
    3.9796    1.7313   19.1204 H   0  0  0  0  0  0  0  0  0  0  0  0
  1  2  1  0
  2  3  2  0
  3  4  1  0
  4  5  1  0
  4  6  2  0
  6  7  1  0
  7  8  1  0
  8  9  1  0
  8 10  1  0
  8 11  1  0
 11 12  1  1
 11 13  1  0
 13 14  1  1
 13 15  1  0
 15 16  1  0
 15 17  1  0
 17 18  1  0
 17 19  1  0
 17 20  1  0
 20 21  1  0
 20 22  1  0
 20 23  1  0
 23 24  2  0
 24 25  1  0
 24 26  1  0
 26 27  1  0
 26 28  2  0
 28 29  1  0
 28 30  1  0
 30 31  1  0
 30 32  2  0
 32 33  1  0
 13 34  1  0
 34 35  1  1
 34 36  1  0
 36 37  1  0
 36 38  1  0
  6 39  1  0
 39 40  1  0
 39 41  2  0
 41 42  1  0
 41  2  1  0
 36  7  1  0
 34 11  1  0
 32 23  1  0
M  END
>  <cnnaffinity>  (1) 
-5.1845

>  <filename>  (1) 
c1ccc(CCN[C@@H]2[C@@H]3CN(c4cccnc4)C[C@@H]32)cc1

$$$$
