
     RDKit          3D

 28 30  0  0  0  0  0  0  0  0999 V2000
    4.9153    1.7844   16.9896 H   0  0  0  0  0  0  0  0  0  0  0  0
    5.3989    1.2972   17.8289 C   0  0  0  0  0  0  0  0  0  0  0  0
    6.5609    0.6803   17.5589 N   0  0  0  0  0  0  0  0  0  0  0  0
    7.1693    0.0769   18.5864 C   0  0  0  0  0  0  0  0  0  0  0  0
    8.1073   -0.4243   18.3593 H   0  0  0  0  0  0  0  0  0  0  0  0
    6.6627    0.0231   19.8951 C   0  0  0  0  0  0  0  0  0  0  0  0
    7.3901   -0.6960   20.9617 C   0  0  0  0  0  0  0  0  0  0  0  0
    8.7468   -0.7763   21.0693 C   0  0  0  0  0  0  0  0  0  0  0  0
    9.4605   -0.3085   20.4146 H   0  0  0  0  0  0  0  0  0  0  0  0
    9.2397   -1.6736   22.4466 S   0  0  0  0  0  0  0  0  0  0  0  0
    7.5888   -1.9872   22.9110 C   0  0  0  0  0  0  0  0  0  0  0  0
    7.2386   -2.7884   24.1098 C   0  0  0  0  0  0  0  0  0  0  0  0
    8.1993   -3.5667   24.7784 C   0  0  0  0  0  0  0  0  0  0  0  0
    9.2223   -3.5829   24.4127 H   0  0  0  0  0  0  0  0  0  0  0  0
    7.8477   -4.3165   25.9027 C   0  0  0  0  0  0  0  0  0  0  0  0
    8.6057   -4.9081   26.4039 H   0  0  0  0  0  0  0  0  0  0  0  0
    6.5343   -4.3119   26.3888 C   0  0  0  0  0  0  0  0  0  0  0  0
    6.2653   -4.8963   27.2627 H   0  0  0  0  0  0  0  0  0  0  0  0
    5.5662   -3.5451   25.7394 C   0  0  0  0  0  0  0  0  0  0  0  0
    4.5368   -3.5202   26.0961 H   0  0  0  0  0  0  0  0  0  0  0  0
    5.9250   -2.7989   24.6181 C   0  0  0  0  0  0  0  0  0  0  0  0
    5.1595   -2.2115   24.1518 H   0  0  0  0  0  0  0  0  0  0  0  0
    6.7428   -1.4038   22.0139 C   0  0  0  0  0  0  0  0  0  0  0  0
    5.6645   -1.5006   22.0193 H   0  0  0  0  0  0  0  0  0  0  0  0
    5.4342    0.6552   20.1475 C   0  0  0  0  0  0  0  0  0  0  0  0
    5.0174    0.6370   21.1609 H   0  0  0  0  0  0  0  0  0  0  0  0
    4.8014    1.3157   19.0980 C   0  0  0  0  0  0  0  0  0  0  0  0
    3.8678    1.8467   19.2555 H   0  0  0  0  0  0  0  0  0  0  0  0
  1  2  1  0
  2  3  2  0
  3  4  1  0
  4  5  1  0
  4  6  2  0
  6  7  1  0
  7  8  2  0
  8  9  1  0
  8 10  1  0
 10 11  1  0
 11 12  1  0
 12 13  2  0
 13 14  1  0
 13 15  1  0
 15 16  1  0
 15 17  2  0
 17 18  1  0
 17 19  1  0
 19 20  1  0
 19 21  2  0
 21 22  1  0
 11 23  2  0
 23 24  1  0
  6 25  1  0
 25 26  1  0
 25 27  2  0
 27 28  1  0
 27  2  1  0
 23  7  1  0
 21 12  1  0
M  END
>  <cnnaffinity>  (1) 
-4.73098

>  <filename>  (1) 
c1ccc(-c2cc(-c3cccnc3)cs2)cc1

$$$$
