
     RDKit          3D

 40 43  0  0  0  0  0  0  0  0999 V2000
    7.1980   -6.3271   29.6835 H   0  0  0  0  0  0  0  0  0  0  0  0
    6.5554   -5.6204   29.1553 C   0  0  0  0  0  0  0  0  0  0  0  0
    7.1760   -4.8491   28.2594 N   0  0  0  0  0  0  0  0  0  0  0  0
    6.4410   -3.9263   27.6243 C   0  0  0  0  0  0  0  0  0  0  0  0
    7.1128   -3.0957   26.7406 N   0  0  0  0  0  0  0  0  0  0  0  0
    8.1865   -3.6463   25.8938 C   0  0  0  0  0  0  0  0  0  0  0  0
    8.9929   -4.0428   26.5274 H   0  0  0  0  0  0  0  0  0  0  0  0
    7.7860   -4.4880   25.3079 H   0  0  0  0  0  0  0  0  0  0  0  0
    8.7930   -2.6068   24.9126 C   0  0  0  0  0  0  0  0  0  0  0  0
    9.3904   -3.1392   24.1702 H   0  0  0  0  0  0  0  0  0  0  0  0
    9.4687   -1.9351   25.4645 H   0  0  0  0  0  0  0  0  0  0  0  0
    7.7584   -1.8113   24.2360 N   0  0  0  0  0  0  0  0  0  0  0  0
    7.7833   -1.4652   22.9227 C   0  0  0  0  0  0  0  0  0  0  0  0
    6.9001   -0.7684   22.2823 N   0  0  0  0  0  0  0  0  0  0  0  0
    7.3854   -0.7050   20.9825 C   0  0  0  0  0  0  0  0  0  0  0  0
    6.6517    0.0042   19.9253 C   0  0  0  0  0  0  0  0  0  0  0  0
    7.1618    0.0549   18.6159 C   0  0  0  0  0  0  0  0  0  0  0  0
    8.1092   -0.4173   18.3619 H   0  0  0  0  0  0  0  0  0  0  0  0
    6.5597    0.6683   17.5953 N   0  0  0  0  0  0  0  0  0  0  0  0
    5.3989    1.2893   17.8444 C   0  0  0  0  0  0  0  0  0  0  0  0
    4.9405    1.7891   16.9928 H   0  0  0  0  0  0  0  0  0  0  0  0
    4.8001    1.3086   19.1085 C   0  0  0  0  0  0  0  0  0  0  0  0
    3.8683    1.8441   19.2424 H   0  0  0  0  0  0  0  0  0  0  0  0
    5.4273    0.6553   20.1689 C   0  0  0  0  0  0  0  0  0  0  0  0
    4.9939    0.6455   21.1696 H   0  0  0  0  0  0  0  0  0  0  0  0
    8.5587   -1.3788   20.9206 C   0  0  0  0  0  0  0  0  0  0  0  0
    9.2816   -1.5845   20.1511 H   0  0  0  0  0  0  0  0  0  0  0  0
    8.8277   -1.8815   22.1763 O   0  0  0  0  0  0  0  0  0  0  0  0
    6.6535   -1.3005   25.0621 C   0  0  0  0  0  0  0  0  0  0  0  0
    5.7008   -1.6933   24.6799 H   0  0  0  0  0  0  0  0  0  0  0  0
    6.6155   -0.2061   24.9874 H   0  0  0  0  0  0  0  0  0  0  0  0
    6.8142   -1.6756   26.5566 C   0  0  0  0  0  0  0  0  0  0  0  0
    5.9071   -1.3918   27.0970 H   0  0  0  0  0  0  0  0  0  0  0  0
    7.6388   -1.0744   26.9782 H   0  0  0  0  0  0  0  0  0  0  0  0
    5.0495   -3.7963   27.8262 C   0  0  0  0  0  0  0  0  0  0  0  0
    4.5282   -3.0633   27.2298 H   0  0  0  0  0  0  0  0  0  0  0  0
    4.4069   -4.6341   28.7355 C   0  0  0  0  0  0  0  0  0  0  0  0
    3.3277   -4.5645   28.9055 H   0  0  0  0  0  0  0  0  0  0  0  0
    5.1890   -5.5658   29.4321 C   0  0  0  0  0  0  0  0  0  0  0  0
    4.7714   -6.2496   30.1622 H   0  0  0  0  0  0  0  0  0  0  0  0
  1  2  1  0
  2  3  2  0
  3  4  1  0
  4  5  1  0
  5  6  1  0
  6  7  1  0
  6  8  1  0
  6  9  1  0
  9 10  1  0
  9 11  1  0
  9 12  1  0
 12 13  1  0
 13 14  2  0
 14 15  1  0
 15 16  1  0
 16 17  2  0
 17 18  1  0
 17 19  1  0
 19 20  2  0
 20 21  1  0
 20 22  1  0
 22 23  1  0
 22 24  2  0
 24 25  1  0
 15 26  2  0
 26 27  1  0
 26 28  1  0
 12 29  1  0
 29 30  1  0
 29 31  1  0
 29 32  1  0
 32 33  1  0
 32 34  1  0
  4 35  2  0
 35 36  1  0
 35 37  1  0
 37 38  1  0
 37 39  2  0
 39 40  1  0
 39  2  1  0
 32  5  1  0
 28 13  1  0
 24 16  1  0
M  END
>  <cnnaffinity>  (1) 
-4.99139

>  <filename>  (1) 
c1ccc(N2CCN(c3nc(-c4cccnc4)co3)CC2)nc1

$$$$
