
     RDKit          3D

 32 34  0  0  0  0  0  0  0  0999 V2000
    8.2164    3.8207   21.1848 H   0  0  0  0  0  0  0  0  0  0  0  0
    8.8222    3.0677   21.6726 C   0  0  0  0  0  0  0  0  0  0  0  0
    9.0214    1.9159   21.0219 N   0  0  0  0  0  0  0  0  0  0  0  0
    9.7019    0.9552   21.6643 C   0  0  0  0  0  0  0  0  0  0  0  0
    9.8382   -0.3600   20.9386 C   0  0  0  0  0  0  0  0  0  0  0  0
   10.7404   -0.8778   21.2849 H   0  0  0  0  0  0  0  0  0  0  0  0
    9.9318   -0.1845   19.8689 H   0  0  0  0  0  0  0  0  0  0  0  0
    8.6504   -1.3229   21.0837 C   0  0  2  0  0  0  0  0  0  0  0  0
    8.8348   -2.1468   20.3775 H   0  0  0  0  0  0  0  0  0  0  0  0
    7.3101   -0.7689   20.9652 N   0  0  0  0  0  0  0  0  0  0  0  0
    6.6793   -0.0693   19.9508 C   0  0  0  0  0  0  0  0  0  0  0  0
    7.1986    0.0213   18.6222 C   0  0  0  0  0  0  0  0  0  0  0  0
    8.1502   -0.4480   18.3724 H   0  0  0  0  0  0  0  0  0  0  0  0
    6.5950    0.6553   17.6022 N   0  0  0  0  0  0  0  0  0  0  0  0
    5.4305    1.2705   17.8663 C   0  0  0  0  0  0  0  0  0  0  0  0
    4.9539    1.7738   17.0308 H   0  0  0  0  0  0  0  0  0  0  0  0
    4.8387    1.2788   19.1341 C   0  0  0  0  0  0  0  0  0  0  0  0
    3.9064    1.8140   19.2887 H   0  0  0  0  0  0  0  0  0  0  0  0
    5.4659    0.6082   20.1900 C   0  0  0  0  0  0  0  0  0  0  0  0
    5.0339    0.6098   21.1910 H   0  0  0  0  0  0  0  0  0  0  0  0
    6.9337   -1.0306   22.3456 C   0  0  0  0  0  0  0  0  0  0  0  0
    6.8001   -0.1342   22.9687 H   0  0  0  0  0  0  0  0  0  0  0  0
    6.0347   -1.6470   22.4515 H   0  0  0  0  0  0  0  0  0  0  0  0
    8.2917   -1.7618   22.5203 C   0  0  0  0  0  0  0  0  0  0  0  0
    8.2278   -2.8466   22.6583 H   0  0  0  0  0  0  0  0  0  0  0  0
    8.9570   -1.3418   23.2839 H   0  0  0  0  0  0  0  0  0  0  0  0
   10.2715    1.1571   22.9379 C   0  0  0  0  0  0  0  0  0  0  0  0
   10.8430    0.3543   23.3980 H   0  0  0  0  0  0  0  0  0  0  0  0
   10.0885    2.3813   23.5887 C   0  0  0  0  0  0  0  0  0  0  0  0
   10.5172    2.5745   24.5725 H   0  0  0  0  0  0  0  0  0  0  0  0
    9.3347    3.3569   22.9331 C   0  0  0  0  0  0  0  0  0  0  0  0
    9.1343    4.3390   23.3404 H   0  0  0  0  0  0  0  0  0  0  0  0
  1  2  1  0
  2  3  2  0
  3  4  1  0
  4  5  1  0
  5  6  1  0
  5  7  1  0
  5  8  1  0
  8  9  1  6
  8 10  1  0
 10 11  1  0
 11 12  2  0
 12 13  1  0
 12 14  1  0
 14 15  2  0
 15 16  1  0
 15 17  1  0
 17 18  1  0
 17 19  2  0
 19 20  1  0
 10 21  1  0
 21 22  1  0
 21 23  1  0
 21 24  1  0
 24 25  1  0
 24 26  1  0
  4 27  2  0
 27 28  1  0
 27 29  1  0
 29 30  1  0
 29 31  2  0
 31 32  1  0
 31  2  1  0
 24  8  1  0
 19 11  1  0
M  END
>  <cnnaffinity>  (1) 
-4.84577

>  <filename>  (1) 
c1ccc(C[C@H]2CCN2c2cccnc2)nc1

$$$$
