
     RDKit          3D

 33 35  0  0  0  0  0  0  0  0999 V2000
    5.0602    1.9904   16.7815 H   0  0  0  0  0  0  0  0  0  0  0  0
    5.4958    1.4272   17.6017 C   0  0  0  0  0  0  0  0  0  0  0  0
    6.6276    0.7572   17.3218 N   0  0  0  0  0  0  0  0  0  0  0  0
    7.1771    0.0523   18.3160 C   0  0  0  0  0  0  0  0  0  0  0  0
    8.0964   -0.4813   18.0698 H   0  0  0  0  0  0  0  0  0  0  0  0
    6.6257   -0.0600   19.6114 C   0  0  0  0  0  0  0  0  0  0  0  0
    7.2236   -0.9243   20.6365 C   0  0  0  0  0  0  0  0  0  0  0  0
    6.6882   -1.7323   21.6078 C   0  0  0  0  0  0  0  0  0  0  0  0
    5.6449   -1.8881   21.8486 H   0  0  0  0  0  0  0  0  0  0  0  0
    7.6765   -2.4046   22.2696 N   0  0  0  0  0  0  0  0  0  0  0  0
    8.8129   -2.0001   21.7446 C   0  0  0  0  0  0  0  0  0  0  0  0
   10.1888   -2.4143   22.2270 C   0  0  0  0  0  0  0  0  0  0  0  0
   10.9087   -2.2871   21.4111 H   0  0  0  0  0  0  0  0  0  0  0  0
   10.1357   -3.4769   22.4659 H   0  0  0  0  0  0  0  0  0  0  0  0
   10.7308   -1.7807   23.4283 N   0  0  0  0  0  0  0  0  0  0  0  0
   10.3009   -2.1538   24.2653 H   0  0  0  0  0  0  0  0  0  0  0  0
   10.8276   -0.3892   23.5362 C   0  0  0  0  0  0  0  0  0  0  0  0
   11.2300    0.4277   22.4701 C   0  0  0  0  0  0  0  0  0  0  0  0
   11.5614   -0.0416   21.5490 H   0  0  0  0  0  0  0  0  0  0  0  0
   11.2647    1.8176   22.6444 C   0  0  0  0  0  0  0  0  0  0  0  0
   11.5226    2.4531   21.7987 H   0  0  0  0  0  0  0  0  0  0  0  0
   10.9223    2.3840   23.8779 C   0  0  0  0  0  0  0  0  0  0  0  0
   10.9655    3.4615   24.0138 H   0  0  0  0  0  0  0  0  0  0  0  0
   10.5493    1.5638   24.9516 C   0  0  0  0  0  0  0  0  0  0  0  0
   10.2754    2.0017   25.9120 H   0  0  0  0  0  0  0  0  0  0  0  0
   10.5493    0.1784   24.7872 C   0  0  0  0  0  0  0  0  0  0  0  0
   10.3592   -0.5003   25.6173 H   0  0  0  0  0  0  0  0  0  0  0  0
    8.5869   -1.1251   20.7247 N   0  0  0  0  0  0  0  0  0  0  0  0
    9.2752   -0.5891   20.2264 H   0  0  0  0  0  0  0  0  0  0  0  0
    5.4499    0.6613   19.8783 C   0  0  0  0  0  0  0  0  0  0  0  0
    5.0160    0.6386   20.8792 H   0  0  0  0  0  0  0  0  0  0  0  0
    4.8821    1.4238   18.8591 C   0  0  0  0  0  0  0  0  0  0  0  0
    3.9969    2.0282   19.0281 H   0  0  0  0  0  0  0  0  0  0  0  0
  1  2  1  0
  2  3  2  0
  3  4  1  0
  4  5  1  0
  4  6  2  0
  6  7  1  0
  7  8  2  0
  8  9  1  0
  8 10  1  0
 10 11  2  0
 11 12  1  0
 12 13  1  0
 12 14  1  0
 12 15  1  0
 15 16  1  0
 15 17  1  0
 17 18  2  0
 18 19  1  0
 18 20  1  0
 20 21  1  0
 20 22  2  0
 22 23  1  0
 22 24  1  0
 24 25  1  0
 24 26  2  0
 26 27  1  0
 11 28  1  0
 28 29  1  0
  6 30  1  0
 30 31  1  0
 30 32  2  0
 32 33  1  0
 32  2  1  0
 28  7  1  0
 26 17  1  0
M  END
>  <cnnaffinity>  (1) 
-5.21184

>  <filename>  (1) 
c1ccc(NCc2ncc(-c3cccnc3)[nH]2)cc1

$$$$
