
     RDKit          3D

 28 30  0  0  0  0  0  0  0  0999 V2000
    4.9032    1.8211   16.9802 H   0  0  0  0  0  0  0  0  0  0  0  0
    5.3750    1.3101   17.8153 C   0  0  0  0  0  0  0  0  0  0  0  0
    6.5315    0.6876   17.5495 N   0  0  0  0  0  0  0  0  0  0  0  0
    7.1655    0.0926   18.5660 C   0  0  0  0  0  0  0  0  0  0  0  0
    8.1039   -0.3962   18.3028 H   0  0  0  0  0  0  0  0  0  0  0  0
    6.6868    0.0785   19.8968 C   0  0  0  0  0  0  0  0  0  0  0  0
    7.4277   -0.6197   20.9732 C   0  0  0  0  0  0  0  0  0  0  0  0
    7.8936   -1.9075   21.0674 C   0  0  0  0  0  0  0  0  0  0  0  0
    7.7204   -2.7479   20.4228 H   0  0  0  0  0  0  0  0  0  0  0  0
    8.6033   -2.0528   22.2159 N   0  0  0  0  0  0  0  0  0  0  0  0
    8.5875   -0.9371   22.8683 N   0  0  0  0  0  0  0  0  0  0  0  0
    7.8528   -0.0540   22.1548 N   0  0  0  0  0  0  0  0  0  0  0  0
    7.4026    1.4400   22.8845 S   0  0  0  0  0  0  0  0  0  0  0  0
    6.3182    0.8678   24.2158 C   0  0  0  0  0  0  0  0  0  0  0  0
    6.8570    0.2119   25.3348 C   0  0  0  0  0  0  0  0  0  0  0  0
    7.9284    0.0355   25.3708 H   0  0  0  0  0  0  0  0  0  0  0  0
    6.0112   -0.2641   26.3429 C   0  0  0  0  0  0  0  0  0  0  0  0
    6.4353   -0.7763   27.2019 H   0  0  0  0  0  0  0  0  0  0  0  0
    4.6259   -0.1045   26.2372 C   0  0  0  0  0  0  0  0  0  0  0  0
    3.9696   -0.5128   27.0025 H   0  0  0  0  0  0  0  0  0  0  0  0
    4.0846    0.5400   25.1215 C   0  0  0  0  0  0  0  0  0  0  0  0
    3.0069    0.6395   25.0226 H   0  0  0  0  0  0  0  0  0  0  0  0
    4.9303    1.0358   24.1197 C   0  0  0  0  0  0  0  0  0  0  0  0
    4.5273    1.5235   23.2369 H   0  0  0  0  0  0  0  0  0  0  0  0
    5.4504    0.6956   20.1318 C   0  0  0  0  0  0  0  0  0  0  0  0
    5.0013    0.6581   21.1201 H   0  0  0  0  0  0  0  0  0  0  0  0
    4.7875    1.3283   19.0794 C   0  0  0  0  0  0  0  0  0  0  0  0
    3.8456    1.8433   19.2259 H   0  0  0  0  0  0  0  0  0  0  0  0
  1  2  1  0
  2  3  2  0
  3  4  1  0
  4  5  1  0
  4  6  2  0
  6  7  1  0
  7  8  2  0
  8  9  1  0
  8 10  1  0
 10 11  2  0
 11 12  1  0
 12 13  1  0
 13 14  1  0
 14 15  2  0
 15 16  1  0
 15 17  1  0
 17 18  1  0
 17 19  2  0
 19 20  1  0
 19 21  1  0
 21 22  1  0
 21 23  2  0
 23 24  1  0
  6 25  1  0
 25 26  1  0
 25 27  2  0
 27 28  1  0
 27  2  1  0
 12  7  1  0
 23 14  1  0
M  END
>  <cnnaffinity>  (1) 
-4.61445

>  <filename>  (1) 
c1ccc(Sn2nncc2-c2cccnc2)cc1

$$$$
