
     RDKit          3D

 35 37  0  0  0  0  0  0  0  0999 V2000
    9.8508   -1.4364   22.7142 H   0  0  0  0  0  0  0  0  0  0  0  0
    8.9013   -1.3480   22.2014 C   0  0  0  0  0  0  0  0  0  0  0  0
    8.7116   -0.5026   21.1562 N   0  0  0  0  0  0  0  0  0  0  0  0
    7.4356   -0.6914   20.8767 C   0  0  0  0  0  0  0  0  0  0  0  0
    6.6750    0.0433   19.8690 C   0  0  0  0  0  0  0  0  0  0  0  0
    7.2198    0.1141   18.5840 C   0  0  0  0  0  0  0  0  0  0  0  0
    8.1743   -0.3640   18.3748 H   0  0  0  0  0  0  0  0  0  0  0  0
    6.6078    0.7081   17.5570 N   0  0  0  0  0  0  0  0  0  0  0  0
    5.4297    1.3014   17.8006 C   0  0  0  0  0  0  0  0  0  0  0  0
    4.9594    1.7997   16.9531 H   0  0  0  0  0  0  0  0  0  0  0  0
    4.8155    1.3103   19.0561 C   0  0  0  0  0  0  0  0  0  0  0  0
    3.8725    1.8279   19.1921 H   0  0  0  0  0  0  0  0  0  0  0  0
    5.4441    0.6671   20.1201 C   0  0  0  0  0  0  0  0  0  0  0  0
    4.9953    0.6665   21.1192 H   0  0  0  0  0  0  0  0  0  0  0  0
    6.9151   -1.6470   21.7023 N   0  0  0  0  0  0  0  0  0  0  0  0
    5.6960   -2.3473   21.5923 N   0  0  0  0  0  0  0  0  0  0  0  0
    4.9888   -1.6312   21.4624 H   0  0  0  0  0  0  0  0  0  0  0  0
    5.3304   -3.1462   22.7771 C   0  0  0  0  0  0  0  0  0  0  0  0
    4.2386   -3.1379   22.8433 H   0  0  0  0  0  0  0  0  0  0  0  0
    5.7268   -2.7036   23.7045 H   0  0  0  0  0  0  0  0  0  0  0  0
    5.7590   -4.6090   22.6594 C   0  0  0  0  0  0  0  0  0  0  0  0
    5.3912   -5.0139   21.7061 H   0  0  0  0  0  0  0  0  0  0  0  0
    6.8542   -4.6554   22.6328 H   0  0  0  0  0  0  0  0  0  0  0  0
    5.2061   -5.4080   23.8254 C   0  0  0  0  0  0  0  0  0  0  0  0
    5.9241   -5.5227   25.0286 C   0  0  0  0  0  0  0  0  0  0  0  0
    6.8817   -5.0155   25.1371 H   0  0  0  0  0  0  0  0  0  0  0  0
    5.4296   -6.2904   26.0895 C   0  0  0  0  0  0  0  0  0  0  0  0
    6.0149   -6.3949   27.0016 H   0  0  0  0  0  0  0  0  0  0  0  0
    4.1866   -6.9233   25.9777 C   0  0  0  0  0  0  0  0  0  0  0  0
    3.8074   -7.5293   26.7983 H   0  0  0  0  0  0  0  0  0  0  0  0
    3.4258   -6.7553   24.8147 C   0  0  0  0  0  0  0  0  0  0  0  0
    2.4420   -7.2141   24.7350 H   0  0  0  0  0  0  0  0  0  0  0  0
    3.9291   -5.9923   23.7543 C   0  0  0  0  0  0  0  0  0  0  0  0
    3.3306   -5.8569   22.8554 H   0  0  0  0  0  0  0  0  0  0  0  0
    7.8627   -2.0720   22.5514 N   0  0  0  0  0  0  0  0  0  0  0  0
  1  2  1  0
  2  3  1  0
  3  4  2  0
  4  5  1  0
  5  6  2  0
  6  7  1  0
  6  8  1  0
  8  9  2  0
  9 10  1  0
  9 11  1  0
 11 12  1  0
 11 13  2  0
 13 14  1  0
  4 15  1  0
 15 16  1  0
 16 17  1  0
 16 18  1  0
 18 19  1  0
 18 20  1  0
 18 21  1  0
 21 22  1  0
 21 23  1  0
 21 24  1  0
 24 25  2  0
 25 26  1  0
 25 27  1  0
 27 28  1  0
 27 29  2  0
 29 30  1  0
 29 31  1  0
 31 32  1  0
 31 33  2  0
 33 34  1  0
 15 35  1  0
 35  2  2  0
 13  5  1  0
 33 24  1  0
M  END
>  <cnnaffinity>  (1) 
-4.98779

>  <filename>  (1) 
c1ccc(CCNn2ncnc2-c2cccnc2)cc1

$$$$
