
     RDKit          3D

 43 47  0  0  0  0  0  0  0  0999 V2000
   13.4313    2.6282   22.7421 C   0  0  0  0  0  0  0  0  0  0  0  0
   13.1228    1.9762   23.9152 C   0  0  0  0  0  0  0  0  0  0  0  0
   11.7363    1.5863   24.1130 C   0  0  0  0  0  0  0  0  0  0  0  0
   11.0985    1.9112   22.9144 C   0  0  0  0  0  0  0  0  0  0  0  0
    9.7708    1.6026   22.5513 N   0  0  0  0  0  0  0  0  0  0  0  0
    9.4875    0.7533   21.5257 N   0  0  0  0  0  0  0  0  0  0  0  0
    8.2649    0.3617   21.8034 C   0  0  0  0  0  0  0  0  0  0  0  0
    7.5598   -0.6227   20.9222 C   0  0  0  0  0  0  0  0  0  0  0  0
    6.8599    0.0375   19.7421 C   0  0  0  0  0  0  0  0  0  0  0  0
    5.7520    0.8578   19.9901 C   0  0  0  0  0  0  0  0  0  0  0  0
    5.1065    1.4584   18.9110 C   0  0  0  0  0  0  0  0  0  0  0  0
    5.6067    1.2469   17.6235 C   0  0  0  0  0  0  0  0  0  0  0  0
    6.6902    0.4990   17.3656 N   0  0  0  0  0  0  0  0  0  0  0  0
    7.2993   -0.0763   18.4119 C   0  0  0  0  0  0  0  0  0  0  0  0
    8.1978   -0.6547   18.1900 H   0  0  0  0  0  0  0  0  0  0  0  0
    5.1198    1.7141   16.7686 H   0  0  0  0  0  0  0  0  0  0  0  0
    4.2305    2.0790   19.0598 H   0  0  0  0  0  0  0  0  0  0  0  0
    5.4101    1.0213   21.0150 H   0  0  0  0  0  0  0  0  0  0  0  0
    8.3087   -1.3496   20.5894 H   0  0  0  0  0  0  0  0  0  0  0  0
    6.8333   -1.1418   21.5583 H   0  0  0  0  0  0  0  0  0  0  0  0
    7.7229    0.9025   22.9228 N   0  0  0  0  0  0  0  0  0  0  0  0
    8.6768    1.7100   23.3577 C   0  0  0  0  0  0  0  0  0  0  0  0
    8.6442    2.6447   24.5104 C   0  0  0  0  0  0  0  0  0  0  0  0
    8.1704    2.2412   25.7688 C   0  0  0  0  0  0  0  0  0  0  0  0
    8.1376    3.1463   26.8442 C   0  0  0  0  0  0  0  0  0  0  0  0
    8.5191    4.4308   26.7799 N   0  0  0  0  0  0  0  0  0  0  0  0
    8.9639    4.7954   25.5794 C   0  0  0  0  0  0  0  0  0  0  0  0
    9.1068    3.9890   24.4154 C   0  0  0  0  0  0  0  0  0  0  0  0
    9.6718    4.8644   23.4202 C   0  0  0  0  0  0  0  0  0  0  0  0
    9.8021    6.1081   23.9689 C   0  0  0  0  0  0  0  0  0  0  0  0
    9.3695    6.0587   25.2723 N   0  0  0  0  0  0  0  0  0  0  0  0
    9.3449    6.7796   25.9743 H   0  0  0  0  0  0  0  0  0  0  0  0
   10.1375    7.0296   23.5000 H   0  0  0  0  0  0  0  0  0  0  0  0
    9.9905    4.5863   22.4249 H   0  0  0  0  0  0  0  0  0  0  0  0
    7.7821    2.8094   27.8138 H   0  0  0  0  0  0  0  0  0  0  0  0
    7.8508    1.2190   25.9397 H   0  0  0  0  0  0  0  0  0  0  0  0
   11.9361    3.0067   20.6858 C   0  0  0  0  0  0  0  0  0  0  0  0
   12.1697    2.6147   21.9371 C   0  0  0  0  0  0  0  0  0  0  0  0
   12.7076    3.5461   20.1286 H   0  0  0  0  0  0  0  0  0  0  0  0
   10.9691    2.7792   20.2342 H   0  0  0  0  0  0  0  0  0  0  0  0
   11.3148    1.1140   24.9981 H   0  0  0  0  0  0  0  0  0  0  0  0
   13.8719    1.6427   24.6055 H   0  0  0  0  0  0  0  0  0  0  0  0
   14.3784    3.0531   22.4366 H   0  0  0  0  0  0  0  0  0  0  0  0
  1  2  2  0
  2  3  1  0
  3  4  2  0
  4  5  1  0
  5  6  1  0
  6  7  2  0
  7  8  1  0
  8  9  1  0
  9 10  2  0
 10 11  1  0
 11 12  2  0
 12 13  1  0
 13 14  2  0
 14 15  1  0
 12 16  1  0
 11 17  1  0
 10 18  1  0
  8 19  1  0
  8 20  1  0
  7 21  1  0
 21 22  2  0
 22 23  1  0
 23 24  2  0
 24 25  1  0
 25 26  2  0
 26 27  1  0
 27 28  2  0
 28 29  1  0
 29 30  2  0
 30 31  1  0
 31 32  1  0
 30 33  1  0
 29 34  1  0
 25 35  1  0
 24 36  1  0
  4 37  1  0
 37 38  2  0
 38 39  1  0
 37 40  1  0
  3 41  1  0
  2 42  1  0
  1 43  1  0
 38  1  1  0
 22  5  1  0
 28 23  1  0
 14  9  1  0
 31 27  1  0
M  END
>  <cnnaffinity>  (1) 
-5.96101

>  <filename>  (1) 
c1ccc(-n2nc(Cc3cccnc3)nc2-c2ccnc3[nH]ccc23)cc1

$$$$
