
     RDKit          3D

 40 43  0  0  0  0  0  0  0  0999 V2000
    9.7088   -2.4168   22.2462 H   0  0  0  0  0  0  0  0  0  0  0  0
    8.8256   -1.8374   22.0232 C   0  0  0  0  0  0  0  0  0  0  0  0
    8.5288   -1.3251   20.7686 N   0  0  0  0  0  0  0  0  0  0  0  0
    7.4069   -0.7081   20.9359 C   0  0  0  0  0  0  0  0  0  0  0  0
    6.6492    0.0104   19.9217 C   0  0  0  0  0  0  0  0  0  0  0  0
    7.1749    0.0550   18.6194 C   0  0  0  0  0  0  0  0  0  0  0  0
    8.1200   -0.4298   18.3873 H   0  0  0  0  0  0  0  0  0  0  0  0
    6.5713    0.6689   17.5972 N   0  0  0  0  0  0  0  0  0  0  0  0
    5.4066    1.2866   17.8489 C   0  0  0  0  0  0  0  0  0  0  0  0
    4.9252    1.7735   17.0028 H   0  0  0  0  0  0  0  0  0  0  0  0
    4.8037    1.3095   19.1130 C   0  0  0  0  0  0  0  0  0  0  0  0
    3.8720    1.8446   19.2579 H   0  0  0  0  0  0  0  0  0  0  0  0
    5.4268    0.6563   20.1733 C   0  0  0  0  0  0  0  0  0  0  0  0
    4.9895    0.6400   21.1745 H   0  0  0  0  0  0  0  0  0  0  0  0
    6.9187   -0.7690   22.2152 O   0  0  0  0  0  0  0  0  0  0  0  0
    7.8477   -1.4989   22.9003 C   0  0  0  0  0  0  0  0  0  0  0  0
    7.6741   -1.7506   24.2367 N   0  0  0  0  0  0  0  0  0  0  0  0
    8.7530   -2.4588   24.9513 C   0  0  0  0  0  0  0  0  0  0  0  0
    9.7022   -1.9186   24.8160 H   0  0  0  0  0  0  0  0  0  0  0  0
    8.9013   -3.4576   24.5184 H   0  0  0  0  0  0  0  0  0  0  0  0
    8.4776   -2.6088   26.4635 C   0  0  0  0  0  0  0  0  0  0  0  0
    9.2442   -3.2502   26.8993 H   0  0  0  0  0  0  0  0  0  0  0  0
    8.6151   -1.6225   26.9311 H   0  0  0  0  0  0  0  0  0  0  0  0
    7.1326   -3.1177   26.7389 N   0  0  0  0  0  0  0  0  0  0  0  0
    6.8434   -4.1698   27.6006 C   0  0  0  0  0  0  0  0  0  0  0  0
    5.7287   -4.0627   28.3431 N   0  0  0  0  0  0  0  0  0  0  0  0
    5.4771   -5.0466   29.2132 C   0  0  0  0  0  0  0  0  0  0  0  0
    4.5864   -4.9258   29.8257 H   0  0  0  0  0  0  0  0  0  0  0  0
    6.2490   -6.1980   29.3566 C   0  0  0  0  0  0  0  0  0  0  0  0
    5.9650   -6.9732   30.0574 H   0  0  0  0  0  0  0  0  0  0  0  0
    7.3813   -6.3323   28.5487 C   0  0  0  0  0  0  0  0  0  0  0  0
    8.0115   -7.2211   28.6055 H   0  0  0  0  0  0  0  0  0  0  0  0
    7.6898   -5.3017   27.6676 C   0  0  0  0  0  0  0  0  0  0  0  0
    8.5346   -5.3672   26.9970 H   0  0  0  0  0  0  0  0  0  0  0  0
    6.0452   -2.4393   26.0082 C   0  0  0  0  0  0  0  0  0  0  0  0
    5.4715   -3.1679   25.4191 H   0  0  0  0  0  0  0  0  0  0  0  0
    5.3440   -1.9952   26.7237 H   0  0  0  0  0  0  0  0  0  0  0  0
    6.5291   -1.3269   25.0407 C   0  0  0  0  0  0  0  0  0  0  0  0
    6.7846   -0.4263   25.6184 H   0  0  0  0  0  0  0  0  0  0  0  0
    5.7083   -1.0430   24.3844 H   0  0  0  0  0  0  0  0  0  0  0  0
  1  2  1  0
  2  3  1  0
  3  4  2  0
  4  5  1  0
  5  6  2  0
  6  7  1  0
  6  8  1  0
  8  9  2  0
  9 10  1  0
  9 11  1  0
 11 12  1  0
 11 13  2  0
 13 14  1  0
  4 15  1  0
 15 16  1  0
 16 17  1  0
 17 18  1  0
 18 19  1  0
 18 20  1  0
 18 21  1  0
 21 22  1  0
 21 23  1  0
 21 24  1  0
 24 25  1  0
 25 26  2  0
 26 27  1  0
 27 28  1  0
 27 29  2  0
 29 30  1  0
 29 31  1  0
 31 32  1  0
 31 33  2  0
 33 34  1  0
 24 35  1  0
 35 36  1  0
 35 37  1  0
 35 38  1  0
 38 39  1  0
 38 40  1  0
 16  2  2  0
 38 17  1  0
 13  5  1  0
 33 25  1  0
M  END
>  <cnnaffinity>  (1) 
-5.03148

>  <filename>  (1) 
c1ccc(N2CCN(c3cnc(-c4cccnc4)o3)CC2)nc1

$$$$
