
     RDKit          3D

 38 41  0  0  0  0  0  0  0  0999 V2000
    4.9421    1.7989   16.9419 H   0  0  0  0  0  0  0  0  0  0  0  0
    5.4034    1.3223   17.8112 C   0  0  0  0  0  0  0  0  0  0  0  0
    6.5776    0.7026   17.6024 N   0  0  0  0  0  0  0  0  0  0  0  0
    7.1420    0.0846   18.6486 C   0  0  0  0  0  0  0  0  0  0  0  0
    8.1021   -0.3956   18.4588 H   0  0  0  0  0  0  0  0  0  0  0  0
    6.5957    0.0482   19.9464 C   0  0  0  0  0  0  0  0  0  0  0  0
    7.2647   -0.6827   21.0514 C   0  0  0  0  0  0  0  0  0  0  0  0
    7.6382   -0.1332   22.2629 C   0  0  0  0  0  0  0  0  0  0  0  0
    7.3613    1.2114   22.8029 C   0  0  0  0  0  0  0  0  0  0  0  0
    7.6082    2.3439   22.0099 C   0  0  0  0  0  0  0  0  0  0  0  0
    7.9825    2.2125   20.9985 H   0  0  0  0  0  0  0  0  0  0  0  0
    7.3317    3.6194   22.5043 C   0  0  0  0  0  0  0  0  0  0  0  0
    7.4965    4.4879   21.8725 H   0  0  0  0  0  0  0  0  0  0  0  0
    6.8094    3.7755   23.7920 C   0  0  0  0  0  0  0  0  0  0  0  0
    6.5863    4.7715   24.1633 H   0  0  0  0  0  0  0  0  0  0  0  0
    6.5637    2.6570   24.6120 C   0  0  0  0  0  0  0  0  0  0  0  0
    6.0037    2.8000   25.9887 C   0  0  0  0  0  0  0  0  0  0  0  0
    4.9712    3.7170   26.2637 C   0  0  0  0  0  0  0  0  0  0  0  0
    4.5552    4.3106   25.4528 H   0  0  0  0  0  0  0  0  0  0  0  0
    4.4639    3.8534   27.5583 C   0  0  0  0  0  0  0  0  0  0  0  0
    3.6766    4.5749   27.7540 H   0  0  0  0  0  0  0  0  0  0  0  0
    4.9741    3.0713   28.5989 C   0  0  0  0  0  0  0  0  0  0  0  0
    4.5840    3.1817   29.6064 H   0  0  0  0  0  0  0  0  0  0  0  0
    5.9879    2.1441   28.3386 C   0  0  0  0  0  0  0  0  0  0  0  0
    6.3811    1.5225   29.1377 H   0  0  0  0  0  0  0  0  0  0  0  0
    6.4929    2.0051   27.0443 C   0  0  0  0  0  0  0  0  0  0  0  0
    7.2847    1.2851   26.8464 H   0  0  0  0  0  0  0  0  0  0  0  0
    6.8465    1.3817   24.1001 C   0  0  0  0  0  0  0  0  0  0  0  0
    6.6080    0.5080   24.6996 H   0  0  0  0  0  0  0  0  0  0  0  0
    8.5143   -1.2800   23.2120 S   0  0  0  0  0  0  0  0  0  0  0  0
    8.2981   -2.5204   22.0430 C   0  0  0  0  0  0  0  0  0  0  0  0
    8.7371   -3.4973   22.1963 H   0  0  0  0  0  0  0  0  0  0  0  0
    7.5869   -2.0739   20.9774 C   0  0  0  0  0  0  0  0  0  0  0  0
    7.2125   -2.6921   20.1742 H   0  0  0  0  0  0  0  0  0  0  0  0
    5.3846    0.7255   20.1438 C   0  0  0  0  0  0  0  0  0  0  0  0
    4.9551    0.7667   21.1467 H   0  0  0  0  0  0  0  0  0  0  0  0
    4.7717    1.3540   19.0581 C   0  0  0  0  0  0  0  0  0  0  0  0
    3.8168    1.8540   19.1591 H   0  0  0  0  0  0  0  0  0  0  0  0
  1  2  1  0
  2  3  2  0
  3  4  1  0
  4  5  1  0
  4  6  2  0
  6  7  1  0
  7  8  2  0
  8  9  1  0
  9 10  2  0
 10 11  1  0
 10 12  1  0
 12 13  1  0
 12 14  2  0
 14 15  1  0
 14 16  1  0
 16 17  1  0
 17 18  2  0
 18 19  1  0
 18 20  1  0
 20 21  1  0
 20 22  2  0
 22 23  1  0
 22 24  1  0
 24 25  1  0
 24 26  2  0
 26 27  1  0
 16 28  2  0
 28 29  1  0
  8 30  1  0
 30 31  1  0
 31 32  1  0
 31 33  2  0
 33 34  1  0
  6 35  1  0
 35 36  1  0
 35 37  2  0
 37 38  1  0
 37  2  1  0
 33  7  1  0
 28  9  1  0
 26 17  1  0
M  END
>  <cnnaffinity>  (1) 
-5.2041

>  <filename>  (1) 
c1ccc(-c2cccc(-c3sccc3-c3cccnc3)c2)cc1

$$$$
