
     RDKit          3D

 37 39  0  0  0  0  0  0  0  0999 V2000
    3.3702    6.4660   25.0665 C   0  0  0  0  0  0  0  0  0  0  0  0
    3.7533    6.0618   23.7806 C   0  0  0  0  0  0  0  0  0  0  0  0
    4.4799    4.8811   23.5967 C   0  0  0  0  0  0  0  0  0  0  0  0
    4.8326    4.0677   24.6959 C   0  0  0  0  0  0  0  0  0  0  0  0
    5.5836    2.7802   24.5114 C   0  0  0  0  0  0  0  0  0  0  0  0
    6.4151    2.6645   23.4509 N   0  0  0  0  0  0  0  0  0  0  0  0
    7.0887    1.5104   23.3442 C   0  0  0  0  0  0  0  0  0  0  0  0
    7.9580    1.5168   22.2861 N   0  0  0  0  0  0  0  0  0  0  0  0
    8.4625    0.3120   21.6505 C   0  0  0  0  0  0  0  0  0  0  0  0
    7.4163   -0.6342   21.0174 C   0  0  0  0  0  0  0  0  0  0  0  0
    6.6420   -0.0062   19.8816 C   0  0  0  0  0  0  0  0  0  0  0  0
    5.4265    0.6540   20.1222 C   0  0  0  0  0  0  0  0  0  0  0  0
    4.7897    1.3169   19.0730 C   0  0  0  0  0  0  0  0  0  0  0  0
    5.3929    1.3011   17.8129 C   0  0  0  0  0  0  0  0  0  0  0  0
    6.5458    0.6672   17.5492 N   0  0  0  0  0  0  0  0  0  0  0  0
    7.1463    0.0397   18.5675 C   0  0  0  0  0  0  0  0  0  0  0  0
    8.0906   -0.4517   18.3217 H   0  0  0  0  0  0  0  0  0  0  0  0
    4.9357    1.8287   16.9795 H   0  0  0  0  0  0  0  0  0  0  0  0
    3.8593    1.8571   19.2176 H   0  0  0  0  0  0  0  0  0  0  0  0
    4.9997    0.6584   21.1286 H   0  0  0  0  0  0  0  0  0  0  0  0
    7.9539   -1.5273   20.6772 H   0  0  0  0  0  0  0  0  0  0  0  0
    6.7250   -0.9840   21.7958 H   0  0  0  0  0  0  0  0  0  0  0  0
    9.1892    0.6161   20.8868 H   0  0  0  0  0  0  0  0  0  0  0  0
    9.0318   -0.2556   22.3966 H   0  0  0  0  0  0  0  0  0  0  0  0
    7.6821    2.3132   21.7172 H   0  0  0  0  0  0  0  0  0  0  0  0
    6.8828    0.4278   24.2650 C   0  0  0  0  0  0  0  0  0  0  0  0
    6.0340    0.5279   25.3022 N   0  0  0  0  0  0  0  0  0  0  0  0
    5.3962    1.7105   25.4264 C   0  0  0  0  0  0  0  0  0  0  0  0
    4.7031    1.8196   26.2559 H   0  0  0  0  0  0  0  0  0  0  0  0
    7.4098   -0.5092   24.1216 H   0  0  0  0  0  0  0  0  0  0  0  0
    4.4296    4.4886   25.9835 C   0  0  0  0  0  0  0  0  0  0  0  0
    3.7128    5.6720   26.1686 C   0  0  0  0  0  0  0  0  0  0  0  0
    3.4136    5.9736   27.1726 H   0  0  0  0  0  0  0  0  0  0  0  0
    4.6827    3.9034   26.8654 H   0  0  0  0  0  0  0  0  0  0  0  0
    4.7803    4.5827   22.5933 H   0  0  0  0  0  0  0  0  0  0  0  0
    3.4833    6.6708   22.9168 H   0  0  0  0  0  0  0  0  0  0  0  0
    2.8143    7.3890   25.2096 H   0  0  0  0  0  0  0  0  0  0  0  0
  1  2  2  0
  2  3  1  0
  3  4  2  0
  4  5  1  0
  5  6  2  0
  6  7  1  0
  7  8  1  0
  8  9  1  0
  9 10  1  0
 10 11  1  0
 11 12  2  0
 12 13  1  0
 13 14  2  0
 14 15  1  0
 15 16  2  0
 16 17  1  0
 14 18  1  0
 13 19  1  0
 12 20  1  0
 10 21  1  0
 10 22  1  0
  9 23  1  0
  9 24  1  0
  8 25  1  0
  7 26  2  0
 26 27  1  0
 27 28  2  0
 28 29  1  0
 26 30  1  0
  4 31  1  0
 31 32  2  0
 32 33  1  0
 31 34  1  0
  3 35  1  0
  2 36  1  0
  1 37  1  0
 32  1  1  0
 28  5  1  0
 16 11  1  0
M  END
>  <cnnaffinity>  (1) 
-5.2036

>  <filename>  (1) 
c1ccc(-c2cncc(NCCc3cccnc3)n2)cc1

$$$$
