
     RDKit          3D

 31 33  0  0  0  0  0  0  0  0999 V2000
    4.8222    3.4115   27.5347 C   0  0  0  0  0  0  0  0  0  0  0  0
    4.6339    4.2568   26.4392 C   0  0  0  0  0  0  0  0  0  0  0  0
    5.2544    3.9870   25.2164 C   0  0  0  0  0  0  0  0  0  0  0  0
    6.0770    2.8569   25.0781 C   0  0  0  0  0  0  0  0  0  0  0  0
    6.7127    2.5725   23.8245 N   0  0  0  0  0  0  0  0  0  0  0  0
    6.8060    3.3342   22.7073 C   0  0  0  0  0  0  0  0  0  0  0  0
    7.5491    2.7528   21.7929 N   0  0  0  0  0  0  0  0  0  0  0  0
    7.8748    1.5739   22.3926 C   0  0  0  0  0  0  0  0  0  0  0  0
    8.8176    0.3045   21.5882 S   0  0  0  0  0  0  0  0  0  0  0  0
    7.3983   -0.7106   20.9886 C   0  0  0  0  0  0  0  0  0  0  0  0
    6.6202   -0.0284   19.8898 C   0  0  0  0  0  0  0  0  0  0  0  0
    5.4033    0.6211   20.1382 C   0  0  0  0  0  0  0  0  0  0  0  0
    4.7858    1.3038   19.0855 C   0  0  0  0  0  0  0  0  0  0  0  0
    5.3905    1.2978   17.8254 C   0  0  0  0  0  0  0  0  0  0  0  0
    6.5554    0.6826   17.5674 N   0  0  0  0  0  0  0  0  0  0  0  0
    7.1488    0.0558   18.5877 C   0  0  0  0  0  0  0  0  0  0  0  0
    8.1099   -0.4074   18.3722 H   0  0  0  0  0  0  0  0  0  0  0  0
    4.9239    1.7973   16.9799 H   0  0  0  0  0  0  0  0  0  0  0  0
    3.8651    1.8519   19.2397 H   0  0  0  0  0  0  0  0  0  0  0  0
    4.9952    0.6351   21.1534 H   0  0  0  0  0  0  0  0  0  0  0  0
    7.8391   -1.6620   20.6563 H   0  0  0  0  0  0  0  0  0  0  0  0
    6.7623   -0.9312   21.8557 H   0  0  0  0  0  0  0  0  0  0  0  0
    7.4133    1.4219   23.6124 N   0  0  0  0  0  0  0  0  0  0  0  0
    6.3128    4.2924   22.5932 H   0  0  0  0  0  0  0  0  0  0  0  0
    6.2743    2.0073   26.1795 C   0  0  0  0  0  0  0  0  0  0  0  0
    5.6452    2.2873   27.3968 C   0  0  0  0  0  0  0  0  0  0  0  0
    5.7962    1.6192   28.2413 H   0  0  0  0  0  0  0  0  0  0  0  0
    6.9116    1.1327   26.0668 H   0  0  0  0  0  0  0  0  0  0  0  0
    5.0848    4.6602   24.3816 H   0  0  0  0  0  0  0  0  0  0  0  0
    3.9998    5.1360   26.5269 H   0  0  0  0  0  0  0  0  0  0  0  0
    4.3337    3.6241   28.4855 H   0  0  0  0  0  0  0  0  0  0  0  0
  1  2  2  0
  2  3  1  0
  3  4  2  0
  4  5  1  0
  5  6  1  0
  6  7  2  0
  7  8  1  0
  8  9  1  0
  9 10  1  0
 10 11  1  0
 11 12  2  0
 12 13  1  0
 13 14  2  0
 14 15  1  0
 15 16  2  0
 16 17  1  0
 14 18  1  0
 13 19  1  0
 12 20  1  0
 10 21  1  0
 10 22  1  0
  8 23  2  0
  6 24  1  0
  4 25  1  0
 25 26  2  0
 26 27  1  0
 25 28  1  0
  3 29  1  0
  2 30  1  0
  1 31  1  0
 26  1  1  0
 23  5  1  0
 16 11  1  0
M  END
>  <cnnaffinity>  (1) 
-4.72135

>  <filename>  (1) 
c1ccc(-n2cnc(SCc3cccnc3)n2)cc1

$$$$
