
     RDKit          3D

 38 40  0  0  0  0  0  0  0  0999 V2000
    4.9256    1.7745   16.9994 H   0  0  0  0  0  0  0  0  0  0  0  0
    5.4081    1.2872   17.8439 C   0  0  0  0  0  0  0  0  0  0  0  0
    6.5735    0.6708   17.5949 N   0  0  0  0  0  0  0  0  0  0  0  0
    7.1744    0.0503   18.6135 C   0  0  0  0  0  0  0  0  0  0  0  0
    8.1192   -0.4389   18.3866 H   0  0  0  0  0  0  0  0  0  0  0  0
    6.6497    0.0156   19.9072 C   0  0  0  0  0  0  0  0  0  0  0  0
    7.4060   -0.7207   20.9340 C   0  0  0  0  0  0  0  0  0  0  0  0
    8.1630   -1.7159   20.6663 N   0  0  0  0  0  0  0  0  0  0  0  0
    8.6986   -2.2005   21.9390 C   0  0  0  0  0  0  0  0  0  0  0  0
    9.7908   -2.1602   21.9120 H   0  0  0  0  0  0  0  0  0  0  0  0
    8.4219   -3.2484   22.0903 H   0  0  0  0  0  0  0  0  0  0  0  0
    8.1333   -1.3032   23.0564 C   0  0  0  0  0  0  0  0  0  0  0  0
    8.9208   -0.7656   23.6104 H   0  0  0  0  0  0  0  0  0  0  0  0
    7.5384   -1.8711   23.7891 H   0  0  0  0  0  0  0  0  0  0  0  0
    7.3099   -0.3755   22.2932 N   0  0  0  0  0  0  0  0  0  0  0  0
    7.0477    0.9210   22.7834 N   0  0  0  0  0  0  0  0  0  0  0  0
    7.9329    1.4086   22.9618 H   0  0  0  0  0  0  0  0  0  0  0  0
    6.2413    0.9128   24.0035 C   0  0  0  0  0  0  0  0  0  0  0  0
    5.3945    0.2489   23.8414 H   0  0  0  0  0  0  0  0  0  0  0  0
    6.8028    0.4988   24.8576 H   0  0  0  0  0  0  0  0  0  0  0  0
    5.7255    2.3076   24.3363 C   0  0  0  0  0  0  0  0  0  0  0  0
    6.5856    2.9738   24.4802 H   0  0  0  0  0  0  0  0  0  0  0  0
    5.1593    2.6961   23.4810 H   0  0  0  0  0  0  0  0  0  0  0  0
    4.8592    2.2825   25.5743 C   0  0  0  0  0  0  0  0  0  0  0  0
    5.4362    2.4082   26.8475 C   0  0  0  0  0  0  0  0  0  0  0  0
    6.5108    2.5600   26.9329 H   0  0  0  0  0  0  0  0  0  0  0  0
    4.6453    2.3385   27.9982 C   0  0  0  0  0  0  0  0  0  0  0  0
    5.1054    2.4501   28.9765 H   0  0  0  0  0  0  0  0  0  0  0  0
    3.2659    2.1274   27.8872 C   0  0  0  0  0  0  0  0  0  0  0  0
    2.6497    2.0775   28.7802 H   0  0  0  0  0  0  0  0  0  0  0  0
    2.6829    1.9759   26.6237 C   0  0  0  0  0  0  0  0  0  0  0  0
    1.6131    1.8065   26.5300 H   0  0  0  0  0  0  0  0  0  0  0  0
    3.4782    2.0466   25.4765 C   0  0  0  0  0  0  0  0  0  0  0  0
    3.0266    1.9228   24.4956 H   0  0  0  0  0  0  0  0  0  0  0  0
    5.4317    0.6604   20.1609 C   0  0  0  0  0  0  0  0  0  0  0  0
    5.0002    0.6472   21.1666 H   0  0  0  0  0  0  0  0  0  0  0  0
    4.8015    1.3077   19.1059 C   0  0  0  0  0  0  0  0  0  0  0  0
    3.8710    1.8428   19.2581 H   0  0  0  0  0  0  0  0  0  0  0  0
  1  2  1  0
  2  3  2  0
  3  4  1  0
  4  5  1  0
  4  6  2  0
  6  7  1  0
  7  8  2  0
  8  9  1  0
  9 10  1  0
  9 11  1  0
  9 12  1  0
 12 13  1  0
 12 14  1  0
 12 15  1  0
 15 16  1  0
 16 17  1  0
 16 18  1  0
 18 19  1  0
 18 20  1  0
 18 21  1  0
 21 22  1  0
 21 23  1  0
 21 24  1  0
 24 25  2  0
 25 26  1  0
 25 27  1  0
 27 28  1  0
 27 29  2  0
 29 30  1  0
 29 31  1  0
 31 32  1  0
 31 33  2  0
 33 34  1  0
  6 35  1  0
 35 36  1  0
 35 37  2  0
 37 38  1  0
 37  2  1  0
 15  7  1  0
 33 24  1  0
M  END
>  <cnnaffinity>  (1) 
-4.69349

>  <filename>  (1) 
c1ccc(CCNN2CCN=C2c2cccnc2)cc1

$$$$
