
     RDKit          3D

 38 40  0  0  0  0  0  0  0  0999 V2000
    5.0426    1.7802   16.9320 H   0  0  0  0  0  0  0  0  0  0  0  0
    5.4175    1.3186   17.8420 C   0  0  0  0  0  0  0  0  0  0  0  0
    6.5853    0.6787   17.7178 N   0  0  0  0  0  0  0  0  0  0  0  0
    7.0913    0.1114   18.8196 C   0  0  0  0  0  0  0  0  0  0  0  0
    8.0164   -0.4475   18.6732 H   0  0  0  0  0  0  0  0  0  0  0  0
    6.5073    0.1627   20.1040 C   0  0  0  0  0  0  0  0  0  0  0  0
    7.2231   -0.5360   21.2714 C   0  0  1  0  0  0  0  0  0  0  0  0
    6.7131   -0.2943   22.2180 H   0  0  0  0  0  0  0  0  0  0  0  0
    7.1577   -2.0701   21.0549 C   0  0  0  0  0  0  0  0  0  0  0  0
    7.5138   -2.2399   20.0421 H   0  0  0  0  0  0  0  0  0  0  0  0
    6.1199   -2.4113   21.0800 H   0  0  0  0  0  0  0  0  0  0  0  0
    8.0065   -2.9057   22.0203 C   0  0  0  0  0  0  0  0  0  0  0  0
    8.0079   -3.9516   21.6805 H   0  0  0  0  0  0  0  0  0  0  0  0
    7.5675   -2.8817   23.0398 H   0  0  0  0  0  0  0  0  0  0  0  0
    9.3823   -2.4198   21.9865 N   0  0  0  0  0  0  0  0  0  0  0  0
    9.9976   -3.0022   22.5470 H   0  0  0  0  0  0  0  0  0  0  0  0
    9.4933   -1.0133   22.4075 C   0  0  0  0  0  0  0  0  0  0  0  0
   10.5488   -0.7215   22.3789 H   0  0  0  0  0  0  0  0  0  0  0  0
    9.1334   -0.8230   23.4410 H   0  0  0  0  0  0  0  0  0  0  0  0
    8.7340   -0.0919   21.4191 C   0  0  2  0  0  0  0  0  0  0  0  0
    9.2226   -0.2857   20.4536 H   0  0  0  0  0  0  0  0  0  0  0  0
    8.9888    1.3286   21.7289 N   0  0  0  0  0  0  0  0  0  0  0  0
    9.0059    1.8775   20.8806 H   0  0  0  0  0  0  0  0  0  0  0  0
    8.0717    1.9743   22.6660 C   0  0  0  0  0  0  0  0  0  0  0  0
    8.0410    1.3666   23.5784 H   0  0  0  0  0  0  0  0  0  0  0  0
    7.0352    2.0120   22.2885 H   0  0  0  0  0  0  0  0  0  0  0  0
    8.5262    3.3686   22.9974 C   0  0  0  0  0  0  0  0  0  0  0  0
    9.8528    3.6407   24.0735 S   0  0  0  0  0  0  0  0  0  0  0  0
    9.7148    5.3442   23.9031 C   0  0  0  0  0  0  0  0  0  0  0  0
   10.3779    5.9877   24.4627 H   0  0  0  0  0  0  0  0  0  0  0  0
    8.7238    5.6930   23.0454 C   0  0  0  0  0  0  0  0  0  0  0  0
    8.4862    6.7184   22.7798 H   0  0  0  0  0  0  0  0  0  0  0  0
    8.0380    4.5541   22.5284 C   0  0  0  0  0  0  0  0  0  0  0  0
    7.2200    4.6237   21.8196 H   0  0  0  0  0  0  0  0  0  0  0  0
    5.2602    0.8096   20.1948 C   0  0  0  0  0  0  0  0  0  0  0  0
    4.7072    0.8573   21.1350 H   0  0  0  0  0  0  0  0  0  0  0  0
    4.7086    1.3951   19.0442 C   0  0  0  0  0  0  0  0  0  0  0  0
    3.7612    1.9181   19.0588 H   0  0  0  0  0  0  0  0  0  0  0  0
  1  2  1  0
  2  3  2  0
  3  4  1  0
  4  5  1  0
  4  6  2  0
  6  7  1  0
  7  8  1  1
  7  9  1  0
  9 10  1  0
  9 11  1  0
  9 12  1  0
 12 13  1  0
 12 14  1  0
 12 15  1  0
 15 16  1  0
 15 17  1  0
 17 18  1  0
 17 19  1  0
 17 20  1  0
 20 21  1  6
 20 22  1  0
 22 23  1  0
 22 24  1  0
 24 25  1  0
 24 26  1  0
 24 27  1  0
 27 28  1  0
 28 29  1  0
 29 30  1  0
 29 31  2  0
 31 32  1  0
 31 33  1  0
 33 34  1  0
  6 35  1  0
 35 36  1  0
 35 37  2  0
 37 38  1  0
 37  2  1  0
 20  7  1  0
 33 27  2  0
M  END
>  <cnnaffinity>  (1) 
-4.74414

>  <filename>  (1) 
c1cncc([C@H]2CCNC[C@@H]2NCc2cccs2)c1

$$$$
