
     RDKit          3D

 50 55  0  0  0  0  0  0  0  0999 V2000
    4.8125    1.3095   19.0217 C   0  0  0  0  0  0  0  0  0  0  0  0
    5.4074    1.2759   17.7588 C   0  0  0  0  0  0  0  0  0  0  0  0
    6.5434    0.6130   17.4956 N   0  0  0  0  0  0  0  0  0  0  0  0
    7.1417   -0.0089   18.5206 C   0  0  0  0  0  0  0  0  0  0  0  0
    6.6701    0.0027   19.8461 C   0  0  0  0  0  0  0  0  0  0  0  0
    7.4671   -0.6026   21.0059 C   0  0  0  0  0  0  0  0  0  0  0  0
    8.3368    0.3761   21.7576 C   0  0  0  0  0  0  0  0  0  0  0  0
    9.5992    0.5838   21.4364 N   0  0  0  0  0  0  0  0  0  0  0  0
    9.9975    1.5467   22.3226 N   0  0  0  0  0  0  0  0  0  0  0  0
   11.2275    2.2789   22.1210 C   0  0  0  0  0  0  0  0  0  0  0  0
   11.4989    2.6621   20.7898 C   0  0  0  0  0  0  0  0  0  0  0  0
   12.4263    3.6311   20.4671 C   0  0  0  0  0  0  0  0  0  0  0  0
   13.1933    4.1337   21.5340 C   0  0  0  0  0  0  0  0  0  0  0  0
   14.1697    5.0724   21.5382 N   0  0  0  0  0  0  0  0  0  0  0  0
   14.6926    5.2757   22.7587 N   0  0  0  0  0  0  0  0  0  0  0  0
   14.0538    4.4305   23.5546 C   0  0  0  0  0  0  0  0  0  0  0  0
   13.0757    3.6576   22.8551 C   0  0  0  0  0  0  0  0  0  0  0  0
   12.0695    2.6910   23.1588 C   0  0  0  0  0  0  0  0  0  0  0  0
   11.9302    2.3149   24.1666 H   0  0  0  0  0  0  0  0  0  0  0  0
   14.2754    4.4566   24.6036 H   0  0  0  0  0  0  0  0  0  0  0  0
   14.4606    5.6245   20.7475 H   0  0  0  0  0  0  0  0  0  0  0  0
   12.5680    4.0064   19.4619 H   0  0  0  0  0  0  0  0  0  0  0  0
   10.9362    2.1325   20.0472 H   0  0  0  0  0  0  0  0  0  0  0  0
    8.9151    1.9258   23.0619 C   0  0  0  0  0  0  0  0  0  0  0  0
    8.8608    3.1333   23.9506 C   0  0  0  0  0  0  0  0  0  0  0  0
    8.4913    4.4548   23.2379 C   0  0  0  0  0  0  0  0  0  0  0  0
    9.1226    5.7094   23.7969 C   0  0  0  0  0  0  0  0  0  0  0  0
   10.6020    5.7921   24.0529 C   0  0  0  0  0  0  0  0  0  0  0  0
    9.9935    6.5820   22.9325 C   0  0  0  0  0  0  0  0  0  0  0  0
    9.8778    7.6534   23.0341 H   0  0  0  0  0  0  0  0  0  0  0  0
   10.1937    6.2524   21.9128 H   0  0  0  0  0  0  0  0  0  0  0  0
   10.9575    6.3148   24.9378 H   0  0  0  0  0  0  0  0  0  0  0  0
   11.2004    4.9339   23.7690 H   0  0  0  0  0  0  0  0  0  0  0  0
    8.5109    6.2503   24.5219 H   0  0  0  0  0  0  0  0  0  0  0  0
    7.0668    4.5375   22.7602 C   0  0  0  0  0  0  0  0  0  0  0  0
    8.1780    4.4615   21.7623 C   0  0  0  0  0  0  0  0  0  0  0  0
    8.3215    3.5255   21.2340 H   0  0  0  0  0  0  0  0  0  0  0  0
    8.4096    5.3520   21.1793 H   0  0  0  0  0  0  0  0  0  0  0  0
    6.4611    3.6419   22.8651 H   0  0  0  0  0  0  0  0  0  0  0  0
    6.5295    5.4762   22.8801 H   0  0  0  0  0  0  0  0  0  0  0  0
    8.0919    2.9196   24.6984 H   0  0  0  0  0  0  0  0  0  0  0  0
    9.7982    3.2485   24.4950 H   0  0  0  0  0  0  0  0  0  0  0  0
    7.8721    1.1667   22.7632 N   0  0  0  0  0  0  0  0  0  0  0  0
    6.7762   -1.0351   21.7370 H   0  0  0  0  0  0  0  0  0  0  0  0
    8.1206   -1.4088   20.6545 H   0  0  0  0  0  0  0  0  0  0  0  0
    5.4488    0.6542   20.0789 C   0  0  0  0  0  0  0  0  0  0  0  0
    5.0105    0.6521   21.0792 H   0  0  0  0  0  0  0  0  0  0  0  0
    8.0547   -0.5527   18.2746 H   0  0  0  0  0  0  0  0  0  0  0  0
    4.9553    1.8017   16.9192 H   0  0  0  0  0  0  0  0  0  0  0  0
    3.8884    1.8594   19.1641 H   0  0  0  0  0  0  0  0  0  0  0  0
  1  2  2  0
  2  3  1  0
  3  4  2  0
  4  5  1  0
  5  6  1  0
  6  7  1  0
  7  8  2  0
  8  9  1  0
  9 10  1  0
 10 11  2  0
 11 12  1  0
 12 13  2  0
 13 14  1  0
 14 15  1  0
 15 16  2  0
 16 17  1  0
 17 18  2  0
 18 19  1  0
 16 20  1  0
 14 21  1  0
 12 22  1  0
 11 23  1  0
  9 24  1  0
 24 25  1  0
 25 26  1  0
 26 27  1  0
 27 28  1  0
 28 29  1  0
 29 30  1  0
 29 31  1  0
 28 32  1  0
 28 33  1  0
 27 34  1  0
 26 35  1  0
 35 36  1  0
 36 37  1  0
 36 38  1  0
 35 39  1  0
 35 40  1  0
 25 41  1  0
 25 42  1  0
 24 43  2  0
  6 44  1  0
  6 45  1  0
  5 46  2  0
 46 47  1  0
  4 48  1  0
  2 49  1  0
  1 50  1  0
 46  1  1  0
 43  7  1  0
 18 10  1  0
 36 26  1  0
 17 13  1  0
 29 27  1  0
M  END
>  <cnnaffinity>  (1) 
-6.42307

>  <filename>  (1) 
c1cncc(Cc2nc(CC3(C4CC4)CC3)n(-c3ccc4[nH]ncc4c3)n2)c1

$$$$
