
     RDKit          3D

 30 33  0  0  0  0  0  0  0  0999 V2000
    4.8094    1.2955   19.1064 C   0  0  0  0  0  0  0  0  0  0  0  0
    5.4105    1.2891   17.8445 C   0  0  0  0  0  0  0  0  0  0  0  0
    6.5782    0.6687   17.6004 N   0  0  0  0  0  0  0  0  0  0  0  0
    7.1749    0.0341   18.6126 C   0  0  0  0  0  0  0  0  0  0  0  0
    6.6481   -0.0099   19.9160 C   0  0  0  0  0  0  0  0  0  0  0  0
    7.3494   -0.6937   20.9439 N   0  0  0  0  0  0  0  0  0  0  0  0
    7.7820   -1.9490   20.7335 N   0  0  0  0  0  0  0  0  0  0  0  0
    8.2704   -2.3444   21.9002 C   0  0  0  0  0  0  0  0  0  0  0  0
    8.1832   -1.3471   22.8812 C   0  0  0  0  0  0  0  0  0  0  0  0
    7.5952   -0.2760   22.2405 C   0  0  0  0  0  0  0  0  0  0  0  0
    7.3664    1.0814   22.7231 C   0  0  0  0  0  0  0  0  0  0  0  0
    7.4464    2.2491   22.0299 C   0  0  0  0  0  0  0  0  0  0  0  0
    7.2397    3.4056   22.8376 C   0  0  0  0  0  0  0  0  0  0  0  0
    7.2229    4.7614   22.4653 C   0  0  0  0  0  0  0  0  0  0  0  0
    7.0050    5.6901   23.4692 C   0  0  0  0  0  0  0  0  0  0  0  0
    6.8090    5.2368   24.7949 C   0  0  0  0  0  0  0  0  0  0  0  0
    6.8138    3.9592   25.1804 N   0  0  0  0  0  0  0  0  0  0  0  0
    7.0253    3.0734   24.2002 C   0  0  0  0  0  0  0  0  0  0  0  0
    7.0797    1.3411   24.4370 S   0  0  0  0  0  0  0  0  0  0  0  0
    6.6393    5.9583   25.5900 H   0  0  0  0  0  0  0  0  0  0  0  0
    6.9820    6.7536   23.2510 H   0  0  0  0  0  0  0  0  0  0  0  0
    7.3790    5.0420   21.4198 H   0  0  0  0  0  0  0  0  0  0  0  0
    7.6370    2.2928   20.9600 H   0  0  0  0  0  0  0  0  0  0  0  0
    8.5237   -1.3699   23.9085 H   0  0  0  0  0  0  0  0  0  0  0  0
    8.6697   -3.3467   21.9943 H   0  0  0  0  0  0  0  0  0  0  0  0
    5.4260    0.6296   20.1686 C   0  0  0  0  0  0  0  0  0  0  0  0
    5.0076    0.6380   21.1776 H   0  0  0  0  0  0  0  0  0  0  0  0
    8.1218   -0.4438   18.3804 H   0  0  0  0  0  0  0  0  0  0  0  0
    4.9345    1.7830   16.9981 H   0  0  0  0  0  0  0  0  0  0  0  0
    3.8834    1.8350   19.2553 H   0  0  0  0  0  0  0  0  0  0  0  0
  1  2  2  0
  2  3  1  0
  3  4  2  0
  4  5  1  0
  5  6  1  0
  6  7  1  0
  7  8  2  0
  8  9  1  0
  9 10  2  0
 10 11  1  0
 11 12  2  0
 12 13  1  0
 13 14  2  0
 14 15  1  0
 15 16  2  0
 16 17  1  0
 17 18  2  0
 18 19  1  0
 16 20  1  0
 15 21  1  0
 14 22  1  0
 12 23  1  0
  9 24  1  0
  8 25  1  0
  5 26  2  0
 26 27  1  0
  4 28  1  0
  2 29  1  0
  1 30  1  0
 26  1  1  0
 10  6  1  0
 19 11  1  0
 18 13  1  0
M  END
>  <cnnaffinity>  (1) 
-5.16176

>  <filename>  (1) 
c1cncc(-n2nccc2-c2cc3cccnc3s2)c1

$$$$
