
     RDKit          3D

 22 23  0  0  0  0  0  0  0  0999 V2000
   11.0687    2.8888   20.3438 H   0  0  0  0  0  0  0  0  0  0  0  0
   10.7691    2.1761   21.1092 C   0  0  0  0  0  0  0  0  0  0  0  0
   11.1761    2.4148   22.3502 N   0  0  0  0  0  0  0  0  0  0  0  0
   10.8422    1.4956   23.2595 C   0  0  0  0  0  0  0  0  0  0  0  0
   11.1976    1.6611   24.2799 H   0  0  0  0  0  0  0  0  0  0  0  0
   10.0817    0.3780   22.9620 C   0  0  0  0  0  0  0  0  0  0  0  0
    9.8394   -0.3467   23.7232 H   0  0  0  0  0  0  0  0  0  0  0  0
    9.6779    0.2416   21.6241 C   0  0  0  0  0  0  0  0  0  0  0  0
    8.7605   -1.2644   21.1149 S   0  0  0  0  0  0  0  0  0  0  0  0
    7.1078   -0.8660   20.9236 N   0  0  0  0  0  0  0  0  0  0  0  0
    6.5338   -0.8889   21.7575 H   0  0  0  0  0  0  0  0  0  0  0  0
    6.5739   -0.1013   19.8709 C   0  0  0  0  0  0  0  0  0  0  0  0
    7.1642    0.0550   18.5891 C   0  0  0  0  0  0  0  0  0  0  0  0
    8.1370   -0.3954   18.4013 H   0  0  0  0  0  0  0  0  0  0  0  0
    6.6041    0.7400   17.5788 N   0  0  0  0  0  0  0  0  0  0  0  0
    5.4291    1.3521   17.8157 C   0  0  0  0  0  0  0  0  0  0  0  0
    4.9913    1.9086   16.9876 H   0  0  0  0  0  0  0  0  0  0  0  0
    4.7890    1.3031   19.0589 C   0  0  0  0  0  0  0  0  0  0  0  0
    3.8822    1.8791   19.2209 H   0  0  0  0  0  0  0  0  0  0  0  0
    5.3579    0.5634   20.0945 C   0  0  0  0  0  0  0  0  0  0  0  0
    4.9141    0.5340   21.0911 H   0  0  0  0  0  0  0  0  0  0  0  0
   10.0423    1.1339   20.7035 N   0  0  0  0  0  0  0  0  0  0  0  0
  1  2  1  0
  2  3  2  0
  3  4  1  0
  4  5  1  0
  4  6  2  0
  6  7  1  0
  6  8  1  0
  8  9  1  0
  9 10  1  0
 10 11  1  0
 10 12  1  0
 12 13  2  0
 13 14  1  0
 13 15  1  0
 15 16  2  0
 16 17  1  0
 16 18  1  0
 18 19  1  0
 18 20  2  0
 20 21  1  0
  8 22  2  0
 22  2  1  0
 20 12  1  0
M  END
>  <cnnaffinity>  (1) 
-4.73585

>  <filename>  (1) 
c1cncc(NSc2ccncn2)c1

$$$$
