
     RDKit          3D

 36 39  0  0  0  0  0  0  0  0999 V2000
    4.9217    1.7825   16.9962 H   0  0  0  0  0  0  0  0  0  0  0  0
    5.4051    1.2916   17.8387 C   0  0  0  0  0  0  0  0  0  0  0  0
    6.5715    0.6759   17.5813 N   0  0  0  0  0  0  0  0  0  0  0  0
    7.1801    0.0489   18.5919 C   0  0  0  0  0  0  0  0  0  0  0  0
    8.1279   -0.4380   18.3773 H   0  0  0  0  0  0  0  0  0  0  0  0
    6.6520    0.0025   19.8960 C   0  0  0  0  0  0  0  0  0  0  0  0
    7.3644   -0.6660   20.9388 N   0  0  0  0  0  0  0  0  0  0  0  0
    7.9998   -1.8405   20.7321 N   0  0  0  0  0  0  0  0  0  0  0  0
    8.5321   -2.1740   21.8461 N   0  0  0  0  0  0  0  0  0  0  0  0
    8.2752   -1.2641   22.8113 N   0  0  0  0  0  0  0  0  0  0  0  0
    7.5628   -0.3173   22.2359 C   0  0  0  0  0  0  0  0  0  0  0  0
    7.1287    1.2441   22.9444 S   0  0  0  0  0  0  0  0  0  0  0  0
    8.4975    2.2350   22.1886 C   0  0  0  0  0  0  0  0  0  0  0  0
    8.2861    3.2792   22.4390 H   0  0  0  0  0  0  0  0  0  0  0  0
    8.4414    2.1273   21.1012 H   0  0  0  0  0  0  0  0  0  0  0  0
    9.8430    1.8069   22.7118 C   0  0  0  0  0  0  0  0  0  0  0  0
   10.2048    2.1513   24.0511 C   0  0  0  0  0  0  0  0  0  0  0  0
    9.5259    2.7584   24.6484 H   0  0  0  0  0  0  0  0  0  0  0  0
   11.3875    1.7199   24.5860 C   0  0  0  0  0  0  0  0  0  0  0  0
   11.6758    2.0015   25.5880 H   0  0  0  0  0  0  0  0  0  0  0  0
   12.2762    0.9120   23.8179 C   0  0  0  0  0  0  0  0  0  0  0  0
   13.5375    0.4881   24.3079 C   0  0  0  0  0  0  0  0  0  0  0  0
   13.7543    0.6644   25.3525 H   0  0  0  0  0  0  0  0  0  0  0  0
   14.3889   -0.2390   23.5094 C   0  0  0  0  0  0  0  0  0  0  0  0
   15.2593   -0.6725   23.9848 H   0  0  0  0  0  0  0  0  0  0  0  0
   13.9708   -0.7301   22.2448 C   0  0  0  0  0  0  0  0  0  0  0  0
   14.6222   -1.3933   21.6759 H   0  0  0  0  0  0  0  0  0  0  0  0
   12.7059   -0.4247   21.7999 C   0  0  0  0  0  0  0  0  0  0  0  0
   12.3039   -0.8426   20.8770 H   0  0  0  0  0  0  0  0  0  0  0  0
   11.8870    0.4960   22.5114 C   0  0  0  0  0  0  0  0  0  0  0  0
   10.6742    0.9975   21.9677 C   0  0  0  0  0  0  0  0  0  0  0  0
   10.3823    0.6571   20.9771 H   0  0  0  0  0  0  0  0  0  0  0  0
    5.4366    0.6382   20.1655 C   0  0  0  0  0  0  0  0  0  0  0  0
    5.0001    0.6280   21.1668 H   0  0  0  0  0  0  0  0  0  0  0  0
    4.8115    1.3020   19.1056 C   0  0  0  0  0  0  0  0  0  0  0  0
    3.8820    1.8363   19.2608 H   0  0  0  0  0  0  0  0  0  0  0  0
  1  2  1  0
  2  3  2  0
  3  4  1  0
  4  5  1  0
  4  6  2  0
  6  7  1  0
  7  8  1  0
  8  9  2  0
  9 10  1  0
 10 11  2  0
 11 12  1  0
 12 13  1  0
 13 14  1  0
 13 15  1  0
 13 16  1  0
 16 17  2  0
 17 18  1  0
 17 19  1  0
 19 20  1  0
 19 21  2  0
 21 22  1  0
 22 23  1  0
 22 24  2  0
 24 25  1  0
 24 26  1  0
 26 27  1  0
 26 28  2  0
 28 29  1  0
 28 30  1  0
 30 31  2  0
 31 32  1  0
  6 33  1  0
 33 34  1  0
 33 35  2  0
 35 36  1  0
 35  2  1  0
 11  7  1  0
 31 16  1  0
 30 21  1  0
M  END
>  <cnnaffinity>  (1) 
-6.12329

>  <filename>  (1) 
c1cncc(-n2nnnc2SCc2ccc3ccccc3c2)c1

$$$$
