
     RDKit          3D

 32 35  0  0  0  0  0  0  0  0999 V2000
    4.9238    1.8246   16.9986 H   0  0  0  0  0  0  0  0  0  0  0  0
    5.4030    1.3040   17.8235 C   0  0  0  0  0  0  0  0  0  0  0  0
    6.5538    0.6700   17.5474 N   0  0  0  0  0  0  0  0  0  0  0  0
    7.1774    0.0392   18.5470 C   0  0  0  0  0  0  0  0  0  0  0  0
    8.1064   -0.4683   18.2856 H   0  0  0  0  0  0  0  0  0  0  0  0
    6.6882    0.0040   19.8611 C   0  0  0  0  0  0  0  0  0  0  0  0
    7.3913   -0.6727   20.8988 N   0  0  0  0  0  0  0  0  0  0  0  0
    6.7395   -1.0283   22.0245 N   0  0  0  0  0  0  0  0  0  0  0  0
    7.6716   -1.6057   22.7633 C   0  0  0  0  0  0  0  0  0  0  0  0
    7.4191   -2.1873   24.1327 C   0  0  0  0  0  0  0  0  0  0  0  0
    6.2090   -2.1161   24.6553 N   0  0  0  0  0  0  0  0  0  0  0  0
    5.9895   -2.6999   25.8698 C   0  0  0  0  0  0  0  0  0  0  0  0
    4.6877   -2.5601   26.4216 C   0  0  0  0  0  0  0  0  0  0  0  0
    4.0001   -1.9711   25.8235 H   0  0  0  0  0  0  0  0  0  0  0  0
    4.4015   -3.0739   27.6648 C   0  0  0  0  0  0  0  0  0  0  0  0
    3.4254   -2.9159   28.1172 H   0  0  0  0  0  0  0  0  0  0  0  0
    5.3887   -3.8202   28.3752 C   0  0  0  0  0  0  0  0  0  0  0  0
    5.1478   -4.2044   29.3656 H   0  0  0  0  0  0  0  0  0  0  0  0
    6.6355   -4.0421   27.8278 C   0  0  0  0  0  0  0  0  0  0  0  0
    7.3758   -4.6406   28.3596 H   0  0  0  0  0  0  0  0  0  0  0  0
    6.9939   -3.4160   26.5941 C   0  0  0  0  0  0  0  0  0  0  0  0
    8.3088   -3.4146   26.0365 C   0  0  0  0  0  0  0  0  0  0  0  0
    9.1291   -3.8585   26.5996 H   0  0  0  0  0  0  0  0  0  0  0  0
    8.5210   -2.8163   24.8204 C   0  0  0  0  0  0  0  0  0  0  0  0
    9.5031   -2.7901   24.3563 H   0  0  0  0  0  0  0  0  0  0  0  0
    8.9062   -1.6408   22.1551 N   0  0  0  0  0  0  0  0  0  0  0  0
    8.6946   -1.0458   21.0094 C   0  0  0  0  0  0  0  0  0  0  0  0
    9.4349   -0.8523   20.2446 H   0  0  0  0  0  0  0  0  0  0  0  0
    5.4726    0.6494   20.1361 C   0  0  0  0  0  0  0  0  0  0  0  0
    5.0731    0.6025   21.1497 H   0  0  0  0  0  0  0  0  0  0  0  0
    4.8198    1.3117   19.0969 C   0  0  0  0  0  0  0  0  0  0  0  0
    3.8816    1.8320   19.2660 H   0  0  0  0  0  0  0  0  0  0  0  0
  1  2  1  0
  2  3  2  0
  3  4  1  0
  4  5  1  0
  4  6  2  0
  6  7  1  0
  7  8  1  0
  8  9  2  0
  9 10  1  0
 10 11  2  0
 11 12  1  0
 12 13  2  0
 13 14  1  0
 13 15  1  0
 15 16  1  0
 15 17  2  0
 17 18  1  0
 17 19  1  0
 19 20  1  0
 19 21  2  0
 21 22  1  0
 22 23  1  0
 22 24  2  0
 24 25  1  0
  9 26  1  0
 26 27  2  0
 27 28  1  0
  6 29  1  0
 29 30  1  0
 29 31  2  0
 31 32  1  0
 31  2  1  0
 27  7  1  0
 24 10  1  0
 21 12  1  0
M  END
>  <cnnaffinity>  (1) 
-5.22586

>  <filename>  (1) 
c1cncc(-n2cnc(-c3ccc4ccccc4n3)n2)c1

$$$$
