
     RDKit          3D

 37 40  0  0  0  0  0  0  0  0999 V2000
    5.1423    1.3274   17.1370 H   0  0  0  0  0  0  0  0  0  0  0  0
    5.6032    0.7773   17.9555 C   0  0  0  0  0  0  0  0  0  0  0  0
    6.6302   -0.0200   17.6271 N   0  0  0  0  0  0  0  0  0  0  0  0
    7.2267   -0.6962   18.6210 C   0  0  0  0  0  0  0  0  0  0  0  0
    8.0711   -1.3157   18.3098 H   0  0  0  0  0  0  0  0  0  0  0  0
    6.8424   -0.6199   19.9607 C   0  0  0  0  0  0  0  0  0  0  0  0
    7.6797   -1.3456   21.0143 C   0  0  2  0  0  0  0  0  0  0  0  0
    8.7277   -1.4002   20.6750 H   0  0  0  0  0  0  0  0  0  0  0  0
    7.2439   -2.6639   21.2147 O   0  0  0  0  0  0  0  0  0  0  0  0
    6.3111   -2.6176   22.2757 C   0  0  0  0  0  0  0  0  0  0  0  0
    6.1965   -3.6256   22.6803 H   0  0  0  0  0  0  0  0  0  0  0  0
    5.3478   -2.2499   21.8909 H   0  0  0  0  0  0  0  0  0  0  0  0
    6.9073   -1.6081   23.2504 C   0  0  0  0  0  0  0  0  0  0  0  0
    6.1233   -1.1190   23.8314 H   0  0  0  0  0  0  0  0  0  0  0  0
    7.6148   -2.0759   23.9505 H   0  0  0  0  0  0  0  0  0  0  0  0
    7.6105   -0.7132   22.3402 N   0  0  0  0  0  0  0  0  0  0  0  0
    7.9337    0.6399   22.5223 C   0  0  0  0  0  0  0  0  0  0  0  0
    8.5822    1.2733   21.4659 C   0  0  0  0  0  0  0  0  0  0  0  0
    8.9530    0.6902   20.6405 H   0  0  0  0  0  0  0  0  0  0  0  0
    8.7141    2.6698   21.3881 C   0  0  0  0  0  0  0  0  0  0  0  0
    9.1702    3.0814   20.5011 H   0  0  0  0  0  0  0  0  0  0  0  0
    8.2775    3.4679   22.4045 C   0  0  0  0  0  0  0  0  0  0  0  0
    8.3463    4.5489   22.3374 H   0  0  0  0  0  0  0  0  0  0  0  0
    7.7837    2.8766   23.5991 C   0  0  0  0  0  0  0  0  0  0  0  0
    7.5145    3.7153   24.7213 C   0  0  0  0  0  0  0  0  0  0  0  0
    7.6326    4.7863   24.5778 H   0  0  0  0  0  0  0  0  0  0  0  0
    7.1894    3.1810   25.9403 C   0  0  0  0  0  0  0  0  0  0  0  0
    7.0411    3.8302   26.7983 H   0  0  0  0  0  0  0  0  0  0  0  0
    7.0900    1.7728   26.0730 C   0  0  0  0  0  0  0  0  0  0  0  0
    6.8185    1.3377   27.0273 H   0  0  0  0  0  0  0  0  0  0  0  0
    7.3064    0.9375   24.9980 C   0  0  0  0  0  0  0  0  0  0  0  0
    7.2554   -0.1281   25.1615 H   0  0  0  0  0  0  0  0  0  0  0  0
    7.6489    1.4469   23.7044 C   0  0  0  0  0  0  0  0  0  0  0  0
    5.7413    0.1923   20.2815 C   0  0  0  0  0  0  0  0  0  0  0  0
    5.4440    0.3301   21.3244 H   0  0  0  0  0  0  0  0  0  0  0  0
    5.1199    0.9110   19.2628 C   0  0  0  0  0  0  0  0  0  0  0  0
    4.2994    1.5890   19.4770 H   0  0  0  0  0  0  0  0  0  0  0  0
  1  2  1  0
  2  3  2  0
  3  4  1  0
  4  5  1  0
  4  6  2  0
  6  7  1  0
  7  8  1  6
  7  9  1  0
  9 10  1  0
 10 11  1  0
 10 12  1  0
 10 13  1  0
 13 14  1  0
 13 15  1  0
 13 16  1  0
 16 17  1  0
 17 18  2  0
 18 19  1  0
 18 20  1  0
 20 21  1  0
 20 22  2  0
 22 23  1  0
 22 24  1  0
 24 25  2  0
 25 26  1  0
 25 27  1  0
 27 28  1  0
 27 29  2  0
 29 30  1  0
 29 31  1  0
 31 32  1  0
 31 33  2  0
  6 34  1  0
 34 35  1  0
 34 36  2  0
 36 37  1  0
 36  2  1  0
 16  7  1  0
 33 17  1  0
 33 24  1  0
M  END
>  <cnnaffinity>  (1) 
-4.26194

>  <filename>  (1) 
c1cncc([C@@H]2OCCN2c2cccc3ccccc23)c1

$$$$
