
     RDKit          3D

 23 24  0  0  0  0  0  0  0  0999 V2000
    4.9120    1.7862   16.9917 H   0  0  0  0  0  0  0  0  0  0  0  0
    5.3981    1.2955   17.8337 C   0  0  0  0  0  0  0  0  0  0  0  0
    6.5603    0.6808   17.5693 N   0  0  0  0  0  0  0  0  0  0  0  0
    7.1746    0.0637   18.5868 C   0  0  0  0  0  0  0  0  0  0  0  0
    8.1195   -0.4228   18.3584 H   0  0  0  0  0  0  0  0  0  0  0  0
    6.6777   -0.0011   19.9180 C   0  0  0  0  0  0  0  0  0  0  0  0
    7.3245   -0.6418   20.9634 N   0  0  0  0  0  0  0  0  0  0  0  0
    6.8655   -0.6581   21.8676 H   0  0  0  0  0  0  0  0  0  0  0  0
    8.5787   -1.3561   20.8509 C   0  0  0  0  0  0  0  0  0  0  0  0
    9.3581   -0.6760   20.4919 H   0  0  0  0  0  0  0  0  0  0  0  0
    8.4959   -2.1501   20.1157 H   0  0  0  0  0  0  0  0  0  0  0  0
    9.0205   -1.9337   22.1028 N   0  0  0  0  0  0  0  0  0  0  0  0
    8.6863   -3.1921   22.4638 N   0  0  0  0  0  0  0  0  0  0  0  0
    9.1612   -3.3319   23.6913 C   0  0  0  0  0  0  0  0  0  0  0  0
    9.0046   -4.2603   24.2345 H   0  0  0  0  0  0  0  0  0  0  0  0
    9.8241   -2.1621   24.1215 C   0  0  0  0  0  0  0  0  0  0  0  0
   10.3016   -1.9815   25.0683 H   0  0  0  0  0  0  0  0  0  0  0  0
    9.7171   -1.2915   23.0708 C   0  0  0  0  0  0  0  0  0  0  0  0
   10.0572   -0.2673   22.9435 H   0  0  0  0  0  0  0  0  0  0  0  0
    5.4493    0.6448   20.1647 C   0  0  0  0  0  0  0  0  0  0  0  0
    5.0216    0.6229   21.1711 H   0  0  0  0  0  0  0  0  0  0  0  0
    4.8160    1.3030   19.1091 C   0  0  0  0  0  0  0  0  0  0  0  0
    3.8846    1.8346   19.2625 H   0  0  0  0  0  0  0  0  0  0  0  0
  1  2  1  0
  2  3  2  0
  3  4  1  0
  4  5  1  0
  4  6  2  0
  6  7  1  0
  7  8  1  0
  7  9  1  0
  9 10  1  0
  9 11  1  0
  9 12  1  0
 12 13  1  0
 13 14  2  0
 14 15  1  0
 14 16  1  0
 16 17  1  0
 16 18  2  0
 18 19  1  0
  6 20  1  0
 20 21  1  0
 20 22  2  0
 22 23  1  0
 22  2  1  0
 18 12  1  0
M  END
>  <cnnaffinity>  (1) 
-4.32134

>  <filename>  (1) 
c1cncc(NCn2cccn2)c1

$$$$
