
     RDKit          3D

 40 42  0  0  0  0  0  0  0  0999 V2000
    4.7857    1.3347   19.0578 C   0  0  0  0  0  0  0  0  0  0  0  0
    5.3998    1.3138   17.8014 C   0  0  0  0  0  0  0  0  0  0  0  0
    6.5589    0.6808   17.5504 N   0  0  0  0  0  0  0  0  0  0  0  0
    7.1528    0.0612   18.5785 C   0  0  0  0  0  0  0  0  0  0  0  0
    6.6333    0.0100   19.8876 C   0  0  0  0  0  0  0  0  0  0  0  0
    7.3544   -0.7033   20.9859 C   0  0  0  0  0  0  0  0  0  0  0  0
    8.7403   -0.5553   21.1439 C   0  0  0  0  0  0  0  0  0  0  0  0
    9.4408   -1.2104   22.1680 C   0  0  0  0  0  0  0  0  0  0  0  0
   10.9352   -1.0677   22.2849 C   0  0  0  0  0  0  0  0  0  0  0  0
   11.2647    0.0994   23.1255 N   0  0  0  0  0  4  0  0  0  0  0  0
   12.6947    0.3674   23.2987 C   0  0  0  0  0  0  0  0  0  0  0  0
   12.8495    1.5376   24.2514 C   0  0  0  0  0  0  0  0  0  0  0  0
   12.2640    2.8127   23.7641 C   0  0  0  0  0  0  0  0  0  0  0  0
   11.1769    3.5679   24.0664 C   0  0  0  0  0  0  0  0  0  0  0  0
   11.2548    4.7389   23.2375 C   0  0  0  0  0  0  0  0  0  0  0  0
   12.3838    4.5955   22.5006 C   0  0  0  0  0  0  0  0  0  0  0  0
   12.9995    3.4299   22.8078 O   0  0  0  0  0  0  0  0  0  0  0  0
   12.8843    5.1986   21.7577 H   0  0  0  0  0  0  0  0  0  0  0  0
   10.5621    5.5698   23.1757 H   0  0  0  0  0  0  0  0  0  0  0  0
   10.4052    3.3003   24.7751 H   0  0  0  0  0  0  0  0  0  0  0  0
   13.9128    1.7109   24.3750 H   0  0  0  0  0  0  0  0  0  0  0  0
   12.4201    1.2739   25.2167 H   0  0  0  0  0  0  0  0  0  0  0  0
   13.2141   -0.5003   23.7224 H   0  0  0  0  0  0  0  0  0  0  0  0
   13.1741    0.5854   22.3362 H   0  0  0  0  0  0  0  0  0  0  0  0
   10.8031   -0.0435   24.0602 H   0  0  0  0  0  0  0  0  0  0  0  0
   10.8194    0.9569   22.7057 H   0  0  0  0  0  0  0  0  0  0  0  0
   11.3615   -1.9818   22.7179 H   0  0  0  0  0  0  0  0  0  0  0  0
   11.3650   -0.9508   21.2826 H   0  0  0  0  0  0  0  0  0  0  0  0
    8.7246   -2.0431   23.0443 C   0  0  0  0  0  0  0  0  0  0  0  0
    7.3447   -2.2113   22.8971 C   0  0  0  0  0  0  0  0  0  0  0  0
    6.6631   -1.5498   21.8732 C   0  0  0  0  0  0  0  0  0  0  0  0
    5.5970   -1.7085   21.7266 H   0  0  0  0  0  0  0  0  0  0  0  0
    6.8055   -2.8682   23.5757 H   0  0  0  0  0  0  0  0  0  0  0  0
    9.2520   -2.5669   23.8381 H   0  0  0  0  0  0  0  0  0  0  0  0
    9.2742    0.0925   20.4500 H   0  0  0  0  0  0  0  0  0  0  0  0
    5.4118    0.6705   20.1127 C   0  0  0  0  0  0  0  0  0  0  0  0
    4.9792    0.6868   21.1142 H   0  0  0  0  0  0  0  0  0  0  0  0
    8.0970   -0.4345   18.3439 H   0  0  0  0  0  0  0  0  0  0  0  0
    4.9407    1.8263   16.9604 H   0  0  0  0  0  0  0  0  0  0  0  0
    3.8472    1.8691   19.1980 H   0  0  0  0  0  0  0  0  0  0  0  0
  1  2  2  0
  2  3  1  0
  3  4  2  0
  4  5  1  0
  5  6  1  0
  6  7  2  0
  7  8  1  0
  8  9  1  0
  9 10  1  0
 10 11  1  0
 11 12  1  0
 12 13  1  0
 13 14  2  0
 14 15  1  0
 15 16  2  0
 16 17  1  0
 16 18  1  0
 15 19  1  0
 14 20  1  0
 12 21  1  0
 12 22  1  0
 11 23  1  0
 11 24  1  0
 10 25  1  0
 10 26  1  0
  9 27  1  0
  9 28  1  0
  8 29  2  0
 29 30  1  0
 30 31  2  0
 31 32  1  0
 30 33  1  0
 29 34  1  0
  7 35  1  0
  5 36  2  0
 36 37  1  0
  4 38  1  0
  2 39  1  0
  1 40  1  0
 36  1  1  0
 31  6  1  0
 17 13  1  0
M  CHG  1  10   1
M  END
>  <cnnaffinity>  (1) 
-4.93402

>  <filename>  (1) 
c1cncc(-c2cccc(C[NH2+]CCc3ccco3)c2)c1

$$$$
