
     RDKit          3D

 27 29  0  0  0  0  0  0  0  0999 V2000
    4.9802    1.8037   16.9621 H   0  0  0  0  0  0  0  0  0  0  0  0
    5.4236    1.2939   17.8158 C   0  0  0  0  0  0  0  0  0  0  0  0
    6.6015    0.6856   17.5998 N   0  0  0  0  0  0  0  0  0  0  0  0
    7.1774    0.0653   18.6352 C   0  0  0  0  0  0  0  0  0  0  0  0
    8.1417   -0.4061   18.4510 H   0  0  0  0  0  0  0  0  0  0  0  0
    6.6076   -0.0009   19.9221 C   0  0  0  0  0  0  0  0  0  0  0  0
    7.2689   -0.7083   20.9760 N   0  0  0  0  0  0  0  0  0  0  0  0
    7.4821   -2.0627   21.0641 C   0  0  0  0  0  0  0  0  0  0  0  0
    7.1623   -2.7439   20.2861 H   0  0  0  0  0  0  0  0  0  0  0  0
    8.0754   -2.4012   22.1782 N   0  0  0  0  0  0  0  0  0  0  0  0
    8.2497   -1.2400   22.8754 C   0  0  0  0  0  0  0  0  0  0  0  0
    8.7570   -1.2568   23.8362 H   0  0  0  0  0  0  0  0  0  0  0  0
    7.7524   -0.1750   22.1758 C   0  0  0  0  0  0  0  0  0  0  0  0
    7.6486    1.2047   22.6235 C   0  0  0  0  0  0  0  0  0  0  0  0
    7.4311    2.2418   21.9049 N   0  0  0  0  0  0  0  0  0  0  0  0
    7.3377    3.3835   22.8248 C   0  0  0  0  0  0  0  0  0  0  0  0
    8.0738    4.1504   22.5622 H   0  0  0  0  0  0  0  0  0  0  0  0
    6.3607    3.8711   22.7229 H   0  0  0  0  0  0  0  0  0  0  0  0
    7.5627    2.8396   24.2623 C   0  0  0  0  0  0  0  0  0  0  0  0
    6.6867    3.0007   24.9139 H   0  0  0  0  0  0  0  0  0  0  0  0
    8.4278    3.3089   24.7505 H   0  0  0  0  0  0  0  0  0  0  0  0
    7.8368    1.4350   23.9701 N   0  0  0  0  0  0  0  0  0  0  0  0
    7.6390    0.6978   24.6177 H   0  0  0  0  0  0  0  0  0  0  0  0
    5.3786    0.6338   20.1399 C   0  0  0  0  0  0  0  0  0  0  0  0
    4.9374    0.6570   21.1396 H   0  0  0  0  0  0  0  0  0  0  0  0
    4.7806    1.2851   19.0581 C   0  0  0  0  0  0  0  0  0  0  0  0
    3.8287    1.7870   19.1699 H   0  0  0  0  0  0  0  0  0  0  0  0
  1  2  1  0
  2  3  2  0
  3  4  1  0
  4  5  1  0
  4  6  2  0
  6  7  1  0
  7  8  1  0
  8  9  1  0
  8 10  2  0
 10 11  1  0
 11 12  1  0
 11 13  2  0
 13 14  1  0
 14 15  2  0
 15 16  1  0
 16 17  1  0
 16 18  1  0
 16 19  1  0
 19 20  1  0
 19 21  1  0
 19 22  1  0
 22 23  1  0
  6 24  1  0
 24 25  1  0
 24 26  2  0
 26 27  1  0
 26  2  1  0
 13  7  1  0
 22 14  1  0
M  END
>  <cnnaffinity>  (1) 
-4.61089

>  <filename>  (1) 
c1cncc(-n2cncc2C2=NCCN2)c1

$$$$
