
     RDKit          3D

 27 29  0  0  0  0  0  0  0  0999 V2000
    4.9072    1.7864   16.9955 H   0  0  0  0  0  0  0  0  0  0  0  0
    5.3923    1.2988   17.8372 C   0  0  0  0  0  0  0  0  0  0  0  0
    6.5531    0.6822   17.5611 N   0  0  0  0  0  0  0  0  0  0  0  0
    7.1736    0.0696   18.5736 C   0  0  0  0  0  0  0  0  0  0  0  0
    8.1255   -0.4163   18.3726 H   0  0  0  0  0  0  0  0  0  0  0  0
    6.6729    0.0040   19.8998 C   0  0  0  0  0  0  0  0  0  0  0  0
    7.3385   -0.7125   20.9212 N   0  0  0  0  0  0  0  0  0  0  0  0
    6.8042   -1.0028   21.7277 H   0  0  0  0  0  0  0  0  0  0  0  0
    8.6950   -0.7533   21.0953 C   0  0  0  0  0  0  0  0  0  0  0  0
    9.5715    0.0437   20.5228 N   0  0  0  0  0  0  0  0  0  0  0  0
   10.7729   -0.3333   21.0147 N   0  0  0  0  0  0  0  0  0  0  0  0
   10.6752   -1.3226   21.8141 N   0  0  0  0  0  0  0  0  0  0  0  0
    9.3530   -1.6402   21.8856 N   0  0  0  0  0  0  0  0  0  0  0  0
    8.8778   -2.7611   22.6342 C   0  0  0  0  0  0  0  0  0  0  0  0
    9.4491   -3.0872   23.8771 C   0  0  0  0  0  0  0  0  0  0  0  0
   10.2774   -2.5049   24.2637 H   0  0  0  0  0  0  0  0  0  0  0  0
    9.0070   -4.0946   24.6337 N   0  0  0  0  0  0  0  0  0  0  0  0
    7.9847   -4.8294   24.1725 C   0  0  0  0  0  0  0  0  0  0  0  0
    7.6529   -5.6463   24.8056 H   0  0  0  0  0  0  0  0  0  0  0  0
    7.3655   -4.5871   22.9438 C   0  0  0  0  0  0  0  0  0  0  0  0
    6.5418   -5.2095   22.6173 H   0  0  0  0  0  0  0  0  0  0  0  0
    7.8154   -3.5318   22.1493 C   0  0  0  0  0  0  0  0  0  0  0  0
    7.3631   -3.3261   21.1815 H   0  0  0  0  0  0  0  0  0  0  0  0
    5.4509    0.6354   20.1621 C   0  0  0  0  0  0  0  0  0  0  0  0
    5.0220    0.6197   21.1690 H   0  0  0  0  0  0  0  0  0  0  0  0
    4.8124    1.3057   19.1116 C   0  0  0  0  0  0  0  0  0  0  0  0
    3.8801    1.8384   19.2665 H   0  0  0  0  0  0  0  0  0  0  0  0
  1  2  1  0
  2  3  2  0
  3  4  1  0
  4  5  1  0
  4  6  2  0
  6  7  1  0
  7  8  1  0
  7  9  1  0
  9 10  2  0
 10 11  1  0
 11 12  2  0
 12 13  1  0
 13 14  1  0
 14 15  2  0
 15 16  1  0
 15 17  1  0
 17 18  2  0
 18 19  1  0
 18 20  1  0
 20 21  1  0
 20 22  2  0
 22 23  1  0
  6 24  1  0
 24 25  1  0
 24 26  2  0
 26 27  1  0
 26  2  1  0
 13  9  1  0
 22 14  1  0
M  END
>  <cnnaffinity>  (1) 
-5.29093

>  <filename>  (1) 
c1cncc(Nc2nnnn2-c2cccnc2)c1

$$$$
