
     RDKit          3D

 21 23  0  0  0  0  0  0  0  0999 V2000
    4.9235    1.7816   16.9937 H   0  0  0  0  0  0  0  0  0  0  0  0
    5.4026    1.2926   17.8375 C   0  0  0  0  0  0  0  0  0  0  0  0
    6.5676    0.6742   17.5829 N   0  0  0  0  0  0  0  0  0  0  0  0
    7.1693    0.0601   18.6034 C   0  0  0  0  0  0  0  0  0  0  0  0
    8.1135   -0.4383   18.3817 H   0  0  0  0  0  0  0  0  0  0  0  0
    6.6505    0.0481   19.9095 C   0  0  0  0  0  0  0  0  0  0  0  0
    7.3632   -0.6923   20.9374 C   0  0  0  0  0  0  0  0  0  0  0  0
    7.8102   -1.9088   20.8018 N   0  0  0  0  0  0  0  0  0  0  0  0
    8.3138   -2.2669   22.0071 N   0  0  0  0  0  0  0  0  0  0  0  0
    8.2173   -1.3264   22.8596 N   0  0  0  0  0  0  0  0  0  0  0  0
    7.6074   -0.2828   22.2142 N   0  0  0  0  0  0  0  0  0  0  0  0
    7.4328    0.9732   22.7593 C   0  0  0  0  0  0  0  0  0  0  0  0
    7.5274    1.2277   24.0856 N   0  0  0  0  0  0  0  0  0  0  0  0
    7.3380    2.4993   24.2190 N   0  0  0  0  0  0  0  0  0  0  0  0
    7.1351    2.9705   23.0124 N   0  0  0  0  0  0  0  0  0  0  0  0
    6.9674    3.9552   22.8709 H   0  0  0  0  0  0  0  0  0  0  0  0
    7.1809    2.0658   22.0451 N   0  0  0  0  0  0  0  0  0  0  0  0
    5.4155    0.6579   20.1567 C   0  0  0  0  0  0  0  0  0  0  0  0
    4.9867    0.6502   21.1621 H   0  0  0  0  0  0  0  0  0  0  0  0
    4.7930    1.3084   19.0962 C   0  0  0  0  0  0  0  0  0  0  0  0
    3.8677    1.8451   19.2541 H   0  0  0  0  0  0  0  0  0  0  0  0
  1  2  1  0
  2  3  2  0
  3  4  1  0
  4  5  1  0
  4  6  2  0
  6  7  1  0
  7  8  2  0
  8  9  1  0
  9 10  2  0
 10 11  1  0
 11 12  1  0
 12 13  1  0
 13 14  2  0
 14 15  1  0
 15 16  1  0
 15 17  1  0
  6 18  1  0
 18 19  1  0
 18 20  2  0
 20 21  1  0
 20  2  1  0
 11  7  1  0
 17 12  2  0
M  END
>  <cnnaffinity>  (1) 
-4.28563

>  <filename>  (1) 
c1cncc(-c2nnnn2-c2nn[nH]n2)c1

$$$$
