
     RDKit          3D

 41 43  0  0  0  0  0  0  0  0999 V2000
    5.0428    1.7559   16.9815 H   0  0  0  0  0  0  0  0  0  0  0  0
    5.4651    1.2882   17.8688 C   0  0  0  0  0  0  0  0  0  0  0  0
    6.6325    0.6513   17.6982 N   0  0  0  0  0  0  0  0  0  0  0  0
    7.1842    0.0854   18.7802 C   0  0  0  0  0  0  0  0  0  0  0  0
    8.1178   -0.4484   18.5836 H   0  0  0  0  0  0  0  0  0  0  0  0
    6.6342    0.1165   20.0833 C   0  0  0  0  0  0  0  0  0  0  0  0
    7.3124   -0.6029   21.2572 C   0  0  1  0  0  0  0  0  0  0  0  0
    6.6252   -0.6021   22.1207 H   0  0  0  0  0  0  0  0  0  0  0  0
    7.5996   -2.0526   20.8112 C   0  0  0  0  0  0  0  0  0  0  0  0
    8.3179   -1.9369   19.9912 H   0  0  0  0  0  0  0  0  0  0  0  0
    6.6987   -2.5263   20.3995 H   0  0  0  0  0  0  0  0  0  0  0  0
    8.2624   -2.9088   21.8900 C   0  0  0  0  0  0  0  0  0  0  0  0
    7.6209   -2.9396   22.7841 H   0  0  0  0  0  0  0  0  0  0  0  0
    8.3773   -3.9417   21.5403 H   0  0  0  0  0  0  0  0  0  0  0  0
    9.6232   -2.3017   22.2505 C   0  0  0  0  0  0  0  0  0  0  0  0
   10.1415   -2.8941   23.0161 H   0  0  0  0  0  0  0  0  0  0  0  0
   10.2767   -2.3306   21.3639 H   0  0  0  0  0  0  0  0  0  0  0  0
    9.4546   -0.8476   22.7204 C   0  0  0  0  0  0  0  0  0  0  0  0
   10.4332   -0.3754   22.8563 H   0  0  0  0  0  0  0  0  0  0  0  0
    8.9681   -0.8248   23.7060 H   0  0  0  0  0  0  0  0  0  0  0  0
    8.6591    0.0511   21.7475 C   0  0  2  0  0  0  0  0  0  0  0  0
    9.2801    0.1529   20.8338 H   0  0  0  0  0  0  0  0  0  0  0  0
    8.5311    1.3669   22.3943 N   0  0  0  0  0  0  0  0  0  0  0  0
    7.6600    1.3982   22.9239 H   0  0  0  0  0  0  0  0  0  0  0  0
    8.5835    2.5019   21.4700 C   0  0  0  0  0  0  0  0  0  0  0  0
    7.8915    2.3709   20.6252 H   0  0  0  0  0  0  0  0  0  0  0  0
    9.5988    2.5006   21.0458 H   0  0  0  0  0  0  0  0  0  0  0  0
    8.3655    3.8811   22.0830 C   0  0  0  0  0  0  0  0  0  0  0  0
    7.2079    4.6333   21.8249 C   0  0  0  0  0  0  0  0  0  0  0  0
    6.3821    4.2099   21.2632 H   0  0  0  0  0  0  0  0  0  0  0  0
    7.1409    5.9736   22.2192 C   0  0  0  0  0  0  0  0  0  0  0  0
    6.2425    6.5470   21.9938 H   0  0  0  0  0  0  0  0  0  0  0  0
    8.1380    6.6142   22.8416 N   0  0  0  0  0  0  0  0  0  0  0  0
    9.2376    5.8950   23.1012 C   0  0  0  0  0  0  0  0  0  0  0  0
   10.0682    6.4361   23.5449 H   0  0  0  0  0  0  0  0  0  0  0  0
    9.3920    4.5429   22.7735 C   0  0  0  0  0  0  0  0  0  0  0  0
   10.3279    4.0472   23.0109 H   0  0  0  0  0  0  0  0  0  0  0  0
    5.3981    0.7682   20.2208 C   0  0  0  0  0  0  0  0  0  0  0  0
    4.9033    0.7964   21.1935 H   0  0  0  0  0  0  0  0  0  0  0  0
    4.8082    1.3664   19.1000 C   0  0  0  0  0  0  0  0  0  0  0  0
    3.8660    1.8993   19.1734 H   0  0  0  0  0  0  0  0  0  0  0  0
  1  2  1  0
  2  3  2  0
  3  4  1  0
  4  5  1  0
  4  6  2  0
  6  7  1  0
  7  8  1  1
  7  9  1  0
  9 10  1  0
  9 11  1  0
  9 12  1  0
 12 13  1  0
 12 14  1  0
 12 15  1  0
 15 16  1  0
 15 17  1  0
 15 18  1  0
 18 19  1  0
 18 20  1  0
 18 21  1  0
 21 22  1  6
 21 23  1  0
 23 24  1  0
 23 25  1  0
 25 26  1  0
 25 27  1  0
 25 28  1  0
 28 29  2  0
 29 30  1  0
 29 31  1  0
 31 32  1  0
 31 33  2  0
 33 34  1  0
 34 35  1  0
 34 36  2  0
 36 37  1  0
  6 38  1  0
 38 39  1  0
 38 40  2  0
 40 41  1  0
 40  2  1  0
 21  7  1  0
 36 28  1  0
M  END
>  <cnnaffinity>  (1) 
-4.93408

>  <filename>  (1) 
c1cncc([C@H]2CCCC[C@@H]2NCc2ccncc2)c1

$$$$
