
     RDKit          3D

 36 38  0  0  0  0  0  0  0  0999 V2000
    4.9309    1.8057   16.9601 H   0  0  0  0  0  0  0  0  0  0  0  0
    5.3981    1.2878   17.7929 C   0  0  0  0  0  0  0  0  0  0  0  0
    6.5535    0.6585   17.5311 N   0  0  0  0  0  0  0  0  0  0  0  0
    7.1767    0.0541   18.5549 C   0  0  0  0  0  0  0  0  0  0  0  0
    8.1152   -0.4325   18.2857 H   0  0  0  0  0  0  0  0  0  0  0  0
    6.7009    0.0356   19.8840 C   0  0  0  0  0  0  0  0  0  0  0  0
    7.3973   -0.6692   21.0887 C   0  0  0  0  0  0  0  0  0  0  0  0
    7.5747    0.3396   22.2551 C   0  0  0  0  0  0  0  0  0  0  0  0
    6.8401    0.4670   23.2936 N   0  0  0  0  0  0  0  0  0  0  0  0
    7.3423    1.6097   24.0643 C   0  0  0  0  0  0  0  0  0  0  0  0
    7.7389    1.2741   25.0312 H   0  0  0  0  0  0  0  0  0  0  0  0
    6.5131    2.2878   24.2916 H   0  0  0  0  0  0  0  0  0  0  0  0
    8.4367    2.2708   23.1872 C   0  0  0  0  0  0  0  0  0  0  0  0
    8.1055    3.2328   22.7716 H   0  0  0  0  0  0  0  0  0  0  0  0
    9.3721    2.4298   23.7349 H   0  0  0  0  0  0  0  0  0  0  0  0
    8.6260    1.2526   22.1537 N   0  0  0  0  0  0  0  0  0  0  0  0
    8.8137    1.5470   21.2116 H   0  0  0  0  0  0  0  0  0  0  0  0
    8.7906   -1.2557   20.7236 C   0  0  0  0  0  0  0  0  0  0  0  0
    8.6712   -1.8482   19.8253 H   0  0  0  0  0  0  0  0  0  0  0  0
    9.4852   -0.4599   20.4468 H   0  0  0  0  0  0  0  0  0  0  0  0
    9.4055   -2.1300   21.8268 C   0  0  0  0  0  0  0  0  0  0  0  0
   10.3673   -2.5316   21.4884 H   0  0  0  0  0  0  0  0  0  0  0  0
    9.6297   -1.5004   22.6981 H   0  0  0  0  0  0  0  0  0  0  0  0
    8.4657   -3.2677   22.2466 C   0  0  0  0  0  0  0  0  0  0  0  0
    8.3574   -3.9758   21.4118 H   0  0  0  0  0  0  0  0  0  0  0  0
    8.9029   -3.8380   23.0737 H   0  0  0  0  0  0  0  0  0  0  0  0
    7.0846   -2.7322   22.6351 C   0  0  0  0  0  0  0  0  0  0  0  0
    6.4011   -3.5594   22.8596 H   0  0  0  0  0  0  0  0  0  0  0  0
    7.1559   -2.1288   23.5495 H   0  0  0  0  0  0  0  0  0  0  0  0
    6.4995   -1.8728   21.5089 C   0  0  0  0  0  0  0  0  0  0  0  0
    6.3631   -2.4968   20.6169 H   0  0  0  0  0  0  0  0  0  0  0  0
    5.5090   -1.5099   21.7689 H   0  0  0  0  0  0  0  0  0  0  0  0
    5.4690    0.6804   20.1126 C   0  0  0  0  0  0  0  0  0  0  0  0
    5.0441    0.6913   21.1197 H   0  0  0  0  0  0  0  0  0  0  0  0
    4.8105    1.3114   19.0609 C   0  0  0  0  0  0  0  0  0  0  0  0
    3.8682    1.8290   19.2108 H   0  0  0  0  0  0  0  0  0  0  0  0
  1  2  1  0
  2  3  2  0
  3  4  1  0
  4  5  1  0
  4  6  2  0
  6  7  1  0
  7  8  1  0
  8  9  2  0
  9 10  1  0
 10 11  1  0
 10 12  1  0
 10 13  1  0
 13 14  1  0
 13 15  1  0
 13 16  1  0
 16 17  1  0
  7 18  1  0
 18 19  1  0
 18 20  1  0
 18 21  1  0
 21 22  1  0
 21 23  1  0
 21 24  1  0
 24 25  1  0
 24 26  1  0
 24 27  1  0
 27 28  1  0
 27 29  1  0
 27 30  1  0
 30 31  1  0
 30 32  1  0
  6 33  1  0
 33 34  1  0
 33 35  2  0
 35 36  1  0
 35  2  1  0
 30  7  1  0
 16  8  1  0
M  END
>  <cnnaffinity>  (1) 
-4.41381

>  <filename>  (1) 
c1cncc(C2(C3=NCCN3)CCCCC2)c1

$$$$
