
     RDKit          3D

 34 37  0  0  0  0  0  0  0  0999 V2000
    4.9114    1.8249   16.9624 H   0  0  0  0  0  0  0  0  0  0  0  0
    5.3770    1.3143   17.8052 C   0  0  0  0  0  0  0  0  0  0  0  0
    6.5359    0.6889   17.5437 N   0  0  0  0  0  0  0  0  0  0  0  0
    7.1508    0.0723   18.5600 C   0  0  0  0  0  0  0  0  0  0  0  0
    8.0932   -0.4188   18.3171 H   0  0  0  0  0  0  0  0  0  0  0  0
    6.6564    0.0192   19.8796 C   0  0  0  0  0  0  0  0  0  0  0  0
    7.3726   -0.7028   20.9697 C   0  0  0  0  0  0  0  0  0  0  0  0
    8.7654   -0.6012   21.1800 C   0  0  0  0  0  0  0  0  0  0  0  0
    9.4048    0.0226   20.5585 H   0  0  0  0  0  0  0  0  0  0  0  0
    9.3925   -1.2488   22.1683 N   0  0  0  0  0  0  0  0  0  0  0  0
    8.7102   -2.0294   23.0086 N   0  0  0  0  0  0  0  0  0  0  0  0
    7.3805   -2.2140   22.8564 C   0  0  0  0  0  0  0  0  0  0  0  0
    6.7118   -3.0789   23.8647 C   0  0  0  0  0  0  0  0  0  0  0  0
    7.0362   -2.9601   25.2045 C   0  0  0  0  0  0  0  0  0  0  0  0
    7.7991   -2.2367   25.4984 H   0  0  0  0  0  0  0  0  0  0  0  0
    6.3892   -3.7475   26.1851 C   0  0  0  0  0  0  0  0  0  0  0  0
    6.6603   -3.6130   27.2279 H   0  0  0  0  0  0  0  0  0  0  0  0
    5.4327   -4.6710   25.8320 C   0  0  0  0  0  0  0  0  0  0  0  0
    4.9457   -5.3027   26.5733 H   0  0  0  0  0  0  0  0  0  0  0  0
    5.0788   -4.8442   24.4690 C   0  0  0  0  0  0  0  0  0  0  0  0
    4.1267   -5.8094   24.0302 C   0  0  0  0  0  0  0  0  0  0  0  0
    3.6175   -6.4148   24.7820 H   0  0  0  0  0  0  0  0  0  0  0  0
    3.9341   -5.9851   22.6825 C   0  0  0  0  0  0  0  0  0  0  0  0
    3.2133   -6.6857   22.2858 H   0  0  0  0  0  0  0  0  0  0  0  0
    4.7093   -5.2186   21.7730 C   0  0  0  0  0  0  0  0  0  0  0  0
    4.6750   -5.4422   20.7054 H   0  0  0  0  0  0  0  0  0  0  0  0
    5.5118   -4.2481   22.1262 N   0  0  0  0  0  0  0  0  0  0  0  0
    5.7345   -4.0506   23.4627 C   0  0  0  0  0  0  0  0  0  0  0  0
    6.6850   -1.5405   21.8410 C   0  0  0  0  0  0  0  0  0  0  0  0
    5.6239   -1.7251   21.7349 H   0  0  0  0  0  0  0  0  0  0  0  0
    5.4340    0.6674   20.1211 C   0  0  0  0  0  0  0  0  0  0  0  0
    5.0222    0.6514   21.1290 H   0  0  0  0  0  0  0  0  0  0  0  0
    4.7870    1.3300   19.0737 C   0  0  0  0  0  0  0  0  0  0  0  0
    3.8527    1.8619   19.2221 H   0  0  0  0  0  0  0  0  0  0  0  0
  1  2  1  0
  2  3  2  0
  3  4  1  0
  4  5  1  0
  4  6  2  0
  6  7  1  0
  7  8  2  0
  8  9  1  0
  8 10  1  0
 10 11  2  0
 11 12  1  0
 12 13  1  0
 13 14  2  0
 14 15  1  0
 14 16  1  0
 16 17  1  0
 16 18  2  0
 18 19  1  0
 18 20  1  0
 20 21  2  0
 21 22  1  0
 21 23  1  0
 23 24  1  0
 23 25  2  0
 25 26  1  0
 25 27  1  0
 27 28  2  0
 12 29  2  0
 29 30  1  0
  6 31  1  0
 31 32  1  0
 31 33  2  0
 33 34  1  0
 33  2  1  0
 29  7  1  0
 28 13  1  0
 28 20  1  0
M  END
>  <cnnaffinity>  (1) 
-5.46126

>  <filename>  (1) 
c1cncc(-c2cnnc(-c3cccc4cccnc34)c2)c1

$$$$
