
     RDKit          3D

 28 30  0  0  0  0  0  0  0  0999 V2000
    4.9170    1.7809   16.9979 H   0  0  0  0  0  0  0  0  0  0  0  0
    5.4014    1.2924   17.8422 C   0  0  0  0  0  0  0  0  0  0  0  0
    6.5676    0.6746   17.5910 N   0  0  0  0  0  0  0  0  0  0  0  0
    7.1811    0.0518   18.6058 C   0  0  0  0  0  0  0  0  0  0  0  0
    8.1266   -0.4400   18.3902 H   0  0  0  0  0  0  0  0  0  0  0  0
    6.6568    0.0112   19.9114 C   0  0  0  0  0  0  0  0  0  0  0  0
    7.3628   -0.7205   20.8758 O   0  0  0  0  0  0  0  0  0  0  0  0
    7.2882   -0.4251   22.1921 C   0  0  0  0  0  0  0  0  0  0  0  0
    7.3587   -1.3099   23.1459 N   0  0  0  0  0  0  0  0  0  0  0  0
    7.3105   -0.6045   24.3047 N   0  0  0  0  0  0  0  0  0  0  0  0
    7.2435    0.6530   24.0928 N   0  0  0  0  0  0  0  0  0  0  0  0
    7.2184    0.8279   22.7523 N   0  0  0  0  0  0  0  0  0  0  0  0
    7.3183    2.0935   22.2083 N   0  0  0  0  0  0  0  0  0  0  0  0
    7.7872    2.1890   21.3289 H   0  0  0  0  0  0  0  0  0  0  0  0
    6.7760    3.2491   22.7290 C   0  0  0  0  0  0  0  0  0  0  0  0
    5.7065    3.2515   23.6166 C   0  0  0  0  0  0  0  0  0  0  0  0
    5.2671    2.3214   23.9410 H   0  0  0  0  0  0  0  0  0  0  0  0
    5.2630    4.4745   24.0976 C   0  0  0  0  0  0  0  0  0  0  0  0
    4.4455    4.4935   24.8108 H   0  0  0  0  0  0  0  0  0  0  0  0
    5.7762    5.6605   23.7558 N   0  0  0  0  0  0  0  0  0  0  0  0
    6.7792    5.6363   22.8693 C   0  0  0  0  0  0  0  0  0  0  0  0
    7.1781    6.6088   22.5903 H   0  0  0  0  0  0  0  0  0  0  0  0
    7.3117    4.4762   22.3192 C   0  0  0  0  0  0  0  0  0  0  0  0
    8.1319    4.5400   21.6143 H   0  0  0  0  0  0  0  0  0  0  0  0
    5.4405    0.6438   20.1727 C   0  0  0  0  0  0  0  0  0  0  0  0
    5.0065    0.6284   21.1743 H   0  0  0  0  0  0  0  0  0  0  0  0
    4.8110    1.3044   19.1089 C   0  0  0  0  0  0  0  0  0  0  0  0
    3.8787    1.8383   19.2578 H   0  0  0  0  0  0  0  0  0  0  0  0
  1  2  1  0
  2  3  2  0
  3  4  1  0
  4  5  1  0
  4  6  2  0
  6  7  1  0
  7  8  1  0
  8  9  2  0
  9 10  1  0
 10 11  2  0
 11 12  1  0
 12 13  1  0
 13 14  1  0
 13 15  1  0
 15 16  2  0
 16 17  1  0
 16 18  1  0
 18 19  1  0
 18 20  2  0
 20 21  1  0
 21 22  1  0
 21 23  2  0
 23 24  1  0
  6 25  1  0
 25 26  1  0
 25 27  2  0
 27 28  1  0
 27  2  1  0
 12  8  1  0
 23 15  1  0
M  END
>  <cnnaffinity>  (1) 
-4.94181

>  <filename>  (1) 
c1cncc(Oc2nnnn2Nc2ccncc2)c1

$$$$
