
     RDKit          3D

 33 36  0  0  0  0  0  0  0  0999 V2000
    8.6254   -3.7042   21.4308 H   0  0  0  0  0  0  0  0  0  0  0  0
    8.3500   -2.6692   21.6477 C   0  0  0  0  0  0  0  0  0  0  0  0
    8.6127   -2.2255   22.8771 N   0  0  0  0  0  0  0  0  0  0  0  0
    8.2698   -0.9657   23.1351 C   0  0  0  0  0  0  0  0  0  0  0  0
    8.5199   -0.5933   24.1352 H   0  0  0  0  0  0  0  0  0  0  0  0
    7.6629   -0.1254   22.2032 C   0  0  0  0  0  0  0  0  0  0  0  0
    7.3950    1.3041   22.5305 C   0  0  0  0  0  0  0  0  0  0  0  0
    6.6572    1.6164   23.6993 C   0  0  0  0  0  0  0  0  0  0  0  0
    6.3136    0.8017   24.3344 H   0  0  0  0  0  0  0  0  0  0  0  0
    6.3576    2.9331   24.0246 C   0  0  0  0  0  0  0  0  0  0  0  0
    5.7950    3.1687   24.9217 H   0  0  0  0  0  0  0  0  0  0  0  0
    6.8163    3.9745   23.1890 C   0  0  0  0  0  0  0  0  0  0  0  0
    6.6925    5.4135   23.1980 C   0  0  0  0  0  0  0  0  0  0  0  0
    6.1732    6.0035   23.9428 H   0  0  0  0  0  0  0  0  0  0  0  0
    7.3737    5.8810   22.1129 C   0  0  0  0  0  0  0  0  0  0  0  0
    7.4947    6.8833   21.7188 H   0  0  0  0  0  0  0  0  0  0  0  0
    7.9409    4.8208   21.4410 N   0  0  0  0  0  0  0  0  0  0  0  0
    8.4058    4.8662   20.5485 H   0  0  0  0  0  0  0  0  0  0  0  0
    7.5946    3.6441   22.0497 C   0  0  0  0  0  0  0  0  0  0  0  0
    7.8719    2.3109   21.6932 C   0  0  0  0  0  0  0  0  0  0  0  0
    8.3921    2.0222   20.7865 H   0  0  0  0  0  0  0  0  0  0  0  0
    7.3898   -0.7270   20.9567 C   0  0  0  0  0  0  0  0  0  0  0  0
    6.6348   -0.0253   19.9029 C   0  0  0  0  0  0  0  0  0  0  0  0
    7.1646    0.0210   18.6086 C   0  0  0  0  0  0  0  0  0  0  0  0
    8.1168   -0.4570   18.3732 H   0  0  0  0  0  0  0  0  0  0  0  0
    6.5772    0.6630   17.5948 N   0  0  0  0  0  0  0  0  0  0  0  0
    5.4123    1.2802   17.8472 C   0  0  0  0  0  0  0  0  0  0  0  0
    4.9515    1.7863   17.0035 H   0  0  0  0  0  0  0  0  0  0  0  0
    4.8018    1.2902   19.1050 C   0  0  0  0  0  0  0  0  0  0  0  0
    3.8772    1.8336   19.2435 H   0  0  0  0  0  0  0  0  0  0  0  0
    5.4236    0.6324   20.1619 C   0  0  0  0  0  0  0  0  0  0  0  0
    5.0121    0.6577   21.1753 H   0  0  0  0  0  0  0  0  0  0  0  0
    7.7811   -1.9728   20.6704 N   0  0  0  0  0  0  0  0  0  0  0  0
  1  2  1  0
  2  3  2  0
  3  4  1  0
  4  5  1  0
  4  6  2  0
  6  7  1  0
  7  8  2  0
  8  9  1  0
  8 10  1  0
 10 11  1  0
 10 12  2  0
 12 13  1  0
 13 14  1  0
 13 15  2  0
 15 16  1  0
 15 17  1  0
 17 18  1  0
 17 19  1  0
 19 20  2  0
 20 21  1  0
  6 22  1  0
 22 23  1  0
 23 24  2  0
 24 25  1  0
 24 26  1  0
 26 27  2  0
 27 28  1  0
 27 29  1  0
 29 30  1  0
 29 31  2  0
 31 32  1  0
 22 33  2  0
 33  2  1  0
 20  7  1  0
 31 23  1  0
 19 12  1  0
M  END
>  <cnnaffinity>  (1) 
-4.90169

>  <filename>  (1) 
c1cncc(-c2ncncc2-c2ccc3cc[nH]c3c2)c1

$$$$
