
     RDKit          3D

 32 35  0  0  0  0  0  0  0  0999 V2000
    4.9188    2.2833   16.0364 H   0  0  0  0  0  0  0  0  0  0  0  0
    5.2867    1.8060   16.9419 C   0  0  0  0  0  0  0  0  0  0  0  0
    6.3870    1.0444   16.8234 N   0  0  0  0  0  0  0  0  0  0  0  0
    6.8488    0.4311   17.9175 C   0  0  0  0  0  0  0  0  0  0  0  0
    7.7320   -0.1881   17.7915 H   0  0  0  0  0  0  0  0  0  0  0  0
    6.2445    0.5458   19.1797 C   0  0  0  0  0  0  0  0  0  0  0  0
    6.7658   -0.1628   20.2908 N   0  0  0  0  0  0  0  0  0  0  0  0
    7.9828   -0.7481   20.2580 N   0  0  0  0  0  0  0  0  0  0  0  0
    8.1240   -1.3155   21.4571 C   0  0  0  0  0  0  0  0  0  0  0  0
    9.3178   -2.0259   21.9044 C   0  0  0  0  0  0  0  0  0  0  0  0
   10.6401   -1.7545   21.6654 C   0  0  0  0  0  0  0  0  0  0  0  0
   11.0868   -1.0822   20.9426 H   0  0  0  0  0  0  0  0  0  0  0  0
   11.4290   -2.5104   22.5011 N   0  0  0  0  0  0  0  0  0  0  0  0
   12.4285   -2.6051   22.4231 H   0  0  0  0  0  0  0  0  0  0  0  0
   10.6317   -3.3126   23.2892 C   0  0  0  0  0  0  0  0  0  0  0  0
   10.9342   -4.2185   24.3241 C   0  0  0  0  0  0  0  0  0  0  0  0
   11.9470   -4.3902   24.6663 H   0  0  0  0  0  0  0  0  0  0  0  0
    9.8906   -4.9472   24.8825 C   0  0  0  0  0  0  0  0  0  0  0  0
   10.1076   -5.6608   25.6722 H   0  0  0  0  0  0  0  0  0  0  0  0
    8.5567   -4.7883   24.4352 C   0  0  0  0  0  0  0  0  0  0  0  0
    7.7567   -5.3765   24.8769 H   0  0  0  0  0  0  0  0  0  0  0  0
    8.2620   -3.8601   23.4475 C   0  0  0  0  0  0  0  0  0  0  0  0
    7.2540   -3.7300   23.0716 H   0  0  0  0  0  0  0  0  0  0  0  0
    9.3006   -3.0788   22.8983 C   0  0  0  0  0  0  0  0  0  0  0  0
    6.9763   -1.0808   22.2631 C   0  0  0  0  0  0  0  0  0  0  0  0
    6.8417   -1.3905   23.2898 H   0  0  0  0  0  0  0  0  0  0  0  0
    6.1390   -0.3418   21.4858 C   0  0  0  0  0  0  0  0  0  0  0  0
    5.1744    0.1031   21.6772 H   0  0  0  0  0  0  0  0  0  0  0  0
    5.1019    1.3558   19.2945 C   0  0  0  0  0  0  0  0  0  0  0  0
    4.5976    1.5102   20.2464 H   0  0  0  0  0  0  0  0  0  0  0  0
    4.6078    1.9773   18.1503 C   0  0  0  0  0  0  0  0  0  0  0  0
    3.7037    2.5805   18.1849 H   0  0  0  0  0  0  0  0  0  0  0  0
  1  2  1  0
  2  3  2  0
  3  4  1  0
  4  5  1  0
  4  6  2  0
  6  7  1  0
  7  8  1  0
  8  9  2  0
  9 10  1  0
 10 11  2  0
 11 12  1  0
 11 13  1  0
 13 14  1  0
 13 15  1  0
 15 16  2  0
 16 17  1  0
 16 18  1  0
 18 19  1  0
 18 20  2  0
 20 21  1  0
 20 22  1  0
 22 23  1  0
 22 24  2  0
  9 25  1  0
 25 26  1  0
 25 27  2  0
 27 28  1  0
  6 29  1  0
 29 30  1  0
 29 31  2  0
 31 32  1  0
 31  2  1  0
 27  7  1  0
 24 10  1  0
 24 15  1  0
M  END
>  <cnnaffinity>  (1) 
-5.42925

>  <filename>  (1) 
c1cncc(-n2ccc(-c3c[nH]c4ccccc34)n2)c1

$$$$
