
     RDKit          3D

 48 53  0  0  0  0  0  0  0  0999 V2000
    4.8201    1.3447   18.9215 C   0  0  0  0  0  0  0  0  0  0  0  0
    5.3978    1.2811   17.6507 C   0  0  0  0  0  0  0  0  0  0  0  0
    6.4795    0.5415   17.3654 N   0  0  0  0  0  0  0  0  0  0  0  0
    7.0411   -0.1379   18.3741 C   0  0  0  0  0  0  0  0  0  0  0  0
    6.5768   -0.1150   19.7018 C   0  0  0  0  0  0  0  0  0  0  0  0
    7.3369   -0.7810   20.8504 C   0  0  0  0  0  0  0  0  0  0  0  0
    8.1731    0.1642   21.6719 C   0  0  0  0  0  0  0  0  0  0  0  0
    9.4664    0.3076   21.4622 N   0  0  0  0  0  0  0  0  0  0  0  0
    9.8011    1.2897   22.3355 N   0  0  0  0  0  0  0  0  0  0  0  0
   11.0521    1.9755   22.3041 C   0  0  0  0  0  0  0  0  0  0  0  0
   12.2671    1.3093   22.5829 C   0  0  0  0  0  0  0  0  0  0  0  0
   13.4323    2.0487   22.6877 C   0  0  0  0  0  0  0  0  0  0  0  0
   13.4351    3.4493   22.4337 C   0  0  0  0  0  0  0  0  0  0  0  0
   14.6082    4.1620   22.5732 N   0  0  0  0  0  0  0  0  0  0  0  0
   14.5486    5.4299   22.2188 C   0  0  0  0  0  0  0  0  0  0  0  0
   13.3628    6.0438   21.6990 C   0  0  0  0  0  0  0  0  0  0  0  0
   12.2069    5.4083   21.6342 N   0  0  0  0  0  0  0  0  0  0  0  0
   12.2168    4.0906   22.0327 C   0  0  0  0  0  0  0  0  0  0  0  0
   11.0222    3.3374   22.0902 C   0  0  0  0  0  0  0  0  0  0  0  0
   10.0750    3.8419   22.0107 H   0  0  0  0  0  0  0  0  0  0  0  0
   13.4001    7.0716   21.3375 H   0  0  0  0  0  0  0  0  0  0  0  0
   15.4395    6.0326   22.3625 H   0  0  0  0  0  0  0  0  0  0  0  0
   14.3971    1.6150   22.9087 H   0  0  0  0  0  0  0  0  0  0  0  0
   12.2495    0.2341   22.7520 H   0  0  0  0  0  0  0  0  0  0  0  0
    8.6995    1.6605   23.0545 C   0  0  0  0  0  0  0  0  0  0  0  0
    8.7439    2.6962   24.1350 C   0  0  0  0  0  0  0  0  0  0  0  0
    8.0228    4.0122   23.8411 C   0  0  0  0  0  0  0  0  0  0  0  0
    8.0391    5.1485   24.8341 C   0  0  0  0  0  0  0  0  0  0  0  0
    8.7752    5.2858   23.5364 C   0  0  0  0  0  0  0  0  0  0  0  0
    9.8664    5.2546   23.5736 H   0  0  0  0  0  0  0  0  0  0  0  0
    8.3676    5.9646   22.7872 H   0  0  0  0  0  0  0  0  0  0  0  0
    7.1274    5.7220   24.9804 H   0  0  0  0  0  0  0  0  0  0  0  0
    8.6302    5.0426   25.7418 H   0  0  0  0  0  0  0  0  0  0  0  0
    7.0762    3.8735   23.3170 H   0  0  0  0  0  0  0  0  0  0  0  0
    9.9894    2.8034   24.9623 C   0  0  0  0  0  0  0  0  0  0  0  0
    8.7489    2.2757   25.6047 C   0  0  0  0  0  0  0  0  0  0  0  0
    8.7250    1.2170   25.8614 H   0  0  0  0  0  0  0  0  0  0  0  0
    8.1984    2.9394   26.2754 H   0  0  0  0  0  0  0  0  0  0  0  0
   10.3036    3.8333   25.1045 H   0  0  0  0  0  0  0  0  0  0  0  0
   10.8086    2.1057   24.7913 H   0  0  0  0  0  0  0  0  0  0  0  0
    7.6550    0.9592   22.6453 N   0  0  0  0  0  0  0  0  0  0  0  0
    6.6271   -1.2389   21.5462 H   0  0  0  0  0  0  0  0  0  0  0  0
    8.0015   -1.5696   20.4796 H   0  0  0  0  0  0  0  0  0  0  0  0
    5.4183    0.6304   19.9646 C   0  0  0  0  0  0  0  0  0  0  0  0
    5.0133    0.6615   20.9785 H   0  0  0  0  0  0  0  0  0  0  0  0
    7.9239   -0.7249   18.1186 H   0  0  0  0  0  0  0  0  0  0  0  0
    4.9788    1.8494   16.8219 H   0  0  0  0  0  0  0  0  0  0  0  0
    3.9352    1.9520   19.0779 H   0  0  0  0  0  0  0  0  0  0  0  0
  1  2  2  0
  2  3  1  0
  3  4  2  0
  4  5  1  0
  5  6  1  0
  6  7  1  0
  7  8  2  0
  8  9  1  0
  9 10  1  0
 10 11  2  0
 11 12  1  0
 12 13  2  0
 13 14  1  0
 14 15  2  0
 15 16  1  0
 16 17  2  0
 17 18  1  0
 18 19  2  0
 19 20  1  0
 16 21  1  0
 15 22  1  0
 12 23  1  0
 11 24  1  0
  9 25  1  0
 25 26  1  0
 26 27  1  0
 27 28  1  0
 28 29  1  0
 29 30  1  0
 29 31  1  0
 28 32  1  0
 28 33  1  0
 27 34  1  0
 26 35  1  0
 35 36  1  0
 36 37  1  0
 36 38  1  0
 35 39  1  0
 35 40  1  0
 25 41  2  0
  6 42  1  0
  6 43  1  0
  5 44  2  0
 44 45  1  0
  4 46  1  0
  2 47  1  0
  1 48  1  0
 44  1  1  0
 41  7  1  0
 19 10  1  0
 36 26  1  0
 18 13  1  0
 29 27  1  0
M  END
>  <cnnaffinity>  (1) 
-6.75509

>  <filename>  (1) 
c1cncc(Cc2nc(C3(C4CC4)CC3)n(-c3ccc4nccnc4c3)n2)c1

$$$$
