
     RDKit          3D

 49 52  0  0  0  0  0  0  0  0999 V2000
    4.7561    1.3255   19.0317 C   0  0  0  0  0  0  0  0  0  0  0  0
    5.3752    1.3180   17.7799 C   0  0  0  0  0  0  0  0  0  0  0  0
    6.5225    0.6717   17.5276 N   0  0  0  0  0  0  0  0  0  0  0  0
    7.1062    0.0220   18.5440 C   0  0  0  0  0  0  0  0  0  0  0  0
    6.5849   -0.0272   19.8528 C   0  0  0  0  0  0  0  0  0  0  0  0
    7.3384   -0.6320   21.0113 C   0  0  0  0  0  0  0  0  0  0  0  0
    8.1550    0.4369   21.7390 C   0  0  0  0  0  0  0  0  0  0  0  0
    8.8750   -0.1498   22.9016 N   0  0  0  0  0  4  0  0  0  0  0  0
    9.8527   -1.1826   22.4546 C   0  0  0  0  0  0  0  0  0  0  0  0
   10.9711   -1.1416   23.4675 C   0  0  0  0  0  0  0  0  0  0  0  0
   10.9266    0.2353   24.1503 C   0  0  0  0  0  0  0  0  0  0  0  0
    9.5693    0.8628   23.8033 C   0  0  0  0  0  0  0  0  0  0  0  0
    8.6697    1.1809   25.0167 C   0  0  0  0  0  0  0  0  0  0  0  0
    7.3312    1.7674   24.6158 C   0  0  0  0  0  0  0  0  0  0  0  0
    6.2034    0.9642   24.6086 C   0  0  0  0  0  0  0  0  0  0  0  0
    4.9498    1.4401   24.1628 C   0  0  0  0  0  0  0  0  0  0  0  0
    4.8185    2.7203   23.6758 C   0  0  0  0  0  0  0  0  0  0  0  0
    5.9480    3.5946   23.6440 C   0  0  0  0  0  0  0  0  0  0  0  0
    5.8466    4.9314   23.1467 C   0  0  0  0  0  0  0  0  0  0  0  0
    6.9390    5.7667   23.1304 C   0  0  0  0  0  0  0  0  0  0  0  0
    8.1898    5.3110   23.6075 C   0  0  0  0  0  0  0  0  0  0  0  0
    8.3238    4.0293   24.0971 C   0  0  0  0  0  0  0  0  0  0  0  0
    7.2182    3.1240   24.1324 C   0  0  0  0  0  0  0  0  0  0  0  0
    9.2923    3.6952   24.4498 H   0  0  0  0  0  0  0  0  0  0  0  0
    9.0510    5.9694   23.5809 H   0  0  0  0  0  0  0  0  0  0  0  0
    6.8505    6.7817   22.7549 H   0  0  0  0  0  0  0  0  0  0  0  0
    4.8870    5.2862   22.7782 H   0  0  0  0  0  0  0  0  0  0  0  0
    3.8615    3.0875   23.3183 H   0  0  0  0  0  0  0  0  0  0  0  0
    4.1000    0.7702   24.2176 H   0  0  0  0  0  0  0  0  0  0  0  0
    6.2794   -0.0713   24.9301 H   0  0  0  0  0  0  0  0  0  0  0  0
    8.5208    0.2435   25.5713 H   0  0  0  0  0  0  0  0  0  0  0  0
    9.1935    1.8527   25.7047 H   0  0  0  0  0  0  0  0  0  0  0  0
    9.7099    1.7719   23.2100 H   0  0  0  0  0  0  0  0  0  0  0  0
   11.7306    0.8811   23.7879 H   0  0  0  0  0  0  0  0  0  0  0  0
   11.0569    0.1442   25.2339 H   0  0  0  0  0  0  0  0  0  0  0  0
   11.9095   -1.3332   22.9453 H   0  0  0  0  0  0  0  0  0  0  0  0
   10.8046   -1.9365   24.1943 H   0  0  0  0  0  0  0  0  0  0  0  0
   10.2441   -0.9018   21.4724 H   0  0  0  0  0  0  0  0  0  0  0  0
    9.3878   -2.1724   22.3747 H   0  0  0  0  0  0  0  0  0  0  0  0
    8.1623   -0.5896   23.5289 H   0  0  0  0  0  0  0  0  0  0  0  0
    8.8999    0.8604   21.0409 H   0  0  0  0  0  0  0  0  0  0  0  0
    7.5249    1.2695   22.0713 H   0  0  0  0  0  0  0  0  0  0  0  0
    8.0242   -1.4191   20.6709 H   0  0  0  0  0  0  0  0  0  0  0  0
    6.6632   -1.0996   21.7446 H   0  0  0  0  0  0  0  0  0  0  0  0
    5.3819    0.6543   20.0815 C   0  0  0  0  0  0  0  0  0  0  0  0
    4.9694    0.6926   21.0924 H   0  0  0  0  0  0  0  0  0  0  0  0
    8.0526   -0.4618   18.2904 H   0  0  0  0  0  0  0  0  0  0  0  0
    4.9378    1.8712   16.9507 H   0  0  0  0  0  0  0  0  0  0  0  0
    3.8349    1.8810   19.1718 H   0  0  0  0  0  0  0  0  0  0  0  0
  1  2  2  0
  2  3  1  0
  3  4  2  0
  4  5  1  0
  5  6  1  0
  6  7  1  0
  7  8  1  0
  8  9  1  0
  9 10  1  0
 10 11  1  0
 11 12  1  0
 12 13  1  0
 13 14  1  0
 14 15  2  0
 15 16  1  0
 16 17  2  0
 17 18  1  0
 18 19  2  0
 19 20  1  0
 20 21  2  0
 21 22  1  0
 22 23  2  0
 22 24  1  0
 21 25  1  0
 20 26  1  0
 19 27  1  0
 17 28  1  0
 16 29  1  0
 15 30  1  0
 13 31  1  0
 13 32  1  0
 12 33  1  0
 11 34  1  0
 11 35  1  0
 10 36  1  0
 10 37  1  0
  9 38  1  0
  9 39  1  0
  8 40  1  0
  7 41  1  0
  7 42  1  0
  6 43  1  0
  6 44  1  0
  5 45  2  0
 45 46  1  0
  4 47  1  0
  2 48  1  0
  1 49  1  0
 45  1  1  0
 12  8  1  0
 23 14  1  0
 23 18  1  0
M  CHG  1   8   1
M  END
>  <cnnaffinity>  (1) 
-5.00622

>  <filename>  (1) 
c1cncc(CC[NH+]2CCCC2Cc2cccc3ccccc23)c1

$$$$
