
     RDKit          3D

 55 59  0  0  0  0  0  0  0  0999 V2000
    4.7159    1.3078   18.6725 C   0  0  0  0  0  0  0  0  0  0  0  0
    5.2601    1.2461   17.3864 C   0  0  0  0  0  0  0  0  0  0  0  0
    6.3374    0.5132   17.0727 N   0  0  0  0  0  0  0  0  0  0  0  0
    6.9312   -0.1559   18.0667 C   0  0  0  0  0  0  0  0  0  0  0  0
    6.5153   -0.1115   19.4062 C   0  0  0  0  0  0  0  0  0  0  0  0
    7.3492   -0.7118   20.5266 C   0  0  0  0  0  0  0  0  0  0  0  0
    8.1018    0.3204   21.3140 C   0  0  0  0  0  0  0  0  0  0  0  0
    9.1856    0.9064   20.8459 N   0  0  0  0  0  0  0  0  0  0  0  0
    9.5580    1.7272   21.8771 N   0  0  0  0  0  0  0  0  0  0  0  0
   10.9353    2.1167   22.0251 C   0  0  0  0  0  0  0  0  0  0  0  0
   11.5948    3.0082   21.1825 C   0  0  0  0  0  0  0  0  0  0  0  0
   12.8256    3.5889   21.5742 C   0  0  0  0  0  0  0  0  0  0  0  0
   13.5215    3.1212   22.6881 C   0  0  0  0  0  0  0  0  0  0  0  0
   12.9599    2.0570   23.4253 C   0  0  0  0  0  0  0  0  0  0  0  0
   11.6753    1.5960   23.0986 C   0  0  0  0  0  0  0  0  0  0  0  0
   11.4366    0.5381   23.9441 N   0  0  0  0  0  0  0  0  0  0  0  0
   12.5611    0.3972   24.7044 C   0  0  0  0  0  0  0  0  0  0  0  0
   13.4758    1.2788   24.4444 N   0  0  0  0  0  0  0  0  0  0  0  0
   12.6699   -0.4191   25.4058 H   0  0  0  0  0  0  0  0  0  0  0  0
   10.6516   -0.0839   23.9141 H   0  0  0  0  0  0  0  0  0  0  0  0
   14.5060    3.4946   22.9323 H   0  0  0  0  0  0  0  0  0  0  0  0
   13.2739    4.3629   20.9563 H   0  0  0  0  0  0  0  0  0  0  0  0
   11.2218    3.1913   20.1837 H   0  0  0  0  0  0  0  0  0  0  0  0
    8.6454    1.5861   22.8926 C   0  0  0  0  0  0  0  0  0  0  0  0
    8.5499    2.5274   24.0499 C   0  0  0  0  0  0  0  0  0  0  0  0
    7.6676    3.7194   23.6670 C   0  0  0  0  0  0  0  0  0  0  0  0
    8.2735    4.4388   22.4899 N   0  0  0  0  0  4  0  0  0  0  0  0
    9.3572    5.4388   22.9268 C   0  0  0  0  0  0  0  0  0  0  0  0
    8.9164    6.9058   22.8107 C   0  0  0  0  0  0  0  0  0  0  0  0
    7.4407    7.1062   23.1807 C   0  0  0  0  0  0  0  0  0  0  0  0
    6.5250    6.2855   22.2404 C   0  0  0  0  0  0  0  0  0  0  0  0
    7.2203    5.0729   21.6003 C   0  0  0  0  0  0  0  0  0  0  0  0
    6.4837    4.3087   21.3160 H   0  0  0  0  0  0  0  0  0  0  0  0
    7.7209    5.3864   20.6796 H   0  0  0  0  0  0  0  0  0  0  0  0
    5.6326    5.9535   22.7788 H   0  0  0  0  0  0  0  0  0  0  0  0
    6.1648    6.9076   21.4137 H   0  0  0  0  0  0  0  0  0  0  0  0
    7.1730    8.1712   23.1336 H   0  0  0  0  0  0  0  0  0  0  0  0
    7.2770    6.7944   24.2235 H   0  0  0  0  0  0  0  0  0  0  0  0
    9.5629    7.5094   23.4513 H   0  0  0  0  0  0  0  0  0  0  0  0
    9.0729    7.2382   21.7791 H   0  0  0  0  0  0  0  0  0  0  0  0
   10.2545    5.2408   22.3236 H   0  0  0  0  0  0  0  0  0  0  0  0
    9.6075    5.2105   23.9687 H   0  0  0  0  0  0  0  0  0  0  0  0
    8.7575    3.7345   21.8976 H   0  0  0  0  0  0  0  0  0  0  0  0
    7.5386    4.4090   24.5093 H   0  0  0  0  0  0  0  0  0  0  0  0
    6.6645    3.3712   23.3956 H   0  0  0  0  0  0  0  0  0  0  0  0
    9.5425    2.8753   24.3447 H   0  0  0  0  0  0  0  0  0  0  0  0
    8.1154    1.9991   24.8983 H   0  0  0  0  0  0  0  0  0  0  0  0
    7.7276    0.7034   22.5661 N   0  0  0  0  0  0  0  0  0  0  0  0
    6.7177   -1.2444   21.2423 H   0  0  0  0  0  0  0  0  0  0  0  0
    8.0797   -1.4234   20.1279 H   0  0  0  0  0  0  0  0  0  0  0  0
    5.3595    0.6208   19.7041 C   0  0  0  0  0  0  0  0  0  0  0  0
    4.9918    0.6615   20.7317 H   0  0  0  0  0  0  0  0  0  0  0  0
    7.8033   -0.7495   17.7910 H   0  0  0  0  0  0  0  0  0  0  0  0
    4.8292    1.8175   16.5686 H   0  0  0  0  0  0  0  0  0  0  0  0
    3.8299    1.9062   18.8525 H   0  0  0  0  0  0  0  0  0  0  0  0
  1  2  2  0
  2  3  1  0
  3  4  2  0
  4  5  1  0
  5  6  1  0
  6  7  1  0
  7  8  2  0
  8  9  1  0
  9 10  1  0
 10 11  2  0
 11 12  1  0
 12 13  2  0
 13 14  1  0
 14 15  2  0
 15 16  1  0
 16 17  1  0
 17 18  2  0
 17 19  1  0
 16 20  1  0
 13 21  1  0
 12 22  1  0
 11 23  1  0
  9 24  1  0
 24 25  1  0
 25 26  1  0
 26 27  1  0
 27 28  1  0
 28 29  1  0
 29 30  1  0
 30 31  1  0
 31 32  1  0
 32 33  1  0
 32 34  1  0
 31 35  1  0
 31 36  1  0
 30 37  1  0
 30 38  1  0
 29 39  1  0
 29 40  1  0
 28 41  1  0
 28 42  1  0
 27 43  1  0
 26 44  1  0
 26 45  1  0
 25 46  1  0
 25 47  1  0
 24 48  2  0
  6 49  1  0
  6 50  1  0
  5 51  2  0
 51 52  1  0
  4 53  1  0
  2 54  1  0
  1 55  1  0
 51  1  1  0
 48  7  1  0
 15 10  1  0
 32 27  1  0
 18 14  1  0
M  CHG  1  27   1
M  END
>  <cnnaffinity>  (1) 
-6.15135

>  <filename>  (1) 
c1cncc(Cc2nc(CC[NH+]3CCCCC3)n(-c3cccc4nc[nH]c34)n2)c1

$$$$
