
     RDKit          3D

 31 34  0  0  0  0  0  0  0  0999 V2000
    4.9514    1.8083   16.9816 H   0  0  0  0  0  0  0  0  0  0  0  0
    5.3951    1.2796   17.8203 C   0  0  0  0  0  0  0  0  0  0  0  0
    6.5668    0.6681   17.5836 N   0  0  0  0  0  0  0  0  0  0  0  0
    7.1796    0.0605   18.6055 C   0  0  0  0  0  0  0  0  0  0  0  0
    8.1418   -0.4001   18.3774 H   0  0  0  0  0  0  0  0  0  0  0  0
    6.6468    0.0203   19.9115 C   0  0  0  0  0  0  0  0  0  0  0  0
    7.3106   -0.6934   20.9636 N   0  0  0  0  0  0  0  0  0  0  0  0
    7.5501   -2.0418   20.9583 C   0  0  0  0  0  0  0  0  0  0  0  0
    7.2053   -2.6627   20.1455 H   0  0  0  0  0  0  0  0  0  0  0  0
    8.1219   -2.4734   22.0505 N   0  0  0  0  0  0  0  0  0  0  0  0
    8.2292   -1.3691   22.8417 C   0  0  0  0  0  0  0  0  0  0  0  0
    8.6426   -1.4413   23.8404 H   0  0  0  0  0  0  0  0  0  0  0  0
    7.7339   -0.2421   22.2197 C   0  0  0  0  0  0  0  0  0  0  0  0
    7.6021    1.1023   22.7545 C   0  0  0  0  0  0  0  0  0  0  0  0
    7.6914    2.5504   21.7627 S   0  0  0  0  0  0  0  0  0  0  0  0
    7.5081    3.5705   23.1640 C   0  0  0  0  0  0  0  0  0  0  0  0
    7.4624    4.9729   23.1821 C   0  0  0  0  0  0  0  0  0  0  0  0
    7.5026    5.5420   22.2582 H   0  0  0  0  0  0  0  0  0  0  0  0
    7.3603    5.6172   24.4101 C   0  0  0  0  0  0  0  0  0  0  0  0
    7.3328    6.7028   24.4441 H   0  0  0  0  0  0  0  0  0  0  0  0
    7.2937    4.8736   25.6084 C   0  0  0  0  0  0  0  0  0  0  0  0
    7.2251    5.3967   26.5562 H   0  0  0  0  0  0  0  0  0  0  0  0
    7.3138    3.4868   25.5903 C   0  0  0  0  0  0  0  0  0  0  0  0
    7.2656    2.9068   26.5082 H   0  0  0  0  0  0  0  0  0  0  0  0
    7.4111    2.8109   24.3534 C   0  0  0  0  0  0  0  0  0  0  0  0
    7.4554    1.4051   24.0772 C   0  0  0  0  0  0  0  0  0  0  0  0
    7.3593    0.6339   24.8385 H   0  0  0  0  0  0  0  0  0  0  0  0
    5.4061    0.6341   20.1325 C   0  0  0  0  0  0  0  0  0  0  0  0
    4.9565    0.6019   21.1230 H   0  0  0  0  0  0  0  0  0  0  0  0
    4.7730    1.2836   19.0709 C   0  0  0  0  0  0  0  0  0  0  0  0
    3.8388    1.8240   19.2130 H   0  0  0  0  0  0  0  0  0  0  0  0
  1  2  1  0
  2  3  2  0
  3  4  1  0
  4  5  1  0
  4  6  2  0
  6  7  1  0
  7  8  1  0
  8  9  1  0
  8 10  2  0
 10 11  1  0
 11 12  1  0
 11 13  2  0
 13 14  1  0
 14 15  1  0
 15 16  1  0
 16 17  2  0
 17 18  1  0
 17 19  1  0
 19 20  1  0
 19 21  2  0
 21 22  1  0
 21 23  1  0
 23 24  1  0
 23 25  2  0
 25 26  1  0
 26 27  1  0
  6 28  1  0
 28 29  1  0
 28 30  2  0
 30 31  1  0
 30  2  1  0
 13  7  1  0
 26 14  2  0
 25 16  1  0
M  END
>  <cnnaffinity>  (1) 
-5.22221

>  <filename>  (1) 
c1cncc(-n2cncc2-c2cc3ccccc3s2)c1

$$$$
