
     RDKit          3D

 36 38  0  0  0  0  0  0  0  0999 V2000
    4.9987    1.7973   16.9240 H   0  0  0  0  0  0  0  0  0  0  0  0
    5.4299    1.2974   17.7910 C   0  0  0  0  0  0  0  0  0  0  0  0
    6.5903    0.6531   17.5870 N   0  0  0  0  0  0  0  0  0  0  0  0
    7.1466    0.0451   18.6372 C   0  0  0  0  0  0  0  0  0  0  0  0
    8.0880   -0.4749   18.4648 H   0  0  0  0  0  0  0  0  0  0  0  0
    6.5785    0.0363   19.9201 C   0  0  0  0  0  0  0  0  0  0  0  0
    7.3133   -0.6592   20.9710 C   0  0  0  0  0  0  0  0  0  0  0  0
    8.5812   -1.0148   20.8670 N   0  0  0  0  0  0  0  0  0  0  0  0
    8.8289   -1.6573   22.0329 C   0  0  0  0  0  0  0  0  0  0  0  0
   10.1861   -2.2138   22.2998 C   0  0  0  0  0  0  0  0  0  0  0  0
   10.1367   -2.8803   23.1641 H   0  0  0  0  0  0  0  0  0  0  0  0
   10.4815   -2.7924   21.4325 H   0  0  0  0  0  0  0  0  0  0  0  0
   11.2100   -1.0895   22.5085 C   0  0  0  0  0  0  0  0  0  0  0  0
   12.1942   -1.5337   22.7229 H   0  0  0  0  0  0  0  0  0  0  0  0
   11.3525   -0.5458   21.5625 H   0  0  0  0  0  0  0  0  0  0  0  0
   10.8551   -0.1415   23.5496 N   0  0  0  0  0  0  0  0  0  0  0  0
   10.2787    1.1316   23.1179 C   0  0  0  0  0  0  0  0  0  0  0  0
   11.0271    1.6576   22.5069 H   0  0  0  0  0  0  0  0  0  0  0  0
    9.3919    0.9693   22.4758 H   0  0  0  0  0  0  0  0  0  0  0  0
    9.8962    2.0222   24.3365 C   0  0  0  0  0  0  0  0  0  0  0  0
   10.2000    3.0511   24.1267 H   0  0  0  0  0  0  0  0  0  0  0  0
    8.8029    1.9882   24.4857 H   0  0  0  0  0  0  0  0  0  0  0  0
   10.5514    1.6653   25.5435 O   0  0  0  0  0  0  0  0  0  0  0  0
   10.3199    0.3130   25.9281 C   0  0  0  0  0  0  0  0  0  0  0  0
   11.1569    0.0291   26.5743 H   0  0  0  0  0  0  0  0  0  0  0  0
    9.3967    0.2373   26.5288 H   0  0  0  0  0  0  0  0  0  0  0  0
   10.1998   -0.6713   24.7409 C   0  0  0  0  0  0  0  0  0  0  0  0
    9.1311   -0.9008   24.5689 H   0  0  0  0  0  0  0  0  0  0  0  0
   10.6821   -1.6120   25.0126 H   0  0  0  0  0  0  0  0  0  0  0  0
    7.7972   -1.7283   22.8535 N   0  0  0  0  0  0  0  0  0  0  0  0
    6.8355   -1.0589   22.1628 N   0  0  0  0  0  0  0  0  0  0  0  0
    5.8939   -0.9967   22.5226 H   0  0  0  0  0  0  0  0  0  0  0  0
    5.3663    0.7040   20.1228 C   0  0  0  0  0  0  0  0  0  0  0  0
    4.9064    0.7401   21.1109 H   0  0  0  0  0  0  0  0  0  0  0  0
    4.7831    1.3415   19.0316 C   0  0  0  0  0  0  0  0  0  0  0  0
    3.8503    1.8824   19.1313 H   0  0  0  0  0  0  0  0  0  0  0  0
  1  2  1  0
  2  3  2  0
  3  4  1  0
  4  5  1  0
  4  6  2  0
  6  7  1  0
  7  8  2  0
  8  9  1  0
  9 10  1  0
 10 11  1  0
 10 12  1  0
 10 13  1  0
 13 14  1  0
 13 15  1  0
 13 16  1  0
 16 17  1  0
 17 18  1  0
 17 19  1  0
 17 20  1  0
 20 21  1  0
 20 22  1  0
 20 23  1  0
 23 24  1  0
 24 25  1  0
 24 26  1  0
 24 27  1  0
 27 28  1  0
 27 29  1  0
  9 30  2  0
 30 31  1  0
 31 32  1  0
  6 33  1  0
 33 34  1  0
 33 35  2  0
 35 36  1  0
 35  2  1  0
 31  7  1  0
 27 16  1  0
M  END
>  <cnnaffinity>  (1) 
-4.74734

>  <filename>  (1) 
c1cncc(-c2nc(CCN3CCOCC3)n[nH]2)c1

$$$$
