
     RDKit          3D

 49 54  0  0  0  0  0  0  0  0999 V2000
    4.7774    1.3321   19.0166 C   0  0  0  0  0  0  0  0  0  0  0  0
    5.3960    1.3108   17.7637 C   0  0  0  0  0  0  0  0  0  0  0  0
    6.5290    0.6371   17.5102 N   0  0  0  0  0  0  0  0  0  0  0  0
    7.0808   -0.0367   18.5269 C   0  0  0  0  0  0  0  0  0  0  0  0
    6.5477   -0.0879   19.8268 C   0  0  0  0  0  0  0  0  0  0  0  0
    7.2755   -0.7661   20.9836 C   0  0  0  0  0  0  0  0  0  0  0  0
    8.1616    0.1937   21.7271 C   0  0  0  0  0  0  0  0  0  0  0  0
    7.7011    1.0501   22.6180 N   0  0  0  0  0  0  0  0  0  0  0  0
    8.7953    1.7924   22.9213 N   0  0  0  0  0  0  0  0  0  0  0  0
    8.7103    2.9741   23.7989 C   0  0  0  0  0  0  0  0  0  0  0  0
    7.7794    4.1064   23.2865 C   0  0  0  0  0  0  0  0  0  0  0  0
    6.5422    4.1293   24.2216 C   0  0  0  0  0  0  0  0  0  0  0  0
    6.9454    3.2649   25.4017 C   0  0  0  0  0  0  0  0  0  0  0  0
    6.2517    3.0102   26.5887 C   0  0  0  0  0  0  0  0  0  0  0  0
    6.8013    2.1259   27.5261 C   0  0  0  0  0  0  0  0  0  0  0  0
    8.0430    1.5171   27.2897 C   0  0  0  0  0  0  0  0  0  0  0  0
    8.7434    1.7824   26.1087 C   0  0  0  0  0  0  0  0  0  0  0  0
    8.1721    2.6373   25.1666 C   0  0  0  0  0  0  0  0  0  0  0  0
    9.7152    1.3208   25.9276 H   0  0  0  0  0  0  0  0  0  0  0  0
    8.4608    0.8339   28.0245 H   0  0  0  0  0  0  0  0  0  0  0  0
    6.2619    1.9069   28.4439 H   0  0  0  0  0  0  0  0  0  0  0  0
    5.2901    3.4848   26.7768 H   0  0  0  0  0  0  0  0  0  0  0  0
    6.2768    5.1454   24.5334 H   0  0  0  0  0  0  0  0  0  0  0  0
    5.6564    3.7134   23.7243 H   0  0  0  0  0  0  0  0  0  0  0  0
    7.5219    3.9427   22.2356 H   0  0  0  0  0  0  0  0  0  0  0  0
    8.3267    5.0554   23.3458 H   0  0  0  0  0  0  0  0  0  0  0  0
    9.7309    3.3411   23.8839 H   0  0  0  0  0  0  0  0  0  0  0  0
    9.8542    1.3245   22.2066 C   0  0  0  0  0  0  0  0  0  0  0  0
   11.1591    1.9871   22.2615 C   0  0  0  0  0  0  0  0  0  0  0  0
   11.8694    2.0333   23.4971 C   0  0  0  0  0  0  0  0  0  0  0  0
   12.9116    2.8082   23.7469 N   0  0  0  0  0  0  0  0  0  0  0  0
   13.3096    3.6126   22.7166 C   0  0  0  0  0  0  0  0  0  0  0  0
   14.2941    4.6436   22.5733 C   0  0  0  0  0  0  0  0  0  0  0  0
   14.2964    5.1353   21.3450 N   0  0  0  0  0  0  0  0  0  0  0  0
   13.3245    4.4818   20.6758 N   0  0  0  0  0  0  0  0  0  0  0  0
   12.6878    3.5668   21.4412 C   0  0  0  0  0  0  0  0  0  0  0  0
   11.6078    2.7299   21.1786 C   0  0  0  0  0  0  0  0  0  0  0  0
   11.1337    2.6943   20.2047 H   0  0  0  0  0  0  0  0  0  0  0  0
   13.1787    4.6057   19.6882 H   0  0  0  0  0  0  0  0  0  0  0  0
   14.9886    5.0362   23.3072 H   0  0  0  0  0  0  0  0  0  0  0  0
   11.4991    1.4433   24.3320 H   0  0  0  0  0  0  0  0  0  0  0  0
    9.4827    0.3288   21.4329 N   0  0  0  0  0  0  0  0  0  0  0  0
    6.5551   -1.1853   21.6936 H   0  0  0  0  0  0  0  0  0  0  0  0
    7.9075   -1.5860   20.6292 H   0  0  0  0  0  0  0  0  0  0  0  0
    5.3680    0.6270   20.0679 C   0  0  0  0  0  0  0  0  0  0  0  0
    4.9420    0.6386   21.0737 H   0  0  0  0  0  0  0  0  0  0  0  0
    8.0095   -0.5617   18.2973 H   0  0  0  0  0  0  0  0  0  0  0  0
    4.9664    1.8533   16.9228 H   0  0  0  0  0  0  0  0  0  0  0  0
    3.8667    1.9044   19.1551 H   0  0  0  0  0  0  0  0  0  0  0  0
  1  2  2  0
  2  3  1  0
  3  4  2  0
  4  5  1  0
  5  6  1  0
  6  7  1  0
  7  8  2  0
  8  9  1  0
  9 10  1  0
 10 11  1  0
 11 12  1  0
 12 13  1  0
 13 14  2  0
 14 15  1  0
 15 16  2  0
 16 17  1  0
 17 18  2  0
 17 19  1  0
 16 20  1  0
 15 21  1  0
 14 22  1  0
 12 23  1  0
 12 24  1  0
 11 25  1  0
 11 26  1  0
 10 27  1  0
  9 28  1  0
 28 29  1  0
 29 30  2  0
 30 31  1  0
 31 32  2  0
 32 33  1  0
 33 34  2  0
 34 35  1  0
 35 36  1  0
 36 37  2  0
 37 38  1  0
 35 39  1  0
 33 40  1  0
 30 41  1  0
 28 42  2  0
  6 43  1  0
  6 44  1  0
  5 45  2  0
 45 46  1  0
  4 47  1  0
  2 48  1  0
  1 49  1  0
 45  1  1  0
 42  7  1  0
 18 10  1  0
 37 29  1  0
 18 13  1  0
 36 32  1  0
M  END
>  <cnnaffinity>  (1) 
-6.75594

>  <filename>  (1) 
c1cncc(Cc2nc(-c3cnc4cn[nH]c4c3)n(C3CCc4ccccc43)n2)c1

$$$$
