
     RDKit          3D

 43 46  0  0  0  0  0  0  0  0999 V2000
    4.9792    1.8466   16.9975 H   0  0  0  0  0  0  0  0  0  0  0  0
    5.4986    1.3276   17.7990 C   0  0  0  0  0  0  0  0  0  0  0  0
    6.6590    0.7382   17.4666 N   0  0  0  0  0  0  0  0  0  0  0  0
    7.3307    0.0858   18.4256 C   0  0  0  0  0  0  0  0  0  0  0  0
    8.2615   -0.3876   18.1090 H   0  0  0  0  0  0  0  0  0  0  0  0
    6.8692   -0.0305   19.7540 C   0  0  0  0  0  0  0  0  0  0  0  0
    7.5399   -0.8309   20.7181 N   0  0  0  0  0  0  0  0  0  0  0  0
    8.8915   -0.8050   21.0644 C   0  0  0  0  0  0  0  0  0  0  0  0
    9.5519   -0.0972   20.5885 H   0  0  0  0  0  0  0  0  0  0  0  0
    9.1220   -1.7214   22.0470 C   0  0  0  0  0  0  0  0  0  0  0  0
   10.0049   -1.9450   22.6176 H   0  0  0  0  0  0  0  0  0  0  0  0
    7.9118   -2.3352   22.2972 N   0  0  0  0  0  0  0  0  0  0  0  0
    7.4582   -3.3191   23.1470 N   0  0  0  0  0  0  0  0  0  0  0  0
    6.1685   -3.3613   22.8251 C   0  0  0  0  0  0  0  0  0  0  0  0
    5.2402   -4.2134   23.3545 N   0  0  0  0  0  0  0  0  0  0  0  0
    4.3115   -3.8455   23.2453 H   0  0  0  0  0  0  0  0  0  0  0  0
    5.4807   -5.1820   24.3991 C   0  0  0  0  0  0  0  0  0  0  0  0
    4.6496   -5.8964   24.3985 H   0  0  0  0  0  0  0  0  0  0  0  0
    6.3866   -5.7473   24.1659 H   0  0  0  0  0  0  0  0  0  0  0  0
    5.6401   -4.6212   25.8206 C   0  0  0  0  0  0  0  0  0  0  0  0
    6.4541   -3.8861   25.7731 H   0  0  0  0  0  0  0  0  0  0  0  0
    4.7318   -4.0601   26.1130 H   0  0  0  0  0  0  0  0  0  0  0  0
    5.9638   -5.7216   26.7378 N   0  0  0  0  0  0  0  0  0  0  0  0
    6.8646   -5.4022   27.8484 C   0  0  0  0  0  0  0  0  0  0  0  0
    7.6638   -4.7445   27.4866 H   0  0  0  0  0  0  0  0  0  0  0  0
    7.3338   -6.3374   28.1817 H   0  0  0  0  0  0  0  0  0  0  0  0
    6.1514   -4.7692   29.0570 C   0  0  0  0  0  0  0  0  0  0  0  0
    6.8370   -4.6821   29.9028 H   0  0  0  0  0  0  0  0  0  0  0  0
    5.7846   -3.7649   28.7829 H   0  0  0  0  0  0  0  0  0  0  0  0
    5.0616   -5.5646   29.5109 O   0  0  0  0  0  0  0  0  0  0  0  0
    4.1314   -5.7912   28.4589 C   0  0  0  0  0  0  0  0  0  0  0  0
    3.6886   -4.8345   28.1353 H   0  0  0  0  0  0  0  0  0  0  0  0
    3.3343   -6.4139   28.8725 H   0  0  0  0  0  0  0  0  0  0  0  0
    4.8143   -6.4795   27.2641 C   0  0  0  0  0  0  0  0  0  0  0  0
    4.0869   -6.6801   26.4681 H   0  0  0  0  0  0  0  0  0  0  0  0
    5.2035   -7.4419   27.6173 H   0  0  0  0  0  0  0  0  0  0  0  0
    5.7745   -2.4589   21.8209 C   0  0  0  0  0  0  0  0  0  0  0  0
    4.7580   -2.3497   21.5257 H   0  0  0  0  0  0  0  0  0  0  0  0
    6.9450   -1.8049   21.5117 C   0  0  0  0  0  0  0  0  0  0  0  0
    5.6658    0.6140   20.0923 C   0  0  0  0  0  0  0  0  0  0  0  0
    5.3067    0.5835   21.1216 H   0  0  0  0  0  0  0  0  0  0  0  0
    4.9686    1.2976   19.0938 C   0  0  0  0  0  0  0  0  0  0  0  0
    4.0366    1.8126   19.3082 H   0  0  0  0  0  0  0  0  0  0  0  0
  1  2  1  0
  2  3  2  0
  3  4  1  0
  4  5  1  0
  4  6  2  0
  6  7  1  0
  7  8  1  0
  8  9  1  0
  8 10  2  0
 10 11  1  0
 10 12  1  0
 12 13  1  0
 13 14  2  0
 14 15  1  0
 15 16  1  0
 15 17  1  0
 17 18  1  0
 17 19  1  0
 17 20  1  0
 20 21  1  0
 20 22  1  0
 20 23  1  0
 23 24  1  0
 24 25  1  0
 24 26  1  0
 24 27  1  0
 27 28  1  0
 27 29  1  0
 27 30  1  0
 30 31  1  0
 31 32  1  0
 31 33  1  0
 31 34  1  0
 34 35  1  0
 34 36  1  0
 14 37  1  0
 37 38  1  0
 37 39  2  0
  6 40  1  0
 40 41  1  0
 40 42  2  0
 42 43  1  0
 42  2  1  0
 39  7  1  0
 39 12  1  0
 34 23  1  0
M  END
>  <cnnaffinity>  (1) 
-4.95735

>  <filename>  (1) 
c1cncc(-n2ccn3nc(NCCN4CCOCC4)cc23)c1

$$$$
