
     RDKit          3D

 34 37  0  0  0  0  0  0  0  0999 V2000
    5.1001    1.7121   16.7905 H   0  0  0  0  0  0  0  0  0  0  0  0
    5.4917    1.2333   17.6860 C   0  0  0  0  0  0  0  0  0  0  0  0
    6.6288    0.5382   17.5299 N   0  0  0  0  0  0  0  0  0  0  0  0
    7.1521   -0.0355   18.6159 C   0  0  0  0  0  0  0  0  0  0  0  0
    8.0663   -0.6062   18.4720 H   0  0  0  0  0  0  0  0  0  0  0  0
    6.5866    0.0657   19.9021 C   0  0  0  0  0  0  0  0  0  0  0  0
    7.2828   -0.5357   21.0369 C   0  0  0  0  0  0  0  0  0  0  0  0
    8.3085   -1.4459   20.8218 N   0  0  0  0  0  0  0  0  0  0  0  0
    8.6881   -1.7797   22.0175 C   0  0  0  0  0  0  0  0  0  0  0  0
    9.9160   -2.8241   22.6830 S   0  0  0  0  0  0  0  0  0  0  0  0
    9.3881   -2.4299   24.3149 C   0  0  0  0  0  0  0  0  0  0  0  0
    9.8879   -2.9094   25.1499 H   0  0  0  0  0  0  0  0  0  0  0  0
    8.3587   -1.5672   24.3221 C   0  0  0  0  0  0  0  0  0  0  0  0
    7.8298   -1.1599   25.1751 H   0  0  0  0  0  0  0  0  0  0  0  0
    7.9813   -1.1672   23.0339 N   0  0  0  0  0  0  0  0  0  0  0  0
    7.0947   -0.3187   22.3976 C   0  0  0  0  0  0  0  0  0  0  0  0
    6.3069    0.5712   23.0266 O   0  0  0  0  0  0  0  0  0  0  0  0
    6.7163    1.1984   24.2771 C   0  0  0  0  0  0  0  0  0  0  0  0
    6.5186    0.5108   25.1056 H   0  0  0  0  0  0  0  0  0  0  0  0
    6.0054    2.0225   24.3501 H   0  0  0  0  0  0  0  0  0  0  0  0
    8.1607    1.6771   24.3386 C   0  0  0  0  0  0  0  0  0  0  0  0
    8.7540    2.3840   23.2857 C   0  0  0  0  0  0  0  0  0  0  0  0
    8.1460    2.7427   22.4613 H   0  0  0  0  0  0  0  0  0  0  0  0
   10.1337    2.6149   23.2988 C   0  0  0  0  0  0  0  0  0  0  0  0
   10.6183    3.1075   22.4556 H   0  0  0  0  0  0  0  0  0  0  0  0
   10.9389    2.2379   24.3033 N   0  0  0  0  0  0  0  0  0  0  0  0
   10.3567    1.6240   25.3405 C   0  0  0  0  0  0  0  0  0  0  0  0
   11.0100    1.3158   26.1503 H   0  0  0  0  0  0  0  0  0  0  0  0
    8.9893    1.3482   25.4202 C   0  0  0  0  0  0  0  0  0  0  0  0
    8.6093    0.8324   26.2972 H   0  0  0  0  0  0  0  0  0  0  0  0
    5.3741    0.7638   20.0442 C   0  0  0  0  0  0  0  0  0  0  0  0
    4.8886    0.8392   21.0200 H   0  0  0  0  0  0  0  0  0  0  0  0
    4.8233    1.3521   18.9108 C   0  0  0  0  0  0  0  0  0  0  0  0
    3.8992    1.9171   18.9579 H   0  0  0  0  0  0  0  0  0  0  0  0
  1  2  1  0
  2  3  2  0
  3  4  1  0
  4  5  1  0
  4  6  2  0
  6  7  1  0
  7  8  1  0
  8  9  2  0
  9 10  1  0
 10 11  1  0
 11 12  1  0
 11 13  2  0
 13 14  1  0
 13 15  1  0
 15 16  1  0
 16 17  1  0
 17 18  1  0
 18 19  1  0
 18 20  1  0
 18 21  1  0
 21 22  2  0
 22 23  1  0
 22 24  1  0
 24 25  1  0
 24 26  2  0
 26 27  1  0
 27 28  1  0
 27 29  2  0
 29 30  1  0
  6 31  1  0
 31 32  1  0
 31 33  2  0
 33 34  1  0
 33  2  1  0
 16  7  2  0
 29 21  1  0
 15  9  1  0
M  END
>  <cnnaffinity>  (1) 
-5.68351

>  <filename>  (1) 
c1cncc(-c2nc3sccn3c2OCc2ccncc2)c1

$$$$
