
     RDKit          3D

 35 38  0  0  0  0  0  0  0  0999 V2000
    4.9249    1.7777   16.9994 H   0  0  0  0  0  0  0  0  0  0  0  0
    5.4032    1.2904   17.8452 C   0  0  0  0  0  0  0  0  0  0  0  0
    6.5658    0.6743   17.5858 N   0  0  0  0  0  0  0  0  0  0  0  0
    7.1726    0.0633   18.6050 C   0  0  0  0  0  0  0  0  0  0  0  0
    8.1188   -0.4263   18.3884 H   0  0  0  0  0  0  0  0  0  0  0  0
    6.6481    0.0178   19.9048 C   0  0  0  0  0  0  0  0  0  0  0  0
    7.4167   -0.6974   20.9126 C   0  0  0  0  0  0  0  0  0  0  0  0
    8.5822   -1.2557   20.8008 N   0  0  0  0  0  0  0  0  0  0  0  0
    8.8946   -1.7588   22.0534 N   0  0  0  0  0  0  0  0  0  0  0  0
    7.9180   -1.4524   22.8424 C   0  0  0  0  0  0  0  0  0  0  0  0
    7.8218   -1.7597   24.3203 C   0  0  0  0  0  0  0  0  0  0  0  0
    8.5222   -0.8719   25.2305 N   0  0  0  0  0  0  0  0  0  0  0  0
    8.6392   -1.3227   26.1329 H   0  0  0  0  0  0  0  0  0  0  0  0
    7.8866    0.4389   25.3807 C   0  0  0  0  0  0  0  0  0  0  0  0
    6.7982    0.3432   25.5441 H   0  0  0  0  0  0  0  0  0  0  0  0
    8.2856    0.9189   26.2829 H   0  0  0  0  0  0  0  0  0  0  0  0
    8.0814    1.3530   24.1943 C   0  0  0  0  0  0  0  0  0  0  0  0
    9.6523    1.6895   23.5637 S   0  0  0  0  0  0  0  0  0  0  0  0
    8.9974    2.6959   22.3345 C   0  0  0  0  0  0  0  0  0  0  0  0
    9.6601    3.1742   21.6285 H   0  0  0  0  0  0  0  0  0  0  0  0
    7.6398    2.7959   22.4140 C   0  0  0  0  0  0  0  0  0  0  0  0
    7.0269    3.3717   21.7216 H   0  0  0  0  0  0  0  0  0  0  0  0
    7.1178    2.0334   23.5047 C   0  0  0  0  0  0  0  0  0  0  0  0
    6.0560    1.9379   23.7256 H   0  0  0  0  0  0  0  0  0  0  0  0
    7.8411   -3.2253   24.6679 C   0  0  0  0  0  0  0  0  0  0  0  0
    8.4157   -3.5342   25.5364 H   0  0  0  0  0  0  0  0  0  0  0  0
    7.8765   -3.9328   23.8460 H   0  0  0  0  0  0  0  0  0  0  0  0
    6.5827   -2.4412   24.8527 C   0  0  0  0  0  0  0  0  0  0  0  0
    6.2958   -2.2076   25.8743 H   0  0  0  0  0  0  0  0  0  0  0  0
    5.7501   -2.6234   24.1846 H   0  0  0  0  0  0  0  0  0  0  0  0
    6.9095   -0.8221   22.1621 O   0  0  0  0  0  0  0  0  0  0  0  0
    5.4272    0.6594   20.1683 C   0  0  0  0  0  0  0  0  0  0  0  0
    4.9882    0.6360   21.1694 H   0  0  0  0  0  0  0  0  0  0  0  0
    4.8004    1.3128   19.1102 C   0  0  0  0  0  0  0  0  0  0  0  0
    3.8674    1.8457   19.2542 H   0  0  0  0  0  0  0  0  0  0  0  0
  1  2  1  0
  2  3  2  0
  3  4  1  0
  4  5  1  0
  4  6  2  0
  6  7  1  0
  7  8  2  0
  8  9  1  0
  9 10  2  0
 10 11  1  0
 11 12  1  0
 12 13  1  0
 12 14  1  0
 14 15  1  0
 14 16  1  0
 14 17  1  0
 17 18  1  0
 18 19  1  0
 19 20  1  0
 19 21  2  0
 21 22  1  0
 21 23  1  0
 23 24  1  0
 11 25  1  0
 25 26  1  0
 25 27  1  0
 25 28  1  0
 28 29  1  0
 28 30  1  0
 10 31  1  0
  6 32  1  0
 32 33  1  0
 32 34  2  0
 34 35  1  0
 34  2  1  0
 31  7  1  0
 28 11  1  0
 23 17  2  0
M  END
>  <cnnaffinity>  (1) 
-5.19164

>  <filename>  (1) 
c1cncc(-c2nnc(C3(NCc4cccs4)CC3)o2)c1

$$$$
