
     RDKit          3D

 35 38  0  0  0  0  0  0  0  0999 V2000
    5.1311    1.8029   16.9821 H   0  0  0  0  0  0  0  0  0  0  0  0
    5.5445    1.3487   17.8818 C   0  0  0  0  0  0  0  0  0  0  0  0
    6.7008    0.6820   17.7355 N   0  0  0  0  0  0  0  0  0  0  0  0
    7.2078    0.0962   18.8276 C   0  0  0  0  0  0  0  0  0  0  0  0
    8.1516   -0.4267   18.6797 H   0  0  0  0  0  0  0  0  0  0  0  0
    6.6188    0.1309   20.1048 C   0  0  0  0  0  0  0  0  0  0  0  0
    7.2026   -0.7005   21.1798 C   0  0  0  0  0  0  0  0  0  0  0  0
    7.5068   -2.0384   21.1326 C   0  0  0  0  0  0  0  0  0  0  0  0
    7.2877   -2.6753   20.2932 H   0  0  0  0  0  0  0  0  0  0  0  0
    8.0054   -2.3408   22.4165 C   0  0  0  0  0  0  0  0  0  0  0  0
    8.3908   -3.2767   22.8007 H   0  0  0  0  0  0  0  0  0  0  0  0
    7.9986   -1.2768   23.2044 N   0  0  0  0  0  0  0  0  0  0  0  0
    7.5189   -0.2766   22.4399 N   0  0  0  0  0  0  0  0  0  0  0  0
    7.4356    1.0619   23.0147 C   0  0  0  0  0  0  0  0  0  0  0  0
    7.0576    1.7381   22.2433 H   0  0  0  0  0  0  0  0  0  0  0  0
    6.7124    1.0057   23.8345 H   0  0  0  0  0  0  0  0  0  0  0  0
    8.7707    1.5255   23.5331 C   0  0  0  0  0  0  0  0  0  0  0  0
    9.0572    1.4767   24.8956 C   0  0  0  0  0  0  0  0  0  0  0  0
    8.3018    1.1273   25.5966 H   0  0  0  0  0  0  0  0  0  0  0  0
   10.3379    1.8101   25.3845 C   0  0  0  0  0  0  0  0  0  0  0  0
   10.5371    1.7307   26.4450 H   0  0  0  0  0  0  0  0  0  0  0  0
   11.3487    2.2160   24.5266 C   0  0  0  0  0  0  0  0  0  0  0  0
   12.3523    2.4037   24.8814 H   0  0  0  0  0  0  0  0  0  0  0  0
   11.0534    2.2781   23.1571 C   0  0  0  0  0  0  0  0  0  0  0  0
    9.8020    1.8773   22.6337 C   0  0  0  0  0  0  0  0  0  0  0  0
    9.9361    1.9094   21.2010 C   0  0  0  0  0  0  0  0  0  0  0  0
    9.1938    1.5179   20.5124 H   0  0  0  0  0  0  0  0  0  0  0  0
   11.1852    2.3904   20.9227 C   0  0  0  0  0  0  0  0  0  0  0  0
   11.6298    2.6646   19.9772 H   0  0  0  0  0  0  0  0  0  0  0  0
   11.8557    2.6292   22.1028 N   0  0  0  0  0  0  0  0  0  0  0  0
   12.8273    2.8685   22.2012 H   0  0  0  0  0  0  0  0  0  0  0  0
    5.4225    0.8542   20.2376 C   0  0  0  0  0  0  0  0  0  0  0  0
    4.9268    0.9092   21.2070 H   0  0  0  0  0  0  0  0  0  0  0  0
    4.8717    1.4591   19.1030 C   0  0  0  0  0  0  0  0  0  0  0  0
    3.9342    2.0017   19.1469 H   0  0  0  0  0  0  0  0  0  0  0  0
  1  2  1  0
  2  3  2  0
  3  4  1  0
  4  5  1  0
  4  6  2  0
  6  7  1  0
  7  8  2  0
  8  9  1  0
  8 10  1  0
 10 11  1  0
 10 12  2  0
 12 13  1  0
 13 14  1  0
 14 15  1  0
 14 16  1  0
 14 17  1  0
 17 18  2  0
 18 19  1  0
 18 20  1  0
 20 21  1  0
 20 22  2  0
 22 23  1  0
 22 24  1  0
 24 25  2  0
 25 26  1  0
 26 27  1  0
 26 28  2  0
 28 29  1  0
 28 30  1  0
 30 31  1  0
  6 32  1  0
 32 33  1  0
 32 34  2  0
 34 35  1  0
 34  2  1  0
 13  7  1  0
 25 17  1  0
 30 24  1  0
M  END
>  <cnnaffinity>  (1) 
-5.32493

>  <filename>  (1) 
c1cncc(-c2ccnn2Cc2cccc3[nH]ccc23)c1

$$$$
