
     RDKit          3D

 41 44  0  0  0  0  0  0  0  0999 V2000
    4.8986    1.7054   17.3936 H   0  0  0  0  0  0  0  0  0  0  0  0
    5.4009    1.2148   18.2261 C   0  0  0  0  0  0  0  0  0  0  0  0
    6.6229    0.7315   17.9751 N   0  0  0  0  0  0  0  0  0  0  0  0
    7.2605    0.1172   18.9852 C   0  0  0  0  0  0  0  0  0  0  0  0
    8.2666   -0.2280   18.7584 H   0  0  0  0  0  0  0  0  0  0  0  0
    6.7403   -0.0868   20.2760 C   0  0  0  0  0  0  0  0  0  0  0  0
    7.6712   -0.7567   21.3298 C   0  0  0  0  0  0  0  0  0  0  0  0
    8.8950    0.1612   21.6053 C   0  0  0  0  0  0  0  0  0  0  0  0
   10.2414   -0.3395   21.5488 C   0  0  0  0  0  0  0  0  0  0  0  0
   10.4564   -1.3513   21.2203 H   0  0  0  0  0  0  0  0  0  0  0  0
   11.3140    0.4409   21.8660 C   0  0  0  0  0  0  0  0  0  0  0  0
   12.3229    0.0403   21.8119 H   0  0  0  0  0  0  0  0  0  0  0  0
   11.1317    1.7933   22.2565 C   0  0  0  0  0  0  0  0  0  0  0  0
   12.2452    2.5964   22.6290 C   0  0  0  0  0  0  0  0  0  0  0  0
   13.2343    2.1442   22.6135 H   0  0  0  0  0  0  0  0  0  0  0  0
   12.0543    3.8945   23.0292 C   0  0  0  0  0  0  0  0  0  0  0  0
   12.8982    4.5044   23.3332 H   0  0  0  0  0  0  0  0  0  0  0  0
   10.7458    4.4531   23.0436 C   0  0  0  0  0  0  0  0  0  0  0  0
   10.6149    5.4824   23.3564 H   0  0  0  0  0  0  0  0  0  0  0  0
    9.6514    3.7065   22.6692 C   0  0  0  0  0  0  0  0  0  0  0  0
    8.6645    4.1640   22.6424 H   0  0  0  0  0  0  0  0  0  0  0  0
    9.8077    2.3392   22.2846 C   0  0  0  0  0  0  0  0  0  0  0  0
    8.7076    1.4905   21.9377 C   0  0  0  0  0  0  0  0  0  0  0  0
    7.7044    1.9165   21.9169 H   0  0  0  0  0  0  0  0  0  0  0  0
    8.2082   -2.1345   20.8561 C   0  0  0  0  0  0  0  0  0  0  0  0
    8.8840   -2.5074   21.6355 H   0  0  0  0  0  0  0  0  0  0  0  0
    8.8064   -1.9650   19.9598 H   0  0  0  0  0  0  0  0  0  0  0  0
    7.1172   -3.1804   20.7104 C   0  0  0  0  0  0  0  0  0  0  0  0
    7.5054   -4.1650   20.4311 H   0  0  0  0  0  0  0  0  0  0  0  0
    6.3867   -2.8329   19.9552 H   0  0  0  0  0  0  0  0  0  0  0  0
    6.5196   -3.4130   21.9632 O   0  0  0  0  0  0  0  0  0  0  0  0
    5.9283   -2.2426   22.4637 C   0  0  0  0  0  0  0  0  0  0  0  0
    5.1302   -1.9574   21.7558 H   0  0  0  0  0  0  0  0  0  0  0  0
    5.4796   -2.5119   23.4247 H   0  0  0  0  0  0  0  0  0  0  0  0
    6.9181   -1.0798   22.6491 C   0  0  0  0  0  0  0  0  0  0  0  0
    6.4082   -0.1853   23.0211 H   0  0  0  0  0  0  0  0  0  0  0  0
    7.6444   -1.3678   23.4193 H   0  0  0  0  0  0  0  0  0  0  0  0
    5.4432    0.4231   20.5003 C   0  0  0  0  0  0  0  0  0  0  0  0
    4.9331    0.3020   21.4556 H   0  0  0  0  0  0  0  0  0  0  0  0
    4.7714    1.0874   19.4665 C   0  0  0  0  0  0  0  0  0  0  0  0
    3.7762    1.4979   19.6074 H   0  0  0  0  0  0  0  0  0  0  0  0
  1  2  1  0
  2  3  2  0
  3  4  1  0
  4  5  1  0
  4  6  2  0
  6  7  1  0
  7  8  1  0
  8  9  2  0
  9 10  1  0
  9 11  1  0
 11 12  1  0
 11 13  2  0
 13 14  1  0
 14 15  1  0
 14 16  2  0
 16 17  1  0
 16 18  1  0
 18 19  1  0
 18 20  2  0
 20 21  1  0
 20 22  1  0
 22 23  2  0
 23 24  1  0
  7 25  1  0
 25 26  1  0
 25 27  1  0
 25 28  1  0
 28 29  1  0
 28 30  1  0
 28 31  1  0
 31 32  1  0
 32 33  1  0
 32 34  1  0
 32 35  1  0
 35 36  1  0
 35 37  1  0
  6 38  1  0
 38 39  1  0
 38 40  2  0
 40 41  1  0
 40  2  1  0
 35  7  1  0
 23  8  1  0
 22 13  1  0
M  END
>  <cnnaffinity>  (1) 
-5.03009

>  <filename>  (1) 
c1cncc(C2(c3ccc4ccccc4c3)CCOCC2)c1

$$$$
