
     RDKit          3D

 40 43  0  0  0  0  0  0  0  0999 V2000
    4.7792    1.3349   19.0442 C   0  0  0  0  0  0  0  0  0  0  0  0
    5.4038    1.3076   17.7925 C   0  0  0  0  0  0  0  0  0  0  0  0
    6.5517    0.6528   17.5502 N   0  0  0  0  0  0  0  0  0  0  0  0
    7.1272    0.0175   18.5742 C   0  0  0  0  0  0  0  0  0  0  0  0
    6.6083    0.0278   19.8747 C   0  0  0  0  0  0  0  0  0  0  0  0
    7.3617   -0.6713   20.9098 C   0  0  0  0  0  0  0  0  0  0  0  0
    7.8895   -1.8829   20.8098 N   0  0  0  0  0  0  0  0  0  0  0  0
    8.3751   -2.0943   22.0541 C   0  0  0  0  0  0  0  0  0  0  0  0
    9.1089   -3.3136   22.4553 C   0  0  0  0  0  0  0  0  0  0  0  0
   10.5145   -2.9831   23.0233 C   0  0  0  0  0  0  0  0  0  0  0  0
   10.2177   -3.9686   24.5289 S   0  0  0  0  0  0  0  0  0  0  0  0
    8.6040   -4.1143   23.6857 C   0  0  0  0  0  0  0  0  0  0  0  0
    7.7834   -3.6444   24.2403 H   0  0  0  0  0  0  0  0  0  0  0  0
    8.3649   -5.1577   23.4629 H   0  0  0  0  0  0  0  0  0  0  0  0
   11.3530   -3.2777   22.3971 H   0  0  0  0  0  0  0  0  0  0  0  0
   10.6204   -1.9193   23.2650 H   0  0  0  0  0  0  0  0  0  0  0  0
    9.0811   -3.9021   21.5461 H   0  0  0  0  0  0  0  0  0  0  0  0
    8.2402   -1.0882   22.8866 N   0  0  0  0  0  0  0  0  0  0  0  0
    7.6025   -0.1667   22.1392 N   0  0  0  0  0  0  0  0  0  0  0  0
    7.3888    1.1243   22.7541 C   0  0  0  0  0  0  0  0  0  0  0  0
    6.3430    1.0021   23.8601 C   0  0  0  0  0  0  0  0  0  0  0  0
    5.9661    2.3485   24.3843 C   0  0  0  0  0  0  0  0  0  0  0  0
    4.9695    3.0980   23.7520 C   0  0  0  0  0  0  0  0  0  0  0  0
    4.7011    4.3880   24.2040 C   0  0  0  0  0  0  0  0  0  0  0  0
    5.3554    4.9680   25.2195 N   0  0  0  0  0  0  0  0  0  0  0  0
    6.3224    4.2521   25.8073 C   0  0  0  0  0  0  0  0  0  0  0  0
    6.6656    2.9538   25.4309 C   0  0  0  0  0  0  0  0  0  0  0  0
    7.4700    2.4368   25.9423 H   0  0  0  0  0  0  0  0  0  0  0  0
    6.8501    4.7400   26.6237 H   0  0  0  0  0  0  0  0  0  0  0  0
    3.9214    4.9807   23.7312 H   0  0  0  0  0  0  0  0  0  0  0  0
    4.4212    2.6969   22.9057 H   0  0  0  0  0  0  0  0  0  0  0  0
    5.4604    0.4978   23.4563 H   0  0  0  0  0  0  0  0  0  0  0  0
    6.7470    0.3452   24.6366 H   0  0  0  0  0  0  0  0  0  0  0  0
    8.3478    1.4450   23.1711 H   0  0  0  0  0  0  0  0  0  0  0  0
    7.0960    1.8441   21.9883 H   0  0  0  0  0  0  0  0  0  0  0  0
    5.3935    0.6886   20.1092 C   0  0  0  0  0  0  0  0  0  0  0  0
    4.9344    0.6883   21.1017 H   0  0  0  0  0  0  0  0  0  0  0  0
    8.0615   -0.5035   18.3626 H   0  0  0  0  0  0  0  0  0  0  0  0
    4.9625    1.8345   16.9506 H   0  0  0  0  0  0  0  0  0  0  0  0
    3.8499    1.8742   19.1800 H   0  0  0  0  0  0  0  0  0  0  0  0
  1  2  2  0
  2  3  1  0
  3  4  2  0
  4  5  1  0
  5  6  1  0
  6  7  2  0
  7  8  1  0
  8  9  1  0
  9 10  1  0
 10 11  1  0
 11 12  1  0
 12 13  1  0
 12 14  1  0
 10 15  1  0
 10 16  1  0
  9 17  1  0
  8 18  2  0
 18 19  1  0
 19 20  1  0
 20 21  1  0
 21 22  1  0
 22 23  2  0
 23 24  1  0
 24 25  2  0
 25 26  1  0
 26 27  2  0
 27 28  1  0
 26 29  1  0
 24 30  1  0
 23 31  1  0
 21 32  1  0
 21 33  1  0
 20 34  1  0
 20 35  1  0
  5 36  2  0
 36 37  1  0
  4 38  1  0
  2 39  1  0
  1 40  1  0
 36  1  1  0
 19  6  1  0
 27 22  1  0
 12  9  1  0
M  END
>  <cnnaffinity>  (1) 
-5.6227

>  <filename>  (1) 
c1cncc(-c2nc(C3CSC3)nn2CCc2ccncc2)c1

$$$$
