
     RDKit          3D

 28 30  0  0  0  0  0  0  0  0999 V2000
    9.1381   -2.7422   23.6561 H   0  0  0  0  0  0  0  0  0  0  0  0
    8.6341   -2.1467   22.8951 C   0  0  0  0  0  0  0  0  0  0  0  0
    7.4086   -2.5203   22.5467 N   0  0  0  0  0  0  0  0  0  0  0  0
    6.8142   -1.7649   21.6143 C   0  0  0  0  0  0  0  0  0  0  0  0
    5.8021   -2.0589   21.3223 H   0  0  0  0  0  0  0  0  0  0  0  0
    7.3947   -0.6883   20.9719 C   0  0  0  0  0  0  0  0  0  0  0  0
    6.6821    0.0506   19.8585 C   0  0  0  0  0  0  0  0  0  0  0  0
    7.1559    0.0988   18.5219 C   0  0  0  0  0  0  0  0  0  0  0  0
    8.0948   -0.4017   18.2870 H   0  0  0  0  0  0  0  0  0  0  0  0
    6.5248    0.7014   17.5060 N   0  0  0  0  0  0  0  0  0  0  0  0
    5.3678    1.3234   17.7881 C   0  0  0  0  0  0  0  0  0  0  0  0
    4.8875    1.8376   16.9578 H   0  0  0  0  0  0  0  0  0  0  0  0
    4.7865    1.3310   19.0604 C   0  0  0  0  0  0  0  0  0  0  0  0
    3.8489    1.8588   19.2188 H   0  0  0  0  0  0  0  0  0  0  0  0
    5.4450    0.6700   20.1036 C   0  0  0  0  0  0  0  0  0  0  0  0
    5.0289    0.6359   21.1108 H   0  0  0  0  0  0  0  0  0  0  0  0
    8.7032   -0.4218   21.4611 C   0  0  0  0  0  0  0  0  0  0  0  0
    9.3968    0.5935   20.9245 N   0  0  0  0  0  0  0  0  0  0  0  0
    8.8406    1.2105   20.3604 H   0  0  0  0  0  0  0  0  0  0  0  0
   10.7297    0.9307   21.2986 C   0  0  0  0  0  0  0  0  0  0  0  0
   11.5016    0.2386   20.9628 H   0  0  0  0  0  0  0  0  0  0  0  0
   10.9526    1.5694   22.6407 C   0  0  0  0  0  0  0  0  0  0  0  0
   10.0566    1.7182   23.2309 H   0  0  0  0  0  0  0  0  0  0  0  0
   11.8353    1.3161   23.2163 H   0  0  0  0  0  0  0  0  0  0  0  0
   11.0374    2.3764   21.3781 C   0  0  0  0  0  0  0  0  0  0  0  0
   11.9744    2.7589   20.9883 H   0  0  0  0  0  0  0  0  0  0  0  0
   10.1725    3.0008   21.2107 H   0  0  0  0  0  0  0  0  0  0  0  0
    9.3145   -1.1247   22.4048 N   0  0  0  0  0  0  0  0  0  0  0  0
  1  2  1  0
  2  3  2  0
  3  4  1  0
  4  5  1  0
  4  6  2  0
  6  7  1  0
  7  8  2  0
  8  9  1  0
  8 10  1  0
 10 11  2  0
 11 12  1  0
 11 13  1  0
 13 14  1  0
 13 15  2  0
 15 16  1  0
  6 17  1  0
 17 18  1  0
 18 19  1  0
 18 20  1  0
 20 21  1  0
 20 22  1  0
 22 23  1  0
 22 24  1  0
 22 25  1  0
 25 26  1  0
 25 27  1  0
 17 28  2  0
 28  2  1  0
 15  7  1  0
 25 20  1  0
M  END
>  <cnnaffinity>  (1) 
-4.677

>  <filename>  (1) 
c1cncc(-c2cncnc2NC2CC2)c1

$$$$
