
     RDKit          3D

 42 46  0  0  0  0  0  0  0  0999 V2000
    4.8039    1.3053   19.0204 C   0  0  0  0  0  0  0  0  0  0  0  0
    5.3881    1.3066   17.7496 C   0  0  0  0  0  0  0  0  0  0  0  0
    6.5196    0.6503   17.4518 N   0  0  0  0  0  0  0  0  0  0  0  0
    7.1199   -0.0204   18.4430 C   0  0  0  0  0  0  0  0  0  0  0  0
    6.6427   -0.0731   19.7625 C   0  0  0  0  0  0  0  0  0  0  0  0
    7.4572   -0.7083   20.8823 C   0  0  0  0  0  0  0  0  0  0  0  0
    8.3832    0.2849   21.5272 C   0  0  0  0  0  0  0  0  0  0  0  0
    9.5997    0.5377   21.0949 N   0  0  0  0  0  0  0  0  0  0  0  0
   10.0290    1.5089   21.9445 N   0  0  0  0  0  0  0  0  0  0  0  0
   11.4234    1.8872   21.9997 C   0  0  0  0  0  0  0  0  0  0  0  0
   12.1019    1.9087   23.3470 C   0  0  0  0  0  0  0  0  0  0  0  0
   12.4390    0.8366   22.3559 C   0  0  0  0  0  0  0  0  0  0  0  0
   12.0686   -0.1670   22.5390 H   0  0  0  0  0  0  0  0  0  0  0  0
   13.4101    0.8664   21.8712 H   0  0  0  0  0  0  0  0  0  0  0  0
   12.8169    2.6926   23.5701 H   0  0  0  0  0  0  0  0  0  0  0  0
   11.4781    1.6385   24.1991 H   0  0  0  0  0  0  0  0  0  0  0  0
   11.6945    2.6316   21.2527 H   0  0  0  0  0  0  0  0  0  0  0  0
    9.0274    1.8185   22.8124 C   0  0  0  0  0  0  0  0  0  0  0  0
    9.1289    2.9236   23.7959 C   0  0  0  0  0  0  0  0  0  0  0  0
    9.6163    4.1619   23.4133 C   0  0  0  0  0  0  0  0  0  0  0  0
    9.5934    5.2668   24.2996 C   0  0  0  0  0  0  0  0  0  0  0  0
    9.0314    5.1532   25.5553 C   0  0  0  0  0  0  0  0  0  0  0  0
    8.5370    3.8927   25.9978 C   0  0  0  0  0  0  0  0  0  0  0  0
    7.9273    3.6950   27.2711 C   0  0  0  0  0  0  0  0  0  0  0  0
    7.6285    2.4202   27.6841 C   0  0  0  0  0  0  0  0  0  0  0  0
    7.9104    1.3069   26.9648 N   0  0  0  0  0  0  0  0  0  0  0  0
    8.4199    1.4692   25.7606 C   0  0  0  0  0  0  0  0  0  0  0  0
    8.6867    2.7428   25.1542 C   0  0  0  0  0  0  0  0  0  0  0  0
    8.6479    0.5639   25.1953 H   0  0  0  0  0  0  0  0  0  0  0  0
    7.1708    2.2259   28.6505 H   0  0  0  0  0  0  0  0  0  0  0  0
    7.7196    4.5340   27.9263 H   0  0  0  0  0  0  0  0  0  0  0  0
    8.9835    6.0114   26.2235 H   0  0  0  0  0  0  0  0  0  0  0  0
   10.0165    6.2047   23.9576 H   0  0  0  0  0  0  0  0  0  0  0  0
    9.9768    4.2944   22.3963 H   0  0  0  0  0  0  0  0  0  0  0  0
    7.9847    1.0317   22.5850 N   0  0  0  0  0  0  0  0  0  0  0  0
    6.7847   -1.0568   21.6737 H   0  0  0  0  0  0  0  0  0  0  0  0
    8.0371   -1.5659   20.5180 H   0  0  0  0  0  0  0  0  0  0  0  0
    5.4487    0.6038   20.0432 C   0  0  0  0  0  0  0  0  0  0  0  0
    5.0427    0.5880   21.0569 H   0  0  0  0  0  0  0  0  0  0  0  0
    8.0444   -0.5400   18.1870 H   0  0  0  0  0  0  0  0  0  0  0  0
    4.9350    1.8633   16.9317 H   0  0  0  0  0  0  0  0  0  0  0  0
    3.8849    1.8565   19.1934 H   0  0  0  0  0  0  0  0  0  0  0  0
  1  2  2  0
  2  3  1  0
  3  4  2  0
  4  5  1  0
  5  6  1  0
  6  7  1  0
  7  8  2  0
  8  9  1  0
  9 10  1  0
 10 11  1  0
 11 12  1  0
 12 13  1  0
 12 14  1  0
 11 15  1  0
 11 16  1  0
 10 17  1  0
  9 18  1  0
 18 19  1  0
 19 20  2  0
 20 21  1  0
 21 22  2  0
 22 23  1  0
 23 24  2  0
 24 25  1  0
 25 26  2  0
 26 27  1  0
 27 28  2  0
 27 29  1  0
 25 30  1  0
 24 31  1  0
 22 32  1  0
 21 33  1  0
 20 34  1  0
 18 35  2  0
  6 36  1  0
  6 37  1  0
  5 38  2  0
 38 39  1  0
  4 40  1  0
  2 41  1  0
  1 42  1  0
 38  1  1  0
 35  7  1  0
 12 10  1  0
 28 19  1  0
 28 23  1  0
M  END
>  <cnnaffinity>  (1) 
-5.69246

>  <filename>  (1) 
c1cncc(Cc2nc(-c3cccc4ccncc34)n(C3CC3)n2)c1

$$$$
