
     RDKit          3D

 51 55  0  0  0  0  0  0  0  0999 V2000
    4.8027    1.3104   19.0013 C   0  0  0  0  0  0  0  0  0  0  0  0
    5.4063    1.2914   17.7386 C   0  0  0  0  0  0  0  0  0  0  0  0
    6.5323    0.6148   17.4630 N   0  0  0  0  0  0  0  0  0  0  0  0
    7.1079   -0.0452   18.4752 C   0  0  0  0  0  0  0  0  0  0  0  0
    6.6092   -0.0700   19.7879 C   0  0  0  0  0  0  0  0  0  0  0  0
    7.4133   -0.6317   20.9437 C   0  0  0  0  0  0  0  0  0  0  0  0
    8.2278    0.4453   21.5919 C   0  0  0  0  0  0  0  0  0  0  0  0
    7.9461    0.9584   22.7702 N   0  0  0  0  0  0  0  0  0  0  0  0
    8.9112    1.9075   22.9237 N   0  0  0  0  0  0  0  0  0  0  0  0
    8.9148    2.8389   24.0065 C   0  0  0  0  0  0  0  0  0  0  0  0
    8.5358    2.4086   25.3171 C   0  0  0  0  0  0  0  0  0  0  0  0
    8.5333    3.3063   26.3607 C   0  0  0  0  0  0  0  0  0  0  0  0
    8.9326    4.6689   26.1649 C   0  0  0  0  0  0  0  0  0  0  0  0
    8.9118    5.6374   27.2133 C   0  0  0  0  0  0  0  0  0  0  0  0
    9.3664    6.9194   26.9954 C   0  0  0  0  0  0  0  0  0  0  0  0
    9.8754    7.2958   25.7175 C   0  0  0  0  0  0  0  0  0  0  0  0
    9.8701    6.3988   24.6745 C   0  0  0  0  0  0  0  0  0  0  0  0
    9.3697    5.0749   24.8613 C   0  0  0  0  0  0  0  0  0  0  0  0
    9.2987    4.1441   23.7854 C   0  0  0  0  0  0  0  0  0  0  0  0
    9.5442    4.4811   22.7820 H   0  0  0  0  0  0  0  0  0  0  0  0
   10.2444    6.6726   23.6869 H   0  0  0  0  0  0  0  0  0  0  0  0
   10.2638    8.3008   25.5759 H   0  0  0  0  0  0  0  0  0  0  0  0
    9.3354    7.6505   27.7982 H   0  0  0  0  0  0  0  0  0  0  0  0
    8.5285    5.3455   28.1892 H   0  0  0  0  0  0  0  0  0  0  0  0
    8.2321    2.9858   27.3587 H   0  0  0  0  0  0  0  0  0  0  0  0
    8.2488    1.3706   25.4690 H   0  0  0  0  0  0  0  0  0  0  0  0
    9.7464    1.8715   21.8452 C   0  0  0  0  0  0  0  0  0  0  0  0
   11.1252    2.4461   21.8526 C   0  0  0  0  0  0  0  0  0  0  0  0
   11.9416    1.9457   23.0650 C   0  0  0  0  0  0  0  0  0  0  0  0
   11.7540    0.4232   23.3273 C   0  0  0  0  0  0  0  0  0  0  0  0
   12.7770   -0.0265   24.1858 O   0  0  0  0  0  0  0  0  0  0  0  0
   14.0883    0.1200   23.6522 C   0  0  0  0  0  0  0  0  0  0  0  0
   14.1629    1.2129   22.5924 C   0  0  0  0  0  0  0  0  0  0  0  0
   13.3108    2.3101   22.8689 O   0  0  0  0  0  0  0  0  0  0  0  0
   15.1844    1.5820   22.4599 H   0  0  0  0  0  0  0  0  0  0  0  0
   13.8437    0.7303   21.6607 H   0  0  0  0  0  0  0  0  0  0  0  0
   14.4325   -0.8120   23.1704 H   0  0  0  0  0  0  0  0  0  0  0  0
   14.7230    0.3070   24.5158 H   0  0  0  0  0  0  0  0  0  0  0  0
   11.7557   -0.1388   22.3758 H   0  0  0  0  0  0  0  0  0  0  0  0
   10.7949    0.2162   23.8056 H   0  0  0  0  0  0  0  0  0  0  0  0
   11.6247    2.4692   23.9781 H   0  0  0  0  0  0  0  0  0  0  0  0
   11.1310    3.5359   21.8800 H   0  0  0  0  0  0  0  0  0  0  0  0
   11.6135    2.1501   20.9183 H   0  0  0  0  0  0  0  0  0  0  0  0
    9.3238    0.9720   20.9786 N   0  0  0  0  0  0  0  0  0  0  0  0
    6.7598   -1.0574   21.7078 H   0  0  0  0  0  0  0  0  0  0  0  0
    8.0886   -1.4240   20.6066 H   0  0  0  0  0  0  0  0  0  0  0  0
    5.4199    0.6208   20.0465 C   0  0  0  0  0  0  0  0  0  0  0  0
    5.0061    0.6252   21.0587 H   0  0  0  0  0  0  0  0  0  0  0  0
    8.0300   -0.5805   18.2435 H   0  0  0  0  0  0  0  0  0  0  0  0
    4.9659    1.8351   16.9049 H   0  0  0  0  0  0  0  0  0  0  0  0
    3.8928    1.8821   19.1560 H   0  0  0  0  0  0  0  0  0  0  0  0
  1  2  2  0
  2  3  1  0
  3  4  2  0
  4  5  1  0
  5  6  1  0
  6  7  1  0
  7  8  2  0
  8  9  1  0
  9 10  1  0
 10 11  2  0
 11 12  1  0
 12 13  2  0
 13 14  1  0
 14 15  2  0
 15 16  1  0
 16 17  2  0
 17 18  1  0
 18 19  2  0
 19 20  1  0
 17 21  1  0
 16 22  1  0
 15 23  1  0
 14 24  1  0
 12 25  1  0
 11 26  1  0
  9 27  1  0
 27 28  1  0
 28 29  1  0
 29 30  1  0
 30 31  1  0
 31 32  1  0
 32 33  1  0
 33 34  1  0
 33 35  1  0
 33 36  1  0
 32 37  1  0
 32 38  1  0
 30 39  1  0
 30 40  1  0
 29 41  1  0
 28 42  1  0
 28 43  1  0
 27 44  2  0
  6 45  1  0
  6 46  1  0
  5 47  2  0
 47 48  1  0
  4 49  1  0
  2 50  1  0
  1 51  1  0
 47  1  1  0
 44  7  1  0
 19 10  1  0
 34 29  1  0
 18 13  1  0
M  END
>  <cnnaffinity>  (1) 
-5.97637

>  <filename>  (1) 
c1cncc(Cc2nc(CC3COCCO3)n(-c3ccc4ccccc4c3)n2)c1

$$$$
