
     RDKit          3D

 26 28  0  0  0  0  0  0  0  0999 V2000
    4.9155    1.7842   16.9937 H   0  0  0  0  0  0  0  0  0  0  0  0
    5.3973    1.2964   17.8376 C   0  0  0  0  0  0  0  0  0  0  0  0
    6.5639    0.6814   17.5757 N   0  0  0  0  0  0  0  0  0  0  0  0
    7.1699    0.0625   18.5938 C   0  0  0  0  0  0  0  0  0  0  0  0
    8.1171   -0.4267   18.3703 H   0  0  0  0  0  0  0  0  0  0  0  0
    6.6647    0.0155   19.9113 C   0  0  0  0  0  0  0  0  0  0  0  0
    7.3685   -0.6869   20.9998 C   0  0  0  0  0  0  0  0  0  0  0  0
    8.0369   -2.2579   20.8249 S   0  0  0  0  0  0  0  0  0  0  0  0
    8.5802   -2.4197   22.3808 N   0  0  0  0  0  0  0  0  0  0  0  0
    8.2860   -1.3274   23.0254 C   0  0  0  0  0  0  0  0  0  0  0  0
    8.5667   -1.2494   24.0690 H   0  0  0  0  0  0  0  0  0  0  0  0
    7.5944   -0.2908   22.3016 C   0  0  0  0  0  0  0  0  0  0  0  0
    7.2161    0.9253   22.8304 N   0  0  0  0  0  0  0  0  0  0  0  0
    6.9236    1.6363   22.1773 H   0  0  0  0  0  0  0  0  0  0  0  0
    7.3826    1.2675   24.1990 C   0  0  0  0  0  0  0  0  0  0  0  0
    6.7492    0.7030   24.8849 H   0  0  0  0  0  0  0  0  0  0  0  0
    8.7598    1.6436   24.6695 C   0  0  0  0  0  0  0  0  0  0  0  0
    9.0710    1.3615   25.6715 H   0  0  0  0  0  0  0  0  0  0  0  0
    9.5411    1.6279   23.9169 H   0  0  0  0  0  0  0  0  0  0  0  0
    7.6880    2.6866   24.5276 C   0  0  0  0  0  0  0  0  0  0  0  0
    7.2699    3.1113   25.4338 H   0  0  0  0  0  0  0  0  0  0  0  0
    7.7587    3.3930   23.7076 H   0  0  0  0  0  0  0  0  0  0  0  0
    5.4411    0.6623   20.1575 C   0  0  0  0  0  0  0  0  0  0  0  0
    5.0137    0.6238   21.1607 H   0  0  0  0  0  0  0  0  0  0  0  0
    4.8000    1.3126   19.1018 C   0  0  0  0  0  0  0  0  0  0  0  0
    3.8691    1.8448   19.2558 H   0  0  0  0  0  0  0  0  0  0  0  0
  1  2  1  0
  2  3  2  0
  3  4  1  0
  4  5  1  0
  4  6  2  0
  6  7  1  0
  7  8  1  0
  8  9  1  0
  9 10  2  0
 10 11  1  0
 10 12  1  0
 12 13  1  0
 13 14  1  0
 13 15  1  0
 15 16  1  0
 15 17  1  0
 17 18  1  0
 17 19  1  0
 17 20  1  0
 20 21  1  0
 20 22  1  0
  6 23  1  0
 23 24  1  0
 23 25  2  0
 25 26  1  0
 25  2  1  0
 12  7  2  0
 20 15  1  0
M  END
>  <cnnaffinity>  (1) 
-4.79264

>  <filename>  (1) 
c1cncc(-c2sncc2NC2CC2)c1

$$$$
