
     RDKit          3D

 48 52  0  0  0  0  0  0  0  0999 V2000
    4.8241    1.3187   18.7565 C   0  0  0  0  0  0  0  0  0  0  0  0
    5.3244    1.2530   17.4522 C   0  0  0  0  0  0  0  0  0  0  0  0
    6.4169    0.5538   17.1114 N   0  0  0  0  0  0  0  0  0  0  0  0
    7.0778   -0.0660   18.0956 C   0  0  0  0  0  0  0  0  0  0  0  0
    6.7100   -0.0005   19.4485 C   0  0  0  0  0  0  0  0  0  0  0  0
    7.6039   -0.5070   20.5632 C   0  0  0  0  0  0  0  0  0  0  0  0
    8.3186    0.6051   21.2908 C   0  0  0  0  0  0  0  0  0  0  0  0
    9.4604    1.0837   20.8503 N   0  0  0  0  0  0  0  0  0  0  0  0
    9.8121    2.0058   21.7934 N   0  0  0  0  0  0  0  0  0  0  0  0
   11.2343    2.3779   21.9067 C   0  0  0  0  0  0  0  0  0  0  0  0
   11.9531    1.7814   23.1477 C   0  0  0  0  0  0  0  0  0  0  0  0
   11.8885    0.2730   23.1149 C   0  0  0  0  0  0  0  0  0  0  0  0
   12.8338   -0.5003   22.4258 C   0  0  0  0  0  0  0  0  0  0  0  0
   12.5037   -1.8158   22.0848 C   0  0  0  0  0  0  0  0  0  0  0  0
   11.3433   -2.3951   22.4100 N   0  0  0  0  0  0  0  0  0  0  0  0
   10.4810   -1.6771   23.1464 C   0  0  0  0  0  0  0  0  0  0  0  0
   10.7320   -0.3712   23.5670 C   0  0  0  0  0  0  0  0  0  0  0  0
    9.9914    0.1498   24.1733 H   0  0  0  0  0  0  0  0  0  0  0  0
    9.5394   -2.1644   23.3943 H   0  0  0  0  0  0  0  0  0  0  0  0
   13.1997   -2.4217   21.5059 H   0  0  0  0  0  0  0  0  0  0  0  0
   13.8001   -0.0948   22.1405 H   0  0  0  0  0  0  0  0  0  0  0  0
   11.4820    2.1643   24.0589 H   0  0  0  0  0  0  0  0  0  0  0  0
   12.9897    2.1318   23.1426 H   0  0  0  0  0  0  0  0  0  0  0  0
   11.3282    3.4661   21.8858 H   0  0  0  0  0  0  0  0  0  0  0  0
   11.6961    1.9965   20.9927 H   0  0  0  0  0  0  0  0  0  0  0  0
    8.8353    2.0393   22.7430 C   0  0  0  0  0  0  0  0  0  0  0  0
    8.8557    2.9251   23.8996 C   0  0  0  0  0  0  0  0  0  0  0  0
    9.3039    4.2406   23.8173 C   0  0  0  0  0  0  0  0  0  0  0  0
    9.3285    5.1011   24.8569 N   0  0  0  0  0  0  0  0  0  0  0  0
    8.8986    4.6840   26.0470 C   0  0  0  0  0  0  0  0  0  0  0  0
    8.4126    3.3731   26.2415 C   0  0  0  0  0  0  0  0  0  0  0  0
    8.3958    2.4724   25.1558 C   0  0  0  0  0  0  0  0  0  0  0  0
    7.9040    1.2310   25.6585 C   0  0  0  0  0  0  0  0  0  0  0  0
    7.6323    1.4025   26.9829 C   0  0  0  0  0  0  0  0  0  0  0  0
    7.9242    2.6996   27.3399 N   0  0  0  0  0  0  0  0  0  0  0  0
    7.8208    3.0620   28.2760 H   0  0  0  0  0  0  0  0  0  0  0  0
    7.2802    0.6966   27.7255 H   0  0  0  0  0  0  0  0  0  0  0  0
    7.7344    0.3528   25.0508 H   0  0  0  0  0  0  0  0  0  0  0  0
    8.9297    5.3954   26.8675 H   0  0  0  0  0  0  0  0  0  0  0  0
    9.6745    4.6500   22.8821 H   0  0  0  0  0  0  0  0  0  0  0  0
    7.8878    1.1573   22.4535 N   0  0  0  0  0  0  0  0  0  0  0  0
    8.3566   -1.1944   20.1628 H   0  0  0  0  0  0  0  0  0  0  0  0
    7.0138   -1.0526   21.3049 H   0  0  0  0  0  0  0  0  0  0  0  0
    5.5297    0.6769   19.7733 C   0  0  0  0  0  0  0  0  0  0  0  0
    5.1972    0.7099   20.8134 H   0  0  0  0  0  0  0  0  0  0  0  0
    7.9629   -0.6348   17.8028 H   0  0  0  0  0  0  0  0  0  0  0  0
    4.8335    1.7820   16.6407 H   0  0  0  0  0  0  0  0  0  0  0  0
    3.9210    1.8809   18.9614 H   0  0  0  0  0  0  0  0  0  0  0  0
  1  2  2  0
  2  3  1  0
  3  4  2  0
  4  5  1  0
  5  6  1  0
  6  7  1  0
  7  8  2  0
  8  9  1  0
  9 10  1  0
 10 11  1  0
 11 12  1  0
 12 13  2  0
 13 14  1  0
 14 15  2  0
 15 16  1  0
 16 17  2  0
 17 18  1  0
 16 19  1  0
 14 20  1  0
 13 21  1  0
 11 22  1  0
 11 23  1  0
 10 24  1  0
 10 25  1  0
  9 26  1  0
 26 27  1  0
 27 28  2  0
 28 29  1  0
 29 30  2  0
 30 31  1  0
 31 32  2  0
 32 33  1  0
 33 34  2  0
 34 35  1  0
 35 36  1  0
 34 37  1  0
 33 38  1  0
 30 39  1  0
 28 40  1  0
 26 41  2  0
  6 42  1  0
  6 43  1  0
  5 44  2  0
 44 45  1  0
  4 46  1  0
  2 47  1  0
  1 48  1  0
 44  1  1  0
 41  7  1  0
 17 12  1  0
 32 27  1  0
 35 31  1  0
M  END
>  <cnnaffinity>  (1) 
-6.05387

>  <filename>  (1) 
c1cncc(Cc2nc(-c3cncc4[nH]ccc34)n(CCc3ccncc3)n2)c1

$$$$
