
     RDKit          3D

 36 38  0  0  0  0  0  0  0  0999 V2000
    4.9206    1.7968   16.9606 H   0  0  0  0  0  0  0  0  0  0  0  0
    5.4049    1.3116   17.8034 C   0  0  0  0  0  0  0  0  0  0  0  0
    6.5697    0.7014   17.5396 N   0  0  0  0  0  0  0  0  0  0  0  0
    7.1861    0.1008   18.5690 C   0  0  0  0  0  0  0  0  0  0  0  0
    8.1400   -0.3721   18.3281 H   0  0  0  0  0  0  0  0  0  0  0  0
    6.6911    0.0693   19.8828 C   0  0  0  0  0  0  0  0  0  0  0  0
    7.3771   -0.7045   20.9958 C   0  0  0  0  0  0  0  0  0  0  0  0
    8.4531   -0.8227   20.7820 H   0  0  0  0  0  0  0  0  0  0  0  0
    7.3037   -0.1557   21.9453 H   0  0  0  0  0  0  0  0  0  0  0  0
    6.7486   -2.0591   21.1863 C   0  0  0  0  0  0  0  0  0  0  0  0
    6.2841   -2.9642   20.2527 C   0  0  0  0  0  0  0  0  0  0  0  0
    6.2447   -2.7550   19.1887 H   0  0  0  0  0  0  0  0  0  0  0  0
    5.8060   -4.1084   20.9386 C   0  0  0  0  0  0  0  0  0  0  0  0
    5.3938   -5.0072   20.4987 H   0  0  0  0  0  0  0  0  0  0  0  0
    5.9337   -3.8625   22.2894 C   0  0  0  0  0  0  0  0  0  0  0  0
    5.6122   -4.3651   23.1885 H   0  0  0  0  0  0  0  0  0  0  0  0
    6.5203   -2.6363   22.4106 N   0  0  0  0  0  0  0  0  0  0  0  0
    6.6136   -1.9829   23.6108 O   0  0  0  0  0  0  0  0  0  0  0  0
    7.9765   -1.9203   24.0835 C   0  0  0  0  0  0  0  0  0  0  0  0
    8.6177   -1.4090   23.3557 H   0  0  0  0  0  0  0  0  0  0  0  0
    8.5663   -3.2853   24.4224 C   0  0  0  0  0  0  0  0  0  0  0  0
    7.7605   -3.9320   24.7877 H   0  0  0  0  0  0  0  0  0  0  0  0
    9.0011   -3.7760   23.5461 H   0  0  0  0  0  0  0  0  0  0  0  0
    9.6066   -2.9804   25.5156 C   0  0  0  0  0  0  0  0  0  0  0  0
   10.5978   -2.9044   25.0535 H   0  0  0  0  0  0  0  0  0  0  0  0
    9.6634   -3.7812   26.2612 H   0  0  0  0  0  0  0  0  0  0  0  0
    9.2030   -1.6165   26.1516 C   0  0  0  0  0  0  0  0  0  0  0  0
   10.0093   -0.8823   26.0346 H   0  0  0  0  0  0  0  0  0  0  0  0
    9.0060   -1.7147   27.2237 H   0  0  0  0  0  0  0  0  0  0  0  0
    7.9429   -1.1617   25.3949 C   0  0  0  0  0  0  0  0  0  0  0  0
    7.0384   -1.4639   25.9311 H   0  0  0  0  0  0  0  0  0  0  0  0
    7.8809   -0.0776   25.2419 H   0  0  0  0  0  0  0  0  0  0  0  0
    5.4575    0.6967   20.1234 C   0  0  0  0  0  0  0  0  0  0  0  0
    5.0181    0.6816   21.1232 H   0  0  0  0  0  0  0  0  0  0  0  0
    4.8027    1.3340   19.0648 C   0  0  0  0  0  0  0  0  0  0  0  0
    3.8513    1.8409   19.2042 H   0  0  0  0  0  0  0  0  0  0  0  0
  1  2  1  0
  2  3  2  0
  3  4  1  0
  4  5  1  0
  4  6  2  0
  6  7  1  0
  7  8  1  0
  7  9  1  0
  7 10  1  0
 10 11  2  0
 11 12  1  0
 11 13  1  0
 13 14  1  0
 13 15  2  0
 15 16  1  0
 15 17  1  0
 17 18  1  0
 18 19  1  0
 19 20  1  0
 19 21  1  0
 21 22  1  0
 21 23  1  0
 21 24  1  0
 24 25  1  0
 24 26  1  0
 24 27  1  0
 27 28  1  0
 27 29  1  0
 27 30  1  0
 30 31  1  0
 30 32  1  0
  6 33  1  0
 33 34  1  0
 33 35  2  0
 35 36  1  0
 35  2  1  0
 17 10  1  0
 30 19  1  0
M  END
>  <cnnaffinity>  (1) 
-4.59877

>  <filename>  (1) 
c1cncc(Cc2cccn2OC2CCCC2)c1

$$$$
