
     RDKit          3D

 30 32  0  0  0  0  0  0  0  0999 V2000
    5.4075    1.5125   17.5019 H   0  0  0  0  0  0  0  0  0  0  0  0
    5.9794    1.4337   18.4268 C   0  0  0  0  0  0  0  0  0  0  0  0
    7.2093    0.9146   18.3237 N   0  0  0  0  0  0  0  0  0  0  0  0
    7.9064    0.7799   19.4574 C   0  0  0  0  0  0  0  0  0  0  0  0
    8.9294    0.4225   19.3386 H   0  0  0  0  0  0  0  0  0  0  0  0
    7.3882    1.0224   20.7300 C   0  0  0  0  0  0  0  0  0  0  0  0
    8.0989    0.4529   21.9017 C   0  0  0  0  0  0  0  0  0  0  0  0
    8.4090    1.3266   22.8687 N   0  0  0  0  0  0  0  0  0  0  0  0
    9.0306    0.8709   23.9633 C   0  0  0  0  0  0  0  0  0  0  0  0
    9.2657    1.6132   24.7210 H   0  0  0  0  0  0  0  0  0  0  0  0
    9.3578   -0.4737   24.1627 C   0  0  0  0  0  0  0  0  0  0  0  0
    9.8445   -0.7773   25.0821 H   0  0  0  0  0  0  0  0  0  0  0  0
    9.0302   -1.3853   23.1612 C   0  0  0  0  0  0  0  0  0  0  0  0
    9.2665   -2.4456   23.2768 H   0  0  0  0  0  0  0  0  0  0  0  0
    8.4112   -0.9326   21.9886 C   0  0  0  0  0  0  0  0  0  0  0  0
    8.0244   -1.9501   20.9319 C   0  0  0  0  0  0  0  0  0  0  0  0
    8.3407   -1.6351   19.9384 H   0  0  0  0  0  0  0  0  0  0  0  0
    8.5452   -2.8952   21.1272 H   0  0  0  0  0  0  0  0  0  0  0  0
    6.5274   -2.2021   20.8472 C   0  0  0  0  0  0  0  0  0  0  0  0
    5.6885   -1.2799   20.0145 N   0  0  0  0  0  0  0  0  0  0  0  0
    5.7567   -2.4638   19.5942 C   0  0  0  0  0  0  0  0  0  0  0  0
    5.3649   -3.2637   18.9401 H   0  0  0  0  0  0  0  0  0  0  0  0
    4.6488   -3.2790   21.9492 N   0  0  0  0  0  0  0  0  0  0  0  0
    4.1850   -3.0400   21.0646 H   0  0  0  0  0  0  0  0  0  0  0  0
    5.8396   -2.8585   22.0046 C   0  0  0  0  0  0  0  0  0  0  0  0
    6.3916   -2.9526   22.9397 H   0  0  0  0  0  0  0  0  0  0  0  0
    6.1626    1.6951   20.8156 C   0  0  0  0  0  0  0  0  0  0  0  0
    5.7494    2.0130   21.7747 H   0  0  0  0  0  0  0  0  0  0  0  0
    5.4451    1.8994   19.6352 C   0  0  0  0  0  0  0  0  0  0  0  0
    4.4965    2.4269   19.6372 H   0  0  0  0  0  0  0  0  0  0  0  0
  1  2  1  0
  2  3  2  0
  3  4  1  0
  4  5  1  0
  4  6  2  0
  6  7  1  0
  7  8  2  0
  8  9  1  0
  9 10  1  0
  9 11  2  0
 11 12  1  0
 11 13  1  0
 13 14  1  0
 13 15  2  0
 15 16  1  0
 16 17  1  0
 16 18  1  0
 16 19  1  0
 19 20  1  0
 20 21  2  0
 21 22  1  0
 21 23  1  0
 23 24  1  0
 23 25  1  0
 25 26  1  0
  6 27  1  0
 27 28  1  0
 27 29  2  0
 29 30  1  0
 29  2  1  0
 15  7  1  0
 25 19  2  0
M  END
>  <cnnaffinity>  (1) 
-4.78807

>  <filename>  (1) 
c1cncc(-c2ncccc2Cc2c[nH]cn2)c1

$$$$
