
     RDKit          3D

 42 45  0  0  0  0  0  0  0  0999 V2000
    6.5158   -5.5054   28.7105 C   0  0  0  0  0  0  0  0  0  0  0  0
    7.6627   -6.1761   28.3010 C   0  0  0  0  0  0  0  0  0  0  0  0
    8.4338   -5.7275   27.3163 N   0  0  0  0  0  0  0  0  0  0  0  0
    8.0440   -4.6093   26.6677 C   0  0  0  0  0  0  0  0  0  0  0  0
    8.9416   -4.1516   25.4854 C   0  0  0  0  0  0  0  0  0  0  0  0
    8.4147   -3.5405   24.4017 N   0  0  0  0  0  0  0  0  0  0  0  0
    9.2348   -3.0680   23.4464 C   0  0  0  0  0  0  0  0  0  0  0  0
    8.6440   -2.3833   22.4087 N   0  0  0  0  0  0  0  0  0  0  0  0
    7.2621   -2.6619   22.0033 C   0  0  0  0  0  0  0  0  0  0  0  0
    6.5073   -1.3630   21.6718 C   0  0  0  0  0  0  0  0  0  0  0  0
    7.2259   -0.6327   20.6224 N   0  0  0  0  0  0  0  0  0  0  0  0
    6.5484    0.1151   19.6327 C   0  0  0  0  0  0  0  0  0  0  0  0
    5.3131    0.7497   19.8736 C   0  0  0  0  0  0  0  0  0  0  0  0
    4.6956    1.4595   18.8371 C   0  0  0  0  0  0  0  0  0  0  0  0
    5.3067    1.5101   17.5807 C   0  0  0  0  0  0  0  0  0  0  0  0
    6.4675    0.8909   17.3095 N   0  0  0  0  0  0  0  0  0  0  0  0
    7.0614    0.2265   18.3112 C   0  0  0  0  0  0  0  0  0  0  0  0
    7.9981   -0.2671   18.0578 H   0  0  0  0  0  0  0  0  0  0  0  0
    4.8518    2.0655   16.7638 H   0  0  0  0  0  0  0  0  0  0  0  0
    3.7589    1.9816   18.9977 H   0  0  0  0  0  0  0  0  0  0  0  0
    4.8760    0.6914   20.8689 H   0  0  0  0  0  0  0  0  0  0  0  0
    8.5635   -0.2544   21.1058 C   0  0  0  0  0  0  0  0  0  0  0  0
    9.3718   -1.5206   21.4646 C   0  0  0  0  0  0  0  0  0  0  0  0
    9.5773   -2.0565   20.5248 H   0  0  0  0  0  0  0  0  0  0  0  0
   10.3303   -1.2073   21.8912 H   0  0  0  0  0  0  0  0  0  0  0  0
    8.4849    0.3974   21.9952 H   0  0  0  0  0  0  0  0  0  0  0  0
    9.1060    0.3176   20.3426 H   0  0  0  0  0  0  0  0  0  0  0  0
    5.4920   -1.6177   21.3448 H   0  0  0  0  0  0  0  0  0  0  0  0
    6.4247   -0.7564   22.5907 H   0  0  0  0  0  0  0  0  0  0  0  0
    6.7493   -3.2095   22.7986 H   0  0  0  0  0  0  0  0  0  0  0  0
    7.2541   -3.2876   21.0952 H   0  0  0  0  0  0  0  0  0  0  0  0
   10.6268   -3.2698   23.4840 C   0  0  0  0  0  0  0  0  0  0  0  0
   11.1486   -3.9860   24.5435 C   0  0  0  0  0  0  0  0  0  0  0  0
   10.3229   -4.4298   25.5736 C   0  0  0  0  0  0  0  0  0  0  0  0
   10.7184   -4.9912   26.4127 H   0  0  0  0  0  0  0  0  0  0  0  0
   12.2025   -4.2039   24.5303 H   0  0  0  0  0  0  0  0  0  0  0  0
   11.2493   -2.9290   22.6700 H   0  0  0  0  0  0  0  0  0  0  0  0
    6.9706   -3.8788   27.0243 N   0  0  0  0  0  0  0  0  0  0  0  0
    6.2231   -4.3351   28.0285 C   0  0  0  0  0  0  0  0  0  0  0  0
    5.3293   -3.7537   28.2677 H   0  0  0  0  0  0  0  0  0  0  0  0
    7.9897   -7.0963   28.7792 H   0  0  0  0  0  0  0  0  0  0  0  0
    5.8645   -5.8950   29.4801 H   0  0  0  0  0  0  0  0  0  0  0  0
  1  2  2  0
  2  3  1  0
  3  4  2  0
  4  5  1  0
  5  6  2  0
  6  7  1  0
  7  8  1  0
  8  9  1  0
  9 10  1  0
 10 11  1  0
 11 12  1  0
 12 13  2  0
 13 14  1  0
 14 15  2  0
 15 16  1  0
 16 17  2  0
 17 18  1  0
 15 19  1  0
 14 20  1  0
 13 21  1  0
 11 22  1  0
 22 23  1  0
 23 24  1  0
 23 25  1  0
 22 26  1  0
 22 27  1  0
 10 28  1  0
 10 29  1  0
  9 30  1  0
  9 31  1  0
  7 32  2  0
 32 33  1  0
 33 34  2  0
 34 35  1  0
 33 36  1  0
 32 37  1  0
  4 38  1  0
 38 39  2  0
 39 40  1  0
  2 41  1  0
  1 42  1  0
 39  1  1  0
 34  5  1  0
 23  8  1  0
 17 12  1  0
M  END
>  <cnnaffinity>  (1) 
-5.59787

>  <filename>  (1) 
c1cnc(-c2cccc(N3CCN(c4cccnc4)CC3)n2)nc1

$$$$
