
     RDKit          3D

 39 43  0  0  0  0  0  0  0  0999 V2000
    4.8052    1.3210   19.0560 C   0  0  0  0  0  0  0  0  0  0  0  0
    5.4051    1.2929   17.7936 C   0  0  0  0  0  0  0  0  0  0  0  0
    6.5512    0.6478   17.5308 N   0  0  0  0  0  0  0  0  0  0  0  0
    7.1528    0.0245   18.5532 C   0  0  0  0  0  0  0  0  0  0  0  0
    6.6642    0.0132   19.8718 C   0  0  0  0  0  0  0  0  0  0  0  0
    7.4431   -0.5951   21.0357 C   0  0  0  0  0  0  0  0  0  0  0  0
    8.3360    0.3888   21.7382 C   0  0  0  0  0  0  0  0  0  0  0  0
    9.5120    0.7145   21.2421 N   0  0  0  0  0  0  0  0  0  0  0  0
    9.9826    1.6282   22.1300 N   0  0  0  0  0  0  0  0  0  0  0  0
   11.3818    1.9952   22.0959 C   0  0  0  0  0  0  0  0  0  0  0  0
   12.4190    0.9282   22.3279 C   0  0  0  0  0  0  0  0  0  0  0  0
   12.1581    1.9572   23.3813 C   0  0  0  0  0  0  0  0  0  0  0  0
   11.6266    1.6306   24.2711 H   0  0  0  0  0  0  0  0  0  0  0  0
   12.8941    2.7280   23.5689 H   0  0  0  0  0  0  0  0  0  0  0  0
   13.3476    0.9799   21.7708 H   0  0  0  0  0  0  0  0  0  0  0  0
   12.0670   -0.0843   22.4930 H   0  0  0  0  0  0  0  0  0  0  0  0
   11.6091    2.7544   21.3534 H   0  0  0  0  0  0  0  0  0  0  0  0
    9.0231    1.8476   23.0748 C   0  0  0  0  0  0  0  0  0  0  0  0
    9.0301    2.8800   24.1104 C   0  0  0  0  0  0  0  0  0  0  0  0
    8.8274    2.4618   25.4185 C   0  0  0  0  0  0  0  0  0  0  0  0
    8.9330    3.2654   26.4890 N   0  0  0  0  0  0  0  0  0  0  0  0
    9.2612    4.5417   26.2923 C   0  0  0  0  0  0  0  0  0  0  0  0
    9.4582    5.1056   25.0179 C   0  0  0  0  0  0  0  0  0  0  0  0
    9.1997    4.2739   23.9131 C   0  0  0  0  0  0  0  0  0  0  0  0
    9.1453    5.2037   22.4641 S   0  0  0  0  0  0  0  0  0  0  0  0
    9.6843    6.6359   23.2891 C   0  0  0  0  0  0  0  0  0  0  0  0
    9.8304    6.4526   24.6183 C   0  0  0  0  0  0  0  0  0  0  0  0
   10.2199    7.2028   25.3013 H   0  0  0  0  0  0  0  0  0  0  0  0
    9.8626    7.5341   22.7086 H   0  0  0  0  0  0  0  0  0  0  0  0
    9.3861    5.1674   27.1691 H   0  0  0  0  0  0  0  0  0  0  0  0
    8.5954    1.4217   25.6293 H   0  0  0  0  0  0  0  0  0  0  0  0
    8.0087    1.0224   22.8915 N   0  0  0  0  0  0  0  0  0  0  0  0
    8.0869   -1.4108   20.6894 H   0  0  0  0  0  0  0  0  0  0  0  0
    6.7472   -0.9973   21.7805 H   0  0  0  0  0  0  0  0  0  0  0  0
    5.4492    0.6671   20.1099 C   0  0  0  0  0  0  0  0  0  0  0  0
    5.0134    0.6538   21.1096 H   0  0  0  0  0  0  0  0  0  0  0  0
    8.0784   -0.5003   18.3135 H   0  0  0  0  0  0  0  0  0  0  0  0
    4.9436    1.8072   16.9529 H   0  0  0  0  0  0  0  0  0  0  0  0
    3.8689    1.8501   19.2019 H   0  0  0  0  0  0  0  0  0  0  0  0
  1  2  2  0
  2  3  1  0
  3  4  2  0
  4  5  1  0
  5  6  1  0
  6  7  1  0
  7  8  2  0
  8  9  1  0
  9 10  1  0
 10 11  1  0
 11 12  1  0
 12 13  1  0
 12 14  1  0
 11 15  1  0
 11 16  1  0
 10 17  1  0
  9 18  1  0
 18 19  1  0
 19 20  2  0
 20 21  1  0
 21 22  2  0
 22 23  1  0
 23 24  2  0
 24 25  1  0
 25 26  1  0
 26 27  2  0
 27 28  1  0
 26 29  1  0
 22 30  1  0
 20 31  1  0
 18 32  2  0
  6 33  1  0
  6 34  1  0
  5 35  2  0
 35 36  1  0
  4 37  1  0
  2 38  1  0
  1 39  1  0
 35  1  1  0
 32  7  1  0
 12 10  1  0
 24 19  1  0
 27 23  1  0
M  END
>  <cnnaffinity>  (1) 
-5.71189

>  <filename>  (1) 
c1cncc(Cc2nc(-c3cncc4ccsc34)n(C3CC3)n2)c1

$$$$
