
     RDKit          3D

 39 41  0  0  0  0  0  0  0  0999 V2000
   10.1929   -0.0043   27.5639 H   0  0  0  0  0  0  0  0  0  0  0  0
    9.2557   -0.3932   27.1782 C   0  0  0  0  0  0  0  0  0  0  0  0
    8.1409   -0.0412   27.8277 N   0  0  0  0  0  0  0  0  0  0  0  0
    6.9862   -0.5325   27.3623 C   0  0  0  0  0  0  0  0  0  0  0  0
    6.0968   -0.2180   27.9046 H   0  0  0  0  0  0  0  0  0  0  0  0
    6.8942   -1.3912   26.2586 C   0  0  0  0  0  0  0  0  0  0  0  0
    5.9211   -1.7006   25.8900 H   0  0  0  0  0  0  0  0  0  0  0  0
    8.0669   -1.7894   25.5994 C   0  0  0  0  0  0  0  0  0  0  0  0
    8.0557   -2.6845   24.3693 C   0  0  0  0  0  0  0  0  0  0  0  0
    9.0771   -3.0334   24.1661 H   0  0  0  0  0  0  0  0  0  0  0  0
    7.4645   -3.5891   24.5589 H   0  0  0  0  0  0  0  0  0  0  0  0
    7.5101   -1.9730   23.1126 C   0  0  2  0  0  0  0  0  0  0  0  0
    6.4963   -1.6226   23.3708 H   0  0  0  0  0  0  0  0  0  0  0  0
    7.3526   -2.8609   21.8563 C   0  0  0  0  0  0  0  0  0  0  0  0
    6.7792   -3.7712   22.0783 H   0  0  0  0  0  0  0  0  0  0  0  0
    8.3420   -3.1960   21.5056 H   0  0  0  0  0  0  0  0  0  0  0  0
    6.6672   -2.0793   20.7190 C   0  0  0  0  0  0  0  0  0  0  0  0
    5.6408   -1.8281   21.0169 H   0  0  0  0  0  0  0  0  0  0  0  0
    6.5734   -2.6929   19.8166 H   0  0  0  0  0  0  0  0  0  0  0  0
    7.4129   -0.7713   20.3731 C   0  0  1  0  0  0  0  0  0  0  0  0
    8.3928   -1.0619   19.9642 H   0  0  0  0  0  0  0  0  0  0  0  0
    6.6745    0.0413   19.3278 C   0  0  0  0  0  0  0  0  0  0  0  0
    7.1467    0.1304   18.0087 C   0  0  0  0  0  0  0  0  0  0  0  0
    8.0676   -0.3849   17.7304 H   0  0  0  0  0  0  0  0  0  0  0  0
    6.5479    0.8247   17.0330 N   0  0  0  0  0  0  0  0  0  0  0  0
    5.4276    1.4871   17.3533 C   0  0  0  0  0  0  0  0  0  0  0  0
    4.9618    2.0606   16.5580 H   0  0  0  0  0  0  0  0  0  0  0  0
    4.8592    1.4678   18.6315 C   0  0  0  0  0  0  0  0  0  0  0  0
    3.9642    2.0434   18.8376 H   0  0  0  0  0  0  0  0  0  0  0  0
    5.4889    0.7279   19.6299 C   0  0  0  0  0  0  0  0  0  0  0  0
    5.0734    0.6950   20.6409 H   0  0  0  0  0  0  0  0  0  0  0  0
    7.6889    0.0672   21.6352 C   0  0  0  0  0  0  0  0  0  0  0  0
    8.2979    0.9387   21.3724 H   0  0  0  0  0  0  0  0  0  0  0  0
    6.7441    0.4622   22.0304 H   0  0  0  0  0  0  0  0  0  0  0  0
    8.3581   -0.7463   22.7385 C   0  0  0  0  0  0  0  0  0  0  0  0
    8.5303   -0.1139   23.6167 H   0  0  0  0  0  0  0  0  0  0  0  0
    9.3476   -1.0887   22.3948 H   0  0  0  0  0  0  0  0  0  0  0  0
    9.2663   -1.2405   26.0660 C   0  0  0  0  0  0  0  0  0  0  0  0
   10.1794   -1.3997   25.5075 H   0  0  0  0  0  0  0  0  0  0  0  0
  1  2  1  0
  2  3  2  0
  3  4  1  0
  4  5  1  0
  4  6  2  0
  6  7  1  0
  6  8  1  0
  8  9  1  0
  9 10  1  0
  9 11  1  0
  9 12  1  0
 12 13  1  1
 12 14  1  0
 14 15  1  0
 14 16  1  0
 14 17  1  0
 17 18  1  0
 17 19  1  0
 17 20  1  0
 20 21  1  6
 20 22  1  0
 22 23  2  0
 23 24  1  0
 23 25  1  0
 25 26  2  0
 26 27  1  0
 26 28  1  0
 28 29  1  0
 28 30  2  0
 30 31  1  0
 20 32  1  0
 32 33  1  0
 32 34  1  0
 32 35  1  0
 35 36  1  0
 35 37  1  0
  8 38  2  0
 38 39  1  0
 38  2  1  0
 35 12  1  0
 30 22  1  0
M  END
>  <cnnaffinity>  (1) 
-5.11308

>  <filename>  (1) 
c1cncc([C@H]2CC[C@H](Cc3ccncc3)CC2)c1

$$$$
