
     RDKit          3D

 51 56  0  0  0  0  0  0  0  0999 V2000
    4.7056    1.3731   18.7249 C   0  0  0  0  0  0  0  0  0  0  0  0
    5.3292    1.2782   17.4754 C   0  0  0  0  0  0  0  0  0  0  0  0
    6.4184    0.5314   17.2399 N   0  0  0  0  0  0  0  0  0  0  0  0
    6.9453   -0.1153   18.2859 C   0  0  0  0  0  0  0  0  0  0  0  0
    6.4396   -0.0459   19.5947 C   0  0  0  0  0  0  0  0  0  0  0  0
    7.2102   -0.5898   20.7800 C   0  0  0  0  0  0  0  0  0  0  0  0
    7.9705    0.4967   21.4789 C   0  0  0  0  0  0  0  0  0  0  0  0
    9.1442    0.9244   21.0602 N   0  0  0  0  0  0  0  0  0  0  0  0
    9.5093    1.7871   22.0467 N   0  0  0  0  0  0  0  0  0  0  0  0
   10.8626    2.2130   22.1864 C   0  0  0  0  0  0  0  0  0  0  0  0
   11.1601    3.5400   22.4796 C   0  0  0  0  0  0  0  0  0  0  0  0
   12.4845    3.9013   22.7895 C   0  0  0  0  0  0  0  0  0  0  0  0
   13.4967    3.0512   22.8205 N   0  0  0  0  0  0  0  0  0  0  0  0
   13.2194    1.7341   22.5421 C   0  0  0  0  0  0  0  0  0  0  0  0
   14.2735    0.7823   22.6149 C   0  0  0  0  0  0  0  0  0  0  0  0
   14.0229   -0.5643   22.3998 C   0  0  0  0  0  0  0  0  0  0  0  0
   12.7184   -0.9600   22.0320 C   0  0  0  0  0  0  0  0  0  0  0  0
   11.7008   -0.1182   21.9441 N   0  0  0  0  0  0  0  0  0  0  0  0
   11.9140    1.2186   22.1912 C   0  0  0  0  0  0  0  0  0  0  0  0
   12.5009   -2.0040   21.8078 H   0  0  0  0  0  0  0  0  0  0  0  0
   14.7917   -1.3303   22.4593 H   0  0  0  0  0  0  0  0  0  0  0  0
   15.2440    1.2098   22.8264 H   0  0  0  0  0  0  0  0  0  0  0  0
   12.7071    4.9344   23.0501 H   0  0  0  0  0  0  0  0  0  0  0  0
   10.3766    4.2896   22.4984 H   0  0  0  0  0  0  0  0  0  0  0  0
    8.5079    1.8687   22.9819 C   0  0  0  0  0  0  0  0  0  0  0  0
    8.5770    2.6531   24.2604 C   0  0  0  0  0  0  0  0  0  0  0  0
    9.1565    1.9178   25.5060 C   0  0  0  0  0  0  0  0  0  0  0  0
    8.1983    0.8373   26.0501 C   0  0  0  0  0  0  0  0  0  0  0  0
    8.5669   -0.4640   25.3027 C   0  0  0  0  0  0  0  0  0  0  0  0
   10.0246   -0.2887   24.9057 C   0  0  0  0  0  0  0  0  0  0  0  0
   10.9978    0.0411   25.9989 C   0  0  0  0  0  0  0  0  0  0  0  0
   10.4168    1.1404   25.1502 C   0  0  0  0  0  0  0  0  0  0  0  0
   11.1343    1.6689   24.5412 H   0  0  0  0  0  0  0  0  0  0  0  0
   10.7450   -0.0819   27.0556 H   0  0  0  0  0  0  0  0  0  0  0  0
   12.0327   -0.1912   25.7453 H   0  0  0  0  0  0  0  0  0  0  0  0
   10.3799   -0.8267   24.0283 H   0  0  0  0  0  0  0  0  0  0  0  0
    8.3870   -1.3596   25.9083 H   0  0  0  0  0  0  0  0  0  0  0  0
    7.9792   -0.5567   24.3864 H   0  0  0  0  0  0  0  0  0  0  0  0
    7.1457    1.1129   25.9246 H   0  0  0  0  0  0  0  0  0  0  0  0
    8.3723    0.7146   27.1271 H   0  0  0  0  0  0  0  0  0  0  0  0
    9.3601    2.6839   26.2633 H   0  0  0  0  0  0  0  0  0  0  0  0
    7.5524    2.9561   24.4827 H   0  0  0  0  0  0  0  0  0  0  0  0
    9.1360    3.5737   24.0904 H   0  0  0  0  0  0  0  0  0  0  0  0
    7.5154    1.0811   22.6152 N   0  0  0  0  0  0  0  0  0  0  0  0
    7.9252   -1.3547   20.4635 H   0  0  0  0  0  0  0  0  0  0  0  0
    6.5450   -1.0325   21.5282 H   0  0  0  0  0  0  0  0  0  0  0  0
    5.2730    0.6976   19.8056 C   0  0  0  0  0  0  0  0  0  0  0  0
    4.8428    0.7586   20.8094 H   0  0  0  0  0  0  0  0  0  0  0  0
    7.8353   -0.7135   18.0850 H   0  0  0  0  0  0  0  0  0  0  0  0
    4.9427    1.8289   16.6221 H   0  0  0  0  0  0  0  0  0  0  0  0
    3.8235    1.9929   18.8449 H   0  0  0  0  0  0  0  0  0  0  0  0
  1  2  2  0
  2  3  1  0
  3  4  2  0
  4  5  1  0
  5  6  1  0
  6  7  1  0
  7  8  2  0
  8  9  1  0
  9 10  1  0
 10 11  2  0
 11 12  1  0
 12 13  2  0
 13 14  1  0
 14 15  2  0
 15 16  1  0
 16 17  2  0
 17 18  1  0
 18 19  2  0
 17 20  1  0
 16 21  1  0
 15 22  1  0
 12 23  1  0
 11 24  1  0
  9 25  1  0
 25 26  1  0
 26 27  1  0
 27 28  1  0
 28 29  1  0
 29 30  1  0
 30 31  1  0
 31 32  1  0
 32 33  1  0
 31 34  1  0
 31 35  1  0
 30 36  1  0
 29 37  1  0
 29 38  1  0
 28 39  1  0
 28 40  1  0
 27 41  1  0
 26 42  1  0
 26 43  1  0
 25 44  2  0
  6 45  1  0
  6 46  1  0
  5 47  2  0
 47 48  1  0
  4 49  1  0
  2 50  1  0
  1 51  1  0
 47  1  1  0
 44  7  1  0
 19 10  1  0
 32 27  1  0
 19 14  1  0
 32 30  1  0
M  END
>  <cnnaffinity>  (1) 
-6.91713

>  <filename>  (1) 
c1cncc(Cc2nc(CC3CCC4CC34)n(-c3ccnc4cccnc34)n2)c1

$$$$
