
     RDKit          3D

 33 35  0  0  0  0  0  0  0  0999 V2000
    5.0534    1.7181   16.8850 H   0  0  0  0  0  0  0  0  0  0  0  0
    5.4975    1.2824   17.7803 C   0  0  0  0  0  0  0  0  0  0  0  0
    6.7315    0.7754   17.6368 N   0  0  0  0  0  0  0  0  0  0  0  0
    7.3066    0.2416   18.7252 C   0  0  0  0  0  0  0  0  0  0  0  0
    8.3368   -0.1138   18.6309 H   0  0  0  0  0  0  0  0  0  0  0  0
    6.6756    0.1256   19.9802 C   0  0  0  0  0  0  0  0  0  0  0  0
    7.3684   -0.5964   21.0621 C   0  0  0  0  0  0  0  0  0  0  0  0
    8.7008   -0.8572   21.2927 C   0  0  0  0  0  0  0  0  0  0  0  0
    9.7739   -0.3395   20.5300 O   0  0  0  0  0  0  0  0  0  0  0  0
   11.0286   -0.4708   21.2155 O   0  0  0  0  0  0  0  0  0  0  0  0
   11.1590    0.6405   22.1495 C   0  0  0  0  0  0  0  0  0  0  0  0
   10.4425    0.4704   22.9623 H   0  0  0  0  0  0  0  0  0  0  0  0
   10.8583    2.0205   21.5181 C   0  0  0  0  0  0  0  0  0  0  0  0
    9.9122    2.3886   21.9198 H   0  0  0  0  0  0  0  0  0  0  0  0
   10.6924    1.9088   20.4466 H   0  0  0  0  0  0  0  0  0  0  0  0
   12.0478    2.9395   21.8696 C   0  0  0  0  0  0  0  0  0  0  0  0
   11.7149    3.8976   22.2786 H   0  0  0  0  0  0  0  0  0  0  0  0
   12.6372    3.1720   20.9755 H   0  0  0  0  0  0  0  0  0  0  0  0
   12.9063    2.1763   22.9054 C   0  0  0  0  0  0  0  0  0  0  0  0
   12.6291    2.4723   23.9269 H   0  0  0  0  0  0  0  0  0  0  0  0
   13.9756    2.3924   22.7835 H   0  0  0  0  0  0  0  0  0  0  0  0
   12.5968    0.6837   22.6803 C   0  0  0  0  0  0  0  0  0  0  0  0
   12.7105    0.0836   23.5932 H   0  0  0  0  0  0  0  0  0  0  0  0
   13.2553    0.2515   21.9200 H   0  0  0  0  0  0  0  0  0  0  0  0
    8.8064   -1.7417   22.3598 C   0  0  0  0  0  0  0  0  0  0  0  0
    9.7145   -2.1670   22.7582 H   0  0  0  0  0  0  0  0  0  0  0  0
    7.5901   -2.0183   22.8292 N   0  0  0  0  0  0  0  0  0  0  0  0
    6.7501   -1.3183   22.0522 N   0  0  0  0  0  0  0  0  0  0  0  0
    5.7575   -1.3861   22.2374 H   0  0  0  0  0  0  0  0  0  0  0  0
    5.3910    0.6923   20.1134 C   0  0  0  0  0  0  0  0  0  0  0  0
    4.8828    0.7048   21.0780 H   0  0  0  0  0  0  0  0  0  0  0  0
    4.7970    1.2764   18.9920 C   0  0  0  0  0  0  0  0  0  0  0  0
    3.8146    1.7357   19.0422 H   0  0  0  0  0  0  0  0  0  0  0  0
  1  2  1  0
  2  3  2  0
  3  4  1  0
  4  5  1  0
  4  6  2  0
  6  7  1  0
  7  8  2  0
  8  9  1  0
  9 10  1  0
 10 11  1  0
 11 12  1  0
 11 13  1  0
 13 14  1  0
 13 15  1  0
 13 16  1  0
 16 17  1  0
 16 18  1  0
 16 19  1  0
 19 20  1  0
 19 21  1  0
 19 22  1  0
 22 23  1  0
 22 24  1  0
  8 25  1  0
 25 26  1  0
 25 27  2  0
 27 28  1  0
 28 29  1  0
  6 30  1  0
 30 31  1  0
 30 32  2  0
 32 33  1  0
 32  2  1  0
 28  7  1  0
 22 11  1  0
M  END
>  <cnnaffinity>  (1) 
-5.49997

>  <filename>  (1) 
c1cncc(-c2[nH]ncc2OOC2CCCC2)c1

$$$$
