
     RDKit          3D

 45 47  0  0  0  0  0  0  0  0999 V2000
    4.9868    1.9211   16.9351 H   0  0  0  0  0  0  0  0  0  0  0  0
    5.4270    1.3742   17.7657 C   0  0  0  0  0  0  0  0  0  0  0  0
    6.5654    0.7161   17.5000 N   0  0  0  0  0  0  0  0  0  0  0  0
    7.1334    0.0406   18.5090 C   0  0  0  0  0  0  0  0  0  0  0  0
    8.0452   -0.5084   18.2596 H   0  0  0  0  0  0  0  0  0  0  0  0
    6.6312    0.0043   19.8219 C   0  0  0  0  0  0  0  0  0  0  0  0
    7.3525   -0.7275   20.9212 C   0  0  0  0  0  0  0  0  0  0  0  0
    6.6102   -1.2070   21.5731 H   0  0  0  0  0  0  0  0  0  0  0  0
    7.9585   -1.5353   20.4897 H   0  0  0  0  0  0  0  0  0  0  0  0
    8.3097    0.0919   21.8366 C   0  0  1  0  0  0  0  0  0  0  0  0
    9.0832   -0.8286   22.6086 O   0  0  0  0  0  0  0  0  0  0  0  0
    8.3876   -1.7657   23.4289 C   0  0  0  0  0  0  0  0  0  0  0  0
    7.4694   -1.3317   23.8547 H   0  0  0  0  0  0  0  0  0  0  0  0
    8.0865   -2.6296   22.8227 H   0  0  0  0  0  0  0  0  0  0  0  0
    9.2936   -2.2253   24.5850 C   0  0  0  0  0  0  0  0  0  0  0  0
   10.3271   -2.2755   24.2188 H   0  0  0  0  0  0  0  0  0  0  0  0
    9.0134   -3.2485   24.8743 H   0  0  0  0  0  0  0  0  0  0  0  0
    9.2760   -1.4115   25.8028 N   0  0  0  0  0  0  0  0  0  0  0  0
    9.7574   -0.0228   25.6251 C   0  0  0  0  0  0  0  0  0  0  0  0
    9.8450    0.2113   24.5555 H   0  0  0  0  0  0  0  0  0  0  0  0
   10.7615    0.1129   26.0435 H   0  0  0  0  0  0  0  0  0  0  0  0
    8.6988    0.8779   26.2859 C   0  0  0  0  0  0  0  0  0  0  0  0
    8.9217    1.0159   27.3474 H   0  0  0  0  0  0  0  0  0  0  0  0
    8.6336    1.8731   25.8346 H   0  0  0  0  0  0  0  0  0  0  0  0
    7.4166    0.0463   26.1959 C   0  0  0  0  0  0  0  0  0  0  0  0
    6.6337    0.3688   26.8888 H   0  0  0  0  0  0  0  0  0  0  0  0
    6.9780    0.0845   25.1885 H   0  0  0  0  0  0  0  0  0  0  0  0
    7.9864   -1.3382   26.5101 C   0  0  0  0  0  0  0  0  0  0  0  0
    7.3224   -2.1802   26.2795 H   0  0  0  0  0  0  0  0  0  0  0  0
    8.1829   -1.3855   27.5903 H   0  0  0  0  0  0  0  0  0  0  0  0
    9.2941    0.9639   21.0319 C   0  0  0  0  0  0  0  0  0  0  0  0
    9.6318    0.4733   20.1133 H   0  0  0  0  0  0  0  0  0  0  0  0
   10.1787    1.1398   21.6582 H   0  0  0  0  0  0  0  0  0  0  0  0
    8.6333    2.2470   20.7559 N   0  0  0  0  0  0  0  0  0  0  0  0
    8.1366    2.2335   19.8722 H   0  0  0  0  0  0  0  0  0  0  0  0
    7.6778    2.4931   21.8463 C   0  0  0  0  0  0  0  0  0  0  0  0
    6.6961    2.7813   21.4445 H   0  0  0  0  0  0  0  0  0  0  0  0
    8.0163    3.3349   22.4673 H   0  0  0  0  0  0  0  0  0  0  0  0
    7.6108    1.1899   22.6835 C   0  0  0  0  0  0  0  0  0  0  0  0
    6.5885    0.9275   22.9785 H   0  0  0  0  0  0  0  0  0  0  0  0
    8.1957    1.3309   23.6007 H   0  0  0  0  0  0  0  0  0  0  0  0
    5.4244    0.6746   20.0636 C   0  0  0  0  0  0  0  0  0  0  0  0
    4.9761    0.6484   21.0591 H   0  0  0  0  0  0  0  0  0  0  0  0
    4.8079    1.3719   19.0189 C   0  0  0  0  0  0  0  0  0  0  0  0
    3.8720    1.9018   19.1618 H   0  0  0  0  0  0  0  0  0  0  0  0
  1  2  1  0
  2  3  2  0
  3  4  1  0
  4  5  1  0
  4  6  2  0
  6  7  1  0
  7  8  1  0
  7  9  1  0
  7 10  1  0
 10 11  1  1
 11 12  1  0
 12 13  1  0
 12 14  1  0
 12 15  1  0
 15 16  1  0
 15 17  1  0
 15 18  1  0
 18 19  1  0
 19 20  1  0
 19 21  1  0
 19 22  1  0
 22 23  1  0
 22 24  1  0
 22 25  1  0
 25 26  1  0
 25 27  1  0
 25 28  1  0
 28 29  1  0
 28 30  1  0
 10 31  1  0
 31 32  1  0
 31 33  1  0
 31 34  1  0
 34 35  1  0
 34 36  1  0
 36 37  1  0
 36 38  1  0
 36 39  1  0
 39 40  1  0
 39 41  1  0
  6 42  1  0
 42 43  1  0
 42 44  2  0
 44 45  1  0
 44  2  1  0
 39 10  1  0
 28 18  1  0
M  END
>  <cnnaffinity>  (1) 
-4.52222

>  <filename>  (1) 
c1cncc(C[C@]2(OCCN3CCCC3)CCNC2)c1

$$$$
