
     RDKit          3D

 34 37  0  0  0  0  0  0  0  0999 V2000
    4.9228    1.8009   16.9807 H   0  0  0  0  0  0  0  0  0  0  0  0
    5.3964    1.3039   17.8250 C   0  0  0  0  0  0  0  0  0  0  0  0
    6.5606    0.6872   17.5709 N   0  0  0  0  0  0  0  0  0  0  0  0
    7.1702    0.0754   18.5971 C   0  0  0  0  0  0  0  0  0  0  0  0
    8.1182   -0.4114   18.3613 H   0  0  0  0  0  0  0  0  0  0  0  0
    6.6645    0.0209   19.9083 C   0  0  0  0  0  0  0  0  0  0  0  0
    7.3480   -0.8092   20.9847 C   0  0  0  0  0  0  0  0  0  0  0  0
    6.8849   -2.2726   21.0157 C   0  0  0  0  0  0  0  0  0  0  0  0
    5.9509   -2.8016   20.0687 C   0  0  0  0  0  0  0  0  0  0  0  0
    5.4890   -2.1235   19.3580 H   0  0  0  0  0  0  0  0  0  0  0  0
    5.6184   -4.1416   20.0263 C   0  0  0  0  0  0  0  0  0  0  0  0
    5.0312   -4.5418   19.2105 H   0  0  0  0  0  0  0  0  0  0  0  0
    6.1092   -4.9670   21.0562 C   0  0  0  0  0  0  0  0  0  0  0  0
    7.0395   -4.4879   22.0068 C   0  0  0  0  0  0  0  0  0  0  0  0
    7.3437   -5.6357   22.8049 C   0  0  0  0  0  0  0  0  0  0  0  0
    8.0509   -5.7340   23.6248 H   0  0  0  0  0  0  0  0  0  0  0  0
    6.6486   -6.6857   22.4109 N   0  0  0  0  0  0  0  0  0  0  0  0
    5.8976   -6.2791   21.3598 N   0  0  0  0  0  0  0  0  0  0  0  0
    5.2435   -6.9193   20.9332 H   0  0  0  0  0  0  0  0  0  0  0  0
    7.4353   -3.1315   21.9676 C   0  0  0  0  0  0  0  0  0  0  0  0
    8.1887   -2.7629   22.6612 H   0  0  0  0  0  0  0  0  0  0  0  0
    8.9138   -0.6539   20.9857 C   0  0  0  0  0  0  0  0  0  0  0  0
    9.2844    0.0377   20.2216 H   0  0  0  0  0  0  0  0  0  0  0  0
    9.4679   -1.5949   20.8741 H   0  0  0  0  0  0  0  0  0  0  0  0
    8.8781   -0.0423   22.4114 C   0  0  0  0  0  0  0  0  0  0  0  0
    9.2815    0.9736   22.4838 H   0  0  0  0  0  0  0  0  0  0  0  0
    9.3688   -0.6418   23.1903 H   0  0  0  0  0  0  0  0  0  0  0  0
    7.3296   -0.1224   22.3969 C   0  0  0  0  0  0  0  0  0  0  0  0
    6.8383    0.8564   22.3938 H   0  0  0  0  0  0  0  0  0  0  0  0
    6.8620   -0.7228   23.1869 H   0  0  0  0  0  0  0  0  0  0  0  0
    5.4412    0.6681   20.1437 C   0  0  0  0  0  0  0  0  0  0  0  0
    5.0056    0.6510   21.1442 H   0  0  0  0  0  0  0  0  0  0  0  0
    4.7998    1.3216   19.0908 C   0  0  0  0  0  0  0  0  0  0  0  0
    3.8675    1.8526   19.2404 H   0  0  0  0  0  0  0  0  0  0  0  0
  1  2  1  0
  2  3  2  0
  3  4  1  0
  4  5  1  0
  4  6  2  0
  6  7  1  0
  7  8  1  0
  8  9  2  0
  9 10  1  0
  9 11  1  0
 11 12  1  0
 11 13  2  0
 13 14  1  0
 14 15  1  0
 15 16  1  0
 15 17  2  0
 17 18  1  0
 18 19  1  0
 14 20  2  0
 20 21  1  0
  7 22  1  0
 22 23  1  0
 22 24  1  0
 22 25  1  0
 25 26  1  0
 25 27  1  0
 25 28  1  0
 28 29  1  0
 28 30  1  0
  6 31  1  0
 31 32  1  0
 31 33  2  0
 33 34  1  0
 33  2  1  0
 28  7  1  0
 20  8  1  0
 18 13  1  0
M  END
>  <cnnaffinity>  (1) 
-4.70035

>  <filename>  (1) 
c1cncc(C2(c3ccc4[nH]ncc4c3)CCC2)c1

$$$$
