
     RDKit          3D

 33 36  0  0  0  0  0  0  0  0999 V2000
    9.3188   -3.3033   21.3059 H   0  0  0  0  0  0  0  0  0  0  0  0
    8.7450   -2.4308   21.5844 C   0  0  0  0  0  0  0  0  0  0  0  0
    8.1098   -1.7924   20.6040 N   0  0  0  0  0  0  0  0  0  0  0  0
    7.4039   -0.7226   20.9634 C   0  0  0  0  0  0  0  0  0  0  0  0
    6.6620   -0.0081   19.9101 C   0  0  0  0  0  0  0  0  0  0  0  0
    7.1779    0.0465   18.6080 C   0  0  0  0  0  0  0  0  0  0  0  0
    8.1241   -0.4328   18.3721 H   0  0  0  0  0  0  0  0  0  0  0  0
    6.5743    0.6752   17.5946 N   0  0  0  0  0  0  0  0  0  0  0  0
    5.4074    1.2868   17.8490 C   0  0  0  0  0  0  0  0  0  0  0  0
    4.9209    1.7740   17.0055 H   0  0  0  0  0  0  0  0  0  0  0  0
    4.8096    1.3031   19.1132 C   0  0  0  0  0  0  0  0  0  0  0  0
    3.8786    1.8398   19.2643 H   0  0  0  0  0  0  0  0  0  0  0  0
    5.4482    0.6479   20.1622 C   0  0  0  0  0  0  0  0  0  0  0  0
    4.9996    0.6335   21.1572 H   0  0  0  0  0  0  0  0  0  0  0  0
    7.3775   -0.2795   22.2804 C   0  0  0  0  0  0  0  0  0  0  0  0
    6.8640    0.6310   22.5463 H   0  0  0  0  0  0  0  0  0  0  0  0
    8.0858   -1.0167   23.2283 C   0  0  0  0  0  0  0  0  0  0  0  0
    8.1244   -0.6261   24.6417 C   0  0  0  0  0  0  0  0  0  0  0  0
    9.1949   -0.7521   25.4911 C   0  0  0  0  0  0  0  0  0  0  0  0
   10.1743   -1.1759   25.2796 H   0  0  0  0  0  0  0  0  0  0  0  0
    8.8612   -0.2531   26.7231 N   0  0  0  0  0  0  0  0  0  0  0  0
    9.4473   -0.2263   27.5397 H   0  0  0  0  0  0  0  0  0  0  0  0
    7.5640    0.1923   26.7088 C   0  0  0  0  0  0  0  0  0  0  0  0
    6.7873    0.7473   27.7396 C   0  0  0  0  0  0  0  0  0  0  0  0
    7.2202    0.8922   28.7302 H   0  0  0  0  0  0  0  0  0  0  0  0
    5.4699    1.0755   27.4435 C   0  0  0  0  0  0  0  0  0  0  0  0
    4.8380    1.5036   28.2200 H   0  0  0  0  0  0  0  0  0  0  0  0
    4.9264    0.8518   26.1491 C   0  0  0  0  0  0  0  0  0  0  0  0
    3.8892    1.1026   25.9451 H   0  0  0  0  0  0  0  0  0  0  0  0
    5.7124    0.3033   25.1426 C   0  0  0  0  0  0  0  0  0  0  0  0
    5.3085    0.1037   24.1590 H   0  0  0  0  0  0  0  0  0  0  0  0
    7.0541   -0.0245   25.4104 C   0  0  0  0  0  0  0  0  0  0  0  0
    8.7853   -2.1028   22.8684 N   0  0  0  0  0  0  0  0  0  0  0  0
  1  2  1  0
  2  3  2  0
  3  4  1  0
  4  5  1  0
  5  6  2  0
  6  7  1  0
  6  8  1  0
  8  9  2  0
  9 10  1  0
  9 11  1  0
 11 12  1  0
 11 13  2  0
 13 14  1  0
  4 15  2  0
 15 16  1  0
 15 17  1  0
 17 18  1  0
 18 19  2  0
 19 20  1  0
 19 21  1  0
 21 22  1  0
 21 23  1  0
 23 24  2  0
 24 25  1  0
 24 26  1  0
 26 27  1  0
 26 28  2  0
 28 29  1  0
 28 30  1  0
 30 31  1  0
 30 32  2  0
 17 33  2  0
 33  2  1  0
 13  5  1  0
 32 18  1  0
 32 23  1  0
M  END
>  <cnnaffinity>  (1) 
-5.15514

>  <filename>  (1) 
c1cncc(-c2cc(-c3c[nH]c4ccccc34)ncn2)c1

$$$$
