
     RDKit          3D

 32 35  0  0  0  0  0  0  0  0999 V2000
    4.9231    1.8316   16.9532 H   0  0  0  0  0  0  0  0  0  0  0  0
    5.3908    1.3134   17.7888 C   0  0  0  0  0  0  0  0  0  0  0  0
    6.5486    0.6859   17.5274 N   0  0  0  0  0  0  0  0  0  0  0  0
    7.1587    0.0668   18.5477 C   0  0  0  0  0  0  0  0  0  0  0  0
    8.0962   -0.4250   18.2948 H   0  0  0  0  0  0  0  0  0  0  0  0
    6.6732    0.0115   19.8704 C   0  0  0  0  0  0  0  0  0  0  0  0
    7.4284   -0.6962   20.9387 C   0  0  0  0  0  0  0  0  0  0  0  0
    8.8354   -0.9933   21.0106 C   0  0  0  0  0  0  0  0  0  0  0  0
    9.5766   -0.7289   20.2665 H   0  0  0  0  0  0  0  0  0  0  0  0
    9.0757   -1.6384   22.1989 C   0  0  0  0  0  0  0  0  0  0  0  0
    9.9854   -1.9845   22.6746 H   0  0  0  0  0  0  0  0  0  0  0  0
    7.8740   -1.7757   22.8784 N   0  0  0  0  0  0  0  0  0  0  0  0
    7.6553   -2.3220   24.1777 C   0  0  0  0  0  0  0  0  0  0  0  0
    6.8666   -1.7399   25.1208 C   0  0  0  0  0  0  0  0  0  0  0  0
    6.2908   -0.8291   25.0304 H   0  0  0  0  0  0  0  0  0  0  0  0
    6.8257   -2.5746   26.6299 S   0  0  0  0  0  0  0  0  0  0  0  0
    7.8839   -3.8089   26.0143 C   0  0  0  0  0  0  0  0  0  0  0  0
    8.3507   -4.9286   26.7306 C   0  0  0  0  0  0  0  0  0  0  0  0
    8.0979   -5.0787   27.7765 H   0  0  0  0  0  0  0  0  0  0  0  0
    9.1341   -5.8558   26.0598 C   0  0  0  0  0  0  0  0  0  0  0  0
    9.5217   -6.7268   26.5792 H   0  0  0  0  0  0  0  0  0  0  0  0
    9.4364   -5.6799   24.6986 C   0  0  0  0  0  0  0  0  0  0  0  0
    9.9930   -6.4730   24.2222 H   0  0  0  0  0  0  0  0  0  0  0  0
    9.0167   -4.5545   24.0014 C   0  0  0  0  0  0  0  0  0  0  0  0
    9.2728   -4.4018   22.9567 H   0  0  0  0  0  0  0  0  0  0  0  0
    8.2351   -3.5757   24.6625 C   0  0  0  0  0  0  0  0  0  0  0  0
    6.8982   -1.2066   22.0955 C   0  0  0  0  0  0  0  0  0  0  0  0
    5.8775   -1.2694   22.4180 H   0  0  0  0  0  0  0  0  0  0  0  0
    5.4455    0.6680   20.1049 C   0  0  0  0  0  0  0  0  0  0  0  0
    5.0080    0.6912   21.1028 H   0  0  0  0  0  0  0  0  0  0  0  0
    4.7974    1.3232   19.0546 C   0  0  0  0  0  0  0  0  0  0  0  0
    3.8595    1.8526   19.2022 H   0  0  0  0  0  0  0  0  0  0  0  0
  1  2  1  0
  2  3  2  0
  3  4  1  0
  4  5  1  0
  4  6  2  0
  6  7  1  0
  7  8  1  0
  8  9  1  0
  8 10  2  0
 10 11  1  0
 10 12  1  0
 12 13  1  0
 13 14  2  0
 14 15  1  0
 14 16  1  0
 16 17  1  0
 17 18  2  0
 18 19  1  0
 18 20  1  0
 20 21  1  0
 20 22  2  0
 22 23  1  0
 22 24  1  0
 24 25  1  0
 24 26  2  0
 12 27  1  0
 27 28  1  0
  6 29  1  0
 29 30  1  0
 29 31  2  0
 31 32  1  0
 31  2  1  0
 27  7  2  0
 26 13  1  0
 26 17  1  0
M  END
>  <cnnaffinity>  (1) 
-5.34553

>  <filename>  (1) 
c1cncc(-c2ccn(-c3csc4ccccc34)c2)c1

$$$$
