
     RDKit          3D

 40 43  0  0  0  0  0  0  0  0999 V2000
    4.8131    1.3050   19.1109 C   0  0  0  0  0  0  0  0  0  0  0  0
    5.4007    1.2911   17.8441 C   0  0  0  0  0  0  0  0  0  0  0  0
    6.5700    0.6710   17.5948 N   0  0  0  0  0  0  0  0  0  0  0  0
    7.1789    0.0551   18.6140 C   0  0  0  0  0  0  0  0  0  0  0  0
    6.6641    0.0009   19.9350 C   0  0  0  0  0  0  0  0  0  0  0  0
    7.4112   -0.6707   20.8561 O   0  0  0  0  0  0  0  0  0  0  0  0
    6.9635   -0.8009   22.2107 C   0  0  0  0  0  0  0  0  0  0  0  0
    7.9882   -1.6339   22.9669 C   0  0  0  0  0  0  0  0  0  0  0  0
    8.1656   -3.0621   22.4123 C   0  0  0  0  0  0  0  0  0  0  0  0
    6.9431   -3.9042   22.5825 C   0  0  0  0  0  0  0  0  0  0  0  0
    6.5227   -4.4513   23.6789 N   0  0  0  0  0  0  0  0  0  0  0  0
    5.3368   -5.0390   23.2890 C   0  0  0  0  0  0  0  0  0  0  0  0
    4.4945   -5.8033   24.2328 C   0  0  0  0  0  0  0  0  0  0  0  0
    4.8590   -5.9599   25.5817 C   0  0  0  0  0  0  0  0  0  0  0  0
    4.0469   -6.6931   26.4769 C   0  0  0  0  0  0  0  0  0  0  0  0
    2.8561   -7.2906   26.0663 C   0  0  0  0  0  0  0  0  0  0  0  0
    2.4966   -7.1334   24.7226 C   0  0  0  0  0  0  0  0  0  0  0  0
    3.2816   -6.4070   23.7950 C   0  0  0  0  0  0  0  0  0  0  0  0
    2.5866   -6.4721   22.5379 C   0  0  0  0  0  0  0  0  0  0  0  0
    1.4526   -7.2031   22.7280 C   0  0  0  0  0  0  0  0  0  0  0  0
    1.3978   -7.6031   24.0480 N   0  0  0  0  0  0  0  0  0  0  0  0
    0.6766   -8.1494   24.4836 H   0  0  0  0  0  0  0  0  0  0  0  0
    0.6754   -7.4685   22.0188 H   0  0  0  0  0  0  0  0  0  0  0  0
    2.9398   -6.0063   21.6350 H   0  0  0  0  0  0  0  0  0  0  0  0
    2.2188   -7.8590   26.7437 H   0  0  0  0  0  0  0  0  0  0  0  0
    4.3548   -6.7962   27.5149 H   0  0  0  0  0  0  0  0  0  0  0  0
    5.7804   -5.5107   25.9516 H   0  0  0  0  0  0  0  0  0  0  0  0
    5.0561   -4.8506   22.0174 N   0  0  0  0  0  0  0  0  0  0  0  0
    6.1187   -4.1032   21.5528 O   0  0  0  0  0  0  0  0  0  0  0  0
    8.9660   -3.5650   22.9617 H   0  0  0  0  0  0  0  0  0  0  0  0
    8.4544   -3.0150   21.3608 H   0  0  0  0  0  0  0  0  0  0  0  0
    8.9507   -1.1131   22.9575 H   0  0  0  0  0  0  0  0  0  0  0  0
    7.6768   -1.6935   24.0167 H   0  0  0  0  0  0  0  0  0  0  0  0
    6.8624    0.1887   22.6777 H   0  0  0  0  0  0  0  0  0  0  0  0
    5.9844   -1.2927   22.2346 H   0  0  0  0  0  0  0  0  0  0  0  0
    5.4433    0.6440   20.1789 C   0  0  0  0  0  0  0  0  0  0  0  0
    5.0027    0.6316   21.1765 H   0  0  0  0  0  0  0  0  0  0  0  0
    8.1247   -0.4346   18.3940 H   0  0  0  0  0  0  0  0  0  0  0  0
    4.9155    1.7787   16.9982 H   0  0  0  0  0  0  0  0  0  0  0  0
    3.8794    1.8390   19.2627 H   0  0  0  0  0  0  0  0  0  0  0  0
  1  2  2  0
  2  3  1  0
  3  4  2  0
  4  5  1  0
  5  6  1  0
  6  7  1  0
  7  8  1  0
  8  9  1  0
  9 10  1  0
 10 11  2  0
 11 12  1  0
 12 13  1  0
 13 14  2  0
 14 15  1  0
 15 16  2  0
 16 17  1  0
 17 18  2  0
 18 19  1  0
 19 20  2  0
 20 21  1  0
 21 22  1  0
 20 23  1  0
 19 24  1  0
 16 25  1  0
 15 26  1  0
 14 27  1  0
 12 28  2  0
 28 29  1  0
  9 30  1  0
  9 31  1  0
  8 32  1  0
  8 33  1  0
  7 34  1  0
  7 35  1  0
  5 36  2  0
 36 37  1  0
  4 38  1  0
  2 39  1  0
  1 40  1  0
 36  1  1  0
 29 10  1  0
 18 13  1  0
 21 17  1  0
M  END
>  <cnnaffinity>  (1) 
-5.69149

>  <filename>  (1) 
c1cncc(OCCCc2nc(-c3cccc4[nH]ccc34)no2)c1

$$$$
