
     RDKit          3D

 31 34  0  0  0  0  0  0  0  0999 V2000
    9.0822   -2.4485   23.8971 H   0  0  0  0  0  0  0  0  0  0  0  0
    8.6113   -1.9069   23.0848 C   0  0  0  0  0  0  0  0  0  0  0  0
    8.8372   -2.3497   21.8349 N   0  0  0  0  0  0  0  0  0  0  0  0
    8.2459   -1.6480   20.8586 C   0  0  0  0  0  0  0  0  0  0  0  0
    8.4803   -1.9298   19.8480 H   0  0  0  0  0  0  0  0  0  0  0  0
    7.3646   -0.5590   21.0950 C   0  0  0  0  0  0  0  0  0  0  0  0
    6.6198    0.1251   20.0145 C   0  0  0  0  0  0  0  0  0  0  0  0
    7.1656    0.1147   18.7256 C   0  0  0  0  0  0  0  0  0  0  0  0
    8.1253   -0.3720   18.5503 H   0  0  0  0  0  0  0  0  0  0  0  0
    6.5921    0.6745   17.6621 N   0  0  0  0  0  0  0  0  0  0  0  0
    5.4145    1.2879   17.8533 C   0  0  0  0  0  0  0  0  0  0  0  0
    4.9786    1.7591   16.9757 H   0  0  0  0  0  0  0  0  0  0  0  0
    4.7685    1.3423   19.0927 C   0  0  0  0  0  0  0  0  0  0  0  0
    3.8099    1.8431   19.1702 H   0  0  0  0  0  0  0  0  0  0  0  0
    5.3797    0.7595   20.2028 C   0  0  0  0  0  0  0  0  0  0  0  0
    4.9128    0.7928   21.1885 H   0  0  0  0  0  0  0  0  0  0  0  0
    7.1604   -0.1201   22.3386 N   0  0  0  0  0  0  0  0  0  0  0  0
    7.8162   -0.7705   23.3264 C   0  0  0  0  0  0  0  0  0  0  0  0
    7.7021   -0.2122   24.6796 C   0  0  0  0  0  0  0  0  0  0  0  0
    8.3464   -0.6765   25.6964 N   0  0  0  0  0  0  0  0  0  0  0  0
    8.0709    0.0821   26.8147 C   0  0  0  0  0  0  0  0  0  0  0  0
    8.6099   -0.1540   28.0868 C   0  0  0  0  0  0  0  0  0  0  0  0
    9.3221   -0.9728   28.1770 H   0  0  0  0  0  0  0  0  0  0  0  0
    8.2079    0.6539   29.1515 C   0  0  0  0  0  0  0  0  0  0  0  0
    8.6301    0.4784   30.1416 H   0  0  0  0  0  0  0  0  0  0  0  0
    7.2731    1.6981   28.9494 C   0  0  0  0  0  0  0  0  0  0  0  0
    6.9383    2.3002   29.7924 H   0  0  0  0  0  0  0  0  0  0  0  0
    6.7605    1.9678   27.6777 C   0  0  0  0  0  0  0  0  0  0  0  0
    6.0430    2.7700   27.5087 H   0  0  0  0  0  0  0  0  0  0  0  0
    7.1693    1.1553   26.6101 C   0  0  0  0  0  0  0  0  0  0  0  0
    6.6970    1.1882   24.9426 S   0  0  0  0  0  0  0  0  0  0  0  0
  1  2  1  0
  2  3  2  0
  3  4  1  0
  4  5  1  0
  4  6  2  0
  6  7  1  0
  7  8  2  0
  8  9  1  0
  8 10  1  0
 10 11  2  0
 11 12  1  0
 11 13  1  0
 13 14  1  0
 13 15  2  0
 15 16  1  0
  6 17  1  0
 17 18  2  0
 18 19  1  0
 19 20  2  0
 20 21  1  0
 21 22  2  0
 22 23  1  0
 22 24  1  0
 24 25  1  0
 24 26  2  0
 26 27  1  0
 26 28  1  0
 28 29  1  0
 28 30  2  0
 30 31  1  0
 18  2  1  0
 31 19  1  0
 15  7  1  0
 30 21  1  0
M  END
>  <cnnaffinity>  (1) 
-5.21438

>  <filename>  (1) 
c1cncc(-c2cncc(-c3nc4ccccc4s3)n2)c1

$$$$
