
     RDKit          3D

 30 33  0  0  0  0  0  0  0  0999 V2000
    4.8500    1.2677   19.0898 C   0  0  0  0  0  0  0  0  0  0  0  0
    5.4612    1.2519   17.8318 C   0  0  0  0  0  0  0  0  0  0  0  0
    6.5951    0.5781   17.5768 N   0  0  0  0  0  0  0  0  0  0  0  0
    7.1587   -0.0973   18.5852 C   0  0  0  0  0  0  0  0  0  0  0  0
    6.6296   -0.1239   19.8826 C   0  0  0  0  0  0  0  0  0  0  0  0
    7.3171   -0.8319   20.9123 N   0  0  0  0  0  0  0  0  0  0  0  0
    7.0745   -2.1452   21.0714 N   0  0  0  0  0  0  0  0  0  0  0  0
    7.8433   -2.5100   22.0838 C   0  0  0  0  0  0  0  0  0  0  0  0
    8.6124   -1.4439   22.5795 C   0  0  0  0  0  0  0  0  0  0  0  0
    8.2511   -0.3523   21.8209 C   0  0  0  0  0  0  0  0  0  0  0  0
    8.6737    1.0284   21.9727 C   0  0  0  0  0  0  0  0  0  0  0  0
    9.6787    1.5415   22.8274 C   0  0  0  0  0  0  0  0  0  0  0  0
   10.5055    0.9905   23.7631 N   0  0  0  0  0  0  0  0  0  0  0  0
   11.3420    1.8097   24.3791 C   0  0  0  0  0  0  0  0  0  0  0  0
   11.4201    3.2157   24.1228 C   0  0  0  0  0  0  0  0  0  0  0  0
   10.5713    3.7508   23.1948 C   0  0  0  0  0  0  0  0  0  0  0  0
    9.6902    2.9124   22.5791 N   0  0  0  0  0  0  0  0  0  0  0  0
    8.7668    3.3062   21.6823 N   0  0  0  0  0  0  0  0  0  0  0  0
    8.1585    2.1879   21.3451 C   0  0  0  0  0  0  0  0  0  0  0  0
    7.3503    2.2694   20.6426 H   0  0  0  0  0  0  0  0  0  0  0  0
   10.5121    4.7793   22.8587 H   0  0  0  0  0  0  0  0  0  0  0  0
   12.1267    3.8388   24.6461 H   0  0  0  0  0  0  0  0  0  0  0  0
   12.0284    1.3810   25.1034 H   0  0  0  0  0  0  0  0  0  0  0  0
    9.3363   -1.4241   23.3751 H   0  0  0  0  0  0  0  0  0  0  0  0
    7.7986   -3.5259   22.4568 H   0  0  0  0  0  0  0  0  0  0  0  0
    5.4357    0.5585   20.1408 C   0  0  0  0  0  0  0  0  0  0  0  0
    5.0142    0.5824   21.1466 H   0  0  0  0  0  0  0  0  0  0  0  0
    8.0847   -0.6200   18.3616 H   0  0  0  0  0  0  0  0  0  0  0  0
    5.0210    1.7933   16.9971 H   0  0  0  0  0  0  0  0  0  0  0  0
    3.9388    1.8349   19.2388 H   0  0  0  0  0  0  0  0  0  0  0  0
  1  2  2  0
  2  3  1  0
  3  4  2  0
  4  5  1  0
  5  6  1  0
  6  7  1  0
  7  8  2  0
  8  9  1  0
  9 10  2  0
 10 11  1  0
 11 12  2  0
 12 13  1  0
 13 14  2  0
 14 15  1  0
 15 16  2  0
 16 17  1  0
 17 18  1  0
 18 19  2  0
 19 20  1  0
 16 21  1  0
 15 22  1  0
 14 23  1  0
  9 24  1  0
  8 25  1  0
  5 26  2  0
 26 27  1  0
  4 28  1  0
  2 29  1  0
  1 30  1  0
 26  1  1  0
 10  6  1  0
 19 11  1  0
 17 12  1  0
M  END
>  <cnnaffinity>  (1) 
-5.42168

>  <filename>  (1) 
c1cncc(-n2nccc2-c2cnn3cccnc23)c1

$$$$
