
     RDKit          3D

 48 53  0  0  0  0  0  0  0  0999 V2000
    4.8084    1.3092   19.0449 C   0  0  0  0  0  0  0  0  0  0  0  0
    5.4027    1.3017   17.7807 C   0  0  0  0  0  0  0  0  0  0  0  0
    6.5442    0.6520   17.5052 N   0  0  0  0  0  0  0  0  0  0  0  0
    7.1405    0.0011   18.5118 C   0  0  0  0  0  0  0  0  0  0  0  0
    6.6511   -0.0364   19.8288 C   0  0  0  0  0  0  0  0  0  0  0  0
    7.4197   -0.6925   20.9724 C   0  0  0  0  0  0  0  0  0  0  0  0
    8.3228    0.2637   21.7064 C   0  0  0  0  0  0  0  0  0  0  0  0
    9.5836    0.4708   21.3571 N   0  0  0  0  0  0  0  0  0  0  0  0
    9.9466    1.5176   22.1505 N   0  0  0  0  0  0  0  0  0  0  0  0
   11.2433    2.0973   22.1793 C   0  0  0  0  0  0  0  0  0  0  0  0
   12.3765    1.2753   22.3011 C   0  0  0  0  0  0  0  0  0  0  0  0
   12.5510   -0.0843   22.2269 N   0  0  0  0  0  0  0  0  0  0  0  0
   13.8710   -0.3251   22.4724 C   0  0  0  0  0  0  0  0  0  0  0  0
   14.5615    0.7506   22.7165 N   0  0  0  0  0  0  0  0  0  0  0  0
   13.6477    1.7903   22.6061 C   0  0  0  0  0  0  0  0  0  0  0  0
   13.8387    3.1886   22.6546 C   0  0  0  0  0  0  0  0  0  0  0  0
   12.7414    4.0166   22.4362 C   0  0  0  0  0  0  0  0  0  0  0  0
   11.4546    3.4783   22.2224 C   0  0  0  0  0  0  0  0  0  0  0  0
   10.6183    4.1610   22.1315 H   0  0  0  0  0  0  0  0  0  0  0  0
   12.8730    5.0900   22.4482 H   0  0  0  0  0  0  0  0  0  0  0  0
   14.8223    3.6139   22.7925 H   0  0  0  0  0  0  0  0  0  0  0  0
   14.2656   -1.3309   22.4809 H   0  0  0  0  0  0  0  0  0  0  0  0
   11.8657   -0.7017   21.8230 H   0  0  0  0  0  0  0  0  0  0  0  0
    8.9163    1.8159   22.9925 C   0  0  0  0  0  0  0  0  0  0  0  0
    8.9856    2.8457   24.0699 C   0  0  2  0  0  0  0  0  0  0  0  0
    8.3174    2.4593   25.4280 C   0  0  0  0  0  0  0  0  0  0  0  0
    7.2514    3.5693   25.5466 C   0  0  1  0  0  0  0  0  0  0  0  0
    7.9258    4.9129   25.9118 C   0  0  0  0  0  0  0  0  0  0  0  0
    8.5743    5.2945   24.5509 C   0  0  0  0  0  0  0  0  0  0  0  0
    8.1466    4.0962   23.6841 C   0  0  2  0  0  0  0  0  0  0  0  0
    6.8602    3.7768   24.1917 O   0  0  0  0  0  0  0  0  0  0  0  0
    8.0729    4.2951   22.6091 H   0  0  0  0  0  0  0  0  0  0  0  0
    9.6646    5.4030   24.5859 H   0  0  0  0  0  0  0  0  0  0  0  0
    8.1594    6.2264   24.1521 H   0  0  0  0  0  0  0  0  0  0  0  0
    7.1745    5.6482   26.2158 H   0  0  0  0  0  0  0  0  0  0  0  0
    8.6486    4.8030   26.7272 H   0  0  0  0  0  0  0  0  0  0  0  0
    6.3672    3.3057   26.1356 H   0  0  0  0  0  0  0  0  0  0  0  0
    9.0250    2.4687   26.2652 H   0  0  0  0  0  0  0  0  0  0  0  0
    7.8473    1.4696   25.3945 H   0  0  0  0  0  0  0  0  0  0  0  0
   10.0335    3.1054   24.2318 H   0  0  0  0  0  0  0  0  0  0  0  0
    7.8784    1.0525   22.7172 N   0  0  0  0  0  0  0  0  0  0  0  0
    6.7116   -1.1021   21.7025 H   0  0  0  0  0  0  0  0  0  0  0  0
    8.0375   -1.5153   20.5999 H   0  0  0  0  0  0  0  0  0  0  0  0
    5.4453    0.6272   20.0831 C   0  0  0  0  0  0  0  0  0  0  0  0
    5.0353    0.6140   21.0939 H   0  0  0  0  0  0  0  0  0  0  0  0
    8.0680   -0.5185   18.2632 H   0  0  0  0  0  0  0  0  0  0  0  0
    4.9435    1.8326   16.9486 H   0  0  0  0  0  0  0  0  0  0  0  0
    3.8842    1.8516   19.2063 H   0  0  0  0  0  0  0  0  0  0  0  0
  1  2  2  0
  2  3  1  0
  3  4  2  0
  4  5  1  0
  5  6  1  0
  6  7  1  0
  7  8  2  0
  8  9  1  0
  9 10  1  0
 10 11  2  0
 11 12  1  0
 12 13  1  0
 13 14  2  0
 14 15  1  0
 15 16  2  0
 16 17  1  0
 17 18  2  0
 18 19  1  0
 17 20  1  0
 16 21  1  0
 13 22  1  0
 12 23  1  0
  9 24  1  0
 24 25  1  0
 25 26  1  0
 26 27  1  0
 27 28  1  0
 28 29  1  0
 29 30  1  0
 30 31  1  0
 30 32  1  6
 29 33  1  0
 29 34  1  0
 28 35  1  0
 28 36  1  0
 27 37  1  1
 26 38  1  0
 26 39  1  0
 25 40  1  1
 24 41  2  0
  6 42  1  0
  6 43  1  0
  5 44  2  0
 44 45  1  0
  4 46  1  0
  2 47  1  0
  1 48  1  0
 44  1  1  0
 41  7  1  0
 18 10  1  0
 30 25  1  0
 15 11  1  0
 31 27  1  0
M  END
>  <cnnaffinity>  (1) 
-6.72654

>  <filename>  (1) 
c1cncc(Cc2nc([C@@H]3C[C@H]4CC[C@@H]3O4)n(-c3cccc4nc[nH]c34)n2)c1

$$$$
