
     RDKit          3D

 35 37  0  0  0  0  0  0  0  0999 V2000
    4.8013    1.3126   19.1128 C   0  0  0  0  0  0  0  0  0  0  0  0
    5.4027    1.2910   17.8458 C   0  0  0  0  0  0  0  0  0  0  0  0
    6.5711    0.6781   17.5731 N   0  0  0  0  0  0  0  0  0  0  0  0
    7.1722    0.0574   18.6040 C   0  0  0  0  0  0  0  0  0  0  0  0
    6.6478   -0.0072   19.9059 C   0  0  0  0  0  0  0  0  0  0  0  0
    7.3752   -0.7289   20.9807 C   0  0  0  0  0  0  0  0  0  0  0  0
    6.9221   -2.1182   20.9900 N   0  0  0  0  0  4  0  0  0  0  0  0
    7.5926   -2.8827   22.0488 C   0  0  2  0  0  0  0  0  0  0  0  0
    9.0563   -3.1587   21.7834 C   0  0  0  0  0  0  0  0  0  0  0  0
    9.2946   -4.3026   22.5422 O   0  0  0  0  0  0  0  0  0  0  0  0
    8.1267   -5.0891   22.8941 C   0  0  0  0  0  0  0  0  0  0  0  0
    7.2349   -3.9497   22.7992 C   0  0  1  0  0  0  0  0  0  0  0  0
    6.2993   -4.9491   20.5536 N   0  0  0  0  0  0  0  0  0  0  0  0
    5.5748   -5.6837   20.0464 C   0  0  0  0  0  0  0  0  0  0  0  0
    5.7979   -5.6735   19.6354 C   0  0  0  0  0  0  0  0  0  0  0  0
    5.7979   -5.6732   19.6353 C   0  0  0  0  0  0  0  0  0  0  0  0
    6.8516   -5.2373   20.1761 N   0  0  0  0  0  0  0  0  0  0  0  0
    6.9426   -6.2079   17.6875 H   0  0  0  0  0  0  0  0  0  0  0  0
    5.7808   -5.9655   19.9181 H   0  0  0  0  0  0  0  0  0  0  0  0
    4.1106   -4.4860   21.6154 H   0  0  0  0  0  0  0  0  0  0  0  0
    6.1948   -4.2245   23.0711 H   0  0  0  0  0  0  0  0  0  0  0  0
    8.2051   -5.0340   23.9576 H   0  0  0  0  0  0  0  0  0  0  0  0
    8.2557   -6.1400   22.5763 H   0  0  0  0  0  0  0  0  0  0  0  0
    9.2781   -3.2296   20.6917 H   0  0  0  0  0  0  0  0  0  0  0  0
    9.7250   -2.4256   22.2020 H   0  0  0  0  0  0  0  0  0  0  0  0
    7.5346   -2.3546   23.0151 H   0  0  0  0  0  0  0  0  0  0  0  0
    7.1137   -2.5725   20.0423 H   0  0  0  0  0  0  0  0  0  0  0  0
    5.8846   -2.1343   21.1319 H   0  0  0  0  0  0  0  0  0  0  0  0
    8.4484   -0.6772   20.8090 H   0  0  0  0  0  0  0  0  0  0  0  0
    7.1622   -0.2644   21.9403 H   0  0  0  0  0  0  0  0  0  0  0  0
    5.4443    0.6520   20.1574 C   0  0  0  0  0  0  0  0  0  0  0  0
    5.0091    0.6311   21.1567 H   0  0  0  0  0  0  0  0  0  0  0  0
    8.1288   -0.4334   18.3778 H   0  0  0  0  0  0  0  0  0  0  0  0
    4.9073    1.7735   17.0034 H   0  0  0  0  0  0  0  0  0  0  0  0
    3.8683    1.8490   19.2661 H   0  0  0  0  0  0  0  0  0  0  0  0
  1  2  2  0
  2  3  1  0
  3  4  2  0
  4  5  1  0
  5  6  1  0
  6  7  1  0
  7  8  1  0
  8  9  1  0
  9 10  1  0
 10 11  1  0
 11 12  1  0
 12 13  1  0
 13 14  1  0
 14 15  2  0
 15 16  1  0
 16 17  2  0
 16 18  1  0
 15 19  1  0
 14 20  1  0
 12 21  1  1
 11 22  1  0
 11 23  1  0
  9 24  1  0
  9 25  1  0
  8 26  1  1
  7 27  1  0
  7 28  1  0
  6 29  1  0
  6 30  1  0
  5 31  2  0
 31 32  1  0
  4 33  1  0
  2 34  1  0
  1 35  1  0
 31  1  1  0
 12  8  1  0
 17 13  1  0
M  CHG  1   7   1
M  END
>  <cnnaffinity>  (1) 
-4.71813

>  <filename>  (1) 
c1cncc(C[NH2+][C@@H]2COC[C@@H]2n2cccn2)c1

$$$$
