
     RDKit          3D

 26 28  0  0  0  0  0  0  0  0999 V2000
    4.9377    1.8594   16.9811 H   0  0  0  0  0  0  0  0  0  0  0  0
    5.3773    1.3045   17.8100 C   0  0  0  0  0  0  0  0  0  0  0  0
    6.5203    0.6449   17.5513 N   0  0  0  0  0  0  0  0  0  0  0  0
    7.1095   -0.0151   18.5626 C   0  0  0  0  0  0  0  0  0  0  0  0
    8.0385   -0.5403   18.3390 H   0  0  0  0  0  0  0  0  0  0  0  0
    6.5823   -0.0724   19.8747 C   0  0  0  0  0  0  0  0  0  0  0  0
    7.1976   -0.7519   20.9473 N   0  0  0  0  0  0  0  0  0  0  0  0
    6.5657   -1.1923   21.6031 H   0  0  0  0  0  0  0  0  0  0  0  0
    8.5050   -0.5623   21.3717 C   0  0  0  0  0  0  0  0  0  0  0  0
    9.3236    0.9775   21.1215 S   0  0  0  0  0  0  0  0  0  0  0  0
   10.8229    0.2768   21.6920 C   0  0  0  0  0  0  0  0  0  0  0  0
   12.0599    0.9210   21.7956 C   0  0  0  0  0  0  0  0  0  0  0  0
   12.1563    1.9772   21.5680 H   0  0  0  0  0  0  0  0  0  0  0  0
   13.1850    0.1565   22.0968 C   0  0  0  0  0  0  0  0  0  0  0  0
   14.1583    0.6384   22.1240 H   0  0  0  0  0  0  0  0  0  0  0  0
   13.0820   -1.2382   22.2736 C   0  0  0  0  0  0  0  0  0  0  0  0
   13.9905   -1.8198   22.3974 H   0  0  0  0  0  0  0  0  0  0  0  0
   11.8392   -1.8617   22.2557 C   0  0  0  0  0  0  0  0  0  0  0  0
   11.7319   -2.9341   22.3879 H   0  0  0  0  0  0  0  0  0  0  0  0
   10.6804   -1.0963   22.0021 C   0  0  0  0  0  0  0  0  0  0  0  0
    9.3043   -1.5128   21.9177 C   0  0  0  0  0  0  0  0  0  0  0  0
    8.9119   -2.4603   22.2683 H   0  0  0  0  0  0  0  0  0  0  0  0
    5.3746    0.5919   20.1117 C   0  0  0  0  0  0  0  0  0  0  0  0
    4.9564    0.5822   21.1166 H   0  0  0  0  0  0  0  0  0  0  0  0
    4.7695    1.3011   19.0689 C   0  0  0  0  0  0  0  0  0  0  0  0
    3.8602    1.8687   19.2321 H   0  0  0  0  0  0  0  0  0  0  0  0
  1  2  1  0
  2  3  2  0
  3  4  1  0
  4  5  1  0
  4  6  2  0
  6  7  1  0
  7  8  1  0
  7  9  1  0
  9 10  1  0
 10 11  1  0
 11 12  2  0
 12 13  1  0
 12 14  1  0
 14 15  1  0
 14 16  2  0
 16 17  1  0
 16 18  1  0
 18 19  1  0
 18 20  2  0
 20 21  1  0
 21 22  1  0
  6 23  1  0
 23 24  1  0
 23 25  2  0
 25 26  1  0
 25  2  1  0
 21  9  2  0
 20 11  1  0
M  END
>  <cnnaffinity>  (1) 
-4.78112

>  <filename>  (1) 
c1cncc(Nc2cc3ccccc3s2)c1

$$$$
