
     RDKit          3D

 27 29  0  0  0  0  0  0  0  0999 V2000
    4.9152    1.7819   16.9922 H   0  0  0  0  0  0  0  0  0  0  0  0
    5.4004    1.2956   17.8329 C   0  0  0  0  0  0  0  0  0  0  0  0
    6.5618    0.6770   17.5686 N   0  0  0  0  0  0  0  0  0  0  0  0
    7.1703    0.0732   18.5944 C   0  0  0  0  0  0  0  0  0  0  0  0
    8.1110   -0.4266   18.3724 H   0  0  0  0  0  0  0  0  0  0  0  0
    6.6544    0.0199   19.8962 C   0  0  0  0  0  0  0  0  0  0  0  0
    7.3798   -0.6985   20.9615 C   0  0  0  0  0  0  0  0  0  0  0  0
    8.7564   -0.5512   21.1148 C   0  0  0  0  0  0  0  0  0  0  0  0
    9.3209    0.1033   20.4656 H   0  0  0  0  0  0  0  0  0  0  0  0
    9.3769   -1.2427   22.1536 C   0  0  0  0  0  0  0  0  0  0  0  0
   10.4469   -1.1470   22.2962 H   0  0  0  0  0  0  0  0  0  0  0  0
    8.7370   -2.0517   23.0002 N   0  0  0  0  0  0  0  0  0  0  0  0
    7.4023   -2.1948   22.8601 C   0  0  0  0  0  0  0  0  0  0  0  0
    6.7066   -3.0942   23.8235 C   0  0  0  0  0  0  0  0  0  0  0  0
    5.3483   -3.2593   23.9656 C   0  0  0  0  0  0  0  0  0  0  0  0
    4.5362   -2.8293   23.4125 H   0  0  0  0  0  0  0  0  0  0  0  0
    4.9223   -4.3658   25.1881 S   0  0  0  0  0  0  0  0  0  0  0  0
    6.5731   -4.6661   25.5305 C   0  0  0  0  0  0  0  0  0  0  0  0
    6.8494   -5.3667   26.2990 H   0  0  0  0  0  0  0  0  0  0  0  0
    7.4052   -3.9379   24.7477 C   0  0  0  0  0  0  0  0  0  0  0  0
    8.4911   -3.9665   24.7956 H   0  0  0  0  0  0  0  0  0  0  0  0
    6.7011   -1.5367   21.8435 C   0  0  0  0  0  0  0  0  0  0  0  0
    5.6349   -1.6823   21.7159 H   0  0  0  0  0  0  0  0  0  0  0  0
    5.4301    0.6544   20.1489 C   0  0  0  0  0  0  0  0  0  0  0  0
    5.0122    0.6324   21.1609 H   0  0  0  0  0  0  0  0  0  0  0  0
    4.8016    1.3185   19.0999 C   0  0  0  0  0  0  0  0  0  0  0  0
    3.8684    1.8474   19.2563 H   0  0  0  0  0  0  0  0  0  0  0  0
  1  2  1  0
  2  3  2  0
  3  4  1  0
  4  5  1  0
  4  6  2  0
  6  7  1  0
  7  8  2  0
  8  9  1  0
  8 10  1  0
 10 11  1  0
 10 12  2  0
 12 13  1  0
 13 14  1  0
 14 15  2  0
 15 16  1  0
 15 17  1  0
 17 18  1  0
 18 19  1  0
 18 20  2  0
 20 21  1  0
 13 22  2  0
 22 23  1  0
  6 24  1  0
 24 25  1  0
 24 26  2  0
 26 27  1  0
 26  2  1  0
 22  7  1  0
 20 14  1  0
M  END
>  <cnnaffinity>  (1) 
-4.81279

>  <filename>  (1) 
c1cncc(-c2ccnc(-c3ccsc3)c2)c1

$$$$
