
     RDKit          3D

 29 32  0  0  0  0  0  0  0  0999 V2000
    4.9061    1.7726   17.0056 H   0  0  0  0  0  0  0  0  0  0  0  0
    5.4001    1.2923   17.8469 C   0  0  0  0  0  0  0  0  0  0  0  0
    6.5716    0.6824   17.5914 N   0  0  0  0  0  0  0  0  0  0  0  0
    7.1845    0.0528   18.5966 C   0  0  0  0  0  0  0  0  0  0  0  0
    8.1333   -0.4420   18.3848 H   0  0  0  0  0  0  0  0  0  0  0  0
    6.6576    0.0058   19.8991 C   0  0  0  0  0  0  0  0  0  0  0  0
    7.3441   -0.6974   20.9315 N   0  0  0  0  0  0  0  0  0  0  0  0
    7.7958   -1.9552   20.7620 N   0  0  0  0  0  0  0  0  0  0  0  0
    8.2571   -2.3391   21.8970 N   0  0  0  0  0  0  0  0  0  0  0  0
    8.1321   -1.3766   22.8313 N   0  0  0  0  0  0  0  0  0  0  0  0
    7.5736   -0.3529   22.2298 C   0  0  0  0  0  0  0  0  0  0  0  0
    7.3304    0.9711   22.7997 C   0  0  0  0  0  0  0  0  0  0  0  0
    7.0941    1.1085   24.5189 S   0  0  0  0  0  0  0  0  0  0  0  0
    6.9730    2.8453   24.3935 C   0  0  0  0  0  0  0  0  0  0  0  0
    6.7643    3.7753   25.4262 C   0  0  0  0  0  0  0  0  0  0  0  0
    6.6479    3.4309   26.4513 H   0  0  0  0  0  0  0  0  0  0  0  0
    6.7148    5.1270   25.0994 C   0  0  0  0  0  0  0  0  0  0  0  0
    6.5530    5.8614   25.8811 H   0  0  0  0  0  0  0  0  0  0  0  0
    6.8733    5.5557   23.7619 C   0  0  0  0  0  0  0  0  0  0  0  0
    6.8326    6.6114   23.5244 H   0  0  0  0  0  0  0  0  0  0  0  0
    7.0815    4.6405   22.7440 C   0  0  0  0  0  0  0  0  0  0  0  0
    7.2086    4.9426   21.7070 H   0  0  0  0  0  0  0  0  0  0  0  0
    7.1328    3.2709   23.0555 C   0  0  0  0  0  0  0  0  0  0  0  0
    7.3475    2.1752   22.1721 C   0  0  0  0  0  0  0  0  0  0  0  0
    7.5189    2.3288   21.1122 H   0  0  0  0  0  0  0  0  0  0  0  0
    5.4421    0.6431   20.1619 C   0  0  0  0  0  0  0  0  0  0  0  0
    5.0115    0.6282   21.1611 H   0  0  0  0  0  0  0  0  0  0  0  0
    4.8064    1.3096   19.1111 C   0  0  0  0  0  0  0  0  0  0  0  0
    3.8732    1.8444   19.2681 H   0  0  0  0  0  0  0  0  0  0  0  0
  1  2  1  0
  2  3  2  0
  3  4  1  0
  4  5  1  0
  4  6  2  0
  6  7  1  0
  7  8  1  0
  8  9  2  0
  9 10  1  0
 10 11  2  0
 11 12  1  0
 12 13  1  0
 13 14  1  0
 14 15  2  0
 15 16  1  0
 15 17  1  0
 17 18  1  0
 17 19  2  0
 19 20  1  0
 19 21  1  0
 21 22  1  0
 21 23  2  0
 23 24  1  0
 24 25  1  0
  6 26  1  0
 26 27  1  0
 26 28  2  0
 28 29  1  0
 28  2  1  0
 11  7  1  0
 24 12  2  0
 23 14  1  0
M  END
>  <cnnaffinity>  (1) 
-5.10729

>  <filename>  (1) 
c1cncc(-n2nnnc2-c2cc3ccccc3s2)c1

$$$$
