
     RDKit          3D

 49 55  0  0  0  0  0  0  0  0999 V2000
    4.8277    1.3022   18.9371 C   0  0  0  0  0  0  0  0  0  0  0  0
    5.3949    1.2618   17.6610 C   0  0  0  0  0  0  0  0  0  0  0  0
    6.5301    0.6003   17.3797 N   0  0  0  0  0  0  0  0  0  0  0  0
    7.1560   -0.0016   18.3958 C   0  0  0  0  0  0  0  0  0  0  0  0
    6.7161    0.0297   19.7302 C   0  0  0  0  0  0  0  0  0  0  0  0
    7.5560   -0.5219   20.8768 C   0  0  0  0  0  0  0  0  0  0  0  0
    8.3715    0.5092   21.6068 C   0  0  0  0  0  0  0  0  0  0  0  0
    7.8748    1.2009   22.6137 N   0  0  0  0  0  0  0  0  0  0  0  0
    8.9054    2.0080   22.9606 N   0  0  0  0  0  0  0  0  0  0  0  0
    8.8414    2.9894   23.9882 C   0  0  0  0  0  0  0  0  0  0  0  0
    8.3628    2.6298   25.2740 C   0  0  0  0  0  0  0  0  0  0  0  0
    8.4700    3.5181   26.3260 C   0  0  0  0  0  0  0  0  0  0  0  0
    9.0639    4.7996   26.1278 C   0  0  0  0  0  0  0  0  0  0  0  0
    9.2234    5.6508   27.2048 N   0  0  0  0  0  0  0  0  0  0  0  0
    9.8012    6.8063   26.9324 C   0  0  0  0  0  0  0  0  0  0  0  0
   10.2503    7.1702   25.6123 C   0  0  0  0  0  0  0  0  0  0  0  0
   10.1134    6.3813   24.5653 N   0  0  0  0  0  0  0  0  0  0  0  0
    9.5026    5.1695   24.8110 C   0  0  0  0  0  0  0  0  0  0  0  0
    9.3505    4.2545   23.7470 C   0  0  0  0  0  0  0  0  0  0  0  0
    9.6846    4.5753   22.7703 H   0  0  0  0  0  0  0  0  0  0  0  0
   10.7304    8.1350   25.4560 H   0  0  0  0  0  0  0  0  0  0  0  0
    9.9423    7.5049   27.7549 H   0  0  0  0  0  0  0  0  0  0  0  0
    8.1391    3.2817   27.3318 H   0  0  0  0  0  0  0  0  0  0  0  0
    7.9385    1.6368   25.4101 H   0  0  0  0  0  0  0  0  0  0  0  0
    9.9934    1.7222   22.1876 C   0  0  0  0  0  0  0  0  0  0  0  0
   11.3361    2.2616   22.5232 C   0  0  0  0  0  0  0  0  0  0  0  0
   12.6096    1.4629   22.2421 C   0  0  0  0  0  0  0  0  0  0  0  0
   12.7416   -0.0416   22.2369 C   0  0  0  0  0  0  0  0  0  0  0  0
   13.7329    0.8228   22.9918 C   0  0  0  0  0  0  0  0  0  0  0  0
   14.6823    1.0012   22.4856 H   0  0  0  0  0  0  0  0  0  0  0  0
   13.7802    0.7769   24.0774 H   0  0  0  0  0  0  0  0  0  0  0  0
   13.0644   -0.6561   21.3987 H   0  0  0  0  0  0  0  0  0  0  0  0
   11.9228   -0.4847   22.8079 H   0  0  0  0  0  0  0  0  0  0  0  0
   12.4790    2.8381   21.6797 C   0  0  0  0  0  0  0  0  0  0  0  0
   13.0174    4.2323   21.8711 C   0  0  0  0  0  0  0  0  0  0  0  0
   12.6143    3.7514   20.4973 C   0  0  0  0  0  0  0  0  0  0  0  0
   11.7446    4.0817   19.9805 H   0  0  0  0  0  0  0  0  0  0  0  0
   13.3909    3.6600   19.7573 H   0  0  0  0  0  0  0  0  0  0  0  0
   14.0777    4.3820   22.0666 H   0  0  0  0  0  0  0  0  0  0  0  0
   12.3254    4.8881   22.4067 H   0  0  0  0  0  0  0  0  0  0  0  0
   11.3175    2.7365   23.5088 H   0  0  0  0  0  0  0  0  0  0  0  0
    9.6690    0.7854   21.3054 N   0  0  0  0  0  0  0  0  0  0  0  0
    8.2476   -1.2913   20.5208 H   0  0  0  0  0  0  0  0  0  0  0  0
    6.9013   -0.9873   21.6209 H   0  0  0  0  0  0  0  0  0  0  0  0
    5.4940    0.6692   19.9863 C   0  0  0  0  0  0  0  0  0  0  0  0
    5.0880    0.6775   20.9997 H   0  0  0  0  0  0  0  0  0  0  0  0
    8.0729   -0.5385   18.1414 H   0  0  0  0  0  0  0  0  0  0  0  0
    4.9245    1.7774   16.8269 H   0  0  0  0  0  0  0  0  0  0  0  0
    3.8979    1.8389   19.0944 H   0  0  0  0  0  0  0  0  0  0  0  0
  1  2  2  0
  2  3  1  0
  3  4  2  0
  4  5  1  0
  5  6  1  0
  6  7  1  0
  7  8  2  0
  8  9  1  0
  9 10  1  0
 10 11  2  0
 11 12  1  0
 12 13  2  0
 13 14  1  0
 14 15  2  0
 15 16  1  0
 16 17  2  0
 17 18  1  0
 18 19  2  0
 19 20  1  0
 16 21  1  0
 15 22  1  0
 12 23  1  0
 11 24  1  0
  9 25  1  0
 25 26  1  0
 26 27  1  0
 27 28  1  0
 28 29  1  0
 29 30  1  0
 29 31  1  0
 28 32  1  0
 28 33  1  0
 27 34  1  0
 34 35  1  0
 35 36  1  0
 36 37  1  0
 36 38  1  0
 35 39  1  0
 35 40  1  0
 26 41  1  0
 25 42  2  0
  6 43  1  0
  6 44  1  0
  5 45  2  0
 45 46  1  0
  4 47  1  0
  2 48  1  0
  1 49  1  0
 45  1  1  0
 42  7  1  0
 19 10  1  0
 34 26  1  0
 18 13  1  0
 29 27  1  0
 36 34  1  0
M  END
>  <cnnaffinity>  (1) 
-6.78525

>  <filename>  (1) 
c1cncc(Cc2nc(C3C4(CC4)C34CC4)n(-c3ccc4nccnc4c3)n2)c1

$$$$
